drugbank_drug|DB00048  Collagenase Sequence
 OpenBabel12092119113D

  0  0  0     0  0            999 V3000
M  V30 BEGIN CTAB
M  V30 COUNTS 16194 16385 0 0 0
M  V30 BEGIN ATOM
M  V30 1 H -0.908 1.98254 -0.117106 0
M  V30 2 N 0 1.576 0 0
M  V30 3 C 0.933 2.03868 1.02534 0
M  V30 4 C 1.911 0.928543 1.3348 0
M  V30 5 O 3.095 1.19667 1.45644 0
M  V30 6 C 0.222 2.43627 2.35294 0
M  V30 7 C -0.732 3.65373 2.2001 0
M  V30 8 S 0.101 5.13292 1.52614 0
M  V30 9 C 1.257 5.56322 2.86805 0
M  V30 10 H 1.49 2.90518 0.631377 0
M  V30 11 H -0.977 1.52953 0.210867 0
M  V30 12 H 0.981 2.67203 3.11629 0
M  V30 13 H -0.358 1.57376 2.7183 0
M  V30 14 H -1.165 3.90944 3.18086 0
M  V30 15 H -1.563 3.418 1.51819 0
M  V30 16 H 0.729 5.58782 3.83104 0
M  V30 17 H 1.672 6.56266 2.65933 0
M  V30 18 H 2.08 4.83886 2.90714 0
M  V30 19 N 1.4781 -0.272755 1.55222 0
M  V30 20 C 2.4251 -1.33716 1.88119 0
M  V30 21 C 3.3951 -1.49066 0.73271 0
M  V30 22 O 4.5801 -1.63469 0.984002 0
M  V30 23 C 1.7201 -2.69238 2.15882 0
M  V30 24 C 0.8331 -2.62108 3.43399 0
M  V30 25 C -0.0319 -3.89811 3.60861 0
M  V30 26 C -0.9929 -3.77193 4.8207 0
M  V30 27 N -1.8559 -4.9673 4.96189 0
M  V30 28 H 2.9841 -1.04962 2.78903 0
M  V30 29 H 0.5211 -0.507088 1.38083 0
M  V30 30 H 2.4791 -3.48089 2.29978 0
M  V30 31 H 1.1091 -2.96194 1.28331 0
M  V30 32 H 0.1611 -1.74967 3.37773 0
M  V30 33 H 1.4731 -2.48685 4.32386 0
M  V30 34 H 0.6271 -4.77103 3.74777 0
M  V30 35 H -0.6339 -4.06102 2.7006 0
M  V30 36 H -1.6289 -2.88284 4.68159 0
M  V30 37 H -0.4039 -3.62421 5.74307 0
M  V30 38 H -2.4579 -5.13431 4.08319 0
M  V30 39 H -2.5409 -4.85839 5.79221 0
M  V30 40 H -1.2729 -5.85594 5.1449 0
M  V30 41 N 2.9562 -1.48159 -0.537278 0
M  V30 42 C 4.3722 -1.34118 -0.865129 0
M  V30 43 C 4.5722 -0.346678 -1.98495 0
M  V30 44 O 3.6282 0.234715 -2.51407 0
M  V30 45 C 4.9412 -2.73963 -1.23954 0
M  V30 46 C 6.4892 -2.82397 -1.34984 0
M  V30 47 C 6.9642 -4.22928 -1.75772 0
M  V30 48 N 8.4552 -4.25566 -1.82887 0
M  V30 49 C 9.1902 -5.31235 -2.15817 0
M  V30 50 N 8.6862 -6.47189 -2.47222 0
M  V30 51 N 10.4792 -5.18624 -2.16761 0
M  V30 52 H 2.6302 -2.1144 0.201715 0
M  V30 53 H 4.8932 -0.947598 0.0275949 0
M  V30 54 H 4.5992 -3.48264 -0.490381 0
M  V30 55 H 4.4732 -3.0702 -2.19132 0
M  V30 56 H 6.8602 -2.08356 -2.08978 0
M  V30 57 H 6.9412 -2.5297 -0.379448 0
M  V30 58 H 6.5852 -4.97482 -1.02341 0
M  V30 59 H 6.5152 -4.49794 -2.73848 0
M  V30 60 H 9.0062 -3.41924 -1.60924 0
M  V30 61 H 9.3192 -7.23564 -2.71433 0
M  V30 62 H 7.6642 -6.50476 -2.44757 0
M  V30 63 H 10.8552 -4.27056 -1.91679 0
M  V30 64 H 11.0282 -6.01078 -2.42093 0
M  V30 65 N 4.4343 0.785586 -1.36625 0
M  V30 66 C 5.3813 1.89838 -1.31264 0
M  V30 67 C 6.3513 1.65115 -0.180633 0
M  V30 68 O 7.5363 1.87222 -0.36777 0
M  V30 69 C 4.6763 3.26706 -1.11163 0
M  V30 70 C 3.7893 3.63476 -2.33472 0
M  V30 71 C 2.9243 4.89481 -2.06353 0
M  V30 72 C 1.9633 5.18941 -3.24602 0
M  V30 73 N 1.1003 6.36131 -2.97123 0
M  V30 74 H 5.9403 1.93756 -2.26413 0
M  V30 75 H 3.4773 0.947454 -1.12524 0
M  V30 76 H 5.4353 4.05639 -0.975337 0
M  V30 77 H 4.0653 3.222 -0.196674 0
M  V30 78 H 3.1173 2.79636 -2.57891 0
M  V30 79 H 4.4293 3.81193 -3.21704 0
M  V30 80 H 3.5833 5.76288 -1.89675 0
M  V30 81 H 2.3223 4.73841 -1.15437 0
M  V30 82 H 1.3273 4.30615 -3.41834 0
M  V30 83 H 2.5523 5.36498 -4.16349 0
M  V30 84 H 0.4983 6.21875 -2.08823 0
M  V30 85 H 0.4153 6.54198 -3.78894 0
M  V30 86 H 1.6833 7.2591 -2.84033 0
M  V30 87 N 5.9124 1.20967 1.01018 0
M  V30 88 C 7.1524 1.03511 1.76252 0
M  V30 89 C 7.5164 -0.42458 1.87247 0
M  V30 90 O 8.7174 -0.719508 2.58991 0
M  V30 91 C 6.9884 1.70726 3.13986 0
M  V30 92 S 8.5474 1.68458 4.05176 0
M  V30 93 H 5.3654 0.371037 0.606508 0
M  V30 94 H 7.9674 1.53628 1.20908 0
M  V30 95 H 6.6714 2.76128 3.03614 0
M  V30 96 H 6.2024 1.20767 3.74405 0
M  V30 97 H 8.2174 0.721987 4.90919 0
M  V30 98 N 7.3905 -1.2043 1.01659 0
M  V30 99 C 8.3205 -2.25466 0.607226 0
M  V30 100 C 9.3015 -1.65853 -0.377716 0
M  V30 101 O 10.4865 -1.92409 -0.263149 0
M  V30 102 C 7.6165 -3.47256 -0.0552949 0
M  V30 103 C 6.5705 -4.19462 0.850632 0
M  V30 104 C 5.8965 -5.34673 0.0538859 0
M  V30 105 C 7.1965 -4.75603 2.15868 0
M  V30 106 H 8.8905 -2.59962 1.48526 0
M  V30 107 H 6.4365 -1.2496 0.715605 0
M  V30 108 H 8.3895 -4.19917 -0.353233 0
M  V30 109 H 7.1135 -3.11924 -0.968045 0
M  V30 110 H 5.7725 -3.48667 1.13257 0
M  V30 111 H 5.4205 -4.95585 -0.860514 0
M  V30 112 H 5.1205 -5.83913 0.657192 0
M  V30 113 H 6.6445 -6.10138 -0.237598 0
M  V30 114 H 8.0585 -5.40083 1.92311 0
M  V30 115 H 6.4555 -5.3528 2.71284 0
M  V30 116 H 7.5255 -3.94346 2.82169 0
M  V30 117 N 8.8686 -0.792821 -1.36206 0
M  V30 118 C 10.0936 -0.377701 -2.03932 0
M  V30 119 C 10.5186 0.998947 -1.59382 0
M  V30 120 O 9.8766 1.64421 -0.763903 0
M  V30 121 C 9.9246 -0.453635 -3.57735 0
M  V30 122 O 9.0286 0.538151 -4.08874 0
M  V30 123 H 8.3696 -0.159855 -0.644471 0
M  V30 124 H 10.8996 -1.07488 -1.7409 0
M  V30 125 H 10.9096 -0.318464 -4.06755 0
M  V30 126 H 9.5846 -1.45784 -3.89512 0
M  V30 127 H 8.1616 0.364359 -3.71116 0
M  V30 128 N 10.3467 1.47872 -0.545128 0
M  V30 129 C 11.2937 2.29849 0.2093 0
M  V30 130 C 12.2637 1.38313 0.919707 0
M  V30 131 O 13.4487 1.67277 0.917772 0
M  V30 132 C 10.5887 3.22019 1.24088 0
M  V30 133 C 9.7017 4.2864 0.537778 0
M  V30 134 C 8.8367 5.07973 1.5536 0
M  V30 135 C 7.8757 6.06381 0.8348 0
M  V30 136 N 7.0127 6.78717 1.79688 0
M  V30 137 H 11.8527 2.93845 -0.49591 0
M  V30 138 H 9.3897 1.44848 -0.256389 0
M  V30 139 H 11.3477 3.73868 1.85144 0
M  V30 140 H 9.9777 2.59914 1.91428 0
M  V30 141 H 9.0297 3.7994 -0.187046 0
M  V30 142 H 10.3417 4.98793 -0.0258907 0
M  V30 143 H 9.4957 5.63912 2.23803 0
M  V30 144 H 8.2347 4.37693 2.15118 0
M  V30 145 H 7.2397 5.49631 0.136388 0
M  V30 146 H 8.4647 6.78665 0.24313 0
M  V30 147 H 6.4107 6.11177 2.38326 0
M  V30 148 H 6.3277 7.44998 1.28505 0
M  V30 149 H 7.5957 7.39237 2.47282 0
M  V30 150 N 11.8248 0.280983 1.55075 0
M  V30 151 C 13.2408 -0.0729964 1.59433 0
M  V30 152 C 13.4408 -1.5411 1.29817 0
M  V30 153 O 12.4968 -2.29086 1.06187 0
M  V30 154 C 13.8098 0.306921 2.9913 0
M  V30 155 C 15.3578 0.254023 3.11968 0
M  V30 156 C 15.8328 0.608467 4.5394 0
M  V30 157 N 17.3238 0.560241 4.59799 0
M  V30 158 C 18.0588 0.80722 5.6769 0
M  V30 159 N 17.5548 1.11912 6.83701 0
M  V30 160 N 19.3478 0.735623 5.57266 0
M  V30 161 H 11.4988 1.238 1.7259 0
M  V30 162 H 13.7618 0.500547 0.805082 0
M  V30 163 H 13.4678 1.32816 3.25657 0
M  V30 164 H 13.3418 -0.349363 3.75579 0
M  V30 165 H 15.7288 -0.75794 2.852 0
M  V30 166 H 15.8098 0.944649 2.37718 0
M  V30 167 H 15.4538 1.61814 4.81434 0
M  V30 168 H 15.3838 -0.104013 5.26497 0
M  V30 169 H 17.8748 0.329288 3.76463 0
M  V30 170 H 18.1878 1.29409 7.61888 0
M  V30 171 H 16.5328 1.15695 6.85303 0
M  V30 172 H 19.7238 0.491752 4.6551 0
M  V30 173 H 19.8968 0.931482 6.4127 0
M  V30 174 N 13.3029 -1.57598 0.00835791 0
M  V30 175 C 14.2329 -2.1198 -0.979113 0
M  V30 176 C 15.2139 -1.03091 -1.35301 0
M  V30 177 O 16.3989 -1.30818 -1.43528 0
M  V30 178 C 13.5289 -2.62995 -2.26828 0
M  V30 179 C 12.4829 -3.76485 -2.03576 0
M  V30 180 C 11.8089 -4.13846 -3.38579 0
M  V30 181 C 13.1089 -5.0342 -1.39161 0
M  V30 182 H 14.8029 -2.94738 -0.526281 0
M  V30 183 H 12.3489 -1.41783 -0.251704 0
M  V30 184 H 14.3019 -2.99669 -2.96271 0
M  V30 185 H 13.0259 -1.7737 -2.7424 0
M  V30 186 H 11.6849 -3.40217 -1.36557 0
M  V30 187 H 11.3329 -3.25232 -3.83709 0
M  V30 188 H 11.0329 -4.90312 -3.23834 0
M  V30 189 H 12.5569 -4.53086 -4.09323 0
M  V30 190 H 13.9709 -5.37812 -1.98573 0
M  V30 191 H 12.3679 -5.84746 -1.34878 0
M  V30 192 H 13.4379 -4.83548 -0.361868 0
M  V30 193 N 14.781 0.264519 -1.55364 0
M  V30 194 C 15.714 1.35297 -1.83766 0
M  V30 195 C 16.692 1.47171 -0.691336 0
M  V30 196 O 17.876 1.63663 -0.935238 0
M  V30 197 C 15.003 2.72847 -2.00679 0
M  V30 198 C 14.049 2.78214 -3.23263 0
M  V30 199 S 14.882 2.36601 -4.80396 0
M  V30 200 C 16.038 3.7611 -5.00292 0
M  V30 201 H 16.271 1.11003 -2.758 0
M  V30 202 H 13.804 0.464596 -1.47244 0
M  V30 203 H 15.762 3.52057 -2.11108 0
M  V30 204 H 14.423 2.94388 -1.09518 0
M  V30 205 H 13.616 3.7919 -3.3201 0
M  V30 206 H 13.218 2.07034 -3.11469 0
M  V30 207 H 15.51 4.71457 -4.86554 0
M  V30 208 H 16.453 3.7231 -6.02321 0
M  V30 209 H 16.861 3.67806 -4.28228 0
M  V30 210 N 16.2591 1.48442 0.529413 0
M  V30 211 C 17.1891 1.65902 1.64313 0
M  V30 212 C 18.1701 0.507897 1.6234 0
M  V30 213 O 19.3551 0.740503 1.79528 0
M  V30 214 C 16.4851 1.69911 3.02898 0
M  V30 215 C 15.4391 2.8453 3.19729 0
M  V30 216 C 14.7651 2.73629 4.59381 0
M  V30 217 C 16.0651 4.25821 3.02447 0
M  V30 218 H 17.7591 2.5914 1.49955 0
M  V30 219 H 15.3051 1.24709 0.719982 0
M  V30 220 H 17.2581 1.80715 3.80684 0
M  V30 221 H 15.9821 0.732524 3.18279 0
M  V30 222 H 14.6411 2.73283 2.44361 0
M  V30 223 H 14.2891 1.74938 4.71599 0
M  V30 224 H 13.9891 3.50541 4.71588 0
M  V30 225 H 15.5131 2.86401 5.39265 0
M  V30 226 H 16.9271 4.37898 3.70024 0
M  V30 227 H 15.3241 5.03735 3.26146 0
M  V30 228 H 16.3941 4.42244 1.98867 0
M  V30 229 N 17.7372 -0.778329 1.37039 0
M  V30 230 C 18.7002 -1.87301 1.32102 0
M  V30 231 C 19.7002 -1.59198 0.226405 0
M  V30 232 O 20.8902 -1.67403 0.481861 0
M  V30 233 C 18.0222 -3.24309 1.05055 0
M  V30 234 H 19.2152 -1.93093 2.29467 0
M  V30 235 H 16.7682 -0.977358 1.21973 0
M  V30 236 H 17.5032 -3.24196 0.0819373 0
M  V30 237 H 17.2882 -3.46098 1.84279 0
M  V30 238 H 18.7782 -4.04382 1.04234 0
M  V30 239 N 19.2153 -1.21501 -1.00376 0
M  V30 240 C 20.4643 -1.02718 -1.73586 0
M  V30 241 C 20.7773 0.439589 -1.90596 0
M  V30 242 O 21.9833 0.746848 -2.61026 0
M  V30 243 C 20.4393 -1.78929 -3.1227 0
M  V30 244 C 20.0473 -3.29783 -3.03228 0
M  V30 245 C 21.7913 -1.68557 -3.89601 0
M  V30 246 C 19.6983 -3.98479 -4.36999 0
M  V30 247 H 18.6283 -0.380733 -0.650814 0
M  V30 248 H 21.2793 -1.45248 -1.1214 0
M  V30 249 H 19.6613 -1.29192 -3.74333 0
M  V30 250 H 20.8353 -3.86832 -2.50395 0
M  V30 251 H 19.1503 -3.40711 -2.39385 0
M  V30 252 H 21.7473 -2.17211 -4.88593 0
M  V30 253 H 22.0903 -0.644021 -4.11288 0
M  V30 254 H 22.6233 -2.15778 -3.34193 0
M  V30 255 H 19.3623 -5.02841 -4.20513 0
M  V30 256 H 18.8823 -3.46219 -4.89788 0
M  V30 257 H 20.5613 -4.03462 -5.05794 0
M  V30 258 N 20.6934 1.19889 -1.02296 0
M  V30 259 C 21.9214 1.9339 -0.735399 0
M  V30 260 C 22.3364 1.75148 0.704887 0
M  V30 261 O 21.6934 1.06954 1.47875 0
M  V30 262 C 21.7444 3.45313 -1.06962 0
M  V30 263 O 21.4654 3.62964 -2.45334 0
M  V30 264 C 22.9664 4.35948 -0.804021 0
M  V30 265 H 20.1864 0.61448 -0.269546 0
M  V30 266 H 22.7304 1.522 -1.36585 0
M  V30 267 H 20.8854 3.84359 -0.484455 0
M  V30 268 H 21.2994 4.56886 -2.57595 0
M  V30 269 H 22.7734 5.41174 -1.0879 0
M  V30 270 H 23.2504 4.3842 0.261691 0
M  V30 271 H 23.8564 4.02574 -1.37164 0
M  V30 272 N 22.1715 0.800033 1.35784 0
M  V30 273 C 23.1045 0.151499 2.27697 0
M  V30 274 C 24.0825 -0.678663 1.4776 0
M  V30 275 O 25.2665 -0.647358 1.77035 0
M  V30 276 C 22.3935 -0.790492 3.29346 0
M  V30 277 C 21.4395 -0.0407832 4.26481 0
M  V30 278 S 22.2725 1.29077 5.19711 0
M  V30 279 C 23.4285 0.353055 6.24903 0
M  V30 280 H 23.6615 0.930796 2.82353 0
M  V30 281 H 21.1945 0.594767 1.42485 0
M  V30 282 H 23.1525 -1.3285 3.88409 0
M  V30 283 H 21.8135 -1.54312 2.73581 0
M  V30 284 H 21.0065 -0.755971 4.98298 0
M  V30 285 H 20.6085 0.427063 3.71554 0
M  V30 286 H 22.9005 -0.464147 6.75908 0
M  V30 287 H 23.8435 1.04023 7.00418 0
M  V30 288 H 24.2515 -0.0483344 5.64479 0
M  V30 289 N 23.6496 -1.47581 0.552962 0
M  V30 290 C 24.6126 -2.28439 -0.186605 0
M  V30 291 C 25.6126 -1.36706 -0.84665 0
M  V30 292 O 26.8026 -1.59378 -0.703164 0
M  V30 293 C 23.9346 -3.16264 -1.2724 0
M  V30 294 H 25.1276 -2.95294 0.523609 0
M  V30 295 H 22.6806 -1.532 0.309745 0
M  V30 296 H 23.4156 -2.54091 -2.01514 0
M  V30 297 H 23.2006 -3.83769 -0.803968 0
M  V30 298 H 24.6906 -3.77198 -1.79196 0
M  V30 299 N 25.1277 -0.289203 -1.54924 0
M  V30 300 C 26.3557 0.326463 -2.04308 0
M  V30 301 C 26.7707 1.48413 -1.16701 0
M  V30 302 O 26.1277 1.81507 -0.190087 0
M  V30 303 C 26.1787 0.794014 -3.52672 0
M  V30 304 O 25.8997 -0.317564 -4.36948 0
M  V30 305 C 27.4007 1.47605 -4.18004 0
M  V30 306 H 24.6207 0.0726272 -0.667058 0
M  V30 307 H 27.1647 -0.425401 -2.00026 0
M  V30 308 H 25.3197 1.49593 -3.57352 0
M  V30 309 H 25.7337 0.0443186 -5.24481 0
M  V30 310 H 27.2077 1.75447 -5.23376 0
M  V30 311 H 27.6847 2.41224 -3.67025 0
M  V30 312 H 28.2907 0.81762 -4.17367 0
M  V30 313 N 26.6058 1.57591 -0.0167156 0
M  V30 314 C 27.8548 1.90461 0.663877 0
M  V30 315 C 28.1678 0.893515 1.73999 0
M  V30 316 O 29.3738 1.11302 2.47637 0
M  V30 317 C 27.8298 3.38155 1.23204 0
M  V30 318 C 27.4378 4.47597 0.189866 0
M  V30 319 C 29.1818 3.80111 1.88986 0
M  V30 320 C 27.0888 5.86379 0.768964 0
M  V30 321 H 26.0188 0.710738 0.251729 0
M  V30 322 H 28.6698 1.83326 -0.0799926 0
M  V30 323 H 27.0518 3.40182 2.02712 0
M  V30 324 H 28.2258 4.57112 -0.581846 0
M  V30 325 H 26.5408 4.14766 -0.368475 0
M  V30 326 H 29.1378 4.81145 2.33247 0
M  V30 327 H 29.4808 3.14511 2.72743 0
M  V30 328 H 30.0138 3.80454 1.16187 0
M  V30 329 H 26.7528 6.55493 -0.0301957 0
M  V30 330 H 26.2728 5.80496 1.50945 0
M  V30 331 H 27.9518 6.34563 1.26251 0
M  V30 332 N 28.0839 -0.256276 1.55502 0
M  V30 333 C 29.3309 -0.985619 1.76895 0
M  V30 334 C 29.6589 -1.85671 0.579355 0
M  V30 335 O 28.9139 -1.90744 -0.437651 0
M  V30 336 C 29.2129 -1.88432 3.03691 0
M  V30 337 C 28.8789 -1.16936 4.35473 0
M  V30 338 C 27.5409 -0.97173 4.71286 0
M  V30 339 C 29.8929 -0.661889 5.1698 0
M  V30 340 C 27.2209 -0.254179 5.86149 0
M  V30 341 C 29.5729 0.042149 6.32586 0
M  V30 342 C 28.2369 0.25134 6.67027 0
M  V30 343 H 27.5069 -0.360663 0.647304 0
M  V30 344 H 30.1539 -0.256483 1.89775 0
M  V30 345 H 28.4589 -2.68021 2.85783 0
M  V30 346 H 30.1559 -2.45015 3.1744 0
M  V30 347 H 26.7459 -1.33332 4.07333 0
M  V30 348 H 30.9299 -0.802145 4.89775 0
M  V30 349 H 26.1859 -0.0815408 6.11346 0
M  V30 350 H 30.3599 0.443049 6.94989 0
M  V30 351 H 27.9869 0.809314 7.5588 0
M  V30 352 N 29.562 -1.4872 -0.521534 0
M  V30 353 C 30.79 -1.60843 -1.30142 0
M  V30 354 C 31.205 -0.271897 -1.86832 0
M  V30 355 O 30.562 0.739969 -1.66825 0
M  V30 356 C 30.613 -2.66155 -2.4463 0
M  V30 357 O 30.334 -3.94623 -1.90275 0
M  V30 358 C 31.835 -2.88795 -3.36322 0
M  V30 359 H 29.055 -0.542075 -0.395468 0
M  V30 360 H 31.599 -1.94609 -0.628285 0
M  V30 361 H 29.754 -2.35224 -3.07812 0
M  V30 362 H 30.168 -4.52468 -2.65279 0
M  V30 363 H 31.642 -3.66264 -4.12983 0
M  V30 364 H 32.119 -1.97934 -3.9207 0
M  V30 365 H 32.725 -3.21063 -2.78924 0
M  V30 366 N 31.0401 0.771051 -1.3745 0
M  V30 367 C 32.2861 1.5319 -1.32894 0
M  V30 368 C 32.6191 1.94008 0.0862511 0
M  V30 369 O 31.8941 1.64124 1.04373 0
M  V30 370 C 32.1771 2.79648 -2.26868 0
M  V30 371 C 32.0301 2.45079 -3.77169 0
M  V30 372 C 33.3491 3.81583 -2.19277 0
M  V30 373 H 30.4681 0.555744 -0.484064 0
M  V30 374 H 33.1101 0.884492 -1.68157 0
M  V30 375 H 31.2601 3.34891 -1.96926 0
M  V30 376 H 32.9321 1.95745 -4.1771 0
M  V30 377 H 31.1751 1.77767 -3.95704 0
M  V30 378 H 31.8461 3.35478 -4.38359 0
M  V30 379 H 34.3221 3.35835 -2.45671 0
M  V30 380 H 33.1981 4.67787 -2.87171 0
M  V30 381 H 33.4591 4.25897 -1.18592 0
M  V30 382 N 32.5182 1.22032 0.997298 0
M  V30 383 C 33.4662 0.983634 2.10778 0
M  V30 384 C 34.4602 -0.0717564 1.69248 0
M  V30 385 O 35.6662 0.080304 1.79821 0
M  V30 386 H 32.0412 0.300877 0.689186 0
M  V30 387 H 34.0122 1.92606 2.27916 0
M  V30 388 C 32.7612 0.57326 3.42942 0
M  V30 389 H 32.0842 1.37702 3.75338 0
M  V30 390 H 33.5242 0.447031 4.21637 0
M  V30 391 C 31.9832 -0.7167 3.29188 0
M  V30 392 O 32.5132 -1.77027 3.60589 0
M  V30 393 N 30.7192 -0.686167 2.82383 0
M  V30 394 H 30.2662 0.171507 2.57028 0
M  V30 395 H 30.2242 -1.54955 2.73562 0
M  V30 396 N 33.9963 -1.19345 1.0293 0
M  V30 397 C 35.2213 -1.93538 0.745511 0
M  V30 398 C 35.6463 -1.75007 -0.689511 0
M  V30 399 O 35.0043 -1.05265 -1.47611 0
M  V30 400 C 35.0523 -3.43336 1.10239 0
M  V30 401 O 34.1563 -4.11806 0.221289 0
M  V30 402 H 33.4973 -0.604193 0.275404 0
M  V30 403 H 36.0273 -1.5141 1.37609 0
M  V30 404 H 36.0373 -3.94004 1.05947 0
M  V30 405 H 34.7123 -3.56146 2.14786 0
M  V30 406 H 33.2893 -3.715 0.322842 0
M  V30 407 N 35.4744 -0.807222 -1.35358 0
M  V30 408 C 36.7024 -0.400377 -2.02989 0
M  V30 409 C 37.1174 0.988859 -1.60832 0
M  V30 410 O 36.4744 1.63729 -0.806175 0
M  V30 411 C 36.5254 -0.474867 -3.58368 0
M  V30 412 O 36.2464 -1.80933 -3.98992 0
M  V30 413 C 37.7474 -0.0609112 -4.43258 0
M  V30 414 H 34.9674 -0.162587 -0.651004 0
M  V30 415 H 37.5114 -1.09102 -1.72965 0
M  V30 416 H 35.6664 0.167534 -3.87038 0
M  V30 417 H 36.0804 -1.77256 -4.9364 0
M  V30 418 H 37.5544 -0.164145 -5.51756 0
M  V30 419 H 38.0314 0.993831 -4.27808 0
M  V30 420 H 38.6374 -0.676492 -4.19885 0
M  V30 421 N 36.9525 1.47285 -0.560781 0
M  V30 422 C 37.8825 2.32857 0.173105 0
M  V30 423 C 38.8635 1.44009 0.905281 0
M  V30 424 O 40.0485 1.7286 0.885046 0
M  V30 425 C 37.1785 3.25861 1.20133 0
M  V30 426 C 36.1325 4.23978 0.585388 0
M  V30 427 C 35.4585 5.06332 1.7185 0
M  V30 428 C 36.7585 5.20242 -0.463178 0
M  V30 429 H 38.4525 2.94466 -0.541307 0
M  V30 430 H 35.9985 1.41601 -0.261764 0
M  V30 431 H 37.9515 3.84569 1.72293 0
M  V30 432 H 36.6755 2.62315 1.94573 0
M  V30 433 H 35.3345 3.66501 0.085054 0
M  V30 434 H 34.9825 4.39186 2.45203 0
M  V30 435 H 34.6825 5.72762 1.31213 0
M  V30 436 H 36.2065 5.67899 2.24329 0
M  V30 437 H 37.6205 5.73293 -0.027502 0
M  V30 438 H 36.0175 5.94896 -0.788627 0
M  V30 439 H 37.0875 4.65504 -1.35773 0
M  V30 440 N 38.4306 0.297415 1.54768 0
M  V30 441 C 39.8416 -0.195947 1.85669 0
M  V30 442 C 40.1926 -1.53707 1.21937 0
M  V30 443 O 39.3176 -2.10164 0.515754 0
M  V30 444 C 39.9126 -0.362318 3.36857 0
M  V30 445 C 38.4716 -0.799901 3.67802 0
M  V30 446 C 37.6186 0.0938578 2.77141 0
M  V30 447 H 40.5696 0.518538 1.4999 0
M  V30 448 H 40.5906 -1.19745 3.61167 0
M  V30 449 H 40.1026 0.613921 3.83214 0
M  V30 450 H 38.2036 -1.78682 3.26961 0
M  V30 451 H 38.3166 -0.621773 4.75048 0
M  V30 452 H 36.6806 -0.426254 2.51108 0
M  V30 453 H 37.4636 1.06639 3.26318 0
M  V30 454 N 39.9087 -1.5758 0.0250728 0
M  V30 455 C 41.1577 -1.90811 -0.653767 0
M  V30 456 C 41.4707 -0.90273 -1.73523 0
M  V30 457 O 42.6767 -1.12614 -2.47043 0
M  V30 458 C 41.1327 -3.38804 -1.21409 0
M  V30 459 C 40.7407 -4.47692 -0.166126 0
M  V30 460 C 42.4847 -3.81108 -1.86967 0
M  V30 461 C 40.3917 -5.86779 -0.737856 0
M  V30 462 H 39.3217 -0.712063 -0.247956 0
M  V30 463 H 41.9727 -1.83281 0.0897137 0
M  V30 464 H 40.3547 -3.41252 -2.00905 0
M  V30 465 H 41.5287 -4.56797 0.606079 0
M  V30 466 H 39.8437 -4.14565 0.390466 0
M  V30 467 H 42.4407 -4.82375 -2.30692 0
M  V30 468 H 42.7837 -3.15953 -2.71071 0
M  V30 469 H 43.3167 -3.81065 -1.14167 0
M  V30 470 H 40.0557 -6.55468 0.0649577 0
M  V30 471 H 39.5757 -5.81288 -1.47864 0
M  V30 472 H 41.2547 -6.35223 -1.22884 0
M  V30 473 N 41.3868 0.248026 -1.55636 0
M  V30 474 C 42.6168 0.992367 -1.81206 0
M  V30 475 C 43.0248 1.7949 -0.598324 0
M  V30 476 O 42.3678 1.78292 0.442434 0
M  V30 477 C 42.4298 1.97926 -3.00109 0
M  V30 478 C 42.0938 1.36377 -4.36177 0
M  V30 479 C 43.0908 0.76682 -5.14214 0
M  V30 480 C 40.7758 1.38347 -4.82872 0
M  V30 481 C 42.7698 0.197778 -6.37093 0
M  V30 482 C 40.4568 0.810574 -6.057 0
M  V30 483 C 41.4548 0.218754 -6.8265 0
M  V30 484 O 41.1428 -0.345298 -8.03158 0
M  V30 485 H 40.8748 0.297704 -0.606917 0
M  V30 486 H 43.4288 0.276517 -2.0353 0
M  V30 487 H 41.6588 2.73339 -2.73538 0
M  V30 488 H 43.3478 2.58694 -3.12781 0
M  V30 489 H 44.1138 0.744114 -4.79258 0
M  V30 490 H 39.9928 1.8335 -4.2297 0
M  V30 491 H 43.5368 -0.264788 -6.97097 0
M  V30 492 H 39.4338 0.830604 -6.40134 0
M  V30 493 H 40.2018 -0.237055 -8.18157 0
M  V30 494 N 42.8649 1.48995 0.513639 0
M  V30 495 C 43.8279 1.64229 1.59879 0
M  V30 496 C 44.8279 0.514696 1.5234 0
M  V30 497 O 46.0179 0.78087 1.55718 0
M  V30 498 C 43.1499 1.62783 2.99524 0
M  V30 499 H 44.3429 2.61004 1.47705 0
M  V30 500 H 41.8959 1.37837 0.736936 0
M  V30 501 H 42.6309 0.675461 3.17188 0
M  V30 502 H 42.4159 2.4466 3.06404 0
M  V30 503 H 43.9059 1.76669 3.78388 0
M  V30 504 N 44.343 -0.763751 1.37857 0
M  V30 505 C 45.306 -1.85889 1.34081 0
M  V30 506 C 46.306 -1.58949 0.243277 0
M  V30 507 O 47.496 -1.66882 0.499589 0
M  V30 508 C 44.628 -3.23176 1.08489 0
M  V30 509 H 45.821 -1.90648 2.31502 0
M  V30 510 H 43.374 -0.964367 1.23003 0
M  V30 511 H 44.109 -3.24091 0.116318 0
M  V30 512 H 43.894 -3.44124 1.8794 0
M  V30 513 H 45.384 -4.03254 1.08517 0
M  V30 514 N 45.8211 -1.22559 -0.990812 0
M  V30 515 C 47.0671 -1.05297 -1.73322 0
M  V30 516 C 47.4001 0.410655 -1.89808 0
M  V30 517 O 46.6751 1.30439 -1.44277 0
M  V30 518 C 46.9581 -1.76713 -3.13759 0
M  V30 519 C 46.8111 -3.30684 -3.04907 0
M  V30 520 C 48.1301 -1.52121 -4.12974 0
M  V30 521 H 45.2491 -0.38392 -0.629106 0
M  V30 522 H 47.8911 -1.50926 -1.15418 0
M  V30 523 H 46.0411 -1.37924 -3.63193 0
M  V30 524 H 47.7131 -3.7893 -2.63077 0
M  V30 525 H 45.9561 -3.60253 -2.41661 0
M  V30 526 H 46.6271 -3.75833 -4.04294 0
M  V30 527 H 49.1031 -1.85819 -3.72304 0
M  V30 528 H 47.9791 -2.04582 -5.0935 0
M  V30 529 H 48.2401 -0.454257 -4.3976 0
M  V30 530 N 47.2992 1.18797 -1.03562 0
M  V30 531 C 48.5762 1.84469 -0.650434 0
M  V30 532 C 48.9562 1.92319 0.870433 0
M  V30 533 O 48.3042 1.44528 1.76986 0
M  V30 534 C 48.5142 3.2306 -1.32036 0
M  V30 535 C 49.8622 3.9915 -1.44792 0
M  V30 536 O 50.8862 3.32481 -1.27806 0
M  V30 537 O 49.7452 5.18587 -1.72423 0
M  V30 538 H 46.8392 0.795251 -0.226946 0
M  V30 539 H 49.3852 1.26231 -1.13419 0
M  V30 540 H 48.1572 3.1222 -2.3587 0
M  V30 541 H 47.7802 3.88949 -0.8249 0
M  V30 542 N 48.7773 0.814389 1.34928 0
M  V30 543 C 49.7243 0.22822 2.29669 0
M  V30 544 C 50.6943 -0.642164 1.53184 0
M  V30 545 O 51.8793 -0.585605 1.81591 0
M  V30 546 C 49.0193 -0.61089 3.3965 0
M  V30 547 C 48.1323 0.280792 4.31086 0
M  V30 548 C 47.2673 -0.567067 5.28165 0
M  V30 549 C 46.3063 0.324531 6.11239 0
M  V30 550 N 45.4433 -0.483756 7.00431 0
M  V30 551 H 50.2833 1.04153 2.79206 0
M  V30 552 H 47.8203 0.525133 1.37407 0
M  V30 553 H 49.7783 -1.11263 4.0209 0
M  V30 554 H 48.4083 -1.38939 2.91369 0
M  V30 555 H 47.4603 0.900688 3.69583 0
M  V30 556 H 48.7723 0.966723 4.89342 0
M  V30 557 H 47.9263 -1.13363 5.96015 0
M  V30 558 H 46.6653 -1.28654 4.70425 0
M  V30 559 H 45.6703 0.903298 5.42329 0
M  V30 560 H 46.8953 1.04198 6.71059 0
M  V30 561 H 44.8413 -1.18706 6.45171 0
M  V30 562 H 44.7583 0.143965 7.55863 0
M  V30 563 H 46.0263 -1.03334 7.7262 0
M  V30 564 N 50.2554 -1.46986 0.568584 0
M  V30 565 C 51.2034 -2.31858 -0.185649 0
M  V30 566 C 52.1974 -1.43624 -0.898249 0
M  V30 567 O 53.4034 -1.60327 -0.818242 0
M  V30 568 H 49.7784 -0.747866 -0.0787399 0
M  V30 569 H 51.7494 -2.93303 0.549191 0
M  V30 570 C 50.4984 -3.26513 -1.19519 0
M  V30 571 H 49.8214 -3.94377 -0.656285 0
M  V30 572 H 51.2614 -3.88707 -1.6936 0
M  V30 573 C 49.7204 -2.50847 -2.24894 0
M  V30 574 O 50.2504 -2.26119 -3.32014 0
M  V30 575 N 48.4564 -2.11656 -1.99124 0
M  V30 576 H 48.0034 -2.31966 -1.12024 0
M  V30 577 H 47.9614 -1.61347 -2.69842 0
M  V30 578 N 51.7335 -0.305618 -1.54608 0
M  V30 579 C 52.6815 0.584119 -2.25146 0
M  V30 580 C 53.6755 1.13326 -1.25911 0
M  V30 581 O 54.8815 1.08337 -1.43747 0
M  V30 582 H 51.2565 0.206983 -0.722954 0
M  V30 583 H 53.2275 -0.033291 -2.98381 0
M  V30 584 C 51.9765 1.74225 -3.009 0
M  V30 585 H 51.2995 1.32892 -3.77067 0
M  V30 586 H 52.7395 2.34077 -3.53531 0
M  V30 587 C 51.1985 2.64914 -2.0814 0
M  V30 588 O 51.7285 3.66137 -1.65246 0
M  V30 589 N 49.9345 2.3275 -1.74 0
M  V30 590 H 49.4815 1.50479 -2.09078 0
M  V30 591 H 49.4395 2.93694 -1.12211 0
M  V30 592 N 53.2116 1.57565 -0.0334293 0
M  V30 593 C 54.1746 2.09393 0.932048 0
M  V30 594 C 55.1746 1.00986 1.25134 0
M  V30 595 O 56.3646 1.27129 1.19096 0
M  V30 596 C 53.4966 2.56338 2.2473 0
M  V30 597 H 54.6896 2.95984 0.483085 0
M  V30 598 H 52.2426 1.54819 0.21468 0
M  V30 599 H 52.9776 1.7309 2.74245 0
M  V30 600 H 52.7626 3.35542 2.02865 0
M  V30 601 H 54.2526 2.96646 2.93923 0
M  V30 602 N 54.6897 -0.239769 1.55765 0
M  V30 603 C 55.9177 -0.98417 1.81994 0
M  V30 604 C 56.3327 -1.7867 0.610124 0
M  V30 605 O 55.6897 -1.77571 -0.421271 0
M  V30 606 C 55.7407 -1.91635 3.06526 0
M  V30 607 O 55.4617 -1.14629 4.22838 0
M  V30 608 C 56.9627 -2.77616 3.45607 0
M  V30 609 H 54.1827 -0.28928 0.605441 0
M  V30 610 H 56.7267 -0.260499 2.02834 0
M  V30 611 H 54.8817 -2.5942 2.87715 0
M  V30 612 H 55.2957 -1.77745 4.93464 0
M  V30 613 H 56.7697 -3.38759 4.35828 0
M  V30 614 H 57.2467 -3.4909 2.6652 0
M  V30 615 H 57.8527 -2.15271 3.66795 0
M  V30 616 N 56.1678 -1.49265 -0.50573 0
M  V30 617 C 57.1308 -1.65075 -1.59006 0
M  V30 618 C 58.1308 -0.522768 -1.52065 0
M  V30 619 O 59.3208 -0.789117 -1.55302 0
M  V30 620 C 56.4528 -1.64369 -2.98656 0
M  V30 621 H 57.6458 -2.61784 -1.46319 0
M  V30 622 H 55.1988 -1.38226 -0.729616 0
M  V30 623 H 55.9338 -0.692272 -3.16825 0
M  V30 624 H 55.7188 -2.46282 -3.05103 0
M  V30 625 H 57.2088 -1.78674 -3.77446 0
M  V30 626 N 57.6459 0.756429 -1.3826 0
M  V30 627 C 58.6089 1.85176 -1.35065 0
M  V30 628 C 59.6089 1.58818 -0.251703 0
M  V30 629 O 60.7989 1.66615 -0.508433 0
M  V30 630 C 57.9309 3.22596 -1.10201 0
M  V30 631 H 59.1239 1.89417 -2.3251 0
M  V30 632 H 56.6769 0.95783 -1.23512 0
M  V30 633 H 57.4119 3.24025 -0.133504 0
M  V30 634 H 57.1969 3.43122 -1.89762 0
M  V30 635 H 58.6869 4.02673 -1.10654 0
M  V30 636 N 59.124 1.23083 0.984299 0
M  V30 637 C 60.37 1.06214 1.72761 0
M  V30 638 C 60.703 -0.400584 1.90024 0
M  V30 639 O 59.978 -1.29672 1.44967 0
M  V30 640 C 60.261 1.78375 3.12817 0
M  V30 641 C 60.114 3.32296 3.03149 0
M  V30 642 C 61.433 1.54309 4.12161 0
M  V30 643 H 58.552 0.387251 0.627061 0
M  V30 644 H 61.194 1.51536 1.14616 0
M  V30 645 H 59.344 1.39848 3.62457 0
M  V30 646 H 61.016 3.8032 2.61064 0
M  V30 647 H 59.259 3.6153 2.39747 0
M  V30 648 H 59.93 3.77972 4.02295 0
M  V30 649 H 62.406 1.87791 3.71314 0
M  V30 650 H 61.282 2.07281 5.08258 0
M  V30 651 H 61.543 0.477572 4.39513 0
M  V30 652 N 60.6021 -1.18246 1.0419 0
M  V30 653 C 61.5341 -2.2142 0.592088 0
M  V30 654 C 62.5471 -1.59233 -0.338909 0
M  V30 655 O 63.7361 -1.78002 -0.133231 0
M  V30 656 C 60.8361 -3.38546 -0.154854 0
M  V30 657 C 60.0091 -4.3031 0.784328 0
M  V30 658 C 59.0681 -5.26138 0.0804583 0
M  V30 659 O 58.0941 -5.64738 0.711292 0
M  V30 660 N 59.2961 -5.68261 -1.18574 0
M  V30 661 H 62.0611 -2.60636 1.47949 0
M  V30 662 H 59.6221 -1.33044 0.922544 0
M  V30 663 H 61.6141 -3.99678 -0.635606 0
M  V30 664 H 60.1841 -2.98012 -0.943811 0
M  V30 665 H 59.4041 -3.66764 1.44491 0
M  V30 666 H 60.6921 -4.8852 1.42218 0
M  V30 667 H 60.0901 -5.38957 -1.71876 0
M  V30 668 H 58.6471 -6.31584 -1.61074 0
M  V30 669 N 62.0802 -0.821533 -1.34494 0
M  V30 670 C 63.0282 -0.230702 -2.31453 0
M  V30 671 C 64.0222 0.627793 -1.57338 0
M  V30 672 O 65.2282 0.519288 -1.72347 0
M  V30 673 H 61.6032 -0.0558577 -0.749923 0
M  V30 674 H 63.5742 -1.06332 -2.78812 0
M  V30 675 C 62.3232 0.59391 -3.4259 0
M  V30 676 H 61.6462 -0.0573588 -3.99759 0
M  V30 677 H 63.0862 0.973446 -4.12674 0
M  V30 678 C 61.5452 1.76568 -2.86924 0
M  V30 679 O 62.0752 2.8638 -2.81691 0
M  V30 680 N 60.2812 1.58198 -2.43766 0
M  V30 681 H 59.8282 0.68872 -2.48222 0
M  V30 682 H 59.7862 2.36752 -2.06871 0
M  V30 683 N 63.5583 1.46682 -0.576371 0
M  V30 684 C 64.4683 2.34032 0.163141 0
M  V30 685 C 65.4843 1.49367 0.892501 0
M  V30 686 O 66.6603 1.82252 0.857106 0
M  V30 687 C 63.7253 3.26435 1.16795 0
M  V30 688 C 62.7863 4.26998 0.443944 0
M  V30 689 C 62.0193 5.14986 1.40088 0
M  V30 690 O 62.2423 5.05785 2.637 0
M  V30 691 O 61.1763 5.94906 0.914917 0
M  V30 692 H 65.0023 2.98607 -0.55388 0
M  V30 693 H 62.5873 1.45554 -0.336821 0
M  V30 694 H 64.4693 3.83459 1.74748 0
M  V30 695 H 63.1443 2.64465 1.86655 0
M  V30 696 H 62.0513 3.7368 -0.177271 0
M  V30 697 H 63.3843 4.91736 -0.213566 0
M  V30 698 N 65.0364 0.313813 1.54444 0
M  V30 699 C 66.2614 -0.296681 2.05267 0
M  V30 700 C 66.6864 -1.45757 1.18897 0
M  V30 701 O 66.0444 -1.80239 0.195886 0
M  V30 702 C 66.0924 -0.71831 3.53373 0
M  V30 703 O 65.1964 -1.82175 3.69981 0
M  V30 704 H 64.5374 -0.0554061 0.661684 0
M  V30 705 H 67.0674 0.459387 1.99376 0
M  V30 706 H 67.0774 -1.00364 3.95463 0
M  V30 707 H 65.7524 0.130821 4.15694 0
M  V30 708 H 64.3294 -1.53598 3.39797 0
M  V30 709 N 66.5145 -1.57545 0.0417849 0
M  V30 710 C 67.4615 -2.10977 -0.935805 0
M  V30 711 C 68.4315 -1.01486 -1.31491 0
M  V30 712 O 69.6165 -1.2898 -1.40602 0
M  V30 713 C 66.7565 -2.65169 -2.2086 0
M  V30 714 C 65.8695 -3.88714 -1.88482 0
M  V30 715 C 65.0045 -4.31254 -3.1015 0
M  V30 716 C 64.0435 -5.47524 -2.7365 0
M  V30 717 N 63.1805 -5.85162 -3.87982 0
M  V30 718 H 68.0205 -2.94218 -0.473249 0
M  V30 719 H 65.5575 -1.45415 -0.221981 0
M  V30 720 H 67.5155 -2.94685 -2.95325 0
M  V30 721 H 66.1455 -1.8474 -2.64709 0
M  V30 722 H 65.1975 -3.65849 -1.04205 0
M  V30 723 H 66.5095 -4.73245 -1.57608 0
M  V30 724 H 65.6635 -4.62273 -3.92923 0
M  V30 725 H 64.4025 -3.45516 -3.44195 0
M  V30 726 H 63.4075 -5.16187 -1.89291 0
M  V30 727 H 64.6325 -6.34971 -2.40807 0
M  V30 728 H 62.5785 -5.02377 -4.21846 0
M  V30 729 H 62.4955 -6.64362 -3.60775 0
M  V30 730 H 63.7635 -6.20791 -4.71422 0
M  V30 731 N 67.9926 0.231505 -1.5589 0
M  V30 732 C 69.4086 0.580748 -1.48659 0
M  V30 733 C 69.6086 1.87617 -0.73498 0
M  V30 734 O 68.6646 2.51046 -0.270586 0
M  V30 735 C 69.9776 0.669202 -2.93159 0
M  V30 736 C 71.5256 0.760499 -3.03621 0
M  V30 737 C 72.0006 0.880383 -4.49459 0
M  V30 738 N 73.4916 0.944861 -4.53461 0
M  V30 739 C 74.2266 1.05716 -5.63571 0
M  V30 740 N 73.7226 1.13403 -6.83456 0
M  V30 741 N 75.5156 1.09152 -5.514 0
M  V30 742 H 67.6666 -0.618695 -2.03189 0
M  V30 743 H 69.9296 -0.215728 -0.923128 0
M  V30 744 H 69.6356 -0.212904 -3.51055 0
M  V30 745 H 69.5096 1.5361 -3.44505 0
M  V30 746 H 71.8966 1.63305 -2.45796 0
M  V30 747 H 71.9776 -0.131864 -2.5546 0
M  V30 748 H 71.6216 0.0123284 -5.07899 0
M  V30 749 H 71.5516 1.78802 -4.95316 0
M  V30 750 H 74.0426 0.896176 -3.6712 0
M  V30 751 H 74.3556 1.21921 -7.63122 0
M  V30 752 H 72.7006 1.10333 -6.86186 0
M  V30 753 H 75.8916 1.02805 -4.56671 0
M  V30 754 H 76.0646 1.17558 -6.37247 0
M  V30 755 N 69.4707 1.49531 0.497807 0
M  V30 756 C 70.7007 1.62657 1.27382 0
M  V30 757 C 71.1087 0.298488 1.86831 0
M  V30 758 O 70.4517 -0.72647 1.68725 0
M  V30 759 C 70.5137 2.6393 2.44093 0
M  V30 760 C 70.1777 4.08195 2.05489 0
M  V30 761 C 71.1747 4.949 1.59279 0
M  V30 762 C 68.8597 4.53948 2.15026 0
M  V30 763 C 70.8537 6.25397 1.23113 0
M  V30 764 C 68.5407 5.84458 1.78473 0
M  V30 765 C 69.5387 6.70006 1.32591 0
M  V30 766 O 69.2267 7.98083 0.965327 0
M  V30 767 H 68.9587 0.550429 0.392434 0
M  V30 768 H 71.5127 1.96325 0.603801 0
M  V30 769 H 69.7427 2.25449 3.14181 0
M  V30 770 H 71.4317 2.66552 3.06113 0
M  V30 771 H 72.1977 4.60779 1.51354 0
M  V30 772 H 68.0767 3.87525 2.4969 0
M  V30 773 H 71.6207 6.92125 0.872299 0
M  V30 774 H 67.5177 6.18107 1.86048 0
M  V30 775 H 68.2857 8.11122 1.09652 0
M  V30 776 N 70.9488 -0.749086 1.3866 0
M  V30 777 C 72.1768 -1.53834 1.38358 0
M  V30 778 C 72.5918 -1.88783 -0.0255219 0
M  V30 779 O 71.9488 -1.53101 -0.993292 0
M  V30 780 C 71.9998 -2.83468 2.2434 0
M  V30 781 O 71.7208 -2.50008 3.5976 0
M  V30 782 C 73.2218 -3.7758 2.32267 0
M  V30 783 H 70.4418 -0.47585 0.473083 0
M  V30 784 H 72.9858 -0.926726 1.82297 0
M  V30 785 H 71.1408 -3.40995 1.83851 0
M  V30 786 H 71.5548 -3.33182 4.05081 0
M  V30 787 H 73.0288 -4.65478 2.96706 0
M  V30 788 H 73.5058 -4.18334 1.33765 0
M  V30 789 H 74.1118 -3.25976 2.73166 0
M  V30 790 N 72.4269 -1.23603 -0.977757 0
M  V30 791 C 73.6729 -1.07129 -1.72195 0
M  V30 792 C 74.0059 0.390501 -1.90233 0
M  V30 793 O 73.2809 1.28902 -1.45653 0
M  V30 794 C 73.5639 -1.80031 -3.11867 0
M  V30 795 C 73.4169 -3.33899 -3.01383 0
M  V30 796 C 74.7359 -1.56492 -4.11337 0
M  V30 797 H 71.8549 -0.390571 -0.624999 0
M  V30 798 H 74.4969 -1.52142 -1.13811 0
M  V30 799 H 72.6469 -1.41768 -3.6171 0
M  V30 800 H 74.3189 -3.81699 -2.59043 0
M  V30 801 H 72.5619 -3.62796 -2.37827 0
M  V30 802 H 73.2329 -3.801 -4.00285 0
M  V30 803 H 75.7089 -1.89757 -3.70313 0
M  V30 804 H 74.5849 -2.09973 -5.07151 0
M  V30 805 H 74.8459 -0.500874 -4.39254 0
M  V30 806 N 73.905 1.17692 -1.04816 0
M  V30 807 C 75.13 1.92327 -0.776207 0
M  V30 808 C 75.555 1.76082 0.661581 0
M  V30 809 O 74.913 1.076 1.45917 0
M  V30 810 C 74.961 3.41539 -1.15687 0
M  V30 811 O 74.065 4.11402 -0.286775 0
M  V30 812 H 73.406 0.599735 -0.284981 0
M  V30 813 H 75.936 1.49201 -1.4 0
M  V30 814 H 75.946 3.92269 -1.12202 0
M  V30 815 H 74.621 3.52684 -2.20425 0
M  V30 816 H 73.198 3.70939 -0.381903 0
M  V30 817 N 75.3831 0.828654 1.34056 0
M  V30 818 C 76.6131 0.431993 2.02033 0
M  V30 819 C 77.0211 -0.96844 1.62536 0
M  V30 820 O 76.3641 -1.6391 0.829408 0
M  V30 821 C 76.4261 0.461224 3.56529 0
M  V30 822 C 76.0901 1.81599 4.1937 0
M  V30 823 C 77.0871 2.7777 4.39477 0
M  V30 824 C 74.7721 2.10604 4.56017 0
M  V30 825 C 76.7661 4.01115 4.95364 0
M  V30 826 C 74.4531 3.34207 5.11614 0
M  V30 827 C 75.4511 4.2928 5.31232 0
M  V30 828 O 75.1391 5.50699 5.8565 0
M  V30 829 H 74.8711 0.170943 0.654029 0
M  V30 830 H 77.4251 1.11988 1.72185 0
M  V30 831 H 75.6551 -0.283388 3.8566 0
M  V30 832 H 77.3441 0.0838149 4.05813 0
M  V30 833 H 78.1101 2.56659 4.11523 0
M  V30 834 H 73.9891 1.37402 4.40047 0
M  V30 835 H 77.5331 4.75333 5.10592 0
M  V30 836 H 73.4301 3.55179 5.38997 0
M  V30 837 H 74.1981 5.52298 6.04077 0
M  V30 838 N 76.8612 -1.46375 0.584142 0
M  V30 839 C 77.7912 -2.33103 -0.136037 0
M  V30 840 C 78.7722 -1.45431 -0.882255 0
M  V30 841 O 79.9572 -1.74246 -0.857434 0
M  V30 842 C 77.0872 -3.27731 -1.14933 0
M  V30 843 C 76.0412 -4.24855 -0.517862 0
M  V30 844 C 75.3672 -5.09001 -1.63773 0
M  V30 845 C 76.6672 -5.19439 0.545886 0
M  V30 846 H 78.3612 -2.93568 0.588086 0
M  V30 847 H 75.9072 -1.41166 0.284259 0
M  V30 848 H 77.8602 -3.87261 -1.66153 0
M  V30 849 H 76.5842 -2.65377 -1.90375 0
M  V30 850 H 75.2432 -3.6659 -0.0267361 0
M  V30 851 H 74.8912 -4.43031 -2.38185 0
M  V30 852 H 74.5912 -5.74777 -1.22085 0
M  V30 853 H 76.1152 -5.71396 -2.15266 0
M  V30 854 H 77.5292 -5.73177 0.118704 0
M  V30 855 H 75.9262 -5.93566 0.88317 0
M  V30 856 H 76.9962 -4.63285 1.43162 0
M  V30 857 N 78.3393 -0.321999 -1.54275 0
M  V30 858 C 79.2863 0.544664 -2.24281 0
M  V30 859 C 80.2563 1.1129 -1.23303 0
M  V30 860 O 81.4413 1.15354 -1.51981 0
M  V30 861 C 78.5813 1.70045 -3.00298 0
M  V30 862 C 77.6943 1.16159 -4.1609 0
M  V30 863 C 76.8293 2.28293 -4.79641 0
M  V30 864 C 75.8683 1.71648 -5.8754 0
M  V30 865 N 75.0053 2.77438 -6.44959 0
M  V30 866 H 79.8453 -0.0588907 -2.97942 0
M  V30 867 H 77.3823 -0.0408345 -1.47043 0
M  V30 868 H 79.3403 2.38054 -3.42616 0
M  V30 869 H 77.9703 2.27531 -2.28975 0
M  V30 870 H 77.0223 0.373092 -3.78566 0
M  V30 871 H 78.3343 0.707087 -4.93763 0
M  V30 872 H 77.4883 3.0421 -5.2492 0
M  V30 873 H 76.2273 2.77079 -4.01346 0
M  V30 874 H 75.2323 0.942282 -5.41665 0
M  V30 875 H 76.4573 1.23741 -6.67731 0
M  V30 876 H 74.4033 3.25519 -5.69538 0
M  V30 877 H 74.3203 2.36547 -7.1804 0
M  V30 878 H 75.5883 3.53189 -6.94894 0
M  V30 879 N 79.8174 1.5752 -0.0501392 0
M  V30 880 C 81.0454 1.96963 0.633492 0
M  V30 881 C 81.4604 0.927631 1.6444 0
M  V30 882 O 80.8174 -0.0882665 1.82286 0
M  V30 883 C 80.8684 3.36487 1.32132 0
M  V30 884 O 80.5894 4.36693 0.350894 0
M  V30 885 C 82.0904 3.90682 2.09481 0
M  V30 886 H 79.3104 0.648244 0.173266 0
M  V30 887 H 81.8544 2.0417 -0.116134 0
M  V30 888 H 80.0094 3.30434 2.02218 0
M  V30 889 H 80.4234 5.17702 0.841735 0
M  V30 890 H 81.8974 4.90591 2.5303 0
M  V30 891 H 82.3744 3.26053 2.94255 0
M  V30 892 H 82.9804 4.00069 1.44307 0
M  V30 893 N 81.2955 -0.223234 1.56011 0
M  V30 894 C 82.2255 -1.27988 1.95298 0
M  V30 895 C 83.2065 -1.48976 0.820979 0
M  V30 896 O 84.3915 -1.61188 1.08315 0
M  V30 897 C 81.5215 -2.63 2.26822 0
M  V30 898 C 80.4755 -2.56671 3.42497 0
M  V30 899 C 79.8015 -3.95697 3.59622 0
M  V30 900 C 81.1015 -2.11601 4.77517 0
M  V30 901 H 82.7955 -0.953525 2.8381 0
M  V30 902 H 80.3415 -0.457244 1.36548 0
M  V30 903 H 82.2945 -3.37077 2.52898 0
M  V30 904 H 81.0185 -2.9732 1.35161 0
M  V30 905 H 79.6775 -1.85051 3.16467 0
M  V30 906 H 79.3255 -4.27322 2.6534 0
M  V30 907 H 79.0255 -3.92345 4.37424 0
M  V30 908 H 80.5495 -4.71438 3.88044 0
M  V30 909 H 81.9635 -2.7542 5.02809 0
M  V30 910 H 80.3605 -2.19311 5.5859 0
M  V30 911 H 81.4305 -1.06824 4.72987 0
M  V30 912 N 82.7736 -1.49793 -0.48987 0
M  V30 913 C 83.7216 -1.67783 -1.61095 0
M  V30 914 C 84.7156 -0.543683 -1.60438 0
M  V30 915 O 85.9216 -0.723647 -1.64813 0
M  V30 916 H 82.2966 -0.529255 -0.534222 0
M  V30 917 H 84.2676 -2.61861 -1.43078 0
M  V30 918 C 83.0166 -1.77191 -2.99164 0
M  V30 919 H 82.3396 -2.63841 -3.0038 0
M  V30 920 H 83.7796 -1.93809 -3.77113 0
M  V30 921 C 82.2386 -0.519203 -3.32875 0
M  V30 922 O 82.7686 0.350124 -4.00171 0
M  V30 923 N 80.9746 -0.378816 -2.8812 0
M  V30 924 H 80.5216 -1.08725 -2.33531 0
M  V30 925 H 80.4796 0.458239 -3.11043 0
M  V30 926 N 84.2517 0.741722 -1.39055 0
M  V30 927 C 85.4817 1.52876 -1.3897 0
M  V30 928 C 85.8897 1.8919 0.0193266 0
M  V30 929 O 85.2327 1.54138 0.999356 0
M  V30 930 C 85.2947 2.84929 -2.19216 0
M  V30 931 C 84.9587 2.71086 -3.67915 0
M  V30 932 C 85.9557 2.40084 -4.61146 0
M  V30 933 C 83.6407 2.88168 -4.11418 0
M  V30 934 C 85.6347 2.26335 -5.95862 0
M  V30 935 C 83.3217 2.74037 -5.46211 0
M  V30 936 C 84.3197 2.43166 -6.38247 0
M  V30 937 O 84.0077 2.29115 -7.70559 0
M  V30 938 H 83.7397 0.479252 -0.476753 0
M  V30 939 H 86.2937 0.924751 -1.83405 0
M  V30 940 H 84.5237 3.47564 -1.69518 0
M  V30 941 H 86.2127 3.46509 -2.11392 0
M  V30 942 H 86.9787 2.26545 -4.28838 0
M  V30 943 H 82.8577 3.11191 -3.40119 0
M  V30 944 H 86.4017 2.0216 -6.67665 0
M  V30 945 H 82.2987 2.87153 -5.78112 0
M  V30 946 H 83.0667 2.44237 -7.81211 0
M  V30 947 N 85.7298 1.2412 0.971189 0
M  V30 948 C 86.9598 1.10415 1.7462 0
M  V30 949 C 87.3678 -0.346462 1.86001 0
M  V30 950 O 86.7108 -1.25104 1.34517 0
M  V30 951 C 86.7728 1.66596 3.18568 0
M  V30 952 C 86.4368 3.15446 3.3067 0
M  V30 953 C 87.4338 4.12636 3.16271 0
M  V30 954 C 85.1188 3.55337 3.55022 0
M  V30 955 C 87.1128 5.47699 3.26044 0
M  V30 956 C 84.7998 4.90542 3.64434 0
M  V30 957 C 85.7978 5.86532 3.49956 0
M  V30 958 O 85.4858 7.19279 3.59017 0
M  V30 959 H 85.2178 0.386616 0.55453 0
M  V30 960 H 87.7718 1.64633 1.22821 0
M  V30 961 H 86.0018 1.06808 3.71657 0
M  V30 962 H 87.6908 1.48232 3.77865 0
M  V30 963 H 88.4568 3.8316 2.97344 0
M  V30 964 H 84.3358 2.8113 3.65359 0
M  V30 965 H 87.8798 6.22603 3.14661 0
M  V30 966 H 83.7768 5.19691 3.82873 0
M  V30 967 H 84.5448 7.27153 3.75754 0
M  V30 968 N 87.2079 -1.17134 1.05439 0
M  V30 969 C 88.4849 -1.83411 0.679699 0
M  V30 970 C 88.8649 -1.9368 -0.839726 0
M  V30 971 O 88.2129 -1.47325 -1.74664 0
M  V30 972 C 88.4229 -3.20918 1.37159 0
M  V30 973 C 89.7709 -3.96796 1.51123 0
M  V30 974 O 90.7949 -3.30406 1.3308 0
M  V30 975 O 89.6539 -5.15778 1.80651 0
M  V30 976 H 86.7479 -0.79154 0.239569 0
M  V30 977 H 89.2939 -1.24411 1.15413 0
M  V30 978 H 88.0659 -3.08428 2.40807 0
M  V30 979 H 87.6889 -3.87587 0.886674 0
M  V30 980 N 88.686 -0.835752 -1.33615 0
M  V30 981 C 89.616 -0.281739 -2.31794 0
M  V30 982 C 90.597 0.608833 -1.58831 0
M  V30 983 O 91.782 0.533035 -1.86741 0
M  V30 984 C 88.912 0.546612 -3.42971 0
M  V30 985 C 87.866 -0.247904 -4.27281 0
M  V30 986 C 87.192 0.704001 -5.30045 0
M  V30 987 C 88.492 -1.46324 -5.01385 0
M  V30 988 H 90.186 -1.10206 -2.78379 0
M  V30 989 H 87.732 -0.531388 -1.33837 0
M  V30 990 H 89.685 0.944467 -4.1068 0
M  V30 991 H 88.409 1.40011 -2.95067 0
M  V30 992 H 87.068 -0.627281 -3.61194 0
M  V30 993 H 86.716 1.55381 -4.78399 0
M  V30 994 H 86.416 0.176524 -5.87335 0
M  V30 995 H 87.94 1.09944 -6.0062 0
M  V30 996 H 89.354 -1.13871 -5.61877 0
M  V30 997 H 87.751 -1.92728 -5.6831 0
M  V30 998 H 88.821 -2.23467 -4.30338 0
M  V30 999 N 90.1641 1.46063 -0.591896 0
M  V30 1000 C 91.4101 2.02638 -0.0811191 0
M  V30 1001 C 91.7431 1.4613 1.27905 0
M  V30 1002 O 91.0181 0.629908 1.84017 0
M  V30 1003 C 91.3011 3.60091 -0.0252436 0
M  V30 1004 C 91.1541 4.26965 -1.41496 0
M  V30 1005 C 92.4731 4.3496 0.670685 0
M  V30 1006 H 89.5921 0.73635 -0.0309524 0
M  V30 1007 H 92.2341 1.741 -0.760859 0
M  V30 1008 H 90.3841 3.84535 0.553624 0
M  V30 1009 H 92.0561 4.13756 -2.0397 0
M  V30 1010 H 90.2991 3.85971 -1.98011 0
M  V30 1011 H 90.9701 5.35781 -1.32825 0
M  V30 1012 H 93.4461 4.15716 0.178825 0
M  V30 1013 H 92.3221 5.44686 0.678837 0
M  V30 1014 H 92.5831 4.06685 1.73379 0
M  V30 1015 N 91.6422 0.330177 1.54103 0
M  V30 1016 C 92.9192 -0.325007 1.92881 0
M  V30 1017 C 93.2992 -1.6934 1.26045 0
M  V30 1018 O 92.6472 -2.24855 0.406526 0
M  V30 1019 C 92.8572 -0.410634 3.46576 0
M  V30 1020 C 94.2052 -0.667801 4.19316 0
M  V30 1021 O 95.2292 -0.49329 3.52768 0
M  V30 1022 O 94.0882 -1.00491 5.37181 0
M  V30 1023 H 91.1822 -0.186873 0.80561 0
M  V30 1024 H 93.7282 0.380376 1.65382 0
M  V30 1025 H 92.5002 0.550164 3.87413 0
M  V30 1026 H 92.1232 -1.16333 3.802 0
M  V30 1027 N 93.1203 -1.57491 0.0584922 0
M  V30 1028 C 94.0503 -2.14988 -0.911178 0
M  V30 1029 C 95.0313 -1.07343 -1.31952 0
M  V30 1030 O 96.2163 -1.35318 -1.39294 0
M  V30 1031 C 93.3463 -2.70078 -2.18347 0
M  V30 1032 C 92.3003 -3.82771 -1.91495 0
M  V30 1033 C 91.6263 -4.24408 -3.25241 0
M  V30 1034 C 92.9263 -5.07592 -1.23075 0
M  V30 1035 H 94.6203 -2.96263 -0.432246 0
M  V30 1036 H 92.1663 -1.42512 -0.206469 0
M  V30 1037 H 94.1193 -3.08943 -2.86587 0
M  V30 1038 H 92.8433 -1.86005 -2.68458 0
M  V30 1039 H 91.5023 -3.44389 -1.25664 0
M  V30 1040 H 91.1503 -3.37275 -3.73168 0
M  V30 1041 H 90.8503 -5.00366 -3.08071 0
M  V30 1042 H 92.3743 -4.65879 -3.94701 0
M  V30 1043 H 93.7883 -5.43857 -1.81362 0
M  V30 1044 H 92.1853 -5.88741 -1.16207 0
M  V30 1045 H 93.2553 -4.84454 -0.207847 0
M  V30 1046 N 94.5984 0.214957 -1.56127 0
M  V30 1047 C 95.5284 1.2695 -1.95974 0
M  V30 1048 C 96.5094 1.48539 -0.828868 0
M  V30 1049 O 97.6944 1.60611 -1.09168 0
M  V30 1050 C 94.8244 2.61794 -2.28214 0
M  V30 1051 C 93.7784 2.54851 -3.43853 0
M  V30 1052 C 93.1044 3.93785 -3.61715 0
M  V30 1053 C 94.4044 2.09065 -4.78632 0
M  V30 1054 H 96.0984 0.93846 -2.84312 0
M  V30 1055 H 93.6444 0.449996 -1.36788 0
M  V30 1056 H 95.5974 3.35731 -2.54682 0
M  V30 1057 H 94.3214 2.96599 -1.36736 0
M  V30 1058 H 92.9804 1.8337 -3.17444 0
M  V30 1059 H 92.6284 4.25908 -2.67602 0
M  V30 1060 H 92.3284 3.90019 -4.39498 0
M  V30 1061 H 93.8524 4.69374 -3.90539 0
M  V30 1062 H 95.2664 2.7275 -5.04262 0
M  V30 1063 H 93.6634 2.16346 -5.59745 0
M  V30 1064 H 94.7334 1.04315 -4.73547 0
M  V30 1065 N 96.0765 1.50051 0.48192 0
M  V30 1066 C 97.3225 1.60736 1.2366 0
M  V30 1067 C 97.6555 0.301786 1.91841 0
M  V30 1068 O 96.9305 -0.696025 1.8162 0
M  V30 1069 C 97.2135 2.78009 2.28874 0
M  V30 1070 C 97.0665 4.18416 1.65069 0
M  V30 1071 C 98.3855 2.90867 3.30279 0
M  V30 1072 H 95.5045 0.585031 0.448228 0
M  V30 1073 H 98.1465 1.82402 0.531946 0
M  V30 1074 H 96.2965 2.59667 2.88973 0
M  V30 1075 H 97.9685 4.48322 1.0865 0
M  V30 1076 H 96.2115 4.23177 0.954148 0
M  V30 1077 H 96.8825 4.96381 2.41474 0
M  V30 1078 H 99.3585 3.07623 2.80191 0
M  V30 1079 H 98.2345 3.74566 4.01238 0
M  V30 1080 H 98.4955 2.01021 3.93755 0
M  V30 1081 N 97.5546 -0.734337 1.39446 0
M  V30 1082 C 98.5016 -1.84835 1.38219 0
M  V30 1083 C 99.4716 -1.64331 0.24179 0
M  V30 1084 O 100.657 -1.85728 0.437002 0
M  V30 1085 C 97.7966 -3.22355 1.23212 0
M  V30 1086 C 96.9096 -3.5456 2.46801 0
M  V30 1087 C 96.0446 -4.81485 2.24377 0
M  V30 1088 C 95.0836 -5.06536 3.43639 0
M  V30 1089 N 94.2206 -6.24665 3.20528 0
M  V30 1090 H 99.0606 -1.85219 2.33448 0
M  V30 1091 H 96.5976 -0.905039 1.15963 0
M  V30 1092 H 98.5556 -4.0174 1.12522 0
M  V30 1093 H 97.1856 -3.21248 0.316121 0
M  V30 1094 H 96.2376 -2.69872 2.68092 0
M  V30 1095 H 97.5496 -3.6899 3.3563 0
M  V30 1096 H 96.7036 -5.68852 2.10933 0
M  V30 1097 H 95.4426 -4.6923 1.32944 0
M  V30 1098 H 94.4476 -4.17632 3.5758 0
M  V30 1099 H 95.6726 -5.20676 4.35974 0
M  V30 1100 H 93.6186 -6.13696 2.3176 0
M  V30 1101 H 93.5356 -6.39685 4.02913 0
M  V30 1102 H 94.8036 -7.14868 3.10779 0
M  V30 1103 N 99.0327 -1.24633 -0.964593 0
M  V30 1104 C 100.261 -1.11501 -1.74285 0
M  V30 1105 C 100.676 0.332165 -1.85855 0
M  V30 1106 O 100.033 1.22903 -1.34911 0
M  V30 1107 C 100.084 -1.75258 -3.16175 0
M  V30 1108 O 99.8047 -3.14318 -3.05182 0
M  V30 1109 C 101.306 -1.67776 -4.10324 0
M  V30 1110 H 98.5257 -0.389407 -0.546446 0
M  V30 1111 H 101.07 -1.64801 -1.21083 0
M  V30 1112 H 99.2247 -1.25954 -3.66353 0
M  V30 1113 H 99.6387 -3.4551 -3.94618 0
M  V30 1114 H 101.113 -2.17064 -5.0753 0
M  V30 1115 H 101.59 -0.639584 -4.34518 0
M  V30 1116 H 102.196 -2.16522 -3.66058 0
M  V30 1117 N 100.511 1.16574 -1.06058 0
M  V30 1118 C 101.421 2.2452 -0.680282 0
M  V30 1119 C 102.437 1.71348 0.302604 0
M  V30 1120 O 103.613 2.00822 0.152513 0
M  V30 1121 C 100.678 3.46629 -0.0700315 0
M  V30 1122 C 99.7388 4.14849 -1.10448 0
M  V30 1123 C 98.9718 5.31129 -0.523256 0
M  V30 1124 O 99.1948 5.66514 0.664709 0
M  V30 1125 O 98.1288 5.88526 -1.26179 0
M  V30 1126 H 101.955 2.59355 -1.58015 0
M  V30 1127 H 99.5398 1.24043 -0.832694 0
M  V30 1128 H 101.422 4.20543 0.268667 0
M  V30 1129 H 100.097 3.13573 0.803353 0
M  V30 1130 H 99.0038 3.42916 -1.49532 0
M  V30 1131 H 100.337 4.51954 -1.94931 0
M  V30 1132 N 101.989 0.842826 1.3317 0
M  V30 1133 C 103.238 0.436738 1.96915 0
M  V30 1134 C 103.551 -1.01025 1.67491 0
M  V30 1135 O 104.757 -1.5212 2.24881 0
M  V30 1136 C 103.213 0.730021 3.52418 0
M  V30 1137 C 102.821 2.19195 3.90714 0
M  V30 1138 C 104.565 0.391076 4.22695 0
M  V30 1139 C 102.472 2.42907 5.39212 0
M  V30 1140 H 101.402 0.15958 0.736919 0
M  V30 1141 H 104.053 1.03196 1.51733 0
M  V30 1142 H 102.435 0.0643755 3.95948 0
M  V30 1143 H 103.609 2.8984 3.58231 0
M  V30 1144 H 101.924 2.49425 3.33431 0
M  V30 1145 H 104.521 0.545817 5.31907 0
M  V30 1146 H 104.864 -0.666294 4.10933 0
M  V30 1147 H 105.397 1.01212 3.84709 0
M  V30 1148 H 102.136 3.47224 5.55982 0
M  V30 1149 H 101.656 1.76827 5.73142 0
M  V30 1150 H 103.335 2.2626 6.06148 0
M  V30 1151 N 103.467 -1.45747 0.599634 0
M  V30 1152 C 104.377 -2.34262 -0.125888 0
M  V30 1153 C 105.393 -1.50768 -0.868625 0
M  V30 1154 O 106.569 -1.83592 -0.828003 0
M  V30 1155 C 103.634 -3.28252 -1.11587 0
M  V30 1156 C 102.695 -4.27651 -0.375956 0
M  V30 1157 C 101.928 -5.1715 -1.31877 0
M  V30 1158 O 102.151 -5.09916 -2.55621 0
M  V30 1159 O 101.085 -5.96286 -0.820157 0
M  V30 1160 H 104.911 -2.97688 0.601315 0
M  V30 1161 H 102.496 -1.44999 0.359934 0
M  V30 1162 H 104.378 -3.86191 -1.68626 0
M  V30 1163 H 103.053 -2.67401 -1.82424 0
M  V30 1164 H 101.96 -3.7335 0.236698 0
M  V30 1165 H 103.293 -4.91334 0.29177 0
M  V30 1166 N 104.945 -0.338344 -1.53925 0
M  V30 1167 C 105.893 0.536231 -2.26335 0
M  V30 1168 C 106.887 1.1063 -1.28286 0
M  V30 1169 O 108.093 1.05264 -1.46012 0
M  V30 1170 H 104.468 0.191602 -0.727181 0
M  V30 1171 H 106.439 -0.0965747 -2.98244 0
M  V30 1172 C 105.188 1.67803 -3.04528 0
M  V30 1173 H 104.511 1.24864 -3.79801 0
M  V30 1174 H 105.951 2.26526 -3.58416 0
M  V30 1175 C 104.41 2.60439 -2.13712 0
M  V30 1176 O 104.94 3.6255 -1.72975 0
M  V30 1177 N 103.146 2.29006 -1.78898 0
M  V30 1178 H 102.693 1.46011 -2.12223 0
M  V30 1179 H 102.651 2.91248 -1.18416 0
M  V30 1180 N 106.423 1.57458 -0.0668435 0
M  V30 1181 C 107.353 2.15468 0.899764 0
M  V30 1182 C 108.334 1.08042 1.31381 0
M  V30 1183 O 109.519 1.36054 1.38574 0
M  V30 1184 C 106.649 2.71232 2.16911 0
M  V30 1185 C 105.603 3.83781 1.89463 0
M  V30 1186 C 104.929 4.26127 3.22986 0
M  V30 1187 C 106.229 5.08238 1.20381 0
M  V30 1188 H 107.923 2.96488 0.416529 0
M  V30 1189 H 105.469 1.4262 0.198908 0
M  V30 1190 H 107.422 3.10458 2.84945 0
M  V30 1191 H 106.146 1.87426 2.67468 0
M  V30 1192 H 104.805 3.45051 1.23836 0
M  V30 1193 H 104.453 3.39249 3.71374 0
M  V30 1194 H 104.153 5.01993 3.05413 0
M  V30 1195 H 105.677 4.67966 3.92225 0
M  V30 1196 H 107.091 5.44811 1.78475 0
M  V30 1197 H 105.488 5.89349 1.13083 0
M  V30 1198 H 106.558 4.84558 0.182153 0
M  V30 1199 N 107.901 -0.206675 1.56239 0
M  V30 1200 C 109.312 -0.772383 1.69974 0
M  V30 1201 C 109.663 -1.84353 0.671436 0
M  V30 1202 O 108.788 -2.15695 -0.174491 0
M  V30 1203 C 109.383 -1.40779 3.08167 0
M  V30 1204 C 107.942 -1.92072 3.23706 0
M  V30 1205 C 107.089 -0.786347 2.65917 0
M  V30 1206 H 110.04 0.0182223 1.5869 0
M  V30 1207 H 110.061 -2.27696 3.04852 0
M  V30 1208 H 109.573 -0.627958 3.82986 0
M  V30 1209 H 107.674 -2.7281 2.53782 0
M  V30 1210 H 107.787 -2.09046 4.31087 0
M  V30 1211 H 106.151 -1.1976 2.24788 0
M  V30 1212 H 106.934 -0.0189416 3.43295 0
M  V30 1213 N 109.379 -1.50304 -0.473955 0
M  V30 1214 C 110.656 -1.51667 -1.23518 0
M  V30 1215 C 111.036 -0.259701 -2.09496 0
M  V30 1216 O 110.384 0.756986 -2.15597 0
M  V30 1217 C 110.594 -2.81082 -2.06868 0
M  V30 1218 C 111.942 -3.31631 -2.65153 0
M  V30 1219 O 112.966 -2.82384 -2.17113 0
M  V30 1220 O 111.825 -4.17471 -3.52675 0
M  V30 1221 H 108.919 -0.60822 -0.560355 0
M  V30 1222 H 111.465 -1.62592 -0.486011 0
M  V30 1223 H 110.237 -3.64041 -1.4349 0
M  V30 1224 H 109.86 -2.73146 -2.88924 0
M  V30 1225 N 110.857 0.726932 -1.39834 0
M  V30 1226 C 111.787 1.85405 -1.41941 0
M  V30 1227 C 112.768 1.67751 -0.281728 0
M  V30 1228 O 113.953 1.8795 -0.488717 0
M  V30 1229 C 111.083 3.23243 -1.2701 0
M  V30 1230 C 110.037 3.55549 -2.38262 0
M  V30 1231 C 109.363 4.9241 -2.08415 0
M  V30 1232 C 110.663 3.577 -3.80589 0
M  V30 1233 H 112.357 1.83899 -2.36266 0
M  V30 1234 H 109.903 0.883349 -1.13723 0
M  V30 1235 H 111.856 4.01775 -1.27103 0
M  V30 1236 H 110.58 3.25296 -0.291564 0
M  V30 1237 H 109.239 2.79351 -2.37399 0
M  V30 1238 H 108.887 4.91052 -1.0898 0
M  V30 1239 H 108.587 5.14992 -2.82943 0
M  V30 1240 H 110.111 5.73289 -2.10171 0
M  V30 1241 H 111.525 4.26293 -3.83337 0
M  V30 1242 H 109.922 3.91804 -4.54543 0
M  V30 1243 H 110.992 2.57328 -4.10987 0
M  V30 1244 N 112.336 1.25143 0.95797 0
M  V30 1245 C 113.583 1.09692 1.70217 0
M  V30 1246 C 113.911 -0.362654 1.91089 0
M  V30 1247 O 113.166 -1.28386 1.47701 0
M  V30 1248 C 113.465 1.79272 3.09187 0
M  V30 1249 C 113.131 3.29196 3.08125 0
M  V30 1250 C 111.793 3.70096 3.07543 0
M  V30 1251 C 114.145 4.24995 3.0171 0
M  V30 1252 C 111.473 5.05213 2.9829 0
M  V30 1253 C 113.825 5.60132 2.93999 0
M  V30 1254 C 112.489 6.00365 2.9175 0
M  V30 1255 H 111.759 0.401393 0.622868 0
M  V30 1256 H 114.406 1.55372 1.11945 0
M  V30 1257 H 112.711 1.26014 3.70982 0
M  V30 1258 H 114.408 1.64773 3.65583 0
M  V30 1259 H 110.998 2.96651 3.09348 0
M  V30 1260 H 115.182 3.9439 3.01281 0
M  V30 1261 H 110.438 5.35569 2.94916 0
M  V30 1262 H 114.612 6.3406 2.87996 0
M  V30 1263 H 112.239 7.05023 2.84336 0
M  V30 1264 N 113.814 -1.1601 1.06675 0
M  V30 1265 C 114.746 -2.20115 0.638921 0
M  V30 1266 C 115.759 -1.59916 -0.305057 0
M  V30 1267 O 116.948 -1.78245 -0.0954446 0
M  V30 1268 C 114.048 -3.38798 -0.0830083 0
M  V30 1269 C 113.221 -4.2855 0.875426 0
M  V30 1270 C 112.28 -5.25849 0.192042 0
M  V30 1271 O 111.306 -5.63102 0.830921 0
M  V30 1272 N 112.508 -5.70648 -1.06493 0
M  V30 1273 H 115.273 -2.57439 1.53444 0
M  V30 1274 H 112.834 -1.31057 0.950557 0
M  V30 1275 H 114.826 -4.00936 -0.550685 0
M  V30 1276 H 113.396 -2.99947 -0.880386 0
M  V30 1277 H 112.616 -3.63617 1.52238 0
M  V30 1278 H 113.904 -4.85393 1.52548 0
M  V30 1279 H 113.302 -5.42482 -1.60405 0
M  V30 1280 H 111.859 -6.34859 -1.47641 0
M  V30 1281 N 115.292 -0.849877 -1.32721 0
M  V30 1282 C 116.522 -0.46408 -2.0132 0
M  V30 1283 C 116.93 0.94246 -1.64056 0
M  V30 1284 O 116.273 1.6257 -0.855379 0
M  V30 1285 C 116.335 -0.517887 -3.5575 0
M  V30 1286 C 115.999 -1.88248 -4.16427 0
M  V30 1287 C 116.996 -2.84726 -4.35002 0
M  V30 1288 C 114.681 -2.17832 -4.52609 0
M  V30 1289 C 116.675 -4.08945 -4.8892 0
M  V30 1290 C 114.362 -3.42304 -5.06232 0
M  V30 1291 C 115.36 -4.37677 -5.24335 0
M  V30 1292 O 115.048 -5.59946 -5.76815 0
M  V30 1293 H 114.78 -0.181327 -0.651227 0
M  V30 1294 H 117.334 -1.14713 -1.70382 0
M  V30 1295 H 115.564 0.221997 -3.86062 0
M  V30 1296 H 117.253 -0.148366 -4.05629 0
M  V30 1297 H 118.019 -2.63174 -4.07388 0
M  V30 1298 H 113.898 -1.44385 -4.37806 0
M  V30 1299 H 117.442 -4.83396 -5.02966 0
M  V30 1300 H 113.339 -3.63709 -5.33278 0
M  V30 1301 H 114.107 -5.61838 -5.95214 0
M  V30 1302 N 116.77 1.45427 -0.607355 0
M  V30 1303 C 117.995 2.07124 -0.107006 0
M  V30 1304 C 118.42 1.44906 1.19933 0
M  V30 1305 O 117.778 0.541687 1.73019 0
M  V30 1306 C 117.826 3.60595 0.0194119 0
M  V30 1307 O 116.93 3.98285 1.0697 0
M  V30 1308 H 116.271 0.659868 -0.0739597 0
M  V30 1309 H 118.801 1.86683 -0.837297 0
M  V30 1310 H 118.811 4.07419 0.2177 0
M  V30 1311 H 117.486 4.05266 -0.934453 0
M  V30 1312 H 116.063 3.63133 0.847889 0
M  V30 1313 N 118.248 0.346503 1.53744 0
M  V30 1314 C 119.473 -0.253074 2.0585 0
M  V30 1315 C 119.898 -1.43202 1.21962 0
M  V30 1316 O 119.256 -1.79783 0.234073 0
M  V30 1317 C 119.304 -0.643193 3.54817 0
M  V30 1318 O 118.408 -1.74286 3.73762 0
M  V30 1319 H 117.749 -0.0413583 0.662711 0
M  V30 1320 H 120.279 0.501574 1.98357 0
M  V30 1321 H 120.289 -0.919526 3.97503 0
M  V30 1322 H 118.964 0.218966 4.15323 0
M  V30 1323 H 117.541 -1.46356 3.42979 0
M  V30 1324 N 119.726 -1.57421 0.075193 0
M  V30 1325 C 121.003 -1.85029 -0.634329 0
M  V30 1326 C 121.383 -0.968305 -1.87582 0
M  V30 1327 O 120.731 -0.0354749 -2.28472 0
M  V30 1328 C 120.941 -3.35286 -0.968742 0
M  V30 1329 C 122.289 -4.02875 -1.34077 0
M  V30 1330 O 123.313 -3.40051 -1.06037 0
M  V30 1331 O 122.172 -5.13691 -1.86506 0
M  V30 1332 H 119.266 -0.7645 -0.315387 0
M  V30 1333 H 121.812 -1.69366 0.106382 0
M  V30 1334 H 120.584 -3.91203 -0.0871376 0
M  V30 1335 H 120.207 -3.56223 -1.7661 0
M  V30 1336 N 121.204 0.198386 -1.56346 0
M  V30 1337 C 122.167 1.22952 -1.93431 0
M  V30 1338 C 123.167 1.38611 -0.815092 0
M  V30 1339 O 124.357 1.36479 -1.08255 0
M  V30 1340 C 121.489 2.59946 -2.20546 0
M  V30 1341 H 122.682 0.912626 -2.85677 0
M  V30 1342 H 120.235 0.43977 -1.49986 0
M  V30 1343 H 120.97 2.96696 -1.30927 0
M  V30 1344 H 120.755 2.49953 -3.02102 0
M  V30 1345 H 122.245 3.3431 -2.50253 0
M  V30 1346 N 122.682 1.50554 0.465978 0
M  V30 1347 C 123.629 1.6979 1.56333 0
M  V30 1348 C 124.599 0.539239 1.57103 0
M  V30 1349 O 125.784 0.770401 1.74555 0
M  V30 1350 C 122.924 1.80273 2.94271 0
M  V30 1351 C 122.037 3.07674 3.0325 0
M  V30 1352 C 121.172 3.08922 4.32135 0
M  V30 1353 C 120.211 4.30755 4.34875 0
M  V30 1354 N 119.348 4.29714 5.55239 0
M  V30 1355 H 124.188 2.63472 1.39235 0
M  V30 1356 H 121.725 1.30602 0.676873 0
M  V30 1357 H 123.683 1.84332 3.74269 0
M  V30 1358 H 122.313 0.900258 3.09992 0
M  V30 1359 H 121.365 3.13062 2.16094 0
M  V30 1360 H 122.677 3.97642 3.01135 0
M  V30 1361 H 121.831 3.11738 5.20485 0
M  V30 1362 H 120.57 2.16792 4.36866 0
M  V30 1363 H 119.575 4.28146 3.44922 0
M  V30 1364 H 120.8 5.24117 4.31831 0
M  V30 1365 H 118.746 3.4044 5.60746 0
M  V30 1366 H 118.663 5.13456 5.54886 0
M  V30 1367 H 119.931 4.36683 6.457 0
M  V30 1368 N 124.16 -0.719506 1.40217 0
M  V30 1369 C 125.07 -1.86378 1.42479 0
M  V30 1370 C 126.086 -1.71073 0.317834 0
M  V30 1371 O 127.262 -1.93406 0.561794 0
M  V30 1372 C 124.327 -3.22136 1.28178 0
M  V30 1373 C 123.388 -3.49723 2.48982 0
M  V30 1374 C 122.621 -4.79004 2.35353 0
M  V30 1375 O 122.844 -5.53821 1.36524 0
M  V30 1376 O 121.778 -5.06839 3.2465 0
M  V30 1377 H 125.604 -1.87425 2.38968 0
M  V30 1378 H 123.189 -0.869405 1.21498 0
M  V30 1379 H 125.071 -4.03234 1.22395 0
M  V30 1380 H 123.746 -3.21825 0.347934 0
M  V30 1381 H 122.653 -2.6865 2.60342 0
M  V30 1382 H 123.986 -3.54828 3.41113 0
M  V30 1383 N 125.638 -1.25649 -0.95132 0
M  V30 1384 C 126.885 -1.10594 -1.69633 0
M  V30 1385 C 127.213 0.352515 -1.91279 0
M  V30 1386 O 126.468 1.27601 -1.4838 0
M  V30 1387 C 126.767 -1.80909 -3.08231 0
M  V30 1388 C 126.433 -3.30825 -3.06375 0
M  V30 1389 C 125.095 -3.71722 -3.05576 0
M  V30 1390 C 127.447 -4.26589 -2.99452 0
M  V30 1391 C 124.775 -5.06788 -2.95606 0
M  V30 1392 C 127.127 -5.61683 -2.91024 0
M  V30 1393 C 125.791 -6.01904 -2.88562 0
M  V30 1394 H 125.061 -0.404691 -0.620731 0
M  V30 1395 H 127.708 -1.55964 -1.11119 0
M  V30 1396 H 126.013 -1.27979 -3.70309 0
M  V30 1397 H 127.71 -1.6671 -3.64704 0
M  V30 1398 H 124.3 -2.98287 -3.07771 0
M  V30 1399 H 128.484 -3.95982 -2.99185 0
M  V30 1400 H 123.74 -5.37126 -2.92071 0
M  V30 1401 H 127.914 -6.35578 -2.84629 0
M  V30 1402 H 125.541 -7.06521 -2.80593 0
M  V30 1403 N 127.117 1.15442 -1.07289 0
M  V30 1404 C 128.347 1.89821 -0.815576 0
M  V30 1405 C 128.755 1.7823 0.634867 0
M  V30 1406 O 128.098 1.13152 1.44715 0
M  V30 1407 C 128.16 3.40817 -1.14385 0
M  V30 1408 C 127.824 3.76193 -2.59476 0
M  V30 1409 C 128.821 3.77269 -3.57721 0
M  V30 1410 C 126.506 4.0652 -2.95037 0
M  V30 1411 C 128.5 4.08176 -4.89562 0
M  V30 1412 C 126.187 4.37092 -4.27076 0
M  V30 1413 C 127.185 4.37902 -5.24148 0
M  V30 1414 O 126.873 4.67741 -6.53815 0
M  V30 1415 H 126.605 0.608465 -0.294528 0
M  V30 1416 H 129.159 1.472 -1.43252 0
M  V30 1417 H 127.389 3.83835 -0.469865 0
M  V30 1418 H 129.078 3.96485 -0.869179 0
M  V30 1419 H 129.844 3.5394 -3.3159 0
M  V30 1420 H 125.723 4.05049 -2.20128 0
M  V30 1421 H 129.267 4.08723 -5.65324 0
M  V30 1422 H 125.164 4.59889 -4.5296 0
M  V30 1423 H 125.932 4.85509 -6.58957 0
M  V30 1424 N 128.595 0.856903 1.32268 0
M  V30 1425 C 129.843 0.460474 1.96784 0
M  V30 1426 C 130.164 -0.987701 1.68135 0
M  V30 1427 O 129.434 -1.69058 0.989765 0
M  V30 1428 H 128.014 0.167289 0.728027 0
M  V30 1429 H 130.676 1.09383 1.61312 0
M  V30 1430 H 129.772 0.60739 3.06133 0
M  V30 1431 N 130.073 -1.45103 0.615059 0
M  V30 1432 C 131.021 -2.32331 -0.111791 0
M  V30 1433 C 132.015 -1.46409 -0.852102 0
M  V30 1434 O 133.221 -1.62849 -0.766821 0
M  V30 1435 H 129.596 -0.749993 -0.0549072 0
M  V30 1436 H 131.567 -2.91407 0.642225 0
M  V30 1437 C 130.316 -3.3015 -1.09071 0
M  V30 1438 H 129.639 -3.96265 -0.530485 0
M  V30 1439 H 131.079 -3.93898 -1.56908 0
M  V30 1440 C 129.538 -2.57875 -2.168 0
M  V30 1441 O 130.068 -2.36567 -3.24652 0
M  V30 1442 N 128.274 -2.17884 -1.92289 0
M  V30 1443 H 127.821 -2.35413 -1.04587 0
M  V30 1444 H 127.779 -1.6985 -2.64572 0
M  V30 1445 N 131.551 -0.354651 -1.53558 0
M  V30 1446 C 132.498 0.496968 -2.25386 0
M  V30 1447 C 133.468 1.0865 -1.25636 0
M  V30 1448 O 134.653 1.12104 -1.54394 0
M  V30 1449 C 131.793 1.63637 -3.03837 0
M  V30 1450 C 130.906 1.07307 -4.18461 0
M  V30 1451 C 130.041 2.18068 -4.84376 0
M  V30 1452 C 129.08 1.59147 -5.91049 0
M  V30 1453 N 128.217 2.63695 -6.50699 0
M  V30 1454 H 133.057 -0.122075 -2.9775 0
M  V30 1455 H 130.594 -0.0720154 -1.46924 0
M  V30 1456 H 132.552 2.30734 -3.47589 0
M  V30 1457 H 131.182 2.22623 -2.33749 0
M  V30 1458 H 130.234 0.292708 -3.79272 0
M  V30 1459 H 131.546 0.602193 -4.95152 0
M  V30 1460 H 130.7 2.93007 -5.31255 0
M  V30 1461 H 129.439 2.68504 -4.07133 0
M  V30 1462 H 128.444 0.827175 -5.43542 0
M  V30 1463 H 129.669 1.09549 -6.70206 0
M  V30 1464 H 127.615 3.13365 -5.76315 0
M  V30 1465 H 127.532 2.21263 -7.22896 0
M  V30 1466 H 128.8 3.3837 -7.02229 0
M  V30 1467 N 133.029 1.57378 -0.0835403 0
M  V30 1468 C 134.257 1.98263 0.59157 0
M  V30 1469 C 134.672 0.962302 1.62435 0
M  V30 1470 O 134.029 -0.049581 1.82433 0
M  V30 1471 C 134.08 3.39214 1.24965 0
M  V30 1472 O 133.801 4.37339 0.258186 0
M  V30 1473 C 135.302 3.95038 2.01147 0
M  V30 1474 H 132.522 0.651773 0.159477 0
M  V30 1475 H 135.066 2.03878 -0.159415 0
M  V30 1476 H 133.221 3.34649 1.95164 0
M  V30 1477 H 133.635 5.19371 0.731734 0
M  V30 1478 H 135.109 4.95848 2.42567 0
M  V30 1479 H 135.586 3.32222 2.87272 0
M  V30 1480 H 136.192 4.0304 1.35789 0
M  V30 1481 N 134.507 -0.190092 1.56449 0
M  V30 1482 C 135.923 -0.54113 1.50146 0
M  V30 1483 C 136.123 -1.85603 0.784465 0
M  V30 1484 O 135.179 -2.5024 0.337051 0
M  V30 1485 C 136.492 -0.591241 2.9483 0
M  V30 1486 C 138.04 -0.679732 3.0553 0
M  V30 1487 C 138.515 -0.760908 4.51635 0
M  V30 1488 N 140.006 -0.824302 4.55806 0
M  V30 1489 C 140.741 -0.907365 5.66175 0
M  V30 1490 N 140.237 -0.952422 6.86222 0
M  V30 1491 N 142.03 -0.94494 5.541 0
M  V30 1492 H 134.181 0.67235 2.01478 0
M  V30 1493 H 136.444 0.240127 0.917084 0
M  V30 1494 H 136.15 0.305905 3.50367 0
M  V30 1495 H 136.024 -1.44422 3.48457 0
M  V30 1496 H 138.411 -1.56731 2.50039 0
M  V30 1497 H 138.492 0.199549 2.5502 0
M  V30 1498 H 138.136 0.122336 5.07753 0
M  V30 1499 H 138.066 -1.65606 4.99882 0
M  V30 1500 H 140.557 -0.798526 3.69367 0
M  V30 1501 H 140.87 -1.01645 7.66086 0
M  V30 1502 H 139.215 -0.921014 6.8887 0
M  V30 1503 H 142.406 -0.906612 4.59236 0
M  V30 1504 H 142.579 -1.00622 6.4014 0
M  V30 1505 N 135.985 -1.50799 -0.457987 0
M  V30 1506 C 136.918 -1.65273 -1.57353 0
M  V30 1507 C 137.896 -0.500578 -1.54703 0
M  V30 1508 O 139.08 -0.721781 -1.74134 0
M  V30 1509 C 136.207 -1.64737 -2.95938 0
M  V30 1510 C 135.253 -2.8567 -3.16693 0
M  V30 1511 S 136.086 -4.46791 -2.95191 0
M  V30 1512 C 137.242 -4.48968 -4.36095 0
M  V30 1513 H 137.475 -2.59633 -1.44838 0
M  V30 1514 H 135.008 -1.40225 -0.64625 0
M  V30 1515 H 136.966 -1.65112 -3.7583 0
M  V30 1516 H 135.627 -0.715899 -3.05833 0
M  V30 1517 H 134.82 -2.81637 -4.17967 0
M  V30 1518 H 134.422 -2.8293 -2.44594 0
M  V30 1519 H 136.714 -4.23337 -5.28954 0
M  V30 1520 H 137.657 -5.50664 -4.45168 0
M  V30 1521 H 138.065 -3.78522 -4.18786 0
M  V30 1522 N 137.463 0.71206 -1.40597 0
M  V30 1523 C 138.688 1.50617 -1.42581 0
M  V30 1524 C 139.113 1.88079 -0.0282102 0
M  V30 1525 O 138.471 1.53511 0.964579 0
M  V30 1526 C 138.519 2.7557 -2.3258 0
M  V30 1527 O 137.623 3.72414 -1.77148 0
M  V30 1528 H 136.964 0.453966 -0.484573 0
M  V30 1529 H 139.494 0.876649 -1.84868 0
M  V30 1530 H 139.504 3.2406 -2.47889 0
M  V30 1531 H 138.179 2.47639 -3.34138 0
M  V30 1532 H 136.756 3.31276 -1.71204 0
M  V30 1533 N 138.941 1.26152 0.944643 0
M  V30 1534 C 140.188 1.11492 1.69044 0
M  V30 1535 C 140.516 -0.342366 1.91463 0
M  V30 1536 O 139.771 -1.26812 1.49054 0
M  V30 1537 C 140.07 1.82541 3.07268 0
M  V30 1538 C 139.736 3.32445 3.04616 0
M  V30 1539 C 138.398 3.73337 3.036 0
M  V30 1540 C 140.75 4.28171 2.97185 0
M  V30 1541 C 138.078 5.08348 2.92915 0
M  V30 1542 C 140.43 5.63218 2.88041 0
M  V30 1543 C 139.094 6.03426 2.85366 0
M  V30 1544 H 138.364 0.407977 0.618576 0
M  V30 1545 H 141.011 1.56551 1.10291 0
M  V30 1546 H 139.316 1.29941 3.69625 0
M  V30 1547 H 141.013 1.68642 3.63815 0
M  V30 1548 H 137.603 2.99915 3.06185 0
M  V30 1549 H 141.787 3.97563 2.97081 0
M  V30 1550 H 137.043 5.38667 2.89219 0
M  V30 1551 H 141.217 6.37078 2.81254 0
M  V30 1552 H 138.844 7.07999 2.76842 0
M  V30 1553 N 140.419 -1.14872 1.07899 0
M  V30 1554 C 141.668 -1.85135 0.800499 0
M  V30 1555 C 141.981 -1.83547 -0.676014 0
M  V30 1556 O 143.187 -2.49548 -1.06948 0
M  V30 1557 C 141.643 -3.3231 1.38197 0
M  V30 1558 C 141.251 -3.42329 2.8899 0
M  V30 1559 C 142.995 -4.0772 1.18174 0
M  V30 1560 C 140.902 -4.83684 3.403 0
M  V30 1561 H 139.832 -0.693563 0.29578 0
M  V30 1562 H 142.483 -1.29532 1.29976 0
M  V30 1563 H 140.865 -3.87618 0.810431 0
M  V30 1564 H 142.039 -2.97097 3.52236 0
M  V30 1565 H 140.354 -2.80369 3.07867 0
M  V30 1566 H 142.951 -5.12049 1.5398 0
M  V30 1567 H 143.294 -4.16124 0.12117 0
M  V30 1568 H 143.827 -3.58696 1.71994 0
M  V30 1569 H 140.566 -4.80465 4.45907 0
M  V30 1570 H 140.086 -5.29474 2.81811 0
M  V30 1571 H 141.765 -5.52558 3.36584 0
M  V30 1572 N 141.898 -0.863906 -1.31812 0
M  V30 1573 C 142.831 -0.259963 -2.26714 0
M  V30 1574 C 143.809 0.607392 -1.50829 0
M  V30 1575 O 144.993 0.562155 -1.79922 0
M  V30 1576 C 142.12 0.632456 -3.32743 0
M  V30 1577 C 141.166 -0.162743 -4.26189 0
M  V30 1578 S 141.999 -1.53726 -5.12961 0
M  V30 1579 C 143.155 -0.650803 -6.22507 0
M  V30 1580 H 143.388 -1.06445 -2.77591 0
M  V30 1581 H 140.921 -0.662071 -1.39485 0
M  V30 1582 H 142.879 1.14167 -3.94305 0
M  V30 1583 H 141.54 1.41083 -2.80632 0
M  V30 1584 H 140.733 0.517366 -5.01338 0
M  V30 1585 H 140.335 -0.60385 -3.69093 0
M  V30 1586 H 142.627 0.141134 -6.77353 0
M  V30 1587 H 143.57 -1.37322 -6.94657 0
M  V30 1588 H 143.978 -0.221041 -5.64067 0
M  V30 1589 N 143.376 1.44774 -0.622745 0
M  V30 1590 C 144.653 1.95522 -0.0551974 0
M  V30 1591 C 145.033 1.5649 1.41683 0
M  V30 1592 O 144.381 0.834848 2.12703 0
M  V30 1593 C 144.591 3.4796 -0.269242 0
M  V30 1594 C 145.939 4.24306 -0.158014 0
M  V30 1595 O 146.963 3.55637 -0.200162 0
M  V30 1596 O 145.822 5.46471 -0.0558693 0
M  V30 1597 H 142.916 0.826556 0.0271015 0
M  V30 1598 H 145.462 1.54866 -0.693864 0
M  V30 1599 H 144.234 3.6939 -1.29099 0
M  V30 1600 H 143.857 3.95543 0.403966 0
M  V30 1601 N 144.854 0.36279 1.53368 0
M  V30 1602 C 145.764 -0.492994 2.29362 0
M  V30 1603 C 146.78 -1.09507 1.35219 0
M  V30 1604 O 147.956 -1.10662 1.68273 0
M  V30 1605 C 145.021 -1.61855 3.066 0
M  V30 1606 C 144.082 -1.04429 4.16405 0
M  V30 1607 C 143.315 -2.11621 4.89951 0
M  V30 1608 O 143.538 -3.32684 4.63333 0
M  V30 1609 O 142.472 -1.74835 5.75948 0
M  V30 1610 H 146.298 0.125331 3.03441 0
M  V30 1611 H 143.883 0.127253 1.48857 0
M  V30 1612 H 145.765 -2.27302 3.54841 0
M  V30 1613 H 144.44 -2.22233 2.3536 0
M  V30 1614 H 143.347 -0.353819 3.72423 0
M  V30 1615 H 144.68 -0.485113 4.89804 0
M  V30 1616 N 146.332 -1.57332 0.0918853 0
M  V30 1617 C 147.581 -1.93412 -0.572249 0
M  V30 1618 C 147.894 -0.975515 -1.69538 0
M  V30 1619 O 149.1 -1.22991 -2.42045 0
M  V30 1620 C 147.556 -3.43648 -1.0693 0
M  V30 1621 C 147.164 -4.47994 0.0239049 0
M  V30 1622 C 148.908 -3.88695 -1.70635 0
M  V30 1623 C 146.815 -5.89381 -0.488319 0
M  V30 1624 H 145.745 -0.721939 -0.217532 0
M  V30 1625 H 148.396 -1.82735 0.167369 0
M  V30 1626 H 146.778 -3.49466 -1.8625 0
M  V30 1627 H 147.952 -4.53815 0.799277 0
M  V30 1628 H 146.267 -4.12536 0.565946 0
M  V30 1629 H 148.864 -4.91725 -2.10025 0
M  V30 1630 H 149.207 -3.27166 -2.57426 0
M  V30 1631 H 149.74 -3.85564 -0.979023 0
M  V30 1632 H 146.479 -6.54602 0.342906 0
M  V30 1633 H 145.999 -5.87037 -1.23077 0
M  V30 1634 H 147.678 -6.39863 -0.958317 0
M  V30 1635 N 147.81 0.181792 -1.56548 0
M  V30 1636 C 149.058 0.89832 -1.81038 0
M  V30 1637 C 149.379 1.83232 -0.667164 0
M  V30 1638 O 148.649 1.93372 0.313673 0
M  V30 1639 H 147.229 0.33471 -0.667816 0
M  V30 1640 H 149.891 0.184116 -1.94028 0
M  V30 1641 H 148.987 1.4815 -2.74696 0
M  V30 1642 N 149.288 1.51039 0.449983 0
M  V30 1643 C 150.704 1.38934 0.785462 0
M  V30 1644 C 150.904 0.461817 1.96136 0
M  V30 1645 O 149.96 -0.0877389 2.52348 0
M  V30 1646 C 151.273 2.80724 1.0777 0
M  V30 1647 C 152.821 2.89787 1.1829 0
M  V30 1648 C 153.296 4.32457 1.50815 0
M  V30 1649 N 154.787 4.35505 1.57764 0
M  V30 1650 C 155.522 5.42914 1.84477 0
M  V30 1651 N 155.018 6.60502 2.09068 0
M  V30 1652 N 156.811 5.3038 1.86155 0
M  V30 1653 H 148.962 2.09904 -0.324647 0
M  V30 1654 H 151.225 0.944378 -0.0827957 0
M  V30 1655 H 150.931 3.50531 0.286498 0
M  V30 1656 H 150.805 3.19273 2.00859 0
M  V30 1657 H 153.192 2.20186 1.96474 0
M  V30 1658 H 153.273 2.54752 0.231314 0
M  V30 1659 H 152.917 5.02603 0.731622 0
M  V30 1660 H 152.847 4.64995 2.47158 0
M  V30 1661 H 155.338 3.50724 1.40715 0
M  V30 1662 H 155.651 7.38158 2.28785 0
M  V30 1663 H 153.996 6.63639 2.06416 0
M  V30 1664 H 157.187 4.37505 1.66454 0
M  V30 1665 H 157.36 6.1417 2.06637 0
M  V30 1666 N 150.766 -0.704594 1.40972 0
M  V30 1667 C 152.182 -1.01406 1.23244 0
M  V30 1668 C 152.382 -2.01169 0.115399 0
M  V30 1669 O 151.438 -2.47021 -0.523147 0
M  V30 1670 C 152.751 -1.54728 2.57836 0
M  V30 1671 C 154.299 -1.66658 2.64942 0
M  V30 1672 C 154.774 -2.23383 3.9983 0
M  V30 1673 N 156.265 -2.30756 4.01629 0
M  V30 1674 C 157 -2.75655 5.02794 0
M  V30 1675 N 156.496 -3.20225 6.14352 0
M  V30 1676 N 158.289 -2.75138 4.90159 0
M  V30 1677 H 150.44 -0.0435285 2.12355 0
M  V30 1678 H 152.703 -0.0818951 0.944456 0
M  V30 1679 H 152.409 -0.888832 3.40283 0
M  V30 1680 H 152.283 -2.53084 2.79693 0
M  V30 1681 H 154.67 -2.31617 1.8286 0
M  V30 1682 H 154.751 -0.668717 2.46904 0
M  V30 1683 H 154.395 -1.59043 4.82357 0
M  V30 1684 H 154.325 -3.23904 4.15203 0
M  V30 1685 H 156.816 -1.99291 3.21079 0
M  V30 1686 H 157.129 -3.53084 6.87424 0
M  V30 1687 H 155.474 -3.18156 6.17901 0
M  V30 1688 H 158.665 -2.39661 4.02095 0
M  V30 1689 H 158.838 -3.09812 5.6914 0
M  V30 1690 N 152.244 -1.26651 -0.937939 0
M  V30 1691 C 153.207 -1.08546 -2.01867 0
M  V30 1692 C 154.207 -0.0327327 -1.60767 0
M  V30 1693 O 155.397 -0.276427 -1.71993 0
M  V30 1694 C 152.529 -0.651711 -3.34613 0
M  V30 1695 H 153.722 -2.04502 -2.1936 0
M  V30 1696 H 151.275 -1.09294 -1.11734 0
M  V30 1697 H 152.01 0.309696 -3.22818 0
M  V30 1698 H 151.795 -1.41189 -3.65798 0
M  V30 1699 H 153.285 -0.546973 -4.14002 0
M  V30 1700 N 153.722 1.14298 -1.08507 0
M  V30 1701 C 155.133 1.66926 -0.836227 0
M  V30 1702 C 155.484 1.85576 0.63686 0
M  V30 1703 O 154.609 1.56767 1.49175 0
M  V30 1704 C 155.204 3.03219 -1.51142 0
M  V30 1705 C 153.763 3.52876 -1.30979 0
M  V30 1706 C 152.91 2.2833 -1.57356 0
M  V30 1707 H 155.861 0.983491 -1.24552 0
M  V30 1708 H 155.882 3.68726 -0.939211 0
M  V30 1709 H 155.394 2.89612 -2.58353 0
M  V30 1710 H 153.495 3.71703 -0.258429 0
M  V30 1711 H 153.608 4.33586 -2.03814 0
M  V30 1712 H 151.972 2.34454 -0.995164 0
M  V30 1713 H 152.755 2.17298 -2.65775 0
M  V30 1714 N 155.201 0.870884 1.31352 0
M  V30 1715 C 156.133 0.28455 2.27427 0
M  V30 1716 C 157.146 -0.552927 1.53123 0
M  V30 1717 O 158.335 -0.374771 1.74521 0
M  V30 1718 C 155.435 -0.615164 3.3327 0
M  V30 1719 C 154.608 0.190079 4.36987 0
M  V30 1720 C 153.667 -0.637917 5.22319 0
M  V30 1721 O 152.693 -0.065626 5.69162 0
M  V30 1722 N 153.895 -1.94973 5.46778 0
M  V30 1723 H 156.66 1.11017 2.7838 0
M  V30 1724 H 154.221 0.732458 1.44384 0
M  V30 1725 H 156.213 -1.1748 3.87273 0
M  V30 1726 H 154.783 -1.34146 2.82354 0
M  V30 1727 H 154.003 0.931165 3.83044 0
M  V30 1728 H 155.291 0.742579 5.03352 0
M  V30 1729 H 154.689 -2.4378 5.10478 0
M  V30 1730 H 153.246 -2.45713 6.03712 0
M  V30 1731 N 156.679 -1.44442 0.630414 0
M  V30 1732 C 157.909 -2.06115 0.141465 0
M  V30 1733 C 158.317 -1.47179 -1.1889 0
M  V30 1734 O 157.66 -0.588873 -1.74006 0
M  V30 1735 C 157.722 -3.59467 -0.0484355 0
M  V30 1736 C 157.386 -4.40864 1.20366 0
M  V30 1737 C 158.383 -4.74391 2.12719 0
M  V30 1738 C 156.068 -4.8125 1.43887 0
M  V30 1739 C 158.062 -5.47186 3.26904 0
M  V30 1740 C 155.749 -5.53795 2.5837 0
M  V30 1741 C 156.747 -5.86682 3.49705 0
M  V30 1742 O 156.435 -6.57749 4.62191 0
M  V30 1743 H 156.167 -0.671648 0.0765792 0
M  V30 1744 H 158.721 -1.86312 0.864695 0
M  V30 1745 H 156.951 -3.77758 -0.826803 0
M  V30 1746 H 158.64 -4.02909 -0.491849 0
M  V30 1747 H 159.406 -4.43728 1.95781 0
M  V30 1748 H 155.285 -4.55073 0.736853 0
M  V30 1749 H 158.829 -5.72773 3.98217 0
M  V30 1750 H 154.726 -5.83872 2.75251 0
M  V30 1751 H 155.494 -6.76217 4.61164 0
M  V30 1752 N 158.157 -0.370918 -1.53173 0
M  V30 1753 C 159.385 0.217704 -2.05751 0
M  V30 1754 C 159.8 1.42018 -1.24404 0
M  V30 1755 O 159.157 1.80245 -0.286033 0
M  V30 1756 C 159.208 0.605954 -3.56385 0
M  V30 1757 O 158.929 -0.548734 -4.3465 0
M  V30 1758 C 160.43 1.2524 -4.25241 0
M  V30 1759 H 157.65 0.0371659 -0.66997 0
M  V30 1760 H 160.194 -0.530832 -1.9749 0
M  V30 1761 H 158.349 1.3044 -3.6478 0
M  V30 1762 H 158.763 -0.23376 -5.23979 0
M  V30 1763 H 160.237 1.47458 -5.3194 0
M  V30 1764 H 160.714 2.2143 -3.79296 0
M  V30 1765 H 161.32 0.595233 -4.21114 0
M  V30 1766 N 159.635 1.57281 -0.100228 0
M  V30 1767 C 160.545 2.17833 0.870965 0
M  V30 1768 C 161.561 1.14921 1.30649 0
M  V30 1769 O 162.737 1.47313 1.37335 0
M  V30 1770 C 159.802 2.75085 2.1102 0
M  V30 1771 C 158.863 3.9297 1.72838 0
M  V30 1772 C 158.096 4.47482 2.90854 0
M  V30 1773 O 158.319 4.00922 4.05731 0
M  V30 1774 O 157.253 5.38433 2.69023 0
M  V30 1775 H 161.079 3.0124 0.38575 0
M  V30 1776 H 158.664 1.48881 0.124397 0
M  V30 1777 H 160.546 3.11656 2.83634 0
M  V30 1778 H 159.221 1.94721 2.58584 0
M  V30 1779 H 158.128 3.61201 0.973883 0
M  V30 1780 H 159.461 4.74713 1.30033 0
M  V30 1781 N 161.113 -0.173488 1.56642 0
M  V30 1782 C 162.362 -0.888758 1.81063 0
M  V30 1783 C 162.675 -1.83506 0.67712 0
M  V30 1784 O 163.881 -2.59254 0.806206 0
M  V30 1785 C 162.337 -1.63091 3.20826 0
M  V30 1786 C 161.945 -0.728357 4.4204 0
M  V30 1787 C 163.689 -2.33454 3.54541 0
M  V30 1788 C 161.596 -1.47062 5.72823 0
M  V30 1789 H 160.526 -0.335618 0.675186 0
M  V30 1790 H 163.177 -0.141712 1.82952 0
M  V30 1791 H 161.559 -2.42263 3.13248 0
M  V30 1792 H 162.733 0.0262449 4.60793 0
M  V30 1793 H 161.048 -0.134492 4.16183 0
M  V30 1794 H 163.645 -2.89578 4.49498 0
M  V30 1795 H 163.988 -3.08687 2.79317 0
M  V30 1796 H 164.521 -1.61227 3.63663 0
M  V30 1797 H 161.26 -0.760658 6.51072 0
M  V30 1798 H 160.78 -2.1986 5.58052 0
M  V30 1799 H 162.459 -2.01868 6.14702 0
M  V30 1800 N 162.591 -1.51276 -0.441967 0
M  V30 1801 C 163.868 -1.54252 -1.20273 0
M  V30 1802 C 164.248 -0.30408 -2.08898 0
M  V30 1803 O 163.596 0.711084 -2.17154 0
M  V30 1804 C 163.806 -2.85406 -2.00859 0
M  V30 1805 C 165.154 -3.37181 -2.58059 0
M  V30 1806 O 166.178 -2.86925 -2.11074 0
M  V30 1807 O 165.037 -4.24858 -3.43741 0
M  V30 1808 H 162.131 -0.619969 -0.547328 0
M  V30 1809 H 164.677 -1.63586 -0.451413 0
M  V30 1810 H 163.449 -3.67003 -1.35736 0
M  V30 1811 H 163.072 -2.79213 -2.83065 0
M  V30 1812 N 164.069 0.697108 -1.41344 0
M  V30 1813 C 165.019 1.80313 -1.39539 0
M  V30 1814 C 166.003 1.58618 -0.270001 0
M  V30 1815 O 167.195 1.69477 -0.510551 0
M  V30 1816 C 164.324 3.18606 -1.27848 0
M  V30 1817 C 163.41 3.46001 -2.45244 0
M  V30 1818 N 163.801 3.44103 -3.70711 0
M  V30 1819 C 162.099 3.76542 -2.39023 0
M  V30 1820 C 162.8 3.7036 -4.48563 0
M  V30 1821 N 161.776 3.90027 -3.78655 0
M  V30 1822 H 165.578 1.77207 -2.34468 0
M  V30 1823 H 163.092 0.897031 -1.35378 0
M  V30 1824 H 165.089 3.97833 -1.24637 0
M  V30 1825 H 163.749 3.22925 -0.339032 0
M  V30 1826 H 164.76 3.2452 -4.03618 0
M  V30 1827 H 161.437 3.88241 -1.53542 0
M  V30 1828 H 162.827 3.75042 -5.57488 0
M  V30 1829 N 165.547 1.27147 0.931209 0
M  V30 1830 C 166.494 1.09568 2.03134 0
M  V30 1831 C 167.464 -0.00222433 1.661 0
M  V30 1832 O 168.649 0.159439 1.90133 0
M  V30 1833 C 165.789 0.745231 3.36957 0
M  V30 1834 C 164.902 1.92041 3.86968 0
M  V30 1835 C 164.037 1.51216 5.09222 0
M  V30 1836 C 163.076 2.65504 5.5152 0
M  V30 1837 N 162.213 2.25291 6.64972 0
M  V30 1838 H 167.053 2.03708 2.17502 0
M  V30 1839 H 164.59 1.01411 1.06556 0
M  V30 1840 H 166.548 0.522878 4.1391 0
M  V30 1841 H 165.178 -0.159202 3.22407 0
M  V30 1842 H 164.23 2.25541 3.06326 0
M  V30 1843 H 165.542 2.77787 4.1429 0
M  V30 1844 H 164.696 1.25084 5.93666 0
M  V30 1845 H 163.435 0.625749 4.83669 0
M  V30 1846 H 162.44 2.92354 4.65628 0
M  V30 1847 H 163.665 3.54761 5.7907 0
M  V30 1848 H 161.611 1.39098 6.41083 0
M  V30 1849 H 161.528 3.04577 6.91931 0
M  V30 1850 H 162.796 2.02398 7.52765 0
M  V30 1851 N 167.025 -1.13721 1.09112 0
M  V30 1852 C 168.273 -1.84559 0.823562 0
M  V30 1853 C 168.594 -1.83754 -0.652658 0
M  V30 1854 O 167.864 -1.29102 -1.47342 0
M  V30 1855 H 166.444 -0.683376 0.301673 0
M  V30 1856 H 169.106 -1.37771 1.37859 0
M  V30 1857 H 168.202 -2.8917 1.17419 0
M  V30 1858 N 168.503 -0.877838 -1.30888 0
M  V30 1859 C 169.752 -0.488793 -1.95688 0
M  V30 1860 C 170.065 0.965485 -1.70111 0
M  V30 1861 O 171.271 1.46104 -2.28836 0
M  V30 1862 C 169.727 -0.823201 -3.50359 0
M  V30 1863 C 169.335 -2.29477 -3.84765 0
M  V30 1864 C 171.079 -0.503009 -4.21509 0
M  V30 1865 C 168.986 -2.57118 -5.32583 0
M  V30 1866 H 167.916 -0.179062 -0.732429 0
M  V30 1867 H 170.567 -1.07183 -1.48943 0
M  V30 1868 H 168.949 -0.169331 -3.95638 0
M  V30 1869 H 170.123 -2.99236 -3.5042 0
M  V30 1870 H 168.438 -2.58178 -3.267 0
M  V30 1871 H 171.035 -0.68665 -5.30273 0
M  V30 1872 H 171.378 0.557109 -4.12555 0
M  V30 1873 H 171.911 -1.11376 -3.8189 0
M  V30 1874 H 168.65 -3.61843 -5.4658 0
M  V30 1875 H 168.17 -1.91961 -5.68253 0
M  V30 1876 H 169.849 -2.42251 -5.99936 0
M  V30 1877 N 169.982 1.44106 -0.638065 0
M  V30 1878 C 171.393 1.85316 -0.226894 0
M  V30 1879 C 171.744 1.53399 1.22324 0
M  V30 1880 O 170.869 0.975463 1.93167 0
M  V30 1881 C 171.464 3.3637 -0.405013 0
M  V30 1882 C 170.023 3.76369 -0.0482902 0
M  V30 1883 C 169.17 2.67921 -0.715108 0
M  V30 1884 H 172.121 1.34474 -0.842764 0
M  V30 1885 H 172.142 3.7885 0.354 0
M  V30 1886 H 171.654 3.59569 -1.46053 0
M  V30 1887 H 169.755 3.58784 1.00522 0
M  V30 1888 H 169.868 4.76856 -0.463187 0
M  V30 1889 H 168.232 2.54259 -0.149753 0
M  V30 1890 H 169.015 2.93951 -1.77335 0
M  V30 1891 N 171.46 0.379036 1.52974 0
M  V30 1892 C 172.688 -0.20679 2.05864 0
M  V30 1893 C 173.103 -1.41356 1.25155 0
M  V30 1894 O 172.46 -1.8009 0.295588 0
M  V30 1895 C 172.511 -0.587045 3.56702 0
M  V30 1896 O 172.232 0.571776 4.34353 0
M  V30 1897 C 173.733 -1.22983 4.25899 0
M  V30 1898 H 170.953 -0.0336123 0.670158 0
M  V30 1899 H 173.497 0.541298 1.97206 0
M  V30 1900 H 171.652 -1.28504 3.65466 0
M  V30 1901 H 172.066 0.261544 5.23847 0
M  V30 1902 H 173.54 -1.44635 5.32715 0
M  V30 1903 H 174.017 -2.19416 3.80465 0
M  V30 1904 H 174.623 -0.572892 4.21424 0
M  V30 1905 N 172.938 -1.57226 0.108567 0
M  V30 1906 C 173.868 -2.17778 -0.84232 0
M  V30 1907 C 174.849 -1.11487 -1.2847 0
M  V30 1908 O 176.034 -1.39681 -1.34918 0
M  V30 1909 C 173.164 -2.76888 -2.09644 0
M  V30 1910 C 172.118 -3.88669 -1.79221 0
M  V30 1911 C 171.444 -4.34541 -3.11574 0
M  V30 1912 C 172.744 -5.11251 -1.06864 0
M  V30 1913 H 174.438 -2.97489 -0.337774 0
M  V30 1914 H 171.984 -1.43097 -0.161025 0
M  V30 1915 H 173.937 -3.17904 -2.76614 0
M  V30 1916 H 172.661 -1.94451 -2.62405 0
M  V30 1917 H 171.32 -3.48213 -1.14644 0
M  V30 1918 H 170.968 -3.48977 -3.62249 0
M  V30 1919 H 170.668 -5.09914 -2.91996 0
M  V30 1920 H 172.192 -4.782 -3.7968 0
M  V30 1921 H 173.606 -5.49352 -1.63968 0
M  V30 1922 H 172.003 -5.9214 -0.974178 0
M  V30 1923 H 173.073 -4.8487 -0.0536168 0
M  V30 1924 N 174.416 0.165178 -1.56732 0
M  V30 1925 C 175.662 0.882112 -1.82611 0
M  V30 1926 C 175.995 1.81628 -0.687378 0
M  V30 1927 O 175.27 1.92009 0.310267 0
M  V30 1928 C 175.553 1.67245 -3.18906 0
M  V30 1929 C 175.406 0.760987 -4.43316 0
M  V30 1930 C 176.725 2.63884 -3.52212 0
M  V30 1931 H 173.844 0.319242 -0.664269 0
M  V30 1932 H 176.486 0.148052 -1.89422 0
M  V30 1933 H 174.636 2.29824 -3.1323 0
M  V30 1934 H 176.308 0.147596 -4.61064 0
M  V30 1935 H 174.551 0.0694102 -4.33744 0
M  V30 1936 H 175.222 1.34962 -5.35247 0
M  V30 1937 H 177.698 2.11429 -3.58381 0
M  V30 1938 H 176.574 3.16245 -4.48643 0
M  V30 1939 H 176.835 3.44377 -2.77231 0
M  V30 1940 N 175.894 1.51508 0.433938 0
M  V30 1941 C 176.804 1.75917 1.5521 0
M  V30 1942 C 177.82 0.643545 1.61662 0
M  V30 1943 O 178.996 0.926183 1.7884 0
M  V30 1944 C 176.061 1.88213 2.91164 0
M  V30 1945 C 175.122 3.12074 2.94802 0
M  V30 1946 C 174.355 3.23774 4.24271 0
M  V30 1947 O 174.578 2.4133 5.16833 0
M  V30 1948 O 173.512 4.16774 4.34262 0
M  V30 1949 H 177.338 2.70777 1.37527 0
M  V30 1950 H 174.923 1.36051 0.617293 0
M  V30 1951 H 176.805 1.98267 3.71845 0
M  V30 1952 H 175.48 0.965413 3.08968 0
M  V30 1953 H 174.387 3.07497 2.13065 0
M  V30 1954 H 175.72 4.03446 2.81943 0
M  V30 1955 N 177.372 -0.689602 1.41712 0
M  V30 1956 C 178.618 -1.45181 1.41599 0
M  V30 1957 C 178.951 -1.94181 0.0270081 0
M  V30 1958 O 178.226 -1.6993 -0.946265 0
M  V30 1959 C 178.509 -2.65945 2.42787 0
M  V30 1960 C 178.362 -2.22672 3.90816 0
M  V30 1961 C 179.681 -3.68149 2.41151 0
M  V30 1962 H 176.8 -0.526576 0.515642 0
M  V30 1963 H 179.442 -0.784947 1.73028 0
M  V30 1964 H 177.592 -3.2284 2.16116 0
M  V30 1965 H 179.264 -1.71058 4.28412 0
M  V30 1966 H 177.507 -1.54394 4.05395 0
M  V30 1967 H 178.178 -3.0935 4.57172 0
M  V30 1968 H 180.654 -3.2094 2.64834 0
M  V30 1969 H 179.53 -4.50248 3.13955 0
M  V30 1970 H 179.791 -4.18259 1.43221 0
M  V30 1971 N 178.85 -1.27639 -0.924453 0
M  V30 1972 C 180.096 -1.14336 -1.67497 0
M  V30 1973 C 180.429 0.309465 -1.91718 0
M  V30 1974 O 179.704 1.22608 -1.50989 0
M  V30 1975 C 179.987 -1.93096 -3.0395 0
M  V30 1976 C 179.84 -3.46381 -2.8695 0
M  V30 1977 C 181.159 -1.73798 -4.0433 0
M  V30 1978 H 178.278 -0.416728 -0.607871 0
M  V30 1979 H 180.92 -1.56832 -1.07256 0
M  V30 1980 H 179.07 -1.56982 -3.55372 0
M  V30 1981 H 180.742 -3.92343 -2.42621 0
M  V30 1982 H 178.985 -3.72557 -2.22225 0
M  V30 1983 H 179.656 -3.96735 -3.83804 0
M  V30 1984 H 182.132 -2.05293 -3.61931 0
M  V30 1985 H 181.008 -2.31294 -4.97789 0
M  V30 1986 H 181.269 -0.686725 -4.36734 0
M  V30 1987 N 180.328 1.1314 -1.09713 0
M  V30 1988 C 181.744 1.36477 -0.827423 0
M  V30 1989 C 181.944 1.93654 0.556817 0
M  V30 1990 O 181 2.15791 1.31112 0
M  V30 1991 C 182.313 2.31334 -1.92106 0
M  V30 1992 C 183.861 2.44943 -1.94864 0
M  V30 1993 C 184.336 3.4311 -3.0338 0
M  V30 1994 N 185.827 3.50662 -3.02639 0
M  V30 1995 C 186.562 4.2651 -3.83246 0
M  V30 1996 N 186.058 5.05485 -4.73768 0
M  V30 1997 N 187.851 4.2184 -3.71493 0
M  V30 1998 H 180.002 0.743807 -1.9895 0
M  V30 1999 H 182.265 0.389823 -0.864143 0
M  V30 2000 H 181.971 1.96483 -2.91698 0
M  V30 2001 H 181.845 3.31381 -1.80184 0
M  V30 2002 H 184.232 2.79079 -0.959099 0
M  V30 2003 H 184.313 1.4481 -2.10864 0
M  V30 2004 H 183.957 3.09704 -4.02549 0
M  V30 2005 H 183.887 4.43055 -2.84622 0
M  V30 2006 H 186.378 2.94315 -2.37039 0
M  V30 2007 H 186.691 5.60675 -5.3185 0
M  V30 2008 H 185.036 5.04708 -4.77802 0
M  V30 2009 H 188.227 3.5922 -3.00131 0
M  V30 2010 H 188.4 4.80697 -4.3455 0
M  V30 2011 N 181.806 0.884767 1.30421 0
M  V30 2012 C 182.769 0.356277 2.26414 0
M  V30 2013 C 183.769 -0.501124 1.52792 0
M  V30 2014 O 184.959 -0.30831 1.7145 0
M  V30 2015 C 182.091 -0.492316 3.37326 0
M  V30 2016 H 183.284 1.20389 2.74675 0
M  V30 2017 H 180.837 0.661607 1.41607 0
M  V30 2018 H 181.572 -1.36052 2.94381 0
M  V30 2019 H 181.357 0.121832 3.91911 0
M  V30 2020 H 182.847 -0.853871 4.08777 0
M  V30 2021 N 183.284 -1.43765 0.645699 0
M  V30 2022 C 184.532 -2.01499 0.155731 0
M  V30 2023 C 184.853 -1.51151 -1.232 0
M  V30 2024 O 184.123 -0.721044 -1.82148 0
M  V30 2025 H 182.703 -0.745003 0.0545817 0
M  V30 2026 H 185.365 -1.76075 0.835677 0
M  V30 2027 H 184.461 -3.1181 0.134577 0
M  V30 2028 N 184.763 -0.387143 -1.52771 0
M  V30 2029 C 186.01 0.195735 -2.01552 0
M  V30 2030 C 186.338 1.46995 -1.27369 0
M  V30 2031 O 185.593 1.92325 -0.361879 0
M  V30 2032 C 185.892 0.512209 -3.53711 0
M  V30 2033 C 185.558 -0.670202 -4.45891 0
M  V30 2034 C 184.22 -0.994586 -4.70809 0
M  V30 2035 C 186.572 -1.46134 -5.00294 0
M  V30 2036 C 183.9 -2.11169 -5.4738 0
M  V30 2037 C 186.252 -2.56903 -5.78086 0
M  V30 2038 C 184.916 -2.89852 -6.01284 0
M  V30 2039 H 184.186 0.0716246 -0.73753 0
M  V30 2040 H 186.833 -0.524046 -1.8419 0
M  V30 2041 H 185.138 1.31329 -3.69134 0
M  V30 2042 H 186.835 0.975804 -3.88946 0
M  V30 2043 H 183.425 -0.407366 -4.2666 0
M  V30 2044 H 187.609 -1.22397 -4.80971 0
M  V30 2045 H 182.865 -2.3707 -5.63567 0
M  V30 2046 H 187.039 -3.18608 -6.19243 0
M  V30 2047 H 184.666 -3.76533 -6.60399 0
M  V30 2048 N 186.241 1.57166 -0.116904 0
M  V30 2049 C 187.471 1.99184 0.548586 0
M  V30 2050 C 187.879 0.995436 1.60897 0
M  V30 2051 O 187.222 -0.0201293 1.83689 0
M  V30 2052 C 187.284 3.37611 1.23526 0
M  V30 2053 C 186.948 4.55857 0.323077 0
M  V30 2054 C 187.945 5.18056 -0.437476 0
M  V30 2055 C 185.63 5.01751 0.234761 0
M  V30 2056 C 187.624 6.24536 -1.2741 0
M  V30 2057 C 185.311 6.08093 -0.605496 0
M  V30 2058 C 186.309 6.69352 -1.35856 0
M  V30 2059 O 185.997 7.7364 -2.18487 0
M  V30 2060 H 185.729 0.659148 0.149999 0
M  V30 2061 H 188.283 2.0443 -0.199428 0
M  V30 2062 H 186.513 3.29113 2.0303 0
M  V30 2063 H 188.202 3.63932 1.79745 0
M  V30 2064 H 188.968 4.83516 -0.379105 0
M  V30 2065 H 184.847 4.53817 0.810601 0
M  V30 2066 H 188.391 6.72281 -1.86237 0
M  V30 2067 H 184.288 6.42063 -0.665268 0
M  V30 2068 H 185.056 7.90727 -2.11406 0
M  V30 2069 N 187.719 -0.156864 1.56817 0
M  V30 2070 C 188.649 -1.19589 2.00551 0
M  V30 2071 C 189.63 -1.4536 0.883426 0
M  V30 2072 O 190.815 -1.56449 1.15054 0
M  V30 2073 C 187.945 -2.53143 2.37773 0
M  V30 2074 C 186.899 -2.41913 3.53075 0
M  V30 2075 C 186.225 -3.80088 3.76081 0
M  V30 2076 C 187.525 -1.91157 4.86062 0
M  V30 2077 H 189.219 -0.832293 2.87599 0
M  V30 2078 H 186.765 -0.398918 1.38364 0
M  V30 2079 H 188.718 -3.26047 2.66967 0
M  V30 2080 H 187.442 -2.91319 1.4765 0
M  V30 2081 H 186.101 -1.71462 3.24031 0
M  V30 2082 H 185.749 -4.15683 2.83225 0
M  V30 2083 H 185.449 -3.73439 4.53671 0
M  V30 2084 H 186.973 -4.54556 4.0769 0
M  V30 2085 H 188.387 -2.53846 5.14038 0
M  V30 2086 H 186.784 -1.95422 5.67389 0
M  V30 2087 H 187.854 -0.866673 4.77092 0
M  V30 2088 N 189.197 -1.51736 -0.425897 0
M  V30 2089 C 190.445 -1.64644 -1.17204 0
M  V30 2090 C 190.766 -0.370486 -1.91448 0
M  V30 2091 O 190.036 0.614088 -1.86026 0
M  V30 2092 H 188.616 -0.606819 -0.435638 0
M  V30 2093 H 191.278 -1.88713 -0.487177 0
M  V30 2094 H 190.374 -2.47958 -1.89534 0
M  V30 2095 N 190.675 0.682077 -1.42076 0
M  V30 2096 C 191.922 1.44215 -1.42156 0
M  V30 2097 C 192.25 1.94468 -0.0354186 0
M  V30 2098 O 191.505 1.70816 0.955002 0
M  V30 2099 C 191.804 2.66036 -2.38662 0
M  V30 2100 C 191.47 2.34366 -3.85206 0
M  V30 2101 C 190.132 2.25439 -4.25124 0
M  V30 2102 C 192.484 2.08513 -4.77673 0
M  V30 2103 C 189.812 1.88775 -5.55501 0
M  V30 2104 C 192.164 1.73354 -6.08384 0
M  V30 2105 C 190.828 1.62933 -6.47309 0
M  V30 2106 H 190.098 0.527718 -0.520187 0
M  V30 2107 H 192.745 0.778387 -1.74967 0
M  V30 2108 H 191.05 3.3741 -1.99152 0
M  V30 2109 H 192.747 3.24205 -2.35991 0
M  V30 2110 H 189.337 2.42213 -3.53597 0
M  V30 2111 H 193.521 2.14346 -4.47626 0
M  V30 2112 H 188.777 1.7927 -5.84527 0
M  V30 2113 H 192.951 1.52373 -6.79526 0
M  V30 2114 H 190.578 1.34292 -7.48244 0
M  V30 2115 N 192.153 1.28127 0.917671 0
M  V30 2116 C 193.103 1.08361 2.00604 0
M  V30 2117 C 194.087 0.00847518 1.60898 0
M  V30 2118 O 195.279 0.228167 1.75523 0
M  V30 2119 C 192.408 0.743376 3.35155 0
M  V30 2120 C 191.494 1.85716 3.81275 0
M  V30 2121 N 191.885 3.09822 3.99805 0
M  V30 2122 C 190.183 1.74612 4.10398 0
M  V30 2123 C 190.884 3.82368 4.38372 0
M  V30 2124 N 189.86 3.10192 4.4641 0
M  V30 2125 H 193.662 2.02531 2.12975 0
M  V30 2126 H 191.176 1.18989 1.10523 0
M  V30 2127 H 193.173 0.582859 4.12805 0
M  V30 2128 H 191.833 -0.190595 3.2414 0
M  V30 2129 H 192.844 3.45475 3.85833 0
M  V30 2130 H 189.521 0.883657 4.08041 0
M  V30 2131 H 190.911 4.89082 4.60704 0
M  V30 2132 N 193.631 -1.12557 1.10312 0
M  V30 2133 C 194.579 -2.20325 0.745629 0
M  V30 2134 C 195.573 -1.67429 -0.25763 0
M  V30 2135 O 196.779 -1.79612 -0.118132 0
M  V30 2136 H 193.154 -0.718118 0.223182 0
M  V30 2137 H 195.125 -2.47733 1.66346 0
M  V30 2138 C 193.874 -3.47168 0.192262 0
M  V30 2139 H 193.197 -3.88215 0.955475 0
M  V30 2140 H 194.637 -4.23995 -0.0198274 0
M  V30 2141 C 193.096 -3.19298 -1.07472 0
M  V30 2142 O 193.626 -3.3891 -2.15645 0
M  V30 2143 N 191.832 -2.73113 -0.992847 0
M  V30 2144 H 191.379 -2.57354 -0.112474 0
M  V30 2145 H 191.337 -2.54842 -1.84127 0
M  V30 2146 N 195.109 -0.891671 -1.2995 0
M  V30 2147 C 196.056 -0.361736 -2.27948 0
M  V30 2148 C 197.026 0.551761 -1.56668 0
M  V30 2149 O 198.211 0.478736 -1.84696 0
M  V30 2150 C 195.351 0.411825 -3.42634 0
M  V30 2151 C 194.464 -0.531651 -4.28716 0
M  V30 2152 C 193.599 0.258167 -5.30572 0
M  V30 2153 C 192.638 -0.680349 -6.08307 0
M  V30 2154 N 191.775 0.0745613 -7.0206 0
M  V30 2155 H 196.615 -1.20254 -2.72659 0
M  V30 2156 H 194.152 -0.604352 -1.34112 0
M  V30 2157 H 196.11 0.876304 -4.07893 0
M  V30 2158 H 194.74 1.21715 -2.98974 0
M  V30 2159 H 193.792 -1.11463 -3.63703 0
M  V30 2160 H 195.104 -1.25038 -4.82874 0
M  V30 2161 H 194.258 0.784204 -6.0161 0
M  V30 2162 H 192.997 1.01008 -4.77126 0
M  V30 2163 H 192.002 -1.21796 -5.3614 0
M  V30 2164 H 193.227 -1.43145 -6.63842 0
M  V30 2165 H 191.173 0.808883 -6.50994 0
M  V30 2166 H 191.09 -0.584409 -7.53738 0
M  V30 2167 H 192.358 0.581123 -7.77331 0
M  V30 2168 N 196.587 1.43421 -0.653314 0
M  V30 2169 C 197.497 2.34568 0.0388565 0
M  V30 2170 C 198.513 1.53888 0.81207 0
M  V30 2171 O 199.689 1.86539 0.759294 0
M  V30 2172 C 196.754 3.32167 0.993269 0
M  V30 2173 C 195.815 4.28751 0.216977 0
M  V30 2174 C 195.048 5.21688 1.12593 0
M  V30 2175 O 195.271 5.19052 2.36519 0
M  V30 2176 O 194.205 5.98919 0.598284 0
M  V30 2177 H 198.031 2.95251 -0.711386 0
M  V30 2178 H 195.616 1.43564 -0.413502 0
M  V30 2179 H 197.498 3.92183 1.54176 0
M  V30 2180 H 196.173 2.73987 1.72374 0
M  V30 2181 H 195.08 3.72215 -0.375101 0
M  V30 2182 H 196.413 4.89913 -0.473924 0
M  V30 2183 N 198.065 0.39524 1.52563 0
M  V30 2184 C 198.995 -0.428384 2.29537 0
M  V30 2185 C 199.976 -1.05831 1.33169 0
M  V30 2186 O 201.161 -1.06995 1.62067 0
M  V30 2187 C 198.291 -1.55274 3.10656 0
M  V30 2188 C 197.245 -1.04855 4.14957 0
M  V30 2189 C 196.571 -2.26543 4.84337 0
M  V30 2190 C 197.871 -0.112324 5.22179 0
M  V30 2191 H 199.565 0.213867 2.98635 0
M  V30 2192 H 197.111 0.104298 1.43622 0
M  V30 2193 H 199.064 -2.1358 3.63265 0
M  V30 2194 H 197.788 -2.22266 2.39302 0
M  V30 2195 H 196.447 -0.487985 3.63338 0
M  V30 2196 H 196.095 -2.92059 4.09525 0
M  V30 2197 H 195.795 -1.93466 5.54837 0
M  V30 2198 H 197.319 -2.85481 5.39753 0
M  V30 2199 H 198.733 -0.603752 5.70112 0
M  V30 2200 H 197.13 0.128968 5.99961 0
M  V30 2201 H 198.2 0.837052 4.77621 0
M  V30 2202 N 199.544 -1.57102 0.125237 0
M  V30 2203 C 200.492 -2.16905 -0.839927 0
M  V30 2204 C 201.486 -1.11998 -1.27094 0
M  V30 2205 O 202.692 -1.3029 -1.24195 0
M  V30 2206 H 199.067 -0.694252 -0.288995 0
M  V30 2207 H 201.038 -2.96774 -0.311115 0
M  V30 2208 C 199.787 -2.78795 -2.07771 0
M  V30 2209 H 199.11 -3.59221 -1.755 0
M  V30 2210 H 200.55 -3.2417 -2.73295 0
M  V30 2211 C 199.009 -1.76193 -2.87155 0
M  V30 2212 O 199.539 -1.21909 -3.82755 0
M  V30 2213 N 197.745 -1.45991 -2.51267 0
M  V30 2214 H 197.292 -1.90325 -1.73592 0
M  V30 2215 H 197.25 -0.775844 -3.04677 0
M  V30 2216 N 201.022 0.148545 -1.56898 0
M  V30 2217 C 201.932 1.20293 -2.01412 0
M  V30 2218 C 202.948 1.47107 -0.929273 0
M  V30 2219 O 204.124 1.58807 -1.23863 0
M  V30 2220 C 201.189 2.51682 -2.38447 0
M  V30 2221 C 200.25 2.32529 -3.60872 0
M  V30 2222 C 199.483 3.57653 -3.96132 0
M  V30 2223 O 199.706 4.63771 -3.32073 0
M  V30 2224 O 198.64 3.50408 -4.89385 0
M  V30 2225 H 202.466 0.855025 -2.91416 0
M  V30 2226 H 200.051 0.357151 -1.45068 0
M  V30 2227 H 201.933 3.29147 -2.63135 0
M  V30 2228 H 200.608 2.86006 -1.51599 0
M  V30 2229 H 199.515 1.53019 -3.41373 0
M  V30 2230 H 200.848 2.03121 -4.48333 0
M  V30 2231 N 202.5 1.5196 0.417844 0
M  V30 2232 C 203.749 1.6482 1.16264 0
M  V30 2233 C 204.062 0.379886 1.91876 0
M  V30 2234 O 205.268 0.388154 2.68711 0
M  V30 2235 C 203.724 2.91161 2.1155 0
M  V30 2236 C 203.332 4.25068 1.41495 0
M  V30 2237 C 205.076 3.13383 2.86341 0
M  V30 2238 C 202.983 5.42541 2.35379 0
M  V30 2239 H 201.913 0.613954 0.437694 0
M  V30 2240 H 204.564 1.78442 0.427871 0
M  V30 2241 H 202.946 2.71218 2.88543 0
M  V30 2242 H 204.12 4.55463 0.699263 0
M  V30 2243 H 202.435 4.0888 0.787792 0
M  V30 2244 H 205.032 3.98324 3.5671 0
M  V30 2245 H 205.375 2.27256 3.48798 0
M  V30 2246 H 205.908 3.33757 2.1645 0
M  V30 2247 H 202.647 6.30987 1.77582 0
M  V30 2248 H 202.167 5.16497 3.04945 0
M  V30 2249 H 203.846 5.75272 2.96093 0
M  V30 2250 N 203.978 -0.674533 1.42435 0
M  V30 2251 C 204.926 -1.80934 1.46169 0
M  V30 2252 C 205.92 -1.66006 0.3374 0
M  V30 2253 O 207.126 -1.72611 0.510425 0
M  V30 2254 H 203.501 -0.596594 0.457798 0
M  V30 2255 H 205.472 -1.74903 2.41767 0
M  V30 2256 C 204.221 -3.19088 1.38123 0
M  V30 2257 H 203.544 -3.31203 2.23931 0
M  V30 2258 H 204.984 -3.9851 1.44797 0
M  V30 2259 C 203.443 -3.36763 0.0960517 0
M  V30 2260 O 203.973 -3.92581 -0.851073 0
M  V30 2261 N 202.179 -2.90597 0.0131186 0
M  V30 2262 H 201.726 -2.45359 0.784639 0
M  V30 2263 H 201.684 -3.028 -0.846133 0
M  V30 2264 N 205.456 -1.28612 -0.910864 0
M  V30 2265 C 206.403 -1.12786 -2.01365 0
M  V30 2266 C 207.373 -0.024201 -1.66082 0
M  V30 2267 O 208.558 -0.189667 -1.89855 0
M  V30 2268 C 205.698 -0.798743 -3.35729 0
M  V30 2269 C 204.811 -1.98173 -3.83864 0
M  V30 2270 C 203.946 -1.59298 -5.06752 0
M  V30 2271 C 202.985 -2.74245 -5.47226 0
M  V30 2272 N 202.122 -2.35842 -6.61304 0
M  V30 2273 H 206.962 -2.07142 -2.14234 0
M  V30 2274 H 204.499 -1.03093 -1.0493 0
M  V30 2275 H 206.457 -0.588662 -4.13026 0
M  V30 2276 H 205.087 0.10789 -3.2262 0
M  V30 2277 H 204.139 -2.30386 -3.02699 0
M  V30 2278 H 205.451 -2.84343 -4.09818 0
M  V30 2279 H 204.605 -1.34513 -5.916 0
M  V30 2280 H 203.344 -0.702618 -4.82612 0
M  V30 2281 H 202.349 -2.99725 -4.60918 0
M  V30 2282 H 203.574 -3.63928 -5.73353 0
M  V30 2283 H 201.52 -1.49279 -6.38789 0
M  V30 2284 H 201.437 -3.15546 -6.86998 0
M  V30 2285 H 202.705 -2.14348 -7.4945 0
M  V30 2286 N 206.934 1.1197 -1.10907 0
M  V30 2287 C 208.35 1.35591 -0.841852 0
M  V30 2288 C 208.55 1.94233 0.536246 0
M  V30 2289 O 207.606 2.1717 1.28816 0
M  V30 2290 C 208.919 2.29284 -1.94549 0
M  V30 2291 C 210.467 2.42862 -1.97451 0
M  V30 2292 C 210.942 3.39873 -3.07002 0
M  V30 2293 N 212.433 3.47433 -3.06341 0
M  V30 2294 C 213.168 4.22421 -3.87748 0
M  V30 2295 N 212.664 5.00432 -4.79103 0
M  V30 2296 N 214.457 4.17876 -3.75946 0
M  V30 2297 H 206.608 0.722664 -1.99728 0
M  V30 2298 H 208.871 0.380635 -0.868229 0
M  V30 2299 H 208.577 1.93378 -2.93765 0
M  V30 2300 H 208.451 3.29452 -1.83688 0
M  V30 2301 H 210.838 2.78046 -0.988645 0
M  V30 2302 H 210.919 1.42566 -2.12388 0
M  V30 2303 H 210.563 3.05417 -4.05811 0
M  V30 2304 H 210.493 4.40011 -2.89306 0
M  V30 2305 H 212.984 2.91784 -2.40147 0
M  V30 2306 H 213.297 5.55002 -5.37766 0
M  V30 2307 H 211.642 4.99612 -4.83128 0
M  V30 2308 H 214.833 3.56016 -3.03924 0
M  V30 2309 H 215.006 4.76061 -4.39624 0
M  V30 2310 N 208.412 0.89855 1.29475 0
M  V30 2311 C 209.637 0.538561 2.00285 0
M  V30 2312 C 210.062 -0.869135 1.66816 0
M  V30 2313 O 209.42 -1.57831 0.892145 0
M  V30 2314 C 209.468 0.736475 3.52999 0
M  V30 2315 O 208.572 -0.211537 4.11857 0
M  V30 2316 H 207.913 0.210563 0.62973 0
M  V30 2317 H 210.443 1.20982 1.64998 0
M  V30 2318 H 210.453 0.640685 4.02938 0
M  V30 2319 H 209.128 1.76276 3.76696 0
M  V30 2320 H 207.705 -0.0682991 3.72837 0
M  V30 2321 N 209.89 -1.43072 0.660911 0
M  V30 2322 C 211.137 -2.01721 0.177445 0
M  V30 2323 C 211.465 -1.5218 -1.21126 0
M  V30 2324 O 210.72 -0.708659 -1.82419 0
M  V30 2325 C 211.019 -3.57103 0.145563 0
M  V30 2326 C 210.685 -4.26021 1.47705 0
M  V30 2327 C 209.347 -4.44563 1.84165 0
M  V30 2328 C 211.699 -4.64983 2.35458 0
M  V30 2329 C 209.027 -4.99334 3.0803 0
M  V30 2330 C 211.379 -5.21127 3.58622 0
M  V30 2331 C 210.043 -5.37884 3.95268 0
M  V30 2332 H 209.313 -0.73815 0.0649317 0
M  V30 2333 H 211.96 -1.71446 0.853144 0
M  V30 2334 H 210.265 -3.86965 -0.61361 0
M  V30 2335 H 211.962 -4.00248 -0.2455 0
M  V30 2336 H 208.552 -4.11939 1.18339 0
M  V30 2337 H 212.736 -4.50343 2.08579 0
M  V30 2338 H 207.992 -5.10493 3.36462 0
M  V30 2339 H 212.166 -5.50262 4.26831 0
M  V30 2340 H 209.793 -5.80089 4.91325 0
M  V30 2341 N 211.368 -0.403325 -1.52352 0
M  V30 2342 C 212.315 0.425011 -2.26853 0
M  V30 2343 C 213.285 1.04598 -1.29029 0
M  V30 2344 O 214.47 1.07135 -1.57882 0
M  V30 2345 C 211.61 1.53888 -3.08889 0
M  V30 2346 C 210.723 0.939396 -4.21663 0
M  V30 2347 C 209.858 2.02547 -4.91068 0
M  V30 2348 C 208.897 1.40263 -5.95813 0
M  V30 2349 N 208.034 2.4286 -6.58759 0
M  V30 2350 H 212.874 -0.21674 -2.97211 0
M  V30 2351 H 210.411 -0.118722 -1.4662 0
M  V30 2352 H 212.369 2.19558 -3.54753 0
M  V30 2353 H 210.999 2.15074 -2.40714 0
M  V30 2354 H 210.051 0.171898 -3.80011 0
M  V30 2355 H 211.363 0.44436 -4.96817 0
M  V30 2356 H 210.517 2.75958 -5.40308 0
M  V30 2357 H 209.256 2.55415 -4.15469 0
M  V30 2358 H 208.261 0.653833 -5.45898 0
M  V30 2359 H 209.486 0.881719 -6.73352 0
M  V30 2360 H 207.432 2.94871 -5.85992 0
M  V30 2361 H 207.349 1.98152 -7.2957 0
M  V30 2362 H 208.617 3.15858 -7.12639 0
M  V30 2363 N 212.846 1.57033 -0.133567 0
M  V30 2364 C 213.756 2.19632 0.824564 0
M  V30 2365 C 214.772 1.17666 1.28182 0
M  V30 2366 O 215.948 1.50193 1.3418 0
M  V30 2367 C 213.013 2.79499 2.05137 0
M  V30 2368 C 212.074 3.96548 1.64464 0
M  V30 2369 C 211.307 4.5355 2.81297 0
M  V30 2370 O 211.53 4.09438 3.97136 0
M  V30 2371 O 210.464 5.44018 2.57542 0
M  V30 2372 H 214.29 3.01991 0.321766 0
M  V30 2373 H 211.875 1.49112 0.0927889 0
M  V30 2374 H 213.757 3.17602 2.7696 0
M  V30 2375 H 212.432 2.00162 2.54395 0
M  V30 2376 H 211.339 3.63186 0.897048 0
M  V30 2377 H 212.672 4.77364 1.19934 0
M  V30 2378 N 214.325 -0.140222 1.56975 0
M  V30 2379 C 215.741 -0.493088 1.51792 0
M  V30 2380 C 215.941 -1.83013 0.843116 0
M  V30 2381 O 214.997 -2.49041 0.416493 0
M  V30 2382 C 216.31 -0.497144 2.96562 0
M  V30 2383 C 217.858 -0.582186 3.07538 0
M  V30 2384 C 218.333 -0.616838 4.53827 0
M  V30 2385 N 219.824 -0.678873 4.58198 0
M  V30 2386 C 220.559 -0.726782 5.68775 0
M  V30 2387 N 220.055 -0.733623 6.88905 0
M  V30 2388 N 221.848 -0.768179 5.56826 0
M  V30 2389 H 213.999 0.736108 1.99237 0
M  V30 2390 H 216.262 0.269182 0.90898 0
M  V30 2391 H 215.968 0.417217 3.49217 0
M  V30 2392 H 215.842 -1.33263 3.52875 0
M  V30 2393 H 218.229 -1.48697 2.54899 0
M  V30 2394 H 218.31 0.280581 2.54257 0
M  V30 2395 H 217.954 0.283812 5.07106 0
M  V30 2396 H 217.884 -1.49619 5.04898 0
M  V30 2397 H 220.375 -0.68061 3.7172 0
M  V30 2398 H 220.688 -0.772215 7.68932 0
M  V30 2399 H 219.033 -0.701389 6.91452 0
M  V30 2400 H 222.224 -0.760051 4.61888 0
M  V30 2401 H 222.397 -0.80205 6.43017 0
M  V30 2402 N 215.803 -1.52179 -0.40978 0
M  V30 2403 C 217.049 -1.66453 -1.15851 0
M  V30 2404 C 217.382 -0.392972 -1.90182 0
M  V30 2405 O 216.657 0.608579 -1.84734 0
M  V30 2406 C 216.94 -2.88612 -2.15349 0
M  V30 2407 C 216.793 -4.25815 -1.44918 0
M  V30 2408 C 218.112 -3.06294 -3.16026 0
M  V30 2409 H 215.231 -0.60575 -0.419805 0
M  V30 2410 H 217.873 -1.84732 -0.444314 0
M  V30 2411 H 216.023 -2.73158 -2.76255 0
M  V30 2412 H 217.695 -4.52995 -0.871365 0
M  V30 2413 H 215.938 -4.27247 -0.751159 0
M  V30 2414 H 216.609 -5.07337 -2.17516 0
M  V30 2415 H 219.085 -3.20641 -2.65195 0
M  V30 2416 H 217.961 -3.93283 -3.8291 0
M  V30 2417 H 218.222 -2.19579 -3.83715 0
M  V30 2418 N 217.281 0.66697 -1.42791 0
M  V30 2419 C 218.53 1.42278 -1.42968 0
M  V30 2420 C 218.843 1.9553 -0.0524489 0
M  V30 2421 O 220.049 2.71414 0.068363 0
M  V30 2422 C 218.505 2.57418 -2.51524 0
M  V30 2423 C 218.113 2.10832 -3.9529 0
M  V30 2424 C 219.857 3.34878 -2.60877 0
M  V30 2425 C 217.764 3.23101 -4.95338 0
M  V30 2426 H 216.694 0.534533 -0.531781 0
M  V30 2427 H 219.345 0.721302 -1.68729 0
M  V30 2428 H 217.727 3.29971 -2.18941 0
M  V30 2429 H 218.901 1.4538 -4.37266 0
M  V30 2430 H 217.216 1.46289 -3.89857 0
M  V30 2431 H 219.813 4.18505 -3.32802 0
M  V30 2432 H 220.156 3.81993 -1.6549 0
M  V30 2433 H 220.689 2.69398 -2.92693 0
M  V30 2434 H 217.428 2.80969 -5.9223 0
M  V30 2435 H 216.948 3.87309 -4.57987 0
M  V30 2436 H 218.627 3.88447 -5.17415 0
M  V30 2437 N 218.759 1.29093 0.90403 0
M  V30 2438 C 220.17 1.15186 1.46932 0
M  V30 2439 C 220.521 -0.254587 1.94541 0
M  V30 2440 O 219.646 -1.14972 1.83332 0
M  V30 2441 C 220.241 2.08492 2.67051 0
M  V30 2442 C 218.8 1.98621 3.19729 0
M  V30 2443 C 217.947 1.9967 1.92425 0
M  V30 2444 H 220.898 1.41641 0.715789 0
M  V30 2445 H 220.919 1.65461 3.42641 0
M  V30 2446 H 220.431 3.10847 2.3237 0
M  V30 2447 H 218.532 0.993389 3.59114 0
M  V30 2448 H 218.645 2.86068 3.8432 0
M  V30 2449 H 217.009 1.44208 2.09943 0
M  V30 2450 H 217.792 3.03721 1.60026 0
M  V30 2451 N 220.237 -1.11381 1.11499 0
M  V30 2452 C 221.462 -1.87475 0.887019 0
M  V30 2453 C 221.887 -1.79639 -0.557796 0
M  V30 2454 O 221.245 -1.15924 -1.39396 0
M  V30 2455 C 221.293 -3.34213 1.35403 0
M  V30 2456 O 220.397 -4.0903 0.526146 0
M  V30 2457 H 219.738 -0.582099 0.319463 0
M  V30 2458 H 222.268 -1.40785 1.48461 0
M  V30 2459 H 222.278 -3.8506 1.34881 0
M  V30 2460 H 220.953 -3.39232 2.40612 0
M  V30 2461 H 219.53 -3.68082 0.597522 0
M  V30 2462 N 221.715 -0.905404 -1.28997 0
M  V30 2463 C 222.964 -0.530191 -1.94607 0
M  V30 2464 C 223.277 0.929185 -1.72121 0
M  V30 2465 O 224.483 1.41218 -2.31883 0
M  V30 2466 C 222.939 -0.897333 -3.48534 0
M  V30 2467 C 222.547 -2.37587 -3.79811 0
M  V30 2468 C 224.291 -0.592304 -4.20347 0
M  V30 2469 C 222.198 -2.68357 -5.27009 0
M  V30 2470 H 221.128 -0.194558 -0.728466 0
M  V30 2471 H 223.779 -1.10318 -1.46636 0
M  V30 2472 H 222.161 -0.253214 -3.9519 0
M  V30 2473 H 223.335 -3.06602 -3.43994 0
M  V30 2474 H 221.65 -2.6505 -3.2115 0
M  V30 2475 H 224.247 -0.798975 -5.28697 0
M  V30 2476 H 224.59 0.469474 -4.13644 0
M  V30 2477 H 225.123 -1.19452 -3.79442 0
M  V30 2478 H 221.862 -3.73355 -5.38782 0
M  V30 2479 H 221.382 -2.03971 -5.64053 0
M  V30 2480 H 223.061 -2.54922 -5.94663 0
M  V30 2481 N 223.193 1.4272 -0.668489 0
M  V30 2482 C 224.123 2.335 -0.000100175 0
M  V30 2483 C 225.104 1.50328 0.795964 0
M  V30 2484 O 226.289 1.78949 0.754385 0
M  V30 2485 C 223.419 3.33874 0.956302 0
M  V30 2486 C 222.373 4.27152 0.269278 0
M  V30 2487 C 221.699 5.17684 1.33818 0
M  V30 2488 C 222.999 5.15373 -0.847805 0
M  V30 2489 H 224.693 2.89639 -0.758244 0
M  V30 2490 H 222.239 1.39269 -0.366079 0
M  V30 2491 H 224.192 3.9629 1.43292 0
M  V30 2492 H 222.916 2.76025 1.74579 0
M  V30 2493 H 221.575 3.66123 -0.187042 0
M  V30 2494 H 221.223 4.56165 2.1195 0
M  V30 2495 H 220.923 5.80918 0.883659 0
M  V30 2496 H 222.447 5.82974 1.81586 0
M  V30 2497 H 223.861 5.7151 -0.452681 0
M  V30 2498 H 222.258 5.87407 -1.22773 0
M  V30 2499 H 223.328 4.5415 -1.69929 0
M  V30 2500 N 224.671 0.411399 1.52136 0
M  V30 2501 C 225.634 -0.401089 2.25663 0
M  V30 2502 C 226.634 -0.971732 1.28117 0
M  V30 2503 O 227.824 -0.850254 1.52041 0
M  V30 2504 C 224.956 -1.56483 3.02863 0
M  V30 2505 H 226.149 0.24295 2.98914 0
M  V30 2506 H 223.702 0.163968 1.55438 0
M  V30 2507 H 224.437 -2.24567 2.33967 0
M  V30 2508 H 224.222 -1.16211 3.74483 0
M  V30 2509 H 225.712 -2.13951 3.58629 0
M  V30 2510 N 226.149 -1.5696 0.141893 0
M  V30 2511 C 227.398 -1.95135 -0.510427 0
M  V30 2512 C 227.711 -1.02896 -1.66348 0
M  V30 2513 O 228.917 -1.30629 -2.38009 0
M  V30 2514 C 227.373 -3.46876 -0.959427 0
M  V30 2515 C 226.981 -4.47691 0.166419 0
M  V30 2516 C 228.725 -3.93927 -1.58183 0
M  V30 2517 C 226.632 -5.90636 -0.300565 0
M  V30 2518 H 225.562 -0.728494 -0.194454 0
M  V30 2519 H 228.213 -1.8211 0.22542 0
M  V30 2520 H 226.595 -3.55215 -1.75038 0
M  V30 2521 H 227.769 -4.51043 0.94325 0
M  V30 2522 H 226.084 -4.10527 0.696905 0
M  V30 2523 H 228.681 -4.98158 -1.94275 0
M  V30 2524 H 229.024 -3.3519 -2.46888 0
M  V30 2525 H 229.557 -3.88484 -0.855863 0
M  V30 2526 H 226.296 -6.5318 0.550989 0
M  V30 2527 H 225.816 -5.90655 -1.04338 0
M  V30 2528 H 227.495 -6.42588 -0.754265 0
M  V30 2529 N 227.627 0.131896 -1.57047 0
M  V30 2530 C 228.559 1.1878 -1.9602 0
M  V30 2531 C 229.572 1.38363 -0.857875 0
M  V30 2532 O 230.761 1.37666 -1.13623 0
M  V30 2533 C 227.861 2.55008 -2.23213 0
M  V30 2534 C 227.034 2.56201 -3.54513 0
M  V30 2535 C 226.093 3.7408 -3.70069 0
M  V30 2536 O 225.119 3.58258 -4.42312 0
M  V30 2537 N 226.321 4.92137 -3.07866 0
M  V30 2538 H 229.086 0.85639 -2.87204 0
M  V30 2539 H 226.647 0.321309 -1.5868 0
M  V30 2540 H 228.639 3.32404 -2.30846 0
M  V30 2541 H 227.209 2.80382 -1.3822 0
M  V30 2542 H 226.429 1.64613 -3.58185 0
M  V30 2543 H 227.717 2.54043 -4.4084 0
M  V30 2544 H 227.115 5.07895 -2.49116 0
M  V30 2545 H 225.672 5.67254 -3.21039 0
M  V30 2546 N 229.106 1.52395 0.401703 0
M  V30 2547 C 230.053 1.76268 1.48991 0
M  V30 2548 C 231.023 0.605386 1.54675 0
M  V30 2549 O 232.208 0.843742 1.7113 0
M  V30 2550 C 229.348 1.92592 2.86361 0
M  V30 2551 C 228.461 3.20259 2.89928 0
M  V30 2552 C 227.596 3.26972 4.18644 0
M  V30 2553 C 226.635 4.48812 4.16214 0
M  V30 2554 N 225.772 4.52877 5.36514 0
M  V30 2555 H 230.612 2.6914 1.27935 0
M  V30 2556 H 228.149 1.33355 0.620871 0
M  V30 2557 H 230.107 2.0004 3.66115 0
M  V30 2558 H 228.737 1.03093 3.05895 0
M  V30 2559 H 227.789 3.21945 2.02621 0
M  V30 2560 H 229.101 4.10056 2.83999 0
M  V30 2561 H 228.255 3.33533 5.06794 0
M  V30 2562 H 226.994 2.35126 4.27278 0
M  V30 2563 H 225.999 4.4239 3.26453 0
M  V30 2564 H 227.224 5.41961 4.09213 0
M  V30 2565 H 225.17 3.63917 5.45802 0
M  V30 2566 H 225.087 5.36529 5.32609 0
M  V30 2567 H 226.355 4.63676 6.26597 0
M  V30 2568 N 230.584 -0.659388 1.43143 0
M  V30 2569 C 231.532 -1.79374 1.4808 0
M  V30 2570 C 232.526 -1.65639 0.354988 0
M  V30 2571 O 233.732 -1.7206 0.528704 0
M  V30 2572 H 230.107 -0.591705 0.4641 0
M  V30 2573 H 232.078 -1.72329 2.43609 0
M  V30 2574 C 230.827 -3.17606 1.41499 0
M  V30 2575 H 230.15 -3.28809 2.27431 0
M  V30 2576 H 231.59 -3.96951 1.49015 0
M  V30 2577 C 230.049 -3.36642 0.131765 0
M  V30 2578 O 230.579 -3.93461 -0.809386 0
M  V30 2579 N 228.785 -2.90567 0.0439396 0
M  V30 2580 H 228.332 -2.44513 0.810619 0
M  V30 2581 H 228.29 -3.03681 -0.813969 0
M  V30 2582 N 232.062 -1.29571 -0.897171 0
M  V30 2583 C 233.473 -1.15964 -1.46319 0
M  V30 2584 C 233.824 0.244267 -1.94674 0
M  V30 2585 O 232.949 1.13998 -1.83939 0
M  V30 2586 C 233.544 -2.09906 -2.65942 0
M  V30 2587 C 232.103 -2.00314 -3.18671 0
M  V30 2588 C 231.25 -2.00687 -1.91363 0
M  V30 2589 H 234.201 -1.42019 -0.708268 0
M  V30 2590 H 234.222 -1.67276 -3.41759 0
M  V30 2591 H 233.734 -3.12075 -2.30718 0
M  V30 2592 H 231.835 -1.01242 -3.58582 0
M  V30 2593 H 231.948 -2.88102 -3.82798 0
M  V30 2594 H 230.312 -1.45319 -2.09175 0
M  V30 2595 H 231.095 -3.04566 -1.58413 0
M  V30 2596 N 233.54 1.10788 -1.12088 0
M  V30 2597 C 234.488 2.19111 -0.780587 0
M  V30 2598 C 235.482 1.67818 0.230961 0
M  V30 2599 O 236.688 1.79777 0.0895427 0
M  V30 2600 H 233.063 0.714477 -0.234578 0
M  V30 2601 H 235.034 2.45055 -1.70266 0
M  V30 2602 C 233.783 3.46818 -0.24747 0
M  V30 2603 H 233.106 3.86646 -1.01712 0
M  V30 2604 H 234.546 4.23973 -0.0476291 0
M  V30 2605 C 233.005 3.20968 1.02378 0
M  V30 2606 O 233.535 3.42298 2.10226 0
M  V30 2607 N 231.741 2.74658 0.949271 0
M  V30 2608 H 231.288 2.57501 0.0715173 0
M  V30 2609 H 231.246 2.57739 1.80049 0
M  V30 2610 N 235.018 0.912232 1.28515 0
M  V30 2611 C 236.265 0.544599 1.95039 0
M  V30 2612 C 236.593 -0.911435 1.71823 0
M  V30 2613 O 235.848 -1.66317 1.03137 0
M  V30 2614 C 236.147 0.798392 3.48368 0
M  V30 2615 C 235.813 2.23374 3.91682 0
M  V30 2616 C 234.475 2.62617 4.03219 0
M  V30 2617 C 236.827 3.16786 4.13879 0
M  V30 2618 C 234.155 3.94429 4.3433 0
M  V30 2619 C 236.507 4.48161 4.46469 0
M  V30 2620 C 235.171 4.8726 4.56217 0
M  V30 2621 H 234.441 0.199283 0.7137 0
M  V30 2622 H 237.088 1.15327 1.52879 0
M  V30 2623 H 235.393 0.106908 3.91654 0
M  V30 2624 H 237.09 0.493141 3.97956 0
M  V30 2625 H 233.68 1.91922 3.83228 0
M  V30 2626 H 237.864 2.87677 4.0442 0
M  V30 2627 H 233.12 4.24426 4.40082 0
M  V30 2628 H 237.294 5.20559 4.62592 0
M  V30 2629 H 234.921 5.89431 4.80078 0
M  V30 2630 N 236.496 -1.42363 0.676048 0
M  V30 2631 C 237.443 -2.308 -0.00150904 0
M  V30 2632 C 238.413 -1.46032 -0.791444 0
M  V30 2633 O 239.598 -1.74861 -0.76344 0
M  V30 2634 C 236.738 -3.31883 -0.945919 0
M  V30 2635 C 235.851 -4.31741 -0.149675 0
M  V30 2636 C 234.986 -5.19898 -1.08995 0
M  V30 2637 C 234.025 -6.11434 -0.285465 0
M  V30 2638 N 233.162 -6.92138 -1.17851 0
M  V30 2639 H 238.002 -2.88187 0.758455 0
M  V30 2640 H 235.539 -1.41952 0.38576 0
M  V30 2641 H 237.497 -3.89019 -1.50731 0
M  V30 2642 H 236.127 -2.76093 -1.6725 0
M  V30 2643 H 235.179 -3.76713 0.528359 0
M  V30 2644 H 236.491 -4.96534 0.474866 0
M  V30 2645 H 235.645 -5.81772 -1.72123 0
M  V30 2646 H 234.384 -4.55284 -1.74837 0
M  V30 2647 H 233.389 -5.48627 0.359018 0
M  V30 2648 H 234.614 -6.78097 0.368883 0
M  V30 2649 H 232.56 -6.30152 -1.82332 0
M  V30 2650 H 232.477 -7.53542 -0.609082 0
M  V30 2651 H 233.745 -7.58499 -1.79722 0
M  V30 2652 N 237.974 -0.419461 -1.51915 0
M  V30 2653 C 238.904 0.391813 -2.30189 0
M  V30 2654 C 239.885 1.03699 -1.34836 0
M  V30 2655 O 241.07 1.04403 -1.63748 0
M  V30 2656 C 238.2 1.50312 -3.13087 0
M  V30 2657 C 237.154 0.9824 -4.16573 0
M  V30 2658 C 236.48 2.18809 -4.8788 0
M  V30 2659 C 237.78 0.0292356 -5.22292 0
M  V30 2660 H 239.474 -0.26135 -2.98257 0
M  V30 2661 H 237.02 -0.127134 -1.43438 0
M  V30 2662 H 238.973 2.07773 -3.66617 0
M  V30 2663 H 237.697 2.18431 -2.42807 0
M  V30 2664 H 236.356 0.430119 -3.64068 0
M  V30 2665 H 236.004 2.85507 -4.14119 0
M  V30 2666 H 235.704 1.84615 -5.57845 0
M  V30 2667 H 237.228 2.76858 -5.44226 0
M  V30 2668 H 238.642 0.512976 -5.71 0
M  V30 2669 H 237.039 -0.2244 -5.9968 0
M  V30 2670 H 238.109 -0.912931 -4.76228 0
M  V30 2671 N 239.452 1.56882 -0.150215 0
M  V30 2672 C 240.7 1.9584 0.499105 0
M  V30 2673 C 241.021 1.03623 1.65188 0
M  V30 2674 O 240.291 0.0984084 1.95653 0
M  V30 2675 H 238.871 0.723119 0.187373 0
M  V30 2676 H 241.533 1.9358 -0.226466 0
M  V30 2677 H 240.629 2.99638 0.873122 0
M  V30 2678 N 240.93 -0.123565 1.57115 0
M  V30 2679 C 242.158 -0.846461 1.88793 0
M  V30 2680 C 242.573 -1.73652 0.740976 0
M  V30 2681 O 241.93 -1.80207 -0.288393 0
M  V30 2682 C 241.981 -1.6837 3.19897 0
M  V30 2683 O 241.702 -0.829477 4.30176 0
M  V30 2684 C 243.203 -2.51214 3.65248 0
M  V30 2685 H 240.423 -0.243573 0.625231 0
M  V30 2686 H 242.967 -0.109324 2.04208 0
M  V30 2687 H 241.122 -2.37364 3.06165 0
M  V30 2688 H 241.536 -1.40651 5.0529 0
M  V30 2689 H 243.01 -3.05497 4.59756 0
M  V30 2690 H 243.487 -3.28359 2.9168 0
M  V30 2691 H 244.093 -1.8747 3.81752 0
M  V30 2692 N 242.408 -1.52605 -0.393616 0
M  V30 2693 C 243.318 -1.79971 -1.50492 0
M  V30 2694 C 244.334 -0.686181 -1.59899 0
M  V30 2695 O 245.51 -0.973274 -1.76322 0
M  V30 2696 C 242.575 -1.95867 -2.86072 0
M  V30 2697 C 241.636 -3.19781 -2.86424 0
M  V30 2698 C 240.869 -3.34909 -4.15538 0
M  V30 2699 O 241.092 -2.54948 -5.10253 0
M  V30 2700 O 240.026 -4.28141 -4.23059 0
M  V30 2701 H 243.852 -2.74328 -1.30299 0
M  V30 2702 H 241.437 -1.3764 -0.581005 0
M  V30 2703 H 243.319 -2.08056 -3.66457 0
M  V30 2704 H 241.994 -1.04699 -3.063 0
M  V30 2705 H 240.901 -3.13038 -2.04837 0
M  V30 2706 H 242.234 -4.1078 -2.71147 0
M  V30 2707 N 243.887 0.651787 -1.4349 0
M  V30 2708 C 245.133 1.41376 -1.45398 0
M  V30 2709 C 245.466 1.94041 -0.0784823 0
M  V30 2710 O 244.741 1.72379 0.900878 0
M  V30 2711 C 245.024 2.59414 -2.49752 0
M  V30 2712 C 244.877 2.12232 -3.96582 0
M  V30 2713 C 246.196 3.61626 -2.50827 0
M  V30 2714 H 243.315 0.512719 -0.529422 0
M  V30 2715 H 245.957 0.738796 -1.75048 0
M  V30 2716 H 244.107 3.16997 -2.246 0
M  V30 2717 H 245.779 1.59639 -4.32797 0
M  V30 2718 H 244.022 1.43592 -4.09346 0
M  V30 2719 H 244.693 2.9712 -4.65214 0
M  V30 2720 H 247.169 3.13805 -2.7325 0
M  V30 2721 H 246.045 4.41766 -3.25783 0
M  V30 2722 H 246.306 4.14314 -1.5426 0
M  V30 2723 N 245.365 1.30045 0.890287 0
M  V30 2724 C 246.297 1.11786 2.00091 0
M  V30 2725 C 247.31 0.0626307 1.62679 0
M  V30 2726 O 248.499 0.308112 1.75821 0
M  V30 2727 C 245.599 0.681527 3.31977 0
M  V30 2728 C 244.772 1.81735 3.97858 0
M  V30 2729 C 243.831 1.37045 5.08041 0
M  V30 2730 O 242.857 2.07677 5.29961 0
M  V30 2731 N 244.059 0.246525 5.79976 0
M  V30 2732 H 246.824 2.07441 2.16306 0
M  V30 2733 H 244.385 1.2211 1.06305 0
M  V30 2734 H 246.377 0.365675 4.03045 0
M  V30 2735 H 244.947 -0.182828 3.12065 0
M  V30 2736 H 244.167 2.30159 3.20032 0
M  V30 2737 H 245.455 2.57865 4.38615 0
M  V30 2738 H 244.853 -0.34215 5.64664 0
M  V30 2739 H 243.41 -0.00990438 6.51799 0
M  V30 2740 N 246.843 -1.10192 1.12674 0
M  V30 2741 C 248.12 -1.78717 0.794965 0
M  V30 2742 C 248.5 -1.98628 -0.714853 0
M  V30 2743 O 247.848 -1.58135 -1.64941 0
M  V30 2744 C 248.058 -3.11546 1.5729 0
M  V30 2745 C 249.406 -3.86382 1.76052 0
M  V30 2746 O 250.43 -3.21274 1.53823 0
M  V30 2747 O 249.289 -5.03246 2.13087 0
M  V30 2748 H 246.383 -0.774702 0.289423 0
M  V30 2749 H 248.929 -1.16819 1.23091 0
M  V30 2750 H 247.701 -2.92489 2.59935 0
M  V30 2751 H 247.324 -3.81164 1.13137 0
M  V30 2752 N 248.321 -0.919034 -1.28029 0
M  V30 2753 C 249.268 -0.410005 -2.27129 0
M  V30 2754 C 250.238 0.518405 -1.57803 0
M  V30 2755 O 251.423 0.439451 -1.8567 0
M  V30 2756 C 248.563 0.339054 -3.4343 0
M  V30 2757 C 247.676 -0.622468 -4.27492 0
M  V30 2758 C 246.811 0.145567 -5.31001 0
M  V30 2759 C 245.85 -0.809226 -6.06727 0
M  V30 2760 N 244.987 -0.0743728 -7.02061 0
M  V30 2761 H 249.827 -1.26011 -2.70047 0
M  V30 2762 H 247.364 -0.632663 -1.328 0
M  V30 2763 H 249.322 0.789586 -4.0966 0
M  V30 2764 H 247.952 1.15346 -3.01488 0
M  V30 2765 H 247.004 -1.19153 -3.61257 0
M  V30 2766 H 248.316 -1.35252 -4.80113 0
M  V30 2767 H 247.47 0.656417 -6.03139 0
M  V30 2768 H 246.209 0.908643 -4.79161 0
M  V30 2769 H 245.214 -1.3314 -5.33436 0
M  V30 2770 H 246.439 -1.57194 -6.60656 0
M  V30 2771 H 244.385 0.670616 -6.52563 0
M  V30 2772 H 244.302 -0.744157 -7.52329 0
M  V30 2773 H 245.57 0.416109 -7.78389 0
M  V30 2774 N 249.799 1.42003 -0.683588 0
M  V30 2775 C 251.048 2.00638 -0.206681 0
M  V30 2776 C 251.361 1.5472 1.19671 0
M  V30 2777 O 252.567 2.05833 1.77045 0
M  V30 2778 C 251.023 3.58487 -0.318632 0
M  V30 2779 C 250.631 4.1339 -1.72663 0
M  V30 2780 C 252.375 4.24384 0.0991141 0
M  V30 2781 C 250.282 5.63633 -1.79087 0
M  V30 2782 H 249.212 0.750408 -0.0735107 0
M  V30 2783 H 251.863 1.62624 -0.850048 0
M  V30 2784 H 250.245 3.94047 0.392781 0
M  V30 2785 H 251.419 3.89273 -2.46583 0
M  V30 2786 H 249.734 3.59976 -2.09299 0
M  V30 2787 H 252.331 5.34652 0.0713833 0
M  V30 2788 H 252.674 4.00505 1.13586 0
M  V30 2789 H 253.207 3.93816 -0.561599 0
M  V30 2790 H 249.946 5.92323 -2.80774 0
M  V30 2791 H 249.466 5.89714 -1.09535 0
M  V30 2792 H 251.145 6.28201 -1.5483 0
M  V30 2793 N 251.277 0.427512 1.51691 0
M  V30 2794 C 252.523 -0.142439 2.02299 0
M  V30 2795 C 252.856 -1.43214 1.31162 0
M  V30 2796 O 252.131 -1.89833 0.423511 0
M  V30 2797 C 252.414 -0.371301 3.58181 0
M  V30 2798 C 252.267 0.936358 4.39946 0
M  V30 2799 C 253.586 -1.14542 4.24933 0
M  V30 2800 H 250.705 -0.0502937 0.735282 0
M  V30 2801 H 253.347 0.564584 1.81418 0
M  V30 2802 H 251.497 -0.973559 3.76104 0
M  V30 2803 H 253.169 1.57184 4.33694 0
M  V30 2804 H 251.412 1.5432 4.05423 0
M  V30 2805 H 252.083 0.730388 5.47147 0
M  V30 2806 H 254.559 -0.635362 4.11221 0
M  V30 2807 H 253.435 -1.27431 5.33903 0
M  V30 2808 H 253.696 -2.17093 3.85127 0
M  V30 2809 N 252.755 -1.56801 0.158532 0
M  V30 2810 C 253.98 -2.01295 -0.499516 0
M  V30 2811 C 254.405 -1.03799 -1.56867 0
M  V30 2812 O 253.763 -0.0155162 -1.81293 0
M  V30 2813 C 253.811 -3.44469 -1.06647 0
M  V30 2814 O 252.915 -3.50012 -2.18095 0
M  V30 2815 H 252.256 -0.652884 -0.12099 0
M  V30 2816 H 254.786 -2.02958 0.258661 0
M  V30 2817 H 254.796 -3.8351 -1.39227 0
M  V30 2818 H 253.471 -4.14932 -0.283581 0
M  V30 2819 H 252.048 -3.22822 -1.86656 0
M  V30 2820 N 254.233 0.115231 -1.57178 0
M  V30 2821 C 255.196 1.12526 -1.99676 0
M  V30 2822 C 256.196 1.34095 -0.88742 0
M  V30 2823 O 257.386 1.30548 -1.15337 0
M  V30 2824 C 254.518 2.4789 -2.34015 0
M  V30 2825 H 255.711 0.759912 -2.90113 0
M  V30 2826 H 253.264 0.359648 -1.52106 0
M  V30 2827 H 253.999 2.89339 -1.4647 0
M  V30 2828 H 253.784 2.33588 -3.14927 0
M  V30 2829 H 255.274 3.20575 -2.67622 0
M  V30 2830 N 255.711 1.52812 0.385517 0
M  V30 2831 C 256.939 1.71907 1.15133 0
M  V30 2832 C 257.354 0.439004 1.83625 0
M  V30 2833 O 256.711 -0.586765 1.7281 0
M  V30 2834 C 256.762 2.87099 2.19673 0
M  V30 2835 O 256.483 4.10151 1.53973 0
M  V30 2836 C 257.984 3.17902 3.08955 0
M  V30 2837 H 255.204 0.575479 0.345057 0
M  V30 2838 H 257.748 1.99476 0.45052 0
M  V30 2839 H 255.903 2.61982 2.85384 0
M  V30 2840 H 256.317 4.74514 2.23465 0
M  V30 2841 H 257.791 4.01959 3.7833 0
M  V30 2842 H 258.268 2.3243 3.72657 0
M  V30 2843 H 258.874 3.44871 2.48885 0
M  V30 2844 N 257.189 -0.644168 1.43834 0
M  V30 2845 C 258.437 -1.40117 1.45642 0
M  V30 2846 C 258.758 -1.94814 0.0852413 0
M  V30 2847 O 258.028 -1.74988 -0.880688 0
M  V30 2848 H 256.608 -0.52005 0.536243 0
M  V30 2849 H 259.27 -0.7591 1.7951 0
M  V30 2850 H 258.366 -2.23902 2.17427 0
M  V30 2851 N 258.668 -1.30515 -0.883378 0
M  V30 2852 C 259.598 -1.19607 -2.00541 0
M  V30 2853 C 260.579 -0.086346 -1.69881 0
M  V30 2854 O 261.764 -0.268654 -1.92333 0
M  V30 2855 C 258.894 -0.888758 -3.35736 0
M  V30 2856 C 257.848 -1.95659 -3.8066 0
M  V30 2857 C 257.174 -1.50224 -5.13164 0
M  V30 2858 C 258.474 -3.36788 -3.99213 0
M  V30 2859 H 260.168 -2.13476 -2.09925 0
M  V30 2860 H 257.714 -1.02775 -1.00863 0
M  V30 2861 H 259.667 -0.799094 -4.13754 0
M  V30 2862 H 258.391 0.0856125 -3.26488 0
M  V30 2863 H 257.05 -2.03591 -3.04871 0
M  V30 2864 H 256.698 -0.516092 -5.00345 0
M  V30 2865 H 256.398 -2.2165 -5.44192 0
M  V30 2866 H 257.922 -1.42639 -5.93706 0
M  V30 2867 H 259.336 -3.31605 -4.67665 0
M  V30 2868 H 257.733 -4.06314 -4.41621 0
M  V30 2869 H 258.803 -3.78561 -3.03017 0
M  V30 2870 N 260.146 1.09593 -1.13257 0
M  V30 2871 C 261.076 2.18214 -0.830946 0
M  V30 2872 C 262.057 1.68812 0.208966 0
M  V30 2873 O 263.242 1.9408 0.0682666 0
M  V30 2874 C 260.372 3.46051 -0.294296 0
M  V30 2875 C 259.326 4.08778 -1.26826 0
M  V30 2876 C 258.652 5.31419 -0.591449 0
M  V30 2877 C 259.952 4.51476 -2.62615 0
M  V30 2878 H 261.646 2.43703 -1.73923 0
M  V30 2879 H 259.192 1.17128 -0.837675 0
M  V30 2880 H 261.145 4.2134 -0.0709606 0
M  V30 2881 H 259.869 3.20079 0.649366 0
M  V30 2882 H 258.528 3.35505 -1.47756 0
M  V30 2883 H 258.176 5.01727 0.357633 0
M  V30 2884 H 257.876 5.74341 -1.24123 0
M  V30 2885 H 259.4 6.09433 -0.377355 0
M  V30 2886 H 260.814 5.17999 -2.45663 0
M  V30 2887 H 259.211 5.05277 -3.23752 0
M  V30 2888 H 260.281 3.63962 -3.20406 0
M  V30 2889 N 261.624 0.925811 1.2754 0
M  V30 2890 C 262.587 0.428129 2.25166 0
M  V30 2891 C 263.587 -0.452261 1.54309 0
M  V30 2892 O 264.777 -0.253608 1.72344 0
M  V30 2893 C 261.909 -0.384749 3.38722 0
M  V30 2894 H 263.102 1.29066 2.70706 0
M  V30 2895 H 260.655 0.706323 1.3943 0
M  V30 2896 H 261.39 -1.26618 2.98561 0
M  V30 2897 H 261.175 0.246454 3.91325 0
M  V30 2898 H 262.665 -0.723389 4.11287 0
M  V30 2899 N 263.102 -1.41638 0.69111 0
M  V30 2900 C 264.35 -2.00902 0.219758 0
M  V30 2901 C 264.671 -1.54994 -1.18329 0
M  V30 2902 O 263.941 -0.778628 -1.79762 0
M  V30 2903 H 262.521 -0.74289 0.0782558 0
M  V30 2904 H 265.183 -1.73327 0.891271 0
M  V30 2905 H 264.279 -3.11224 0.233708 0
M  V30 2906 N 264.58 -0.43555 -1.51462 0
M  V30 2907 C 265.528 0.391205 -2.29287 0
M  V30 2908 C 266.522 1.02247 -1.35062 0
M  V30 2909 O 267.728 0.957646 -1.52411 0
M  V30 2910 H 264.103 0.144968 -0.737895 0
M  V30 2911 H 266.074 -0.286051 -2.97026 0
M  V30 2912 C 264.823 1.48096 -3.14583 0
M  V30 2913 H 264.146 1.00457 -3.86973 0
M  V30 2914 H 265.586 2.03273 -3.72097 0
M  V30 2915 C 264.045 2.46321 -2.29843 0
M  V30 2916 O 264.575 3.50815 -1.95682 0
M  V30 2917 N 262.781 2.17166 -1.931 0
M  V30 2918 H 262.328 1.32218 -2.21079 0
M  V30 2919 H 262.286 2.83127 -1.36698 0
M  V30 2920 N 266.058 1.56714 -0.166846 0
M  V30 2921 C 266.968 2.21331 0.777791 0
M  V30 2922 C 267.984 1.20358 1.25658 0
M  V30 2923 O 269.16 1.53005 1.30964 0
M  V30 2924 C 266.225 2.83787 1.99163 0
M  V30 2925 C 265.286 3.99947 1.56016 0
M  V30 2926 C 264.519 4.59415 2.71613 0
M  V30 2927 O 264.742 4.17769 3.88362 0
M  V30 2928 O 263.676 5.49359 2.45945 0
M  V30 2929 H 267.502 3.02605 0.257636 0
M  V30 2930 H 265.087 1.49275 0.0611393 0
M  V30 2931 H 266.969 3.23405 2.70161 0
M  V30 2932 H 265.644 2.05513 2.50092 0
M  V30 2933 H 264.551 3.65007 0.819809 0
M  V30 2934 H 265.884 4.79801 1.09782 0
M  V30 2935 N 267.536 -0.106894 1.57237 0
M  V30 2936 C 268.764 -0.826389 1.8968 0
M  V30 2937 C 269.179 -1.72856 0.759353 0
M  V30 2938 O 268.536 -1.80503 -0.269263 0
M  V30 2939 C 268.587 -1.64967 3.21665 0
M  V30 2940 O 268.308 -0.783804 4.31031 0
M  V30 2941 C 269.809 -2.47326 3.67892 0
M  V30 2942 H 267.029 -0.236927 0.627779 0
M  V30 2943 H 269.573 -0.0876593 2.04312 0
M  V30 2944 H 267.728 -2.34103 3.08666 0
M  V30 2945 H 268.142 -1.35284 5.06753 0
M  V30 2946 H 269.616 -3.00604 4.6297 0
M  V30 2947 H 270.093 -3.25247 2.95146 0
M  V30 2948 H 270.699 -1.83411 3.83719 0
M  V30 2949 N 269.014 -1.53014 -0.377408 0
M  V30 2950 C 269.977 -1.77957 -1.44444 0
M  V30 2951 C 270.977 -0.649763 -1.47087 0
M  V30 2952 O 272.167 -0.917897 -1.48055 0
M  V30 2953 C 269.299 -1.89089 -2.83651 0
M  V30 2954 H 270.492 -2.73243 -1.23606 0
M  V30 2955 H 268.045 -1.43912 -0.609844 0
M  V30 2956 H 268.78 -0.958293 -3.09818 0
M  V30 2957 H 268.565 -2.71254 -2.83132 0
M  V30 2958 H 270.055 -2.1002 -3.60945 0
M  V30 2959 N 270.492 0.636531 -1.44174 0
M  V30 2960 C 271.903 1.21806 -1.41493 0
M  V30 2961 C 272.254 1.95785 -0.1275 0
M  V30 2962 O 271.379 2.02147 0.772376 0
M  V30 2963 C 271.974 2.21551 -2.56321 0
M  V30 2964 C 270.533 2.75143 -2.56853 0
M  V30 2965 C 269.68 1.50052 -2.33195 0
M  V30 2966 H 272.631 0.427531 -1.52833 0
M  V30 2967 H 272.652 3.0405 -2.28765 0
M  V30 2968 H 272.164 1.67679 -3.50008 0
M  V30 2969 H 270.265 3.33033 -1.67093 0
M  V30 2970 H 270.378 3.2155 -3.55165 0
M  V30 2971 H 268.742 1.77993 -1.82183 0
M  V30 2972 H 269.525 0.980903 -3.28988 0
M  V30 2973 N 271.97 1.30982 0.876444 0
M  V30 2974 C 273.381 1.18277 1.44456 0
M  V30 2975 C 273.732 -0.213265 1.95037 0
M  V30 2976 O 272.857 -1.11057 1.85729 0
M  V30 2977 C 273.452 2.1411 2.62569 0
M  V30 2978 C 272.011 2.05358 3.15444 0
M  V30 2979 C 271.158 2.03706 1.88146 0
M  V30 2980 H 274.109 1.43127 0.685584 0
M  V30 2981 H 274.13 1.72692 3.39054 0
M  V30 2982 H 273.642 3.15706 2.25724 0
M  V30 2983 H 271.743 1.06934 3.56926 0
M  V30 2984 H 271.856 2.94156 3.78166 0
M  V30 2985 H 270.22 1.48629 2.06837 0
M  V30 2986 H 271.003 3.07047 1.53547 0
M  V30 2987 N 273.449 -1.08991 1.13837 0
M  V30 2988 C 274.359 -2.19301 0.833333 0
M  V30 2989 C 275.375 -1.73026 -0.183847 0
M  V30 2990 O 276.551 -2.01395 -0.0138092 0
M  V30 2991 C 273.616 -3.45323 0.308651 0
M  V30 2992 C 272.677 -4.06255 1.38764 0
M  V30 2993 C 271.91 -5.26262 0.887896 0
M  V30 2994 O 272.133 -5.69747 -0.27287 0
M  V30 2995 O 271.067 -5.78435 1.66421 0
M  V30 2996 H 274.893 -2.47854 1.75506 0
M  V30 2997 H 272.478 -1.18012 0.916166 0
M  V30 2998 H 274.36 -4.21394 0.0216739 0
M  V30 2999 H 273.035 -3.18362 -0.585431 0
M  V30 3000 H 271.942 -3.318 1.72799 0
M  V30 3001 H 273.275 -4.37452 2.25602 0
M  V30 3002 N 274.927 -0.932562 -1.27047 0
M  V30 3003 C 276.173 -0.576412 -1.94436 0
M  V30 3004 C 276.506 0.880891 -1.73072 0
M  V30 3005 O 275.781 1.62905 -1.06264 0
M  V30 3006 C 276.064 -0.909031 -3.48437 0
M  V30 3007 C 275.917 -2.42044 -3.79123 0
M  V30 3008 C 277.236 -0.418341 -4.38107 0
M  V30 3009 H 274.355 -0.210888 -0.706184 0
M  V30 3010 H 276.997 -1.16522 -1.50075 0
M  V30 3011 H 275.147 -0.407947 -3.86352 0
M  V30 3012 H 276.819 -2.99359 -3.50973 0
M  V30 3013 H 275.062 -2.86758 -3.25503 0
M  V30 3014 H 275.733 -2.6037 -4.86736 0
M  V30 3015 H 278.209 -0.847856 -4.0737 0
M  V30 3016 H 277.085 -0.679981 -5.44672 0
M  V30 3017 H 277.346 0.681642 -4.36814 0
M  V30 3018 N 276.405 1.4127 -0.698611 0
M  V30 3019 C 277.651 2.01478 -0.231207 0
M  V30 3020 C 277.984 1.55215 1.16713 0
M  V30 3021 O 277.259 0.764672 1.78838 0
M  V30 3022 C 277.542 3.58912 -0.292281 0
M  V30 3023 C 277.395 4.15293 -1.72778 0
M  V30 3024 C 278.714 4.38736 0.346194 0
M  V30 3025 H 275.833 0.732025 -0.0854878 0
M  V30 3026 H 278.475 1.67977 -0.887906 0
M  V30 3027 H 276.625 3.87582 0.26686 0
M  V30 3028 H 278.297 3.97486 -2.341 0
M  V30 3029 H 276.54 3.7022 -2.26096 0
M  V30 3030 H 277.211 5.24452 -1.72202 0
M  V30 3031 H 279.687 4.15897 -0.130035 0
M  V30 3032 H 278.563 5.48221 0.272932 0
M  V30 3033 H 278.824 4.18425 1.42734 0
M  V30 3034 N 277.883 0.443576 1.51229 0
M  V30 3035 C 278.831 -0.37904 2.29491 0
M  V30 3036 C 279.825 -1.0153 1.35603 0
M  V30 3037 O 281.031 -0.94955 1.52917 0
M  V30 3038 H 277.406 -0.141053 0.738653 0
M  V30 3039 H 279.377 0.301799 2.9687 0
M  V30 3040 C 278.126 -1.46426 3.15364 0
M  V30 3041 H 277.449 -0.984037 3.87501 0
M  V30 3042 H 278.889 -2.01297 3.7317 0
M  V30 3043 C 277.348 -2.45099 2.31146 0
M  V30 3044 O 277.878 -3.49773 1.9754 0
M  V30 3045 N 276.084 -2.16139 1.94249 0
M  V30 3046 H 275.631 -1.31044 2.21777 0
M  V30 3047 H 275.589 -2.82398 1.38198 0
M  V30 3048 N 279.361 -1.56624 0.175154 0
M  V30 3049 C 280.309 -2.19468 -0.770495 0
M  V30 3050 C 281.303 -1.15985 -1.23466 0
M  V30 3051 O 282.509 -1.34176 -1.19987 0
M  V30 3052 H 278.884 -0.703095 -0.266761 0
M  V30 3053 H 280.855 -2.97613 -0.216542 0
M  V30 3054 C 279.604 -2.85264 -1.98796 0
M  V30 3055 H 278.927 -3.64623 -1.63983 0
M  V30 3056 H 280.367 -3.327 -2.62843 0
M  V30 3057 C 278.826 -1.85239 -2.81404 0
M  V30 3058 O 279.356 -1.34024 -3.78682 0
M  V30 3059 N 277.562 -1.53911 -2.46495 0
M  V30 3060 H 277.109 -1.95751 -1.67449 0
M  V30 3061 H 277.067 -0.872382 -3.02054 0
M  V30 3062 N 280.839 0.0985539 -1.57292 0
M  V30 3063 C 282.086 0.802678 -1.85912 0
M  V30 3064 C 282.414 1.78901 -0.763186 0
M  V30 3065 O 281.669 1.94178 0.243559 0
M  V30 3066 C 281.968 1.56927 -3.21105 0
M  V30 3067 C 281.634 0.725376 -4.45027 0
M  V30 3068 C 280.296 0.492726 -4.78671 0
M  V30 3069 C 282.648 0.138493 -5.21016 0
M  V30 3070 C 279.976 -0.336727 -5.85733 0
M  V30 3071 C 282.328 -0.678264 -6.28953 0
M  V30 3072 C 280.992 -0.921039 -6.61115 0
M  V30 3073 H 280.262 0.293721 -0.680301 0
M  V30 3074 H 282.909 0.0642841 -1.91392 0
M  V30 3075 H 281.214 2.37914 -3.11294 0
M  V30 3076 H 282.911 2.11841 -3.40477 0
M  V30 3077 H 279.501 0.916815 -4.18679 0
M  V30 3078 H 283.685 0.305404 -4.95359 0
M  V30 3079 H 278.941 -0.533836 -6.09065 0
M  V30 3080 H 283.115 -1.1399 -6.87007 0
M  V30 3081 H 280.742 -1.56556 -7.43905 0
M  V30 3082 N 282.317 1.53212 0.369288 0
M  V30 3083 C 283.545 1.73119 1.13303 0
M  V30 3084 C 283.96 0.458455 1.83149 0
M  V30 3085 O 283.317 -0.568403 1.73423 0
M  V30 3086 C 283.368 2.89413 2.16616 0
M  V30 3087 O 283.089 4.11761 1.49614 0
M  V30 3088 C 284.59 3.21161 3.05566 0
M  V30 3089 H 281.81 0.579107 0.338934 0
M  V30 3090 H 284.354 1.99942 0.429338 0
M  V30 3091 H 282.509 2.64994 2.82589 0
M  V30 3092 H 282.923 4.76858 2.18419 0
M  V30 3093 H 284.397 4.05949 3.74045 0
M  V30 3094 H 284.874 2.36369 3.70171 0
M  V30 3095 H 285.48 3.47492 2.45213 0
M  V30 3096 N 283.795 -0.628877 1.44509 0
M  V30 3097 C 285.206 -1.21054 1.42137 0
M  V30 3098 C 285.557 -1.95715 0.137881 0
M  V30 3099 O 284.682 -2.02554 -0.761645 0
M  V30 3100 C 285.277 -2.20189 2.57493 0
M  V30 3101 C 283.836 -2.73777 2.58308 0
M  V30 3102 C 282.983 -1.48813 2.33987 0
M  V30 3103 H 285.934 -0.41942 1.53057 0
M  V30 3104 H 285.955 -3.02833 2.30375 0
M  V30 3105 H 285.467 -1.6582 3.50892 0
M  V30 3106 H 283.568 -3.32142 1.68856 0
M  V30 3107 H 283.681 -3.19662 3.56865 0
M  V30 3108 H 282.045 -1.77024 1.83124 0
M  V30 3109 H 282.828 -0.963442 3.29504 0
M  V30 3110 N 285.273 -1.31445 -0.869486 0
M  V30 3111 C 286.522 -1.20517 -1.61736 0
M  V30 3112 C 286.835 0.235341 -1.94179 0
M  V30 3113 O 288.041 0.466312 -2.67465 0
M  V30 3114 C 286.497 -2.10982 -2.91573 0
M  V30 3115 C 286.105 -3.60032 -2.66611 0
M  V30 3116 C 287.849 -2.08856 -3.69567 0
M  V30 3117 C 285.756 -4.42503 -3.92358 0
M  V30 3118 H 284.686 -0.447493 -0.606849 0
M  V30 3119 H 287.337 -1.56303 -0.96133 0
M  V30 3120 H 285.719 -1.68095 -3.58553 0
M  V30 3121 H 286.893 -4.11167 -2.08035 0
M  V30 3122 H 285.208 -3.64139 -2.0197 0
M  V30 3123 H 287.805 -2.67716 -4.62852 0
M  V30 3124 H 288.148 -1.07582 -4.02159 0
M  V30 3125 H 288.681 -2.49945 -3.09471 0
M  V30 3126 H 285.42 -5.44533 -3.64916 0
M  V30 3127 H 284.94 -3.96125 -4.50383 0
M  V30 3128 H 286.619 -4.54741 -4.60238 0
M  V30 3129 N 286.751 1.08385 -1.14413 0
M  V30 3130 C 287.681 2.17321 -0.854044 0
M  V30 3131 C 288.662 1.69024 0.191049 0
M  V30 3132 O 289.847 1.94141 0.0476779 0
M  V30 3133 C 286.977 3.45719 -0.330983 0
M  V30 3134 C 285.931 4.07409 -1.31155 0
M  V30 3135 C 285.257 5.30762 -0.64778 0
M  V30 3136 C 286.557 4.48665 -2.67388 0
M  V30 3137 H 288.251 2.41845 -1.76498 0
M  V30 3138 H 285.797 1.16233 -0.850051 0
M  V30 3139 H 287.75 4.21241 -0.115645 0
M  V30 3140 H 286.474 3.2075 0.615381 0
M  V30 3141 H 285.133 3.33919 -1.51306 0
M  V30 3142 H 284.781 5.02078 0.304398 0
M  V30 3143 H 284.481 5.72992 -1.30207 0
M  V30 3144 H 286.005 6.08998 -0.441972 0
M  V30 3145 H 287.419 5.15364 -2.51143 0
M  V30 3146 H 285.816 5.01814 -3.29093 0
M  V30 3147 H 286.886 3.60543 -3.24248 0
M  V30 3148 N 288.23 0.939286 1.26551 0
M  V30 3149 C 289.162 0.404704 2.25599 0
M  V30 3150 C 290.175 -0.470983 1.55838 0
M  V30 3151 O 291.364 -0.281734 1.76263 0
M  V30 3152 C 288.464 -0.43764 3.36062 0
M  V30 3153 C 287.637 0.421449 4.35365 0
M  V30 3154 C 286.696 -0.36015 5.24966 0
M  V30 3155 O 285.722 0.236167 5.6871 0
M  V30 3156 N 286.924 -1.65715 5.56344 0
M  V30 3157 H 289.689 1.25618 2.72103 0
M  V30 3158 H 287.25 0.807963 1.40298 0
M  V30 3159 H 289.242 -0.967866 3.92956 0
M  V30 3160 H 287.812 -1.18991 2.89067 0
M  V30 3161 H 287.032 1.1329 3.7757 0
M  V30 3162 H 288.32 1.00835 4.98708 0
M  V30 3163 H 287.718 -2.16378 5.22682 0
M  V30 3164 H 286.275 -2.13366 6.15888 0
M  V30 3165 N 289.708 -1.40897 0.706093 0
M  V30 3166 C 290.985 -1.94868 0.169099 0
M  V30 3167 C 291.365 -1.64485 -1.32318 0
M  V30 3168 O 290.713 -0.95744 -2.07474 0
M  V30 3169 C 290.923 -3.45798 0.471654 0
M  V30 3170 C 292.271 -4.22663 0.405127 0
M  V30 3171 O 293.295 -3.53865 0.407168 0
M  V30 3172 O 292.154 -5.45216 0.374383 0
M  V30 3173 H 289.248 -0.82673 0.0211352 0
M  V30 3174 H 291.794 -1.50558 0.782976 0
M  V30 3175 H 290.566 -3.61235 1.50416 0
M  V30 3176 H 290.189 -3.97225 -0.172666 0
M  V30 3177 N 291.186 -0.45159 -1.50991 0
M  V30 3178 C 292.426 0.109066 -2.04109 0
M  V30 3179 C 292.79 1.38716 -1.32747 0
M  V30 3180 O 293.991 2.02896 -1.76314 0
M  V30 3181 C 292.262 0.308354 -3.56067 0
M  V30 3182 S 293.821 0.830369 -4.30872 0
M  V30 3183 H 290.639 0.0251531 -0.710555 0
M  V30 3184 H 293.241 -0.614264 -1.85599 0
M  V30 3185 H 291.945 -0.627962 -4.05567 0
M  V30 3186 H 291.476 1.05836 -3.78896 0
M  V30 3187 H 293.491 2.10626 -4.49279 0
M  V30 3188 N 292.664 1.56529 -0.183458 0
M  V30 3189 C 293.913 1.96419 0.458511 0
M  V30 3190 C 294.226 1.0727 1.63562 0
M  V30 3191 O 295.432 1.36893 2.34462 0
M  V30 3192 C 293.888 3.49298 0.867122 0
M  V30 3193 C 293.496 4.47092 -0.285057 0
M  V30 3194 C 295.24 3.97983 1.47683 0
M  V30 3195 C 293.147 5.91225 0.143862 0
M  V30 3196 H 292.077 0.733394 0.175071 0
M  V30 3197 H 294.728 1.81448 -0.273624 0
M  V30 3198 H 293.11 3.59731 1.65559 0
M  V30 3199 H 294.284 4.48383 -1.0625 0
M  V30 3200 H 292.599 4.08535 -0.805503 0
M  V30 3201 H 295.196 5.03134 1.80999 0
M  V30 3202 H 295.539 3.41618 2.37914 0
M  V30 3203 H 296.072 3.90617 0.752562 0
M  V30 3204 H 292.811 6.5149 -0.723974 0
M  V30 3205 H 292.331 5.93214 0.886413 0
M  V30 3206 H 294.01 6.44362 0.583628 0
M  V30 3207 N 294.142 -0.090211 1.57342 0
M  V30 3208 C 295.089 -1.10909 2.02405 0
M  V30 3209 C 296.059 -1.39523 0.901252 0
M  V30 3210 O 297.244 -1.50903 1.1676 0
M  V30 3211 C 294.384 -2.42277 2.45755 0
M  V30 3212 C 293.497 -2.20352 3.71576 0
M  V30 3213 C 292.632 -3.45154 4.03785 0
M  V30 3214 C 291.671 -3.18512 5.22701 0
M  V30 3215 N 290.808 -4.35593 5.50639 0
M  V30 3216 H 295.648 -0.71782 2.89225 0
M  V30 3217 H 293.185 -0.342901 1.43048 0
M  V30 3218 H 295.143 -3.18951 2.68935 0
M  V30 3219 H 293.773 -2.79242 1.61938 0
M  V30 3220 H 292.825 -1.34458 3.55844 0
M  V30 3221 H 294.137 -1.96661 4.58395 0
M  V30 3222 H 293.291 -4.30233 4.27767 0
M  V30 3223 H 292.03 -3.71904 3.15498 0
M  V30 3224 H 291.035 -2.31827 4.98534 0
M  V30 3225 H 292.26 -2.93103 6.12591 0
M  V30 3226 H 290.206 -4.6241 4.6531 0
M  V30 3227 H 290.123 -4.1511 6.31838 0
M  V30 3228 H 291.391 -5.21723 5.7916 0
M  V30 3229 N 295.62 -1.53406 -0.361157 0
M  V30 3230 C 296.568 -1.80832 -1.46296 0
M  V30 3231 C 297.562 -0.677699 -1.55253 0
M  V30 3232 O 298.768 -0.860723 -1.58087 0
M  V30 3233 H 295.143 -0.572627 -0.487445 0
M  V30 3234 H 297.114 -2.73045 -1.20371 0
M  V30 3235 C 295.863 -2.01907 -2.8307 0
M  V30 3236 H 295.186 -2.88349 -2.76938 0
M  V30 3237 H 296.626 -2.25072 -3.59331 0
M  V30 3238 C 295.085 -0.799449 -3.27277 0
M  V30 3239 O 295.615 0.00971761 -4.01699 0
M  V30 3240 N 293.821 -0.621637 -2.83873 0
M  V30 3241 H 293.368 -1.28126 -2.23476 0
M  V30 3242 H 293.326 0.19298 -3.13807 0
M  V30 3243 N 297.098 0.621204 -1.44841 0
M  V30 3244 C 298.347 1.37658 -1.47422 0
M  V30 3245 C 298.66 1.95264 -0.114629 0
M  V30 3246 O 299.866 2.71494 -0.0180199 0
M  V30 3247 C 298.322 2.49285 -2.59586 0
M  V30 3248 C 297.93 1.98149 -4.01797 0
M  V30 3249 C 299.674 3.26409 -2.71399 0
M  V30 3250 C 297.581 3.07178 -5.05367 0
M  V30 3251 H 296.511 0.517344 -0.548517 0
M  V30 3252 H 299.162 0.667257 -1.70938 0
M  V30 3253 H 297.544 3.22839 -2.29328 0
M  V30 3254 H 298.718 1.31395 -4.41669 0
M  V30 3255 H 297.033 1.33812 -3.94314 0
M  V30 3256 H 299.63 4.07706 -3.45948 0
M  V30 3257 H 299.973 3.76535 -1.77559 0
M  V30 3258 H 300.506 2.5995 -3.01116 0
M  V30 3259 H 297.245 2.61985 -6.00869 0
M  V30 3260 H 296.765 3.72542 -4.70077 0
M  V30 3261 H 298.444 3.71789 -5.29511 0
M  V30 3262 N 298.576 1.31904 0.862503 0
M  V30 3263 C 299.853 1.12644 1.59908 0
M  V30 3264 C 300.233 -0.316104 2.0872 0
M  V30 3265 O 299.581 -1.31145 1.87118 0
M  V30 3266 C 299.791 2.1472 2.7513 0
M  V30 3267 C 301.139 2.47637 3.44907 0
M  V30 3268 O 302.163 2.13205 2.85346 0
M  V30 3269 O 301.022 3.06632 4.52371 0
M  V30 3270 H 298.116 0.43416 0.703871 0
M  V30 3271 H 300.662 1.43408 0.907314 0
M  V30 3272 H 299.434 3.1172 2.3653 0
M  V30 3273 H 299.057 1.84905 3.51989 0
M  V30 3274 N 300.054 -1.07777 1.14986 0
M  V30 3275 C 301.47 -1.32373 0.891596 0
M  V30 3276 C 301.67 -1.9609 -0.463788 0
M  V30 3277 O 300.726 -2.21801 -1.20667 0
M  V30 3278 C 302.039 -2.21905 2.02925 0
M  V30 3279 C 303.587 -2.35367 2.06329 0
M  V30 3280 C 304.062 -3.28245 3.19405 0
M  V30 3281 N 305.553 -3.35824 3.19024 0
M  V30 3282 C 306.288 -4.07739 4.03158 0
M  V30 3283 N 305.784 -4.82306 4.97346 0
M  V30 3284 N 307.577 -4.03635 3.91197 0
M  V30 3285 H 299.728 -0.648039 2.02273 0
M  V30 3286 H 301.991 -0.348149 0.881757 0
M  V30 3287 H 301.697 -1.82342 3.0074 0
M  V30 3288 H 301.571 -3.22407 1.95789 0
M  V30 3289 H 303.958 -2.74186 1.09116 0
M  V30 3290 H 304.039 -1.34585 2.17533 0
M  V30 3291 H 303.683 -2.90146 4.16867 0
M  V30 3292 H 303.613 -4.28971 3.05437 0
M  V30 3293 H 306.104 -2.8267 2.50811 0
M  V30 3294 H 306.417 -5.34661 5.57994 0
M  V30 3295 H 304.762 -4.81337 5.01338 0
M  V30 3296 H 307.953 -3.44491 3.16928 0
M  V30 3297 H 308.126 -4.59417 4.5699 0
M  V30 3298 N 301.532 -0.945985 -1.26051 0
M  V30 3299 C 302.762 -0.612136 -1.97323 0
M  V30 3300 C 303.17 0.818171 -1.70595 0
M  V30 3301 O 302.513 1.55777 -0.973613 0
M  V30 3302 C 302.575 -0.780347 -3.50929 0
M  V30 3303 C 302.239 -2.18619 -4.01317 0
M  V30 3304 C 303.236 -3.16209 -4.12683 0
M  V30 3305 C 300.921 -2.50805 -4.35203 0
M  V30 3306 C 302.915 -4.44085 -4.57238 0
M  V30 3307 C 300.602 -3.78912 -4.79446 0
M  V30 3308 C 301.6 -4.75365 -4.90425 0
M  V30 3309 O 301.288 -6.01191 -5.3369 0
M  V30 3310 H 301.02 -0.229134 -0.635982 0
M  V30 3311 H 303.574 -1.27036 -1.61404 0
M  V30 3312 H 301.804 -0.0649864 -3.86645 0
M  V30 3313 H 303.493 -0.448842 -4.03411 0
M  V30 3314 H 304.259 -2.92668 -3.86744 0
M  V30 3315 H 300.138 -1.76463 -4.2589 0
M  V30 3316 H 303.682 -5.19373 -4.65723 0
M  V30 3317 H 299.579 -4.02265 -5.0483 0
M  V30 3318 H 300.347 -6.04442 -5.51899 0
M  V30 3319 N 303.011 1.40521 -0.713556 0
M  V30 3320 C 303.974 2.29098 -0.0684347 0
M  V30 3321 C 304.974 1.45268 0.689472 0
M  V30 3322 O 306.164 1.66205 0.521677 0
M  V30 3323 C 303.296 3.28446 0.913024 0
M  V30 3324 H 304.489 2.87645 -0.84855 0
M  V30 3325 H 302.042 1.48809 -0.47809 0
M  V30 3326 H 302.777 2.74913 1.72027 0
M  V30 3327 H 302.562 3.90327 0.372472 0
M  V30 3328 H 304.052 3.94777 1.36165 0
M  V30 3329 N 304.489 0.459591 1.5075 0
M  V30 3330 C 305.419 -0.330644 2.31147 0
M  V30 3331 C 306.4 -1.00087 1.37538 0
M  V30 3332 O 307.585 -1.00025 1.66459 0
M  V30 3333 C 304.715 -1.41958 3.16962 0
M  V30 3334 C 303.669 -0.871608 4.19031 0
M  V30 3335 C 302.995 -2.05797 4.9351 0
M  V30 3336 C 304.295 0.109251 5.22186 0
M  V30 3337 H 305.989 0.340336 2.97459 0
M  V30 3338 H 303.535 0.165119 1.4305 0
M  V30 3339 H 305.488 -1.9798 3.71997 0
M  V30 3340 H 304.212 -2.11917 2.48513 0
M  V30 3341 H 302.871 -0.333442 3.6508 0
M  V30 3342 H 302.519 -2.74427 4.21544 0
M  V30 3343 H 302.219 -1.6976 5.62544 0
M  V30 3344 H 303.743 -2.62331 5.51375 0
M  V30 3345 H 305.157 -0.361405 5.7216 0
M  V30 3346 H 303.554 0.383316 5.98875 0
M  V30 3347 H 304.624 1.03887 4.73641 0
M  V30 3348 N 305.967 -1.56429 0.191757 0
M  V30 3349 C 307.244 -1.89224 -0.495332 0
M  V30 3350 C 307.624 -1.10478 -1.79883 0
M  V30 3351 O 306.972 -0.204852 -2.2758 0
M  V30 3352 C 307.182 -3.41548 -0.717367 0
M  V30 3353 C 308.53 -4.11711 -1.03823 0
M  V30 3354 O 309.554 -3.4698 -0.805204 0
M  V30 3355 O 308.413 -5.2611 -1.47887 0
M  V30 3356 H 305.507 -0.785788 -0.25781 0
M  V30 3357 H 308.053 -1.68111 0.231721 0
M  V30 3358 H 306.825 -3.90772 0.203287 0
M  V30 3359 H 306.448 -3.68342 -1.497 0
M  V30 3360 N 307.445 0.0818655 -1.57387 0
M  V30 3361 C 308.722 0.815343 -1.77796 0
M  V30 3362 C 309.102 1.96289 -0.77679 0
M  V30 3363 O 308.45 2.27691 0.192106 0
M  V30 3364 C 308.66 1.29765 -3.23978 0
M  V30 3365 C 310.008 1.7351 -3.8753 0
M  V30 3366 O 311.032 1.39356 -3.27808 0
M  V30 3367 O 309.891 2.36708 -4.92576 0
M  V30 3368 H 306.985 0.389914 -0.729312 0
M  V30 3369 H 309.531 0.0627213 -1.69584 0
M  V30 3370 H 308.303 0.47608 -3.88393 0
M  V30 3371 H 307.926 2.11189 -3.36875 0
M  V30 3372 N 308.923 1.53595 0.353017 0
M  V30 3373 C 309.853 1.83902 1.43883 0
M  V30 3374 C 310.834 0.693421 1.55324 0
M  V30 3375 O 312.019 0.944452 1.69687 0
M  V30 3376 C 309.149 2.04016 2.8106 0
M  V30 3377 C 308.103 3.19814 2.84434 0
M  V30 3378 C 307.429 3.25244 4.24406 0
M  V30 3379 C 308.729 4.58133 2.50822 0
M  V30 3380 H 310.423 2.74835 1.1877 0
M  V30 3381 H 307.969 1.32242 0.569917 0
M  V30 3382 H 309.922 2.238 3.57059 0
M  V30 3383 H 308.646 1.09804 3.07588 0
M  V30 3384 H 307.305 2.9987 2.10887 0
M  V30 3385 H 306.953 2.28646 4.48029 0
M  V30 3386 H 306.653 4.03054 4.27576 0
M  V30 3387 H 308.177 3.47228 5.0226 0
M  V30 3388 H 309.591 4.77995 3.16534 0
M  V30 3389 H 307.988 5.38276 2.6529 0
M  V30 3390 H 309.058 4.62387 1.46034 0
M  V30 3391 N 310.401 -0.613514 1.45168 0
M  V30 3392 C 311.348 -1.72456 1.53387 0
M  V30 3393 C 312.318 -1.6169 0.380191 0
M  V30 3394 O 313.503 -1.81356 0.592836 0
M  V30 3395 C 310.643 -3.10753 1.50088 0
M  V30 3396 C 309.756 -3.32368 2.75963 0
M  V30 3397 C 308.891 -4.60737 2.64376 0
M  V30 3398 C 307.93 -4.7559 3.85332 0
M  V30 3399 N 307.067 -5.95253 3.72315 0
M  V30 3400 H 311.907 -1.64768 2.48305 0
M  V30 3401 H 309.444 -0.803503 1.23216 0
M  V30 3402 H 311.402 -3.90758 1.46164 0
M  V30 3403 H 310.032 -3.17413 0.587243 0
M  V30 3404 H 309.084 -2.4618 2.89999 0
M  V30 3405 H 310.396 -3.39218 3.65695 0
M  V30 3406 H 309.55 -5.48928 2.58385 0
M  V30 3407 H 308.289 -4.56275 1.72233 0
M  V30 3408 H 307.294 -3.85824 3.91688 0
M  V30 3409 H 308.519 -4.81854 4.78533 0
M  V30 3410 H 306.465 -5.91847 2.82937 0
M  V30 3411 H 306.382 -6.03236 4.55677 0
M  V30 3412 H 307.65 -6.85958 3.70246 0
M  V30 3413 N 311.879 -1.3236 -0.855495 0
M  V30 3414 C 313.104 -1.2601 -1.64731 0
M  V30 3415 C 313.529 0.169068 -1.87339 0
M  V30 3416 O 312.887 1.12016 -1.42556 0
M  V30 3417 C 312.935 -2.02417 -2.98429 0
M  V30 3418 O 312.039 -1.3714 -3.8893 0
M  V30 3419 H 311.38 -0.434325 -0.502253 0
M  V30 3420 H 313.91 -1.74661 -1.06558 0
M  V30 3421 H 313.92 -2.12559 -3.48257 0
M  V30 3422 H 312.595 -3.06343 -2.81295 0
M  V30 3423 H 311.172 -1.3554 -3.47395 0
M  V30 3424 N 313.357 1.07166 -1.15556 0
M  V30 3425 C 314.304 2.14417 -0.854055 0
M  V30 3426 C 315.274 1.64965 0.193806 0
M  V30 3427 O 316.459 1.90703 0.0609443 0
M  V30 3428 C 313.599 3.43304 -0.351574 0
M  V30 3429 C 312.712 4.06537 -1.46123 0
M  V30 3430 C 311.847 5.23266 -0.914677 0
M  V30 3431 C 310.886 5.78464 -2.00114 0
M  V30 3432 N 310.023 6.86521 -1.47083 0
M  V30 3433 H 314.863 2.39548 -1.77259 0
M  V30 3434 H 312.4 1.17543 -0.884425 0
M  V30 3435 H 314.358 4.17179 -0.0419409 0
M  V30 3436 H 312.988 3.18419 0.530037 0
M  V30 3437 H 312.04 3.30297 -1.88701 0
M  V30 3438 H 313.352 4.43567 -2.28144 0
M  V30 3439 H 312.506 6.04131 -0.557698 0
M  V30 3440 H 311.245 4.87658 -0.0636583 0
M  V30 3441 H 310.25 4.96243 -2.36692 0
M  V30 3442 H 311.475 6.16126 -2.85597 0
M  V30 3443 H 309.421 6.52849 -0.642198 0
M  V30 3444 H 309.338 7.22446 -2.22729 0
M  V30 3445 H 310.606 7.71087 -1.14215 0
M  V30 3446 N 314.835 0.952656 1.25548 0
M  V30 3447 C 315.798 0.475794 2.24207 0
M  V30 3448 C 316.798 -0.419428 1.55234 0
M  V30 3449 O 317.988 -0.216994 1.72843 0
M  V30 3450 C 315.12 -0.312814 3.39462 0
M  V30 3451 H 316.313 1.34779 2.67908 0
M  V30 3452 H 313.866 0.735739 1.37901 0
M  V30 3453 H 314.601 -1.20257 3.01179 0
M  V30 3454 H 314.386 0.329404 3.90714 0
M  V30 3455 H 315.876 -0.635986 4.12729 0
M  V30 3456 N 316.313 -1.40141 0.720998 0
M  V30 3457 C 317.243 -2.33339 0.0867621 0
M  V30 3458 C 318.224 -1.53178 -0.739622 0
M  V30 3459 O 319.409 -1.81625 -0.687449 0
M  V30 3460 C 316.539 -3.37194 -0.831728 0
M  V30 3461 C 315.493 -4.27857 -0.110558 0
M  V30 3462 C 314.819 -5.22294 -1.14513 0
M  V30 3463 C 316.119 -5.11872 1.0385 0
M  V30 3464 H 317.813 -2.86626 0.865219 0
M  V30 3465 H 315.359 -1.37814 0.417516 0
M  V30 3466 H 317.312 -4.01335 -1.28485 0
M  V30 3467 H 316.036 -2.82314 -1.64214 0
M  V30 3468 H 314.695 -3.65176 0.322797 0
M  V30 3469 H 314.343 -4.63717 -1.94874 0
M  V30 3470 H 314.043 -5.83797 -0.667446 0
M  V30 3471 H 315.567 -5.89312 -1.59824 0
M  V30 3472 H 316.981 -5.69436 0.664482 0
M  V30 3473 H 315.378 -5.82445 1.4449 0
M  V30 3474 H 316.448 -4.4753 1.86668 0
M  V30 3475 N 317.792 -0.46758 -1.50504 0
M  V30 3476 C 319.039 0.0886219 -2.02306 0
M  V30 3477 C 319.367 1.40037 -1.34981 0
M  V30 3478 O 318.622 1.90136 -0.463318 0
M  V30 3479 C 318.921 0.323995 -3.55928 0
M  V30 3480 C 318.587 -0.905618 -4.41712 0
M  V30 3481 C 317.249 -1.24275 -4.64875 0
M  V30 3482 C 319.601 -1.72448 -4.91845 0
M  V30 3483 C 316.929 -2.39888 -5.35417 0
M  V30 3484 C 319.281 -2.87185 -5.63656 0
M  V30 3485 C 317.945 -3.21317 -5.85074 0
M  V30 3486 H 317.215 0.0324291 -0.74029 0
M  V30 3487 H 319.862 -0.620945 -1.81153 0
M  V30 3488 H 318.167 1.11577 -3.75577 0
M  V30 3489 H 319.864 0.76826 -3.93572 0
M  V30 3490 H 316.454 -0.632956 -4.239 0
M  V30 3491 H 320.638 -1.4772 -4.73806 0
M  V30 3492 H 315.894 -2.66611 -5.50208 0
M  V30 3493 H 320.068 -3.50985 -6.01484 0
M  V30 3494 H 317.695 -4.1101 -6.39511 0
M  V30 3495 N 319.27 1.56325 -0.20005 0
M  V30 3496 C 320.218 2.20666 0.735482 0
M  V30 3497 C 321.212 1.17934 1.21605 0
M  V30 3498 O 322.418 1.36068 1.17837 0
M  V30 3499 H 318.793 0.70725 0.255542 0
M  V30 3500 H 320.764 2.9792 0.169166 0
M  V30 3501 C 319.513 2.88391 1.94232 0
M  V30 3502 H 318.836 3.67185 1.58161 0
M  V30 3503 H 320.276 3.3684 2.57517 0
M  V30 3504 C 318.735 1.89692 2.78421 0
M  V30 3505 O 319.265 1.40032 3.76502 0
M  V30 3506 N 317.471 1.57813 2.44015 0
M  V30 3507 H 317.018 1.9839 1.64314 0
M  V30 3508 H 316.976 0.920325 3.00628 0
M  V30 3509 N 320.748 -0.0735177 1.57428 0
M  V30 3510 C 321.994 -0.774145 1.87443 0
M  V30 3511 C 322.327 -1.77311 0.792103 0
M  V30 3512 O 321.602 -1.93492 -0.197793 0
M  V30 3513 C 321.885 -1.48367 3.28115 0
M  V30 3514 C 321.738 -0.501227 4.46999 0
M  V30 3515 C 323.057 -2.429 3.66998 0
M  V30 3516 H 320.176 -0.279971 0.681752 0
M  V30 3517 H 322.818 -0.0373616 1.89963 0
M  V30 3518 H 320.968 -2.11171 3.26097 0
M  V30 3519 H 322.64 0.121468 4.6114 0
M  V30 3520 H 320.883 0.183593 4.33411 0
M  V30 3521 H 321.554 -1.03526 5.42205 0
M  V30 3522 H 324.03 -1.90175 3.70098 0
M  V30 3523 H 322.906 -2.89549 4.66318 0
M  V30 3524 H 323.167 -3.27628 2.96837 0
M  V30 3525 N 322.226 -1.5378 -0.344866 0
M  V30 3526 C 323.156 -1.84662 -1.42906 0
M  V30 3527 C 324.137 -0.701648 -1.54955 0
M  V30 3528 O 325.322 -0.953438 -1.69184 0
M  V30 3529 C 322.452 -2.05503 -2.79974 0
M  V30 3530 C 321.406 -3.21318 -2.82734 0
M  V30 3531 C 320.732 -3.2749 -4.22675 0
M  V30 3532 C 322.032 -4.59456 -2.48389 0
M  V30 3533 H 323.726 -2.75461 -1.17311 0
M  V30 3534 H 321.272 -1.32542 -0.562896 0
M  V30 3535 H 323.225 -2.25691 -3.55867 0
M  V30 3536 H 321.949 -1.11434 -3.07002 0
M  V30 3537 H 320.608 -3.00984 -2.09294 0
M  V30 3538 H 320.256 -2.31019 -4.4681 0
M  V30 3539 H 319.956 -4.05316 -4.25433 0
M  V30 3540 H 321.48 -3.49887 -5.00412 0
M  V30 3541 H 322.894 -4.79667 -3.13995 0
M  V30 3542 H 321.291 -5.39675 -2.62432 0
M  V30 3543 H 322.361 -4.63155 -1.4358 0
M  V30 3544 N 323.704 0.605807 -1.45491 0
M  V30 3545 C 324.667 1.69836 -1.5391 0
M  V30 3546 C 325.667 1.55261 -0.418424 0
M  V30 3547 O 326.857 1.60296 -0.681965 0
M  V30 3548 C 323.989 3.09117 -1.43734 0
M  V30 3549 H 325.182 1.63738 -2.51257 0
M  V30 3550 H 322.735 0.821689 -1.32959 0
M  V30 3551 H 323.47 3.20791 -0.475788 0
M  V30 3552 H 323.255 3.21104 -2.25021 0
M  V30 3553 H 324.745 3.88696 -1.52661 0
M  V30 3554 N 325.182 1.32811 0.848464 0
M  V30 3555 C 326.145 1.22194 1.9391 0
M  V30 3556 C 327.145 0.143404 1.60159 0
M  V30 3557 O 328.335 0.394253 1.6968 0
M  V30 3558 C 325.467 0.88067 3.29328 0
M  V30 3559 H 326.66 2.19127 2.04752 0
M  V30 3560 H 324.213 1.16731 1.0394 0
M  V30 3561 H 324.948 -0.0865776 3.24184 0
M  V30 3562 H 324.733 1.66052 3.55203 0
M  V30 3563 H 326.223 0.830871 4.09251 0
M  V30 3564 N 326.66 -1.06551 1.16123 0
M  V30 3565 C 328.071 -1.60768 0.949232 0
M  V30 3566 C 328.422 -1.89523 -0.507508 0
M  V30 3567 O 327.547 -1.66671 -1.38021 0
M  V30 3568 C 328.142 -2.92086 1.71671 0
M  V30 3569 C 326.701 -3.43015 1.54977 0
M  V30 3570 C 325.848 -2.16947 1.72711 0
M  V30 3571 H 328.799 -0.895354 1.31031 0
M  V30 3572 H 328.82 -3.6138 1.19099 0
M  V30 3573 H 328.332 -2.71127 2.7769 0
M  V30 3574 H 326.433 -3.69039 0.513873 0
M  V30 3575 H 326.546 -4.18516 2.33198 0
M  V30 3576 H 324.91 -2.27041 1.15431 0
M  V30 3577 H 325.693 -1.98473 2.80113 0
M  V30 3578 N 328.138 -0.959301 -1.25041 0
M  V30 3579 C 329.366 -0.633949 -1.96948 0
M  V30 3580 C 329.781 0.794916 -1.7125 0
M  V30 3581 O 329.138 1.53231 -0.991287 0
M  V30 3582 C 329.189 -0.888805 -3.50403 0
M  V30 3583 O 328.91 -2.26149 -3.75218 0
M  V30 3584 C 330.411 -0.576482 -4.39536 0
M  V30 3585 H 327.631 -0.237263 -0.627652 0
M  V30 3586 H 330.175 -1.28495 -1.59089 0
M  V30 3587 H 328.33 -0.284145 -3.86357 0
M  V30 3588 H 328.744 -2.33514 -4.6965 0
M  V30 3589 H 330.218 -0.805314 -5.46094 0
M  V30 3590 H 330.695 0.489075 -4.36468 0
M  V30 3591 H 331.301 -1.16067 -4.09156 0
M  V30 3592 N 329.616 1.39756 -0.72842 0
M  V30 3593 C 330.846 2.04651 -0.283117 0
M  V30 3594 C 331.254 1.5502 1.08469 0
M  V30 3595 O 330.597 0.707343 1.69536 0
M  V30 3596 C 330.659 3.58947 -0.199309 0
M  V30 3597 C 330.323 4.31525 -1.5045 0
M  V30 3598 C 331.32 4.5861 -2.44894 0
M  V30 3599 C 329.005 4.70195 -1.76698 0
M  V30 3600 C 330.999 5.23366 -3.63822 0
M  V30 3601 C 328.686 5.3468 -2.95906 0
M  V30 3602 C 329.684 5.61198 -3.89289 0
M  V30 3603 O 329.372 6.24347 -5.06404 0
M  V30 3604 H 329.104 0.664777 -0.122666 0
M  V30 3605 H 331.658 1.79913 -0.990987 0
M  V30 3606 H 329.888 3.82556 0.56461 0
M  V30 3607 H 331.577 4.0534 0.213125 0
M  V30 3608 H 332.343 4.29187 -2.25883 0
M  V30 3609 H 328.222 4.48916 -1.04859 0
M  V30 3610 H 331.766 5.4398 -4.36728 0
M  V30 3611 H 327.663 5.63524 -3.14819 0
M  V30 3612 H 328.431 6.42842 -5.06652 0
M  V30 3613 N 331.094 0.475555 1.50254 0
M  V30 3614 C 332.371 -0.139685 1.95101 0
M  V30 3615 C 332.751 -1.56555 1.41611 0
M  V30 3616 O 332.099 -2.19956 0.618993 0
M  V30 3617 C 332.309 -0.0784298 3.48912 0
M  V30 3618 C 333.657 -0.265095 4.23772 0
M  V30 3619 O 334.681 -0.154808 3.55863 0
M  V30 3620 O 333.54 -0.488327 5.44314 0
M  V30 3621 H 330.634 -0.109236 0.819754 0
M  V30 3622 H 333.18 0.536276 1.61004 0
M  V30 3623 H 331.952 0.916918 3.80405 0
M  V30 3624 H 331.575 -0.795655 3.89558 0
M  V30 3625 N 332.573 -1.56217 0.208337 0
M  V30 3626 C 333.822 -1.97124 -0.427204 0
M  V30 3627 C 334.135 -1.09859 -1.61835 0
M  V30 3628 O 335.341 -1.40606 -2.32255 0
M  V30 3629 C 333.797 -3.50633 -0.811442 0
M  V30 3630 C 333.405 -4.46582 0.35615 0
M  V30 3631 C 335.149 -4.00282 -1.41332 0
M  V30 3632 C 333.056 -5.91379 -0.0497852 0
M  V30 3633 H 331.986 -0.736086 -0.163381 0
M  V30 3634 H 334.637 -1.8099 0.302456 0
M  V30 3635 H 333.019 -3.62319 -1.59815 0
M  V30 3636 H 334.193 -4.46636 1.1337 0
M  V30 3637 H 332.508 -4.07202 0.870396 0
M  V30 3638 H 335.105 -5.0595 -1.72972 0
M  V30 3639 H 335.448 -3.45359 -2.32449 0
M  V30 3640 H 335.981 -3.91764 -0.690323 0
M  V30 3641 H 332.72 -6.50255 0.827529 0
M  V30 3642 H 332.24 -5.94549 -0.791926 0
M  V30 3643 H 333.919 -6.45209 -0.481042 0
M  V30 3644 N 334.051 0.0651679 -1.57465 0
M  V30 3645 C 335.279 0.775808 -1.91804 0
M  V30 3646 C 335.694 1.70782 -0.804916 0
M  V30 3647 O 335.051 1.81153 0.221311 0
M  V30 3648 C 335.102 1.56381 -3.25925 0
M  V30 3649 O 334.823 0.669248 -4.32958 0
M  V30 3650 C 336.324 2.37485 -3.7432 0
M  V30 3651 H 333.544 0.2202 -0.63384 0
M  V30 3652 H 336.088 0.0334587 -2.04473 0
M  V30 3653 H 334.243 2.25837 -3.14764 0
M  V30 3654 H 334.657 1.21801 -5.10162 0
M  V30 3655 H 336.131 2.88223 -4.70778 0
M  V30 3656 H 336.608 3.17307 -3.03666 0
M  V30 3657 H 337.214 1.73173 -3.88447 0
M  V30 3658 N 335.529 1.53961 0.336706 0
M  V30 3659 C 336.439 1.85432 1.43708 0
M  V30 3660 C 337.455 0.745053 1.57242 0
M  V30 3661 O 338.631 1.03804 1.72588 0
M  V30 3662 C 335.696 2.06349 2.78605 0
M  V30 3663 C 334.757 3.30191 2.74358 0
M  V30 3664 C 333.99 3.50101 4.02822 0
M  V30 3665 O 334.213 2.7371 5.00439 0
M  V30 3666 O 333.147 4.43547 4.06878 0
M  V30 3667 H 336.973 2.78975 1.20028 0
M  V30 3668 H 334.558 1.39701 0.52952 0
M  V30 3669 H 336.44 2.21513 3.58483 0
M  V30 3670 H 335.115 1.15995 3.02203 0
M  V30 3671 H 334.022 3.20425 1.93078 0
M  V30 3672 H 335.355 4.2056 2.55715 0
M  V30 3673 N 337.007 -0.598083 1.45811 0
M  V30 3674 C 338.237 -1.38121 1.53643 0
M  V30 3675 C 338.645 -1.88425 0.171081 0
M  V30 3676 O 337.988 -1.63409 -0.839237 0
M  V30 3677 C 338.05 -2.61432 2.46766 0
M  V30 3678 C 337.714 -2.32702 3.93318 0
M  V30 3679 C 338.711 -1.92479 4.82957 0
M  V30 3680 C 336.396 -2.45321 4.38318 0
M  V30 3681 C 338.39 -1.65248 6.15607 0
M  V30 3682 C 336.077 -2.17703 5.71007 0
M  V30 3683 C 337.075 -1.7773 6.5947 0
M  V30 3684 O 336.763 -1.50441 7.89698 0
M  V30 3685 H 336.495 -0.428863 0.522544 0
M  V30 3686 H 339.049 -0.73557 1.91777 0
M  V30 3687 H 337.279 -3.28749 2.0362 0
M  V30 3688 H 338.968 -3.23487 2.45175 0
M  V30 3689 H 339.734 -1.82258 4.49452 0
M  V30 3690 H 335.613 -2.75399 3.69697 0
M  V30 3691 H 339.157 -1.33973 6.84614 0
M  V30 3692 H 335.054 -2.27544 6.04065 0
M  V30 3693 H 335.822 -1.64415 8.01817 0
M  V30 3694 N 338.485 -1.33259 -0.841409 0
M  V30 3695 C 339.415 -1.25926 -1.96634 0
M  V30 3696 C 340.396 -0.140349 -1.6952 0
M  V30 3697 O 341.581 -0.329707 -1.91381 0
M  V30 3698 C 338.711 -0.99512 -3.32738 0
M  V30 3699 C 337.665 -2.0767 -3.74242 0
M  V30 3700 C 336.991 -1.66474 -5.08125 0
M  V30 3701 C 338.291 -3.49318 -3.88297 0
M  V30 3702 H 339.985 -2.20046 -2.03027 0
M  V30 3703 H 337.531 -1.05931 -0.975425 0
M  V30 3704 H 339.484 -0.930323 -4.11002 0
M  V30 3705 H 338.208 -0.0183004 -3.26595 0
M  V30 3706 H 336.867 -2.13187 -2.98239 0
M  V30 3707 H 336.515 -0.675012 -4.9845 0
M  V30 3708 H 336.215 -2.3885 -5.36865 0
M  V30 3709 H 337.739 -1.61455 -5.88867 0
M  V30 3710 H 339.153 -3.46316 -4.56879 0
M  V30 3711 H 337.55 -4.20158 -4.28471 0
M  V30 3712 H 338.62 -3.8801 -2.9082 0
M  V30 3713 N 339.963 1.05934 -1.16686 0
M  V30 3714 C 341.379 1.30938 -0.912542 0
M  V30 3715 C 341.579 1.96803 0.432533 0
M  V30 3716 O 340.635 2.23693 1.17123 0
M  V30 3717 C 341.948 2.18649 -2.06429 0
M  V30 3718 C 343.496 2.32055 -2.10047 0
M  V30 3719 C 343.971 3.23122 -3.24586 0
M  V30 3720 N 345.462 3.30706 -3.24327 0
M  V30 3721 C 346.197 4.01273 -4.09594 0
M  V30 3722 N 345.693 4.74332 -5.04956 0
M  V30 3723 N 347.486 3.97361 -3.97569 0
M  V30 3724 H 339.637 0.615777 -2.03278 0
M  V30 3725 H 341.9 0.334077 -0.887185 0
M  V30 3726 H 341.606 1.77534 -3.03603 0
M  V30 3727 H 341.48 3.19252 -2.00894 0
M  V30 3728 H 343.867 2.72415 -1.13464 0
M  V30 3729 H 343.948 1.31107 -2.19647 0
M  V30 3730 H 343.592 2.83477 -4.2143 0
M  V30 3731 H 343.522 4.24057 -3.12223 0
M  V30 3732 H 346.013 2.78644 -2.55276 0
M  V30 3733 H 346.326 5.25716 -5.6643 0
M  V30 3734 H 344.671 4.733 -5.08933 0
M  V30 3735 H 347.862 3.39405 -3.22369 0
M  V30 3736 H 348.035 4.52089 -4.64241 0
M  V30 3737 N 341.441 0.965919 1.2453 0
M  V30 3738 C 342.404 0.499547 2.2369 0
M  V30 3739 C 343.404 -0.40294 1.5567 0
M  V30 3740 O 344.594 -0.19865 1.73064 0
M  V30 3741 C 341.726 -0.276792 3.39774 0
M  V30 3742 H 342.919 1.37613 2.66463 0
M  V30 3743 H 340.472 0.750324 1.37112 0
M  V30 3744 H 341.207 -1.17055 3.02438 0
M  V30 3745 H 340.992 0.370826 3.90343 0
M  V30 3746 H 342.482 -0.592175 4.1338 0
M  V30 3747 N 342.919 -1.39368 0.735821 0
M  V30 3748 C 344.147 -2.04795 0.294393 0
M  V30 3749 C 344.562 -1.55478 -1.07107 0
M  V30 3750 O 343.919 -0.720038 -1.67695 0
M  V30 3751 C 343.97 -3.6035 0.288071 0
M  V30 3752 O 343.691 -4.07852 1.59963 0
M  V30 3753 C 345.192 -4.42976 -0.169422 0
M  V30 3754 H 342.412 -0.658571 0.128551 0
M  V30 3755 H 344.956 -1.78399 0.999701 0
M  V30 3756 H 343.111 -3.85645 -0.368355 0
M  V30 3757 H 343.525 -5.02181 1.51375 0
M  V30 3758 H 344.999 -5.51864 -0.122687 0
M  V30 3759 H 345.476 -4.22068 -1.21472 0
M  V30 3760 H 346.082 -4.22832 0.457469 0
M  V30 3761 N 344.397 -0.483516 -1.5 0
M  V30 3762 C 345.344 0.304164 -2.28787 0
M  V30 3763 C 346.314 0.976114 -1.34392 0
M  V30 3764 O 347.499 0.986156 -1.63339 0
M  V30 3765 C 344.639 1.37298 -3.16612 0
M  V30 3766 C 343.752 0.714561 -4.26049 0
M  V30 3767 C 342.887 1.76232 -5.01114 0
M  V30 3768 C 341.926 1.08483 -6.0241 0
M  V30 3769 N 341.063 2.076 -6.70706 0
M  V30 3770 H 345.903 -0.373981 -2.95644 0
M  V30 3771 H 343.44 -0.196275 -1.45785 0
M  V30 3772 H 345.398 2.00445 -3.65893 0
M  V30 3773 H 344.028 2.02012 -2.51776 0
M  V30 3774 H 343.08 -0.0297798 -3.80388 0
M  V30 3775 H 344.392 0.180383 -4.98474 0
M  V30 3776 H 343.546 2.46929 -5.54176 0
M  V30 3777 H 342.285 2.33033 -4.28424 0
M  V30 3778 H 341.29 0.363545 -5.48597 0
M  V30 3779 H 342.515 0.523551 -6.77079 0
M  V30 3780 H 340.461 2.63394 -6.00799 0
M  V30 3781 H 340.378 1.59201 -7.39047 0
M  V30 3782 H 341.646 2.77639 -7.2838 0
M  V30 3783 N 345.875 1.56104 -0.216619 0
M  V30 3784 C 346.785 2.23694 0.706982 0
M  V30 3785 C 347.801 1.24295 1.21765 0
M  V30 3786 O 348.977 1.57094 1.2603 0
M  V30 3787 C 346.042 2.8998 1.90033 0
M  V30 3788 C 345.103 4.04708 1.43213 0
M  V30 3789 C 344.336 4.67824 2.56859 0
M  V30 3790 O 344.559 4.29913 3.74874 0
M  V30 3791 O 343.493 5.56905 2.28343 0
M  V30 3792 H 347.319 3.03272 0.161235 0
M  V30 3793 H 344.904 1.49394 0.0136177 0
M  V30 3794 H 346.786 3.31837 2.59735 0
M  V30 3795 H 345.461 2.13365 2.43428 0
M  V30 3796 H 344.368 3.6743 0.70327 0
M  V30 3797 H 345.701 4.83051 0.944615 0
M  V30 3798 N 347.353 -0.0568162 1.57498 0
M  V30 3799 C 348.3 -1.06591 2.04712 0
M  V30 3800 C 349.27 -1.3758 0.930644 0
M  V30 3801 O 350.455 -1.48392 1.19935 0
M  V30 3802 C 347.595 -2.3701 2.50839 0
M  V30 3803 C 346.708 -2.12421 3.76167 0
M  V30 3804 C 345.843 -3.36511 4.11015 0
M  V30 3805 C 344.882 -3.07353 5.2934 0
M  V30 3806 N 344.019 -4.23816 5.59754 0
M  V30 3807 H 348.859 -0.65631 2.90683 0
M  V30 3808 H 346.396 -0.312481 1.43743 0
M  V30 3809 H 348.354 -3.13175 2.7564 0
M  V30 3810 H 346.984 -2.75744 1.67825 0
M  V30 3811 H 346.036 -1.2688 3.58616 0
M  V30 3812 H 347.348 -1.86894 4.62463 0
M  V30 3813 H 346.502 -4.21062 4.36797 0
M  V30 3814 H 345.241 -3.65128 3.23315 0
M  V30 3815 H 344.246 -2.212 5.03339 0
M  V30 3816 H 345.471 -2.80043 6.1867 0
M  V30 3817 H 343.417 -4.52436 4.75014 0
M  V30 3818 H 343.334 -4.01614 6.40501 0
M  V30 3819 H 344.602 -5.0932 5.90096 0
M  V30 3820 N 348.832 -1.54138 -0.328536 0
M  V30 3821 C 350.243 -1.63395 -0.903272 0
M  V30 3822 C 350.594 -0.524828 -1.8905 0
M  V30 3823 O 349.719 0.343068 -2.13663 0
M  V30 3824 C 350.314 -2.9618 -1.64507 0
M  V30 3825 C 348.873 -3.0765 -2.1686 0
M  V30 3826 C 348.02 -2.58933 -0.992416 0
M  V30 3827 H 350.971 -1.58344 -0.106253 0
M  V30 3828 H 350.992 -2.86061 -2.50897 0
M  V30 3829 H 350.504 -3.76884 -0.926302 0
M  V30 3830 H 348.605 -2.31611 -2.91868 0
M  V30 3831 H 348.718 -4.1337 -2.42202 0
M  V30 3832 H 347.082 -2.14706 -1.37016 0
M  V30 3833 H 347.865 -3.42089 -0.288041 0
M  V30 3834 N 350.31 0.590341 -1.46126 0
M  V30 3835 C 351.22 1.72793 -1.58681 0
M  V30 3836 C 352.236 1.67516 -0.470566 0
M  V30 3837 O 353.412 1.87562 -0.733642 0
M  V30 3838 C 350.477 3.09287 -1.5666 0
M  V30 3839 C 349.538 3.25886 -2.79458 0
M  V30 3840 C 348.771 4.55869 -2.77524 0
M  V30 3841 O 348.994 5.3928 -1.85832 0
M  V30 3842 O 347.928 4.75552 -3.68964 0
M  V30 3843 H 351.754 1.65149 -2.54872 0
M  V30 3844 H 349.339 0.756486 -1.28832 0
M  V30 3845 H 351.221 3.90577 -1.58202 0
M  V30 3846 H 349.896 3.17385 -0.636271 0
M  V30 3847 H 348.803 2.44119 -2.83472 0
M  V30 3848 H 350.136 3.22675 -3.71674 0
M  V30 3849 N 351.788 1.33704 0.83433 0
M  V30 3850 C 352.736 1.24323 1.96587 0
M  V30 3851 C 353.73 0.143659 1.6879 0
M  V30 3852 O 354.936 0.30791 1.77347 0
M  V30 3853 H 351.311 0.385925 0.645419 0
M  V30 3854 H 353.282 2.19978 2.01624 0
M  V30 3855 C 352.031 1.00394 3.32891 0
M  V30 3856 H 351.354 1.84231 3.54822 0
M  V30 3857 H 352.794 0.97862 4.12552 0
M  V30 3858 C 351.253 -0.293047 3.35623 0
M  V30 3859 O 351.783 -1.29823 3.80143 0
M  V30 3860 N 349.989 -0.322174 2.88809 0
M  V30 3861 H 349.536 0.496379 2.52772 0
M  V30 3862 H 349.494 -1.18977 2.91019 0
M  V30 3863 N 353.266 -1.05314 1.17247 0
M  V30 3864 C 354.494 -1.81971 0.984593 0
M  V30 3865 C 354.909 -1.82929 -0.467166 0
M  V30 3866 O 354.266 -1.25564 -1.32438 0
M  V30 3867 C 354.317 -3.28143 1.51672 0
M  V30 3868 O 354.038 -3.27347 2.91163 0
M  V30 3869 C 355.539 -4.21493 1.37326 0
M  V30 3870 H 352.759 -0.573455 0.348411 0
M  V30 3871 H 355.303 -1.32808 1.55506 0
M  V30 3872 H 353.458 -3.74582 0.988302 0
M  V30 3873 H 353.872 -4.18824 3.15732 0
M  V30 3874 H 355.346 -5.22043 1.79375 0
M  V30 3875 H 355.823 -4.38031 0.320169 0
M  V30 3876 H 356.429 -3.80909 1.89178 0
M  V30 3877 N 354.744 -0.972509 -1.24016 0
M  V30 3878 C 356.155 -0.67517 -1.74064 0
M  V30 3879 C 356.506 0.808939 -1.78747 0
M  V30 3880 O 355.631 1.63286 -1.42009 0
M  V30 3881 C 356.226 -1.21889 -3.16115 0
M  V30 3882 C 354.785 -0.971358 -3.6365 0
M  V30 3883 C 353.932 -1.35134 -2.42145 0
M  V30 3884 H 356.883 -1.14727 -1.09651 0
M  V30 3885 H 356.904 -0.587489 -3.75937 0
M  V30 3886 H 356.416 -2.29906 -3.12674 0
M  V30 3887 H 354.517 0.0930686 -3.72484 0
M  V30 3888 H 354.63 -1.62039 -4.50866 0
M  V30 3889 H 352.994 -0.769751 -2.4279 0
M  V30 3890 H 353.777 -2.4411 -2.41381 0
M  V30 3891 N 356.222 1.38976 -0.743202 0
M  V30 3892 C 357.468 2.01114 -0.304109 0
M  V30 3893 C 357.823 1.57929 1.09892 0
M  V30 3894 O 357.116 0.801983 1.74008 0
M  V30 3895 C 357.31 3.55647 -0.353517 0
M  V30 3896 C 357.139 4.13837 -1.75981 0
M  V30 3897 C 355.909 4.46062 -2.37395 0
M  V30 3898 C 358.107 4.36812 -2.71477 0
M  V30 3899 N 356.089 4.898 -3.70093 0
M  V30 3900 C 357.46 4.82844 -3.88923 0
M  V30 3901 C 359.515 4.18893 -2.69134 0
M  V30 3902 C 358.218 5.12837 -5.04371 0
M  V30 3903 C 360.244 4.50005 -3.83731 0
M  V30 3904 C 359.606 4.96251 -4.99914 0
M  V30 3905 H 355.705 0.765931 -0.157716 0
M  V30 3906 H 358.289 1.68763 -0.970931 0
M  V30 3907 H 356.46 3.87368 0.282987 0
M  V30 3908 H 358.192 4.04564 0.104904 0
M  V30 3909 H 354.947 4.34145 -1.89248 0
M  V30 3910 H 355.371 5.16016 -4.38242 0
M  V30 3911 H 360.013 3.82335 -1.80499 0
M  V30 3912 H 357.731 5.48297 -5.9363 0
M  V30 3913 H 361.317 4.37755 -3.83225 0
M  V30 3914 H 360.197 5.19867 -5.87118 0
M  V30 3915 N 357.7 0.491464 1.49741 0
M  V30 3916 C 358.93 -0.0534375 2.06531 0
M  V30 3917 C 359.338 -1.32233 1.35318 0
M  V30 3918 O 358.681 -1.78781 0.422243 0
M  V30 3919 C 358.743 -0.387034 3.57411 0
M  V30 3920 C 358.407 0.782764 4.50246 0
M  V30 3921 C 359.404 1.67059 4.92329 0
M  V30 3922 C 357.089 0.978866 4.9267 0
M  V30 3923 C 359.083 2.73874 5.75562 0
M  V30 3924 C 356.77 2.05022 5.75682 0
M  V30 3925 C 357.768 2.92851 6.17031 0
M  V30 3926 O 357.456 3.98138 6.98385 0
M  V30 3927 H 357.188 0.0129324 0.675876 0
M  V30 3928 H 359.742 0.685238 1.93633 0
M  V30 3929 H 357.972 -1.17918 3.68283 0
M  V30 3930 H 359.661 -0.869419 3.96479 0
M  V30 3931 H 360.427 1.53086 4.60206 0
M  V30 3932 H 356.306 0.304646 4.59992 0
M  V30 3933 H 359.85 3.42458 6.07757 0
M  V30 3934 H 355.747 2.18993 6.07217 0
M  V30 3935 H 356.515 3.95374 7.16674 0
M  V30 3936 N 359.178 -1.55987 0.224894 0
M  V30 3937 C 360.426 -1.97998 -0.405099 0
M  V30 3938 C 360.747 -1.11387 -1.60056 0
M  V30 3939 O 360.017 -0.191645 -1.9496 0
M  V30 3940 H 358.597 -0.731235 -0.152658 0
M  V30 3941 H 361.259 -1.92279 0.318567 0
M  V30 3942 H 360.355 -3.03463 -0.729167 0
M  V30 3943 N 360.656 0.0484629 -1.57525 0
M  V30 3944 C 361.603 1.05504 -2.05275 0
M  V30 3945 C 362.573 1.37084 -0.937927 0
M  V30 3946 O 363.758 1.47754 -1.2072 0
M  V30 3947 C 360.898 2.35676 -2.52093 0
M  V30 3948 C 360.011 2.10423 -3.77288 0
M  V30 3949 C 359.146 3.34327 -4.12794 0
M  V30 3950 C 358.185 3.04542 -5.30962 0
M  V30 3951 N 357.322 4.20841 -5.61994 0
M  V30 3952 H 362.162 0.640885 -2.91027 0
M  V30 3953 H 359.699 0.304854 -1.43906 0
M  V30 3954 H 361.657 3.11709 -2.77297 0
M  V30 3955 H 360.287 2.7485 -1.69285 0
M  V30 3956 H 359.339 1.24976 -3.59284 0
M  V30 3957 H 360.651 1.84438 -4.63448 0
M  V30 3958 H 359.805 4.1874 -4.39024 0
M  V30 3959 H 358.544 3.63408 -3.25247 0
M  V30 3960 H 357.549 2.18528 -5.04505 0
M  V30 3961 H 358.774 2.76758 -6.20146 0
M  V30 3962 H 356.72 4.4991 -4.77406 0
M  V30 3963 H 356.637 3.98212 -6.42622 0
M  V30 3964 H 357.905 5.06184 -5.92789 0
M  V30 3965 N 362.134 1.5431 0.320358 0
M  V30 3966 C 363.383 1.7188 1.05546 0
M  V30 3967 C 363.696 0.501143 1.89071 0
M  V30 3968 O 364.902 0.558258 2.65699 0
M  V30 3969 C 363.358 3.04025 1.92605 0
M  V30 3970 C 362.966 4.33207 1.14176 0
M  V30 3971 C 364.71 3.30959 2.65832 0
M  V30 3972 C 362.617 5.56412 2.00399 0
M  V30 3973 H 361.547 0.640547 0.397763 0
M  V30 3974 H 364.198 1.80802 0.313522 0
M  V30 3975 H 362.58 2.89019 2.7071 0
M  V30 3976 H 363.754 4.58989 0.40819 0
M  V30 3977 H 362.069 4.13062 0.526165 0
M  V30 3978 H 364.666 4.20203 3.30656 0
M  V30 3979 H 365.009 2.48979 3.33639 0
M  V30 3980 H 365.542 3.46847 1.94787 0
M  V30 3981 H 362.281 6.41004 1.37094 0
M  V30 3982 H 361.801 5.34844 2.7148 0
M  V30 3983 H 363.48 5.92938 2.58908 0
M  V30 3984 N 363.613 -0.582584 1.46437 0
M  V30 3985 C 364.89 -1.34276 1.4223 0
M  V30 3986 C 365.27 -2.10835 0.10583 0
M  V30 3987 O 364.618 -2.09485 -0.912596 0
M  V30 3988 C 364.828 -2.26865 2.65204 0
M  V30 3989 C 366.176 -2.88691 3.11356 0
M  V30 3990 O 367.2 -2.37178 2.65753 0
M  V30 3991 O 366.059 -3.82255 3.90568 0
M  V30 3992 H 363.153 -0.603326 0.565621 0
M  V30 3993 H 365.699 -0.603591 1.58603 0
M  V30 3994 H 364.471 -1.69724 3.52576 0
M  V30 3995 H 364.094 -3.08122 2.5129 0
M  V30 3996 N 365.091 -1.34144 -0.827227 0
M  V30 3997 C 366.339 -1.26009 -1.58007 0
M  V30 3998 C 366.66 0.170971 -1.94249 0
M  V30 3999 O 365.93 1.10256 -1.61927 0
M  V30 4000 H 364.51 -0.463414 -0.585881 0
M  V30 4001 H 367.172 -1.68005 -0.987951 0
M  V30 4002 H 366.268 -1.86187 -2.50481 0
M  V30 4003 N 366.569 1.04691 -1.17803 0
M  V30 4004 C 367.816 1.77782 -0.969532 0
M  V30 4005 C 368.144 1.87926 0.501401 0
M  V30 4006 O 367.399 1.37918 1.38842 0
M  V30 4007 C 367.698 3.21467 -1.56186 0
M  V30 4008 C 367.364 3.3137 -3.05786 0
M  V30 4009 C 366.026 3.3378 -3.46619 0
M  V30 4010 C 368.378 3.31976 -4.01797 0
M  V30 4011 C 365.706 3.34431 -4.82051 0
M  V30 4012 C 368.058 3.34167 -5.37136 0
M  V30 4013 C 366.722 3.34866 -5.77426 0
M  V30 4014 H 365.992 0.650549 -0.354777 0
M  V30 4015 H 368.639 1.23006 -1.46772 0
M  V30 4016 H 366.944 3.79203 -0.985515 0
M  V30 4017 H 368.641 3.76652 -1.37602 0
M  V30 4018 H 365.231 3.3021 -2.73238 0
M  V30 4019 H 369.415 3.29311 -3.71306 0
M  V30 4020 H 364.671 3.33285 -5.12573 0
M  V30 4021 H 368.845 3.33585 -6.11305 0
M  V30 4022 H 366.472 3.35124 -6.82346 0
M  V30 4023 N 368.047 0.979072 1.23499 0
M  V30 4024 C 369.296 0.642751 1.91185 0
M  V30 4025 C 369.609 -0.827253 1.77245 0
M  V30 4026 O 370.815 -1.27458 2.39722 0
M  V30 4027 C 369.271 1.09901 3.42709 0
M  V30 4028 C 368.879 2.59327 3.65313 0
M  V30 4029 C 370.623 0.836371 4.16179 0
M  V30 4030 C 368.53 2.98627 5.10467 0
M  V30 4031 H 367.46 0.236698 0.715884 0
M  V30 4032 H 370.111 1.1868 1.39955 0
M  V30 4033 H 368.493 0.48319 3.93041 0
M  V30 4034 H 369.667 3.26136 3.25533 0
M  V30 4035 H 367.982 2.83323 3.05151 0
M  V30 4036 H 370.579 1.10586 5.23139 0
M  V30 4037 H 370.922 -0.227509 4.15678 0
M  V30 4038 H 371.455 1.41371 3.71832 0
M  V30 4039 H 368.194 4.04133 5.16098 0
M  V30 4040 H 367.714 2.3651 5.51201 0
M  V30 4041 H 369.393 2.89159 5.78788 0
M  V30 4042 N 369.525 -1.3858 0.750561 0
M  V30 4043 C 370.473 -2.32339 0.110162 0
M  V30 4044 C 371.467 -1.53864 -0.708674 0
M  V30 4045 O 372.673 -1.69417 -0.608112 0
M  V30 4046 H 369.048 -0.751812 0.0168275 0
M  V30 4047 H 371.019 -2.83959 0.917053 0
M  V30 4048 C 369.768 -3.39043 -0.771067 0
M  V30 4049 H 369.091 -3.99517 -0.150374 0
M  V30 4050 H 370.531 -4.07061 -1.1865 0
M  V30 4051 C 368.99 -2.77365 -1.91234 0
M  V30 4052 O 369.52 -2.66434 -3.00626 0
M  V30 4053 N 367.726 -2.35219 -1.70646 0
M  V30 4054 H 367.273 -2.4431 -0.81673 0
M  V30 4055 H 367.231 -1.94294 -2.47178 0
M  V30 4056 N 371.003 -0.499398 -1.49478 0
M  V30 4057 C 371.913 0.284489 -2.32869 0
M  V30 4058 C 372.929 0.968885 -1.44529 0
M  V30 4059 O 374.105 0.95062 -1.77553 0
M  V30 4060 C 371.17 1.33594 -3.19928 0
M  V30 4061 C 370.231 0.665149 -4.24116 0
M  V30 4062 C 369.464 1.6665 -5.07014 0
M  V30 4063 O 369.687 2.89618 -4.91404 0
M  V30 4064 O 368.621 1.22271 -5.8935 0
M  V30 4065 H 372.447 -0.39802 -3.01081 0
M  V30 4066 H 370.032 -0.260758 -1.47107 0
M  V30 4067 H 371.914 1.94431 -3.73864 0
M  V30 4068 H 370.589 2.0014 -2.54412 0
M  V30 4069 H 369.496 0.0170769 -3.74096 0
M  V30 4070 H 370.829 0.0421555 -4.92182 0
M  V30 4071 N 372.481 1.55866 -0.233164 0
M  V30 4072 C 373.411 2.23783 0.666599 0
M  V30 4073 C 374.392 1.21343 1.19205 0
M  V30 4074 O 375.577 1.4996 1.23392 0
M  V30 4075 C 372.707 2.92671 1.86978 0
M  V30 4076 C 371.661 4.01682 1.47768 0
M  V30 4077 C 370.987 4.57926 2.76058 0
M  V30 4078 C 372.287 5.18126 0.658993 0
M  V30 4079 H 373.981 2.99232 0.100306 0
M  V30 4080 H 371.527 1.43924 0.046804 0
M  V30 4081 H 373.48 3.3888 2.50476 0
M  V30 4082 H 372.204 2.14688 2.46123 0
M  V30 4083 H 370.863 3.56222 0.866106 0
M  V30 4084 H 370.511 3.76659 3.33372 0
M  V30 4085 H 370.211 5.31505 2.50552 0
M  V30 4086 H 371.735 5.06859 3.40479 0
M  V30 4087 H 373.149 5.60644 1.19795 0
M  V30 4088 H 371.546 5.98009 0.500552 0
M  V30 4089 H 372.616 4.83763 -0.331856 0
M  V30 4090 N 373.959 -0.0401083 1.57549 0
M  V30 4091 C 374.906 -1.04413 2.05831 0
M  V30 4092 C 375.876 -1.36585 0.945184 0
M  V30 4093 O 377.061 -1.47112 1.21502 0
M  V30 4094 C 374.201 -2.34336 2.53339 0
M  V30 4095 C 373.314 -2.08419 3.78398 0
M  V30 4096 C 372.449 -3.32133 4.14561 0
M  V30 4097 C 371.488 -3.01721 5.3257 0
M  V30 4098 N 370.625 -4.17855 5.64218 0
M  V30 4099 H 375.465 -0.625442 2.91363 0
M  V30 4100 H 373.002 -0.297218 1.44066 0
M  V30 4101 H 374.96 -3.10234 2.78946 0
M  V30 4102 H 373.59 -2.73948 1.7074 0
M  V30 4103 H 372.642 -1.23069 3.59942 0
M  V30 4104 H 373.954 -1.81978 4.64419 0
M  V30 4105 H 373.108 -4.16406 4.41238 0
M  V30 4106 H 371.847 -3.61678 3.2717 0
M  V30 4107 H 370.852 -2.15849 5.05657 0
M  V30 4108 H 372.077 -2.73466 6.21605 0
M  V30 4109 H 370.023 -4.47372 4.79786 0
M  V30 4110 H 369.94 -3.94798 6.44725 0
M  V30 4111 H 371.208 -5.03033 5.95465 0
M  V30 4112 N 375.437 -1.54477 -0.31217 0
M  V30 4113 C 376.384 -1.84655 -1.38461 0
M  V30 4114 C 377.354 -0.694536 -1.50882 0
M  V30 4115 O 378.539 -0.942081 -1.6592 0
M  V30 4116 C 375.679 -2.0896 -2.74645 0
M  V30 4117 C 374.792 -3.36618 -2.70763 0
M  V30 4118 C 373.927 -3.50824 -3.98868 0
M  V30 4119 C 372.966 -4.72315 -3.89339 0
M  V30 4120 N 372.103 -4.83387 -5.09197 0
M  V30 4121 H 376.943 -2.76142 -1.12026 0
M  V30 4122 H 374.48 -1.36748 -0.542065 0
M  V30 4123 H 376.438 -2.21045 -3.53829 0
M  V30 4124 H 375.068 -1.20752 -2.99364 0
M  V30 4125 H 374.12 -3.33211 -1.83506 0
M  V30 4126 H 375.432 -4.25917 -2.59608 0
M  V30 4127 H 374.586 -3.62513 -4.86486 0
M  V30 4128 H 373.325 -2.59638 -4.12843 0
M  V30 4129 H 372.33 -4.6067 -3.00105 0
M  V30 4130 H 373.555 -5.64897 -3.76919 0
M  V30 4131 H 371.501 -3.9512 -5.23657 0
M  V30 4132 H 371.418 -5.66669 -5.00422 0
M  V30 4133 H 372.686 -4.9942 -5.98498 0
M  V30 4134 N 376.915 0.57481 -1.46744 0
M  V30 4135 C 377.845 1.69337 -1.60771 0
M  V30 4136 C 378.826 1.63825 -0.457736 0
M  V30 4137 O 380.011 1.8172 -0.684947 0
M  V30 4138 C 377.141 3.0798 -1.60517 0
M  V30 4139 C 376.095 3.28327 -2.74564 0
M  V30 4140 C 375.421 4.67578 -2.59373 0
M  V30 4141 C 376.721 3.15398 -4.16319 0
M  V30 4142 H 378.415 1.57853 -2.54407 0
M  V30 4143 H 375.961 0.75799 -1.22436 0
M  V30 4144 H 377.914 3.86061 -1.68923 0
M  V30 4145 H 376.638 3.20381 -0.634305 0
M  V30 4146 H 375.297 2.52649 -2.65639 0
M  V30 4147 H 374.945 4.76755 -1.60353 0
M  V30 4148 H 374.645 4.82144 -3.35873 0
M  V30 4149 H 376.169 5.47817 -2.69682 0
M  V30 4150 H 377.583 3.83315 -4.26313 0
M  V30 4151 H 375.98 3.41482 -4.93468 0
M  V30 4152 H 377.05 2.12372 -4.3592 0
M  V30 4153 N 378.394 1.34581 0.820102 0
M  V30 4154 C 379.357 1.2628 1.91275 0
M  V30 4155 C 380.357 0.177344 1.59819 0
M  V30 4156 O 381.547 0.430156 1.68806 0
M  V30 4157 C 378.679 0.950327 3.27386 0
M  V30 4158 H 379.872 2.23421 2.00057 0
M  V30 4159 H 377.425 1.1891 1.0144 0
M  V30 4160 H 378.16 -0.0177938 3.24295 0
M  V30 4161 H 377.945 1.73549 3.51601 0
M  V30 4162 H 379.435 0.917492 4.07396 0
M  V30 4163 N 379.872 -1.04064 1.18357 0
M  V30 4164 C 380.802 -2.14001 0.934113 0
M  V30 4165 C 381.783 -1.69616 -0.128186 0
M  V30 4166 O 382.968 -1.94185 0.0244093 0
M  V30 4167 C 380.098 -3.44253 0.459066 0
M  V30 4168 C 379.052 -4.02261 1.46185 0
M  V30 4169 C 378.378 -5.27992 0.844322 0
M  V30 4170 C 379.678 -4.38432 2.83856 0
M  V30 4171 H 381.372 -2.35127 1.85352 0
M  V30 4172 H 378.918 -1.12998 0.892604 0
M  V30 4173 H 380.871 -4.20522 0.271907 0
M  V30 4174 H 379.595 -3.22813 -0.495912 0
M  V30 4175 H 378.254 -3.28074 1.63595 0
M  V30 4176 H 377.902 -5.02862 -0.117845 0
M  V30 4177 H 377.602 -5.67765 1.51384 0
M  V30 4178 H 379.126 -6.06938 0.667693 0
M  V30 4179 H 380.54 -5.05688 2.70098 0
M  V30 4180 H 378.937 -4.89254 3.47491 0
M  V30 4181 H 380.007 -3.4826 3.37406 0
M  V30 4182 N 381.35 -0.985608 -1.22978 0
M  V30 4183 C 382.58 -0.674603 -1.95276 0
M  V30 4184 C 382.988 0.763483 -1.73111 0
M  V30 4185 O 382.331 1.52601 -1.02268 0
M  V30 4186 C 382.393 -0.891597 -3.48268 0
M  V30 4187 C 382.057 -2.31275 -3.94158 0
M  V30 4188 C 383.054 -3.29179 -4.02415 0
M  V30 4189 C 380.739 -2.64524 -4.27004 0
M  V30 4190 C 382.733 -4.58407 -4.42879 0
M  V30 4191 C 380.42 -3.93974 -4.67149 0
M  V30 4192 C 381.418 -4.90727 -4.75053 0
M  V30 4193 O 381.106 -6.17865 -5.14294 0
M  V30 4194 H 380.838 -0.249251 -0.628371 0
M  V30 4195 H 383.392 -1.32106 -1.5728 0
M  V30 4196 H 381.622 -0.187962 -3.86243 0
M  V30 4197 H 383.311 -0.576957 -4.01779 0
M  V30 4198 H 384.077 -3.04823 -3.77237 0
M  V30 4199 H 379.956 -1.89923 -4.2006 0
M  V30 4200 H 383.5 -5.33926 -4.48964 0
M  V30 4201 H 379.397 -4.18122 -4.91777 0
M  V30 4202 H 380.165 -6.21694 -5.32389 0
M  V30 4203 N 382.828 1.3818 -0.7579 0
M  V30 4204 C 384.076 1.99624 -0.315361 0
M  V30 4205 C 384.397 1.60464 1.10799 0
M  V30 4206 O 383.667 0.863507 1.75842 0
M  V30 4207 H 382.247 0.73831 -0.113611 0
M  V30 4208 H 384.909 1.68878 -0.972952 0
M  V30 4209 H 384.005 3.09754 -0.381931 0
M  V30 4210 N 384.306 0.507319 1.49211 0
M  V30 4211 C 385.253 -0.267728 2.29242 0
M  V30 4212 C 386.223 -0.954609 1.35928 0
M  V30 4213 O 387.408 -0.960046 1.64887 0
M  V30 4214 C 384.548 -1.32243 3.18756 0
M  V30 4215 C 383.661 -0.64669 4.27132 0
M  V30 4216 C 382.796 -1.68238 5.03855 0
M  V30 4217 C 381.835 -0.98885 6.0406 0
M  V30 4218 N 380.972 -1.96903 6.73924 0
M  V30 4219 H 385.812 0.420968 2.95012 0
M  V30 4220 H 383.349 0.219443 1.45454 0
M  V30 4221 H 385.307 -1.94599 3.69036 0
M  V30 4222 H 383.937 -1.97981 2.54958 0
M  V30 4223 H 382.989 0.0902926 3.80293 0
M  V30 4224 H 384.301 -0.101058 4.98698 0
M  V30 4225 H 383.455 -2.38081 5.58034 0
M  V30 4226 H 382.194 -2.26187 4.32077 0
M  V30 4227 H 381.199 -0.276222 5.49106 0
M  V30 4228 H 382.424 -0.415767 6.77826 0
M  V30 4229 H 380.37 -2.53803 6.04913 0
M  V30 4230 H 380.287 -1.47423 7.41487 0
M  V30 4231 H 381.555 -2.66015 7.32705 0
M  V30 4232 N 385.784 -1.5574 0.241426 0
M  V30 4233 C 387.033 -1.97986 -0.385295 0
M  V30 4234 C 387.346 -1.13267 -1.59468 0
M  V30 4235 O 388.552 -1.45501 -2.2922 0
M  V30 4236 C 387.008 -3.52275 -0.736884 0
M  V30 4237 C 386.616 -4.45726 0.450796 0
M  V30 4238 C 388.36 -4.03189 -1.3281 0
M  V30 4239 C 386.267 -5.91352 0.0756662 0
M  V30 4240 H 385.197 -0.739386 -0.147731 0
M  V30 4241 H 387.848 -1.80308 0.340779 0
M  V30 4242 H 386.23 -3.65628 -1.52094 0
M  V30 4243 H 387.404 -4.44131 1.22819 0
M  V30 4244 H 385.719 -4.05264 0.956573 0
M  V30 4245 H 388.316 -5.09505 -1.62201 0
M  V30 4246 H 388.659 -3.50212 -2.25071 0
M  V30 4247 H 389.192 -3.93141 -0.607069 0
M  V30 4248 H 385.931 -6.48354 0.965272 0
M  V30 4249 H 385.451 -5.96095 -0.665635 0
M  V30 4250 H 387.13 -6.46084 -0.344075 0
M  V30 4251 N 387.262 0.0317525 -1.57568 0
M  V30 4252 C 388.21 1.05165 -2.07468 0
M  V30 4253 C 389.204 1.3761 -0.98792 0
M  V30 4254 O 390.41 1.36546 -1.17282 0
M  V30 4255 H 386.785 0.35666 -0.66204 0
M  V30 4256 H 388.756 0.604958 -2.92203 0
M  V30 4257 C 387.505 2.34488 -2.56731 0
M  V30 4258 H 386.828 2.10383 -3.39969 0
M  V30 4259 H 388.268 3.04203 -2.95358 0
M  V30 4260 C 386.727 3.03266 -1.46736 0
M  V30 4261 O 387.257 3.92988 -0.832069 0
M  V30 4262 N 385.463 2.6455 -1.20256 0
M  V30 4263 H 385.01 1.91674 -1.72102 0
M  V30 4264 H 384.968 3.10886 -0.468737 0
M  V30 4265 N 388.74 1.54641 0.303973 0
M  V30 4266 C 390.017 1.64455 1.05896 0
M  V30 4267 C 390.397 0.490923 2.05312 0
M  V30 4268 O 389.745 -0.512685 2.22674 0
M  V30 4269 C 389.955 3.02331 1.74347 0
M  V30 4270 C 391.303 3.59045 2.26653 0
M  V30 4271 O 392.327 3.04764 1.84384 0
M  V30 4272 O 391.186 4.54081 3.04093 0
M  V30 4273 H 388.28 0.666729 0.489287 0
M  V30 4274 H 390.826 1.66986 0.302298 0
M  V30 4275 H 389.598 3.77734 1.02142 0
M  V30 4276 H 389.221 3.03565 2.56777 0
M  V30 4277 N 390.218 -0.567019 1.47046 0
M  V30 4278 C 391.166 -1.69593 1.59188 0
M  V30 4279 C 392.16 -1.63046 0.459609 0
M  V30 4280 O 393.366 -1.6835 0.637058 0
M  V30 4281 H 389.741 -0.560993 0.500791 0
M  V30 4282 H 391.712 -1.56488 2.54075 0
M  V30 4283 C 390.461 -3.07964 1.61411 0
M  V30 4284 H 389.784 -3.13679 2.47881 0
M  V30 4285 H 391.224 -3.86671 1.73958 0
M  V30 4286 C 389.683 -3.35123 0.34559 0
M  V30 4287 O 390.213 -3.97812 -0.557521 0
M  V30 4288 N 388.419 -2.89699 0.22864 0
M  V30 4289 H 387.966 -2.38863 0.964479 0
M  V30 4290 H 387.924 -3.08242 -0.619192 0
M  V30 4291 N 391.696 -1.35014 -0.812953 0
M  V30 4292 C 392.644 -1.27435 -1.94585 0
M  V30 4293 C 393.638 -0.170494 -1.6854 0
M  V30 4294 O 394.844 -0.336085 -1.76835 0
M  V30 4295 H 391.219 -0.396144 -0.639198 0
M  V30 4296 H 393.19 -2.23158 -1.98098 0
M  V30 4297 C 391.939 -1.05677 -3.31252 0
M  V30 4298 H 391.262 -1.89853 -3.51846 0
M  V30 4299 H 392.702 -1.04413 -4.10943 0
M  V30 4300 C 391.161 0.239615 -3.36047 0
M  V30 4301 O 391.691 1.23759 -3.8216 0
M  V30 4302 N 389.897 0.276186 -2.89285 0
M  V30 4303 H 389.444 -0.53653 -2.51951 0
M  V30 4304 H 389.402 1.14332 -2.92875 0
M  V30 4305 N 393.175 1.03435 -1.18907 0
M  V30 4306 C 394.4 1.80919 -1.01406 0
M  V30 4307 C 394.825 1.83055 0.432721 0
M  V30 4308 O 394.183 1.25252 1.31079 0
M  V30 4309 C 394.231 3.24091 -1.58105 0
M  V30 4310 O 393.335 4.04434 -0.806669 0
M  V30 4311 H 392.676 0.558709 -0.358803 0
M  V30 4312 H 395.206 1.30223 -1.57807 0
M  V30 4313 H 395.216 3.74853 -1.61087 0
M  V30 4314 H 393.891 3.21851 -2.6341 0
M  V30 4315 H 392.468 3.63091 -0.849666 0
M  V30 4316 N 394.653 0.992116 1.22453 0
M  V30 4317 C 395.899 0.678177 1.91761 0
M  V30 4318 C 396.254 -0.781141 1.75829 0
M  V30 4319 O 395.547 -1.55747 1.11595 0
M  V30 4320 C 395.741 1.01832 3.42586 0
M  V30 4321 C 395.57 2.50916 3.73191 0
M  V30 4322 C 394.34 3.17308 3.93248 0
M  V30 4323 C 396.538 3.49032 3.77732 0
M  V30 4324 N 394.52 4.55876 4.11157 0
M  V30 4325 C 395.891 4.73055 4.00773 0
M  V30 4326 C 397.946 3.43349 3.60577 0
M  V30 4327 C 396.649 5.92089 4.0844 0
M  V30 4328 C 398.675 4.61759 3.69503 0
M  V30 4329 C 398.037 5.84582 3.92993 0
M  V30 4330 H 394.136 0.299425 0.722405 0
M  V30 4331 H 396.72 1.27197 1.47408 0
M  V30 4332 H 394.891 0.453118 3.85748 0
M  V30 4333 H 396.623 0.660454 3.99274 0
M  V30 4334 H 393.378 2.67778 3.9063 0
M  V30 4335 H 393.802 5.27748 4.24042 0
M  V30 4336 H 398.444 2.49408 3.41402 0
M  V30 4337 H 396.162 6.86435 4.26418 0
M  V30 4338 H 399.748 4.58951 3.57569 0
M  V30 4339 H 398.628 6.74676 3.99728 0
M  V30 4340 N 396.131 -1.37776 0.765217 0
M  V30 4341 C 397.38 -1.99092 0.323307 0
M  V30 4342 C 397.693 -1.61434 -1.10446 0
M  V30 4343 O 398.899 -2.15805 -1.64743 0
M  V30 4344 C 397.355 -3.56019 0.527098 0
M  V30 4345 C 396.963 -4.0262 1.96471 0
M  V30 4346 C 398.707 -4.2424 0.148483 0
M  V30 4347 C 396.614 -5.52233 2.11644 0
M  V30 4348 H 395.544 -0.744846 0.117137 0
M  V30 4349 H 398.195 -1.57391 0.943417 0
M  V30 4350 H 396.577 -3.95667 -0.162372 0
M  V30 4351 H 397.751 -3.74234 2.68859 0
M  V30 4352 H 396.066 -3.47161 2.29931 0
M  V30 4353 H 398.663 -5.34159 0.240456 0
M  V30 4354 H 399.006 -4.06446 -0.900422 0
M  V30 4355 H 399.539 -3.89872 0.79025 0
M  V30 4356 H 396.278 -5.74945 3.1483 0
M  V30 4357 H 395.798 -5.82324 1.4373 0
M  V30 4358 H 397.477 -6.18106 1.91193 0
M  V30 4359 N 397.609 -0.515225 -1.4894 0
M  V30 4360 C 398.858 0.0261361 -2.01683 0
M  V30 4361 C 399.171 1.36719 -1.39883 0
M  V30 4362 O 400.377 1.99606 -1.84037 0
M  V30 4363 C 398.833 0.0970111 -3.59769 0
M  V30 4364 C 398.441 -1.23825 -4.30548 0
M  V30 4365 C 400.185 0.587981 -4.20408 0
M  V30 4366 C 398.092 -1.12877 -5.80528 0
M  V30 4367 H 397.022 0.0135398 -0.753878 0
M  V30 4368 H 399.673 -0.656787 -1.71343 0
M  V30 4369 H 398.055 0.844694 -3.86886 0
M  V30 4370 H 399.229 -2.00034 -4.15118 0
M  V30 4371 H 397.544 -1.66379 -3.81716 0
M  V30 4372 H 400.141 0.68763 -5.3026 0
M  V30 4373 H 400.484 1.59026 -3.84729 0
M  V30 4374 H 401.017 -0.103582 -3.97665 0
M  V30 4375 H 397.756 -2.10575 -6.20756 0
M  V30 4376 H 397.276 -0.407799 -5.98412 0
M  V30 4377 H 398.955 -0.813332 -6.41868 0
M  V30 4378 N 399.087 1.5561 -0.249682 0
M  V30 4379 C 400.364 1.90932 0.424761 0
M  V30 4380 C 400.744 1.17078 1.75658 0
M  V30 4381 O 400.092 0.289176 2.26663 0
M  V30 4382 C 400.302 3.43975 0.590109 0
M  V30 4383 C 401.65 4.15281 0.884714 0
M  V30 4384 O 402.674 3.49729 0.67587 0
M  V30 4385 O 401.533 5.31236 1.28259 0
M  V30 4386 H 398.627 0.794815 0.228468 0
M  V30 4387 H 401.173 1.67135 -0.293954 0
M  V30 4388 H 399.945 3.89748 -0.34818 0
M  V30 4389 H 399.568 3.73644 1.35926 0
M  V30 4390 N 400.565 -0.0233959 1.57583 0
M  V30 4391 C 401.513 -1.04063 2.08023 0
M  V30 4392 C 402.507 -1.37084 0.995204 0
M  V30 4393 O 403.713 -1.35923 1.18004 0
M  V30 4394 H 400.088 -0.353144 0.663922 0
M  V30 4395 H 402.059 -0.589453 2.9252 0
M  V30 4396 C 400.808 -2.33123 2.57971 0
M  V30 4397 H 400.131 -2.08577 3.4108 0
M  V30 4398 H 401.571 -3.02632 2.96967 0
M  V30 4399 C 400.03 -3.02483 1.48342 0
M  V30 4400 O 400.56 -3.92541 0.852898 0
M  V30 4401 N 398.766 -2.63909 1.21658 0
M  V30 4402 H 398.313 -1.90758 1.73116 0
M  V30 4403 H 398.271 -3.10633 0.485218 0
M  V30 4404 N 402.043 -1.548 -0.295768 0
M  V30 4405 C 403.291 -1.73985 -1.02828 0
M  V30 4406 C 403.612 -0.531406 -1.87619 0
M  V30 4407 O 402.882 0.454221 -1.90561 0
M  V30 4408 H 401.462 -0.641556 -0.382642 0
M  V30 4409 H 404.124 -1.92163 -0.325489 0
M  V30 4410 H 403.22 -2.63129 -1.67838 0
M  V30 4411 N 403.521 0.559213 -1.47345 0
M  V30 4412 C 404.77 1.31281 -1.53128 0
M  V30 4413 C 405.083 1.94602 -0.197344 0
M  V30 4414 O 406.289 2.71173 -0.133154 0
M  V30 4415 C 404.745 2.38051 -2.69925 0
M  V30 4416 C 404.353 1.8093 -4.0984 0
M  V30 4417 C 406.097 3.14604 -2.84999 0
M  V30 4418 C 404.004 2.85468 -5.1794 0
M  V30 4419 H 402.934 0.493614 -0.569966 0
M  V30 4420 H 405.585 0.594155 -1.73615 0
M  V30 4421 H 403.967 3.12822 -2.42814 0
M  V30 4422 H 405.141 1.12544 -4.46845 0
M  V30 4423 H 403.456 1.16967 -3.99634 0
M  V30 4424 H 406.053 3.92666 -3.62929 0
M  V30 4425 H 406.396 3.68665 -1.93369 0
M  V30 4426 H 406.929 2.46945 -3.1187 0
M  V30 4427 H 403.668 2.36264 -6.1144 0
M  V30 4428 H 403.188 3.52269 -4.85455 0
M  V30 4429 H 404.867 3.48996 -5.44803 0
M  V30 4430 N 404.999 1.35443 0.805782 0
M  V30 4431 C 406.229 1.31687 1.59192 0
M  V30 4432 C 406.637 -0.10756 1.88894 0
M  V30 4433 O 405.98 -1.07017 1.49309 0
M  V30 4434 C 406.042 2.05686 2.94845 0
M  V30 4435 C 405.706 3.54868 2.87954 0
M  V30 4436 C 406.703 4.49444 2.61335 0
M  V30 4437 C 404.388 3.97528 3.07046 0
M  V30 4438 C 406.382 5.84655 2.53885 0
M  V30 4439 C 404.069 5.32833 2.99219 0
M  V30 4440 C 405.067 6.26209 2.72674 0
M  V30 4441 O 404.755 7.59032 2.64811 0
M  V30 4442 H 404.487 0.453878 0.50097 0
M  V30 4443 H 407.041 1.78892 1.0093 0
M  V30 4444 H 405.271 1.5312 3.55093 0
M  V30 4445 H 406.96 1.94998 3.55993 0
M  V30 4446 H 407.726 4.17804 2.46303 0
M  V30 4447 H 403.605 3.25233 3.26718 0
M  V30 4448 H 407.149 6.57508 2.33086 0
M  V30 4449 H 403.046 5.64087 3.13809 0
M  V30 4450 H 403.814 7.68967 2.80413 0
M  V30 4451 N 406.477 -1.02803 1.19454 0
M  V30 4452 C 407.427 -2.0945 0.900827 0
M  V30 4453 C 408.411 -1.60335 -0.134715 0
M  V30 4454 O 409.603 -1.76857 0.0710924 0
M  V30 4455 C 406.732 -3.4044 0.442229 0
M  V30 4456 C 405.818 -3.96286 1.51056 0
M  V30 4457 N 406.209 -4.25785 2.73021 0
M  V30 4458 C 404.507 -4.24307 1.37404 0
M  V30 4459 C 405.208 -4.70654 3.41848 0
M  V30 4460 N 404.184 -4.72238 2.69243 0
M  V30 4461 H 407.986 -2.3015 1.82779 0
M  V30 4462 H 405.5 -1.20672 1.08683 0
M  V30 4463 H 407.497 -4.16354 0.21326 0
M  V30 4464 H 406.157 -3.21159 -0.478238 0
M  V30 4465 H 407.168 -4.15041 3.09776 0
M  V30 4466 H 403.845 -4.14285 0.517103 0
M  V30 4467 H 405.235 -5.02392 4.46152 0
M  V30 4468 N 407.956 -0.998596 -1.21925 0
M  V30 4469 C 409.205 -0.673085 -1.90138 0
M  V30 4470 C 409.518 0.79895 -1.78539 0
M  V30 4471 O 410.724 1.23628 -2.4172 0
M  V30 4472 C 409.18 -1.15339 -3.40918 0
M  V30 4473 C 408.788 -2.65106 -3.61141 0
M  V30 4474 C 410.532 -0.902476 -4.14796 0
M  V30 4475 C 408.439 -3.0671 -5.05651 0
M  V30 4476 H 407.369 -0.248057 -0.712028 0
M  V30 4477 H 410.02 -1.20891 -1.38049 0
M  V30 4478 H 408.402 -0.545658 -3.92223 0
M  V30 4479 H 409.576 -3.31274 -3.20304 0
M  V30 4480 H 407.891 -2.88142 -3.00605 0
M  V30 4481 H 410.488 -1.18895 -5.21314 0
M  V30 4482 H 410.831 0.161349 -4.15987 0
M  V30 4483 H 411.364 -1.47269 -3.69536 0
M  V30 4484 H 408.103 -4.12292 -5.09603 0
M  V30 4485 H 407.623 -2.45249 -5.47369 0
M  V30 4486 H 409.302 -2.9833 -5.74115 0
M  V30 4487 N 409.434 1.37368 -0.772513 0
M  V30 4488 C 410.397 2.28601 -0.165541 0
M  V30 4489 C 411.397 1.48062 0.627238 0
M  V30 4490 O 412.587 1.68268 0.450715 0
M  V30 4491 C 409.719 3.32023 0.772897 0
M  V30 4492 H 410.912 2.83787 -0.969787 0
M  V30 4493 H 408.465 1.46647 -0.540775 0
M  V30 4494 H 409.2 2.81962 1.60212 0
M  V30 4495 H 408.985 3.91555 0.206585 0
M  V30 4496 H 410.475 4.00197 1.19298 0
M  V30 4497 N 410.912 0.523116 1.48665 0
M  V30 4498 C 412.323 0.0808997 1.86525 0
M  V30 4499 C 412.674 -1.33975 1.43336 0
M  V30 4500 O 411.799 -2.00221 0.821009 0
M  V30 4501 C 412.394 0.140037 3.3851 0
M  V30 4502 C 410.953 -0.246948 3.75589 0
M  V30 4503 C 410.1 0.502845 2.72703 0
M  V30 4504 H 413.051 0.734736 1.40667 0
M  V30 4505 H 413.072 -0.649945 3.74908 0
M  V30 4506 H 412.584 1.17412 3.69914 0
M  V30 4507 H 410.685 -1.28343 3.49798 0
M  V30 4508 H 410.798 0.0878859 4.79019 0
M  V30 4509 H 409.162 -0.0500581 2.54651 0
M  V30 4510 H 409.945 1.53743 3.0695 0
M  V30 4511 N 412.39 -1.55475 0.257931 0
M  V30 4512 C 413.32 -2.24815 -0.630912 0
M  V30 4513 C 414.301 -1.23224 -1.17259 0
M  V30 4514 O 415.486 -1.51904 -1.20991 0
M  V30 4515 C 412.616 -2.95609 -1.82298 0
M  V30 4516 C 411.57 -4.03982 -1.41359 0
M  V30 4517 C 410.896 -4.6226 -2.68738 0
M  V30 4518 C 412.196 -5.19109 -0.57648 0
M  V30 4519 H 413.89 -2.99354 -0.0526878 0
M  V30 4520 H 411.436 -1.4398 -0.023901 0
M  V30 4521 H 413.389 -3.42822 -2.45054 0
M  V30 4522 H 412.113 -2.18577 -2.42676 0
M  V30 4523 H 410.772 -3.57555 -0.809324 0
M  V30 4524 H 410.42 -3.81915 -3.27338 0
M  V30 4525 H 410.12 -5.35424 -2.42065 0
M  V30 4526 H 411.644 -5.12212 -3.32372 0
M  V30 4527 H 413.058 -5.62479 -1.10861 0
M  V30 4528 H 411.455 -5.98729 -0.405351 0
M  V30 4529 H 412.525 -4.83174 0.408776 0
M  V30 4530 N 413.868 0.0150385 -1.57593 0
M  V30 4531 C 415.116 0.701613 -1.8953 0
M  V30 4532 C 415.437 1.75139 -0.857396 0
M  V30 4533 O 414.707 1.95607 0.107194 0
M  V30 4534 H 413.287 0.26213 -0.699498 0
M  V30 4535 H 415.949 -0.0223304 -1.94887 0
M  V30 4536 H 415.045 1.18236 -2.88837 0
M  V30 4537 N 415.346 1.54954 0.287554 0
M  V30 4538 C 416.293 1.86834 1.35505 0
M  V30 4539 C 417.263 0.718452 1.49758 0
M  V30 4540 O 418.448 0.968358 1.644 0
M  V30 4541 C 415.588 2.13303 2.71286 0
M  V30 4542 C 414.701 3.40883 2.65373 0
M  V30 4543 C 413.836 3.57125 3.93236 0
M  V30 4544 C 412.875 4.78449 3.81776 0
M  V30 4545 N 412.012 4.91426 5.01443 0
M  V30 4546 H 416.852 2.77889 1.07619 0
M  V30 4547 H 414.389 1.37593 0.520241 0
M  V30 4548 H 416.347 2.26646 3.50267 0
M  V30 4549 H 414.977 1.25499 2.97405 0
M  V30 4550 H 414.029 3.36088 1.78182 0
M  V30 4551 H 415.341 4.29993 2.52799 0
M  V30 4552 H 414.495 3.70207 4.80658 0
M  V30 4553 H 413.234 2.66173 4.0866 0
M  V30 4554 H 412.239 4.65386 2.92738 0
M  V30 4555 H 413.464 5.70822 3.67884 0
M  V30 4556 H 411.41 4.03401 5.17304 0
M  V30 4557 H 411.327 5.74559 4.91343 0
M  V30 4558 H 412.595 5.08879 5.90477 0
M  V30 4559 N 416.824 -0.551391 1.4764 0
M  V30 4560 C 417.754 -1.66757 1.63445 0
M  V30 4561 C 418.735 -1.63077 0.483742 0
M  V30 4562 O 419.92 -1.80607 0.71377 0
M  V30 4563 C 417.05 -3.05387 1.65396 0
M  V30 4564 C 416.004 -3.23918 2.79752 0
M  V30 4565 C 415.33 -4.63393 2.66779 0
M  V30 4566 C 416.63 -3.08735 4.21284 0
M  V30 4567 H 418.324 -1.53786 2.56886 0
M  V30 4568 H 415.87 -0.738415 1.23626 0
M  V30 4569 H 417.823 -3.83325 1.75043 0
M  V30 4570 H 416.547 -3.19332 0.685195 0
M  V30 4571 H 415.206 -2.48391 2.69625 0
M  V30 4572 H 414.854 -4.74144 1.67918 0
M  V30 4573 H 414.554 -4.7674 3.43501 0
M  V30 4574 H 416.078 -5.43458 2.78364 0
M  V30 4575 H 417.492 -3.76484 4.32357 0
M  V30 4576 H 415.889 -3.33588 4.98838 0
M  V30 4577 H 416.959 -2.0541 4.39243 0
M  V30 4578 N 418.302 -1.35869 -0.798587 0
M  V30 4579 C 419.252 -1.25982 -1.90033 0
M  V30 4580 C 420.236 -0.153303 -1.60168 0
M  V30 4581 O 421.428 -0.38527 -1.72756 0
M  V30 4582 C 418.557 -1.04211 -3.27101 0
M  V30 4583 C 417.643 -2.19289 -3.63006 0
M  V30 4584 N 418.034 -3.44559 -3.70287 0
M  V30 4585 C 416.332 -2.10852 -3.93011 0
M  V30 4586 C 417.033 -4.20283 -4.02166 0
M  V30 4587 N 416.009 -3.49124 -4.16669 0
M  V30 4588 H 419.811 -2.20883 -1.93876 0
M  V30 4589 H 417.325 -1.28457 -0.993614 0
M  V30 4590 H 419.322 -0.952155 -4.05881 0
M  V30 4591 H 417.982 -0.102013 -3.2454 0
M  V30 4592 H 418.993 -3.7881 -3.53162 0
M  V30 4593 H 415.67 -1.24744 -3.98428 0
M  V30 4594 H 417.06 -5.28575 -4.14799 0
M  V30 4595 N 419.78 1.02168 -1.19998 0
M  V30 4596 C 421.005 1.79833 -1.03319 0
M  V30 4597 C 421.43 1.83504 0.413281 0
M  V30 4598 O 420.788 1.26635 1.29743 0
M  V30 4599 C 420.836 3.22396 -1.61533 0
M  V30 4600 O 419.94 4.03555 -0.849519 0
M  V30 4601 H 419.281 0.554872 -0.364709 0
M  V30 4602 H 421.811 1.28542 -1.59179 0
M  V30 4603 H 421.821 3.73124 -1.65054 0
M  V30 4604 H 420.496 3.19039 -2.66809 0
M  V30 4605 H 419.073 3.62169 -0.888129 0
M  V30 4606 N 421.258 1.00505 1.21394 0
M  V30 4607 C 422.206 0.558623 2.25792 0
M  V30 4608 C 423.2 -0.396848 1.64686 0
M  V30 4609 O 424.406 -0.268035 1.77993 0
M  V30 4610 H 420.781 0.1623 0.734277 0
M  V30 4611 H 422.752 1.4503 2.60785 0
M  V30 4612 C 421.501 -0.0989574 3.47559 0
M  V30 4613 H 420.824 0.627225 3.94849 0
M  V30 4614 H 422.264 -0.3746 4.22342 0
M  V30 4615 C 420.723 -1.33817 3.09184 0
M  V30 4616 O 421.253 -2.43252 3.19674 0
M  V30 4617 N 419.459 -1.21793 2.63846 0
M  V30 4618 H 419.006 -0.32746 2.5551 0
M  V30 4619 H 418.964 -2.04809 2.38539 0
M  V30 4620 N 422.737 -1.36956 0.779787 0
M  V30 4621 C 423.685 -2.32053 0.15942 0
M  V30 4622 C 424.679 -1.55333 -0.675878 0
M  V30 4623 O 425.885 -1.70668 -0.57204 0
M  V30 4624 H 422.26 -0.751286 0.0327707 0
M  V30 4625 H 424.231 -2.8195 0.977078 0
M  V30 4626 C 422.98 -3.40602 -0.698977 0
M  V30 4627 H 422.303 -3.99746 -0.0655966 0
M  V30 4628 H 423.743 -4.09486 -1.09989 0
M  V30 4629 C 422.202 -2.81359 -1.85307 0
M  V30 4630 O 422.732 -2.72751 -2.94906 0
M  V30 4631 N 420.938 -2.38786 -1.65619 0
M  V30 4632 H 420.485 -2.45987 -0.764725 0
M  V30 4633 H 420.443 -1.99493 -2.43002 0
M  V30 4634 N 424.215 -0.530993 -1.48385 0
M  V30 4635 C 425.162 0.231223 -2.29639 0
M  V30 4636 C 426.132 0.932864 -1.37429 0
M  V30 4637 O 427.317 0.933692 -1.66394 0
M  V30 4638 C 424.457 1.27155 -3.2082 0
M  V30 4639 C 423.57 0.578655 -4.28107 0
M  V30 4640 C 422.705 1.602 -5.06467 0
M  V30 4641 C 421.744 0.892625 -6.05556 0
M  V30 4642 N 420.881 1.86157 -6.76971 0
M  V30 4643 H 425.721 -0.467848 -2.94305 0
M  V30 4644 H 423.258 -0.242556 -1.45086 0
M  V30 4645 H 425.216 1.88703 -3.72085 0
M  V30 4646 H 423.846 1.939 -2.58075 0
M  V30 4647 H 422.898 -0.150782 -3.80101 0
M  V30 4648 H 424.21 0.0217065 -4.98795 0
M  V30 4649 H 423.364 2.29173 -5.61751 0
M  V30 4650 H 422.103 2.19285 -4.35621 0
M  V30 4651 H 421.108 0.188829 -5.49476 0
M  V30 4652 H 422.333 0.307878 -6.78402 0
M  V30 4653 H 420.279 2.44147 -6.08875 0
M  V30 4654 H 420.196 1.35608 -7.43738 0
M  V30 4655 H 421.464 2.54325 -7.36844 0
M  V30 4656 N 425.693 1.55336 -0.266172 0
M  V30 4657 C 426.942 1.98574 0.353749 0
M  V30 4658 C 427.255 1.15789 1.57646 0
M  V30 4659 O 428.461 1.49129 2.26876 0
M  V30 4660 C 426.917 3.53403 0.680747 0
M  V30 4661 C 426.525 4.44953 -0.52165 0
M  V30 4662 C 428.269 4.05251 1.26379 0
M  V30 4663 C 426.176 5.91156 -0.169736 0
M  V30 4664 H 425.106 0.741643 0.135949 0
M  V30 4665 H 427.757 1.79743 -0.369421 0
M  V30 4666 H 426.139 3.68001 1.46257 0
M  V30 4667 H 427.313 4.42121 -1.29869 0
M  V30 4668 H 425.628 4.03691 -1.02093 0
M  V30 4669 H 428.225 5.12021 1.54074 0
M  V30 4670 H 428.568 3.53749 2.19471 0
M  V30 4671 H 429.101 3.94057 0.544447 0
M  V30 4672 H 425.84 6.46736 -1.0683 0
M  V30 4673 H 425.36 5.97079 0.570717 0
M  V30 4674 H 427.039 6.4655 0.241245 0
M  V30 4675 N 427.171 -0.0066808 1.57599 0
M  V30 4676 C 428.419 -0.691552 1.899 0
M  V30 4677 C 428.74 -1.74682 0.866672 0
M  V30 4678 O 428.01 -1.95661 -0.0968189 0
M  V30 4679 H 426.59 -0.258416 0.700878 0
M  V30 4680 H 429.252 0.0326655 1.94873 0
M  V30 4681 H 428.348 -1.16702 2.8946 0
M  V30 4682 N 428.649 -1.55105 -0.279332 0
M  V30 4683 C 429.898 -1.74618 -1.00952 0
M  V30 4684 C 430.211 -0.551096 -1.87676 0
M  V30 4685 O 431.417 -0.628507 -2.64125 0
M  V30 4686 C 429.873 -3.09025 -1.84476 0
M  V30 4687 C 429.481 -4.36081 -1.0265 0
M  V30 4688 C 431.225 -3.37891 -2.56963 0
M  V30 4689 C 429.132 -5.6153 -1.85576 0
M  V30 4690 H 428.062 -0.650868 -0.38064 0
M  V30 4691 H 430.713 -1.81569 -0.265475 0
M  V30 4692 H 429.095 -2.96095 -2.62952 0
M  V30 4693 H 430.269 -4.59909 -0.286354 0
M  V30 4694 H 428.584 -4.14312 -0.416464 0
M  V30 4695 H 431.181 -4.28822 -3.19399 0
M  V30 4696 H 431.524 -2.57737 -3.26921 0
M  V30 4697 H 432.057 -3.5189 -1.85522 0
M  V30 4698 H 428.796 -6.44413 -1.2005 0
M  V30 4699 H 428.316 -5.41854 -2.57204 0
M  V30 4700 H 429.995 -5.99594 -2.43096 0
M  V30 4701 N 430.127 0.543554 -1.4793 0
M  V30 4702 C 431.037 1.67657 -1.64098 0
M  V30 4703 C 432.053 1.65934 -0.523622 0
M  V30 4704 O 433.229 1.85133 -0.792943 0
M  V30 4705 C 430.294 3.04146 -1.66421 0
M  V30 4706 C 429.355 3.16831 -2.89684 0
M  V30 4707 C 428.588 4.46809 -2.91886 0
M  V30 4708 O 428.811 5.33095 -2.02895 0
M  V30 4709 O 427.745 4.63573 -3.83906 0
M  V30 4710 H 431.571 1.56957 -2.59997 0
M  V30 4711 H 429.156 0.715116 -1.31173 0
M  V30 4712 H 431.038 3.85346 -1.70548 0
M  V30 4713 H 429.713 3.152 -0.736923 0
M  V30 4714 H 428.62 2.34977 -2.91095 0
M  V30 4715 H 429.953 3.10687 -3.81752 0
M  V30 4716 N 431.605 1.3629 0.791371 0
M  V30 4717 C 432.833 1.33562 1.58016 0
M  V30 4718 C 433.248 -0.0835616 1.88615 0
M  V30 4719 O 432.605 -1.0399 1.49974 0
M  V30 4720 C 432.656 2.15517 2.90232 0
M  V30 4721 O 432.377 3.51902 2.60953 0
M  V30 4722 C 433.878 2.20546 3.84544 0
M  V30 4723 H 431.098 0.458226 0.490173 0
M  V30 4724 H 433.642 1.79361 0.982345 0
M  V30 4725 H 431.797 1.73278 3.46487 0
M  V30 4726 H 432.211 3.94644 3.4548 0
M  V30 4727 H 433.685 2.82252 4.74382 0
M  V30 4728 H 434.162 1.20838 4.2225 0
M  V30 4729 H 434.768 2.63013 3.34222 0
M  V30 4730 N 433.083 -1.0153 1.20538 0
M  V30 4731 C 434.013 -2.11972 0.979295 0
M  V30 4732 C 434.994 -1.6985 -0.0921787 0
M  V30 4733 O 436.179 -1.94089 0.0655932 0
M  V30 4734 C 433.309 -3.43201 0.531984 0
M  V30 4735 C 432.263 -3.9907 1.54685 0
M  V30 4736 C 431.589 -5.26082 0.956127 0
M  V30 4737 C 432.889 -4.32313 2.93092 0
M  V30 4738 H 434.583 -2.31143 1.90298 0
M  V30 4739 H 432.129 -1.11079 0.916372 0
M  V30 4740 H 434.082 -4.1985 0.361044 0
M  V30 4741 H 432.806 -3.23792 -0.427327 0
M  V30 4742 H 431.465 -3.2453 1.70517 0
M  V30 4743 H 431.113 -5.02999 -0.0111538 0
M  V30 4744 H 430.813 -5.64426 1.63393 0
M  V30 4745 H 432.337 -6.05386 0.796284 0
M  V30 4746 H 433.751 -4.99845 2.80763 0
M  V30 4747 H 432.148 -4.81774 3.57791 0
M  V30 4748 H 433.218 -3.41025 3.44717 0
M  V30 4749 N 434.561 -1.01147 -1.20859 0
M  V30 4750 C 435.789 -0.716911 -1.94082 0
M  V30 4751 C 436.204 0.721568 -1.74467 0
M  V30 4752 O 435.561 1.48889 -1.05539 0
M  V30 4753 C 435.612 -1.03662 -3.46318 0
M  V30 4754 O 435.333 -2.4186 -3.65288 0
M  V30 4755 C 436.834 -0.762386 -4.36695 0
M  V30 4756 H 434.054 -0.26367 -0.617024 0
M  V30 4757 H 436.598 -1.35127 -1.53496 0
M  V30 4758 H 434.753 -0.447757 -3.84804 0
M  V30 4759 H 435.167 -2.53224 -4.59323 0
M  V30 4760 H 436.641 -1.03621 -5.42187 0
M  V30 4761 H 437.118 0.303514 -4.3815 0
M  V30 4762 H 437.724 -1.33316 -4.03865 0
M  V30 4763 N 436.039 1.36541 -0.78704 0
M  V30 4764 C 436.949 2.3387 -0.184896 0
M  V30 4765 C 437.965 1.60927 0.661697 0
M  V30 4766 O 439.141 1.92927 0.57804 0
M  V30 4767 C 436.206 3.40122 0.672145 0
M  V30 4768 C 435.267 4.28867 -0.19267 0
M  V30 4769 C 434.5 5.30045 0.623561 0
M  V30 4770 O 434.723 5.39232 1.8597 0
M  V30 4771 O 433.657 6.01895 0.0247068 0
M  V30 4772 H 437.483 2.87126 -0.989562 0
M  V30 4773 H 435.068 1.38969 -0.548455 0
M  V30 4774 H 436.95 4.05093 1.16094 0
M  V30 4775 H 435.625 2.89169 1.45474 0
M  V30 4776 H 434.532 3.66945 -0.728166 0
M  V30 4777 H 435.865 4.83165 -0.938722 0
M  V30 4778 N 437.518 0.538854 1.48102 0
M  V30 4779 C 438.764 0.00801365 2.02798 0
M  V30 4780 C 439.097 -1.3309 1.41424 0
M  V30 4781 O 438.372 -1.86169 0.563158 0
M  V30 4782 C 438.655 -0.104589 3.59948 0
M  V30 4783 C 438.508 1.26012 4.31788 0
M  V30 4784 C 439.827 -0.827055 4.32259 0
M  V30 4785 H 436.946 0.00438624 0.736987 0
M  V30 4786 H 439.588 0.6976 1.7673 0
M  V30 4787 H 437.738 -0.691893 3.82289 0
M  V30 4788 H 439.41 1.88922 4.2084 0
M  V30 4789 H 437.653 1.83968 3.92859 0
M  V30 4790 H 438.324 1.13424 5.40221 0
M  V30 4791 H 440.8 -0.328578 4.14801 0
M  V30 4792 H 439.676 -0.87476 5.41885 0
M  V30 4793 H 439.937 -1.87927 4.0017 0
M  V30 4794 N 438.996 -1.55193 0.274407 0
M  V30 4795 C 439.929 -2.18606 -0.654712 0
M  V30 4796 C 440.907 -1.14677 -1.15273 0
M  V30 4797 O 442.091 -1.43198 -1.22583 0
M  V30 4798 C 439.218 -2.80875 -1.89281 0
M  V30 4799 C 438.264 -3.981 -1.53032 0
M  V30 4800 S 439.097 -5.32025 -0.609107 0
M  V30 4801 C 440.253 -5.97761 -1.85559 0
M  V30 4802 H 440.486 -2.97074 -0.115894 0
M  V30 4803 H 438.019 -1.54288 0.05867 0
M  V30 4804 H 439.977 -3.17381 -2.60345 0
M  V30 4805 H 438.638 -2.02302 -2.40277 0
M  V30 4806 H 437.831 -4.40356 -2.45158 0
M  V30 4807 H 437.433 -3.63013 -0.899874 0
M  V30 4808 H 439.725 -6.16951 -2.7996 0
M  V30 4809 H 440.668 -6.92545 -1.47605 0
M  V30 4810 H 441.076 -5.27113 -2.02021 0
M  V30 4811 N 440.474 -0.00167713 -1.576 0
M  V30 4812 C 441.421 0.989195 -2.08527 0
M  V30 4813 C 442.391 1.34031 -0.981065 0
M  V30 4814 O 443.576 1.43839 -1.2536 0
M  V30 4815 C 440.716 2.27537 -2.59463 0
M  V30 4816 C 439.829 1.98314 -3.83791 0
M  V30 4817 C 438.964 3.21025 -4.23222 0
M  V30 4818 C 438.003 2.87495 -5.40382 0
M  V30 4819 N 437.14 4.02749 -5.75098 0
M  V30 4820 H 441.98 0.547973 -2.92919 0
M  V30 4821 H 439.517 0.258917 -1.44803 0
M  V30 4822 H 441.475 3.02729 -2.87073 0
M  V30 4823 H 440.105 2.69325 -1.77943 0
M  V30 4824 H 439.157 1.13482 -3.63078 0
M  V30 4825 H 440.469 1.69601 -4.69081 0
M  V30 4826 H 439.623 4.04561 -4.52123 0
M  V30 4827 H 438.362 3.52877 -3.36644 0
M  V30 4828 H 437.367 2.02367 -5.11202 0
M  V30 4829 H 438.592 2.56889 -6.28637 0
M  V30 4830 H 436.538 4.34494 -4.91478 0
M  V30 4831 H 436.455 3.77566 -6.54966 0
M  V30 4832 H 437.723 4.87068 -6.08592 0
M  V30 4833 N 441.952 1.55251 0.271103 0
M  V30 4834 C 443.198 1.76207 1.00394 0
M  V30 4835 C 443.531 0.562604 1.85872 0
M  V30 4836 O 442.806 -0.439785 1.89463 0
M  V30 4837 C 443.089 3.06828 1.8849 0
M  V30 4838 C 442.942 4.37134 1.05992 0
M  V30 4839 C 444.261 3.33503 2.87165 0
M  V30 4840 H 441.38 0.641086 0.363562 0
M  V30 4841 H 444.022 1.87982 0.276189 0
M  V30 4842 H 442.172 2.96921 2.5054 0
M  V30 4843 H 443.844 4.59001 0.459978 0
M  V30 4844 H 442.087 4.32275 0.363443 0
M  V30 4845 H 442.758 5.2486 1.70955 0
M  V30 4846 H 445.234 3.43215 2.3525 0
M  V30 4847 H 444.11 4.2616 3.45946 0
M  V30 4848 H 444.371 2.53235 3.62387 0
M  V30 4849 N 443.43 -0.535701 1.48216 0
M  V30 4850 C 444.66 -1.3148 1.59363 0
M  V30 4851 C 445.068 -1.8753 0.250844 0
M  V30 4852 O 444.411 -1.66821 -0.769174 0
M  V30 4853 C 444.473 -2.50731 2.57632 0
M  V30 4854 C 444.137 -2.15811 4.02833 0
M  V30 4855 C 445.134 -1.71822 4.90686 0
M  V30 4856 C 442.819 -2.26509 4.48329 0
M  V30 4857 C 444.813 -1.3899 6.22062 0
M  V30 4858 C 442.5 -1.93289 5.79726 0
M  V30 4859 C 443.498 -1.49599 6.66415 0
M  V30 4860 O 443.186 -1.16812 7.95368 0
M  V30 4861 H 442.918 -0.406315 0.540263 0
M  V30 4862 H 445.472 -0.653569 1.94725 0
M  V30 4863 H 443.702 -3.19817 2.1738 0
M  V30 4864 H 445.391 -3.12797 2.58675 0
M  V30 4865 H 446.157 -1.63031 4.56778 0
M  V30 4866 H 442.036 -2.59471 3.81045 0
M  V30 4867 H 445.58 -1.04816 6.89681 0
M  V30 4868 H 441.477 -2.01718 6.13172 0
M  V30 4869 H 442.245 -1.30259 8.08069 0
M  V30 4870 N 444.908 -1.36708 -0.784132 0
M  V30 4871 C 446.319 -1.27947 -1.35965 0
M  V30 4872 C 446.67 0.0784013 -1.96043 0
M  V30 4873 O 445.795 0.979989 -1.92938 0
M  V30 4874 C 446.39 -2.31689 -2.47195 0
M  V30 4875 C 444.949 -2.26601 -3.00548 0
M  V30 4876 C 444.096 -2.16184 -1.73666 0
M  V30 4877 H 447.047 -1.4751 -0.585358 0
M  V30 4878 H 447.068 -1.95638 -3.26352 0
M  V30 4879 H 446.58 -3.30506 -2.03439 0
M  V30 4880 H 444.681 -1.31268 -3.48711 0
M  V30 4881 H 444.794 -3.19508 -3.57004 0
M  V30 4882 H 443.158 -1.62524 -1.96107 0
M  V30 4883 H 443.941 -3.16896 -1.32031 0
M  V30 4884 N 446.386 1.0089 -1.21074 0
M  V30 4885 C 447.616 1.77933 -1.04993 0
M  V30 4886 C 448.024 1.84847 0.403495 0
M  V30 4887 O 447.367 1.30606 1.29181 0
M  V30 4888 C 447.429 3.23541 -1.56722 0
M  V30 4889 C 447.093 3.40214 -3.05129 0
M  V30 4890 C 448.09 3.2881 -4.02716 0
M  V30 4891 C 445.775 3.65781 -3.44252 0
M  V30 4892 C 447.769 3.42732 -5.37414 0
M  V30 4893 C 445.456 3.79346 -4.79103 0
M  V30 4894 C 446.454 3.67827 -5.75493 0
M  V30 4895 O 446.142 3.80965 -7.07899 0
M  V30 4896 H 445.874 0.566157 -0.369381 0
M  V30 4897 H 448.428 1.27826 -1.60779 0
M  V30 4898 H 446.658 3.74766 -0.953285 0
M  V30 4899 H 448.347 3.82245 -1.36543 0
M  V30 4900 H 449.113 3.08986 -3.73835 0
M  V30 4901 H 444.992 3.73831 -2.69762 0
M  V30 4902 H 448.536 3.33658 -6.12632 0
M  V30 4903 H 444.433 3.98672 -5.07672 0
M  V30 4904 H 445.201 3.97937 -7.15254 0
M  V30 4905 N 447.864 1.01787 1.20321 0
M  V30 4906 C 448.794 0.609625 2.25401 0
M  V30 4907 C 449.775 -0.375951 1.65893 0
M  V30 4908 O 450.96 -0.261101 1.92437 0
M  V30 4909 C 448.09 -0.0515995 3.47262 0
M  V30 4910 C 447.044 0.855095 4.19371 0
M  V30 4911 C 446.37 0.0595757 5.34667 0
M  V30 4912 C 447.67 2.16374 4.75373 0
M  V30 4913 H 449.364 1.48803 2.59804 0
M  V30 4914 H 446.91 0.716934 1.24884 0
M  V30 4915 H 448.863 -0.348764 4.19954 0
M  V30 4916 H 447.587 -0.964726 3.12027 0
M  V30 4917 H 446.246 1.13628 3.48546 0
M  V30 4918 H 445.894 -0.85524 4.95676 0
M  V30 4919 H 445.594 0.663406 5.83843 0
M  V30 4920 H 447.118 -0.231105 6.10162 0
M  V30 4921 H 448.532 1.92885 5.39878 0
M  V30 4922 H 446.929 2.71853 5.34991 0
M  V30 4923 H 447.999 2.82589 3.94045 0
M  V30 4924 N 449.342 -1.36122 0.79427 0
M  V30 4925 C 450.567 -2.03891 0.379871 0
M  V30 4926 C 450.992 -1.59488 -0.997251 0
M  V30 4927 O 450.35 -0.765652 -1.64339 0
M  V30 4928 C 450.398 -3.57687 0.457442 0
M  V30 4929 O 449.502 -4.08931 -0.5338 0
M  V30 4930 H 448.843 -0.6443 0.160541 0
M  V30 4931 H 451.373 -1.73976 1.07673 0
M  V30 4932 H 451.383 -4.06721 0.322792 0
M  V30 4933 H 450.058 -3.89357 1.46199 0
M  V30 4934 H 448.635 -3.71154 -0.360409 0
M  V30 4935 N 450.82 -0.546701 -1.47814 0
M  V30 4936 C 451.753 0.254472 -2.26777 0
M  V30 4937 C 452.731 0.929809 -1.33392 0
M  V30 4938 O 453.915 0.950889 -1.62759 0
M  V30 4939 C 451.042 1.36171 -3.10121 0
M  V30 4940 C 450.088 0.796038 -4.19005 0
M  V30 4941 S 450.921 -0.349191 -5.3436 0
M  V30 4942 C 452.077 0.760122 -6.21267 0
M  V30 4943 H 452.31 -0.415612 -2.94381 0
M  V30 4944 H 449.843 -0.332809 -1.5077 0
M  V30 4945 H 451.801 1.99588 -3.58713 0
M  V30 4946 H 450.462 2.00359 -2.41899 0
M  V30 4947 H 449.655 1.62719 -4.7701 0
M  V30 4948 H 449.257 0.238246 -3.7324 0
M  V30 4949 H 451.549 1.65479 -6.5698 0
M  V30 4950 H 452.492 0.217673 -7.07765 0
M  V30 4951 H 452.9 1.04806 -5.54685 0
M  V30 4952 N 452.299 1.55045 -0.282633 0
M  V30 4953 C 453.231 2.2023 0.634924 0
M  V30 4954 C 454.244 1.18931 1.11172 0
M  V30 4955 O 455.433 1.4562 1.03233 0
M  V30 4956 C 452.533 2.82041 1.87899 0
M  V30 4957 C 451.706 4.091 1.54776 0
M  V30 4958 C 450.765 4.54887 2.64507 0
M  V30 4959 O 449.791 5.20496 2.30375 0
M  V30 4960 N 450.993 4.25659 3.94709 0
M  V30 4961 H 453.758 2.99601 0.0769811 0
M  V30 4962 H 451.319 1.61565 -0.104048 0
M  V30 4963 H 453.311 3.09613 2.60619 0
M  V30 4964 H 451.881 2.06618 2.3458 0
M  V30 4965 H 451.101 3.88736 0.654049 0
M  V30 4966 H 452.389 4.9187 1.30158 0
M  V30 4967 H 451.787 3.7306 4.25256 0
M  V30 4968 H 450.344 4.57984 4.63782 0
M  V30 4969 N 453.777 0.010035 1.57597 0
M  V30 4970 C 454.727 -0.986858 2.05536 0
M  V30 4971 C 455.711 -1.29711 0.952042 0
M  V30 4972 O 456.903 -1.28641 1.21575 0
M  V30 4973 C 454.032 -2.2756 2.57043 0
M  V30 4974 C 453.118 -1.99455 3.74271 0
M  V30 4975 N 453.509 -1.41546 4.85591 0
M  V30 4976 C 451.807 -2.29547 3.82393 0
M  V30 4977 C 452.508 -1.3014 5.66956 0
M  V30 4978 N 451.484 -1.79044 5.13268 0
M  V30 4979 H 455.286 -0.533778 2.89012 0
M  V30 4980 H 452.8 -0.195432 1.6122 0
M  V30 4981 H 454.797 -2.99829 2.89669 0
M  V30 4982 H 453.457 -2.73512 1.7499 0
M  V30 4983 H 454.468 -1.09294 5.06236 0
M  V30 4984 H 451.145 -2.78304 3.11213 0
M  V30 4985 H 452.535 -0.855237 6.66435 0
M  V30 4986 N 455.255 -1.55392 -0.262866 0
M  V30 4987 C 456.185 -1.91978 -1.32917 0
M  V30 4988 C 457.166 -0.7828 -1.51017 0
M  V30 4989 O 458.351 -1.04178 -1.63892 0
M  V30 4990 C 455.481 -2.20055 -2.68687 0
M  V30 4991 C 454.435 -3.35854 -2.65304 0
M  V30 4992 C 453.761 -3.49435 -4.04721 0
M  V30 4993 C 455.061 -4.71977 -2.23685 0
M  V30 4994 H 456.755 -2.81292 -1.02544 0
M  V30 4995 H 454.301 -1.3534 -0.491846 0
M  V30 4996 H 456.254 -2.44237 -3.43404 0
M  V30 4997 H 454.978 -1.27551 -3.00663 0
M  V30 4998 H 453.637 -3.11655 -1.93045 0
M  V30 4999 H 453.285 -2.54379 -4.33936 0
M  V30 5000 H 452.985 -4.27297 -4.0335 0
M  V30 5001 H 454.509 -3.7592 -4.81161 0
M  V30 5002 H 455.923 -4.95637 -2.88127 0
M  V30 5003 H 454.32 -5.52828 -2.33456 0
M  V30 5004 H 455.39 -4.70115 -1.18827 0
M  V30 5005 N 456.733 0.527833 -1.48498 0
M  V30 5006 C 457.665 1.6482 -1.5927 0
M  V30 5007 C 458.678 1.55659 -0.476869 0
M  V30 5008 O 459.867 1.62081 -0.747806 0
M  V30 5009 C 456.967 3.0348 -1.50842 0
M  V30 5010 C 456.14 3.381 -2.77502 0
M  V30 5011 C 455.199 4.5605 -2.62497 0
M  V30 5012 O 454.225 4.59165 -3.36387 0
M  V30 5013 N 455.427 5.54353 -1.72257 0
M  V30 5014 H 458.192 1.56015 -2.55889 0
M  V30 5015 H 455.753 0.715152 -1.45249 0
M  V30 5016 H 457.745 3.80264 -1.38496 0
M  V30 5017 H 456.315 3.06352 -0.621887 0
M  V30 5018 H 455.535 2.50473 -3.04396 0
M  V30 5019 H 456.823 3.58017 -3.61527 0
M  V30 5020 H 456.221 5.54617 -1.11431 0
M  V30 5021 H 454.778 6.30347 -1.65849 0
M  V30 5022 N 458.211 1.37122 0.776871 0
M  V30 5023 C 459.436 1.354 1.57104 0
M  V30 5024 C 459.861 -0.0595562 1.88006 0
M  V30 5025 O 459.219 -1.03514 1.48844 0
M  V30 5026 C 459.267 2.19472 2.8612 0
M  V30 5027 O 458.371 1.59582 3.80273 0
M  V30 5028 H 457.712 0.462869 0.476076 0
M  V30 5029 H 460.242 1.80577 0.961932 0
M  V30 5030 H 460.252 2.32502 3.35271 0
M  V30 5031 H 458.927 3.22222 2.62956 0
M  V30 5032 H 457.504 1.55564 3.38902 0
M  V30 5033 N 459.689 -1.00246 1.21608 0
M  V30 5034 C 460.652 -2.07233 0.979133 0
M  V30 5035 C 461.652 -1.6072 -0.0508219 0
M  V30 5036 O 462.842 -1.73196 0.186712 0
M  V30 5037 C 459.974 -3.37546 0.477016 0
M  V30 5038 H 461.167 -2.29687 1.92831 0
M  V30 5039 H 458.72 -1.17261 1.03342 0
M  V30 5040 H 459.455 -3.20773 -0.476966 0
M  V30 5041 H 459.24 -3.72638 1.21997 0
M  V30 5042 H 460.73 -4.16285 0.331181 0
M  V30 5043 N 461.167 -1.02423 -1.1978 0
M  V30 5044 C 462.444 -0.632802 -1.85081 0
M  V30 5045 C 462.824 0.888745 -1.9148 0
M  V30 5046 O 462.172 1.78357 -1.42832 0
M  V30 5047 C 462.382 -1.28947 -3.24305 0
M  V30 5048 C 463.73 -1.40976 -4.00513 0
M  V30 5049 O 464.754 -1.24628 -3.33686 0
M  V30 5050 O 463.613 -1.67467 -5.20209 0
M  V30 5051 H 460.707 -0.219348 -0.79738 0
M  V30 5052 H 463.253 -1.12209 -1.27307 0
M  V30 5053 H 462.025 -2.3288 -3.14456 0
M  V30 5054 H 461.648 -0.787748 -3.89718 0
M  V30 5055 N 462.645 1.35699 -0.801477 0
M  V30 5056 C 463.577 2.28598 -0.166028 0
M  V30 5057 C 464.59 1.50044 0.631721 0
M  V30 5058 O 465.779 1.72339 0.464921 0
M  V30 5059 C 462.879 3.29625 0.787451 0
M  V30 5060 C 462.052 4.37384 0.037171 0
M  V30 5061 C 461.111 5.183 0.908375 0
M  V30 5062 O 460.137 5.68053 0.361189 0
M  V30 5063 N 461.339 5.35912 2.23112 0
M  V30 5064 H 464.104 2.83771 -0.964071 0
M  V30 5065 H 461.665 1.47994 -0.656469 0
M  V30 5066 H 463.657 3.80648 1.37439 0
M  V30 5067 H 462.227 2.75004 1.48632 0
M  V30 5068 H 461.447 3.87364 -0.730935 0
M  V30 5069 H 462.735 5.0653 -0.480109 0
M  V30 5070 H 462.133 4.97125 2.69968 0
M  V30 5071 H 460.69 5.90133 2.76741 0
M  V30 5072 N 464.123 0.554532 1.47522 0
M  V30 5073 C 465.372 0.0273458 2.01681 0
M  V30 5074 C 465.685 -1.32962 1.43459 0
M  V30 5075 O 466.891 -1.94657 1.89265 0
M  V30 5076 C 465.347 -0.00159057 3.599 0
M  V30 5077 C 464.955 1.35197 4.27113 0
M  V30 5078 C 466.699 -0.476311 4.21819 0
M  V30 5079 C 464.606 1.28229 5.77331 0
M  V30 5080 H 463.536 0.00645269 0.753972 0
M  V30 5081 H 466.187 0.701985 1.69542 0
M  V30 5082 H 464.569 -0.741821 3.8899 0
M  V30 5083 H 465.743 2.1097 4.09668 0
M  V30 5084 H 464.058 1.76441 3.77171 0
M  V30 5085 H 466.655 -0.5468 5.31897 0
M  V30 5086 H 466.998 -1.4877 3.8881 0
M  V30 5087 H 467.531 0.20898 3.97251 0
M  V30 5088 H 464.27 2.26959 6.14955 0
M  V30 5089 H 463.79 0.566314 5.97121 0
M  V30 5090 H 465.469 0.983226 6.39485 0
M  V30 5091 N 465.601 -1.54893 0.290851 0
M  V30 5092 C 466.548 -2.23138 -0.58974 0
M  V30 5093 C 467.518 -1.21036 -1.13752 0
M  V30 5094 O 468.703 -1.49626 -1.18392 0
M  V30 5095 C 465.843 -2.96811 -1.76061 0
M  V30 5096 C 464.956 -4.13665 -1.24519 0
M  V30 5097 C 464.091 -4.74944 -2.3791 0
M  V30 5098 C 463.13 -5.83963 -1.83451 0
M  V30 5099 N 462.267 -6.39239 -2.90376 0
M  V30 5100 H 467.107 -2.98 -0.00114915 0
M  V30 5101 H 464.644 -1.47096 0.0112006 0
M  V30 5102 H 466.602 -3.37751 -2.44909 0
M  V30 5103 H 465.232 -2.24344 -2.32098 0
M  V30 5104 H 464.284 -3.77737 -0.449288 0
M  V30 5105 H 465.596 -4.92238 -0.806424 0
M  V30 5106 H 464.75 -5.18684 -3.14724 0
M  V30 5107 H 463.489 -3.95682 -2.85109 0
M  V30 5108 H 462.494 -5.39657 -1.05122 0
M  V30 5109 H 463.719 -6.65103 -1.37169 0
M  V30 5110 H 461.665 -5.62864 -3.36927 0
M  V30 5111 H 461.582 -7.13129 -2.50965 0
M  V30 5112 H 462.85 -6.87637 -3.67118 0
M  V30 5113 N 467.08 -0.0183926 -1.57589 0
M  V30 5114 C 468.496 0.337897 -1.55982 0
M  V30 5115 C 468.696 1.73604 -1.02294 0
M  V30 5116 O 467.752 2.43589 -0.664895 0
M  V30 5117 C 469.065 0.196305 -3.00059 0
M  V30 5118 C 470.613 0.269875 -3.11834 0
M  V30 5119 C 471.088 0.157197 -4.5773 0
M  V30 5120 N 472.579 0.214521 -4.62703 0
M  V30 5121 C 473.314 0.150955 -5.73201 0
M  V30 5122 N 472.81 0.0369212 -6.9279 0
M  V30 5123 N 474.603 0.204162 -5.61729 0
M  V30 5124 H 466.754 -0.93279 -1.90821 0
M  V30 5125 H 469.017 -0.359253 -0.877292 0
M  V30 5126 H 468.723 -0.766383 -3.43248 0
M  V30 5127 H 468.597 0.970908 -3.6449 0
M  V30 5128 H 470.984 1.22302 -2.68563 0
M  V30 5129 H 471.065 -0.534918 -2.50144 0
M  V30 5130 H 470.709 -0.792479 -5.01679 0
M  V30 5131 H 470.639 0.980717 -5.17387 0
M  V30 5132 H 473.13 0.303238 -3.76681 0
M  V30 5133 H 473.443 -0.00518321 -7.728 0
M  V30 5134 H 471.788 0.0022886 -6.95 0
M  V30 5135 H 474.979 0.291575 -4.67191 0
M  V30 5136 H 475.152 0.15116 -6.47824 0
M  V30 5137 N 468.558 1.5553 0.254621 0
M  V30 5138 C 469.508 1.86057 1.31783 0
M  V30 5139 C 470.492 0.720827 1.4385 0
M  V30 5140 O 471.684 0.982586 1.47222 0
M  V30 5141 C 468.813 2.15203 2.67475 0
M  V30 5142 C 467.899 3.35484 2.59444 0
M  V30 5143 N 468.29 4.54945 2.2104 0
M  V30 5144 C 466.588 3.38441 2.90472 0
M  V30 5145 C 467.289 5.3707 2.23453 0
M  V30 5146 N 466.265 4.75936 2.62652 0
M  V30 5147 H 470.067 2.75953 1.01129 0
M  V30 5148 H 467.581 1.55653 0.463255 0
M  V30 5149 H 469.578 2.35235 3.44195 0
M  V30 5150 H 468.238 1.26601 2.99002 0
M  V30 5151 H 469.249 4.8071 1.92712 0
M  V30 5152 H 465.926 2.60087 3.2659 0
M  V30 5153 H 467.316 6.42626 1.96166 0
M  V30 5154 N 470.036 -0.519951 1.48776 0
M  V30 5155 C 471.266 -1.29783 1.60748 0
M  V30 5156 C 471.674 -1.87253 0.27072 0
M  V30 5157 O 471.017 -1.67628 -0.751438 0
M  V30 5158 C 471.079 -2.47984 2.60277 0
M  V30 5159 C 470.743 -2.11526 4.051 0
M  V30 5160 C 471.74 -1.66608 4.92481 0
M  V30 5161 C 469.425 -2.21742 4.50706 0
M  V30 5162 C 471.419 -1.32384 6.23501 0
M  V30 5163 C 469.106 -1.87129 5.81744 0
M  V30 5164 C 470.104 -1.42523 6.67964 0
M  V30 5165 O 469.792 -1.0837 7.96562 0
M  V30 5166 H 469.524 -0.400562 0.544542 0
M  V30 5167 H 472.078 -0.632879 1.95407 0
M  V30 5168 H 470.308 -3.17493 2.2076 0
M  V30 5169 H 471.997 -3.10036 2.61978 0
M  V30 5170 H 472.763 -1.58178 4.58481 0
M  V30 5171 H 468.642 -2.55415 3.83776 0
M  V30 5172 H 472.186 -0.974949 6.90754 0
M  V30 5173 H 468.083 -1.95204 6.15277 0
M  V30 5174 H 468.851 -1.21681 8.09405 0
M  V30 5175 N 471.514 -1.37532 -0.769588 0
M  V30 5176 C 472.791 -1.23392 -1.51768 0
M  V30 5177 C 473.171 0.17157 -2.10402 0
M  V30 5178 O 472.519 1.17943 -1.95708 0
M  V30 5179 C 472.729 -2.33163 -2.59685 0
M  V30 5180 C 474.077 -2.70809 -3.27028 0
M  V30 5181 O 475.101 -2.32355 -2.69981 0
M  V30 5182 O 473.96 -3.37066 -4.30173 0
M  V30 5183 H 471.054 -0.481617 -0.67229 0
M  V30 5184 H 473.6 -1.49318 -0.806368 0
M  V30 5185 H 472.372 -3.27273 -2.14494 0
M  V30 5186 H 471.995 -2.08713 -3.38415 0
M  V30 5187 N 472.992 0.995999 -1.22138 0
M  V30 5188 C 474.217 1.77601 -1.0711 0
M  V30 5189 C 474.642 1.84339 0.374264 0
M  V30 5190 O 474 1.29359 1.27028 0
M  V30 5191 C 474.048 3.18897 -1.68336 0
M  V30 5192 O 473.152 4.01663 -0.934928 0
M  V30 5193 H 472.493 0.547011 -0.376397 0
M  V30 5194 H 475.023 1.25137 -1.6187 0
M  V30 5195 H 475.033 3.69539 -1.72931 0
M  V30 5196 H 473.708 3.13308 -2.73516 0
M  V30 5197 H 472.285 3.60204 -0.964751 0
M  V30 5198 N 474.47 1.03057 1.19235 0
M  V30 5199 C 475.417 0.612832 2.22515 0
M  V30 5200 C 476.387 -0.374224 1.61829 0
M  V30 5201 O 477.572 -0.270501 1.88873 0
M  V30 5202 C 474.712 -0.028475 3.45088 0
M  V30 5203 C 473.825 1.00483 4.20151 0
M  V30 5204 C 472.96 0.333102 5.30155 0
M  V30 5205 C 471.999 1.3522 5.96977 0
M  V30 5206 N 471.136 0.70616 6.9854 0
M  V30 5207 H 475.976 1.49812 2.57605 0
M  V30 5208 H 473.513 0.749658 1.26564 0
M  V30 5209 H 475.471 -0.417548 4.15105 0
M  V30 5210 H 474.101 -0.877334 3.10649 0
M  V30 5211 H 473.153 1.51194 3.49062 0
M  V30 5212 H 474.465 1.77929 4.65986 0
M  V30 5213 H 473.619 -0.110725 6.06599 0
M  V30 5214 H 472.358 -0.473547 4.85396 0
M  V30 5215 H 471.363 1.80627 5.19282 0
M  V30 5216 H 472.588 2.16037 6.4382 0
M  V30 5217 H 470.534 -0.0803667 6.55951 0
M  V30 5218 H 470.451 1.41848 7.42573 0
M  V30 5219 H 471.719 0.286391 7.78974 0
M  V30 5220 N 475.948 -1.35272 0.808662 0
M  V30 5221 C 477.225 -1.93077 0.313181 0
M  V30 5222 C 477.605 -1.73847 -1.19752 0
M  V30 5223 O 476.953 -1.1087 -1.998 0
M  V30 5224 C 477.163 -3.41347 0.726859 0
M  V30 5225 C 478.511 -4.18493 0.717532 0
M  V30 5226 O 479.535 -3.4987 0.668535 0
M  V30 5227 O 478.394 -5.40937 0.777779 0
M  V30 5228 H 475.488 -0.822885 0.0824018 0
M  V30 5229 H 478.034 -1.44335 0.892499 0
M  V30 5230 H 476.806 -3.49082 1.76797 0
M  V30 5231 H 476.429 -3.97411 0.122461 0
M  V30 5232 N 477.426 -0.562348 -1.47226 0
M  V30 5233 C 478.389 0.172056 -2.28553 0
M  V30 5234 C 479.389 0.837928 -1.37242 0
M  V30 5235 O 480.579 0.693001 -1.59822 0
M  V30 5236 C 477.711 1.25223 -3.17068 0
M  V30 5237 H 478.904 -0.542401 -2.94954 0
M  V30 5238 H 476.457 -0.319493 -1.53 0
M  V30 5239 H 477.192 1.99892 -2.55369 0
M  V30 5240 H 476.977 0.779515 -3.84273 0
M  V30 5241 H 478.467 1.76791 -3.78332 0
M  V30 5242 N 478.904 1.54736 -0.299062 0
M  V30 5243 C 479.814 2.27127 0.587413 0
M  V30 5244 C 480.83 1.30575 1.15005 0
M  V30 5245 O 482.006 1.63554 1.17525 0
M  V30 5246 C 479.071 2.99645 1.74395 0
M  V30 5247 C 478.132 4.11731 1.21559 0
M  V30 5248 C 477.365 4.80781 2.317 0
M  V30 5249 O 477.588 4.4918 3.51558 0
M  V30 5250 O 476.522 5.68226 1.98501 0
M  V30 5251 H 480.348 3.037 0.000250109 0
M  V30 5252 H 477.933 1.49256 -0.0655919 0
M  V30 5253 H 479.815 3.45138 2.4178 0
M  V30 5254 H 478.49 2.25969 2.31775 0
M  V30 5255 H 477.397 3.70641 0.507514 0
M  V30 5256 H 478.73 4.87379 0.687233 0
M  V30 5257 N 480.382 0.0267497 1.57577 0
M  V30 5258 C 481.63 -0.651116 1.91324 0
M  V30 5259 C 481.951 -1.72804 0.90353 0
M  V30 5260 O 481.221 -1.95822 -0.0552946 0
M  V30 5261 H 479.801 -0.243491 0.706202 0
M  V30 5262 H 482.463 0.0739935 1.94759 0
M  V30 5263 H 481.559 -1.10536 2.9187 0
M  V30 5264 N 481.861 -1.55662 -0.24637 0
M  V30 5265 C 482.809 -1.91186 -1.3248 0
M  V30 5266 C 483.803 -0.790996 -1.49799 0
M  V30 5267 O 485.009 -0.975617 -1.51267 0
M  V30 5268 H 481.384 -0.607207 -0.443626 0
M  V30 5269 H 483.355 -2.81221 -0.997853 0
M  V30 5270 C 482.104 -2.22349 -2.67313 0
M  V30 5271 H 481.427 -3.08097 -2.54786 0
M  V30 5272 H 482.867 -2.51107 -3.41645 0
M  V30 5273 C 481.326 -1.04001 -3.20446 0
M  V30 5274 O 481.856 -0.28828 -4.00664 0
M  V30 5275 N 480.062 -0.830494 -2.7848 0
M  V30 5276 H 479.609 -1.4435 -2.13356 0
M  V30 5277 H 479.567 -0.0403258 -3.14374 0
M  V30 5278 N 483.339 0.512053 -1.4905 0
M  V30 5279 C 484.286 1.6148 -1.64902 0
M  V30 5280 C 485.256 1.58687 -0.490673 0
M  V30 5281 O 486.441 1.76842 -0.71636 0
M  V30 5282 C 483.581 2.99676 -1.71139 0
M  V30 5283 C 482.694 3.12568 -2.98203 0
M  V30 5284 C 481.829 4.4143 -2.95487 0
M  V30 5285 C 480.868 4.47916 -4.17179 0
M  V30 5286 N 480.005 5.68191 -4.12437 0
M  V30 5287 H 484.845 1.47271 -2.59066 0
M  V30 5288 H 482.382 0.716713 -1.28459 0
M  V30 5289 H 484.34 3.79761 -1.72736 0
M  V30 5290 H 482.97 3.12614 -0.804508 0
M  V30 5291 H 482.022 2.25618 -3.06269 0
M  V30 5292 H 483.334 3.1322 -3.88194 0
M  V30 5293 H 482.488 5.29825 -2.95585 0
M  V30 5294 H 481.227 4.43326 -2.03256 0
M  V30 5295 H 480.232 3.57925 -4.17337 0
M  V30 5296 H 481.457 4.47744 -5.1059 0
M  V30 5297 H 479.403 5.7095 -3.23036 0
M  V30 5298 H 479.32 5.70413 -4.96151 0
M  V30 5299 H 480.588 6.58823 -4.16621 0
M  V30 5300 N 484.817 1.37938 0.762283 0
M  V30 5301 C 486.066 1.32989 1.51647 0
M  V30 5302 C 486.379 -0.0802922 1.95435 0
M  V30 5303 O 487.585 -0.252295 2.70325 0
M  V30 5304 C 486.041 2.33485 2.73885 0
M  V30 5305 C 485.649 3.80079 2.37157 0
M  V30 5306 C 487.393 2.37563 3.51801 0
M  V30 5307 C 485.3 4.72283 3.55954 0
M  V30 5308 H 484.23 0.494301 0.56937 0
M  V30 5309 H 486.881 1.63448 0.834083 0
M  V30 5310 H 485.263 1.96056 3.44061 0
M  V30 5311 H 486.437 4.26398 1.74704 0
M  V30 5312 H 484.752 3.79037 1.72395 0
M  V30 5313 H 487.349 3.0365 4.40114 0
M  V30 5314 H 487.692 1.39199 3.92338 0
M  V30 5315 H 488.225 2.73747 2.8863 0
M  V30 5316 H 484.964 5.7181 3.2049 0
M  V30 5317 H 484.484 4.30663 4.1748 0
M  V30 5318 H 486.163 4.89876 4.22647 0
M  V30 5319 N 486.295 -0.989507 1.22664 0
M  V30 5320 C 487.706 -1.54406 1.04955 0
M  V30 5321 C 488.057 -1.92366 -0.385951 0
M  V30 5322 O 487.182 -1.75111 -1.27142 0
M  V30 5323 C 487.777 -2.80578 1.89899 0
M  V30 5324 C 486.336 -3.32464 1.76478 0
M  V30 5325 C 485.483 -2.05524 1.86159 0
M  V30 5326 H 488.434 -0.810211 1.3646 0
M  V30 5327 H 488.455 -3.53075 1.4184 0
M  V30 5328 H 487.967 -2.52918 2.94371 0
M  V30 5329 H 486.068 -3.65024 0.747528 0
M  V30 5330 H 486.181 -4.02838 2.59342 0
M  V30 5331 H 484.545 -2.19241 1.29636 0
M  V30 5332 H 485.328 -1.80258 2.92168 0
M  V30 5333 N 487.773 -1.03688 -1.18687 0
M  V30 5334 C 488.703 -0.645407 -2.24403 0
M  V30 5335 C 489.684 0.349511 -1.66471 0
M  V30 5336 O 490.869 0.230453 -1.92828 0
M  V30 5337 C 487.999 -0.00365337 -3.473 0
M  V30 5338 C 486.953 -0.921705 -4.17958 0
M  V30 5339 C 486.279 -0.144629 -5.34504 0
M  V30 5340 C 487.579 -2.23909 -4.71871 0
M  V30 5341 H 489.273 -1.52917 -2.57404 0
M  V30 5342 H 486.819 -0.736711 -1.23728 0
M  V30 5343 H 488.772 0.281908 -4.20456 0
M  V30 5344 H 487.496 0.914963 -3.13522 0
M  V30 5345 H 486.155 -1.19159 -3.46694 0
M  V30 5346 H 485.803 0.776274 -4.96974 0
M  V30 5347 H 485.503 -0.756206 -5.82714 0
M  V30 5348 H 487.027 0.134004 -6.10453 0
M  V30 5349 H 488.441 -2.0145 -5.36741 0
M  V30 5350 H 486.838 -2.8033 -5.30599 0
M  V30 5351 H 487.908 -2.88822 -3.895 0
M  V30 5352 N 489.251 1.34841 -0.815825 0
M  V30 5353 C 490.528 1.92908 -0.323416 0
M  V30 5354 C 490.908 1.74479 1.18828 0
M  V30 5355 O 490.256 1.11928 1.99209 0
M  V30 5356 C 490.466 3.40957 -0.744952 0
M  V30 5357 C 491.814 4.18107 -0.739716 0
M  V30 5358 O 492.838 3.49511 -0.68708 0
M  V30 5359 O 491.697 5.40517 -0.806456 0
M  V30 5360 H 488.791 0.822436 -0.0867646 0
M  V30 5361 H 491.337 1.4386 -0.90014 0
M  V30 5362 H 490.109 3.4814 -1.78646 0
M  V30 5363 H 489.732 3.97341 -0.143535 0
M  V30 5364 N 490.729 0.570148 1.46925 0
M  V30 5365 C 491.676 -0.170257 2.30171 0
M  V30 5366 C 492.646 -0.896099 1.39855 0
M  V30 5367 O 493.831 -0.889248 1.68811 0
M  V30 5368 C 490.971 -1.18605 3.24079 0
M  V30 5369 C 490.084 -0.464947 4.29491 0
M  V30 5370 C 489.219 -1.46716 5.10537 0
M  V30 5371 C 488.258 -0.731758 6.0771 0
M  V30 5372 N 487.395 -1.68142 6.81669 0
M  V30 5373 H 492.235 0.545713 2.92961 0
M  V30 5374 H 489.772 0.280938 1.44392 0
M  V30 5375 H 491.73 -1.78771 3.76957 0
M  V30 5376 H 490.36 -1.86989 2.63125 0
M  V30 5377 H 489.412 0.251506 3.79568 0
M  V30 5378 H 490.724 0.110548 4.98677 0
M  V30 5379 H 489.878 -2.14199 5.6763 0
M  V30 5380 H 488.617 -2.07658 4.41282 0
M  V30 5381 H 487.622 -0.0430787 5.49783 0
M  V30 5382 H 488.847 -0.127904 6.7898 0
M  V30 5383 H 486.793 -2.27918 6.15134 0
M  V30 5384 H 486.71 -1.15841 7.47072 0
M  V30 5385 H 487.978 -2.347 7.43328 0
M  V30 5386 N 492.207 -1.54576 0.307264 0
M  V30 5387 C 493.454 -2.00263 -0.300167 0
M  V30 5388 C 493.782 -1.19561 -1.53413 0
M  V30 5389 O 493.037 -0.261487 -1.93945 0
M  V30 5390 C 493.336 -3.50572 -0.695253 0
M  V30 5391 C 493.002 -4.48771 0.437679 0
M  V30 5392 C 491.664 -4.7534 0.748681 0
M  V30 5393 C 494.016 -5.0721 1.19949 0
M  V30 5394 C 491.344 -5.5761 1.8245 0
M  V30 5395 C 493.696 -5.90651 2.26527 0
M  V30 5396 C 492.36 -6.15528 2.58227 0
M  V30 5397 H 491.63 -0.732814 -0.109839 0
M  V30 5398 H 494.277 -1.86664 0.427661 0
M  V30 5399 H 492.582 -3.61814 -1.50326 0
M  V30 5400 H 494.279 -3.83352 -1.17653 0
M  V30 5401 H 490.869 -4.282 0.185187 0
M  V30 5402 H 495.053 -4.86679 0.972474 0
M  V30 5403 H 490.309 -5.75121 2.07476 0
M  V30 5404 H 494.483 -6.34957 2.86011 0
M  V30 5405 H 492.11 -6.79066 3.4172 0
M  V30 5406 N 493.685 -0.035106 -1.57561 0
M  V30 5407 C 494.632 0.94474 -2.10578 0
M  V30 5408 C 495.602 1.3192 -1.00927 0
M  V30 5409 O 496.787 1.41147 -1.28382 0
M  V30 5410 C 493.927 2.21982 -2.64231 0
M  V30 5411 C 493.04 1.90128 -3.87911 0
M  V30 5412 C 492.175 3.11975 -4.29936 0
M  V30 5413 C 491.214 2.75968 -5.46359 0
M  V30 5414 N 490.351 3.90459 -5.83512 0
M  V30 5415 H 495.191 0.485717 -2.94015 0
M  V30 5416 H 492.728 0.228143 -1.4532 0
M  V30 5417 H 494.686 2.96572 -2.9343 0
M  V30 5418 H 493.316 2.6549 -1.83616 0
M  V30 5419 H 492.368 1.05755 -3.65404 0
M  V30 5420 H 493.68 1.59613 -4.72573 0
M  V30 5421 H 492.834 3.9488 -4.60603 0
M  V30 5422 H 491.573 3.45657 -3.44053 0
M  V30 5423 H 490.578 1.91478 -5.1538 0
M  V30 5424 H 491.803 2.43497 -6.33945 0
M  V30 5425 H 489.749 4.23971 -5.00584 0
M  V30 5426 H 489.666 3.63588 -6.62827 0
M  V30 5427 H 490.934 4.7405 -6.18787 0
M  V30 5428 N 495.163 1.55791 0.238111 0
M  V30 5429 C 496.11 1.9105 1.29493 0
M  V30 5430 C 497.08 0.765733 1.47397 0
M  V30 5431 O 498.265 1.02017 1.61236 0
M  V30 5432 C 495.405 2.21826 2.64362 0
M  V30 5433 C 494.518 3.49153 2.54394 0
M  V30 5434 C 493.653 3.69455 3.81676 0
M  V30 5435 C 492.692 4.90353 3.66361 0
M  V30 5436 N 491.829 5.07131 4.85554 0
M  V30 5437 H 496.669 2.81172 0.987233 0
M  V30 5438 H 494.206 1.39179 0.476203 0
M  V30 5439 H 496.164 2.37675 3.4288 0
M  V30 5440 H 494.794 1.34897 2.93262 0
M  V30 5441 H 493.846 3.41587 1.67399 0
M  V30 5442 H 495.158 4.37818 2.38991 0
M  V30 5443 H 494.312 3.85311 4.68636 0
M  V30 5444 H 493.051 2.7904 3.99985 0
M  V30 5445 H 492.056 4.74464 2.77784 0
M  V30 5446 H 493.281 5.82237 3.49538 0
M  V30 5447 H 491.227 4.19654 5.04209 0
M  V30 5448 H 491.144 5.89899 4.72816 0
M  V30 5449 H 492.412 5.27407 5.73988 0
M  V30 5450 N 496.642 -0.504142 1.49319 0
M  V30 5451 C 497.552 -1.63248 1.68486 0
M  V30 5452 C 498.568 -1.64488 0.567432 0
M  V30 5453 O 499.744 -1.82966 0.841749 0
M  V30 5454 C 496.809 -2.99627 1.74426 0
M  V30 5455 C 495.87 -3.09039 2.97982 0
M  V30 5456 C 495.103 -4.38913 3.0363 0
M  V30 5457 O 495.326 -5.27528 2.16958 0
M  V30 5458 O 494.26 -4.53231 3.96062 0
M  V30 5459 H 498.086 -1.50008 2.64067 0
M  V30 5460 H 495.671 -0.680086 1.33023 0
M  V30 5461 H 497.553 -3.80689 1.80705 0
M  V30 5462 H 496.228 -3.13136 0.820233 0
M  V30 5463 H 495.135 -2.27177 2.97223 0
M  V30 5464 H 496.468 -3.00456 3.89855 0
M  V30 5465 N 498.12 -1.38341 -0.754957 0
M  V30 5466 C 499.368 -1.34208 -1.51105 0
M  V30 5467 C 499.689 0.0677634 -1.94882 0
M  V30 5468 O 498.959 1.01517 -1.67544 0
M  V30 5469 H 497.539 -0.493819 -0.560493 0
M  V30 5470 H 500.201 -1.73005 -0.897507 0
M  V30 5471 H 499.297 -1.99203 -2.4026 0
M  V30 5472 N 499.598 0.982988 -1.23187 0
M  V30 5473 C 500.545 2.07491 -1.01075 0
M  V30 5474 C 501.515 1.65949 0.070905 0
M  V30 5475 O 502.7 1.90629 -0.0806822 0
M  V30 5476 C 499.84 3.39751 -0.605261 0
M  V30 5477 C 498.953 3.94578 -1.75876 0
M  V30 5478 C 498.088 5.15039 -1.3003 0
M  V30 5479 C 497.127 5.62027 -2.42472 0
M  V30 5480 N 496.264 6.73719 -1.97602 0
M  V30 5481 H 501.104 2.25739 -1.9454 0
M  V30 5482 H 498.641 1.10659 -0.969179 0
M  V30 5483 H 500.599 4.15719 -0.351279 0
M  V30 5484 H 499.229 3.21473 0.292382 0
M  V30 5485 H 498.281 3.1539 -2.12681 0
M  V30 5486 H 499.593 4.25422 -2.60418 0
M  V30 5487 H 498.747 5.9833 -1.00429 0
M  V30 5488 H 497.486 4.85843 -0.425216 0
M  V30 5489 H 496.491 4.77318 -2.7285 0
M  V30 5490 H 497.716 5.93244 -3.30512 0
M  V30 5491 H 495.662 6.46287 -1.1247 0
M  V30 5492 H 495.579 7.03934 -2.75705 0
M  V30 5493 H 496.847 7.6049 -1.71098 0
M  V30 5494 N 501.076 1.04316 1.18135 0
M  V30 5495 C 501.986 0.646876 2.25505 0
M  V30 5496 C 503.002 -0.328008 1.7088 0
M  V30 5497 O 504.178 -0.182309 2.00573 0
M  V30 5498 C 501.243 0.0185664 3.46695 0
M  V30 5499 C 500.304 1.04277 4.16443 0
M  V30 5500 C 499.537 0.444352 5.31847 0
M  V30 5501 O 499.76 -0.748735 5.65465 0
M  V30 5502 O 498.694 1.17428 5.90334 0
M  V30 5503 H 502.52 1.54147 2.61672 0
M  V30 5504 H 500.105 0.814188 1.25265 0
M  V30 5505 H 501.987 -0.331068 4.20097 0
M  V30 5506 H 500.662 -0.849814 3.12346 0
M  V30 5507 H 499.569 1.44425 3.45098 0
M  V30 5508 H 500.902 1.882 4.54798 0
M  V30 5509 N 502.554 -1.34406 0.822964 0
M  V30 5510 C 503.501 -2.29519 0.24284 0
M  V30 5511 C 504.471 -1.5359 -0.632397 0
M  V30 5512 O 505.656 -1.8196 -0.57403 0
M  V30 5513 C 502.796 -3.40032 -0.58925 0
M  V30 5514 C 501.909 -4.30899 0.308236 0
M  V30 5515 C 501.044 -5.28515 -0.533425 0
M  V30 5516 C 500.083 -6.1102 0.363444 0
M  V30 5517 N 499.22 -7.00725 -0.439147 0
M  V30 5518 H 504.06 -2.78537 1.05929 0
M  V30 5519 H 501.597 -1.3707 0.533872 0
M  V30 5520 H 503.555 -4.0279 -1.087 0
M  V30 5521 H 502.185 -2.92248 -1.37081 0
M  V30 5522 H 501.237 -3.69002 0.924203 0
M  V30 5523 H 502.549 -4.88717 0.997862 0
M  V30 5524 H 501.703 -5.96725 -1.09565 0
M  V30 5525 H 500.442 -4.71235 -1.25656 0
M  V30 5526 H 499.447 -5.41743 0.937812 0
M  V30 5527 H 500.672 -6.70381 1.08469 0
M  V30 5528 H 498.618 -6.45913 -1.14595 0
M  V30 5529 H 498.535 -7.55756 0.19209 0
M  V30 5530 H 499.803 -7.73263 -0.984124 0
M  V30 5531 N 504.032 -0.577932 -1.46621 0
M  V30 5532 C 505.262 -0.0670668 -2.06491 0
M  V30 5533 C 505.67 1.24119 -1.42798 0
M  V30 5534 O 505.013 1.76016 -0.525759 0
M  V30 5535 C 505.075 0.177995 -3.59059 0
M  V30 5536 C 504.739 -1.04394 -4.44917 0
M  V30 5537 C 505.736 -1.95479 -4.81751 0
M  V30 5538 C 503.421 -1.26444 -4.86125 0
M  V30 5539 C 505.415 -3.06965 -5.58615 0
M  V30 5540 C 503.102 -2.38237 -5.62749 0
M  V30 5541 C 504.1 -3.28327 -5.98908 0
M  V30 5542 O 503.788 -4.38179 -6.73984 0
M  V30 5543 H 503.52 -0.0523159 -0.673973 0
M  V30 5544 H 506.074 -0.796966 -1.89308 0
M  V30 5545 H 504.304 0.962451 -3.74531 0
M  V30 5546 H 505.993 0.636782 -4.00874 0
M  V30 5547 H 506.759 -1.79657 -4.50498 0
M  V30 5548 H 502.638 -0.572316 -4.57434 0
M  V30 5549 H 506.182 -3.77309 -5.86757 0
M  V30 5550 H 502.079 -2.54023 -5.93416 0
M  V30 5551 H 502.847 -4.36486 -6.92403 0
M  V30 5552 N 505.51 1.54411 -0.315457 0
M  V30 5553 C 506.75 2.02329 0.290236 0
M  V30 5554 C 507.114 1.19878 1.49977 0
M  V30 5555 O 508.315 1.57562 2.17779 0
M  V30 5556 C 506.586 3.51912 0.623937 0
M  V30 5557 S 508.145 4.21775 1.21044 0
M  V30 5558 H 504.963 0.705499 0.0882739 0
M  V30 5559 H 507.565 1.90328 -0.446694 0
M  V30 5560 H 506.269 4.09546 -0.264624 0
M  V30 5561 H 505.8 3.67977 1.39128 0
M  V30 5562 H 507.815 4.28757 2.49764 0
M  V30 5563 N 506.988 0.0434614 1.5754 0
M  V30 5564 C 508.399 -0.493343 1.80064 0
M  V30 5565 C 508.75 -1.71388 0.955023 0
M  V30 5566 O 507.875 -2.15736 0.169434 0
M  V30 5567 C 508.47 -0.90179 3.26578 0
M  V30 5568 C 507.029 -1.38362 3.50047 0
M  V30 5569 C 506.176 -0.355129 2.75017 0
M  V30 5570 H 509.127 0.2694 1.56397 0
M  V30 5571 H 509.148 -1.76523 3.37075 0
M  V30 5572 H 508.66 -0.013271 3.88098 0
M  V30 5573 H 506.761 -2.29159 2.93798 0
M  V30 5574 H 506.874 -1.3811 4.58762 0
M  V30 5575 H 505.238 -0.826348 2.40922 0
M  V30 5576 H 506.021 0.525172 3.39259 0
M  V30 5577 N 508.466 -1.55915 -0.229846 0
M  V30 5578 C 509.413 -1.91734 -1.28478 0
M  V30 5579 C 510.383 -0.773539 -1.46988 0
M  V30 5580 O 511.568 -1.02871 -1.60693 0
M  V30 5581 C 508.708 -2.23224 -2.63182 0
M  V30 5582 C 507.821 -3.50497 -2.52539 0
M  V30 5583 C 506.956 -3.71474 -3.79711 0
M  V30 5584 C 505.995 -4.92289 -3.63755 0
M  V30 5585 N 505.132 -5.09698 -4.82858 0
M  V30 5586 H 509.972 -2.81692 -0.972308 0
M  V30 5587 H 507.509 -1.39429 -0.468815 0
M  V30 5588 H 509.467 -2.3949 -3.41614 0
M  V30 5589 H 508.097 -1.36451 -2.92542 0
M  V30 5590 H 507.149 -3.4247 -1.65585 0
M  V30 5591 H 508.461 -4.39079 -2.36666 0
M  V30 5592 H 507.615 -3.87791 -4.66586 0
M  V30 5593 H 506.354 -2.81157 -3.985 0
M  V30 5594 H 505.359 -4.7593 -2.75264 0
M  V30 5595 H 506.584 -5.84083 -3.46445 0
M  V30 5596 H 504.53 -4.22322 -5.01976 0
M  V30 5597 H 504.447 -5.92399 -4.69681 0
M  V30 5598 H 505.715 -5.30443 -5.71183 0
M  V30 5599 N 509.944 0.496216 -1.49584 0
M  V30 5600 C 511.172 1.27394 -1.63029 0
M  V30 5601 C 511.587 1.86344 -0.303569 0
M  V30 5602 O 510.944 1.68057 0.711547 0
M  V30 5603 C 510.995 2.40077 -2.70269 0
M  V30 5604 O 510.716 1.83549 -3.97796 0
M  V30 5605 C 512.217 3.31372 -2.94462 0
M  V30 5606 H 509.437 0.386211 -0.54871 0
M  V30 5607 H 511.981 0.595163 -1.95648 0
M  V30 5608 H 510.136 3.03775 -2.40415 0
M  V30 5609 H 510.55 2.57561 -4.56905 0
M  V30 5610 H 512.024 4.06707 -3.73221 0
M  V30 5611 H 512.501 3.88654 -2.0456 0
M  V30 5612 H 513.107 2.73435 -3.25751 0
M  V30 5613 N 511.423 1.38739 0.74761 0
M  V30 5614 C 512.653 1.3832 1.53464 0
M  V30 5615 C 513.061 -0.0273464 1.8918 0
M  V30 5616 O 512.404 -1.00588 1.53713 0
M  V30 5617 C 512.466 2.18007 2.85855 0
M  V30 5618 C 512.13 3.66762 2.72644 0
M  V30 5619 C 513.127 4.60124 2.42037 0
M  V30 5620 C 510.812 4.10193 2.89909 0
M  V30 5621 C 512.806 5.94897 2.28859 0
M  V30 5622 C 510.493 5.45045 2.7635 0
M  V30 5623 C 511.491 6.37211 2.45869 0
M  V30 5624 O 511.179 7.69581 2.3238 0
M  V30 5625 H 510.911 0.474718 0.481268 0
M  V30 5626 H 513.465 1.83012 0.932518 0
M  V30 5627 H 511.695 1.68043 3.48279 0
M  V30 5628 H 513.384 2.09921 3.47402 0
M  V30 5629 H 514.15 4.27874 2.28361 0
M  V30 5630 H 510.029 3.38797 3.1263 0
M  V30 5631 H 513.573 6.66802 2.04989 0
M  V30 5632 H 509.47 5.76889 2.89601 0
M  V30 5633 H 510.238 7.80169 2.47546 0
M  V30 5634 N 512.901 -0.976442 1.23707 0
M  V30 5635 C 514.129 -1.75341 1.09833 0
M  V30 5636 C 514.544 -1.8553 -0.349885 0
M  V30 5637 O 513.901 -1.33732 -1.24185 0
M  V30 5638 C 513.952 -3.17833 1.72233 0
M  V30 5639 O 513.673 -3.08167 3.11391 0
M  V30 5640 C 515.174 -4.11906 1.63853 0
M  V30 5641 H 512.394 -0.550137 0.384175 0
M  V30 5642 H 514.938 -1.2265 1.63638 0
M  V30 5643 H 513.093 -3.67538 1.22452 0
M  V30 5644 H 513.507 -3.97897 3.41729 0
M  V30 5645 H 514.981 -5.09579 2.12211 0
M  V30 5646 H 515.458 -4.35109 0.598092 0
M  V30 5647 H 516.064 -3.68107 2.13019 0
M  V30 5648 N 514.379 -1.04941 -1.1758 0
M  V30 5649 C 515.626 -0.757989 -1.87779 0
M  V30 5650 C 515.954 0.714827 -1.80888 0
M  V30 5651 O 515.209 1.53824 -1.20982 0
M  V30 5652 C 515.508 -1.18062 -3.37337 0
M  V30 5653 C 515.174 -2.65521 -3.6443 0
M  V30 5654 C 513.836 -3.05804 -3.71534 0
M  V30 5655 C 516.188 -3.60822 -3.76108 0
M  V30 5656 C 513.516 -4.40256 -3.87803 0
M  V30 5657 C 515.868 -4.95005 -3.93895 0
M  V30 5658 C 514.532 -5.34945 -3.99237 0
M  V30 5659 H 513.802 -0.277368 -0.68713 0
M  V30 5660 H 516.449 -1.31603 -1.39115 0
M  V30 5661 H 514.754 -0.541525 -3.8804 0
M  V30 5662 H 516.451 -0.932368 -3.9001 0
M  V30 5663 H 513.041 -2.33324 -3.59524 0
M  V30 5664 H 517.225 -3.30841 -3.69943 0
M  V30 5665 H 512.481 -4.70707 -3.90186 0
M  V30 5666 H 516.655 -5.68746 -4.01872 0
M  V30 5667 H 514.282 -6.39135 -4.11596 0
M  V30 5668 N 515.857 1.33968 -0.830081 0
M  V30 5669 C 517.134 1.92554 -0.343858 0
M  V30 5670 C 517.514 1.7573 1.16971 0
M  V30 5671 O 516.862 1.14035 1.98011 0
M  V30 5672 C 517.072 3.40147 -0.781073 0
M  V30 5673 C 518.42 4.17299 -0.78402 0
M  V30 5674 O 519.444 3.48762 -0.724112 0
M  V30 5675 O 518.303 5.39631 -0.863739 0
M  V30 5676 H 515.397 0.821469 -0.0954827 0
M  V30 5677 H 517.943 1.42897 -0.915348 0
M  V30 5678 H 516.715 3.46225 -1.82329 0
M  V30 5679 H 516.338 3.97166 -0.18567 0
M  V30 5680 N 517.335 0.585699 1.46312 0
M  V30 5681 C 518.612 0.00542031 1.95599 0
M  V30 5682 C 518.992 -1.45619 1.52834 0
M  V30 5683 O 518.34 -2.14759 0.780446 0
M  V30 5684 C 518.55 0.180601 3.48532 0
M  V30 5685 C 519.898 0.049979 4.24571 0
M  V30 5686 O 520.922 0.109589 3.56031 0
M  V30 5687 O 519.781 -0.0832226 5.46437 0
M  V30 5688 H 516.875 -0.0481281 0.825598 0
M  V30 5689 H 519.421 0.654227 1.56582 0
M  V30 5690 H 518.193 1.19657 3.72556 0
M  V30 5691 H 517.816 -0.504498 3.94386 0
M  V30 5692 N 518.813 -1.54241 0.323641 0
M  V30 5693 C 520.061 -2.00174 -0.278359 0
M  V30 5694 C 520.382 -1.2134 -1.52648 0
M  V30 5695 O 519.652 -0.315244 -1.93347 0
M  V30 5696 H 518.232 -0.739463 -0.105845 0
M  V30 5697 H 520.894 -1.89864 0.440204 0
M  V30 5698 H 519.99 -3.07486 -0.5347 0
M  V30 5699 N 520.291 -0.0518155 -1.57515 0
M  V30 5700 C 521.238 0.922352 -2.11569 0
M  V30 5701 C 522.208 1.30842 -1.02321 0
M  V30 5702 O 523.393 1.39778 -1.29872 0
M  V30 5703 C 520.533 2.19167 -2.6657 0
M  V30 5704 C 519.646 1.86003 -3.89906 0
M  V30 5705 C 518.781 3.07398 -4.33221 0
M  V30 5706 C 517.82 2.70158 -5.49255 0
M  V30 5707 N 516.957 3.84248 -5.8762 0
M  V30 5708 H 521.797 0.454506 -2.94514 0
M  V30 5709 H 519.334 0.212718 -1.45554 0
M  V30 5710 H 521.292 2.93443 -2.96559 0
M  V30 5711 H 519.922 2.63528 -1.86421 0
M  V30 5712 H 518.974 1.01874 -3.66505 0
M  V30 5713 H 520.286 1.54592 -4.74239 0
M  V30 5714 H 519.44 3.89972 -4.64765 0
M  V30 5715 H 518.179 3.41988 -3.477 0
M  V30 5716 H 517.184 1.86001 -5.17382 0
M  V30 5717 H 518.409 2.36759 -6.36492 0
M  V30 5718 H 516.355 4.18638 -5.05053 0
M  V30 5719 H 516.272 3.56538 -6.66646 0
M  V30 5720 H 517.54 4.6746 -6.2378 0
M  V30 5721 N 521.769 1.56035 0.221574 0
M  V30 5722 C 523.015 1.79312 0.947372 0
M  V30 5723 C 523.348 0.621453 1.83988 0
M  V30 5724 O 522.623 -0.379287 1.90766 0
M  V30 5725 C 522.906 3.1267 1.78633 0
M  V30 5726 C 522.759 4.40284 0.920312 0
M  V30 5727 C 524.078 3.4247 2.7641 0
M  V30 5728 H 521.197 0.652328 0.342982 0
M  V30 5729 H 523.839 1.88765 0.216244 0
M  V30 5730 H 521.989 3.04741 2.40967 0
M  V30 5731 H 523.661 4.60232 0.313718 0
M  V30 5732 H 521.904 4.33212 0.225734 0
M  V30 5733 H 522.575 5.30033 1.54171 0
M  V30 5734 H 525.051 3.50526 2.24211 0
M  V30 5735 H 523.927 4.3695 3.32213 0
M  V30 5736 H 524.188 2.64635 3.54148 0
M  V30 5737 N 523.247 -0.488276 1.49845 0
M  V30 5738 C 524.496 -1.23826 1.59217 0
M  V30 5739 C 524.809 -1.93439 0.289966 0
M  V30 5740 O 526.015 -2.70229 0.262382 0
M  V30 5741 C 524.471 -2.24902 2.80976 0
M  V30 5742 C 524.079 -1.6117 4.18005 0
M  V30 5743 C 525.823 -3.00648 2.99685 0
M  V30 5744 C 523.73 -2.60431 5.3097 0
M  V30 5745 H 522.66 -0.465858 0.592868 0
M  V30 5746 H 525.311 -0.510645 1.76252 0
M  V30 5747 H 523.693 -3.0088 2.57463 0
M  V30 5748 H 524.867 -0.910968 4.51706 0
M  V30 5749 H 523.182 -0.97767 4.0476 0
M  V30 5750 H 525.779 -3.74903 3.81251 0
M  V30 5751 H 526.122 -3.5902 2.10738 0
M  V30 5752 H 526.655 -2.31784 3.23297 0
M  V30 5753 H 523.394 -2.06823 6.22017 0
M  V30 5754 H 522.914 -3.28707 5.01709 0
M  V30 5755 H 524.593 -3.22606 5.60834 0
M  V30 5756 N 524.725 -1.39134 -0.740242 0
M  V30 5757 C 525.974 -1.35384 -1.49512 0
M  V30 5758 C 526.287 0.04919 -1.95538 0
M  V30 5759 O 527.493 0.209257 -2.70692 0
M  V30 5760 C 525.949 -2.37812 -2.70136 0
M  V30 5761 C 525.557 -3.83804 -2.31081 0
M  V30 5762 C 527.301 -2.4313 -3.47977 0
M  V30 5763 C 525.208 -4.77886 -3.48395 0
M  V30 5764 H 524.138 -0.503297 -0.561434 0
M  V30 5765 H 526.789 -1.64754 -0.807974 0
M  V30 5766 H 525.171 -2.01505 -3.40899 0
M  V30 5767 H 526.345 -4.29123 -1.67898 0
M  V30 5768 H 524.66 -3.81732 -1.66343 0
M  V30 5769 H 527.257 -3.10614 -4.35228 0
M  V30 5770 H 527.6 -1.45423 -3.90074 0
M  V30 5771 H 528.133 -2.78304 -2.84239 0
M  V30 5772 H 524.872 -5.76836 -3.11353 0
M  V30 5773 H 524.392 -4.3725 -4.10576 0
M  V30 5774 H 526.071 -4.96538 -4.148 0
M  V30 5775 N 526.204 0.969867 -1.24223 0
M  V30 5776 C 527.151 2.06407 -1.0327 0
M  V30 5777 C 528.121 1.66014 0.0533 0
M  V30 5778 O 529.306 1.90533 -0.100896 0
M  V30 5779 C 526.446 3.3909 -0.641262 0
M  V30 5780 C 525.559 3.9269 -1.80051 0
M  V30 5781 C 524.694 5.13631 -1.35486 0
M  V30 5782 C 523.733 5.59423 -2.48419 0
M  V30 5783 N 522.87 6.71586 -2.04737 0
M  V30 5784 H 527.71 2.23663 -1.96923 0
M  V30 5785 H 525.247 1.09624 -0.980862 0
M  V30 5786 H 527.205 4.15323 -0.395351 0
M  V30 5787 H 525.835 3.21765 0.258269 0
M  V30 5788 H 524.887 3.13116 -2.16014 0
M  V30 5789 H 526.199 4.22636 -2.64916 0
M  V30 5790 H 525.353 5.97231 -1.0677 0
M  V30 5791 H 524.092 4.85364 -0.476722 0
M  V30 5792 H 523.097 4.74398 -2.77897 0
M  V30 5793 H 524.322 5.89705 -3.36786 0
M  V30 5794 H 522.268 6.45058 -1.19318 0
M  V30 5795 H 522.185 7.0097 -2.83156 0
M  V30 5796 H 523.453 7.58633 -1.79154 0
M  V30 5797 N 527.682 1.05563 1.17022 0
M  V30 5798 C 528.645 0.664098 2.19368 0
M  V30 5799 C 529.645 -0.286358 1.5823 0
M  V30 5800 O 530.835 -0.069728 1.7406 0
M  V30 5801 C 527.967 -0.0239932 3.40892 0
M  V30 5802 H 529.16 1.57 2.55521 0
M  V30 5803 H 526.713 0.849964 1.31169 0
M  V30 5804 H 527.448 -0.942988 3.10287 0
M  V30 5805 H 527.233 0.659351 3.86516 0
M  V30 5806 H 528.723 -0.283909 4.16634 0
M  V30 5807 N 529.16 -1.33526 0.837174 0
M  V30 5808 C 530.408 -1.97446 0.431211 0
M  V30 5809 C 530.729 -1.6665 -1.01255 0
M  V30 5810 O 529.999 -0.964559 -1.70508 0
M  V30 5811 H 528.579 -0.73043 0.156463 0
M  V30 5812 H 531.241 -1.62918 1.06976 0
M  V30 5813 H 530.337 -3.07001 0.561877 0
M  V30 5814 N 530.638 -0.59345 -1.46 0
M  V30 5815 C 531.601 0.123538 -2.28867 0
M  V30 5816 C 532.601 0.808628 -1.38989 0
M  V30 5817 O 533.791 0.658945 -1.61256 0
M  V30 5818 C 530.923 1.1847 -3.19653 0
M  V30 5819 H 532.116 -0.604843 -2.93737 0
M  V30 5820 H 529.669 -0.351875 -1.52288 0
M  V30 5821 H 530.404 1.94431 -2.59552 0
M  V30 5822 H 530.189 0.69783 -3.8584 0
M  V30 5823 H 531.679 1.68726 -3.81997 0
M  V30 5824 N 532.116 1.54067 -0.331816 0
M  V30 5825 C 533.532 1.59587 0.0205388 0
M  V30 5826 C 533.732 1.34813 1.49759 0
M  V30 5827 O 532.788 1.13661 2.25471 0
M  V30 5828 C 534.101 2.97959 -0.405103 0
M  V30 5829 C 535.649 3.10964 -0.356454 0
M  V30 5830 C 536.124 4.51694 -0.757384 0
M  V30 5831 N 537.615 4.57709 -0.71111 0
M  V30 5832 C 538.35 5.64729 -0.993427 0
M  V30 5833 N 537.846 6.79652 -1.3433 0
M  V30 5834 N 539.639 5.54546 -0.918442 0
M  V30 5835 H 531.79 1.68426 -1.29407 0
M  V30 5836 H 534.053 0.78819 -0.526745 0
M  V30 5837 H 533.759 3.21115 -1.43451 0
M  V30 5838 H 533.633 3.76524 0.225692 0
M  V30 5839 H 536.02 2.87538 0.663763 0
M  V30 5840 H 536.101 2.34484 -1.02229 0
M  V30 5841 H 535.745 4.75853 -1.77555 0
M  V30 5842 H 535.675 5.26555 -0.0691444 0
M  V30 5843 H 538.166 3.75176 -0.452883 0
M  V30 5844 H 538.479 7.57221 -1.54388 0
M  V30 5845 H 536.824 6.81128 -1.38164 0
M  V30 5846 H 540.015 4.63641 -0.644536 0
M  V30 5847 H 540.188 6.37861 -1.14181 0
M  V30 5848 N 533.594 0.0601682 1.57485 0
M  V30 5849 C 534.84 -0.612501 1.93329 0
M  V30 5850 C 535.173 -1.6996 0.939526 0
M  V30 5851 O 534.448 -1.94472 -0.0330957 0
M  V30 5852 C 534.731 -1.20025 3.39508 0
M  V30 5853 C 534.584 -0.12059 4.49638 0
M  V30 5854 C 535.903 -2.10923 3.86264 0
M  V30 5855 H 533.022 -0.221185 0.703027 0
M  V30 5856 H 535.664 0.123768 1.89596 0
M  V30 5857 H 533.814 -1.82774 3.42821 0
M  V30 5858 H 535.486 0.51185 4.58452 0
M  V30 5859 H 533.729 0.550251 4.30296 0
M  V30 5860 H 534.4 -0.572019 5.49028 0
M  V30 5861 H 536.876 -1.58124 3.84884 0
M  V30 5862 H 535.752 -2.48987 4.8918 0
M  V30 5863 H 536.013 -3.01292 3.23536 0
M  V30 5864 N 535.072 -1.5615 -0.213296 0
M  V30 5865 C 535.982 -1.96265 -1.28519 0
M  V30 5866 C 536.998 -0.86765 -1.50824 0
M  V30 5867 O 538.174 -1.17191 -1.63793 0
M  V30 5868 C 535.239 -2.27836 -2.61327 0
M  V30 5869 C 534.3 -3.50949 -2.47252 0
M  V30 5870 C 533.533 -3.81004 -3.73727 0
M  V30 5871 O 533.756 -3.12612 -4.77106 0
M  V30 5872 O 532.69 -4.74477 -3.70344 0
M  V30 5873 H 536.516 -2.87631 -0.974795 0
M  V30 5874 H 534.101 -1.43467 -0.416832 0
M  V30 5875 H 535.983 -2.49299 -3.39747 0
M  V30 5876 H 534.658 -1.39643 -2.9203 0
M  V30 5877 H 533.565 -3.34754 -1.67004 0
M  V30 5878 H 534.898 -4.39551 -2.21486 0
M  V30 5879 N 536.55 0.480323 -1.50102 0
M  V30 5880 C 537.46 1.60547 -1.71061 0
M  V30 5881 C 538.476 1.63564 -0.593529 0
M  V30 5882 O 539.652 1.81604 -0.870751 0
M  V30 5883 C 536.717 2.96814 -1.79171 0
M  V30 5884 C 535.778 3.04259 -3.02861 0
M  V30 5885 C 535.011 4.34027 -3.10574 0
M  V30 5886 O 535.234 5.24009 -2.25323 0
M  V30 5887 O 534.168 4.46873 -4.03223 0
M  V30 5888 H 537.994 1.45788 -2.6642 0
M  V30 5889 H 535.579 0.658838 -1.34088 0
M  V30 5890 H 537.461 3.77765 -1.86738 0
M  V30 5891 H 536.136 3.11791 -0.869947 0
M  V30 5892 H 535.043 2.22419 -3.008 0
M  V30 5893 H 536.376 2.94216 -3.94586 0
M  V30 5894 N 538.028 1.39524 0.732853 0
M  V30 5895 C 538.938 1.40695 1.87729 0
M  V30 5896 C 539.954 0.301496 1.71368 0
M  V30 5897 O 541.13 0.543313 1.93933 0
M  V30 5898 C 538.195 1.25098 3.23344 0
M  V30 5899 C 537.256 2.45634 3.52083 0
M  V30 5900 C 536.489 2.30772 4.81228 0
M  V30 5901 O 536.712 1.31233 5.55098 0
M  V30 5902 O 535.646 3.19799 5.09914 0
M  V30 5903 H 539.472 2.37168 1.89697 0
M  V30 5904 H 537.057 1.20663 0.880959 0
M  V30 5905 H 538.939 1.18541 4.04383 0
M  V30 5906 H 537.614 0.317209 3.22142 0
M  V30 5907 H 536.521 2.57767 2.71122 0
M  V30 5908 H 537.854 3.37712 3.58066 0
M  V30 5909 N 539.506 -0.963266 1.24736 0
M  V30 5910 C 540.453 -2.05857 1.04363 0
M  V30 5911 C 541.423 -1.6604 -0.0444951 0
M  V30 5912 O 542.608 -1.90477 0.110999 0
M  V30 5913 C 539.748 -3.38745 0.659235 0
M  V30 5914 C 538.861 -3.9173 1.82131 0
M  V30 5915 C 537.996 -5.12906 1.38208 0
M  V30 5916 C 537.035 -5.58098 2.51382 0
M  V30 5917 N 536.172 -6.7049 2.08295 0
M  V30 5918 H 541.012 -2.22616 1.98107 0
M  V30 5919 H 538.549 -1.09103 0.986661 0
M  V30 5920 H 540.507 -4.15107 0.417371 0
M  V30 5921 H 539.137 -3.21898 -0.241201 0
M  V30 5922 H 538.189 -3.11966 2.17672 0
M  V30 5923 H 539.501 -4.21225 2.67153 0
M  V30 5924 H 538.655 -5.96657 1.09935 0
M  V30 5925 H 537.394 -4.85105 0.502456 0
M  V30 5926 H 536.399 -4.72917 2.80409 0
M  V30 5927 H 537.624 -5.87911 3.39909 0
M  V30 5928 H 535.57 -6.44416 1.22737 0
M  V30 5929 H 535.487 -6.99458 2.86869 0
M  V30 5930 H 536.755 -7.57672 1.83175 0
M  V30 5931 N 540.985 -1.06182 -1.16461 0
M  V30 5932 C 542.231 -0.779015 -1.87241 0
M  V30 5933 C 542.564 0.692715 -1.81425 0
M  V30 5934 O 541.839 1.5074 -1.22913 0
M  V30 5935 C 542.122 -1.2728 -3.36856 0
M  V30 5936 C 541.975 -2.80821 -3.51368 0
M  V30 5937 C 543.294 -0.879799 -4.31216 0
M  V30 5938 H 540.413 -0.284464 -0.679889 0
M  V30 5939 H 543.055 -1.31755 -1.36896 0
M  V30 5940 H 541.205 -0.814673 -3.79862 0
M  V30 5941 H 542.877 -3.34833 -3.17308 0
M  V30 5942 H 541.12 -3.19606 -2.93316 0
M  V30 5943 H 541.791 -3.10435 -4.56436 0
M  V30 5944 H 544.267 -1.27436 -3.96105 0
M  V30 5945 H 543.143 -1.25278 -5.34412 0
M  V30 5946 H 543.404 0.215372 -4.41575 0
M  V30 5947 N 542.463 1.3308 -0.844243 0
M  V30 5948 C 543.41 2.29104 -0.279323 0
M  V30 5949 C 544.38 1.54577 0.607882 0
M  V30 5950 O 545.565 1.8285 0.545009 0
M  V30 5951 C 542.705 3.40927 0.53508 0
M  V30 5952 C 541.818 4.30354 -0.376749 0
M  V30 5953 C 540.953 5.29297 0.449276 0
M  V30 5954 C 539.992 6.10365 -0.460606 0
M  V30 5955 N 539.129 7.01335 0.327612 0
M  V30 5956 H 543.969 2.76817 -1.10346 0
M  V30 5957 H 541.506 1.36203 -0.555611 0
M  V30 5958 H 543.464 4.04469 1.02278 0
M  V30 5959 H 542.094 2.94391 1.32414 0
M  V30 5960 H 541.146 3.67485 -0.982791 0
M  V30 5961 H 542.458 4.87067 -1.07549 0
M  V30 5962 H 541.612 5.98392 1.00058 0
M  V30 5963 H 540.351 4.73174 1.18143 0
M  V30 5964 H 539.356 5.40182 -1.02388 0
M  V30 5965 H 540.581 6.68571 -1.1912 0
M  V30 5966 H 538.527 6.47655 1.04305 0
M  V30 5967 H 538.444 7.55355 -0.3123 0
M  V30 5968 H 539.712 7.74731 0.86098 0
M  V30 5969 N 543.941 0.601185 1.45683 0
M  V30 5970 C 545.357 0.264315 1.57396 0
M  V30 5971 C 545.557 -1.23324 1.59353 0
M  V30 5972 O 544.613 -2.01594 1.52039 0
M  V30 5973 C 545.926 0.929839 2.85962 0
M  V30 5974 C 547.474 0.905156 2.99626 0
M  V30 5975 C 547.949 1.55057 4.30954 0
M  V30 5976 N 549.44 1.51576 4.37697 0
M  V30 5977 C 550.175 1.98436 5.37969 0
M  V30 5978 N 549.671 2.53352 6.44813 0
M  V30 5979 N 551.464 1.89242 5.29286 0
M  V30 5980 H 543.615 1.57363 1.42656 0
M  V30 5981 H 545.878 0.658831 0.681649 0
M  V30 5982 H 545.584 1.98404 2.90394 0
M  V30 5983 H 545.458 0.449224 3.74515 0
M  V30 5984 H 547.845 -0.14048 2.94765 0
M  V30 5985 H 547.926 1.42397 2.12501 0
M  V30 5986 H 547.57 2.5955 4.36573 0
M  V30 5987 H 547.5 1.00682 5.16886 0
M  V30 5988 H 549.991 1.11452 3.61091 0
M  V30 5989 H 550.304 2.86918 7.17564 0
M  V30 5990 H 548.649 2.57388 6.45582 0
M  V30 5991 H 551.84 1.46083 4.44722 0
M  V30 5992 H 552.013 2.26075 6.07284 0
M  V30 5993 N 545.419 -1.53889 0.339982 0
M  V30 5994 C 546.349 -2.27843 -0.510856 0
M  V30 5995 C 547.33 -1.29267 -1.10563 0
M  V30 5996 O 548.515 -1.58104 -1.12768 0
M  V30 5997 C 545.645 -3.04857 -1.66372 0
M  V30 5998 C 544.599 -4.10907 -1.19746 0
M  V30 5999 C 543.925 -4.75855 -2.43857 0
M  V30 6000 C 545.225 -5.21435 -0.300501 0
M  V30 6001 H 546.919 -2.99212 0.106067 0
M  V30 6002 H 544.465 -1.43904 0.0524533 0
M  V30 6003 H 546.418 -3.5533 -2.26537 0
M  V30 6004 H 545.142 -2.31133 -2.30749 0
M  V30 6005 H 543.801 -3.61342 -0.618654 0
M  V30 6006 H 543.449 -3.9873 -3.06633 0
M  V30 6007 H 543.149 -5.47502 -2.13343 0
M  V30 6008 H 544.673 -5.2911 -3.04754 0
M  V30 6009 H 546.087 -5.67565 -0.80889 0
M  V30 6010 H 544.484 -6.00036 -0.0874076 0
M  V30 6011 H 545.554 -4.80328 0.664321 0
M  V30 6012 N 546.897 -0.0685191 -1.57451 0
M  V30 6013 C 548.127 0.609577 -1.97402 0
M  V30 6014 C 548.535 1.63882 -0.945489 0
M  V30 6015 O 547.878 1.8354 0.0766052 0
M  V30 6016 C 547.94 1.3385 -3.33653 0
M  V30 6017 C 547.604 0.463103 -4.54648 0
M  V30 6018 C 548.601 -0.277964 -5.19156 0
M  V30 6019 C 546.286 0.388941 -5.00792 0
M  V30 6020 C 548.28 -1.08145 -6.28159 0
M  V30 6021 C 545.967 -0.418217 -6.09667 0
M  V30 6022 C 546.965 -1.15208 -6.73213 0
M  V30 6023 O 546.653 -1.94594 -7.79993 0
M  V30 6024 H 546.385 0.170197 -0.654224 0
M  V30 6025 H 548.939 -0.13647 -2.04946 0
M  V30 6026 H 547.169 2.13055 -3.22714 0
M  V30 6027 H 548.858 1.90851 -3.58233 0
M  V30 6028 H 549.624 -0.230241 -4.84453 0
M  V30 6029 H 545.503 0.949769 -4.5111 0
M  V30 6030 H 549.047 -1.65476 -6.7769 0
M  V30 6031 H 544.944 -0.467515 -6.43805 0
M  V30 6032 H 545.712 -1.8699 -7.96854 0
M  V30 6033 N 548.375 1.56261 0.205012 0
M  V30 6034 C 549.621 1.81211 0.923805 0
M  V30 6035 C 549.976 0.644065 1.813 0
M  V30 6036 O 549.269 -0.361208 1.88164 0
M  V30 6037 C 549.463 3.09722 1.78345 0
M  V30 6038 C 549.292 4.38915 0.978979 0
M  V30 6039 C 548.062 5.00874 0.667332 0
M  V30 6040 C 550.26 5.13199 0.336386 0
M  V30 6041 N 548.242 6.137 -0.156814 0
M  V30 6042 C 549.613 6.19009 -0.350402 0
M  V30 6043 C 551.668 4.97266 0.251101 0
M  V30 6044 C 550.371 7.10616 -1.11434 0
M  V30 6045 C 552.397 5.89288 -0.499413 0
M  V30 6046 C 551.759 6.94536 -1.17468 0
M  V30 6047 H 547.858 0.714528 0.317764 0
M  V30 6048 H 550.442 1.93738 0.193317 0
M  V30 6049 H 548.613 2.98448 2.48563 0
M  V30 6050 H 550.345 3.22798 2.44098 0
M  V30 6051 H 547.1 4.63151 0.989366 0
M  V30 6052 H 547.524 6.74695 -0.558206 0
M  V30 6053 H 552.166 4.15935 0.758823 0
M  V30 6054 H 549.884 7.91417 -1.63353 0
M  V30 6055 H 553.47 5.79034 -0.566627 0
M  V30 6056 H 552.35 7.64513 -1.74613 0
M  V30 6057 N 549.853 -0.472356 1.50355 0
M  V30 6058 C 550.816 -1.5529 1.68576 0
M  V30 6059 C 551.816 -1.50863 0.556511 0
M  V30 6060 O 553.006 -1.53505 0.823516 0
M  V30 6061 C 550.138 -2.94921 1.70981 0
M  V30 6062 H 551.331 -1.40451 2.64978 0
M  V30 6063 H 548.884 -0.698645 1.39816 0
M  V30 6064 H 549.619 -3.15204 0.762675 0
M  V30 6065 H 549.404 -2.99541 2.53017 0
M  V30 6066 H 550.894 -3.73372 1.87037 0
M  V30 6067 N 551.331 -1.39911 -0.725443 0
M  V30 6068 C 552.556 -1.41137 -1.5197 0
M  V30 6069 C 552.981 -0.010262 -1.88097 0
M  V30 6070 O 552.339 0.979184 -1.52583 0
M  V30 6071 C 552.387 -2.2994 -2.77777 0
M  V30 6072 O 551.491 -1.73586 -3.74088 0
M  V30 6073 H 550.832 -0.480219 -0.458569 0
M  V30 6074 H 553.362 -1.84023 -0.894249 0
M  V30 6075 H 553.372 -2.44785 -3.26411 0
M  V30 6076 H 552.047 -3.31759 -2.50816 0
M  V30 6077 H 550.624 -1.68035 -3.32894 0
M  V30 6078 N 552.809 0.956637 -1.25245 0
M  V30 6079 C 553.756 2.053 -1.05454 0
M  V30 6080 C 554.726 1.66062 0.0356889 0
M  V30 6081 O 555.911 1.90415 -0.121099 0
M  V30 6082 C 553.051 3.38391 -0.677191 0
M  V30 6083 C 552.164 3.90758 -1.84206 0
M  V30 6084 C 551.299 5.12165 -1.40926 0
M  V30 6085 C 550.338 5.56757 -2.54338 0
M  V30 6086 N 549.475 6.69376 -2.11848 0
M  V30 6087 H 554.315 2.21562 -1.99284 0
M  V30 6088 H 551.852 1.08578 -0.992434 0
M  V30 6089 H 553.81 4.1488 -0.43938 0
M  V30 6090 H 552.44 3.22021 0.224127 0
M  V30 6091 H 551.492 3.10808 -2.19323 0
M  V30 6092 H 552.804 4.19802 -2.69383 0
M  V30 6093 H 551.958 5.96065 -1.13098 0
M  V30 6094 H 550.697 4.84832 -0.528175 0
M  V30 6095 H 549.702 4.71423 -2.82913 0
M  V30 6096 H 550.927 5.861 -3.43022 0
M  V30 6097 H 548.873 6.43756 -1.26153 0
M  V30 6098 H 548.79 6.97927 -2.90574 0
M  V30 6099 H 550.058 7.5669 -1.87191 0
M  V30 6100 N 554.287 1.06798 1.15896 0
M  V30 6101 C 555.197 0.694564 2.24083 0
M  V30 6102 C 556.213 -0.291687 1.71538 0
M  V30 6103 O 557.389 -0.139723 2.00915 0
M  V30 6104 C 554.454 0.0921014 3.46578 0
M  V30 6105 C 553.515 1.13087 4.14137 0
M  V30 6106 C 552.748 0.557064 5.30785 0
M  V30 6107 O 552.971 -0.628623 5.66925 0
M  V30 6108 O 551.905 1.29924 5.8771 0
M  V30 6109 H 555.731 1.59663 2.58344 0
M  V30 6110 H 553.316 0.840575 1.2351 0
M  V30 6111 H 555.198 -0.241884 4.20705 0
M  V30 6112 H 553.873 -0.78337 3.14078 0
M  V30 6113 H 552.78 1.51712 3.41957 0
M  V30 6114 H 554.113 1.97805 4.50704 0
M  V30 6115 N 555.766 -1.3263 0.851289 0
M  V30 6116 C 557.012 -1.9766 0.453694 0
M  V30 6117 C 557.345 -1.67225 -0.987396 0
M  V30 6118 O 556.62 -0.958693 -1.69232 0
M  V30 6119 C 556.903 -3.5344 0.68936 0
M  V30 6120 C 556.756 -3.93517 2.17862 0
M  V30 6121 C 558.075 -4.39866 0.143555 0
M  V30 6122 H 555.194 -0.717989 0.166314 0
M  V30 6123 H 557.836 -1.57068 1.06909 0
M  V30 6124 H 555.986 -3.88147 0.165546 0
M  V30 6125 H 557.658 -3.69006 2.76826 0
M  V30 6126 H 555.901 -3.42798 2.65841 0
M  V30 6127 H 556.572 -5.02065 2.29422 0
M  V30 6128 H 559.048 -4.11875 0.591451 0
M  V30 6129 H 557.924 -5.47858 0.338043 0
M  V30 6130 H 558.185 -4.31696 -0.953466 0
M  V30 6131 N 557.244 -0.608902 -1.45362 0
M  V30 6132 C 558.192 0.121639 -2.32282 0
M  V30 6133 C 559.186 0.858301 -1.46046 0
M  V30 6134 O 560.392 0.773718 -1.62523 0
M  V30 6135 H 556.767 0.058086 -0.749753 0
M  V30 6136 H 558.738 -0.629866 -2.91677 0
M  V30 6137 C 557.487 1.1047 -3.29684 0
M  V30 6138 H 556.81 0.547278 -3.96036 0
M  V30 6139 H 558.25 1.58576 -3.9323 0
M  V30 6140 C 556.709 2.17891 -2.56954 0
M  V30 6141 O 557.239 3.25652 -2.35189 0
M  V30 6142 N 555.445 1.93211 -2.17066 0
M  V30 6143 H 554.992 1.05584 -2.34967 0
M  V30 6144 H 554.95 2.6529 -1.68727 0
M  V30 6145 N 558.722 1.53707 -0.348139 0
M  V30 6146 C 559.947 2.05877 0.250883 0
M  V30 6147 C 560.372 1.22115 1.43072 0
M  V30 6148 O 559.73 0.235986 1.79758 0
M  V30 6149 C 559.778 3.54886 0.639416 0
M  V30 6150 O 558.882 3.73948 1.73888 0
M  V30 6151 H 558.223 0.662754 0.040653 0
M  V30 6152 H 560.753 1.98303 -0.503685 0
M  V30 6153 H 560.763 3.97601 0.915295 0
M  V30 6154 H 559.438 4.153 -0.223386 0
M  V30 6155 H 558.015 3.43134 1.45991 0
M  V30 6156 N 560.2 0.0768682 1.57412 0
M  V30 6157 C 561.132 -0.918248 2.10002 0
M  V30 6158 C 562.145 -1.25808 1.03325 0
M  V30 6159 O 563.334 -1.21438 1.30824 0
M  V30 6160 C 560.434 -2.23263 2.54964 0
M  V30 6161 C 559.607 -2.07088 3.8527 0
M  V30 6162 C 558.666 -3.21876 4.16272 0
M  V30 6163 O 557.692 -2.96643 4.8579 0
M  V30 6164 N 558.894 -4.4712 3.70221 0
M  V30 6165 H 561.659 -0.469209 2.96004 0
M  V30 6166 H 559.22 -0.108725 1.61535 0
M  V30 6167 H 561.212 -2.9897 2.72762 0
M  V30 6168 H 559.782 -2.59649 1.74072 0
M  V30 6169 H 559.002 -1.15818 3.76802 0
M  V30 6170 H 560.29 -1.93537 4.70554 0
M  V30 6171 H 559.688 -4.70506 3.1407 0
M  V30 6172 H 558.245 -5.19837 3.93209 0
M  V30 6173 N 561.678 -1.56367 -0.196722 0
M  V30 6174 C 562.925 -1.80529 -0.917366 0
M  V30 6175 C 563.253 -0.649817 -1.83324 0
M  V30 6176 O 562.508 0.36451 -1.92275 0
M  V30 6177 C 562.807 -3.10663 -1.767 0
M  V30 6178 C 562.473 -4.3962 -1.00225 0
M  V30 6179 C 561.135 -4.74653 -0.791095 0
M  V30 6180 C 563.487 -5.1913 -0.464035 0
M  V30 6181 C 560.815 -5.86692 -0.0302155 0
M  V30 6182 C 563.167 -6.31964 0.283625 0
M  V30 6183 C 561.831 -6.65581 0.505813 0
M  V30 6184 H 561.101 -0.660602 -0.335688 0
M  V30 6185 H 563.748 -1.90615 -0.183844 0
M  V30 6186 H 562.053 -2.95807 -2.56915 0
M  V30 6187 H 563.75 -3.26563 -2.32718 0
M  V30 6188 H 560.34 -4.12127 -1.17684 0
M  V30 6189 H 564.524 -4.9248 -0.614575 0
M  V30 6190 H 559.78 -6.11211 0.151917 0
M  V30 6191 H 563.954 -6.92791 0.708057 0
M  V30 6192 H 561.581 -7.52239 1.0973 0
M  V30 6193 N 563.156 0.464375 -1.50603 0
M  V30 6194 C 564.403 1.21596 -1.61928 0
M  V30 6195 C 564.731 1.91804 -0.322737 0
M  V30 6196 O 563.986 1.83065 0.691776 0
M  V30 6197 C 564.285 2.278 -2.75394 0
M  V30 6198 C 563.951 1.74797 -4.1564 0
M  V30 6199 C 562.613 1.60063 -4.53799 0
M  V30 6200 C 564.965 1.35548 -5.03266 0
M  V30 6201 C 562.293 1.04514 -5.77316 0
M  V30 6202 C 564.645 0.814381 -6.27336 0
M  V30 6203 C 563.309 0.653726 -6.64291 0
M  V30 6204 H 562.579 0.444951 -0.592536 0
M  V30 6205 H 565.226 0.510964 -1.84557 0
M  V30 6206 H 563.531 3.04233 -2.46879 0
M  V30 6207 H 565.228 2.85723 -2.81359 0
M  V30 6208 H 561.818 1.87234 -3.8554 0
M  V30 6209 H 566.002 1.45763 -4.74412 0
M  V30 6210 H 561.258 0.908186 -6.04617 0
M  V30 6211 H 565.432 0.501626 -6.94591 0
M  V30 6212 H 563.059 0.22114 -7.59878 0
M  V30 6213 N 564.634 1.40294 0.718013 0
M  V30 6214 C 566.05 1.2227 1.02577 0
M  V30 6215 C 566.25 0.0961976 2.0127 0
M  V30 6216 O 565.306 -0.546695 2.46511 0
M  V30 6217 C 566.619 2.56348 1.57182 0
M  V30 6218 C 568.167 2.6334 1.69178 0
M  V30 6219 C 568.642 3.9768 2.27188 0
M  V30 6220 N 570.133 3.99409 2.34578 0
M  V30 6221 C 570.868 5.00141 2.8044 0
M  V30 6222 N 570.364 6.11268 3.26073 0
M  V30 6223 N 572.157 4.87511 2.79802 0
M  V30 6224 H 564.308 2.12304 0.0637899 0
M  V30 6225 H 566.571 0.943632 0.0909036 0
M  V30 6226 H 566.277 3.3942 0.921262 0
M  V30 6227 H 566.151 2.77266 2.55741 0
M  V30 6228 H 568.538 1.80641 2.33351 0
M  V30 6229 H 568.619 2.46255 0.692247 0
M  V30 6230 H 568.263 4.80817 1.63638 0
M  V30 6231 H 568.193 4.12093 3.27852 0
M  V30 6232 H 570.684 3.19162 2.02346 0
M  V30 6233 H 570.997 6.84023 3.59628 0
M  V30 6234 H 569.342 6.14837 3.24038 0
M  V30 6235 H 572.533 3.9979 2.43487 0
M  V30 6236 H 572.706 5.66158 3.15228 0
M  V30 6237 N 566.112 -0.949982 1.2575 0
M  V30 6238 C 567.358 -1.69766 1.10938 0
M  V30 6239 C 567.691 -1.91056 -0.348028 0
M  V30 6240 O 566.966 -1.48488 -1.25625 0
M  V30 6241 C 567.249 -3.07779 1.86933 0
M  V30 6242 C 567.102 -2.9387 3.4053 0
M  V30 6243 C 568.421 -4.07749 1.65616 0
M  V30 6244 H 565.54 -0.616144 0.404396 0
M  V30 6245 H 568.182 -1.10394 1.54639 0
M  V30 6246 H 566.332 -3.58462 1.4979 0
M  V30 6247 H 568.004 -2.50476 3.87375 0
M  V30 6248 H 566.247 -2.29686 3.68004 0
M  V30 6249 H 566.918 -3.91719 3.88922 0
M  V30 6250 H 569.394 -3.65994 1.97959 0
M  V30 6251 H 568.27 -5.02348 2.21218 0
M  V30 6252 H 568.531 -4.38029 0.598595 0
M  V30 6253 N 567.59 -1.07411 -1.15328 0
M  V30 6254 C 568.82 -0.817595 -1.89734 0
M  V30 6255 C 569.228 0.63297 -1.78298 0
M  V30 6256 O 568.571 1.44594 -1.13306 0
M  V30 6257 C 568.633 -1.14748 -3.40695 0
M  V30 6258 C 568.297 -2.59876 -3.75917 0
M  V30 6259 C 569.294 -3.58122 -3.76888 0
M  V30 6260 C 566.979 -2.95469 -4.06206 0
M  V30 6261 C 568.973 -4.89996 -4.07655 0
M  V30 6262 C 566.66 -4.2754 -4.36638 0
M  V30 6263 C 567.658 -5.24614 -4.37344 0
M  V30 6264 O 567.346 -6.54312 -4.67045 0
M  V30 6265 H 567.078 -0.295175 -0.608151 0
M  V30 6266 H 569.632 -1.43409 -1.47048 0
M  V30 6267 H 567.862 -0.47395 -3.83785 0
M  V30 6268 H 569.551 -0.873397 -3.96392 0
M  V30 6269 H 570.317 -3.31966 -3.53587 0
M  V30 6270 H 566.196 -2.20558 -4.04815 0
M  V30 6271 H 569.74 -5.65759 -4.08121 0
M  V30 6272 H 565.637 -4.53449 -4.59407 0
M  V30 6273 H 566.405 -6.59473 -4.84807 0
M  V30 6274 N 569.068 1.32177 -0.85831 0
M  V30 6275 C 570.316 1.96735 -0.462568 0
M  V30 6276 C 570.637 1.6824 0.985911 0
M  V30 6277 O 569.907 0.991564 1.68952 0
M  V30 6278 H 568.487 0.727849 -0.168064 0
M  V30 6279 H 571.149 1.61195 -1.09554 0
M  V30 6280 H 570.245 3.06068 -0.610647 0
M  V30 6281 N 570.547 0.616602 1.45037 0
M  V30 6282 C 571.796 0.112861 2.01384 0
M  V30 6283 C 572.109 -1.26758 1.48969 0
M  V30 6284 O 573.315 -1.86454 1.9735 0
M  V30 6285 C 571.771 0.151057 3.59583 0
M  V30 6286 C 571.379 1.53191 4.20995 0
M  V30 6287 C 573.123 -0.296974 4.2346 0
M  V30 6288 C 571.03 1.526 5.71373 0
M  V30 6289 H 569.96 0.0384254 0.75302 0
M  V30 6290 H 572.611 0.773262 1.66412 0
M  V30 6291 H 570.993 -0.57617 3.91786 0
M  V30 6292 H 572.167 2.28156 4.00352 0
M  V30 6293 H 570.482 1.92279 3.69348 0
M  V30 6294 H 573.079 -0.320712 5.33737 0
M  V30 6295 H 573.422 -1.32145 3.9477 0
M  V30 6296 H 573.955 0.377279 3.96007 0
M  V30 6297 H 570.694 2.52837 6.04776 0
M  V30 6298 H 570.214 0.819064 5.94181 0
M  V30 6299 H 571.893 1.25357 6.3474 0
M  V30 6300 N 572.025 -1.5352 0.356285 0
M  V30 6301 C 573.302 -1.93405 -0.292223 0
M  V30 6302 C 573.682 -1.28901 -1.67176 0
M  V30 6303 O 573.03 -0.444632 -2.24132 0
M  V30 6304 C 573.24 -3.47223 -0.35175 0
M  V30 6305 C 574.588 -4.20389 -0.596534 0
M  V30 6306 O 575.612 -3.53554 -0.433344 0
M  V30 6307 O 574.471 -5.3881 -0.913589 0
M  V30 6308 H 571.565 -0.808666 -0.173172 0
M  V30 6309 H 574.111 -1.64713 0.408391 0
M  V30 6310 H 572.883 -3.86423 0.615841 0
M  V30 6311 H 572.506 -3.8212 -1.09864 0
M  V30 6312 N 573.503 -0.0852151 -1.57369 0
M  V30 6313 C 574.45 0.877268 -2.13478 0
M  V30 6314 C 575.42 1.28642 -1.05073 0
M  V30 6315 O 576.605 1.36992 -1.32808 0
M  V30 6316 C 573.745 2.13464 -2.71159 0
M  V30 6317 C 572.858 1.77691 -3.93764 0
M  V30 6318 C 571.993 2.98139 -4.39643 0
M  V30 6319 C 571.032 2.58447 -5.54862 0
M  V30 6320 N 570.169 3.71698 -5.95639 0
M  V30 6321 H 575.009 0.391933 -2.95411 0
M  V30 6322 H 572.546 0.181796 -1.45972 0
M  V30 6323 H 574.504 2.87086 -3.02717 0
M  V30 6324 H 573.134 2.59514 -1.91969 0
M  V30 6325 H 572.186 0.940768 -3.68583 0
M  V30 6326 H 573.498 1.44497 -4.77412 0
M  V30 6327 H 572.652 3.80026 -4.72933 0
M  V30 6328 H 571.391 3.34536 -3.54876 0
M  V30 6329 H 570.396 1.74984 -5.21211 0
M  V30 6330 H 571.621 2.23205 -6.41371 0
M  V30 6331 H 569.567 4.07831 -5.13819 0
M  V30 6332 H 569.484 3.42317 -6.74059 0
M  V30 6333 H 570.752 4.54123 -6.33555 0
M  V30 6334 N 574.981 1.5647 0.188427 0
M  V30 6335 C 576.392 1.70864 0.752494 0
M  V30 6336 C 576.743 0.692905 1.83557 0
M  V30 6337 O 575.868 -0.149307 2.15884 0
M  V30 6338 C 576.463 3.09789 1.37173 0
M  V30 6339 C 575.022 3.25925 1.88281 0
M  V30 6340 C 574.169 2.66817 0.755259 0
M  V30 6341 H 577.12 1.58657 -0.0367408 0
M  V30 6342 H 577.141 3.07489 2.24122 0
M  V30 6343 H 576.653 3.83693 0.583219 0
M  V30 6344 H 574.754 2.56948 2.6983 0
M  V30 6345 H 574.867 4.33498 2.04001 0
M  V30 6346 H 573.231 2.2617 1.17128 0
M  V30 6347 H 574.014 3.43294 -0.0211237 0
M  V30 6348 N 576.459 -0.456382 1.50847 0
M  V30 6349 C 577.389 -1.56025 1.73719 0
M  V30 6350 C 578.37 -1.5967 0.586473 0
M  V30 6351 O 579.555 -1.75702 0.827185 0
M  V30 6352 C 576.685 -2.94251 1.84483 0
M  V30 6353 C 575.639 -3.05471 2.99786 0
M  V30 6354 C 574.965 -4.45489 2.95709 0
M  V30 6355 C 576.265 -2.81318 4.40065 0
M  V30 6356 H 577.959 -1.37138 2.66146 0
M  V30 6357 H 575.505 -0.658299 1.28072 0
M  V30 6358 H 577.458 -3.71417 1.99067 0
M  V30 6359 H 576.182 -3.14328 0.886891 0
M  V30 6360 H 574.841 -2.30741 2.84876 0
M  V30 6361 H 574.489 -4.62505 1.97732 0
M  V30 6362 H 574.189 -4.53929 3.73125 0
M  V30 6363 H 575.713 -5.24655 3.12362 0
M  V30 6364 H 577.127 -3.48226 4.55425 0
M  V30 6365 H 575.524 -3.01188 5.19043 0
M  V30 6366 H 576.594 -1.7706 4.51418 0
M  V30 6367 N 577.937 -1.40673 -0.710563 0
M  V30 6368 C 578.847 -1.43663 -1.85467 0
M  V30 6369 C 579.863 -0.328721 -1.70867 0
M  V30 6370 O 581.039 -0.574098 -1.93044 0
M  V30 6371 C 578.104 -1.30226 -3.21313 0
M  V30 6372 C 577.165 -2.51204 -3.48131 0
M  V30 6373 C 576.398 -2.38398 -4.77495 0
M  V30 6374 O 576.621 -1.40048 -5.5294 0
M  V30 6375 O 575.555 -3.2787 -5.04762 0
M  V30 6376 H 579.381 -2.40156 -1.859 0
M  V30 6377 H 576.966 -1.22049 -0.861652 0
M  V30 6378 H 578.848 -1.2496 -4.02446 0
M  V30 6379 H 577.523 -0.368419 -3.21597 0
M  V30 6380 H 576.43 -2.62048 -2.66987 0
M  V30 6381 H 577.763 -3.43366 -3.52648 0
M  V30 6382 N 579.415 0.9433 -1.26252 0
M  V30 6383 C 580.325 2.07532 -1.09397 0
M  V30 6384 C 581.341 1.73977 -0.0280449 0
M  V30 6385 O 582.517 2.00067 -0.231337 0
M  V30 6386 C 579.582 3.39002 -0.726523 0
M  V30 6387 C 578.643 3.86353 -1.87163 0
M  V30 6388 C 577.876 5.11549 -1.52162 0
M  V30 6389 O 578.099 5.68834 -0.422385 0
M  V30 6390 O 577.033 5.53889 -2.35565 0
M  V30 6391 H 580.859 2.24658 -2.04359 0
M  V30 6392 H 578.444 1.05988 -1.05295 0
M  V30 6393 H 580.326 4.18 -0.534236 0
M  V30 6394 H 579.001 3.2312 0.193721 0
M  V30 6395 H 577.908 3.0831 -2.11886 0
M  V30 6396 H 579.241 4.06752 -2.77152 0
M  V30 6397 N 580.893 1.08022 1.14757 0
M  V30 6398 C 582.141 0.805913 1.85336 0
M  V30 6399 C 582.462 -0.670162 1.83122 0
M  V30 6400 O 581.732 -1.48567 1.2769 0
M  V30 6401 H 580.312 0.295138 0.686223 0
M  V30 6402 H 582.974 1.36538 1.3908 0
M  V30 6403 H 582.07 1.14655 2.90277 0
M  V30 6404 N 582.371 -1.3172 0.865308 0
M  V30 6405 C 583.319 -2.30569 0.306674 0
M  V30 6406 C 584.313 -1.59317 -0.575724 0
M  V30 6407 O 585.519 -1.73961 -0.462343 0
M  V30 6408 H 581.894 -0.747681 0.0804834 0
M  V30 6409 H 583.865 -2.75165 1.15441 0
M  V30 6410 C 582.614 -3.44358 -0.480952 0
M  V30 6411 H 581.937 -3.99354 0.18876 0
M  V30 6412 H 583.377 -4.15652 -0.837241 0
M  V30 6413 C 581.836 -2.92574 -1.67039 0
M  V30 6414 O 582.366 -2.90954 -2.76964 0
M  V30 6415 N 580.572 -2.48835 -1.50097 0
M  V30 6416 H 580.119 -2.50353 -0.606738 0
M  V30 6417 H 580.077 -2.14543 -2.29823 0
M  V30 6418 N 583.85 -0.624285 -1.44708 0
M  V30 6419 C 585.26 -0.2092 -1.85524 0
M  V30 6420 C 585.611 1.23783 -1.52225 0
M  V30 6421 O 584.736 1.94089 -0.956986 0
M  V30 6422 C 585.332 -0.372897 -3.36742 0
M  V30 6423 C 583.891 -0.012374 -3.76398 0
M  V30 6424 C 583.038 -0.68951 -2.68591 0
M  V30 6425 H 585.989 -0.829894 -1.35272 0
M  V30 6426 H 586.01 0.390134 -3.78495 0
M  V30 6427 H 585.522 -1.42615 -3.60947 0
M  V30 6428 H 583.623 1.03941 -3.57809 0
M  V30 6429 H 583.736 -0.417663 -4.77276 0
M  V30 6430 H 582.1 -0.125484 -2.54391 0
M  V30 6431 H 582.883 -1.74522 -2.9563 0
M  V30 6432 N 585.328 1.53329 -0.364422 0
M  V30 6433 C 586.605 1.93557 0.281962 0
M  V30 6434 C 586.985 1.29786 1.6649 0
M  V30 6435 O 586.333 0.456512 2.23893 0
M  V30 6436 C 586.543 3.47405 0.333331 0
M  V30 6437 C 587.891 4.20699 0.574231 0
M  V30 6438 O 588.915 3.53779 0.414588 0
M  V30 6439 O 587.774 5.39287 0.885002 0
M  V30 6440 H 584.868 0.809573 0.168881 0
M  V30 6441 H 587.414 1.64494 -0.417121 0
M  V30 6442 H 586.186 3.86091 -0.636326 0
M  V30 6443 H 585.809 3.82697 1.07836 0
M  V30 6444 N 586.806 0.0935595 1.57322 0
M  V30 6445 C 588.083 -0.612692 1.85756 0
M  V30 6446 C 588.463 -1.86439 0.99013 0
M  V30 6447 O 587.811 -2.28416 0.0621362 0
M  V30 6448 C 588.021 -0.929547 3.36393 0
M  V30 6449 C 589.369 -1.29366 4.04413 0
M  V30 6450 O 590.393 -1.02061 3.41265 0
M  V30 6451 O 589.252 -1.80498 5.15832 0
M  V30 6452 H 586.346 -0.306444 0.768128 0
M  V30 6453 H 588.892 0.126141 1.69231 0
M  V30 6454 H 587.664 -0.0414766 3.91278 0
M  V30 6455 H 587.287 -1.72441 3.5826 0
M  V30 6456 N 588.284 -1.56567 -0.180126 0
M  V30 6457 C 589.533 -1.80685 -0.896426 0
M  V30 6458 C 589.846 -0.669335 -1.83791 0
M  V30 6459 O 591.052 -0.795209 -2.59593 0
M  V30 6460 C 589.508 -3.20132 -1.6445 0
M  V30 6461 C 589.116 -4.41727 -0.747088 0
M  V30 6462 C 590.86 -3.53549 -2.34955 0
M  V30 6463 C 588.767 -5.72195 -1.49489 0
M  V30 6464 H 587.697 -0.673758 -0.338477 0
M  V30 6465 H 590.348 -1.8289 -0.149467 0
M  V30 6466 H 588.73 -3.12218 -2.43589 0
M  V30 6467 H 589.904 -4.608 0.00671129 0
M  V30 6468 H 588.219 -4.16122 -0.152134 0
M  V30 6469 H 590.816 -4.48267 -2.91481 0
M  V30 6470 H 591.159 -2.78006 -3.09868 0
M  V30 6471 H 591.692 -3.62976 -1.62768 0
M  V30 6472 H 588.431 -6.50743 -0.788251 0
M  V30 6473 H 587.951 -5.57115 -2.22224 0
M  V30 6474 H 589.63 -6.1384 -2.04472 0
M  V30 6475 N 589.762 0.448376 -1.51087 0
M  V30 6476 C 590.692 1.55102 -1.74544 0
M  V30 6477 C 591.673 1.59357 -0.594932 0
M  V30 6478 O 592.858 1.75261 -0.836491 0
M  V30 6479 C 589.988 2.93268 -1.86041 0
M  V30 6480 C 588.942 3.03877 -3.01402 0
M  V30 6481 C 588.268 4.43914 -2.98068 0
M  V30 6482 C 589.568 2.7898 -4.41551 0
M  V30 6483 H 591.262 1.35724 -2.66869 0
M  V30 6484 H 588.808 0.651498 -1.28419 0
M  V30 6485 H 590.761 3.70356 -2.01034 0
M  V30 6486 H 589.485 3.13853 -0.903548 0
M  V30 6487 H 588.144 2.29227 -2.86096 0
M  V30 6488 H 587.792 4.6145 -2.00182 0
M  V30 6489 H 587.492 4.51944 -3.75527 0
M  V30 6490 H 589.016 5.22991 -3.1514 0
M  V30 6491 H 590.43 3.45805 -4.57265 0
M  V30 6492 H 588.827 2.98431 -5.20633 0
M  V30 6493 H 589.897 1.74663 -4.5235 0
M  V30 6494 N 591.24 1.41047 0.703093 0
M  V30 6495 C 592.468 1.4334 1.49202 0
M  V30 6496 C 592.883 0.0365596 1.88765 0
M  V30 6497 O 592.24 -0.942419 1.56284 0
M  V30 6498 C 592.291 2.33538 2.75939 0
M  V30 6499 O 592.012 3.67786 2.38045 0
M  V30 6500 C 593.513 2.44555 3.6974 0
M  V30 6501 H 590.733 0.488472 0.460039 0
M  V30 6502 H 593.277 1.85245 0.86629 0
M  V30 6503 H 591.432 1.94962 3.34766 0
M  V30 6504 H 591.846 4.15816 3.19683 0
M  V30 6505 H 593.32 3.11849 4.55471 0
M  V30 6506 H 593.797 1.47447 4.1371 0
M  V30 6507 H 594.403 2.83735 3.16819 0
M  V30 6508 N 592.718 -0.936591 1.26751 0
M  V30 6509 C 593.651 -2.03619 1.03027 0
M  V30 6510 C 594.629 -1.62534 -0.0464619 0
M  V30 6511 O 595.813 -1.88251 0.0968873 0
M  V30 6512 C 592.94 -3.3402 0.561072 0
M  V30 6513 C 591.986 -3.9408 1.63105 0
M  V30 6514 S 592.819 -4.27782 3.22122 0
M  V30 6515 C 593.975 -5.61277 2.76982 0
M  V30 6516 H 594.208 -2.23429 1.96129 0
M  V30 6517 H 591.741 -1.07857 1.10482 0
M  V30 6518 H 593.699 -4.09424 0.297031 0
M  V30 6519 H 592.36 -3.12147 -0.349741 0
M  V30 6520 H 591.553 -4.88154 1.25386 0
M  V30 6521 H 591.155 -3.25227 1.84671 0
M  V30 6522 H 593.447 -6.40189 2.21731 0
M  V30 6523 H 594.39 -6.03887 3.69766 0
M  V30 6524 H 594.798 -5.21374 2.16402 0
M  V30 6525 N 594.196 -1.08629 -1.14182 0
M  V30 6526 C 595.442 -0.818556 -1.85546 0
M  V30 6527 C 595.775 0.654076 -1.82854 0
M  V30 6528 O 595.05 1.48099 -1.26083 0
M  V30 6529 C 595.333 -1.34397 -3.3408 0
M  V30 6530 C 595.186 -2.8821 -3.45333 0
M  V30 6531 C 596.505 -0.971069 -4.29253 0
M  V30 6532 H 593.624 -0.298821 -0.673702 0
M  V30 6533 H 596.266 -1.34629 -1.34071 0
M  V30 6534 H 594.416 -0.895064 -3.78049 0
M  V30 6535 H 596.088 -3.41488 -3.10134 0
M  V30 6536 H 594.331 -3.25756 -2.86471 0
M  V30 6537 H 595.002 -3.20047 -4.49749 0
M  V30 6538 H 597.478 -1.35809 -3.93313 0
M  V30 6539 H 596.354 -1.36586 -5.31635 0
M  V30 6540 H 596.615 0.121659 -4.41933 0
M  V30 6541 N 595.674 1.31259 -0.872281 0
M  V30 6542 C 596.923 1.95893 -0.480493 0
M  V30 6543 C 597.236 1.697 0.972688 0
M  V30 6544 O 598.442 2.28214 1.47073 0
M  V30 6545 C 596.898 3.50705 -0.808342 0
M  V30 6546 C 596.506 3.85735 -2.27844 0
M  V30 6547 C 598.25 4.21719 -0.485136 0
M  V30 6548 C 596.157 5.33668 -2.54858 0
M  V30 6549 H 595.087 0.733182 -0.175955 0
M  V30 6550 H 597.738 1.49396 -1.0655 0
M  V30 6551 H 596.12 3.95706 -0.152558 0
M  V30 6552 H 597.294 3.51686 -2.97748 0
M  V30 6553 H 595.609 3.27792 -2.56791 0
M  V30 6554 H 598.206 5.30559 -0.664166 0
M  V30 6555 H 598.549 4.12316 0.574592 0
M  V30 6556 H 599.082 3.82359 -1.09756 0
M  V30 6557 H 595.821 5.48109 -3.59523 0
M  V30 6558 H 595.341 5.69061 -1.8955 0
M  V30 6559 H 597.02 6.00958 -2.39706 0
M  V30 6560 N 597.152 0.631951 1.44375 0
M  V30 6561 C 598.382 0.143658 2.061 0
M  V30 6562 C 598.79 -1.18733 1.47306 0
M  V30 6563 O 598.133 -1.73943 0.590724 0
M  V30 6564 C 598.195 -0.0446102 3.59472 0
M  V30 6565 C 597.859 1.20835 4.40736 0
M  V30 6566 C 598.856 2.13224 4.74164 0
M  V30 6567 C 596.541 1.44399 4.81097 0
M  V30 6568 C 598.535 3.27487 5.46838 0
M  V30 6569 C 596.222 2.58959 5.53519 0
M  V30 6570 C 597.22 3.50329 5.86309 0
M  V30 6571 O 596.908 4.62891 6.57257 0
M  V30 6572 H 596.64 0.0772939 0.671567 0
M  V30 6573 H 599.194 0.866677 1.8622 0
M  V30 6574 H 597.424 -0.822783 3.77845 0
M  V30 6575 H 599.113 -0.487561 4.02961 0
M  V30 6576 H 599.879 1.96253 4.4352 0
M  V30 6577 H 595.758 0.741696 4.54994 0
M  V30 6578 H 599.302 3.98826 5.72349 0
M  V30 6579 H 595.199 2.75873 5.83579 0
M  V30 6580 H 595.967 4.61883 6.75726 0
M  V30 6581 N 598.631 -1.53133 0.372548 0
M  V30 6582 C 599.579 -2.27473 -0.485681 0
M  V30 6583 C 600.573 -1.30719 -1.07745 0
M  V30 6584 O 601.779 -1.48321 -1.01985 0
M  V30 6585 H 598.154 -0.731269 -0.175356 0
M  V30 6586 H 600.125 -2.97955 0.162986 0
M  V30 6587 C 598.874 -3.08191 -1.60978 0
M  V30 6588 H 598.197 -3.82488 -1.16373 0
M  V30 6589 H 599.637 -3.63373 -2.18485 0
M  V30 6590 C 598.096 -2.19461 -2.55614 0
M  V30 6591 O 598.626 -1.81008 -3.58607 0
M  V30 6592 N 596.832 -1.83955 -2.24965 0
M  V30 6593 H 596.379 -2.15423 -1.41247 0
M  V30 6594 H 596.337 -1.24874 -2.88538 0
M  V30 6595 N 600.109 -0.101901 -1.5727 0
M  V30 6596 C 601.334 0.571759 -1.99363 0
M  V30 6597 C 601.759 1.60507 -0.980768 0
M  V30 6598 O 601.117 1.81231 0.0498517 0
M  V30 6599 C 601.165 1.18996 -3.404 0
M  V30 6600 O 600.269 2.30572 -3.41922 0
M  V30 6601 H 599.61 0.144449 -0.648098 0
M  V30 6602 H 602.14 -0.185325 -2.03759 0
M  V30 6603 H 602.15 1.52962 -3.78241 0
M  V30 6604 H 600.825 0.432984 -4.1364 0
M  V30 6605 H 599.402 1.98173 -3.15883 0
M  V30 6606 N 601.587 1.56661 0.17182 0
M  V30 6607 C 602.998 1.71652 0.734329 0
M  V30 6608 C 603.349 0.712335 1.82812 0
M  V30 6609 O 602.474 -0.126401 2.16031 0
M  V30 6610 C 603.069 3.11226 1.3388 0
M  V30 6611 C 601.628 3.27904 1.84813 0
M  V30 6612 C 600.775 2.67603 0.726917 0
M  V30 6613 H 603.726 1.5861 -0.0535665 0
M  V30 6614 H 603.747 3.09849 2.20849 0
M  V30 6615 H 603.259 3.8429 0.54249 0
M  V30 6616 H 601.36 2.59796 2.6709 0
M  V30 6617 H 601.473 4.35637 1.99392 0
M  V30 6618 H 599.837 2.274 1.14723 0
M  V30 6619 H 600.62 3.43252 -0.0575334 0
M  V30 6620 N 603.065 -0.440357 1.51323 0
M  V30 6621 C 603.975 -1.55955 1.75258 0
M  V30 6622 C 604.991 -1.61933 0.636687 0
M  V30 6623 O 606.167 -1.79231 0.918593 0
M  V30 6624 C 603.232 -2.9196 1.86977 0
M  V30 6625 C 602.293 -2.96122 3.10822 0
M  V30 6626 C 601.526 -4.2564 3.21973 0
M  V30 6627 O 601.749 -5.17851 2.39137 0
M  V30 6628 O 600.683 -4.36025 4.14929 0
M  V30 6629 H 604.509 -1.38673 2.70191 0
M  V30 6630 H 602.094 -0.623055 1.35788 0
M  V30 6631 H 603.976 -3.72682 1.96688 0
M  V30 6632 H 602.651 -3.09375 0.952307 0
M  V30 6633 H 601.558 -2.14366 3.06591 0
M  V30 6634 H 602.891 -2.83651 4.02247 0
M  V30 6635 N 604.543 -1.41418 -0.695603 0
M  V30 6636 C 605.453 -1.45622 -1.83933 0
M  V30 6637 C 606.469 -0.346825 -1.70508 0
M  V30 6638 O 607.645 -0.59454 -1.92424 0
M  V30 6639 C 604.71 -1.33627 -3.19914 0
M  V30 6640 C 603.771 -2.54882 -3.45447 0
M  V30 6641 C 603.004 -2.43449 -4.7494 0
M  V30 6642 O 603.227 -1.45905 -5.51424 0
M  V30 6643 O 602.161 -3.33206 -5.01256 0
M  V30 6644 H 605.987 -2.42114 -1.83342 0
M  V30 6645 H 603.572 -1.22956 -0.848658 0
M  V30 6646 H 605.454 -1.29221 -4.01098 0
M  V30 6647 H 604.129 -0.402508 -3.21188 0
M  V30 6648 H 603.036 -2.64865 -2.64192 0
M  V30 6649 H 604.369 -3.47087 -3.48987 0
M  V30 6650 N 606.021 0.929856 -1.27246 0
M  V30 6651 C 607.251 1.70895 -1.16096 0
M  V30 6652 C 607.659 1.87039 0.285122 0
M  V30 6653 O 607.002 1.38557 1.20614 0
M  V30 6654 C 607.064 3.12919 -1.7698 0
M  V30 6655 C 606.728 3.2012 -3.26148 0
M  V30 6656 C 607.725 3.02533 -4.22812 0
M  V30 6657 C 605.41 3.43148 -3.66817 0
M  V30 6658 C 607.404 3.07861 -5.58122 0
M  V30 6659 C 605.091 3.48109 -5.02258 0
M  V30 6660 C 606.089 3.30483 -5.97721 0
M  V30 6661 O 605.777 3.35175 -7.30694 0
M  V30 6662 H 605.509 0.54152 -0.404639 0
M  V30 6663 H 608.063 1.17342 -1.68582 0
M  V30 6664 H 606.293 3.67945 -1.18969 0
M  V30 6665 H 607.982 3.72787 -1.60576 0
M  V30 6666 H 608.748 2.84586 -3.92728 0
M  V30 6667 H 604.627 3.55918 -2.9299 0
M  V30 6668 H 608.171 2.94021 -6.32612 0
M  V30 6669 H 604.068 3.65579 -5.31998 0
M  V30 6670 H 604.836 3.51644 -7.39114 0
M  V30 6671 N 607.499 1.09233 1.13605 0
M  V30 6672 C 608.446 0.729921 2.18954 0
M  V30 6673 C 609.416 -0.287916 1.63586 0
M  V30 6674 O 610.601 -0.170003 1.90041 0
M  V30 6675 C 607.741 0.154489 3.44754 0
M  V30 6676 C 606.854 1.22613 4.14234 0
M  V30 6677 C 605.989 0.613657 5.27644 0
M  V30 6678 C 605.028 1.66674 5.8897 0
M  V30 6679 N 604.165 1.07545 6.93814 0
M  V30 6680 H 609.005 1.63257 2.49302 0
M  V30 6681 H 606.542 0.815693 1.22413 0
M  V30 6682 H 608.5 -0.196923 4.16735 0
M  V30 6683 H 607.13 -0.711433 3.14863 0
M  V30 6684 H 606.182 1.69485 3.40557 0
M  V30 6685 H 607.494 2.0238 4.55899 0
M  V30 6686 H 606.648 0.210976 6.06333 0
M  V30 6687 H 605.387 -0.215584 4.87223 0
M  V30 6688 H 604.392 2.07899 5.08978 0
M  V30 6689 H 605.617 2.49861 6.31464 0
M  V30 6690 H 603.563 0.267451 6.55455 0
M  V30 6691 H 603.48 1.81011 7.3401 0
M  V30 6692 H 604.748 0.698906 7.7636 0
M  V30 6693 N 608.977 -1.30795 0.87923 0
M  V30 6694 C 609.907 -2.30742 0.357796 0
M  V30 6695 C 610.888 -1.60747 -0.556283 0
M  V30 6696 O 612.073 -1.88393 -0.47135 0
M  V30 6697 C 609.203 -3.44583 -0.433555 0
M  V30 6698 C 608.157 -4.26235 0.388251 0
M  V30 6699 C 607.483 -5.32073 -0.529352 0
M  V30 6700 C 608.783 -4.96303 1.62729 0
M  V30 6701 H 610.477 -2.74605 1.19299 0
M  V30 6702 H 608.023 -1.32017 0.575104 0
M  V30 6703 H 609.976 -4.13563 -0.808934 0
M  V30 6704 H 608.7 -2.99511 -1.30234 0
M  V30 6705 H 607.359 -3.58936 0.745695 0
M  V30 6706 H 607.007 -4.83249 -1.39569 0
M  V30 6707 H 606.707 -5.87598 0.0166741 0
M  V30 6708 H 608.231 -6.0391 -0.901373 0
M  V30 6709 H 609.645 -5.5783 1.32283 0
M  V30 6710 H 608.042 -5.61666 2.11309 0
M  V30 6711 H 609.112 -4.22758 2.37494 0
M  V30 6712 N 610.455 -0.639598 -1.44038 0
M  V30 6713 C 611.403 0.0723409 -2.32487 0
M  V30 6714 C 612.397 0.827129 -1.47834 0
M  V30 6715 O 613.603 0.73907 -1.64127 0
M  V30 6716 H 609.978 0.0421696 -0.750817 0
M  V30 6717 H 611.949 -0.691593 -2.90275 0
M  V30 6718 C 610.698 1.03452 -3.31953 0
M  V30 6719 H 610.021 0.46315 -3.97108 0
M  V30 6720 H 611.461 1.502 -3.96505 0
M  V30 6721 C 609.92 2.12392 -2.61518 0
M  V30 6722 O 610.45 3.2059 -2.42044 0
M  V30 6723 N 608.656 1.88563 -2.21116 0
M  V30 6724 H 608.203 1.00577 -2.37154 0
M  V30 6725 H 608.161 2.61651 -1.74316 0
M  V30 6726 N 611.933 1.52934 -0.380664 0
M  V30 6727 C 613.158 2.06363 0.207157 0
M  V30 6728 C 613.583 1.25122 1.4045 0
M  V30 6729 O 612.941 0.274062 1.79217 0
M  V30 6730 C 612.989 3.56162 0.563996 0
M  V30 6731 O 612.093 3.77552 1.65917 0
M  V30 6732 H 611.434 0.663468 0.0265859 0
M  V30 6733 H 613.964 1.9719 -0.545635 0
M  V30 6734 H 613.974 3.99453 0.830752 0
M  V30 6735 H 612.649 4.14732 -0.311427 0
M  V30 6736 H 611.226 3.46154 1.3868 0
M  V30 6737 N 613.412 0.11024 1.57214 0
M  V30 6738 C 614.658 -0.550684 1.9518 0
M  V30 6739 C 614.991 -1.66885 0.993122 0
M  V30 6740 O 614.266 -1.94479 0.0287907 0
M  V30 6741 C 614.549 -1.09163 3.43155 0
M  V30 6742 C 614.402 0.0225198 4.49794 0
M  V30 6743 C 615.721 -1.98527 3.92778 0
M  V30 6744 H 612.84 -0.198706 0.709708 0
M  V30 6745 H 615.482 0.184024 1.89107 0
M  V30 6746 H 613.632 -1.71775 3.48462 0
M  V30 6747 H 615.304 0.657443 4.56591 0
M  V30 6748 H 613.547 0.686868 4.28328 0
M  V30 6749 H 614.218 -0.39706 5.5057 0
M  V30 6750 H 616.694 -1.458 3.8972 0
M  V30 6751 H 615.57 -2.33298 4.96853 0
M  V30 6752 H 615.831 -2.90846 3.32958 0
M  V30 6753 N 614.89 -1.56749 -0.16351 0
M  V30 6754 C 615.82 -2.00042 -1.20438 0
M  V30 6755 C 616.801 -0.877256 -1.45733 0
M  V30 6756 O 617.986 -1.1439 -1.56935 0
M  V30 6757 C 615.116 -2.36697 -2.54149 0
M  V30 6758 C 614.07 -3.52046 -2.43408 0
M  V30 6759 C 613.396 -3.74466 -3.81679 0
M  V30 6760 C 614.696 -4.85247 -1.93216 0
M  V30 6761 H 616.39 -2.87244 -0.844477 0
M  V30 6762 H 613.936 -1.38194 -0.40478 0
M  V30 6763 H 615.889 -2.65582 -3.27176 0
M  V30 6764 H 614.613 -1.46414 -2.91943 0
M  V30 6765 H 613.272 -3.23301 -1.72834 0
M  V30 6766 H 612.92 -2.81461 -4.1688 0
M  V30 6767 H 612.62 -4.52084 -3.75359 0
M  V30 6768 H 614.144 -4.0576 -4.5628 0
M  V30 6769 H 615.558 -5.12957 -2.56023 0
M  V30 6770 H 613.955 -5.66556 -1.97825 0
M  V30 6771 H 615.025 -4.7672 -0.88689 0
M  V30 6772 N 616.368 0.432326 -1.51554 0
M  V30 6773 C 617.598 1.2019 -1.68042 0
M  V30 6774 C 618.006 1.85356 -0.379434 0
M  V30 6775 O 617.349 1.71724 0.652427 0
M  V30 6776 C 617.411 2.32387 -2.74292 0
M  V30 6777 C 617.075 1.87548 -4.16743 0
M  V30 6778 C 618.072 1.37611 -5.01357 0
M  V30 6779 C 615.757 1.95087 -4.62868 0
M  V30 6780 C 617.751 0.958069 -6.30159 0
M  V30 6781 C 615.438 1.52894 -5.91664 0
M  V30 6782 C 616.436 1.03336 -6.75137 0
M  V30 6783 O 616.124 0.617435 -8.01525 0
M  V30 6784 H 615.856 0.368132 -0.56697 0
M  V30 6785 H 618.41 0.517875 -1.98764 0
M  V30 6786 H 616.64 3.04082 -2.38895 0
M  V30 6787 H 618.329 2.94235 -2.79608 0
M  V30 6788 H 619.095 1.31178 -4.66923 0
M  V30 6789 H 614.974 2.32606 -3.98015 0
M  V30 6790 H 618.518 0.570562 -6.95263 0
M  V30 6791 H 614.415 1.58999 -6.25611 0
M  V30 6792 H 615.183 0.742835 -8.15122 0
M  V30 6793 N 617.846 1.41785 0.688094 0
M  V30 6794 C 619.094 1.41264 1.4453 0
M  V30 6795 C 619.415 0.0252946 1.94984 0
M  V30 6796 O 618.685 -0.934081 1.72197 0
M  V30 6797 H 617.265 0.519998 0.536294 0
M  V30 6798 H 619.927 1.7709 0.813941 0
M  V30 6799 H 619.023 2.10439 2.30482 0
M  V30 6800 N 619.324 -0.923095 1.27737 0
M  V30 6801 C 620.554 -1.70277 1.17001 0
M  V30 6802 C 620.962 -1.87188 -0.275199 0
M  V30 6803 O 620.305 -1.39195 -1.19877 0
M  V30 6804 C 620.367 -3.11976 1.78637 0
M  V30 6805 C 620.031 -3.18386 3.27841 0
M  V30 6806 C 621.028 -3.00287 4.2441 0
M  V30 6807 C 618.713 -3.41198 3.68632 0
M  V30 6808 C 620.707 -3.04896 5.59747 0
M  V30 6809 C 618.394 -3.4544 5.04097 0
M  V30 6810 C 619.392 -3.27309 5.99465 0
M  V30 6811 O 619.08 -3.31295 7.32461 0
M  V30 6812 H 618.812 -0.539366 0.407505 0
M  V30 6813 H 621.366 -1.16446 1.69202 0
M  V30 6814 H 619.596 -3.67308 1.20919 0
M  V30 6815 H 621.285 -3.7193 1.6255 0
M  V30 6816 H 622.051 -2.825 3.94232 0
M  V30 6817 H 617.93 -3.54359 2.94873 0
M  V30 6818 H 621.474 -2.90662 6.34162 0
M  V30 6819 H 617.371 -3.62753 5.33929 0
M  V30 6820 H 618.139 -3.47719 7.40968 0
M  V30 6821 N 620.802 -1.09834 -1.13024 0
M  V30 6822 C 622.079 -0.749225 -1.80682 0
M  V30 6823 C 622.459 0.765171 -1.96744 0
M  V30 6824 O 621.807 1.68912 -1.53886 0
M  V30 6825 C 622.017 -1.49311 -3.15448 0
M  V30 6826 C 623.365 -1.66162 -3.90737 0
M  V30 6827 O 624.389 -1.45597 -3.25085 0
M  V30 6828 O 623.248 -2.00211 -5.08505 0
M  V30 6829 H 620.342 -0.269614 -0.781817 0
M  V30 6830 H 622.888 -1.20078 -1.19914 0
M  V30 6831 H 621.66 -2.52407 -2.99009 0
M  V30 6832 H 621.283 -1.034 -3.8392 0
M  V30 6833 N 622.28 1.30327 -0.886154 0
M  V30 6834 C 623.508 2.00254 -0.520176 0
M  V30 6835 C 623.923 1.66419 0.891637 0
M  V30 6836 O 623.28 0.901951 1.58654 0
M  V30 6837 C 623.331 3.54916 -0.686775 0
M  V30 6838 O 623.052 3.87547 -2.04301 0
M  V30 6839 C 624.553 4.42115 -0.323945 0
M  V30 6840 H 621.773 0.640204 -0.200947 0
M  V30 6841 H 624.317 1.66183 -1.19178 0
M  V30 6842 H 622.472 3.8735 -0.0625273 0
M  V30 6843 H 622.886 4.82247 -2.06249 0
M  V30 6844 H 624.36 5.49808 -0.491407 0
M  V30 6845 H 624.837 4.32953 0.73811 0
M  V30 6846 H 625.443 4.15129 -0.924565 0
M  V30 6847 N 623.758 0.647228 1.43697 0
M  V30 6848 C 624.706 -0.0600105 2.32523 0
M  V30 6849 C 625.7 -0.819277 1.48271 0
M  V30 6850 O 626.906 -0.730356 1.64517 0
M  V30 6851 H 623.281 -0.0381872 0.75103 0
M  V30 6852 H 625.252 0.706978 2.89904 0
M  V30 6853 C 624.001 -1.0169 3.32497 0
M  V30 6854 H 623.324 -0.442083 3.97348 0
M  V30 6855 H 624.764 -1.48095 3.97296 0
M  V30 6856 C 623.223 -2.11002 2.6264 0
M  V30 6857 O 623.753 -3.19302 2.4374 0
M  V30 6858 N 621.959 -1.87388 2.22113 0
M  V30 6859 H 621.506 -0.993174 2.37684 0
M  V30 6860 H 621.464 -2.60723 1.75701 0
M  V30 6861 N 625.236 -1.5273 0.388769 0
M  V30 6862 C 626.184 -2.27975 -0.461527 0
M  V30 6863 C 627.178 -1.31854 -1.06352 0
M  V30 6864 O 628.384 -1.49394 -1.00406 0
M  V30 6865 H 624.759 -0.733088 -0.16759 0
M  V30 6866 H 626.73 -2.97765 0.194579 0
M  V30 6867 C 625.479 -3.09881 -1.577 0
M  V30 6868 H 624.802 -3.83701 -1.12309 0
M  V30 6869 H 626.242 -3.6567 -2.14619 0
M  V30 6870 C 624.701 -2.22159 -2.53272 0
M  V30 6871 O 625.231 -1.84802 -3.56667 0
M  V30 6872 N 623.437 -1.8633 -2.23001 0
M  V30 6873 H 622.984 -2.16909 -1.38954 0
M  V30 6874 H 622.942 -1.27927 -2.87197 0
M  V30 6875 N 626.714 -0.118576 -1.57153 0
M  V30 6876 C 627.962 0.538461 -1.94795 0
M  V30 6877 C 628.283 1.67243 -1.00274 0
M  V30 6878 O 627.553 1.95811 -0.0589692 0
M  V30 6879 H 626.133 0.201904 -0.719197 0
M  V30 6880 H 628.795 -0.187418 -1.93997 0
M  V30 6881 H 627.891 0.933315 -2.97818 0
M  V30 6882 N 628.193 1.56834 0.155195 0
M  V30 6883 C 629.441 1.82536 0.867462 0
M  V30 6884 C 629.762 0.698168 1.82073 0
M  V30 6885 O 629.032 -0.280807 1.93877 0
M  V30 6886 H 627.612 0.673401 0.323327 0
M  V30 6887 H 630.274 1.94313 0.151156 0
M  V30 6888 H 629.37 2.77171 1.43466 0
M  V30 6889 N 629.671 -0.424282 1.51781 0
M  V30 6890 C 630.604 -1.53633 1.68737 0
M  V30 6891 C 631.582 -1.53549 0.534915 0
M  V30 6892 O 632.766 -1.72483 0.760391 0
M  V30 6893 C 629.893 -2.92195 1.71288 0
M  V30 6894 C 628.939 -3.10251 2.92654 0
M  V30 6895 S 629.772 -2.85166 4.53256 0
M  V30 6896 C 630.928 -4.25986 4.58571 0
M  V30 6897 H 631.161 -1.39018 2.62795 0
M  V30 6898 H 628.694 -0.614854 1.41629 0
M  V30 6899 H 630.652 -3.72059 1.73443 0
M  V30 6900 H 629.313 -3.04162 0.783847 0
M  V30 6901 H 628.506 -4.1159 2.90877 0
M  V30 6902 H 628.108 -2.38231 2.88308 0
M  V30 6903 H 630.4 -5.19392 4.35015 0
M  V30 6904 H 631.343 -4.32792 5.60444 0
M  V30 6905 H 631.751 -4.1025 3.87757 0
M  V30 6906 N 631.149 -1.42148 -0.680565 0
M  V30 6907 C 632.379 -1.45485 -1.46689 0
M  V30 6908 C 632.787 -0.0629451 -1.89095 0
M  V30 6909 O 632.13 0.931397 -1.58337 0
M  V30 6910 C 632.192 -2.31397 -2.75129 0
M  V30 6911 C 631.856 -3.79353 -2.54834 0
M  V30 6912 C 632.853 -4.71148 -2.19808 0
M  V30 6913 C 630.538 -4.23557 -2.70008 0
M  V30 6914 C 632.532 -6.05139 -2.00215 0
M  V30 6915 C 630.219 -5.57609 -2.50031 0
M  V30 6916 C 631.217 -6.48216 -2.15187 0
M  V30 6917 O 630.905 -7.79792 -1.95397 0
M  V30 6918 H 630.637 -0.497139 -0.458071 0
M  V30 6919 H 633.191 -1.87252 -0.844139 0
M  V30 6920 H 631.421 -1.84468 -3.39865 0
M  V30 6921 H 633.11 -2.26257 -3.36991 0
M  V30 6922 H 633.876 -4.38282 -2.07686 0
M  V30 6923 H 629.755 -3.53327 -2.96109 0
M  V30 6924 H 633.299 -6.75823 -1.72941 0
M  V30 6925 H 629.196 -5.9005 -2.61748 0
M  V30 6926 H 629.964 -7.91091 -2.10042 0
M  V30 6927 N 632.627 0.916307 -1.28225 0
M  V30 6928 C 633.876 1.65975 -1.14608 0
M  V30 6929 C 634.189 1.93204 0.305191 0
M  V30 6930 O 635.395 2.65611 0.562432 0
M  V30 6931 C 633.851 2.98989 -2.00333 0
M  V30 6932 C 633.459 2.79417 -3.50186 0
M  V30 6933 C 635.203 3.76856 -1.95397 0
M  V30 6934 C 633.11 4.08056 -4.28071 0
M  V30 6935 H 632.04 0.622587 -0.425324 0
M  V30 6936 H 634.691 1.01705 -1.52736 0
M  V30 6937 H 633.073 3.6438 -1.5506 0
M  V30 6938 H 634.247 2.22723 -4.034 0
M  V30 6939 H 632.562 2.14966 -3.56621 0
M  V30 6940 H 635.159 4.72203 -2.50856 0
M  V30 6941 H 635.502 4.05776 -0.930137 0
M  V30 6942 H 636.035 3.1828 -2.38626 0
M  V30 6943 H 632.774 3.8431 -5.31024 0
M  V30 6944 H 632.294 4.64371 -3.79631 0
M  V30 6945 H 633.973 4.76333 -4.37854 0
M  V30 6946 N 634.105 1.10431 1.1244 0
M  V30 6947 C 635.015 0.765502 2.21759 0
M  V30 6948 C 636.031 -0.236966 1.72379 0
M  V30 6949 O 637.207 -0.0757329 2.01258 0
M  V30 6950 C 634.272 0.202316 3.46109 0
M  V30 6951 C 633.333 1.26205 4.1033 0
M  V30 6952 C 632.566 0.725648 5.28744 0
M  V30 6953 O 632.789 -0.447942 5.68638 0
M  V30 6954 O 631.723 1.48555 5.83279 0
M  V30 6955 H 635.549 1.67801 2.53133 0
M  V30 6956 H 633.134 0.879443 1.20773 0
M  V30 6957 H 635.016 -0.107918 4.21262 0
M  V30 6958 H 633.691 -0.683052 3.16411 0
M  V30 6959 H 632.598 1.62514 3.36957 0
M  V30 6960 H 633.931 2.12044 4.44183 0
M  V30 6961 N 635.583 -1.29855 0.893053 0
M  V30 6962 C 636.994 -1.77946 0.564998 0
M  V30 6963 C 637.345 -1.73339 -0.919134 0
M  V30 6964 O 636.47 -1.3152 -1.71847 0
M  V30 6965 C 637.065 -3.23118 1.01883 0
M  V30 6966 C 635.624 -3.69013 0.742051 0
M  V30 6967 C 634.771 -2.50121 1.19727 0
M  V30 6968 H 637.722 -1.16611 1.07646 0
M  V30 6969 H 637.743 -3.78875 0.351249 0
M  V30 6970 H 637.255 -3.26439 2.09903 0
M  V30 6971 H 635.356 -3.71173 -0.325816 0
M  V30 6972 H 635.469 -4.60117 1.33527 0
M  V30 6973 H 633.833 -2.47128 0.616418 0
M  V30 6974 H 634.616 -2.56174 2.28538 0
M  V30 6975 N 637.061 -0.65484 -1.43351 0
M  V30 6976 C 637.971 0.0363603 -2.34572 0
M  V30 6977 C 638.987 0.810432 -1.53974 0
M  V30 6978 O 640.163 0.757308 -1.86619 0
M  V30 6979 C 637.228 0.989733 -3.32273 0
M  V30 6980 C 636.289 0.212414 -4.28774 0
M  V30 6981 C 635.522 1.12038 -5.21808 0
M  V30 6982 O 635.745 2.35967 -5.19303 0
M  V30 6983 O 634.679 0.59191 -5.98982 0
M  V30 6984 H 638.505 -0.714527 -2.95175 0
M  V30 6985 H 636.09 -0.415029 -1.4352 0
M  V30 6986 H 637.972 1.53759 -3.92347 0
M  V30 6987 H 636.647 1.72082 -2.74171 0
M  V30 6988 H 635.554 -0.379062 -3.72175 0
M  V30 6989 H 636.887 -0.479138 -4.89862 0
M  V30 6990 N 638.539 1.52521 -0.396863 0
M  V30 6991 C 639.787 2.01274 0.182536 0
M  V30 6992 C 640.108 1.28485 1.46685 0
M  V30 6993 O 639.378 0.407134 1.91623 0
M  V30 6994 H 637.958 0.743671 0.0704442 0
M  V30 6995 H 640.62 1.87547 -0.530289 0
M  V30 6996 H 639.716 3.09687 0.387385 0
M  V30 6997 N 640.017 0.126909 1.57088 0
M  V30 6998 C 641.245 -0.53667 1.99819 0
M  V30 6999 C 641.66 -1.5972 1.00673 0
M  V30 7000 O 641.017 -1.825 0.000747365 0
M  V30 7001 C 641.068 -1.15563 3.42531 0
M  V30 7002 O 640.789 -0.137483 4.37884 0
M  V30 7003 C 642.29 -1.90176 4.00435 0
M  V30 7004 H 639.51 -0.141443 0.655923 0
M  V30 7005 H 642.054 0.215578 2.03361 0
M  V30 7006 H 640.209 -1.85861 3.39904 0
M  V30 7007 H 640.623 -0.588229 5.21191 0
M  V30 7008 H 642.097 -2.28801 5.02349 0
M  V30 7009 H 642.574 -2.78002 3.40017 0
M  V30 7010 H 643.18 -1.24623 4.06632 0
M  V30 7011 N 641.495 -1.56914 -0.146875 0
M  V30 7012 C 642.742 -1.83356 -0.859467 0
M  V30 7013 C 643.07 -0.707811 -1.81164 0
M  V30 7014 O 642.325 0.303155 -1.93338 0
M  V30 7015 C 642.624 -3.16128 -1.66727 0
M  V30 7016 C 642.29 -4.42586 -0.861881 0
M  V30 7017 C 640.952 -4.76929 -0.639687 0
M  V30 7018 C 643.304 -5.20344 -0.298643 0
M  V30 7019 C 640.632 -5.86491 0.156451 0
M  V30 7020 C 642.984 -6.30742 0.484536 0
M  V30 7021 C 641.648 -6.63635 0.717306 0
M  V30 7022 H 640.918 -0.670947 -0.314501 0
M  V30 7023 H 643.565 -1.91104 -0.123108 0
M  V30 7024 H 641.87 -3.03831 -2.47374 0
M  V30 7025 H 643.567 -3.33802 -2.2221 0
M  V30 7026 H 640.157 -4.15662 -1.04513 0
M  V30 7027 H 644.341 -4.94186 -0.457585 0
M  V30 7028 H 639.597 -6.10419 0.346292 0
M  V30 7029 H 643.771 -6.90188 0.928105 0
M  V30 7030 H 641.398 -7.48367 1.33607 0
M  V30 7031 N 642.974 0.416227 -1.52004 0
M  V30 7032 C 644.221 1.16383 -1.65714 0
M  V30 7033 C 644.549 1.9068 -0.383594 0
M  V30 7034 O 643.804 1.85174 0.633185 0
M  V30 7035 C 644.103 2.18923 -2.82502 0
M  V30 7036 C 643.769 1.61485 -4.20991 0
M  V30 7037 C 642.431 1.45545 -4.58661 0
M  V30 7038 C 644.783 1.19468 -5.07323 0
M  V30 7039 C 642.111 0.860937 -5.80349 0
M  V30 7040 C 644.463 0.614386 -6.29609 0
M  V30 7041 C 643.127 0.442056 -6.66035 0
M  V30 7042 H 642.397 0.425875 -0.606392 0
M  V30 7043 H 645.044 0.45199 -1.8609 0
M  V30 7044 H 643.349 2.96225 -2.56433 0
M  V30 7045 H 645.046 2.76628 -2.90307 0
M  V30 7046 H 641.636 1.74873 -3.91302 0
M  V30 7047 H 645.82 1.30596 -4.78809 0
M  V30 7048 H 641.076 0.715372 -6.072 0
M  V30 7049 H 645.25 0.280393 -6.95835 0
M  V30 7050 H 642.877 -0.0207218 -7.60197 0
M  V30 7051 N 644.452 1.42507 0.673017 0
M  V30 7052 C 645.68 1.46473 1.46128 0
M  V30 7053 C 646.095 0.0765912 1.88645 0
M  V30 7054 O 645.452 -0.909057 1.58248 0
M  V30 7055 C 645.503 2.39339 2.70923 0
M  V30 7056 O 645.224 3.72752 2.3019 0
M  V30 7057 C 646.725 2.52343 3.64469 0
M  V30 7058 H 643.945 0.49812 0.449575 0
M  V30 7059 H 646.489 1.87041 0.826802 0
M  V30 7060 H 644.644 2.02019 3.30556 0
M  V30 7061 H 645.058 4.22503 3.10791 0
M  V30 7062 H 646.532 3.2144 4.48754 0
M  V30 7063 H 647.009 1.56189 4.1049 0
M  V30 7064 H 647.615 2.90392 3.10729 0
M  V30 7065 N 645.93 -0.909495 1.28709 0
M  V30 7066 C 647.16 -1.69027 1.188 0
M  V30 7067 C 647.568 -1.87469 -0.255329 0
M  V30 7068 O 646.911 -1.40458 -1.18394 0
M  V30 7069 C 646.973 -3.10064 1.81936 0
M  V30 7070 C 646.637 -3.14891 3.31199 0
M  V30 7071 C 647.634 -2.95768 4.27571 0
M  V30 7072 C 645.319 -3.37269 3.7223 0
M  V30 7073 C 647.313 -2.98942 5.6295 0
M  V30 7074 C 645 -3.40074 5.07733 0
M  V30 7075 C 645.998 -3.20932 6.02903 0
M  V30 7076 O 645.686 -3.23507 7.35934 0
M  V30 7077 H 645.418 -0.535014 0.413203 0
M  V30 7078 H 647.972 -1.14645 1.70428 0
M  V30 7079 H 646.202 -3.66005 1.24808 0
M  V30 7080 H 647.891 -3.70185 1.66486 0
M  V30 7081 H 648.657 -2.78302 3.97206 0
M  V30 7082 H 644.536 -3.51212 2.98615 0
M  V30 7083 H 648.08 -2.83919 6.37209 0
M  V30 7084 H 643.977 -3.5707 5.37747 0
M  V30 7085 H 644.745 -3.3984 7.44615 0
M  V30 7086 N 647.408 -1.11026 -1.11852 0
M  V30 7087 C 648.318 -0.777252 -2.2135 0
M  V30 7088 C 649.334 0.227821 -1.72502 0
M  V30 7089 O 650.51 0.0650587 -2.01295 0
M  V30 7090 C 647.575 -0.220668 -3.45997 0
M  V30 7091 C 646.636 -1.2838 -4.09655 0
M  V30 7092 C 645.869 -0.753678 -5.28352 0
M  V30 7093 O 646.092 0.417779 -5.68868 0
M  V30 7094 O 645.026 -1.51647 -5.82483 0
M  V30 7095 H 648.852 -1.69141 -2.5224 0
M  V30 7096 H 646.437 -0.885836 -1.20305 0
M  V30 7097 H 648.319 0.0855756 -4.21313 0
M  V30 7098 H 646.994 0.666262 -3.16769 0
M  V30 7099 H 645.901 -1.64299 -3.3609 0
M  V30 7100 H 647.234 -2.14396 -4.43052 0
M  V30 7101 N 648.886 1.2938 -0.899927 0
M  V30 7102 C 650.302 1.48052 -0.596059 0
M  V30 7103 C 650.502 1.82114 0.862372 0
M  V30 7104 O 649.558 1.91774 1.64253 0
M  V30 7105 C 650.871 2.59332 -1.52208 0
M  V30 7106 C 652.419 2.73208 -1.5273 0
M  V30 7107 C 652.894 3.87617 -2.43961 0
M  V30 7108 N 654.385 3.9495 -2.42009 0
M  V30 7109 C 655.12 4.82824 -3.09303 0
M  V30 7110 N 654.616 5.75387 -3.85877 0
M  V30 7111 N 656.409 4.76317 -2.98459 0
M  V30 7112 H 648.56 1.05546 -1.8432 0
M  V30 7113 H 650.823 0.524314 -0.78981 0
M  V30 7114 H 650.529 2.41029 -2.56121 0
M  V30 7115 H 650.403 3.56139 -1.24278 0
M  V30 7116 H 652.79 2.90908 -0.495614 0
M  V30 7117 H 652.871 1.76975 -1.84698 0
M  V30 7118 H 652.515 3.70672 -3.47224 0
M  V30 7119 H 652.445 4.83218 -2.09303 0
M  V30 7120 H 654.936 3.28744 -1.86375 0
M  V30 7121 H 655.249 6.39235 -4.34279 0
M  V30 7122 H 653.594 5.75272 -3.89984 0
M  V30 7123 H 656.785 4.0299 -2.38152 0
M  V30 7124 H 656.958 5.44589 -3.51179 0
M  V30 7125 N 650.364 0.662433 1.43002 0
M  V30 7126 C 651.274 -0.0239199 2.34588 0
M  V30 7127 C 652.29 -0.802255 1.54402 0
M  V30 7128 O 653.466 -0.747401 1.87018 0
M  V30 7129 C 650.531 -0.972098 3.32793 0
M  V30 7130 C 649.592 -0.189673 4.28881 0
M  V30 7131 C 648.825 -1.09269 5.22395 0
M  V30 7132 O 649.048 -2.33209 5.20547 0
M  V30 7133 O 647.982 -0.560136 5.99288 0
M  V30 7134 H 651.808 0.730171 2.94792 0
M  V30 7135 H 649.393 0.422635 1.43297 0
M  V30 7136 H 651.275 -1.51676 3.93157 0
M  V30 7137 H 649.95 -1.70626 2.75079 0
M  V30 7138 H 648.857 0.398794 3.71968 0
M  V30 7139 H 650.19 0.50511 4.89601 0
M  V30 7140 N 651.842 -1.52309 0.404946 0
M  V30 7141 C 652.805 -2.25491 -0.410651 0
M  V30 7142 C 653.805 -1.27704 -0.977154 0
M  V30 7143 O 654.995 -1.51679 -0.856691 0
M  V30 7144 C 652.127 -3.02197 -1.57765 0
M  V30 7145 H 653.32 -2.99015 0.230277 0
M  V30 7146 H 650.873 -1.55506 0.157377 0
M  V30 7147 H 651.608 -2.33013 -2.25556 0
M  V30 7148 H 651.393 -3.73987 -1.17797 0
M  V30 7149 H 652.883 -3.57719 -2.15469 0
M  V30 7150 N 653.32 -0.135238 -1.57019 0
M  V30 7151 C 654.252 0.839675 -2.13265 0
M  V30 7152 C 655.265 1.21887 -1.07923 0
M  V30 7153 O 656.454 1.16499 -1.35241 0
M  V30 7154 C 653.554 2.13647 -2.63075 0
M  V30 7155 C 652.727 1.92646 -3.92691 0
M  V30 7156 C 651.786 3.06205 -4.27931 0
M  V30 7157 O 650.812 2.78409 -4.96465 0
M  V30 7158 N 652.014 4.33072 -3.86561 0
M  V30 7159 H 654.779 0.359026 -2.97542 0
M  V30 7160 H 652.34 0.0486979 -1.61827 0
M  V30 7161 H 654.332 2.88641 -2.8367 0
M  V30 7162 H 652.902 2.5301 -1.83588 0
M  V30 7163 H 652.122 1.01754 -3.80841 0
M  V30 7164 H 653.41 1.75939 -4.77413 0
M  V30 7165 H 652.808 4.58526 -3.31316 0
M  V30 7166 H 651.365 5.04885 -4.12231 0
M  V30 7167 N 654.798 1.5699 0.138552 0
M  V30 7168 C 655.708 2.02174 1.19008 0
M  V30 7169 C 656.724 0.938622 1.46512 0
M  V30 7170 O 657.9 1.24872 1.58016 0
M  V30 7171 C 654.965 2.40045 2.50159 0
M  V30 7172 C 654.026 3.62346 2.30226 0
M  V30 7173 C 653.259 3.98401 3.55123 0
M  V30 7174 O 653.482 3.35019 4.61647 0
M  V30 7175 O 652.416 4.91606 3.47285 0
M  V30 7176 H 656.242 2.91954 0.836452 0
M  V30 7177 H 653.827 1.45293 0.347907 0
M  V30 7178 H 655.709 2.65225 3.27465 0
M  V30 7179 H 654.384 1.53417 2.85035 0
M  V30 7180 H 653.291 3.42341 1.50843 0
M  V30 7181 H 654.624 4.49617 2.00262 0
M  V30 7182 N 656.276 -0.40816 1.52223 0
M  V30 7183 C 657.501 -1.18127 1.70472 0
M  V30 7184 C 657.926 -1.83491 0.41384 0
M  V30 7185 O 657.284 -1.70047 -0.628778 0
M  V30 7186 C 657.332 -2.21935 2.84213 0
M  V30 7187 O 656.436 -3.28099 2.4985 0
M  V30 7188 H 655.777 -0.344781 0.56747 0
M  V30 7189 H 658.307 -0.478328 1.9893 0
M  V30 7190 H 658.317 -2.66248 3.09153 0
M  V30 7191 H 656.992 -1.73744 3.7787 0
M  V30 7192 H 655.569 -2.89058 2.35584 0
M  V30 7193 N 657.755 -1.42862 -0.66545 0
M  V30 7194 C 658.983 -1.47246 -1.45349 0
M  V30 7195 C 659.398 -0.0865944 -1.88601 0
M  V30 7196 O 658.755 0.900652 -1.58728 0
M  V30 7197 C 658.806 -2.40772 -2.6965 0
M  V30 7198 O 658.527 -3.73968 -2.2821 0
M  V30 7199 C 660.028 -2.54272 -3.63126 0
M  V30 7200 H 657.248 -0.500497 -0.446927 0
M  V30 7201 H 659.792 -1.87477 -0.816871 0
M  V30 7202 H 657.947 -2.0377 -3.29479 0
M  V30 7203 H 658.361 -4.24146 -3.08546 0
M  V30 7204 H 659.835 -3.23815 -4.47043 0
M  V30 7205 H 660.312 -1.58364 -4.09656 0
M  V30 7206 H 660.918 -2.92036 -3.09185 0
M  V30 7207 N 659.233 0.902656 -1.29189 0
M  V30 7208 C 660.463 1.68394 -1.19695 0
M  V30 7209 C 660.871 1.87602 0.245384 0
M  V30 7210 O 660.214 1.41084 1.17648 0
M  V30 7211 C 660.276 3.09094 -1.83578 0
M  V30 7212 C 659.94 3.1313 -3.32864 0
M  V30 7213 C 660.937 2.93497 -4.29134 0
M  V30 7214 C 658.622 3.3529 -3.74013 0
M  V30 7215 C 660.616 2.95953 -5.64527 0
M  V30 7216 C 658.303 3.37377 -5.09529 0
M  V30 7217 C 659.301 3.1773 -6.04596 0
M  V30 7218 O 658.989 3.196 -7.37639 0
M  V30 7219 H 658.721 0.532815 -0.416034 0
M  V30 7220 H 661.275 1.1374 -1.71033 0
M  V30 7221 H 659.505 3.65338 -1.26747 0
M  V30 7222 H 661.194 3.69297 -1.68447 0
M  V30 7223 H 661.96 2.76192 -3.98677 0
M  V30 7224 H 657.839 3.49623 -3.00474 0
M  V30 7225 H 661.383 2.80536 -6.38706 0
M  V30 7226 H 657.28 3.54213 -5.39633 0
M  V30 7227 H 658.048 3.35887 -7.46406 0
M  V30 7228 N 660.711 1.11618 1.11262 0
M  V30 7229 C 661.939 0.888739 1.8684 0
M  V30 7230 C 662.354 -0.561558 1.80255 0
M  V30 7231 O 661.711 -1.38782 1.18515 0
M  V30 7232 C 661.762 1.34422 3.35579 0
M  V30 7233 O 661.483 2.73766 3.42029 0
M  V30 7234 C 662.984 1.15246 4.28058 0
M  V30 7235 H 660.204 0.318152 0.590779 0
M  V30 7236 H 662.748 1.48398 1.40707 0
M  V30 7237 H 660.903 0.79239 3.7921 0
M  V30 7238 H 661.317 2.9355 4.34659 0
M  V30 7239 H 662.791 1.52015 5.30656 0
M  V30 7240 H 663.268 0.0922007 4.39103 0
M  V30 7241 H 663.874 1.69136 3.90222 0
M  V30 7242 N 662.189 -1.289 0.906776 0
M  V30 7243 C 663.119 -2.29932 0.406659 0
M  V30 7244 C 664.1 -1.6189 -0.522061 0
M  V30 7245 O 665.285 -1.8935 -0.431283 0
M  V30 7246 C 662.415 -3.45425 -0.360366 0
M  V30 7247 C 661.369 -4.25316 0.478574 0
M  V30 7248 C 660.695 -5.33076 -0.416373 0
M  V30 7249 C 661.995 -4.92739 1.7322 0
M  V30 7250 H 663.689 -2.72013 1.25097 0
M  V30 7251 H 661.235 -1.30768 0.602977 0
M  V30 7252 H 663.188 -4.15186 -0.721029 0
M  V30 7253 H 661.912 -3.02206 -1.23852 0
M  V30 7254 H 660.571 -3.57273 0.821662 0
M  V30 7255 H 660.219 -4.86101 -1.29287 0
M  V30 7256 H 659.919 -5.8743 0.141309 0
M  V30 7257 H 661.443 -6.05686 -0.773072 0
M  V30 7258 H 662.857 -5.54898 1.44086 0
M  V30 7259 H 661.254 -5.57057 2.23175 0
M  V30 7260 H 662.324 -4.17625 2.46408 0
M  V30 7261 N 663.667 -0.670007 -1.42649 0
M  V30 7262 C 664.577 0.0114788 -2.34597 0
M  V30 7263 C 665.593 0.794055 -1.54825 0
M  V30 7264 O 666.769 0.737472 -1.87412 0
M  V30 7265 C 663.834 0.954436 -3.33304 0
M  V30 7266 C 662.895 0.166925 -4.28975 0
M  V30 7267 C 662.128 1.06497 -5.22967 0
M  V30 7268 O 662.351 2.30446 -5.21777 0
M  V30 7269 O 661.285 0.528347 -5.99577 0
M  V30 7270 H 665.111 -0.745794 -2.944 0
M  V30 7271 H 662.696 -0.430228 -1.43071 0
M  V30 7272 H 664.578 1.49589 -3.93956 0
M  V30 7273 H 663.253 1.69164 -2.7598 0
M  V30 7274 H 662.16 -0.418515 -3.71752 0
M  V30 7275 H 663.493 -0.531067 -4.89327 0
M  V30 7276 N 665.145 1.52092 -0.413018 0
M  V30 7277 C 666.055 2.30858 0.417318 0
M  V30 7278 C 667.071 1.38746 1.05003 0
M  V30 7279 O 668.247 1.71821 1.05069 0
M  V30 7280 C 665.312 3.11756 1.51687 0
M  V30 7281 C 664.373 4.19613 0.906825 0
M  V30 7282 C 663.606 4.96644 1.95399 0
M  V30 7283 O 663.829 4.7402 3.17271 0
M  V30 7284 O 662.763 5.81385 1.55805 0
M  V30 7285 H 666.589 3.02865 -0.225028 0
M  V30 7286 H 664.174 1.48358 -0.176126 0
M  V30 7287 H 666.056 3.62122 2.15512 0
M  V30 7288 H 664.731 2.42539 2.14375 0
M  V30 7289 H 663.638 3.73385 0.231183 0
M  V30 7290 H 664.971 4.91134 0.323814 0
M  V30 7291 N 666.623 0.143563 1.56945 0
M  V30 7292 C 667.553 -0.7936 2.196 0
M  V30 7293 C 668.534 -1.25955 1.14321 0
M  V30 7294 O 669.719 -1.31773 1.42651 0
M  V30 7295 C 666.849 -2.03424 2.81489 0
M  V30 7296 C 665.803 -1.70519 3.92565 0
M  V30 7297 C 665.129 -3.01817 4.41373 0
M  V30 7298 C 666.429 -0.95449 5.13504 0
M  V30 7299 H 668.123 -0.271423 2.98167 0
M  V30 7300 H 665.669 -0.12911 1.4342 0
M  V30 7301 H 667.622 -2.69463 3.23987 0
M  V30 7302 H 666.346 -2.58008 2.00248 0
M  V30 7303 H 665.005 -1.06859 3.5068 0
M  V30 7304 H 664.653 -3.54386 3.56959 0
M  V30 7305 H 664.353 -2.80565 5.16292 0
M  V30 7306 H 665.877 -3.68934 4.86539 0
M  V30 7307 H 667.291 -1.5169 5.52868 0
M  V30 7308 H 665.688 -0.842035 5.94163 0
M  V30 7309 H 666.758 0.0544033 4.84869 0
M  V30 7310 N 668.101 -1.57061 -0.130224 0
M  V30 7311 C 669.348 -1.84257 -0.839972 0
M  V30 7312 C 669.676 -0.726986 -1.80403 0
M  V30 7313 O 668.931 0.282632 -1.93648 0
M  V30 7314 C 669.23 -3.17878 -1.63365 0
M  V30 7315 C 668.896 -4.43475 -0.814891 0
M  V30 7316 C 667.558 -4.77581 -0.589066 0
M  V30 7317 C 669.91 -5.20631 -0.243437 0
M  V30 7318 C 667.238 -5.86292 0.218648 0
M  V30 7319 C 669.59 -6.30192 0.551408 0
M  V30 7320 C 668.254 -6.62837 0.787653 0
M  V30 7321 H 667.524 -0.674245 -0.307367 0
M  V30 7322 H 670.171 -1.91224 -0.102832 0
M  V30 7323 H 668.476 -3.06437 -2.44138 0
M  V30 7324 H 670.173 -3.3614 -2.18658 0
M  V30 7325 H 666.763 -4.16747 -1.00098 0
M  V30 7326 H 670.947 -4.94644 -0.405145 0
M  V30 7327 H 666.203 -6.10017 0.411016 0
M  V30 7328 H 670.377 -6.89165 1.00126 0
M  V30 7329 H 668.004 -7.46908 1.41537 0
M  V30 7330 N 669.579 0.400081 -1.52437 0
M  V30 7331 C 670.995 0.739359 -1.41441 0
M  V30 7332 C 671.195 1.94512 -0.526053 0
M  V30 7333 O 670.251 2.525 0.00472502 0
M  V30 7334 C 671.564 0.984824 -2.84116 0
M  V30 7335 C 673.112 1.08698 -2.93519 0
M  V30 7336 C 673.587 1.36515 -4.37181 0
M  V30 7337 N 675.078 1.43361 -4.40457 0
M  V30 7338 C 675.813 1.66528 -5.48686 0
M  V30 7339 N 675.309 1.87239 -6.67018 0
M  V30 7340 N 677.102 1.68617 -5.36213 0
M  V30 7341 H 669.253 -0.393484 -2.08723 0
M  V30 7342 H 671.516 -0.1138 -0.941145 0
M  V30 7343 H 671.222 0.171096 -3.51284 0
M  V30 7344 H 671.096 1.90253 -3.25705 0
M  V30 7345 H 673.483 1.89129 -2.26526 0
M  V30 7346 H 673.564 0.147432 -2.55375 0
M  V30 7347 H 673.208 0.565982 -5.04737 0
M  V30 7348 H 673.138 2.31737 -4.7287 0
M  V30 7349 H 675.629 1.29108 -3.55161 0
M  V30 7350 H 675.942 2.04392 -7.45281 0
M  V30 7351 H 674.287 1.84486 -6.70067 0
M  V30 7352 H 677.478 1.5198 -4.42741 0
M  V30 7353 H 677.651 1.86332 -6.20632 0
M  V30 7354 N 671.057 1.43213 0.657864 0
M  V30 7355 C 672.007 1.44459 1.76396 0
M  V30 7356 C 672.991 0.313641 1.57814 0
M  V30 7357 O 674.183 0.557094 1.68004 0
M  V30 7358 C 671.312 1.36586 3.14959 0
M  V30 7359 C 670.398 2.54692 3.39106 0
M  V30 7360 N 670.789 3.80059 3.33749 0
M  V30 7361 C 669.087 2.49316 3.69807 0
M  V30 7362 C 669.788 4.58606 3.57849 0
M  V30 7363 N 668.764 3.89267 3.79437 0
M  V30 7364 H 672.566 2.39265 1.70673 0
M  V30 7365 H 670.08 1.378 0.859357 0
M  V30 7366 H 672.077 1.35561 3.94245 0
M  V30 7367 H 670.737 0.427956 3.21867 0
M  V30 7368 H 671.748 4.12414 3.13266 0
M  V30 7369 H 668.425 1.6419 3.83859 0
M  V30 7370 H 669.815 5.67619 3.59525 0
M  V30 7371 N 672.536 -0.895792 1.29666 0
M  V30 7372 C 673.446 -2.03329 1.17024 0
M  V30 7373 C 674.462 -1.73753 0.0925962 0
M  V30 7374 O 675.638 -1.99071 0.305431 0
M  V30 7375 C 672.703 -3.36072 0.851841 0
M  V30 7376 C 671.764 -3.7914 2.01373 0
M  V30 7377 C 670.997 -5.05549 1.71043 0
M  V30 7378 O 671.22 -5.66874 0.633213 0
M  V30 7379 O 670.154 -5.44764 2.5596 0
M  V30 7380 H 673.98 -2.16918 2.12556 0
M  V30 7381 H 671.565 -1.02007 1.09156 0
M  V30 7382 H 673.447 -4.15729 0.689006 0
M  V30 7383 H 672.122 -3.23616 -0.0736634 0
M  V30 7384 H 671.029 -3.00233 2.23183 0
M  V30 7385 H 672.362 -3.96186 2.92058 0
M  V30 7386 N 674.014 -1.12206 -1.10668 0
M  V30 7387 C 675.244 -0.897332 -1.86095 0
M  V30 7388 C 675.652 0.556778 -1.80822 0
M  V30 7389 O 674.995 1.39658 -1.19337 0
M  V30 7390 C 675.057 -1.29095 -3.35522 0
M  V30 7391 C 674.721 -2.75586 -3.64556 0
M  V30 7392 C 675.718 -3.73785 -3.6136 0
M  V30 7393 C 673.403 -3.12432 -3.93309 0
M  V30 7394 C 675.397 -5.06845 -3.86506 0
M  V30 7395 C 673.084 -4.45675 -4.18111 0
M  V30 7396 C 674.082 -5.42691 -4.147 0
M  V30 7397 O 673.77 -6.73532 -4.38873 0
M  V30 7398 H 673.502 -0.320704 -0.595084 0
M  V30 7399 H 676.056 -1.49517 -1.40833 0
M  V30 7400 H 674.286 -0.636299 -3.81429 0
M  V30 7401 H 675.975 -1.04073 -3.92331 0
M  V30 7402 H 676.741 -3.46664 -3.39189 0
M  V30 7403 H 672.62 -2.3753 -3.95096 0
M  V30 7404 H 676.164 -5.82559 -3.83758 0
M  V30 7405 H 672.061 -4.72526 -4.39761 0
M  V30 7406 H 672.829 -6.79442 -4.564 0
M  V30 7407 N 675.492 1.28418 -0.913599 0
M  V30 7408 C 676.72 1.99106 -0.562536 0
M  V30 7409 C 677.135 1.68273 0.856137 0
M  V30 7410 O 676.492 0.935401 1.56705 0
M  V30 7411 C 676.543 3.5338 -0.761903 0
M  V30 7412 O 676.264 3.83127 -2.12475 0
M  V30 7413 C 677.765 4.41328 -0.417651 0
M  V30 7414 H 674.985 0.635798 -0.214481 0
M  V30 7415 H 677.529 1.63618 -1.22676 0
M  V30 7416 H 675.684 3.8713 -0.144676 0
M  V30 7417 H 676.098 4.77763 -2.16431 0
M  V30 7418 H 677.572 5.48642 -0.607919 0
M  V30 7419 H 678.049 4.34422 0.646108 0
M  V30 7420 H 678.655 4.13074 -1.01241 0
M  V30 7421 N 676.97 0.677563 1.42291 0
M  V30 7422 C 677.92 -0.0218641 2.2799 0
M  V30 7423 C 678.904 -0.770816 1.41235 0
M  V30 7424 O 680.096 -0.649273 1.64662 0
M  V30 7425 C 677.225 -0.970449 3.29298 0
M  V30 7426 C 676.311 -0.218695 4.23536 0
M  V30 7427 N 676.702 0.777908 4.99782 0
M  V30 7428 C 675 -0.456748 4.43655 0
M  V30 7429 C 675.701 1.22632 5.68627 0
M  V30 7430 N 674.677 0.55573 5.40752 0
M  V30 7431 H 678.479 0.742516 2.84366 0
M  V30 7432 H 675.993 0.506862 1.54288 0
M  V30 7433 H 677.99 -1.48652 3.89497 0
M  V30 7434 H 676.65 -1.73463 2.74483 0
M  V30 7435 H 677.661 1.15754 5.04798 0
M  V30 7436 H 674.338 -1.20021 3.99877 0
M  V30 7437 H 675.728 2.05231 6.39789 0
M  V30 7438 N 678.448 -1.51871 0.421078 0
M  V30 7439 C 679.678 -2.06057 -0.149723 0
M  V30 7440 C 680.086 -1.29002 -1.38402 0
M  V30 7441 O 679.429 -0.338385 -1.80556 0
M  V30 7442 C 679.491 -3.55216 -0.553339 0
M  V30 7443 C 679.155 -4.53408 0.571879 0
M  V30 7444 C 680.152 -4.99586 1.4391 0
M  V30 7445 C 677.837 -4.967 0.747979 0
M  V30 7446 C 679.831 -5.87711 2.46727 0
M  V30 7447 C 677.518 -5.84619 1.77944 0
M  V30 7448 C 678.516 -6.30021 2.63748 0
M  V30 7449 O 678.204 -7.16197 3.65126 0
M  V30 7450 H 677.936 -0.675744 -0.0186102 0
M  V30 7451 H 680.49 -1.96618 0.594166 0
M  V30 7452 H 678.72 -3.62381 -1.34969 0
M  V30 7453 H 680.409 -3.91992 -1.05342 0
M  V30 7454 H 681.175 -4.66846 1.31451 0
M  V30 7455 H 677.054 -4.60913 0.0897357 0
M  V30 7456 H 680.598 -6.2307 3.13734 0
M  V30 7457 H 676.495 -6.16771 1.90429 0
M  V30 7458 H 677.263 -7.34337 3.61512 0
M  V30 7459 N 679.926 -0.151884 -1.56866 0
M  V30 7460 C 680.856 0.781943 -2.20018 0
M  V30 7461 C 681.837 1.25347 -1.14987 0
M  V30 7462 O 683.022 1.31015 -1.43348 0
M  V30 7463 C 680.152 2.01928 -2.82564 0
M  V30 7464 C 679.106 1.68434 -3.93464 0
M  V30 7465 C 678.432 2.99472 -4.42968 0
M  V30 7466 C 679.732 0.927244 -5.14003 0
M  V30 7467 H 681.426 0.255607 -2.98307 0
M  V30 7468 H 678.972 0.121502 -1.43486 0
M  V30 7469 H 680.925 2.67741 -3.25411 0
M  V30 7470 H 679.649 2.56943 -2.01614 0
M  V30 7471 H 678.308 1.04998 -3.51242 0
M  V30 7472 H 677.956 3.52488 -3.58834 0
M  V30 7473 H 677.656 2.77823 -5.17772 0
M  V30 7474 H 679.18 3.66348 -4.88489 0
M  V30 7475 H 680.594 1.48756 -5.53665 0
M  V30 7476 H 678.991 0.810513 -5.94601 0
M  V30 7477 H 680.061 -0.0801163 -4.84834 0
M  V30 7478 N 681.404 1.57128 0.121893 0
M  V30 7479 C 682.336 1.96773 1.17529 0
M  V30 7480 C 683.349 0.866668 1.37814 0
M  V30 7481 O 684.538 1.14497 1.3694 0
M  V30 7482 C 681.638 2.24832 2.53582 0
M  V30 7483 C 680.811 3.56138 2.53939 0
M  V30 7484 C 679.87 3.72443 3.71716 0
M  V30 7485 O 678.896 4.44584 3.55434 0
M  V30 7486 N 680.098 3.10993 4.90167 0
M  V30 7487 H 682.863 2.87743 0.838086 0
M  V30 7488 H 680.424 1.58881 0.311199 0
M  V30 7489 H 682.416 2.32958 3.30927 0
M  V30 7490 H 680.986 1.40002 2.79496 0
M  V30 7491 H 680.206 3.59226 1.62329 0
M  V30 7492 H 681.494 4.42448 2.51231 0
M  V30 7493 H 680.892 2.52345 5.06299 0
M  V30 7494 H 679.449 3.24644 5.65198 0
M  V30 7495 N 682.882 -0.391992 1.52647 0
M  V30 7496 C 684.13 -1.13507 1.67214 0
M  V30 7497 C 684.451 -1.90575 0.41304 0
M  V30 7498 O 683.721 -1.87348 -0.572498 0
M  V30 7499 H 682.301 -0.422013 0.616372 0
M  V30 7500 H 684.963 -0.44502 1.89751 0
M  V30 7501 H 684.059 -1.83964 2.52118 0
M  V30 7502 N 684.36 -1.4356 -0.65026 0
M  V30 7503 C 685.776 -1.27025 -0.966269 0
M  V30 7504 C 685.976 -0.192117 -2.00582 0
M  V30 7505 O 685.032 0.428459 -2.48838 0
M  V30 7506 C 686.345 -2.63556 -1.44772 0
M  V30 7507 C 687.893 -2.71111 -1.56421 0
M  V30 7508 C 688.368 -4.08067 -2.07956 0
M  V30 7509 N 689.859 -4.10146 -2.15254 0
M  V30 7510 C 690.594 -5.12952 -2.56258 0
M  V30 7511 N 690.09 -6.26129 -2.96537 0
M  V30 7512 N 691.883 -5.00306 -2.56224 0
M  V30 7513 H 684.034 -2.12367 0.0375758 0
M  V30 7514 H 686.297 -0.946894 -0.0457782 0
M  V30 7515 H 686.003 -3.43429 -0.758271 0
M  V30 7516 H 685.877 -2.89152 -2.42221 0
M  V30 7517 H 688.264 -1.91569 -2.24467 0
M  V30 7518 H 688.345 -2.49277 -0.573967 0
M  V30 7519 H 687.989 -4.88077 -1.40511 0
M  V30 7520 H 687.919 -4.27266 -3.07817 0
M  V30 7521 H 690.41 -3.28453 -1.86887 0
M  V30 7522 H 690.723 -7.00403 -3.26582 0
M  V30 7523 H 689.068 -6.29597 -2.94334 0
M  V30 7524 H 692.259 -4.10952 -2.24135 0
M  V30 7525 H 692.432 -5.80553 -2.87857 0
M  V30 7526 N 685.838 0.888903 -1.30139 0
M  V30 7527 C 687.068 1.67115 -1.21474 0
M  V30 7528 C 687.476 1.87852 0.225472 0
M  V30 7529 O 686.819 1.42324 1.16145 0
M  V30 7530 C 686.881 3.0713 -1.86846 0
M  V30 7531 C 686.545 3.09582 -3.36167 0
M  V30 7532 C 687.542 2.88929 -4.32222 0
M  V30 7533 C 685.227 3.31304 -3.77549 0
M  V30 7534 C 687.221 2.89949 -5.67634 0
M  V30 7535 C 684.908 3.31954 -5.13079 0
M  V30 7536 C 685.906 3.113 -6.07932 0
M  V30 7537 O 685.594 3.11758 -7.40987 0
M  V30 7538 H 685.326 0.528372 -0.421662 0
M  V30 7539 H 687.88 1.11919 -1.7223 0
M  V30 7540 H 686.11 3.63973 -1.30615 0
M  V30 7541 H 687.799 3.6749 -1.72354 0
M  V30 7542 H 688.565 2.71948 -4.01584 0
M  V30 7543 H 684.444 3.46417 -3.04165 0
M  V30 7544 H 687.988 2.73746 -6.41645 0
M  V30 7545 H 683.885 3.48469 -5.43359 0
M  V30 7546 H 684.653 3.27951 -7.49927 0
M  V30 7547 N 687.317 1.12792 1.10072 0
M  V30 7548 C 688.28 0.802264 2.14701 0
M  V30 7549 C 689.28 -0.18515 1.59731 0
M  V30 7550 O 690.47 0.041109 1.74151 0
M  V30 7551 C 687.602 0.19285 3.40354 0
M  V30 7552 H 688.795 1.72932 2.45019 0
M  V30 7553 H 686.348 0.931662 1.25498 0
M  V30 7554 H 687.083 -0.743748 3.15656 0
M  V30 7555 H 686.868 0.903827 3.81541 0
M  V30 7556 H 688.358 -0.0183704 4.17596 0
M  V30 7557 N 688.795 -1.27931 0.920396 0
M  V30 7558 C 690.041 -1.94977 0.557832 0
M  V30 7559 C 690.374 -1.72224 -0.897365 0
M  V30 7560 O 689.649 -1.04705 -1.63912 0
M  V30 7561 C 689.932 -3.49289 0.875741 0
M  V30 7562 C 689.785 -3.81416 2.38416 0
M  V30 7563 C 691.104 -4.38486 0.376517 0
M  V30 7564 H 688.223 -0.708164 0.20414 0
M  V30 7565 H 690.865 -1.5118 1.15085 0
M  V30 7566 H 689.015 -3.86724 0.371062 0
M  V30 7567 H 690.687 -3.53813 2.95997 0
M  V30 7568 H 688.93 -3.28225 2.83639 0
M  V30 7569 H 689.601 -4.89198 2.55713 0
M  V30 7570 H 692.077 -4.08161 0.808945 0
M  V30 7571 H 690.953 -5.45296 0.627976 0
M  V30 7572 H 691.214 -4.36143 -0.723293 0
M  V30 7573 N 690.273 -0.685099 -1.4193 0
M  V30 7574 C 691.684 -0.287699 -1.8447 0
M  V30 7575 C 692.035 1.17215 -1.57338 0
M  V30 7576 O 691.16 1.89856 -1.03845 0
M  V30 7577 C 691.755 -0.515385 -3.34857 0
M  V30 7578 C 690.314 -0.172006 -3.76007 0
M  V30 7579 C 689.461 -0.802808 -2.65425 0
M  V30 7580 H 692.412 -0.88652 -1.3163 0
M  V30 7581 H 692.433 0.229251 -3.79809 0
M  V30 7582 H 691.945 -1.57796 -3.54573 0
M  V30 7583 H 690.046 0.886716 -3.61895 0
M  V30 7584 H 690.159 -0.619717 -4.75075 0
M  V30 7585 H 688.523 -0.233267 -2.5363 0
M  V30 7586 H 689.306 -1.86904 -2.87961 0
M  V30 7587 N 691.751 1.51645 -0.429126 0
M  V30 7588 C 692.999 2.01616 0.139802 0
M  V30 7589 C 693.32 1.31568 1.43927 0
M  V30 7590 O 692.59 0.447688 1.90716 0
M  V30 7591 H 691.17 0.744998 0.054654 0
M  V30 7592 H 693.832 1.8638 -0.569952 0
M  V30 7593 H 692.928 3.10439 0.321609 0
M  V30 7594 N 693.229 0.160201 1.56784 0
M  V30 7595 C 694.161 -0.80564 2.14574 0
M  V30 7596 C 695.174 -1.20154 1.09849 0
M  V30 7597 O 696.363 -1.14333 1.37078 0
M  V30 7598 C 693.463 -2.09434 2.6644 0
M  V30 7599 C 692.636 -1.86375 3.95706 0
M  V30 7600 C 691.695 -2.99358 4.32749 0
M  V30 7601 O 690.721 -2.70475 5.00831 0
M  V30 7602 N 691.923 -4.26867 3.93402 0
M  V30 7603 H 694.688 -0.311644 2.98075 0
M  V30 7604 H 692.249 -0.0229465 1.61884 0
M  V30 7605 H 694.241 -2.84091 2.88226 0
M  V30 7606 H 692.811 -2.50057 1.8759 0
M  V30 7607 H 692.031 -0.956821 3.82412 0
M  V30 7608 H 693.319 -1.68322 4.80151 0
M  V30 7609 H 692.717 -4.53197 3.38569 0
M  V30 7610 H 691.274 -4.98263 4.20211 0
M  V30 7611 N 694.707 -1.5719 -0.113559 0
M  V30 7612 C 695.953 -1.86289 -0.816583 0
M  V30 7613 C 696.308 -0.748672 -1.77236 0
M  V30 7614 O 695.601 0.250889 -1.8995 0
M  V30 7615 C 695.795 -3.19593 -1.59984 0
M  V30 7616 C 695.624 -4.43876 -0.721414 0
M  V30 7617 C 694.394 -5.03913 -0.374172 0
M  V30 7618 C 696.592 -5.14287 -0.0366045 0
M  V30 7619 N 694.574 -6.11741 0.514352 0
M  V30 7620 C 695.945 -6.15913 0.710706 0
M  V30 7621 C 698 -4.97885 0.039247 0
M  V30 7622 C 696.703 -7.0291 1.52675 0
M  V30 7623 C 698.729 -5.85373 0.842135 0
M  V30 7624 C 698.091 -6.86506 1.57762 0
M  V30 7625 H 694.19 -0.731839 -0.275564 0
M  V30 7626 H 696.774 -1.94535 -0.080033 0
M  V30 7627 H 694.945 -3.12432 -2.30739 0
M  V30 7628 H 696.677 -3.3648 -2.24862 0
M  V30 7629 H 693.432 -4.68131 -0.717653 0
M  V30 7630 H 693.856 -6.70293 0.950623 0
M  V30 7631 H 698.498 -4.19651 -0.51503 0
M  V30 7632 H 696.216 -7.80547 2.09217 0
M  V30 7633 H 699.802 -5.74746 0.903256 0
M  V30 7634 H 698.682 -7.53032 2.1889 0
M  V30 7635 N 696.185 0.383891 -1.52853 0
M  V30 7636 C 697.433 1.12619 -1.67814 0
M  V30 7637 C 697.754 1.90354 -0.423141 0
M  V30 7638 O 697.024 1.87649 0.562554 0
M  V30 7639 H 695.604 0.418738 -0.618601 0
M  V30 7640 H 698.266 0.43495 -1.89985 0
M  V30 7641 H 697.362 1.82624 -2.5309 0
M  V30 7642 N 697.663 1.43903 0.642637 0
M  V30 7643 C 699.079 1.27536 0.959519 0
M  V30 7644 C 699.279 0.202751 2.00477 0
M  V30 7645 O 698.335 -0.415256 2.49062 0
M  V30 7646 C 699.648 2.6432 1.43372 0
M  V30 7647 C 701.196 2.71937 1.54981 0
M  V30 7648 C 701.671 4.09164 2.05789 0
M  V30 7649 N 703.162 4.11282 2.13076 0
M  V30 7650 C 703.897 5.14303 2.53534 0
M  V30 7651 N 703.393 6.27693 2.93212 0
M  V30 7652 N 705.186 5.01657 2.53567 0
M  V30 7653 H 697.337 2.12344 -0.0488376 0
M  V30 7654 H 699.6 0.947124 0.0407559 0
M  V30 7655 H 699.306 3.43826 0.740048 0
M  V30 7656 H 699.18 2.90432 2.40685 0
M  V30 7657 H 701.567 1.92757 2.23448 0
M  V30 7658 H 701.648 2.49578 0.560739 0
M  V30 7659 H 701.292 4.88815 1.37921 0
M  V30 7660 H 701.222 4.28893 3.05546 0
M  V30 7661 H 703.713 3.2944 1.85143 0
M  V30 7662 H 704.026 7.02125 3.22863 0
M  V30 7663 H 702.371 6.31149 2.90991 0
M  V30 7664 H 705.562 4.12134 2.21952 0
M  V30 7665 H 705.735 5.82072 2.84774 0
M  V30 7666 N 699.141 -0.881989 1.30609 0
M  V30 7667 C 700.369 -1.66711 1.22536 0
M  V30 7668 C 700.784 -1.87614 -0.2113 0
M  V30 7669 O 700.141 -1.42576 -1.13923 0
M  V30 7670 C 700.192 -3.04182 1.95335 0
M  V30 7671 O 699.913 -2.8422 3.33393 0
M  V30 7672 C 701.414 -3.98617 1.93956 0
M  V30 7673 H 698.634 -0.520124 0.423925 0
M  V30 7674 H 701.178 -1.10174 1.72285 0
M  V30 7675 H 699.333 -3.57442 1.49378 0
M  V30 7676 H 699.747 -3.71452 3.70302 0
M  V30 7677 H 701.221 -4.92433 2.49426 0
M  V30 7678 H 701.698 -4.29473 0.919198 0
M  V30 7679 H 702.304 -3.51292 2.39738 0
M  V30 7680 N 700.619 -1.13374 -1.09472 0
M  V30 7681 C 701.566 -0.810682 -2.16094 0
M  V30 7682 C 702.536 0.227003 -1.64541 0
M  V30 7683 O 703.721 0.0993538 -1.90541 0
M  V30 7684 C 700.861 -0.282336 -3.43943 0
M  V30 7685 C 699.974 -1.37902 -4.09398 0
M  V30 7686 C 699.109 -0.809066 -5.25002 0
M  V30 7687 C 698.148 -1.88419 -5.82379 0
M  V30 7688 N 697.285 -1.33221 -6.89345 0
M  V30 7689 H 702.125 -1.72397 -2.43071 0
M  V30 7690 H 699.662 -0.860564 -1.19301 0
M  V30 7691 H 701.62 0.0421189 -4.17179 0
M  V30 7692 H 700.25 0.594083 -3.17286 0
M  V30 7693 H 699.302 -1.82008 -3.34032 0
M  V30 7694 H 700.614 -2.19161 -4.48074 0
M  V30 7695 H 699.768 -0.435867 -6.05132 0
M  V30 7696 H 698.507 0.0346058 -4.87688 0
M  V30 7697 H 697.512 -2.26646 -5.00911 0
M  V30 7698 H 698.737 -2.73125 -6.21755 0
M  V30 7699 H 696.683 -0.510535 -6.5401 0
M  V30 7700 H 696.6 -2.08129 -7.26786 0
M  V30 7701 H 697.868 -0.986565 -7.73232 0
M  V30 7702 N 702.098 1.27442 -0.927168 0
M  V30 7703 C 703.028 2.29256 -0.443188 0
M  V30 7704 C 704.009 1.62701 0.49624 0
M  V30 7705 O 705.194 1.90013 0.401105 0
M  V30 7706 C 702.324 3.45955 0.305366 0
M  V30 7707 C 701.278 4.24501 -0.546178 0
M  V30 7708 C 700.604 5.33671 0.331512 0
M  V30 7709 C 701.904 4.89921 -1.81037 0
M  V30 7710 H 703.598 2.69988 -1.29409 0
M  V30 7711 H 701.144 1.29792 -0.623705 0
M  V30 7712 H 703.097 4.1628 0.654885 0
M  V30 7713 H 701.821 3.04138 1.19029 0
M  V30 7714 H 700.48 3.55921 -0.878398 0
M  V30 7715 H 700.128 4.88096 1.21537 0
M  V30 7716 H 699.828 5.87131 -0.234746 0
M  V30 7717 H 701.352 6.0684 0.676614 0
M  V30 7718 H 702.766 5.52536 -1.52895 0
M  V30 7719 H 701.163 5.53436 -2.32009 0
M  V30 7720 H 702.233 4.13652 -2.53021 0
M  V30 7721 N 703.576 0.692616 1.41565 0
M  V30 7722 C 704.806 0.230943 2.05305 0
M  V30 7723 C 705.214 -1.12379 1.52209 0
M  V30 7724 O 704.557 -1.71281 0.663968 0
M  V30 7725 C 704.619 0.107894 3.59338 0
M  V30 7726 C 704.283 1.39419 4.35214 0
M  V30 7727 C 705.28 2.33143 4.64694 0
M  V30 7728 C 702.965 1.64674 4.74539 0
M  V30 7729 C 704.959 3.50385 5.32456 0
M  V30 7730 C 702.646 2.82202 5.42038 0
M  V30 7731 C 703.644 3.74881 5.70923 0
M  V30 7732 O 703.332 4.90351 6.37033 0
M  V30 7733 H 703.064 0.105708 0.667684 0
M  V30 7734 H 705.618 0.94488 1.82376 0
M  V30 7735 H 703.848 -0.661785 3.80995 0
M  V30 7736 H 705.537 -0.316213 4.04666 0
M  V30 7737 H 706.303 2.14887 4.34797 0
M  V30 7738 H 702.182 0.934007 4.51439 0
M  V30 7739 H 705.726 4.22743 5.54918 0
M  V30 7740 H 701.623 3.00376 5.71353 0
M  V30 7741 H 702.391 4.90128 6.55528 0
M  V30 7742 N 705.054 -1.51416 0.437162 0
M  V30 7743 C 706.331 -1.94682 -0.189292 0
M  V30 7744 C 706.711 -1.37581 -1.60108 0
M  V30 7745 O 706.059 -0.562815 -2.2146 0
M  V30 7746 C 706.269 -3.48599 -0.167201 0
M  V30 7747 C 707.617 -4.2296 -0.372856 0
M  V30 7748 O 708.641 -3.55354 -0.245323 0
M  V30 7749 O 707.5 -5.42895 -0.626693 0
M  V30 7750 H 704.594 -0.816708 -0.130063 0
M  V30 7751 H 707.14 -1.62316 0.495128 0
M  V30 7752 H 705.912 -3.82616 0.81981 0
M  V30 7753 H 705.535 -3.87406 -0.894537 0
M  V30 7754 N 706.532 -0.168513 -1.56696 0
M  V30 7755 C 707.48 0.779791 -2.19139 0
M  V30 7756 C 708.474 1.23957 -1.1546 0
M  V30 7757 O 709.68 1.20555 -1.33666 0
M  V30 7758 H 706.055 0.269739 -0.701958 0
M  V30 7759 H 708.026 0.229156 -2.97519 0
M  V30 7760 C 706.775 2.00003 -2.84419 0
M  V30 7761 H 706.098 1.65527 -3.63924 0
M  V30 7762 H 707.538 2.64251 -3.31583 0
M  V30 7763 C 705.997 2.82187 -1.84044 0
M  V30 7764 O 706.527 3.79247 -1.32418 0
M  V30 7765 N 704.733 2.47145 -1.52864 0
M  V30 7766 H 704.28 1.68277 -1.9504 0
M  V30 7767 H 704.238 3.02422 -0.859569 0
M  V30 7768 N 708.01 1.57248 0.105221 0
M  V30 7769 C 709.287 1.76566 0.841647 0
M  V30 7770 C 709.667 0.747566 1.9742 0
M  V30 7771 O 709.015 -0.225886 2.27381 0
M  V30 7772 C 709.225 3.22016 1.3456 0
M  V30 7773 C 710.573 3.84911 1.79244 0
M  V30 7774 O 711.597 3.25703 1.44207 0
M  V30 7775 O 710.456 4.89008 2.43995 0
M  V30 7776 H 707.55 0.723443 0.400698 0
M  V30 7777 H 710.096 1.69472 0.0878893 0
M  V30 7778 H 708.868 3.87644 0.533685 0
M  V30 7779 H 708.491 3.33703 2.16167 0
M  V30 7780 N 709.488 -0.375779 1.53054 0
M  V30 7781 C 710.904 -0.716764 1.426 0
M  V30 7782 C 711.104 -1.93651 0.556931 0
M  V30 7783 O 710.16 -2.52475 0.0354461 0
M  V30 7784 C 711.473 -0.939499 2.85646 0
M  V30 7785 C 713.021 -1.04015 2.95212 0
M  V30 7786 C 713.496 -1.29543 4.39298 0
M  V30 7787 N 714.987 -1.36335 4.42682 0
M  V30 7788 C 715.722 -1.57778 5.51266 0
M  V30 7789 N 715.218 -1.76604 6.69913 0
M  V30 7790 N 717.011 -1.60065 5.38828 0
M  V30 7791 H 709.162 0.42664 2.08071 0
M  V30 7792 H 711.425 0.128758 0.939215 0
M  V30 7793 H 711.131 -0.115189 3.51511 0
M  V30 7794 H 711.005 -1.85048 3.2869 0
M  V30 7795 H 713.392 -1.85501 2.29507 0
M  V30 7796 H 713.473 -0.106785 2.55577 0
M  V30 7797 H 713.117 -0.485611 5.05573 0
M  V30 7798 H 713.047 -2.24184 4.76497 0
M  V30 7799 H 715.538 -1.23441 3.5717 0
M  V30 7800 H 715.851 -1.9251 7.48438 0
M  V30 7801 H 714.196 -1.73802 6.72917 0
M  V30 7802 H 717.387 -1.44917 4.45103 0
M  V30 7803 H 717.56 -1.76435 6.23518 0
M  V30 7804 N 710.966 -1.44241 -0.634997 0
M  V30 7805 C 711.896 -1.53632 -1.7584 0
M  V30 7806 C 712.877 -0.389603 -1.65578 0
M  V30 7807 O 714.062 -0.609219 -1.84397 0
M  V30 7808 C 711.192 -1.47644 -3.14354 0
M  V30 7809 C 710.146 -2.60752 -3.394 0
M  V30 7810 C 709.472 -2.39817 -4.77904 0
M  V30 7811 C 710.772 -4.02921 -3.32343 0
M  V30 7812 H 712.466 -2.47662 -1.68238 0
M  V30 7813 H 710.012 -1.19197 -0.807969 0
M  V30 7814 H 711.965 -1.52815 -3.92716 0
M  V30 7815 H 710.689 -0.501284 -3.2273 0
M  V30 7816 H 709.348 -2.54965 -2.63417 0
M  V30 7817 H 708.996 -1.40502 -4.82978 0
M  V30 7818 H 708.696 -3.15649 -4.9562 0
M  V30 7819 H 710.22 -2.46799 -5.585 0
M  V30 7820 H 711.634 -4.10098 -4.00615 0
M  V30 7821 H 710.031 -4.78925 -3.61595 0
M  V30 7822 H 711.101 -4.26766 -2.30215 0
M  V30 7823 N 712.444 0.87505 -1.31075 0
M  V30 7824 C 713.672 1.66058 -1.23419 0
M  V30 7825 C 714.087 1.87723 0.201347 0
M  V30 7826 O 713.444 1.43178 1.13165 0
M  V30 7827 C 713.495 3.03142 -1.96945 0
M  V30 7828 O 713.216 2.82448 -3.34895 0
M  V30 7829 C 714.717 3.97583 -1.96067 0
M  V30 7830 H 711.937 0.517868 -0.426677 0
M  V30 7831 H 714.481 1.09258 -1.72867 0
M  V30 7832 H 712.636 3.56645 -1.51271 0
M  V30 7833 H 713.05 3.69483 -3.72267 0
M  V30 7834 H 714.524 4.91104 -2.52034 0
M  V30 7835 H 715.001 4.2898 -0.941961 0
M  V30 7836 H 715.607 3.50015 -2.41597 0
M  V30 7837 N 713.922 1.13953 1.08869 0
M  V30 7838 C 715.168 0.916103 1.81602 0
M  V30 7839 C 715.523 -0.551633 1.84322 0
M  V30 7840 O 714.816 -1.40322 1.30462 0
M  V30 7841 C 715.01 1.44495 3.26888 0
M  V30 7842 C 714.839 2.96257 3.38322 0
M  V30 7843 C 713.609 3.64658 3.49789 0
M  V30 7844 C 715.807 3.94156 3.30372 0
M  V30 7845 N 713.789 5.04379 3.49965 0
M  V30 7846 C 715.16 5.20101 3.37484 0
M  V30 7847 C 717.215 3.86342 3.14077 0
M  V30 7848 C 715.918 6.39145 3.29979 0
M  V30 7849 C 717.944 5.04927 3.07901 0
M  V30 7850 C 717.306 6.29738 3.1561 0
M  V30 7851 H 713.405 0.388701 0.678554 0
M  V30 7852 H 715.989 1.44879 1.3007 0
M  V30 7853 H 714.16 0.939102 3.76876 0
M  V30 7854 H 715.892 1.16193 3.87661 0
M  V30 7855 H 712.647 3.15196 3.5348 0
M  V30 7856 H 713.071 5.77305 3.53622 0
M  V30 7857 H 717.713 2.90726 3.06982 0
M  V30 7858 H 715.431 7.3501 3.35836 0
M  V30 7859 H 719.017 5.00626 2.9642 0
M  V30 7860 H 717.897 7.19958 3.10854 0
M  V30 7861 N 715.4 -1.26948 0.933913 0
M  V30 7862 C 716.63 -1.97898 0.593279 0
M  V30 7863 C 717.038 -1.69806 -0.834412 0
M  V30 7864 O 716.381 -0.958704 -1.56699 0
M  V30 7865 C 716.443 -3.51657 0.746825 0
M  V30 7866 C 716.107 -4.03384 2.14779 0
M  V30 7867 C 717.104 -4.15682 3.12257 0
M  V30 7868 C 714.789 -4.37577 2.46641 0
M  V30 7869 C 716.783 -4.61455 4.39702 0
M  V30 7870 C 714.47 -4.8304 3.7432 0
M  V30 7871 C 715.468 -4.94939 4.70664 0
M  V30 7872 O 715.156 -5.39403 5.96071 0
M  V30 7873 H 714.888 -0.63814 0.223055 0
M  V30 7874 H 717.442 -1.62608 1.2549 0
M  V30 7875 H 715.672 -3.8669 0.0280889 0
M  V30 7876 H 717.361 -4.03821 0.410328 0
M  V30 7877 H 718.127 -3.89519 2.88964 0
M  V30 7878 H 714.006 -4.27554 1.72391 0
M  V30 7879 H 717.55 -4.70658 5.14905 0
M  V30 7880 H 713.447 -5.08646 3.97429 0
M  V30 7881 H 714.215 -5.57641 5.99148 0
M  V30 7882 N 716.879 -0.700114 -1.41195 0
M  V30 7883 C 717.789 -0.0382854 -2.34569 0
M  V30 7884 C 718.805 0.761036 -1.56474 0
M  V30 7885 O 719.981 0.697553 -1.88934 0
M  V30 7886 C 717.046 0.883522 -3.35253 0
M  V30 7887 C 716.107 0.0758957 -4.29233 0
M  V30 7888 C 715.34 0.9538 -5.25108 0
M  V30 7889 O 715.563 2.19326 -5.26547 0
M  V30 7890 O 714.497 0.401049 -6.00562 0
M  V30 7891 H 718.323 -0.808073 -2.92752 0
M  V30 7892 H 715.908 -0.460479 -1.42127 0
M  V30 7893 H 717.79 1.41199 -3.9704 0
M  V30 7894 H 716.465 1.63272 -2.79506 0
M  V30 7895 H 715.372 -0.497274 -3.7078 0
M  V30 7896 H 716.705 -0.634741 -4.8809 0
M  V30 7897 N 718.357 1.51182 -0.445186 0
M  V30 7898 C 719.267 2.31692 0.368255 0
M  V30 7899 C 720.283 1.40942 1.02036 0
M  V30 7900 O 721.459 1.74011 1.01401 0
M  V30 7901 C 718.524 3.14903 1.45041 0
M  V30 7902 C 717.585 4.21442 0.817615 0
M  V30 7903 C 716.818 5.00677 1.8482 0
M  V30 7904 O 717.041 4.80644 3.07145 0
M  V30 7905 O 715.975 5.84559 1.43438 0
M  V30 7906 H 719.801 3.0232 -0.289219 0
M  V30 7907 H 717.386 1.47951 -0.207555 0
M  V30 7908 H 719.268 3.66612 2.07783 0
M  V30 7909 H 717.943 2.47031 2.09182 0
M  V30 7910 H 716.85 3.73791 0.151931 0
M  V30 7911 H 718.183 4.9171 0.219564 0
M  V30 7912 N 719.835 0.176821 1.56605 0
M  V30 7913 C 721.083 -0.465793 1.96659 0
M  V30 7914 C 721.404 -1.63406 1.06412 0
M  V30 7915 O 720.674 -1.95457 0.131603 0
M  V30 7916 H 719.254 -0.175072 0.726195 0
M  V30 7917 H 721.916 0.25929 1.93168 0
M  V30 7918 H 721.012 -0.822138 3.01077 0
M  V30 7919 N 721.313 -1.57302 -0.09688 0
M  V30 7920 C 722.561 -1.8563 -0.799117 0
M  V30 7921 C 722.882 -0.765263 -1.79356 0
M  V30 7922 O 722.152 0.208657 -1.94786 0
M  V30 7923 H 720.732 -0.684937 -0.298111 0
M  V30 7924 H 723.394 -1.9474 -0.0789341 0
M  V30 7925 H 722.49 -2.82305 -1.3308 0
M  V30 7926 N 722.791 0.367657 -1.53252 0
M  V30 7927 C 723.754 1.43308 -1.78873 0
M  V30 7928 C 724.754 1.46671 -0.659115 0
M  V30 7929 O 725.944 1.47468 -0.927306 0
M  V30 7930 C 723.076 2.82442 -1.90892 0
M  V30 7931 H 724.269 1.21864 -2.74024 0
M  V30 7932 H 721.822 0.600668 -1.44297 0
M  V30 7933 H 722.557 3.09202 -0.978 0
M  V30 7934 H 722.342 2.81399 -2.73051 0
M  V30 7935 H 723.832 3.59601 -2.12314 0
M  V30 7936 N 724.269 1.44576 0.627338 0
M  V30 7937 C 725.179 1.54232 1.76776 0
M  V30 7938 C 726.195 0.427782 1.6866 0
M  V30 7939 O 727.371 0.685671 1.89369 0
M  V30 7940 C 724.436 1.48738 3.13174 0
M  V30 7941 C 723.497 2.71074 3.32893 0
M  V30 7942 C 722.73 2.65832 4.62784 0
M  V30 7943 O 722.953 1.72048 5.43834 0
M  V30 7944 O 721.887 3.56742 4.84787 0
M  V30 7945 H 725.713 2.50586 1.71582 0
M  V30 7946 H 723.298 1.26865 0.789028 0
M  V30 7947 H 725.18 1.48211 3.94476 0
M  V30 7948 H 723.855 0.555292 3.18902 0
M  V30 7949 H 722.762 2.77168 2.51254 0
M  V30 7950 H 724.095 3.63342 3.32029 0
M  V30 7951 N 725.747 -0.868086 1.31537 0
M  V30 7952 C 726.677 -1.99131 1.21939 0
M  V30 7953 C 727.658 -1.69768 0.106166 0
M  V30 7954 O 728.843 -1.92006 0.291081 0
M  V30 7955 C 725.973 -3.34676 0.927879 0
M  V30 7956 C 724.927 -3.7835 2.00088 0
M  V30 7957 C 724.253 -5.11375 1.56203 0
M  V30 7958 C 725.553 -3.95256 3.41424 0
M  V30 7959 H 727.247 -2.07419 2.15911 0
M  V30 7960 H 724.793 -0.996569 1.03945 0
M  V30 7961 H 726.746 -4.12793 0.847327 0
M  V30 7962 H 725.47 -3.26565 -0.0475042 0
M  V30 7963 H 724.129 -3.02474 2.07135 0
M  V30 7964 H 723.777 -4.99709 0.57445 0
M  V30 7965 H 723.477 -5.41568 2.27985 0
M  V30 7966 H 725.001 -5.92001 1.49558 0
M  V30 7967 H 726.415 -4.63764 3.3704 0
M  V30 7968 H 724.812 -4.36849 4.1144 0
M  V30 7969 H 725.882 -2.98579 3.82072 0
M  V30 7970 N 727.225 -1.14528 -1.08264 0
M  V30 7971 C 728.472 -0.914405 -1.80679 0
M  V30 7972 C 728.8 0.558952 -1.86295 0
M  V30 7973 O 728.055 1.43017 -1.33584 0
M  V30 7974 C 728.354 -1.46226 -3.26117 0
M  V30 7975 C 728.02 -2.95451 -3.40616 0
M  V30 7976 C 726.682 -3.36191 -3.4428 0
M  V30 7977 C 729.034 -3.91399 -3.44175 0
M  V30 7978 C 726.362 -4.71539 -3.49096 0
M  V30 7979 C 728.714 -5.26606 -3.50526 0
M  V30 7980 C 727.378 -5.66856 -3.52464 0
M  V30 7981 H 726.648 -0.334604 -0.661151 0
M  V30 7982 H 729.295 -1.4292 -1.27461 0
M  V30 7983 H 727.6 -0.868442 -3.82054 0
M  V30 7984 H 729.297 -1.25955 -3.80705 0
M  V30 7985 H 725.887 -2.62955 -3.38456 0
M  V30 7986 H 730.071 -3.61004 -3.40573 0
M  V30 7987 H 725.327 -5.02082 -3.4889 0
M  V30 7988 H 729.501 -6.00758 -3.52225 0
M  V30 7989 H 727.128 -6.71718 -3.55948 0
M  V30 7990 N 728.703 1.26451 -0.940633 0
M  V30 7991 C 729.666 2.24651 -0.454378 0
M  V30 7992 C 730.666 1.54826 0.434222 0
M  V30 7993 O 731.856 1.72628 0.233477 0
M  V30 7994 C 728.988 3.39148 0.345192 0
M  V30 7995 H 730.181 2.69182 -1.32217 0
M  V30 7996 H 727.734 1.38596 -0.722547 0
M  V30 7997 H 728.469 3.00018 1.23125 0
M  V30 7998 H 728.254 3.9101 -0.292107 0
M  V30 7999 H 729.744 4.12103 0.675341 0
M  V30 8000 N 730.181 0.707592 1.40822 0
M  V30 8001 C 731.429 0.243189 2.00632 0
M  V30 8002 C 731.75 -1.16512 1.56365 0
M  V30 8003 O 731.02 -1.78841 0.799553 0
M  V30 8004 H 729.6 0.0869203 0.741926 0
M  V30 8005 H 732.262 0.911438 1.72275 0
M  V30 8006 H 731.358 0.270014 3.1093 0
M  V30 8007 N 731.66 -1.50943 0.453197 0
M  V30 8008 C 732.885 -2.07116 -0.108463 0
M  V30 8009 C 733.31 -1.31681 -1.3432 0
M  V30 8010 O 732.668 -0.359256 -1.77705 0
M  V30 8011 C 732.716 -3.58447 -0.393424 0
M  V30 8012 O 731.82 -3.85038 -1.47714 0
M  V30 8013 H 731.161 -0.66398 0.0050993 0
M  V30 8014 H 733.691 -1.94362 0.639095 0
M  V30 8015 H 733.701 -4.02961 -0.639222 0
M  V30 8016 H 732.376 -4.12774 0.508946 0
M  V30 8017 H 730.953 -3.52376 -1.22006 0
M  V30 8018 N 733.138 -0.185124 -1.56509 0
M  V30 8019 C 734.366 0.462139 -2.01673 0
M  V30 8020 C 734.781 1.55873 -1.06532 0
M  V30 8021 O 734.138 1.82371 -0.0684805 0
M  V30 8022 C 734.189 1.0277 -3.46584 0
M  V30 8023 O 733.91 -0.0251296 -4.38093 0
M  V30 8024 C 735.411 1.75183 -4.07217 0
M  V30 8025 H 732.631 0.117001 -0.660721 0
M  V30 8026 H 735.175 -0.290905 -2.0242 0
M  V30 8027 H 733.33 1.73118 -3.46568 0
M  V30 8028 H 733.744 0.394387 -5.23015 0
M  V30 8029 H 735.218 2.09999 -5.10494 0
M  V30 8030 H 735.695 2.6519 -3.50101 0
M  V30 8031 H 736.301 1.09445 -4.10977 0
M  V30 8032 N 734.616 1.57351 0.0885366 0
M  V30 8033 C 736.032 1.53331 0.442916 0
M  V30 8034 C 736.232 0.902831 1.80142 0
M  V30 8035 O 735.288 0.498147 2.47537 0
M  V30 8036 C 736.601 2.98036 0.399372 0
M  V30 8037 C 738.149 3.09286 0.480759 0
M  V30 8038 C 738.624 4.5561 0.467296 0
M  V30 8039 N 740.115 4.60182 0.52786 0
M  V30 8040 C 740.85 5.70857 0.539388 0
M  V30 8041 N 740.346 6.90944 0.506729 0
M  V30 8042 N 742.139 5.59051 0.584691 0
M  V30 8043 H 734.29 1.96709 -0.801215 0
M  V30 8044 H 736.553 0.899639 -0.298922 0
M  V30 8045 H 736.259 3.47656 -0.531806 0
M  V30 8046 H 736.133 3.57066 1.21589 0
M  V30 8047 H 738.52 2.5965 1.40236 0
M  V30 8048 H 738.601 2.53197 -0.364023 0
M  V30 8049 H 738.245 5.05899 -0.450384 0
M  V30 8050 H 738.175 5.09544 1.32938 0
M  V30 8051 H 740.666 3.73757 0.558028 0
M  V30 8052 H 740.979 7.71055 0.518989 0
M  V30 8053 H 739.324 6.93384 0.473675 0
M  V30 8054 H 742.515 4.64138 0.607781 0
M  V30 8055 H 742.688 6.45307 0.590206 0
M  V30 8056 N 736.094 -0.359525 1.53444 0
M  V30 8057 C 737.322 -1.12198 1.73837 0
M  V30 8058 C 737.737 -1.82854 0.470107 0
M  V30 8059 O 737.094 -1.73781 -0.557349 0
M  V30 8060 C 737.145 -2.14769 2.90786 0
M  V30 8061 O 736.866 -1.46989 4.12706 0
M  V30 8062 C 738.367 -3.03514 3.231 0
M  V30 8063 H 735.587 -0.33524 0.581253 0
M  V30 8064 H 738.131 -0.416598 2.00212 0
M  V30 8065 H 736.286 -2.80896 2.66788 0
M  V30 8066 H 736.7 -2.15378 4.78239 0
M  V30 8067 H 738.174 -3.71453 4.08322 0
M  V30 8068 H 738.651 -3.68658 2.38721 0
M  V30 8069 H 739.257 -2.42996 3.49046 0
M  V30 8070 N 737.572 -1.44907 -0.619662 0
M  V30 8071 C 738.797 -1.52021 -1.41083 0
M  V30 8072 C 739.222 -0.14976 -1.87503 0
M  V30 8073 O 738.58 0.863303 -1.59426 0
M  V30 8074 C 738.628 -2.49911 -2.59955 0
M  V30 8075 O 737.732 -2.00857 -3.60181 0
M  V30 8076 H 737.073 -0.512912 -0.421684 0
M  V30 8077 H 739.603 -1.90149 -0.755282 0
M  V30 8078 H 739.613 -2.68323 -3.07354 0
M  V30 8079 H 738.288 -3.4945 -2.25516 0
M  V30 8080 H 736.865 -1.92265 -3.19513 0
M  V30 8081 N 739.05 0.861098 -1.31996 0
M  V30 8082 C 740.298 1.61162 -1.21947 0
M  V30 8083 C 740.619 1.93751 0.220351 0
M  V30 8084 O 739.889 1.59069 1.14341 0
M  V30 8085 H 738.469 0.597485 -0.448353 0
M  V30 8086 H 741.131 1.03039 -1.65436 0
M  V30 8087 H 740.227 2.55138 -1.79752 0
M  V30 8088 N 740.528 1.15101 1.07655 0
M  V30 8089 C 741.777 0.918528 1.79572 0
M  V30 8090 C 742.09 -0.555922 1.87534 0
M  V30 8091 O 743.296 -0.905893 2.55941 0
M  V30 8092 C 741.752 1.59394 3.22679 0
M  V30 8093 C 741.36 3.1052 3.22927 0
M  V30 8094 C 743.104 1.44289 3.99225 0
M  V30 8095 C 741.011 3.70862 4.60668 0
M  V30 8096 H 739.941 0.340006 0.672987 0
M  V30 8097 H 742.592 1.38079 1.20857 0
M  V30 8098 H 740.974 1.05936 3.81567 0
M  V30 8099 H 742.148 3.70708 2.737 0
M  V30 8100 H 740.463 3.25351 2.59876 0
M  V30 8101 H 743.06 1.86766 5.01022 0
M  V30 8102 H 743.403 0.389975 4.14469 0
M  V30 8103 H 743.936 1.94826 3.46825 0
M  V30 8104 H 740.675 4.7604 4.50628 0
M  V30 8105 H 740.195 3.15456 5.10145 0
M  V30 8106 H 741.874 3.71607 5.29639 0
M  V30 8107 N 742.006 -1.2595 0.947325 0
M  V30 8108 C 742.936 -2.28521 0.479604 0
M  V30 8109 C 743.917 -1.63469 -0.470293 0
M  V30 8110 O 745.102 -1.90627 -0.370824 0
M  V30 8111 C 742.232 -3.46397 -0.250289 0
M  V30 8112 C 741.186 -4.23578 0.613643 0
M  V30 8113 C 740.512 -5.34131 -0.246568 0
M  V30 8114 C 741.812 -4.86979 1.88809 0
M  V30 8115 H 743.506 -2.67895 1.33688 0
M  V30 8116 H 741.052 -1.28783 0.644274 0
M  V30 8117 H 743.005 -4.17269 -0.588576 0
M  V30 8118 H 741.729 -3.05993 -1.14175 0
M  V30 8119 H 740.388 -3.54478 0.93491 0
M  V30 8120 H 740.036 -4.89968 -1.13756 0
M  V30 8121 H 739.736 -5.86683 0.328123 0
M  V30 8122 H 741.26 -6.07839 -0.579986 0
M  V30 8123 H 742.674 -5.50034 1.61666 0
M  V30 8124 H 741.071 -5.49675 2.40784 0
M  V30 8125 H 742.141 -4.09575 2.5957 0
M  V30 8126 N 743.484 -0.715051 -1.40445 0
M  V30 8127 C 744.895 -0.326763 -1.83818 0
M  V30 8128 C 745.246 1.13851 -1.59789 0
M  V30 8129 O 744.371 1.87611 -1.07848 0
M  V30 8130 C 744.966 -0.586297 -3.33688 0
M  V30 8131 C 743.525 -0.251724 -3.75557 0
M  V30 8132 C 742.672 -0.858928 -2.63662 0
M  V30 8133 H 745.623 -0.914241 -1.2972 0
M  V30 8134 H 745.644 0.148636 -3.8021 0
M  V30 8135 H 745.156 -1.65281 -3.51146 0
M  V30 8136 H 743.257 0.809754 -3.63695 0
M  V30 8137 H 743.37 -0.720348 -4.73654 0
M  V30 8138 H 741.734 -0.287013 -2.53078 0
M  V30 8139 H 742.517 -1.9297 -2.83932 0
M  V30 8140 N 744.962 1.50701 -0.461195 0
M  V30 8141 C 746.378 1.59187 -0.114786 0
M  V30 8142 C 746.578 1.4702 1.37794 0
M  V30 8143 O 745.634 1.32361 2.15027 0
M  V30 8144 C 746.947 2.93453 -0.656167 0
M  V30 8145 C 748.495 3.06824 -0.618715 0
M  V30 8146 C 748.97 4.4365 -1.13747 0
M  V30 8147 N 750.461 4.50035 -1.09646 0
M  V30 8148 C 751.196 5.54278 -1.46846 0
M  V30 8149 N 750.692 6.65822 -1.91448 0
M  V30 8150 N 752.485 5.44767 -1.38512 0
M  V30 8151 H 744.636 1.56853 -1.43216 0
M  V30 8152 H 746.899 0.740712 -0.59165 0
M  V30 8153 H 746.605 3.07802 -1.7015 0
M  V30 8154 H 746.479 3.77082 -0.0942261 0
M  V30 8155 H 748.866 2.92129 0.417685 0
M  V30 8156 H 748.947 2.24976 -1.21734 0
M  V30 8157 H 748.591 4.59093 -2.17245 0
M  V30 8158 H 748.521 5.24074 -0.515153 0
M  V30 8159 H 751.012 3.69988 -0.769217 0
M  V30 8160 H 751.325 7.41413 -2.18007 0
M  V30 8161 H 749.67 6.66968 -1.95393 0
M  V30 8162 H 752.861 4.56511 -1.03516 0
M  V30 8163 H 753.034 6.25889 -1.6783 0
M  V30 8164 N 746.441 0.193421 1.56409 0
M  V30 8165 C 747.388 -0.728124 2.19014 0
M  V30 8166 C 748.358 -1.21098 1.13686 0
M  V30 8167 O 749.543 -1.27517 1.4193 0
M  V30 8168 C 746.683 -1.94277 2.8522 0
M  V30 8169 C 745.796 -1.50143 4.05069 0
M  V30 8170 C 744.931 -2.67145 4.59137 0
M  V30 8171 C 743.97 -2.19609 5.71348 0
M  V30 8172 N 743.107 -3.29782 6.19829 0
M  V30 8173 H 747.947 -0.187499 2.9741 0
M  V30 8174 H 745.484 -0.0808064 1.46878 0
M  V30 8175 H 747.442 -2.65551 3.21774 0
M  V30 8176 H 746.072 -2.45673 2.09391 0
M  V30 8177 H 745.124 -0.684624 3.74189 0
M  V30 8178 H 746.436 -1.11266 4.86232 0
M  V30 8179 H 745.59 -3.46544 4.97988 0
M  V30 8180 H 744.329 -3.09295 3.77078 0
M  V30 8181 H 743.334 -1.38664 5.32027 0
M  V30 8182 H 744.559 -1.78492 6.55223 0
M  V30 8183 H 742.505 -3.71466 5.40693 0
M  V30 8184 H 742.422 -2.95069 6.96039 0
M  V30 8185 H 743.69 -4.094 6.63334 0
M  V30 8186 N 747.919 -1.57396 -0.0801906 0
M  V30 8187 C 749.144 -1.91437 -0.797909 0
M  V30 8188 C 749.569 -0.789075 -1.70749 0
M  V30 8189 O 748.927 0.25857 -1.79447 0
M  V30 8190 C 748.975 -3.24402 -1.57467 0
M  V30 8191 O 748.079 -3.13043 -2.68473 0
M  V30 8192 H 747.42 -0.627109 -0.218243 0
M  V30 8193 H 749.95 -2.04537 -0.050949 0
M  V30 8194 H 749.96 -3.58072 -1.95571 0
M  V30 8195 H 748.635 -4.05884 -0.907229 0
M  V30 8196 H 747.212 -2.90915 -2.33287 0
M  V30 8197 N 749.397 0.351382 -1.53633 0
M  V30 8198 C 750.646 1.08988 -1.69719 0
M  V30 8199 C 750.959 1.90043 -0.462948 0
M  V30 8200 O 752.165 2.66769 -0.504613 0
M  V30 8201 C 750.621 1.98691 -3.00083 0
M  V30 8202 C 750.229 1.22881 -4.30818 0
M  V30 8203 C 751.973 2.72446 -3.25536 0
M  V30 8204 C 749.88 2.11568 -5.52262 0
M  V30 8205 H 748.81 0.410588 -0.632403 0
M  V30 8206 H 751.461 0.349886 -1.80133 0
M  V30 8207 H 749.843 2.76478 -2.83506 0
M  V30 8208 H 751.017 0.500582 -4.58073 0
M  V30 8209 H 749.332 0.60928 -4.11918 0
M  V30 8210 H 751.929 3.39055 -4.13456 0
M  V30 8211 H 752.272 3.38588 -2.42206 0
M  V30 8212 H 752.805 2.01735 -3.42852 0
M  V30 8213 H 749.544 1.4998 -6.38111 0
M  V30 8214 H 749.064 2.82201 -5.29266 0
M  V30 8215 H 750.743 2.70802 -5.87601 0
M  V30 8216 N 750.875 1.45233 0.611969 0
M  V30 8217 C 752.121 1.49242 1.37312 0
M  V30 8218 C 752.454 0.131963 1.93751 0
M  V30 8219 O 751.729 -0.852999 1.74798 0
M  V30 8220 C 752.012 2.56811 2.52428 0
M  V30 8221 C 751.865 4.02284 2.01215 0
M  V30 8222 C 753.184 2.60705 3.54572 0
M  V30 8223 H 750.303 0.54336 0.497925 0
M  V30 8224 H 752.945 1.77019 0.690242 0
M  V30 8225 H 751.095 2.33256 3.10683 0
M  V30 8226 H 752.767 4.37035 1.47643 0
M  V30 8227 H 751.01 4.1315 1.32248 0
M  V30 8228 H 751.681 4.7323 2.84178 0
M  V30 8229 H 754.157 2.81799 3.06151 0
M  V30 8230 H 753.033 3.37841 4.32614 0
M  V30 8231 H 753.294 1.65627 4.09903 0
M  V30 8232 N 752.353 -0.854086 1.3245 0
M  V30 8233 C 753.578 -1.64597 1.26185 0
M  V30 8234 C 754.003 -1.87357 -0.167074 0
M  V30 8235 O 753.361 -1.42675 -1.11864 0
M  V30 8236 C 753.409 -2.98213 2.02734 0
M  V30 8237 O 752.513 -3.88784 1.37554 0
M  V30 8238 H 751.854 -0.50179 0.434859 0
M  V30 8239 H 754.384 -1.06372 1.74775 0
M  V30 8240 H 754.394 -3.4803 2.1293 0
M  V30 8241 H 753.069 -2.80969 3.06642 0
M  V30 8242 H 751.646 -3.4725 1.3591 0
M  V30 8243 N 753.831 -1.1567 -1.07043 0
M  V30 8244 C 754.779 -0.852204 -2.16426 0
M  V30 8245 C 755.773 0.175661 -1.68487 0
M  V30 8246 O 756.979 0.0303874 -1.79974 0
M  V30 8247 H 753.354 -0.257942 -0.706378 0
M  V30 8248 H 755.325 -1.78231 -2.39324 0
M  V30 8249 C 754.074 -0.361362 -3.45817 0
M  V30 8250 H 753.397 -1.14369 -3.83092 0
M  V30 8251 H 754.837 -0.186997 -4.23587 0
M  V30 8252 C 753.296 0.917703 -3.2416 0
M  V30 8253 O 753.826 1.98858 -3.49025 0
M  V30 8254 N 752.032 0.858456 -2.77631 0
M  V30 8255 H 751.579 -0.0131821 -2.57597 0
M  V30 8256 H 751.537 1.71478 -2.6352 0
M  V30 8257 N 755.309 1.25446 -0.953992 0
M  V30 8258 C 756.558 1.92441 -0.604101 0
M  V30 8259 C 756.871 1.75543 0.862796 0
M  V30 8260 O 758.077 2.37106 1.32262 0
M  V30 8261 C 756.533 3.44854 -1.02974 0
M  V30 8262 C 756.141 3.70464 -2.51914 0
M  V30 8263 C 757.885 4.1778 -0.752352 0
M  V30 8264 C 755.792 5.1638 -2.88281 0
M  V30 8265 H 754.722 0.720508 -0.222227 0
M  V30 8266 H 757.373 1.42318 -1.15836 0
M  V30 8267 H 755.755 3.93935 -0.403904 0
M  V30 8268 H 756.929 3.32038 -3.19511 0
M  V30 8269 H 755.244 3.10797 -2.77117 0
M  V30 8270 H 757.841 5.25261 -1.00024 0
M  V30 8271 H 758.184 4.15135 0.311212 0
M  V30 8272 H 758.717 3.74605 -1.33851 0
M  V30 8273 H 755.456 5.24135 -3.93653 0
M  V30 8274 H 754.976 5.55855 -2.25357 0
M  V30 8275 H 756.655 5.84497 -2.77439 0
M  V30 8276 N 756.787 0.722489 1.40064 0
M  V30 8277 C 757.737 0.0506801 2.27944 0
M  V30 8278 C 758.721 -0.725493 1.43615 0
M  V30 8279 O 759.913 -0.596559 1.66644 0
M  V30 8280 C 757.042 -0.865195 3.32219 0
M  V30 8281 C 756.128 -0.0838393 4.24017 0
M  V30 8282 N 756.519 0.936516 4.97054 0
M  V30 8283 C 754.817 -0.315371 4.44884 0
M  V30 8284 C 755.518 1.4066 5.64437 0
M  V30 8285 N 754.494 0.727485 5.3871 0
M  V30 8286 H 758.296 0.832609 2.8186 0
M  V30 8287 H 755.81 0.555691 1.52597 0
M  V30 8288 H 757.807 -1.36186 3.94029 0
M  V30 8289 H 756.467 -1.64642 2.79862 0
M  V30 8290 H 757.478 1.31755 5.0086 0
M  V30 8291 H 754.155 -1.07238 4.03492 0
M  V30 8292 H 755.545 2.25482 6.32936 0
M  V30 8293 N 758.265 -1.50454 0.469181 0
M  V30 8294 C 759.213 -2.30101 -0.340033 0
M  V30 8295 C 760.207 -1.37306 -0.992135 0
M  V30 8296 O 761.413 -1.54506 -0.923458 0
M  V30 8297 H 757.788 -0.740941 -0.128495 0
M  V30 8298 H 759.759 -2.96315 0.352144 0
M  V30 8299 C 758.508 -3.17804 -1.41052 0
M  V30 8300 H 757.831 -3.89115 -0.918124 0
M  V30 8301 H 759.271 -3.76533 -1.94934 0
M  V30 8302 C 757.73 -2.35272 -2.4114 0
M  V30 8303 O 758.26 -2.03448 -3.4637 0
M  V30 8304 N 756.466 -1.97889 -2.1281 0
M  V30 8305 H 756.013 -2.2397 -1.27261 0
M  V30 8306 H 755.971 -1.42971 -2.80012 0
M  V30 8307 N 759.743 -0.201713 -1.56304 0
M  V30 8308 C 760.971 0.440723 -2.02152 0
M  V30 8309 C 761.386 1.54735 -1.08179 0
M  V30 8310 O 760.743 1.82289 -0.0878196 0
M  V30 8311 C 760.794 0.990884 -3.47655 0
M  V30 8312 O 760.515 -0.0715937 -4.38041 0
M  V30 8313 C 762.016 1.70854 -4.09052 0
M  V30 8314 H 759.236 0.109987 -0.661924 0
M  V30 8315 H 761.78 -0.312358 -2.021 0
M  V30 8316 H 759.935 1.69432 -3.48384 0
M  V30 8317 H 760.349 0.338892 -5.23404 0
M  V30 8318 H 761.823 2.04572 -5.12693 0
M  V30 8319 H 762.3 2.61462 -3.52894 0
M  V30 8320 H 762.906 1.0508 -4.12114 0
M  V30 8321 N 761.222 1.57436 0.0718424 0
M  V30 8322 C 762.45 1.91474 0.783932 0
M  V30 8323 C 762.865 0.797669 1.71122 0
M  V30 8324 O 762.222 -0.228989 1.81058 0
M  V30 8325 C 762.273 3.25259 1.57761 0
M  V30 8326 O 761.994 4.3267 0.687596 0
M  V30 8327 C 763.495 3.7331 2.3907 0
M  V30 8328 H 760.715 0.632901 0.222885 0
M  V30 8329 H 763.259 2.04457 0.0421262 0
M  V30 8330 H 761.414 3.13804 2.27169 0
M  V30 8331 H 761.828 5.09641 1.23962 0
M  V30 8332 H 763.302 4.69551 2.90216 0
M  V30 8333 H 763.779 3.02318 3.18591 0
M  V30 8334 H 764.385 3.8771 1.74818 0
M  V30 8335 N 762.7 -0.34323 1.53817 0
M  V30 8336 C 764.116 -0.686355 1.44088 0
M  V30 8337 C 764.316 -1.92426 0.597882 0
M  V30 8338 O 763.372 -2.52343 0.0889918 0
M  V30 8339 C 764.685 -0.878698 2.87575 0
M  V30 8340 C 766.233 -0.977296 2.97352 0
M  V30 8341 C 766.708 -1.20195 4.41947 0
M  V30 8342 N 768.199 -1.26915 4.45474 0
M  V30 8343 C 768.934 -1.46049 5.54488 0
M  V30 8344 N 768.43 -1.62354 6.73508 0
M  V30 8345 N 770.223 -1.48599 5.42102 0
M  V30 8346 H 762.374 0.470679 2.07119 0
M  V30 8347 H 764.637 0.148652 0.936273 0
M  V30 8348 H 764.343 -0.040602 3.51677 0
M  V30 8349 H 764.217 -1.78034 3.32541 0
M  V30 8350 H 766.604 -1.80591 2.3339 0
M  V30 8351 H 766.685 -0.0525498 2.55746 0
M  V30 8352 H 766.329 -0.378262 5.06489 0
M  V30 8353 H 766.259 -2.14027 4.81145 0
M  V30 8354 H 768.75 -1.15837 3.59708 0
M  V30 8355 H 769.063 -1.76591 7.52353 0
M  V30 8356 H 767.408 -1.5949 6.76453 0
M  V30 8357 H 770.599 -1.35443 4.48077 0
M  V30 8358 H 770.772 -1.6317 6.2712 0
M  V30 8359 N 764.178 -1.45556 -0.604258 0
M  V30 8360 C 765.126 -1.5482 -1.7359 0
M  V30 8361 C 766.12 -0.417966 -1.64163 0
M  V30 8362 O 767.326 -0.594007 -1.69916 0
M  V30 8363 H 763.701 -0.486352 -0.573556 0
M  V30 8364 H 765.672 -2.5001 -1.62903 0
M  V30 8365 C 764.421 -1.53521 -3.11972 0
M  V30 8366 H 763.744 -2.39818 -3.19886 0
M  V30 8367 H 765.184 -1.64061 -3.90973 0
M  V30 8368 C 763.643 -0.260191 -3.35894 0
M  V30 8369 O 764.173 0.658582 -3.96265 0
M  V30 8370 N 762.379 -0.154839 -2.90187 0
M  V30 8371 H 761.926 -0.903378 -2.4124 0
M  V30 8372 H 761.884 0.697437 -3.06567 0
M  V30 8373 N 765.656 0.84705 -1.32902 0
M  V30 8374 C 766.604 1.97765 -1.22441 0
M  V30 8375 C 767.598 1.68919 -0.127546 0
M  V30 8376 O 768.804 1.77633 -0.290973 0
M  V30 8377 H 765.179 0.649072 -0.379748 0
M  V30 8378 H 767.15 2.03713 -2.18044 0
M  V30 8379 C 765.899 3.33834 -0.972125 0
M  V30 8380 H 765.222 3.56564 -1.80837 0
M  V30 8381 H 766.662 4.13467 -0.939209 0
M  V30 8382 C 765.121 3.35328 0.325059 0
M  V30 8383 O 765.651 3.78887 1.33445 0
M  V30 8384 N 763.857 2.88488 0.349718 0
M  V30 8385 H 763.404 2.53234 -0.472236 0
M  V30 8386 H 763.362 2.8987 1.21748 0
M  V30 8387 N 767.134 1.16236 1.06428 0
M  V30 8388 C 768.55 0.906983 1.31324 0
M  V30 8389 C 768.75 -0.440872 1.96618 0
M  V30 8390 O 767.806 -1.1807 2.23194 0
M  V30 8391 C 769.119 2.05501 2.19522 0
M  V30 8392 C 770.667 2.09061 2.32943 0
M  V30 8393 C 771.142 3.23214 3.24495 0
M  V30 8394 N 772.633 3.22922 3.32078 0
M  V30 8395 C 773.368 4.07889 4.03006 0
M  V30 8396 N 772.864 5.02941 4.76469 0
M  V30 8397 N 774.657 3.95881 3.99043 0
M  V30 8398 H 766.808 2.03015 0.624388 0
M  V30 8399 H 769.071 0.88576 0.337835 0
M  V30 8400 H 768.777 3.02847 1.78819 0
M  V30 8401 H 768.651 1.99538 3.201 0
M  V30 8402 H 771.038 1.12308 2.72893 0
M  V30 8403 H 771.119 2.19089 1.32037 0
M  V30 8404 H 770.763 4.20225 2.85261 0
M  V30 8405 H 770.693 3.10423 4.25377 0
M  V30 8406 H 773.184 2.54093 2.79724 0
M  V30 8407 H 773.497 5.64196 5.28112 0
M  V30 8408 H 771.842 5.06922 4.75453 0
M  V30 8409 H 775.033 3.20927 3.40769 0
M  V30 8410 H 775.206 4.62321 4.54052 0
M  V30 8411 N 768.612 -1.24939 0.960631 0
M  V30 8412 C 769.842 -1.96595 0.635123 0
M  V30 8413 C 770.25 -1.71538 -0.798206 0
M  V30 8414 O 769.593 -0.991727 -1.5463 0
M  V30 8415 C 769.655 -3.49994 0.821248 0
M  V30 8416 C 769.319 -3.98738 2.23287 0
M  V30 8417 C 770.316 -4.08965 3.21004 0
M  V30 8418 C 768.001 -4.32247 2.55867 0
M  V30 8419 C 769.995 -4.52025 4.49391 0
M  V30 8420 C 767.682 -4.74991 3.84482 0
M  V30 8421 C 768.68 -4.84844 4.81056 0
M  V30 8422 O 768.368 -5.26638 6.07378 0
M  V30 8423 H 768.1 -0.633265 0.23654 0
M  V30 8424 H 770.654 -1.5991 1.28911 0
M  V30 8425 H 768.884 -3.86543 0.110105 0
M  V30 8426 H 770.573 -4.02859 0.495892 0
M  V30 8427 H 771.339 -3.83302 2.97161 0
M  V30 8428 H 767.218 -4.23801 1.81421 0
M  V30 8429 H 770.762 -4.5963 5.24773 0
M  V30 8430 H 766.659 -5.00101 4.08129 0
M  V30 8431 H 767.427 -5.44807 6.10842 0
M  V30 8432 N 770.09 -0.729906 -1.39679 0
M  V30 8433 C 771.037 -0.0866063 -2.30637 0
M  V30 8434 C 772.007 0.735115 -1.48947 0
M  V30 8435 O 773.192 0.696125 -1.77648 0
M  V30 8436 C 770.332 0.818524 -3.35252 0
M  V30 8437 C 769.445 -0.0152635 -4.31997 0
M  V30 8438 C 768.58 0.890669 -5.2368 0
M  V30 8439 C 767.619 0.0518246 -6.12078 0
M  V30 8440 N 766.756 0.913411 -6.96133 0
M  V30 8441 H 771.596 -0.867925 -2.85081 0
M  V30 8442 H 769.133 -0.439673 -1.40376 0
M  V30 8443 H 771.091 1.3577 -3.9449 0
M  V30 8444 H 769.721 1.56587 -2.82277 0
M  V30 8445 H 768.773 -0.671794 -3.74421 0
M  V30 8446 H 770.085 -0.664086 -4.9436 0
M  V30 8447 H 769.239 1.49787 -5.87919 0
M  V30 8448 H 767.978 1.57328 -4.61627 0
M  V30 8449 H 766.983 -0.568209 -5.46856 0
M  V30 8450 H 768.208 -0.627497 -6.76195 0
M  V30 8451 H 766.154 1.58141 -6.36653 0
M  V30 8452 H 766.071 0.320952 -7.55318 0
M  V30 8453 H 767.339 1.50633 -7.64807 0
M  V30 8454 N 771.568 1.50203 -0.477153 0
M  V30 8455 C 772.498 2.31517 0.303646 0
M  V30 8456 C 773.479 1.38696 0.984753 0
M  V30 8457 O 774.664 1.67615 0.980758 0
M  V30 8458 C 771.794 3.18598 1.38249 0
M  V30 8459 C 770.748 4.2002 0.822645 0
M  V30 8460 C 770.074 4.95878 2.00024 0
M  V30 8461 C 771.374 5.22023 -0.170185 0
M  V30 8462 H 773.068 2.97042 -0.375027 0
M  V30 8463 H 770.614 1.42848 -0.181802 0
M  V30 8464 H 772.567 3.74282 1.93625 0
M  V30 8465 H 771.291 2.5097 2.09002 0
M  V30 8466 H 769.95 3.65445 0.290813 0
M  V30 8467 H 769.598 4.24717 2.69489 0
M  V30 8468 H 769.298 5.64487 1.63183 0
M  V30 8469 H 770.822 5.54399 2.55878 0
M  V30 8470 H 772.236 5.72543 0.294606 0
M  V30 8471 H 770.633 5.98386 -0.453181 0
M  V30 8472 H 771.703 4.72396 -1.09408 0
M  V30 8473 N 773.046 0.209999 1.56195 0
M  V30 8474 C 774.271 -0.433064 2.02828 0
M  V30 8475 C 774.696 -1.5337 1.08901 0
M  V30 8476 O 774.054 -1.81144 0.0751132 0
M  V30 8477 C 774.102 -0.952635 3.47789 0
M  V30 8478 O 773.206 -2.0647 3.56993 0
M  V30 8479 H 772.547 -0.0994594 0.656509 0
M  V30 8480 H 775.077 0.32525 2.01998 0
M  V30 8481 H 775.087 -1.26542 3.8788 0
M  V30 8482 H 773.762 -0.147007 4.1564 0
M  V30 8483 H 772.339 -1.75942 3.28784 0
M  V30 8484 N 774.524 -1.57472 -0.0634922 0
M  V30 8485 C 775.801 -1.78736 -0.794538 0
M  V30 8486 C 776.181 -0.799645 -1.95369 0
M  V30 8487 O 775.529 0.165521 -2.279 0
M  V30 8488 C 775.739 -3.25471 -1.25975 0
M  V30 8489 C 777.087 -3.89528 -1.68976 0
M  V30 8490 O 778.111 -3.29412 -1.35521 0
M  V30 8491 O 776.97 -4.95305 -2.30944 0
M  V30 8492 H 774.064 -0.733813 -0.381376 0
M  V30 8493 H 776.61 -1.69646 -0.0429258 0
M  V30 8494 H 775.382 -3.88922 -0.430721 0
M  V30 8495 H 775.005 -3.39317 -2.07243 0
M  V30 8496 N 776.003 0.335068 -1.53997 0
M  V30 8497 C 777.231 1.09418 -1.756 0
M  V30 8498 C 777.646 1.82083 -0.499138 0
M  V30 8499 O 777.003 1.74646 0.529631 0
M  V30 8500 C 777.054 2.10115 -2.94166 0
M  V30 8501 O 776.775 1.40404 -4.14992 0
M  V30 8502 C 778.276 2.98336 -3.27888 0
M  V30 8503 H 775.496 0.32595 -0.586513 0
M  V30 8504 H 778.04 0.384693 -2.00849 0
M  V30 8505 H 776.195 2.76616 -2.71224 0
M  V30 8506 H 776.609 2.07743 -4.81605 0
M  V30 8507 H 778.083 3.6491 -4.1418 0
M  V30 8508 H 778.56 3.64814 -2.44556 0
M  V30 8509 H 779.166 2.37412 -3.52868 0
M  V30 8510 N 777.481 1.45874 0.596531 0
M  V30 8511 C 778.727 1.5069 1.35722 0
M  V30 8512 C 779.06 0.152506 1.936 0
M  V30 8513 O 778.335 -0.834411 1.75692 0
M  V30 8514 C 778.618 2.59474 2.4969 0
M  V30 8515 C 778.471 4.04396 1.96937 0
M  V30 8516 C 779.79 2.64451 3.51787 0
M  V30 8517 H 776.909 0.548611 0.492133 0
M  V30 8518 H 779.551 1.77741 0.671428 0
M  V30 8519 H 777.701 2.36539 3.08191 0
M  V30 8520 H 779.373 4.38576 1.43 0
M  V30 8521 H 777.616 4.14529 1.27859 0
M  V30 8522 H 778.287 4.76218 2.79143 0
M  V30 8523 H 780.763 2.85031 3.03145 0
M  V30 8524 H 779.639 3.42411 4.29006 0
M  V30 8525 H 779.9 1.69965 4.08123 0
M  V30 8526 N 778.959 -0.83999 1.33349 0
M  V30 8527 C 779.909 -1.93817 1.20079 0
M  V30 8528 C 780.893 -1.60564 0.103978 0
M  V30 8529 O 782.085 -1.73859 0.331964 0
M  V30 8530 C 779.214 -3.30151 0.941031 0
M  V30 8531 C 778.3 -3.69577 2.08023 0
M  V30 8532 N 778.691 -3.80707 3.3301 0
M  V30 8533 C 776.989 -3.99309 1.98667 0
M  V30 8534 C 777.69 -4.14899 4.07717 0
M  V30 8535 N 776.666 -4.27208 3.36146 0
M  V30 8536 H 780.468 -2.00576 2.14817 0
M  V30 8537 H 777.982 -1.03264 1.2534 0
M  V30 8538 H 779.979 -4.08617 0.826894 0
M  V30 8539 H 778.639 -3.247 0.00216738 0
M  V30 8540 H 779.65 -3.64644 3.67771 0
M  V30 8541 H 776.327 -4.02076 1.12433 0
M  V30 8542 H 777.717 -4.30857 5.15569 0
M  V30 8543 N 780.437 -1.16799 -1.0581 0
M  V30 8544 C 781.662 -0.977402 -1.82925 0
M  V30 8545 C 782.087 0.469514 -1.82146 0
M  V30 8546 O 781.445 1.33576 -1.22585 0
M  V30 8547 C 781.493 -1.51543 -3.27211 0
M  V30 8548 O 780.597 -0.725021 -4.05977 0
M  V30 8549 H 779.938 -0.347474 -0.565825 0
M  V30 8550 H 782.468 -1.55151 -1.33376 0
M  V30 8551 H 782.478 -1.53502 -3.78023 0
M  V30 8552 H 781.153 -2.56872 -3.27093 0
M  V30 8553 H 779.73 -0.77634 -3.64729 0
M  V30 8554 N 781.915 1.24427 -0.967243 0
M  V30 8555 C 782.862 2.25398 -0.496419 0
M  V30 8556 C 783.832 1.59667 0.457781 0
M  V30 8557 O 785.017 1.87213 0.368246 0
M  V30 8558 C 782.157 3.44474 0.207693 0
M  V30 8559 C 781.27 4.24804 -0.785221 0
M  V30 8560 C 780.405 5.31169 -0.0572631 0
M  V30 8561 C 779.444 6.03195 -1.04027 0
M  V30 8562 N 778.581 7.01265 -0.34235 0
M  V30 8563 H 783.421 2.65039 -1.36229 0
M  V30 8564 H 780.958 1.30288 -0.682902 0
M  V30 8565 H 782.916 4.12376 0.632612 0
M  V30 8566 H 781.546 3.05672 1.03752 0
M  V30 8567 H 780.598 3.56445 -1.32858 0
M  V30 8568 H 781.91 4.74599 -1.53483 0
M  V30 8569 H 781.064 6.05205 0.425674 0
M  V30 8570 H 779.803 4.8228 0.725047 0
M  V30 8571 H 778.808 5.27964 -1.53409 0
M  V30 8572 H 780.033 6.54173 -1.82302 0
M  V30 8573 H 777.979 6.54648 0.420993 0
M  V30 8574 H 777.896 7.48939 -1.03084 0
M  V30 8575 H 779.164 7.7941 0.118634 0
M  V30 8576 N 783.393 0.737304 1.3929 0
M  V30 8577 C 784.623 0.296143 2.04467 0
M  V30 8578 C 785.031 -1.0748 1.55707 0
M  V30 8579 O 784.374 -1.69082 0.718123 0
M  V30 8580 C 784.436 0.222161 3.58813 0
M  V30 8581 C 784.1 1.53195 4.30558 0
M  V30 8582 C 785.097 2.47809 4.57041 0
M  V30 8583 C 782.782 1.79688 4.6906 0
M  V30 8584 C 784.776 3.67147 5.21039 0
M  V30 8585 C 782.463 2.99304 5.32785 0
M  V30 8586 C 783.461 3.92855 5.58708 0
M  V30 8587 O 783.149 5.1037 6.2111 0
M  V30 8588 H 782.881 0.126896 0.663983 0
M  V30 8589 H 785.435 1.00242 1.79278 0
M  V30 8590 H 783.665 -0.540239 3.82908 0
M  V30 8591 H 785.354 -0.187311 4.05468 0
M  V30 8592 H 786.12 2.28611 4.2774 0
M  V30 8593 H 781.999 1.07716 4.48239 0
M  V30 8594 H 785.543 4.40183 5.41188 0
M  V30 8595 H 781.44 3.18401 5.61508 0
M  V30 8596 H 782.208 5.10735 6.39603 0
M  V30 8597 N 784.871 -1.49948 0.485112 0
M  V30 8598 C 786.119 -2.01996 -0.0648775 0
M  V30 8599 C 786.44 -1.36819 -1.38945 0
M  V30 8600 O 785.71 -0.518163 -1.88923 0
M  V30 8601 H 784.29 -0.746513 -0.0269662 0
M  V30 8602 H 786.952 -1.84136 0.638733 0
M  V30 8603 H 786.048 -3.11418 -0.20617 0
M  V30 8604 N 786.349 -0.21828 -1.56081 0
M  V30 8605 C 787.312 0.679633 -2.18892 0
M  V30 8606 C 788.312 1.12405 -1.14986 0
M  V30 8607 O 789.502 1.03339 -1.40238 0
M  V30 8608 C 786.634 1.93063 -2.80962 0
M  V30 8609 H 787.827 0.132066 -2.99609 0
M  V30 8610 H 785.38 0.0313374 -1.56269 0
M  V30 8611 H 786.115 2.52015 -2.04106 0
M  V30 8612 H 785.9 1.62046 -3.57048 0
M  V30 8613 H 787.39 2.57043 -3.29118 0
M  V30 8614 N 787.827 1.57504 0.0551401 0
M  V30 8615 C 789.052 1.92682 0.767352 0
M  V30 8616 C 789.477 0.81614 1.69472 0
M  V30 8617 O 788.835 -0.229989 1.79835 0
M  V30 8618 C 788.883 3.26866 1.52286 0
M  V30 8619 O 787.987 3.17274 2.63459 0
M  V30 8620 H 787.328 0.630502 0.208238 0
M  V30 8621 H 789.858 2.04592 0.0184026 0
M  V30 8622 H 789.868 3.61138 1.8985 0
M  V30 8623 H 788.543 4.07276 0.842541 0
M  V30 8624 H 787.12 2.94589 2.2863 0
M  V30 8625 N 789.305 -0.326896 1.54172 0
M  V30 8626 C 790.552 -1.06523 1.72218 0
M  V30 8627 C 790.88 -1.88119 0.494114 0
M  V30 8628 O 790.135 -1.8855 -0.524147 0
M  V30 8629 C 790.434 -2.0208 2.94785 0
M  V30 8630 C 790.1 -1.36665 4.2969 0
M  V30 8631 C 788.762 -1.18556 4.66367 0
M  V30 8632 C 791.114 -0.896868 5.13425 0
M  V30 8633 C 788.442 -0.521113 5.84381 0
M  V30 8634 C 790.794 -0.246261 6.3212 0
M  V30 8635 C 789.458 -0.052987 6.67479 0
M  V30 8636 H 788.728 -0.389796 0.63019 0
M  V30 8637 H 791.375 -0.342725 1.88408 0
M  V30 8638 H 789.68 -2.8077 2.73268 0
M  V30 8639 H 791.377 -2.59231 3.05941 0
M  V30 8640 H 787.967 -1.51762 4.00832 0
M  V30 8641 H 792.151 -1.02458 4.85609 0
M  V30 8642 H 787.407 -0.36014 6.10338 0
M  V30 8643 H 791.581 0.125775 6.96286 0
M  V30 8644 H 789.208 0.463903 7.58783 0
M  V30 8645 N 790.784 -1.46188 -0.588786 0
M  V30 8646 C 791.694 -1.58865 -1.72624 0
M  V30 8647 C 792.71 -0.472348 -1.67466 0
M  V30 8648 O 793.886 -0.735638 -1.87484 0
M  V30 8649 C 790.951 -1.56989 -3.0912 0
M  V30 8650 C 790.012 -2.79804 -3.25589 0
M  V30 8651 C 789.245 -2.78009 -4.55573 0
M  V30 8652 O 789.468 -1.86406 -5.39082 0
M  V30 8653 O 788.402 -3.6947 -4.75159 0
M  V30 8654 H 792.228 -2.55047 -1.64878 0
M  V30 8655 H 789.813 -1.28912 -0.755115 0
M  V30 8656 H 791.695 -1.58618 -3.90408 0
M  V30 8657 H 790.37 -0.639648 -3.17317 0
M  V30 8658 H 789.277 -2.83732 -2.43818 0
M  V30 8659 H 790.61 -3.72017 -3.22279 0
M  V30 8660 N 792.262 0.832906 -1.33792 0
M  V30 8661 C 793.509 1.58853 -1.25586 0
M  V30 8662 C 793.837 1.93695 0.176807 0
M  V30 8663 O 793.092 1.59386 1.13554 0
M  V30 8664 C 793.391 2.9047 -2.08235 0
M  V30 8665 C 793.057 2.74965 -3.57358 0
M  V30 8666 C 791.719 2.70444 -3.98012 0
M  V30 8667 C 794.071 2.59347 -4.52093 0
M  V30 8668 C 791.399 2.48212 -5.31608 0
M  V30 8669 C 793.751 2.38649 -5.85858 0
M  V30 8670 C 792.415 2.32533 -6.25687 0
M  V30 8671 H 791.685 0.581285 -0.459553 0
M  V30 8672 H 794.332 0.964501 -1.65438 0
M  V30 8673 H 792.637 3.57111 -1.6118 0
M  V30 8674 H 794.334 3.48001 -1.99239 0
M  V30 8675 H 790.924 2.79319 -3.25083 0
M  V30 8676 H 795.108 2.6187 -4.2159 0
M  V30 8677 H 790.364 2.41929 -5.61498 0
M  V30 8678 H 794.538 2.25549 -6.58863 0
M  V30 8679 H 792.165 2.15067 -7.29143 0
M  V30 8680 N 793.74 1.17359 1.05189 0
M  V30 8681 C 794.97 0.985099 1.81602 0
M  V30 8682 C 795.378 -0.469872 1.83273 0
M  V30 8683 O 794.721 -1.33806 1.25864 0
M  V30 8684 C 794.783 1.44956 3.2898 0
M  V30 8685 C 794.447 2.92666 3.50993 0
M  V30 8686 C 795.444 3.906 3.43115 0
M  V30 8687 C 793.129 3.30841 3.77954 0
M  V30 8688 C 795.123 5.24709 3.61883 0
M  V30 8689 C 792.81 4.65116 3.96371 0
M  V30 8690 C 793.808 5.61859 3.88335 0
M  V30 8691 O 793.496 6.93704 4.06238 0
M  V30 8692 H 793.228 0.348731 0.579105 0
M  V30 8693 H 795.782 1.56066 1.33539 0
M  V30 8694 H 794.012 0.817559 3.77959 0
M  V30 8695 H 795.701 1.22674 3.86919 0
M  V30 8696 H 796.467 3.62453 3.22262 0
M  V30 8697 H 792.346 2.5611 3.83313 0
M  V30 8698 H 795.89 6.00205 3.55527 0
M  V30 8699 H 791.787 4.92969 4.16715 0
M  V30 8700 H 792.555 7.00443 4.23463 0
M  V30 8701 N 795.218 -1.23913 0.973828 0
M  V30 8702 C 796.166 -2.27141 0.50098 0
M  V30 8703 C 797.16 -1.63623 -0.438631 0
M  V30 8704 O 798.366 -1.77253 -0.313247 0
M  V30 8705 H 794.741 -0.73817 0.14356 0
M  V30 8706 H 796.712 -2.64392 1.38346 0
M  V30 8707 C 795.461 -3.47195 -0.187377 0
M  V30 8708 H 794.784 -3.96318 0.526535 0
M  V30 8709 H 796.224 -4.21252 -0.481962 0
M  V30 8710 C 794.683 -3.05678 -1.41642 0
M  V30 8711 O 795.213 -3.1338 -2.51309 0
M  V30 8712 N 793.419 -2.60661 -1.28469 0
M  V30 8713 H 792.966 -2.54594 -0.39238 0
M  V30 8714 H 792.924 -2.33249 -2.10813 0
M  V30 8715 N 796.696 -0.74468 -1.38897 0
M  V30 8716 C 797.926 -0.306982 -2.04307 0
M  V30 8717 C 798.334 1.06652 -1.56275 0
M  V30 8718 O 797.677 1.68699 -0.72708 0
M  V30 8719 C 797.739 -0.241186 -3.5869 0
M  V30 8720 C 797.403 -1.55476 -4.2974 0
M  V30 8721 C 798.4 -2.50229 -4.55721 0
M  V30 8722 C 796.085 -1.82173 -4.68101 0
M  V30 8723 C 798.079 -3.69905 -5.19085 0
M  V30 8724 C 795.766 -3.02125 -5.31191 0
M  V30 8725 C 796.764 -3.95812 -5.56616 0
M  V30 8726 O 796.452 -5.13656 -6.18395 0
M  V30 8727 H 796.184 -0.130416 -0.663301 0
M  V30 8728 H 798.738 -1.01192 -1.78744 0
M  V30 8729 H 796.968 0.519925 -3.83189 0
M  V30 8730 H 798.657 0.165806 -4.05561 0
M  V30 8731 H 799.423 -2.30877 -4.26522 0
M  V30 8732 H 795.302 -1.10091 -4.47662 0
M  V30 8733 H 798.846 -4.43047 -5.38846 0
M  V30 8734 H 794.743 -3.21374 -5.59811 0
M  V30 8735 H 795.511 -5.14119 -6.36886 0
M  V30 8736 N 798.174 1.49689 -0.493057 0
M  V30 8737 C 799.137 2.27502 0.278485 0
M  V30 8738 C 800.137 1.33184 0.901037 0
M  V30 8739 O 801.327 1.56415 0.766801 0
M  V30 8740 C 798.459 3.10881 1.39878 0
M  V30 8741 H 799.652 2.97163 -0.404219 0
M  V30 8742 H 797.205 1.54324 -0.247774 0
M  V30 8743 H 797.94 2.45767 2.11587 0
M  V30 8744 H 797.725 3.80219 0.957924 0
M  V30 8745 H 799.215 3.69673 1.94247 0
M  V30 8746 N 799.652 0.226554 1.55963 0
M  V30 8747 C 800.892 -0.405574 2.00336 0
M  V30 8748 C 801.256 -1.56593 1.11097 0
M  V30 8749 O 802.457 -2.26441 1.44838 0
M  V30 8750 C 800.728 -0.82435 3.47763 0
M  V30 8751 S 802.287 -1.44988 4.14154 0
M  V30 8752 H 799.105 -0.128512 0.699289 0
M  V30 8753 H 801.707 0.337017 1.92573 0
M  V30 8754 H 800.411 0.0297636 4.10389 0
M  V30 8755 H 799.942 -1.59963 3.5941 0
M  V30 8756 H 801.957 -2.73897 4.13757 0
M  V30 8757 N 801.13 -1.57531 -0.0467866 0
M  V30 8758 C 802.063 -2.00734 -1.08541 0
M  V30 8759 C 803.041 -0.888508 -1.36177 0
M  V30 8760 O 804.225 -1.1529 -1.49132 0
M  V30 8761 C 801.352 -2.36535 -2.42423 0
M  V30 8762 C 800.398 -3.58681 -2.3076 0
M  V30 8763 S 801.231 -5.08536 -1.67785 0
M  V30 8764 C 802.387 -5.47562 -3.03194 0
M  V30 8765 H 802.62 -2.88516 -0.717345 0
M  V30 8766 H 800.153 -1.5226 -0.256181 0
M  V30 8767 H 802.111 -2.57834 -3.19424 0
M  V30 8768 H 800.772 -1.49236 -2.76382 0
M  V30 8769 H 799.965 -3.81329 -3.29552 0
M  V30 8770 H 799.567 -3.37142 -1.61899 0
M  V30 8771 H 801.859 -5.47163 -3.99524 0
M  V30 8772 H 802.802 -6.48082 -2.85299 0
M  V30 8773 H 803.21 -4.75042 -3.04951 0
M  V30 8774 N 802.608 0.318715 -1.54344 0
M  V30 8775 C 803.855 1.05608 -1.72781 0
M  V30 8776 C 804.183 1.87854 -0.504083 0
M  V30 8777 O 803.438 1.88826 0.51414 0
M  V30 8778 C 803.737 2.00514 -2.95853 0
M  V30 8779 C 803.403 1.34385 -4.30409 0
M  V30 8780 C 802.065 1.16081 -4.66989 0
M  V30 8781 C 804.417 0.869627 -5.13894 0
M  V30 8782 C 801.745 0.490114 -5.84649 0
M  V30 8783 C 804.097 0.212735 -6.32242 0
M  V30 8784 C 802.761 0.0175882 -6.67498 0
M  V30 8785 H 802.031 0.386449 -0.632249 0
M  V30 8786 H 804.678 0.332729 -1.88587 0
M  V30 8787 H 802.983 2.79317 -2.74753 0
M  V30 8788 H 804.68 2.57605 -3.07312 0
M  V30 8789 H 801.27 1.49634 -4.01631 0
M  V30 8790 H 805.454 0.998809 -4.86146 0
M  V30 8791 H 800.71 0.327767 -6.10521 0
M  V30 8792 H 804.884 -0.162699 -6.9621 0
M  V30 8793 H 802.511 -0.504137 -7.58527 0
M  V30 8794 N 804.086 1.46499 0.581025 0
M  V30 8795 C 805.019 1.51706 1.70472 0
M  V30 8796 C 805.997 0.371036 1.5831 0
M  V30 8797 O 807.181 0.575426 1.79502 0
M  V30 8798 C 804.308 1.3972 3.08538 0
M  V30 8799 C 803.354 2.58525 3.39215 0
M  V30 8800 S 804.187 4.20872 3.311 0
M  V30 8801 C 805.343 4.11398 4.71702 0
M  V30 8802 H 805.576 2.46777 1.65796 0
M  V30 8803 H 803.109 1.34405 0.759908 0
M  V30 8804 H 805.067 1.33492 3.88188 0
M  V30 8805 H 803.728 0.460742 3.10702 0
M  V30 8806 H 802.921 2.46137 4.3981 0
M  V30 8807 H 802.523 2.61752 2.67136 0
M  V30 8808 H 804.815 3.78182 5.62125 0
M  V30 8809 H 805.758 5.11997 4.89147 0
M  V30 8810 H 806.166 3.42624 4.48631 0
M  V30 8811 N 805.565 -0.825799 1.34232 0
M  V30 8812 C 806.842 -1.56741 1.17011 0
M  V30 8813 C 807.222 -2.09512 -0.258425 0
M  V30 8814 O 806.57 -1.90664 -1.25935 0
M  V30 8815 C 806.78 -2.69104 2.22225 0
M  V30 8816 C 808.128 -3.37947 2.57055 0
M  V30 8817 O 809.152 -2.79358 2.20992 0
M  V30 8818 O 808.011 -4.43743 3.1899 0
M  V30 8819 H 805.105 -0.69163 0.453405 0
M  V30 8820 H 807.651 -0.867422 1.45856 0
M  V30 8821 H 806.423 -2.27844 3.18124 0
M  V30 8822 H 806.046 -3.46756 1.94541 0
M  V30 8823 N 807.043 -1.17915 -1.04565 0
M  V30 8824 C 808.273 -0.994716 -1.81077 0
M  V30 8825 C 808.681 0.460146 -1.83519 0
M  V30 8826 O 808.024 1.33136 -1.26572 0
M  V30 8827 C 808.086 -1.46698 -3.28207 0
M  V30 8828 C 807.75 -2.94523 -3.49436 0
M  V30 8829 C 808.747 -3.92414 -3.41038 0
M  V30 8830 C 806.432 -3.32841 -3.76194 0
M  V30 8831 C 808.426 -5.2662 -3.59096 0
M  V30 8832 C 806.113 -4.67212 -3.93899 0
M  V30 8833 C 807.111 -5.6391 -3.8535 0
M  V30 8834 O 806.799 -6.95849 -4.02554 0
M  V30 8835 H 806.531 -0.351797 -0.577248 0
M  V30 8836 H 809.085 -1.56772 -1.32709 0
M  V30 8837 H 807.315 -0.837592 -3.7752 0
M  V30 8838 H 809.004 -1.24724 -3.86263 0
M  V30 8839 H 809.77 -3.64157 -3.20336 0
M  V30 8840 H 805.649 -2.58139 -3.81949 0
M  V30 8841 H 809.193 -6.02082 -3.52339 0
M  V30 8842 H 805.09 -4.95172 -4.14095 0
M  V30 8843 H 805.858 -7.02679 -4.19743 0
M  V30 8844 N 808.521 1.23394 -0.980386 0
M  V30 8845 C 809.454 2.23404 -0.465404 0
M  V30 8846 C 810.432 1.55735 0.467471 0
M  V30 8847 O 811.616 1.84295 0.395921 0
M  V30 8848 C 808.743 3.3712 0.32672 0
M  V30 8849 C 807.789 4.22935 -0.550296 0
M  V30 8850 S 808.622 4.96824 -1.99814 0
M  V30 8851 C 809.778 6.13991 -1.21516 0
M  V30 8852 H 810.011 2.6674 -1.31289 0
M  V30 8853 H 807.544 1.32874 -0.78638 0
M  V30 8854 H 809.502 4.03065 0.777738 0
M  V30 8855 H 808.163 2.92317 1.14933 0
M  V30 8856 H 807.356 5.03966 0.0585298 0
M  V30 8857 H 806.958 3.62058 -0.937558 0
M  V30 8858 H 809.25 6.75822 -0.476476 0
M  V30 8859 H 810.193 6.7926 -2.0003 0
M  V30 8860 H 810.601 5.59708 -0.733949 0
M  V30 8861 N 809.999 0.752036 1.385 0
M  V30 8862 C 811.229 0.317812 2.04141 0
M  V30 8863 C 811.637 -1.05822 1.56839 0
M  V30 8864 O 810.98 -1.68311 0.736016 0
M  V30 8865 C 811.042 0.260205 3.58557 0
M  V30 8866 C 810.706 1.57753 4.28909 0
M  V30 8867 C 811.703 2.52642 4.54387 0
M  V30 8868 C 809.388 1.84653 4.67128 0
M  V30 8869 C 811.382 3.72653 5.17116 0
M  V30 8870 C 809.069 3.04938 5.29581 0
M  V30 8871 C 810.067 3.98759 5.54509 0
M  V30 8872 O 809.755 5.16929 6.15662 0
M  V30 8873 H 809.487 0.133931 0.6626 0
M  V30 8874 H 812.041 1.02138 1.78205 0
M  V30 8875 H 810.271 -0.499596 3.83459 0
M  V30 8876 H 811.96 -0.144295 4.05643 0
M  V30 8877 H 812.726 2.33135 4.25292 0
M  V30 8878 H 808.605 1.12464 4.47071 0
M  V30 8879 H 812.149 4.45898 5.36489 0
M  V30 8880 H 808.046 3.24339 5.58099 0
M  V30 8881 H 808.814 5.1749 6.3415 0
M  V30 8882 N 811.477 -1.49425 0.500989 0
M  V30 8883 C 812.425 -2.30771 -0.291149 0
M  V30 8884 C 813.419 -1.3938 -0.962787 0
M  V30 8885 O 814.625 -1.56431 -0.890477 0
M  V30 8886 H 811 -0.743499 -0.11275 0
M  V30 8887 H 812.971 -2.95501 0.414917 0
M  V30 8888 C 811.72 -3.20725 -1.34279 0
M  V30 8889 H 811.043 -3.90975 -0.83538 0
M  V30 8890 H 812.483 -3.80583 -1.86903 0
M  V30 8891 C 810.942 -2.40334 -2.36095 0
M  V30 8892 O 811.472 -2.10749 -3.41976 0
M  V30 8893 N 809.678 -2.02359 -2.08565 0
M  V30 8894 H 809.225 -2.26619 -1.22482 0
M  V30 8895 H 809.183 -1.48878 -2.76916 0
M  V30 8896 N 812.955 -0.234822 -1.55841 0
M  V30 8897 C 813.902 0.6698 -2.20867 0
M  V30 8898 C 814.872 1.18042 -1.16856 0
M  V30 8899 O 816.057 1.23709 -1.45261 0
M  V30 8900 C 813.197 1.86646 -2.90271 0
M  V30 8901 C 812.31 1.39351 -4.08908 0
M  V30 8902 C 811.445 2.54878 -4.66059 0
M  V30 8903 C 810.484 2.04384 -5.76969 0
M  V30 8904 N 809.621 3.13233 -6.28355 0
M  V30 8905 H 814.461 0.10858 -2.97802 0
M  V30 8906 H 811.998 0.041836 -1.4704 0
M  V30 8907 H 813.956 2.56926 -3.28702 0
M  V30 8908 H 812.586 2.40035 -2.15831 0
M  V30 8909 H 811.638 0.585173 -3.75872 0
M  V30 8910 H 812.95 0.983356 -4.89011 0
M  V30 8911 H 812.104 3.33219 -5.07001 0
M  V30 8912 H 810.843 2.99188 -3.85146 0
M  V30 8913 H 809.848 1.24509 -5.35516 0
M  V30 8914 H 811.073 1.61057 -6.59725 0
M  V30 8915 H 809.019 3.57 -5.50352 0
M  V30 8916 H 808.936 2.76511 -7.03618 0
M  V30 8917 H 810.204 3.91669 -6.73955 0
M  V30 8918 N 814.433 1.57553 0.0384317 0
M  V30 8919 C 815.71 1.79977 0.766002 0
M  V30 8920 C 816.09 0.830625 1.94072 0
M  V30 8921 O 815.438 -0.129243 2.28134 0
M  V30 8922 C 815.648 3.27434 1.20781 0
M  V30 8923 C 816.996 3.92167 1.62758 0
M  V30 8924 O 818.02 3.31527 1.30263 0
M  V30 8925 O 816.879 4.98917 2.23035 0
M  V30 8926 H 813.973 0.739787 0.369654 0
M  V30 8927 H 816.519 1.69693 0.0159312 0
M  V30 8928 H 815.291 3.89558 0.368792 0
M  V30 8929 H 814.914 3.42571 2.01819 0
M  V30 8930 N 815.911 -0.310526 1.54511 0
M  V30 8931 C 816.844 -1.40693 1.79668 0
M  V30 8932 C 817.822 -1.49159 0.64734 0
M  V30 8933 O 819.006 -1.66367 0.886239 0
M  V30 8934 C 816.133 -2.78685 1.92491 0
M  V30 8935 C 815.179 -2.87688 3.14861 0
M  V30 8936 S 816.012 -2.50759 4.7316 0
M  V30 8937 C 817.168 -3.90797 4.88906 0
M  V30 8938 H 817.401 -1.19142 2.72383 0
M  V30 8939 H 814.934 -0.508103 1.458 0
M  V30 8940 H 816.892 -3.58168 2.00563 0
M  V30 8941 H 815.553 -2.9751 1.00731 0
M  V30 8942 H 814.746 -3.8888 3.20607 0
M  V30 8943 H 814.348 -2.16189 3.05186 0
M  V30 8944 H 816.64 -4.85693 4.72344 0
M  V30 8945 H 817.583 -3.90027 5.91003 0
M  V30 8946 H 817.991 -3.80357 4.1712 0
M  V30 8947 N 817.389 -1.46805 -0.573248 0
M  V30 8948 C 818.637 -1.52302 -1.32847 0
M  V30 8949 C 818.958 -0.180159 -1.94166 0
M  V30 8950 O 818.228 0.794291 -1.79075 0
M  V30 8951 H 816.808 -0.56097 -0.493276 0
M  V30 8952 H 819.47 -1.82998 -0.670642 0
M  V30 8953 H 818.566 -2.28089 -2.13031 0
M  V30 8954 N 818.867 0.818669 -1.34668 0
M  V30 8955 C 820.116 1.57017 -1.26604 0
M  V30 8956 C 820.429 1.94936 0.161036 0
M  V30 8957 O 821.635 2.69051 0.36386 0
M  V30 8958 C 820.091 2.83305 -2.2196 0
M  V30 8959 C 819.699 2.52671 -3.69948 0
M  V30 8960 C 821.443 3.61324 -2.22813 0
M  V30 8961 C 819.35 3.75178 -4.5716 0
M  V30 8962 H 818.28 0.589323 -0.470335 0
M  V30 8963 H 820.931 0.900956 -1.59859 0
M  V30 8964 H 819.313 3.51874 -1.81661 0
M  V30 8965 H 820.487 1.92186 -4.18809 0
M  V30 8966 H 818.802 1.8792 -3.71584 0
M  V30 8967 H 821.399 4.52294 -2.85192 0
M  V30 8968 H 821.742 3.97759 -1.22857 0
M  V30 8969 H 822.275 2.99703 -2.61578 0
M  V30 8970 H 819.014 3.43861 -5.58068 0
M  V30 8971 H 818.534 4.34931 -4.13031 0
M  V30 8972 H 820.213 4.42542 -4.71981 0
M  V30 8973 N 820.346 1.18468 1.03938 0
M  V30 8974 C 821.276 0.936389 2.13902 0
M  V30 8975 C 822.257 -0.126381 1.6963 0
M  V30 8976 O 823.442 0.0264757 1.94182 0
M  V30 8977 C 820.572 0.462729 3.44204 0
M  V30 8978 C 819.526 1.46613 4.02105 0
M  V30 8979 C 818.852 0.84994 5.27902 0
M  V30 8980 C 820.152 2.84323 4.3813 0
M  V30 8981 H 821.846 1.85602 2.3493 0
M  V30 8982 H 819.392 0.893806 1.12903 0
M  V30 8983 H 821.345 0.276382 4.20493 0
M  V30 8984 H 820.069 -0.492477 3.22866 0
M  V30 8985 H 818.728 1.63944 3.27899 0
M  V30 8986 H 818.376 -0.112493 5.02874 0
M  V30 8987 H 818.076 1.51988 5.67603 0
M  V30 8988 H 819.6 0.674152 6.06867 0
M  V30 8989 H 821.014 2.70636 5.054 0
M  V30 8990 H 819.411 3.48012 4.88884 0
M  V30 8991 H 820.481 3.37776 3.47901 0
M  V30 8992 N 821.824 -1.22873 0.986916 0
M  V30 8993 C 822.772 -2.26597 0.525043 0
M  V30 8994 C 823.766 -1.64079 -0.421252 0
M  V30 8995 O 824.972 -1.77576 -0.294429 0
M  V30 8996 H 821.347 -0.736606 0.151381 0
M  V30 8997 H 823.318 -2.62909 1.41142 0
M  V30 8998 C 822.067 -3.47374 -0.150542 0
M  V30 8999 H 821.39 -3.95737 0.568541 0
M  V30 9000 H 822.83 -4.21739 -0.437256 0
M  V30 9001 C 821.289 -3.07163 -1.38392 0
M  V30 9002 O 821.819 -3.16028 -2.47971 0
M  V30 9003 N 820.025 -2.62009 -1.25697 0
M  V30 9004 H 819.572 -2.54996 -0.365355 0
M  V30 9005 H 819.53 -2.35472 -2.08327 0
M  V30 9006 N 823.302 -0.75937 -1.38099 0
M  V30 9007 C 824.249 -0.135508 -2.30402 0
M  V30 9008 C 825.219 0.703356 -1.50473 0
M  V30 9009 O 826.404 0.658287 -1.79084 0
M  V30 9010 C 823.544 0.747228 -3.36913 0
M  V30 9011 C 822.657 -0.106893 -4.31868 0
M  V30 9012 C 821.792 0.779388 -5.25451 0
M  V30 9013 C 820.831 -0.0780179 -6.1205 0
M  V30 9014 N 819.968 0.765545 -6.97914 0
M  V30 9015 H 824.808 -0.9282 -2.83176 0
M  V30 9016 H 822.345 -0.46935 -1.39411 0
M  V30 9017 H 824.303 1.27371 -3.97281 0
M  V30 9018 H 822.933 1.50565 -2.85535 0
M  V30 9019 H 821.985 -0.751063 -3.72912 0
M  V30 9020 H 823.297 -0.768798 -4.9284 0
M  V30 9021 H 822.451 1.37282 -5.90964 0
M  V30 9022 H 821.19 1.47501 -4.6486 0
M  V30 9023 H 820.195 -0.684078 -5.45528 0
M  V30 9024 H 821.42 -0.770786 -6.74712 0
M  V30 9025 H 819.366 1.44601 -6.39864 0
M  V30 9026 H 819.283 0.160666 -7.55829 0
M  V30 9027 H 820.551 1.34377 -7.6783 0
M  V30 9028 N 824.78 1.49157 -0.508906 0
M  V30 9029 C 825.71 2.32109 0.254469 0
M  V30 9030 C 826.691 1.40754 0.955111 0
M  V30 9031 O 827.876 1.69658 0.944983 0
M  V30 9032 C 825.006 3.21458 1.3146 0
M  V30 9033 C 823.96 4.2167 0.733368 0
M  V30 9034 C 823.286 5.00009 1.8946 0
M  V30 9035 C 824.586 5.21544 -0.280875 0
M  V30 9036 H 826.28 2.9618 -0.43795 0
M  V30 9037 H 823.826 1.4243 -0.212062 0
M  V30 9038 H 825.779 3.78305 1.85643 0
M  V30 9039 H 824.503 2.55346 2.03632 0
M  V30 9040 H 823.162 3.65979 0.213231 0
M  V30 9041 H 822.81 4.30338 2.60419 0
M  V30 9042 H 822.51 5.67821 1.51173 0
M  V30 9043 H 824.034 5.59702 2.44061 0
M  V30 9044 H 825.448 5.73039 0.173095 0
M  V30 9045 H 823.845 5.97291 -0.580006 0
M  V30 9046 H 824.915 4.69969 -1.19404 0
M  V30 9047 N 826.258 0.243083 1.55714 0
M  V30 9048 C 827.206 -0.674349 2.2261 0
M  V30 9049 C 828.2 -1.18307 1.21243 0
M  V30 9050 O 829.406 -1.1404 1.39265 0
M  V30 9051 H 825.781 -0.235941 0.714028 0
M  V30 9052 H 827.752 -0.0869446 2.98273 0
M  V30 9053 C 826.501 -1.86206 2.93637 0
M  V30 9054 H 825.824 -1.47975 3.71407 0
M  V30 9055 H 827.264 -2.4813 3.43813 0
M  V30 9056 C 825.723 -2.73084 1.97298 0
M  V30 9057 O 826.253 -3.72497 1.50361 0
M  V30 9058 N 824.459 -2.39571 1.64482 0
M  V30 9059 H 824.006 -1.5878 2.02846 0
M  V30 9060 H 823.964 -2.97976 1.00288 0
M  V30 9061 N 827.736 -1.57571 -0.0300757 0
M  V30 9062 C 829.013 -1.80381 -0.756447 0
M  V30 9063 C 829.393 -0.840906 -1.93628 0
M  V30 9064 O 828.741 0.117143 -2.282 0
M  V30 9065 C 828.951 -3.2807 -1.19043 0
M  V30 9066 C 830.299 -3.93025 -1.60676 0
M  V30 9067 O 831.323 -3.32213 -1.28503 0
M  V30 9068 O 830.182 -5.00092 -2.20386 0
M  V30 9069 H 827.276 -0.741737 -0.365725 0
M  V30 9070 H 829.822 -1.69699 -0.00693177 0
M  V30 9071 H 828.594 -3.89748 -0.348128 0
M  V30 9072 H 828.217 -3.43637 -1.99999 0
M  V30 9073 N 829.214 0.302327 -1.54673 0
M  V30 9074 C 830.144 1.37759 -1.88533 0
M  V30 9075 C 831.125 1.52961 -0.744113 0
M  V30 9076 O 832.31 1.6649 -0.999731 0
M  V30 9077 C 829.44 2.74201 -2.13146 0
M  V30 9078 C 828.394 2.73765 -3.28993 0
M  V30 9079 C 827.72 4.13483 -3.39022 0
M  V30 9080 C 829.02 2.35624 -4.66132 0
M  V30 9081 H 830.714 1.0967 -2.78591 0
M  V30 9082 H 828.26 0.52613 -1.34044 0
M  V30 9083 H 830.213 3.49508 -2.35419 0
M  V30 9084 H 828.937 3.03812 -1.19858 0
M  V30 9085 H 827.596 2.00914 -3.06642 0
M  V30 9086 H 827.244 4.40269 -2.43253 0
M  V30 9087 H 826.944 4.14093 -4.16894 0
M  V30 9088 H 828.468 4.90572 -3.63553 0
M  V30 9089 H 829.882 3.00647 -4.88143 0
M  V30 9090 H 828.279 2.47449 -5.46707 0
M  V30 9091 H 829.349 1.30753 -4.66939 0
M  V30 9092 N 830.692 1.47107 0.565454 0
M  V30 9093 C 831.655 1.58535 1.65527 0
M  V30 9094 C 832.655 0.461081 1.54048 0
M  V30 9095 O 833.845 0.725911 1.58355 0
M  V30 9096 C 830.977 1.52204 3.05036 0
M  V30 9097 H 832.17 2.55676 1.56747 0
M  V30 9098 H 829.723 1.35174 0.78471 0
M  V30 9099 H 830.458 0.564071 3.19357 0
M  V30 9100 H 830.243 2.3379 3.14777 0
M  V30 9101 H 831.733 1.63322 3.84338 0
M  V30 9102 N 832.17 -0.811516 1.35101 0
M  V30 9103 C 833.117 -1.92308 1.27617 0
M  V30 9104 C 834.087 -1.6543 0.149091 0
M  V30 9105 O 835.272 -1.8789 0.331974 0
M  V30 9106 C 832.412 -3.28768 1.04908 0
M  V30 9107 C 831.525 -3.67865 2.26493 0
M  V30 9108 C 830.66 -4.9333 1.96974 0
M  V30 9109 C 829.699 -5.25041 3.1464 0
M  V30 9110 N 828.836 -6.41685 2.84929 0
M  V30 9111 H 833.676 -1.98041 2.22674 0
M  V30 9112 H 831.213 -0.968755 1.10696 0
M  V30 9113 H 833.171 -4.07426 0.897749 0
M  V30 9114 H 831.801 -3.22517 0.135151 0
M  V30 9115 H 830.853 -2.84507 2.52507 0
M  V30 9116 H 832.165 -3.87263 3.14371 0
M  V30 9117 H 831.319 -5.79803 1.78643 0
M  V30 9118 H 830.058 -4.75958 1.06374 0
M  V30 9119 H 829.063 -4.3706 3.33554 0
M  V30 9120 H 830.288 -5.44346 4.06035 0
M  V30 9121 H 828.234 -6.25747 1.96918 0
M  V30 9122 H 828.151 -6.6131 3.66341 0
M  V30 9123 H 829.419 -7.31198 2.70128 0
M  V30 9124 N 833.648 -1.19017 -1.03309 0
M  V30 9125 C 834.596 -0.920627 -2.13605 0
M  V30 9126 C 835.59 0.121969 -1.6896 0
M  V30 9127 O 836.796 -0.0268854 -1.7998 0
M  V30 9128 H 833.171 -0.280284 -0.697814 0
M  V30 9129 H 835.142 -1.85755 -2.33533 0
M  V30 9130 C 833.891 -0.471198 -3.44492 0
M  V30 9131 H 833.214 -1.26499 -3.7926 0
M  V30 9132 H 834.654 -0.321663 -4.22778 0
M  V30 9133 C 833.113 0.81411 -3.26916 0
M  V30 9134 O 833.643 1.87654 -3.55175 0
M  V30 9135 N 831.849 0.769695 -2.80221 0
M  V30 9136 H 831.396 -0.0951278 -2.57424 0
M  V30 9137 H 831.354 1.63008 -2.68842 0
M  V30 9138 N 835.127 1.22348 -0.993418 0
M  V30 9139 C 836.075 2.26315 -0.537052 0
M  V30 9140 C 837.069 1.643 0.412545 0
M  V30 9141 O 838.275 1.77729 0.285008 0
M  V30 9142 H 834.65 0.735792 -0.155286 0
M  V30 9143 H 836.621 2.62157 -1.42535 0
M  V30 9144 C 835.37 3.47449 0.132118 0
M  V30 9145 H 834.693 3.9543 -0.589519 0
M  V30 9146 H 836.133 4.21965 0.414884 0
M  V30 9147 C 834.592 3.07893 1.36761 0
M  V30 9148 O 835.122 3.17338 2.46291 0
M  V30 9149 N 833.328 2.62672 1.24305 0
M  V30 9150 H 832.875 2.55186 0.351826 0
M  V30 9151 H 832.833 2.36574 2.07076 0
M  V30 9152 N 836.605 0.766683 1.37694 0
M  V30 9153 C 837.882 0.25366 1.93948 0
M  V30 9154 C 838.262 -1.25041 1.70082 0
M  V30 9155 O 837.61 -2.03115 1.04674 0
M  V30 9156 C 837.82 0.621549 3.43421 0
M  V30 9157 C 839.168 0.588504 4.20502 0
M  V30 9158 O 840.192 0.560632 3.5176 0
M  V30 9159 O 839.051 0.61107 5.43073 0
M  V30 9160 H 836.145 0.0570586 0.825029 0
M  V30 9161 H 838.691 0.847693 1.47011 0
M  V30 9162 H 837.463 1.65979 3.54354 0
M  V30 9163 H 837.086 0.000197027 3.976 0
M  V30 9164 N 838.083 -1.48885 0.516809 0
M  V30 9165 C 839.329 -2.02788 -0.0220928 0
M  V30 9166 C 839.662 -1.39433 -1.35175 0
M  V30 9167 O 838.937 -0.535459 -1.86984 0
M  V30 9168 C 839.22 -3.59753 -0.158012 0
M  V30 9169 C 839.073 -4.33611 1.19588 0
M  V30 9170 C 840.392 -4.30984 -0.891133 0
M  V30 9171 H 837.511 -0.736971 -0.00655488 0
M  V30 9172 H 840.153 -1.77746 0.671287 0
M  V30 9173 H 838.303 -3.8122 -0.748568 0
M  V30 9174 H 839.975 -4.23598 1.82653 0
M  V30 9175 H 838.218 -3.95547 1.78116 0
M  V30 9176 H 838.889 -5.41846 1.05391 0
M  V30 9177 H 841.365 -4.14267 -0.39012 0
M  V30 9178 H 840.241 -5.40527 -0.955107 0
M  V30 9179 H 840.502 -3.97336 -1.93847 0
M  V30 9180 N 839.561 -0.251338 -1.55583 0
M  V30 9181 C 840.838 0.422729 -1.90977 0
M  V30 9182 C 841.218 1.75534 -1.17265 0
M  V30 9183 O 840.566 2.26632 -0.291588 0
M  V30 9184 C 840.776 0.586448 -3.44037 0
M  V30 9185 C 842.124 0.880294 -4.15375 0
M  V30 9186 O 843.148 0.672148 -3.49801 0
M  V30 9187 O 842.007 1.27694 -5.31372 0
M  V30 9188 H 839.101 0.227622 -0.795058 0
M  V30 9189 H 841.647 -0.295733 -1.67103 0
M  V30 9190 H 840.419 -0.352327 -3.89711 0
M  V30 9191 H 840.042 1.35528 -3.73789 0
M  V30 9192 N 841.039 1.57585 0.0217189 0
M  V30 9193 C 842.287 1.89231 0.709641 0
M  V30 9194 C 842.608 0.849964 1.75501 0
M  V30 9195 O 841.878 -0.115485 1.95559 0
M  V30 9196 H 840.458 0.69838 0.265092 0
M  V30 9197 H 843.12 1.94895 -0.0140688 0
M  V30 9198 H 842.216 2.88333 1.19459 0
M  V30 9199 N 842.517 -0.29412 1.54831 0
M  V30 9200 C 843.747 -1.04572 1.7818 0
M  V30 9201 C 844.155 -1.81187 0.544776 0
M  V30 9202 O 843.498 -1.769 -0.495169 0
M  V30 9203 C 843.56 -2.06748 2.94101 0
M  V30 9204 C 843.224 -1.49265 4.31936 0
M  V30 9205 C 844.221 -0.919136 5.11711 0
M  V30 9206 C 841.906 -1.52621 4.78552 0
M  V30 9207 C 843.9 -0.386824 6.36225 0
M  V30 9208 C 841.587 -0.990031 6.03027 0
M  V30 9209 C 842.585 -0.421315 6.81699 0
M  V30 9210 O 842.273 0.106713 8.03829 0
M  V30 9211 H 842.005 -0.31559 0.597812 0
M  V30 9212 H 844.559 -0.336817 2.0262 0
M  V30 9213 H 842.789 -2.81339 2.65303 0
M  V30 9214 H 844.478 -2.67865 3.04964 0
M  V30 9215 H 845.244 -0.886062 4.76837 0
M  V30 9216 H 841.123 -1.95826 4.17341 0
M  V30 9217 H 844.667 0.0577248 6.97576 0
M  V30 9218 H 840.564 -1.02027 6.37386 0
M  V30 9219 H 841.332 -0.00593526 8.185 0
M  V30 9220 N 843.995 -1.47404 -0.557645 0
M  V30 9221 C 845.272 -1.44488 -1.31843 0
M  V30 9222 C 845.652 -0.1416 -2.10625 0
M  V30 9223 O 845 0.876908 -2.11004 0
M  V30 9224 C 845.21 -2.69016 -2.22331 0
M  V30 9225 C 846.558 -3.16212 -2.83364 0
M  V30 9226 O 847.582 -2.69741 -2.32634 0
M  V30 9227 O 846.441 -3.96999 -3.75571 0
M  V30 9228 H 843.535 -0.57578 -0.593639 0
M  V30 9229 H 846.081 -1.59605 -0.576584 0
M  V30 9230 H 844.853 -3.55406 -1.63715 0
M  V30 9231 H 844.476 -2.56484 -3.03812 0
M  V30 9232 N 845.473 0.80434 -1.35529 0
M  V30 9233 C 846.421 1.93769 -1.28671 0
M  V30 9234 C 847.415 1.68428 -0.181222 0
M  V30 9235 O 848.621 1.76617 -0.347338 0
M  V30 9236 H 844.996 0.636663 -0.400206 0
M  V30 9237 H 846.967 1.96673 -2.24415 0
M  V30 9238 C 845.716 3.30572 -1.07784 0
M  V30 9239 H 845.039 3.5063 -1.9209 0
M  V30 9240 H 846.479 4.1027 -1.07027 0
M  V30 9241 C 844.938 3.36193 0.218213 0
M  V30 9242 O 845.468 3.82941 1.21323 0
M  V30 9243 N 843.674 2.89455 0.257761 0
M  V30 9244 H 843.221 2.51604 -0.552562 0
M  V30 9245 H 843.179 2.93597 1.12465 0
M  V30 9246 N 846.951 1.19563 1.02676 0
M  V30 9247 C 848.181 1.0234 1.79472 0
M  V30 9248 C 848.589 -0.430891 1.84228 0
M  V30 9249 O 847.932 -1.31106 1.28674 0
M  V30 9250 C 847.994 1.51901 3.25832 0
M  V30 9251 C 847.658 3.00045 3.44706 0
M  V30 9252 C 848.655 3.9779 3.34752 0
M  V30 9253 C 846.34 3.38784 3.70851 0
M  V30 9254 C 848.334 5.32267 3.50672 0
M  V30 9255 C 846.021 4.73419 3.86416 0
M  V30 9256 C 847.019 5.69969 3.7633 0
M  V30 9257 O 846.707 7.02165 3.91432 0
M  V30 9258 H 846.439 0.360936 0.571578 0
M  V30 9259 H 848.993 1.58863 1.30198 0
M  V30 9260 H 847.223 0.897546 3.7614 0
M  V30 9261 H 848.912 1.30853 3.84229 0
M  V30 9262 H 849.678 3.69207 3.14502 0
M  V30 9263 H 845.557 2.64183 3.77794 0
M  V30 9264 H 849.101 6.07612 3.42715 0
M  V30 9265 H 844.998 5.01697 4.06165 0
M  V30 9266 H 845.766 7.09268 4.08511 0
M  V30 9267 N 848.429 -1.21819 0.999893 0
M  V30 9268 C 849.678 -1.90066 0.675108 0
M  V30 9269 C 849.991 -1.78624 -0.79705 0
M  V30 9270 O 851.197 -2.41851 -1.23371 0
M  V30 9271 C 849.653 -3.40795 1.15702 0
M  V30 9272 C 849.261 -3.60859 2.6549 0
M  V30 9273 C 851.005 -4.147 0.906889 0
M  V30 9274 C 848.912 -5.05324 3.07248 0
M  V30 9275 H 847.842 -0.711763 0.248815 0
M  V30 9276 H 850.493 -1.3792 1.21038 0
M  V30 9277 H 848.875 -3.92164 0.549832 0
M  V30 9278 H 850.049 -3.19951 3.31614 0
M  V30 9279 H 848.364 -3.00298 2.88461 0
M  V30 9280 H 850.961 -5.21187 1.1945 0
M  V30 9281 H 851.304 -4.16004 -0.156923 0
M  V30 9282 H 851.837 -3.69379 1.47662 0
M  V30 9283 H 848.576 -5.09164 4.12834 0
M  V30 9284 H 848.096 -5.47108 2.45832 0
M  V30 9285 H 849.775 -5.73797 2.98941 0
M  V30 9286 N 849.908 -0.773975 -1.37286 0
M  V30 9287 C 851.324 -0.45386 -1.53011 0
M  V30 9288 C 851.524 1.03018 -1.73175 0
M  V30 9289 O 850.58 1.81597 -1.75438 0
M  V30 9290 C 851.893 -1.27087 -2.72524 0
M  V30 9291 C 853.441 -1.26299 -2.86387 0
M  V30 9292 C 853.916 -2.0634 -4.08886 0
M  V30 9293 N 855.407 -2.03706 -4.16003 0
M  V30 9294 C 856.142 -2.62418 -5.09828 0
M  V30 9295 N 855.638 -3.29926 -6.09197 0
M  V30 9296 N 857.431 -2.52236 -5.02328 0
M  V30 9297 H 849.582 -1.73551 -1.22449 0
M  V30 9298 H 851.845 -0.736874 -0.596423 0
M  V30 9299 H 851.551 -2.32263 -2.64096 0
M  V30 9300 H 851.425 -0.90157 -3.66267 0
M  V30 9301 H 853.812 -0.219213 -2.94285 0
M  V30 9302 H 853.893 -1.67195 -1.93596 0
M  V30 9303 H 853.537 -3.10741 -4.01749 0
M  V30 9304 H 853.467 -1.62825 -5.00795 0
M  V30 9305 H 855.958 -1.54559 -3.44848 0
M  V30 9306 H 856.271 -3.72095 -6.77322 0
M  V30 9307 H 854.616 -3.34026 -6.09469 0
M  V30 9308 H 857.807 -1.99108 -4.23643 0
M  V30 9309 H 857.98 -2.98286 -5.75265 0
M  V30 9310 N 851.386 1.48609 -0.524698 0
M  V30 9311 C 852.663 1.95454 0.075465 0
M  V30 9312 C 853.043 1.46682 1.51814 0
M  V30 9313 O 852.391 0.690975 2.17802 0
M  V30 9314 C 852.601 3.48981 -0.0363273 0
M  V30 9315 C 853.949 4.24414 0.125624 0
M  V30 9316 O 854.973 3.5618 0.0377239 0
M  V30 9317 O 853.832 5.45625 0.309104 0
M  V30 9318 H 850.926 0.822902 0.0822256 0
M  V30 9319 H 853.472 1.59153 -0.588921 0
M  V30 9320 H 852.244 3.77185 -1.04149 0
M  V30 9321 H 851.867 3.91963 0.667146 0
M  V30 9322 N 852.864 0.259585 1.55447 0
M  V30 9323 C 853.794 -0.62852 2.24882 0
M  V30 9324 C 854.775 -1.17128 1.23349 0
M  V30 9325 O 855.96 -1.20829 1.52033 0
M  V30 9326 C 853.09 -1.81983 2.95803 0
M  V30 9327 C 852.044 -1.40929 4.04132 0
M  V30 9328 C 851.37 -2.68246 4.62545 0
M  V30 9329 C 852.67 -0.570956 5.1917 0
M  V30 9330 H 854.364 -0.0495021 2.99359 0
M  V30 9331 H 851.91 -0.0223688 1.43983 0
M  V30 9332 H 853.863 -2.44689 3.43082 0
M  V30 9333 H 852.587 -2.42444 2.18835 0
M  V30 9334 H 851.246 -0.805519 3.57641 0
M  V30 9335 H 850.894 -3.26931 3.82263 0
M  V30 9336 H 850.594 -2.41495 5.35681 0
M  V30 9337 H 852.118 -3.31827 5.12565 0
M  V30 9338 H 853.532 -1.10262 5.62597 0
M  V30 9339 H 851.929 -0.398979 5.98772 0
M  V30 9340 H 852.999 0.413918 4.8313 0
M  V30 9341 N 854.342 -1.57594 -0.0133615 0
M  V30 9342 C 855.567 -1.94649 -0.715996 0
M  V30 9343 C 855.992 -0.860786 -1.67249 0
M  V30 9344 O 855.35 0.182228 -1.80382 0
M  V30 9345 C 855.398 -3.30789 -1.43566 0
M  V30 9346 O 854.502 -3.24148 -2.54955 0
M  V30 9347 H 853.843 -0.635801 -0.191449 0
M  V30 9348 H 856.373 -2.04569 0.0358478 0
M  V30 9349 H 856.383 -3.66045 -1.80208 0
M  V30 9350 H 855.058 -4.09367 -0.734263 0
M  V30 9351 H 853.635 -3.00548 -2.20739 0
M  V30 9352 N 855.82 0.285905 -1.54985 0
M  V30 9353 C 857.045 1.04207 -1.7932 0
M  V30 9354 C 857.47 1.79622 -0.558343 0
M  V30 9355 O 856.828 1.74506 0.491661 0
M  V30 9356 C 856.876 1.98648 -3.0095 0
M  V30 9357 O 855.98 3.07207 -2.75132 0
M  V30 9358 H 855.321 0.298596 -0.593074 0
M  V30 9359 H 857.851 0.318736 -2.02102 0
M  V30 9360 H 857.861 2.4084 -3.29333 0
M  V30 9361 H 856.536 1.43167 -3.90482 0
M  V30 9362 H 855.113 2.69423 -2.57809 0
M  V30 9363 N 857.298 1.47698 0.54982 0
M  V30 9364 C 858.246 1.61156 1.67724 0
M  V30 9365 C 859.24 0.478606 1.62498 0
M  V30 9366 O 860.446 0.656661 1.67595 0
M  V30 9367 H 856.821 0.507304 0.55511 0
M  V30 9368 H 858.792 2.55884 1.53512 0
M  V30 9369 C 857.541 1.64994 3.06059 0
M  V30 9370 H 856.864 2.51525 3.10765 0
M  V30 9371 H 858.304 1.78459 3.84615 0
M  V30 9372 C 856.763 0.384677 3.34697 0
M  V30 9373 O 857.293 -0.511057 3.98436 0
M  V30 9374 N 855.499 0.262434 2.89413 0
M  V30 9375 H 855.046 0.99229 2.37721 0
M  V30 9376 H 855.004 -0.583177 3.08944 0
M  V30 9377 N 858.776 -0.797141 1.35954 0
M  V30 9378 C 860.006 -1.5835 1.32698 0
M  V30 9379 C 860.414 -1.88959 -0.0955298 0
M  V30 9380 O 859.757 -1.49987 -1.06064 0
M  V30 9381 C 859.819 -2.93529 2.0756 0
M  V30 9382 C 859.483 -2.85688 3.56695 0
M  V30 9383 C 860.48 -2.58467 4.51099 0
M  V30 9384 C 858.165 -3.04508 3.99475 0
M  V30 9385 C 860.159 -2.50157 5.8626 0
M  V30 9386 C 857.846 -2.9582 5.34728 0
M  V30 9387 C 858.844 -2.68681 6.27933 0
M  V30 9388 O 858.532 -2.59973 7.60703 0
M  V30 9389 H 858.264 -0.49807 0.457059 0
M  V30 9390 H 860.818 -0.997889 1.79531 0
M  V30 9391 H 859.048 -3.54111 1.55378 0
M  V30 9392 H 860.737 -3.54744 1.9726 0
M  V30 9393 H 861.503 -2.43638 4.19363 0
M  V30 9394 H 857.382 -3.24641 3.27306 0
M  V30 9395 H 860.926 -2.28894 6.58979 0
M  V30 9396 H 856.823 -3.10211 5.66074 0
M  V30 9397 H 857.591 -2.75511 7.70737 0
M  V30 9398 N 860.254 -1.20106 -1.0204 0
M  V30 9399 C 861.217 -0.948261 -2.08664 0
M  V30 9400 C 862.217 0.0746753 -1.60627 0
M  V30 9401 O 863.407 -0.160981 -1.73455 0
M  V30 9402 C 860.539 -0.426854 -3.38217 0
M  V30 9403 H 861.732 -1.894 -2.32524 0
M  V30 9404 H 859.285 -1.0159 -1.18782 0
M  V30 9405 H 860.02 0.524532 -3.2003 0
M  V30 9406 H 859.805 -1.16451 -3.74408 0
M  V30 9407 H 861.295 -0.269346 -4.1673 0
M  V30 9408 N 861.732 1.21287 -1.00634 0
M  V30 9409 C 862.662 2.25973 -0.588089 0
M  V30 9410 C 863.643 1.65527 0.391764 0
M  V30 9411 O 864.828 1.92179 0.279452 0
M  V30 9412 C 861.958 3.47197 0.0847336 0
M  V30 9413 C 860.912 4.20168 -0.815039 0
M  V30 9414 C 860.238 5.34699 -0.00855393 0
M  V30 9415 C 861.538 4.77416 -2.11828 0
M  V30 9416 H 863.232 2.61212 -1.46317 0
M  V30 9417 H 860.778 1.25563 -0.704985 0
M  V30 9418 H 862.731 4.19602 0.388821 0
M  V30 9419 H 861.455 3.11092 0.994456 0
M  V30 9420 H 860.114 3.49614 -1.10297 0
M  V30 9421 H 859.762 4.94837 0.902499 0
M  V30 9422 H 859.462 5.84449 -0.607664 0
M  V30 9423 H 860.986 6.09914 0.289317 0
M  V30 9424 H 862.4 5.41694 -1.87725 0
M  V30 9425 H 860.797 5.37561 -2.66736 0
M  V30 9426 H 861.867 3.96724 -2.78816 0
M  V30 9427 N 863.21 0.781244 1.36873 0
M  V30 9428 C 864.158 0.161889 2.32036 0
M  V30 9429 C 865.152 -0.674225 1.55405 0
M  V30 9430 O 866.358 -0.570223 1.70729 0
M  V30 9431 H 862.733 0.0335702 0.75125 0
M  V30 9432 H 864.704 0.980078 2.81846 0
M  V30 9433 C 863.453 -0.695352 3.40676 0
M  V30 9434 H 862.776 -0.0613425 3.99753 0
M  V30 9435 H 864.216 -1.09553 4.09602 0
M  V30 9436 C 862.675 -1.85008 2.81556 0
M  V30 9437 O 863.205 -2.94616 2.73065 0
M  V30 9438 N 861.411 -1.65364 2.38962 0
M  V30 9439 H 860.958 -0.762106 2.46068 0
M  V30 9440 H 860.916 -2.42789 1.99752 0
M  V30 9441 N 864.689 -1.48329 0.532571 0
M  V30 9442 C 865.966 -1.95492 -0.0650985 0
M  V30 9443 C 866.346 -1.47485 -1.51034 0
M  V30 9444 O 865.694 -0.702516 -2.17433 0
M  V30 9445 C 865.904 -3.48957 0.0548341 0
M  V30 9446 C 867.252 -4.24475 -0.103115 0
M  V30 9447 O 868.276 -3.56195 -0.0188343 0
M  V30 9448 O 867.135 -5.45781 -0.280164 0
M  V30 9449 H 864.229 -0.823327 -0.0778603 0
M  V30 9450 H 866.775 -1.58839 0.597353 0
M  V30 9451 H 865.547 -3.76628 1.06148 0
M  V30 9452 H 865.17 -3.92311 -0.64635 0
M  V30 9453 N 866.167 -0.267825 -1.55308 0
M  V30 9454 C 867.114 0.6228 -2.22238 0
M  V30 9455 C 868.084 1.15536 -1.19334 0
M  V30 9456 O 869.269 1.206 -1.47852 0
M  V30 9457 C 866.409 1.80447 -2.94164 0
M  V30 9458 C 865.522 1.30646 -4.11771 0
M  V30 9459 C 864.657 2.44935 -4.7136 0
M  V30 9460 C 863.696 1.92099 -5.81175 0
M  V30 9461 N 862.833 2.99834 -6.34857 0
M  V30 9462 H 867.673 0.0453874 -2.97965 0
M  V30 9463 H 865.21 0.0106371 -1.47096 0
M  V30 9464 H 867.168 2.49896 -3.34078 0
M  V30 9465 H 865.798 2.35403 -2.20874 0
M  V30 9466 H 864.85 0.505314 -3.77029 0
M  V30 9467 H 866.162 0.879409 -4.90987 0
M  V30 9468 H 865.316 3.2239 -5.13955 0
M  V30 9469 H 864.055 2.90951 -3.91406 0
M  V30 9470 H 863.06 1.13122 -5.38037 0
M  V30 9471 H 864.285 1.47027 -6.62993 0
M  V30 9472 H 862.231 3.45246 -5.578 0
M  V30 9473 H 862.148 2.61524 -7.09324 0
M  V30 9474 H 863.416 3.77286 -6.82111 0
M  V30 9475 N 867.645 1.57599 0.00500368 0
M  V30 9476 C 868.875 1.94344 0.700998 0
M  V30 9477 C 869.283 0.868011 1.68114 0
M  V30 9478 O 868.626 -0.16214 1.82983 0
M  V30 9479 C 868.688 3.27046 1.49268 0
M  V30 9480 C 868.352 4.51992 0.674684 0
M  V30 9481 C 869.349 5.19888 -0.0354833 0
M  V30 9482 C 867.034 4.98432 0.622129 0
M  V30 9483 C 869.028 6.3252 -0.787246 0
M  V30 9484 C 866.715 6.10954 -0.133362 0
M  V30 9485 C 867.713 6.77855 -0.836788 0
M  V30 9486 O 867.401 7.88221 -1.57996 0
M  V30 9487 H 867.133 0.645572 0.20053 0
M  V30 9488 H 869.687 2.0536 -0.040718 0
M  V30 9489 H 867.917 3.12424 2.27877 0
M  V30 9490 H 869.606 3.4894 2.07355 0
M  V30 9491 H 870.372 4.85 -0.00400159 0
M  V30 9492 H 866.251 4.46189 1.15917 0
M  V30 9493 H 869.795 6.84671 -1.33683 0
M  V30 9494 H 865.692 6.45285 -0.166682 0
M  V30 9495 H 866.46 8.0471 -1.49615 0
M  V30 9496 N 869.123 -0.277682 1.55134 0
M  V30 9497 C 870.055 -1.36531 1.84098 0
M  V30 9498 C 871.068 -1.45756 0.725194 0
M  V30 9499 O 872.257 -1.47656 1.00299 0
M  V30 9500 C 869.357 -2.74701 1.98476 0
M  V30 9501 C 868.53 -2.88125 3.29094 0
M  V30 9502 C 867.589 -4.0694 3.33596 0
M  V30 9503 O 866.615 -3.9792 4.06999 0
M  V30 9504 N 867.817 -5.18687 2.60661 0
M  V30 9505 H 870.582 -1.12032 2.77973 0
M  V30 9506 H 868.143 -0.467793 1.54995 0
M  V30 9507 H 870.135 -3.52471 1.98863 0
M  V30 9508 H 868.705 -2.92043 1.11488 0
M  V30 9509 H 867.925 -1.97277 3.41285 0
M  V30 9510 H 869.213 -2.94021 4.15246 0
M  V30 9511 H 868.611 -5.28901 2.00699 0
M  V30 9512 H 867.168 -5.94705 2.66776 0
M  V30 9513 N 870.601 -1.47988 -0.541979 0
M  V30 9514 C 871.878 -1.45878 -1.30303 0
M  V30 9515 C 872.258 -0.163931 -2.10463 0
M  V30 9516 O 871.606 0.854479 -2.11922 0
M  V30 9517 C 871.816 -2.71359 -2.19466 0
M  V30 9518 C 873.164 -3.19199 -2.79995 0
M  V30 9519 O 874.188 -2.72193 -2.2976 0
M  V30 9520 O 873.047 -4.00961 -3.71339 0
M  V30 9521 H 870.141 -0.582043 -0.587498 0
M  V30 9522 H 872.687 -1.60207 -0.559623 0
M  V30 9523 H 871.459 -3.57122 -1.59936 0
M  V30 9524 H 871.082 -2.59692 -3.01075 0
M  V30 9525 N 872.079 0.78992 -1.36375 0
M  V30 9526 C 873.029 1.89227 -1.27189 0
M  V30 9527 C 874.013 1.60067 -0.163498 0
M  V30 9528 O 875.205 1.72507 -0.396262 0
M  V30 9529 C 872.334 3.26431 -1.06292 0
M  V30 9530 C 871.42 3.61602 -2.21596 0
M  V30 9531 N 871.811 3.68086 -3.4691 0
M  V30 9532 C 870.109 3.9166 -2.1335 0
M  V30 9533 C 870.81 3.99481 -4.22835 0
M  V30 9534 N 869.786 4.14438 -3.5177 0
M  V30 9535 H 873.588 1.92465 -2.22113 0
M  V30 9536 H 871.102 0.985414 -1.29087 0
M  V30 9537 H 873.099 4.05267 -0.97798 0
M  V30 9538 H 871.759 3.24468 -0.122676 0
M  V30 9539 H 872.77 3.50743 -3.81051 0
M  V30 9540 H 869.447 3.97626 -1.27279 0
M  V30 9541 H 870.837 4.11425 -5.31205 0
M  V30 9542 N 873.557 1.20646 1.01402 0
M  V30 9543 C 874.49 0.900926 2.09663 0
M  V30 9544 C 875.468 -0.14801 1.61925 0
M  V30 9545 O 876.652 -0.0210235 1.88488 0
M  V30 9546 C 873.779 0.351097 3.36875 0
M  V30 9547 C 872.825 1.38142 4.03508 0
M  V30 9548 S 873.658 2.94741 4.47089 0
M  V30 9549 C 874.814 2.41341 5.77499 0
M  V30 9550 H 875.047 1.81773 2.35257 0
M  V30 9551 H 872.58 1.03521 1.14555 0
M  V30 9552 H 874.538 0.0404201 4.1048 0
M  V30 9553 H 873.199 -0.544255 3.09349 0
M  V30 9554 H 872.392 0.94614 4.9504 0
M  V30 9555 H 871.994 1.63971 3.36139 0
M  V30 9556 H 874.286 1.81263 6.52802 0
M  V30 9557 H 875.229 3.31278 6.25828 0
M  V30 9558 H 875.637 1.83374 5.33886 0
M  V30 9559 N 875.035 -1.20752 1.01276 0
M  V30 9560 C 875.967 -2.22798 0.537917 0
M  V30 9561 C 876.98 -1.5836 -0.377638 0
M  V30 9562 O 878.169 -1.77624 -0.176599 0
M  V30 9563 C 875.269 -3.38068 -0.237364 0
M  V30 9564 C 874.442 -4.32095 0.679161 0
M  V30 9565 C 873.501 -5.26178 -0.0478676 0
M  V30 9566 O 872.527 -5.66305 0.573366 0
M  V30 9567 N 873.729 -5.65201 -1.32396 0
M  V30 9568 H 876.494 -2.64166 1.4155 0
M  V30 9569 H 874.055 -1.35254 0.889826 0
M  V30 9570 H 876.047 -3.98009 -0.73288 0
M  V30 9571 H 874.617 -2.95622 -1.0162 0
M  V30 9572 H 873.837 -3.70179 1.35505 0
M  V30 9573 H 875.125 -4.91842 1.30263 0
M  V30 9574 H 874.523 -5.34606 -1.84968 0
M  V30 9575 H 873.08 -6.27468 -1.76428 0
M  V30 9576 N 876.513 -0.788492 -1.36457 0
M  V30 9577 C 877.423 -0.187385 -2.3385 0
M  V30 9578 C 878.439 0.659984 -1.60998 0
M  V30 9579 O 879.615 0.575986 -1.92988 0
M  V30 9580 C 876.68 0.668525 -3.40194 0
M  V30 9581 C 875.741 -0.197234 -4.28847 0
M  V30 9582 C 874.974 0.61792 -5.30111 0
M  V30 9583 O 875.197 1.85396 -5.3943 0
M  V30 9584 O 874.131 0.0183016 -6.01897 0
M  V30 9585 H 877.957 -0.992617 -2.87021 0
M  V30 9586 H 875.542 -0.549934 -1.3891 0
M  V30 9587 H 877.424 1.15663 -4.05216 0
M  V30 9588 H 876.099 1.45166 -2.89324 0
M  V30 9589 H 875.006 -0.73207 -3.66867 0
M  V30 9590 H 876.339 -0.943863 -4.83065 0
M  V30 9591 N 877.991 1.48044 -0.54043 0
M  V30 9592 C 879.407 1.58354 -0.199006 0
M  V30 9593 C 879.607 1.54118 1.29807 0
M  V30 9594 O 878.663 1.43573 2.07709 0
M  V30 9595 C 879.976 2.89563 -0.810797 0
M  V30 9596 C 881.524 3.03113 -0.780486 0
M  V30 9597 C 881.999 4.36997 -1.37104 0
M  V30 9598 N 883.49 4.43591 -1.33347 0
M  V30 9599 C 884.225 5.45714 -1.76021 0
M  V30 9600 N 883.721 6.54738 -2.26473 0
M  V30 9601 N 885.514 5.36659 -1.67194 0
M  V30 9602 H 877.665 1.49041 -1.51329 0
M  V30 9603 H 879.928 0.708309 -0.630081 0
M  V30 9604 H 879.634 2.9835 -1.86227 0
M  V30 9605 H 879.508 3.76053 -0.293977 0
M  V30 9606 H 881.895 2.93932 0.262246 0
M  V30 9607 H 881.976 2.18207 -1.33489 0
M  V30 9608 H 881.62 4.46932 -2.41276 0
M  V30 9609 H 881.55 5.20607 -0.792229 0
M  V30 9610 H 884.041 3.65391 -0.964259 0
M  V30 9611 H 884.354 7.28814 -2.57002 0
M  V30 9612 H 882.699 6.55673 -2.30473 0
M  V30 9613 H 885.89 4.50382 -1.27569 0
M  V30 9614 H 886.063 6.16113 -2.00771 0
M  V30 9615 N 879.47 0.276058 1.55163 0
M  V30 9616 C 880.719 -0.341098 1.98795 0
M  V30 9617 C 881.032 -1.56905 1.16791 0
M  V30 9618 O 882.238 -2.25922 1.50571 0
M  V30 9619 C 880.694 -0.658231 3.5383 0
M  V30 9620 C 880.302 0.549972 4.44611 0
M  V30 9621 C 882.046 -1.23796 4.06048 0
M  V30 9622 C 879.953 0.207373 5.91036 0
M  V30 9623 H 878.883 -0.131224 0.742493 0
M  V30 9624 H 881.534 0.380858 1.79504 0
M  V30 9625 H 879.916 -1.43911 3.68925 0
M  V30 9626 H 881.09 1.32681 4.41285 0
M  V30 9627 H 879.405 1.04661 4.03032 0
M  V30 9628 H 882.002 -1.50811 5.12991 0
M  V30 9629 H 882.345 -2.17214 3.55139 0
M  V30 9630 H 882.878 -0.519345 3.94395 0
M  V30 9631 H 879.617 1.10946 6.46043 0
M  V30 9632 H 879.137 -0.532687 5.9743 0
M  V30 9633 H 880.816 -0.200072 6.46691 0
M  V30 9634 N 880.948 -1.576 0.00335426 0
M  V30 9635 C 882.225 -1.81945 -0.718015 0
M  V30 9636 C 882.605 -0.881788 -1.91801 0
M  V30 9637 O 881.953 0.0687118 -2.28397 0
M  V30 9638 C 882.163 -3.30521 -1.12058 0
M  V30 9639 C 883.511 -3.96345 -1.52303 0
M  V30 9640 O 884.535 -3.34864 -1.21428 0
M  V30 9641 O 883.394 -5.04655 -2.09728 0
M  V30 9642 H 880.488 -0.749328 -0.34991 0
M  V30 9643 H 883.034 -1.69675 0.0290654 0
M  V30 9644 H 881.806 -3.90399 -0.265378 0
M  V30 9645 H 881.429 -3.47802 -1.92665 0
M  V30 9646 N 882.426 0.269451 -1.5528 0
M  V30 9647 C 883.374 1.35303 -1.89198 0
M  V30 9648 C 884.368 1.50956 -0.768671 0
M  V30 9649 O 885.574 1.52699 -0.953054 0
M  V30 9650 H 881.949 0.452591 -0.600554 0
M  V30 9651 H 883.92 1.03949 -2.79709 0
M  V30 9652 C 882.669 2.70585 -2.18356 0
M  V30 9653 H 881.992 2.59332 -3.04281 0
M  V30 9654 H 883.432 3.45335 -2.46007 0
M  V30 9655 C 881.891 3.21954 -0.992327 0
M  V30 9656 O 882.421 4.01048 -0.228769 0
M  V30 9657 N 880.627 2.79682 -0.789062 0
M  V30 9658 H 880.174 2.15475 -1.41167 0
M  V30 9659 H 880.132 3.14399 0.00634776 0
M  V30 9660 N 883.904 1.48273 0.534124 0
M  V30 9661 C 885.134 1.59503 1.31311 0
M  V30 9662 C 885.542 0.25284 1.87503 0
M  V30 9663 O 884.885 -0.767399 1.66903 0
M  V30 9664 C 884.947 2.57899 2.50456 0
M  V30 9665 C 884.611 4.03063 2.15382 0
M  V30 9666 C 885.608 4.90869 1.713 0
M  V30 9667 C 883.293 4.4857 2.26032 0
M  V30 9668 C 885.287 6.22209 1.38328 0
M  V30 9669 C 882.974 5.79932 1.92672 0
M  V30 9670 C 883.972 6.66574 1.4889 0
M  V30 9671 O 883.66 7.95492 1.15966 0
M  V30 9672 H 883.392 0.540695 0.405739 0
M  V30 9673 H 885.946 1.94794 0.651497 0
M  V30 9674 H 884.176 2.1772 3.19585 0
M  V30 9675 H 885.865 2.59008 3.12522 0
M  V30 9676 H 886.631 4.56951 1.62545 0
M  V30 9677 H 882.51 3.81321 2.59066 0
M  V30 9678 H 886.054 6.89792 1.04082 0
M  V30 9679 H 881.951 6.13386 2.01066 0
M  V30 9680 H 882.719 8.08207 1.29399 0
M  V30 9681 N 885.382 -0.782676 1.36792 0
M  V30 9682 C 886.292 -1.92679 1.33835 0
M  V30 9683 C 887.308 -1.72344 0.23952 0
M  V30 9684 O 888.484 -1.95766 0.473045 0
M  V30 9685 C 885.549 -3.27644 1.1336 0
M  V30 9686 C 884.61 -3.6071 2.32781 0
M  V30 9687 C 883.843 -4.89234 2.13273 0
M  V30 9688 O 884.066 -5.59468 1.11136 0
M  V30 9689 O 883 -5.21112 3.01208 0
M  V30 9690 H 886.826 -1.98124 2.30175 0
M  V30 9691 H 884.411 -0.923887 1.17408 0
M  V30 9692 H 886.293 -4.08394 1.03886 0
M  V30 9693 H 884.968 -3.23076 0.200868 0
M  V30 9694 H 883.875 -2.80238 2.47825 0
M  V30 9695 H 885.208 -3.70008 3.24584 0
M  V30 9696 N 886.86 -1.21182 -1.00761 0
M  V30 9697 C 887.808 -0.965728 -2.11604 0
M  V30 9698 C 888.802 0.0861028 -1.69181 0
M  V30 9699 O 890.008 -0.0650558 -1.79882 0
M  V30 9700 H 886.383 -0.295023 -0.691712 0
M  V30 9701 H 888.354 -1.90667 -2.2954 0
M  V30 9702 C 887.103 -0.544164 -3.43415 0
M  V30 9703 H 886.426 -1.34515 -3.76491 0
M  V30 9704 H 887.866 -0.411268 -4.22001 0
M  V30 9705 C 886.325 0.744583 -3.28569 0
M  V30 9706 O 886.855 1.80078 -3.59075 0
M  V30 9707 N 885.061 0.710083 -2.81791 0
M  V30 9708 H 884.608 -0.14971 -2.57165 0
M  V30 9709 H 884.566 1.57268 -2.72239 0
M  V30 9710 N 888.338 1.20213 -1.01915 0
M  V30 9711 C 889.268 2.25336 -0.612023 0
M  V30 9712 C 890.249 1.65933 0.374186 0
M  V30 9713 O 891.434 1.92464 0.259053 0
M  V30 9714 C 888.564 3.47267 0.047904 0
M  V30 9715 C 887.518 4.1928 -0.859557 0
M  V30 9716 C 886.844 5.3466 -0.0652655 0
M  V30 9717 C 888.144 4.75143 -2.1688 0
M  V30 9718 H 889.838 2.59645 -1.49079 0
M  V30 9719 H 887.384 1.24808 -0.718263 0
M  V30 9720 H 889.337 4.19991 0.344294 0
M  V30 9721 H 888.061 3.12129 0.961404 0
M  V30 9722 H 886.72 3.48425 -1.13999 0
M  V30 9723 H 886.368 4.95767 0.849964 0
M  V30 9724 H 886.068 5.83772 -0.669618 0
M  V30 9725 H 887.592 6.10187 0.224612 0
M  V30 9726 H 889.006 5.39672 -1.9346 0
M  V30 9727 H 887.403 5.34702 -2.72422 0
M  V30 9728 H 888.473 3.93744 -2.83008 0
M  V30 9729 N 889.816 0.795718 1.36037 0
M  V30 9730 C 891.044 0.383153 2.03321 0
M  V30 9731 C 891.459 -1.00246 1.59988 0
M  V30 9732 O 890.816 -1.64406 0.792265 0
M  V30 9733 C 890.867 0.444467 3.58757 0
M  V30 9734 O 890.588 1.77544 4.00512 0
M  V30 9735 C 892.089 0.0233291 4.43294 0
M  V30 9736 H 889.309 0.157061 0.652359 0
M  V30 9737 H 891.853 1.07632 1.73884 0
M  V30 9738 H 890.008 -0.200341 3.86882 0
M  V30 9739 H 890.422 1.73065 4.95125 0
M  V30 9740 H 891.896 0.117361 5.51875 0
M  V30 9741 H 892.373 -1.03007 4.2695 0
M  V30 9742 H 892.979 0.64087 4.20444 0
M  V30 9743 N 891.294 -1.47756 0.548274 0
M  V30 9744 C 892.54 -2.02789 0.0209265 0
M  V30 9745 C 892.873 -1.42268 -1.32187 0
M  V30 9746 O 892.148 -0.575001 -1.85806 0
M  V30 9747 C 892.431 -3.60007 -0.0816674 0
M  V30 9748 C 892.284 -4.30977 1.28759 0
M  V30 9749 C 893.603 -4.32777 -0.799515 0
M  V30 9750 H 890.722 -0.736944 0.00907884 0
M  V30 9751 H 893.364 -1.76282 0.708839 0
M  V30 9752 H 891.514 -3.82722 -0.667537 0
M  V30 9753 H 893.186 -4.19629 1.91597 0
M  V30 9754 H 891.429 -3.9168 1.86466 0
M  V30 9755 H 892.1 -5.39488 1.16861 0
M  V30 9756 H 894.576 -4.15001 -0.30216 0
M  V30 9757 H 893.452 -5.42431 -0.840239 0
M  V30 9758 H 893.713 -4.01358 -1.85375 0
M  V30 9759 N 892.772 -0.284283 -1.55015 0
M  V30 9760 C 894.183 0.211681 -1.85496 0
M  V30 9761 C 894.534 1.54735 -1.2063 0
M  V30 9762 O 893.659 2.10594 -0.497918 0
M  V30 9763 C 894.254 0.390864 -3.36538 0
M  V30 9764 C 892.813 0.831055 -3.67111 0
M  V30 9765 C 891.96 -0.0703581 -2.77211 0
M  V30 9766 H 894.911 -0.505803 -1.50424 0
M  V30 9767 H 894.932 1.22803 -3.60138 0
M  V30 9768 H 894.444 -0.581409 -3.8372 0
M  V30 9769 H 892.545 1.81447 -3.25434 0
M  V30 9770 H 892.658 0.662026 -4.74504 0
M  V30 9771 H 891.022 0.447528 -2.50737 0
M  V30 9772 H 891.805 -1.03868 -3.2721 0
M  V30 9773 N 894.251 1.57596 -0.0117121 0
M  V30 9774 C 895.498 1.91071 0.670667 0
M  V30 9775 C 895.826 0.886457 1.73125 0
M  V30 9776 O 895.081 -0.107135 1.95407 0
M  V30 9777 C 895.38 3.31296 1.34082 0
M  V30 9778 C 895.046 4.49011 0.412305 0
M  V30 9779 C 893.708 4.80945 0.156691 0
M  V30 9780 C 896.06 5.20709 -0.226294 0
M  V30 9781 C 893.388 5.81943 -0.745619 0
M  V30 9782 C 895.74 6.22668 -1.11655 0
M  V30 9783 C 894.404 6.53053 -1.38123 0
M  V30 9784 H 893.674 0.69918 0.245415 0
M  V30 9785 H 896.321 1.91373 -0.0697511 0
M  V30 9786 H 894.626 3.27174 2.15557 0
M  V30 9787 H 896.323 3.54461 1.87506 0
M  V30 9788 H 892.913 4.24067 0.621705 0
M  V30 9789 H 897.097 4.96282 -0.0418456 0
M  V30 9790 H 892.353 6.03839 -0.958566 0
M  V30 9791 H 896.527 6.77351 -1.61767 0
M  V30 9792 H 894.154 7.31132 -2.08208 0
M  V30 9793 N 895.729 -0.261212 1.5542 0
M  V30 9794 C 896.975 -0.992699 1.76843 0
M  V30 9795 C 897.308 -1.8551 0.574428 0
M  V30 9796 O 896.583 -1.89739 -0.427713 0
M  V30 9797 C 896.866 -1.86532 3.08022 0
M  V30 9798 C 896.719 -1.03206 4.378 0
M  V30 9799 C 898.038 -2.85036 3.35324 0
M  V30 9800 H 895.157 -0.359473 0.643388 0
M  V30 9801 H 897.799 -0.264214 1.88154 0
M  V30 9802 H 895.949 -2.48644 2.9851 0
M  V30 9803 H 897.621 -0.430743 4.59285 0
M  V30 9804 H 895.864 -0.335911 4.32497 0
M  V30 9805 H 896.535 -1.6761 5.25938 0
M  V30 9806 H 899.011 -2.3306 3.44706 0
M  V30 9807 H 897.887 -3.43226 4.28354 0
M  V30 9808 H 898.148 -3.60768 2.55537 0
M  V30 9809 N 897.207 -1.48554 -0.526253 0
M  V30 9810 C 898.17 -1.62868 -1.61266 0
M  V30 9811 C 899.17 -0.501762 -1.52771 0
M  V30 9812 O 900.36 -0.76764 -1.56374 0
M  V30 9813 C 897.492 -1.60238 -3.00893 0
M  V30 9814 H 898.685 -2.59742 -1.49913 0
M  V30 9815 H 896.238 -1.37207 -0.748595 0
M  V30 9816 H 896.973 -0.648545 -3.17749 0
M  V30 9817 H 896.758 -2.42054 -3.08468 0
M  V30 9818 H 898.248 -1.73455 -3.79872 0
M  V30 9819 N 898.685 0.775411 -1.37205 0
M  V30 9820 C 899.962 1.5229 -1.22748 0
M  V30 9821 C 900.342 2.10327 0.180487 0
M  V30 9822 O 899.69 1.95206 1.18772 0
M  V30 9823 C 899.9 2.60671 -2.3206 0
M  V30 9824 C 901.248 3.28173 -2.6942 0
M  V30 9825 O 902.272 2.70963 -2.31208 0
M  V30 9826 O 901.131 4.31598 -3.3524 0
M  V30 9827 H 898.225 0.674326 -0.478762 0
M  V30 9828 H 900.771 0.812691 -1.48975 0
M  V30 9829 H 899.543 2.1588 -3.26361 0
M  V30 9830 H 899.166 3.39296 -2.07277 0
M  V30 9831 N 900.163 1.21714 1.00117 0
M  V30 9832 C 901.44 0.945391 1.71236 0
M  V30 9833 C 901.82 -0.541772 2.0403 0
M  V30 9834 O 901.168 -1.50763 1.71705 0
M  V30 9835 C 901.378 1.83444 2.96899 0
M  V30 9836 C 902.726 2.08558 3.69849 0
M  V30 9837 O 903.75 1.80824 3.06889 0
M  V30 9838 O 902.609 2.55485 4.83104 0
M  V30 9839 H 899.703 0.354834 0.747009 0
M  V30 9840 H 902.249 1.32661 1.05825 0
M  V30 9841 H 901.021 2.84075 2.69105 0
M  V30 9842 H 900.644 1.45428 3.70049 0
M  V30 9843 N 901.641 -1.19671 1.02551 0
M  V30 9844 C 902.871 -1.92952 0.738441 0
M  V30 9845 C 903.279 -1.75528 -0.706155 0
M  V30 9846 O 902.622 -1.0723 -1.49156 0
M  V30 9847 C 902.684 -3.45149 1.00562 0
M  V30 9848 C 902.348 -3.86341 2.44109 0
M  V30 9849 C 903.345 -3.91374 3.42231 0
M  V30 9850 C 901.03 -4.18076 2.7842 0
M  V30 9851 C 903.024 -4.27568 4.7272 0
M  V30 9852 C 900.711 -4.53943 4.0912 0
M  V30 9853 C 901.709 -4.58663 5.06081 0
M  V30 9854 O 901.397 -4.93701 6.3444 0
M  V30 9855 H 901.129 -0.619836 0.269776 0
M  V30 9856 H 903.683 -1.52852 1.37206 0
M  V30 9857 H 901.913 -3.85416 0.314849 0
M  V30 9858 H 903.602 -3.99664 0.708742 0
M  V30 9859 H 904.368 -3.67011 3.17061 0
M  V30 9860 H 900.247 -4.13589 2.03631 0
M  V30 9861 H 903.791 -4.31166 5.48399 0
M  V30 9862 H 899.688 -4.77764 4.34064 0
M  V30 9863 H 900.456 -5.11662 6.38862 0
M  V30 9864 N 903.119 -0.802921 -1.35613 0
M  V30 9865 C 904.049 -0.225131 -2.32412 0
M  V30 9866 C 905.03 0.647383 -1.57299 0
M  V30 9867 O 906.215 0.578414 -1.85386 0
M  V30 9868 C 903.345 0.630085 -3.41537 0
M  V30 9869 C 902.299 -0.143635 -4.27759 0
M  V30 9870 C 901.625 0.833046 -5.28171 0
M  V30 9871 C 902.925 -1.34054 -5.04804 0
M  V30 9872 H 904.619 -1.03385 -2.80984 0
M  V30 9873 H 902.165 -0.498593 -1.35093 0
M  V30 9874 H 904.118 1.04433 -4.08254 0
M  V30 9875 H 902.842 1.47165 -2.91565 0
M  V30 9876 H 901.501 -0.539015 -3.62616 0
M  V30 9877 H 901.149 1.67001 -4.74468 0
M  V30 9878 H 900.849 0.319697 -5.8673 0
M  V30 9879 H 902.373 1.24558 -5.97761 0
M  V30 9880 H 903.787 -1.00136 -5.64487 0
M  V30 9881 H 902.184 -1.78812 -5.72841 0
M  V30 9882 H 903.254 -2.12906 -4.35659 0
M  V30 9883 N 904.597 1.47463 -0.556102 0
M  V30 9884 C 905.843 2.02775 -0.0316806 0
M  V30 9885 C 906.176 1.42967 1.3143 0
M  V30 9886 O 905.451 0.584847 1.85499 0
M  V30 9887 C 905.734 3.60046 0.0625742 0
M  V30 9888 C 905.587 4.30288 -1.31043 0
M  V30 9889 C 906.906 4.33195 0.776553 0
M  V30 9890 H 904.025 0.736886 -0.0129869 0
M  V30 9891 H 906.667 1.75904 -0.718177 0
M  V30 9892 H 904.817 3.83071 0.647231 0
M  V30 9893 H 906.489 4.18607 -1.9382 0
M  V30 9894 H 904.732 3.90685 -1.8854 0
M  V30 9895 H 905.403 5.38861 -1.1972 0
M  V30 9896 H 907.879 4.15156 0.280147 0
M  V30 9897 H 906.755 5.42869 0.81146 0
M  V30 9898 H 907.016 4.02336 1.83244 0
M  V30 9899 N 906.075 0.2925 1.54862 0
M  V30 9900 C 907.491 -0.0611461 1.59483 0
M  V30 9901 C 907.691 -1.53141 1.30958 0
M  V30 9902 O 906.747 -2.28291 1.07887 0
M  V30 9903 C 908.06 0.329143 2.98893 0
M  V30 9904 C 909.608 0.2772 3.1177 0
M  V30 9905 C 910.083 0.642185 4.53475 0
M  V30 9906 N 911.574 0.594396 4.5937 0
M  V30 9907 C 912.309 0.849385 5.67074 0
M  V30 9908 N 911.805 1.1699 6.82851 0
M  V30 9909 N 913.598 0.777016 5.56704 0
M  V30 9910 H 905.749 1.25079 1.71665 0
M  V30 9911 H 908.012 0.506516 0.80134 0
M  V30 9912 H 907.718 1.35233 3.24661 0
M  V30 9913 H 907.592 -0.321442 3.75828 0
M  V30 9914 H 909.979 -0.736725 2.85756 0
M  V30 9915 H 910.06 0.962289 2.3701 0
M  V30 9916 H 909.704 1.65388 4.80218 0
M  V30 9917 H 909.634 -0.0648831 5.2656 0
M  V30 9918 H 912.125 0.357256 3.76208 0
M  V30 9919 H 912.438 1.35067 7.60905 0
M  V30 9920 H 910.783 1.20785 6.84424 0
M  V30 9921 H 913.974 0.526333 4.65132 0
M  V30 9922 H 914.147 0.979113 6.4056 0
M  V30 9923 N 907.553 -1.57587 0.0200696 0
M  V30 9924 C 908.503 -2.0616 -0.973751 0
M  V30 9925 C 909.487 -0.960282 -1.29102 0
M  V30 9926 O 910.679 -1.22391 -1.27865 0
M  V30 9927 C 907.808 -2.58487 -2.25919 0
M  V30 9928 C 906.894 -3.75533 -1.97068 0
M  V30 9929 N 907.285 -4.86482 -1.38451 0
M  V30 9930 C 905.583 -3.83847 -2.27107 0
M  V30 9931 C 906.284 -5.67773 -1.26527 0
M  V30 9932 N 905.26 -5.14398 -1.75772 0
M  V30 9933 H 909.062 -2.89346 -0.515365 0
M  V30 9934 H 906.576 -1.61341 -0.185163 0
M  V30 9935 H 908.573 -2.91572 -2.97979 0
M  V30 9936 H 907.233 -1.76728 -2.72392 0
M  V30 9937 H 908.244 -5.06922 -1.06069 0
M  V30 9938 H 904.921 -3.12978 -2.76316 0
M  V30 9939 H 906.311 -6.66966 -0.812785 0
M  V30 9940 N 909.032 0.252966 -1.55557 0
M  V30 9941 C 909.995 1.29645 -1.8901 0
M  V30 9942 C 910.995 1.41378 -0.766096 0
M  V30 9943 O 912.185 1.40183 -1.03414 0
M  V30 9944 C 909.317 2.67504 -2.11316 0
M  V30 9945 H 910.51 1.01202 -2.82309 0
M  V30 9946 H 908.063 0.491977 -1.48355 0
M  V30 9947 H 908.798 3.01095 -1.20466 0
M  V30 9948 H 908.583 2.6037 -2.93172 0
M  V30 9949 H 910.073 3.42861 -2.38403 0
M  V30 9950 N 910.51 1.48831 0.518367 0
M  V30 9951 C 911.74 1.60886 1.29612 0
M  V30 9952 C 912.148 0.272713 1.87224 0
M  V30 9953 O 911.491 -0.749653 1.67708 0
M  V30 9954 C 911.553 2.60541 2.47707 0
M  V30 9955 C 911.217 4.05324 2.11095 0
M  V30 9956 C 912.214 4.92658 1.66084 0
M  V30 9957 C 909.899 4.50942 2.21262 0
M  V30 9958 C 911.893 6.23641 1.3172 0
M  V30 9959 C 909.58 5.81943 1.8651 0
M  V30 9960 C 910.578 6.68116 1.41812 0
M  V30 9961 O 910.266 7.96677 1.07522 0
M  V30 9962 H 909.998 0.544968 0.399982 0
M  V30 9963 H 912.552 1.95474 0.630799 0
M  V30 9964 H 910.782 2.21098 3.17258 0
M  V30 9965 H 912.471 2.62308 3.09757 0
M  V30 9966 H 913.237 4.58649 1.5769 0
M  V30 9967 H 909.116 3.84048 2.55007 0
M  V30 9968 H 912.66 6.90857 0.967598 0
M  V30 9969 H 908.557 6.15484 1.94549 0
M  V30 9970 H 909.325 8.09534 1.2082 0
M  V30 9971 N 911.988 -0.768124 1.37614 0
M  V30 9972 C 912.935 -1.88151 1.33671 0
M  V30 9973 C 913.905 -1.64871 0.201645 0
M  V30 9974 O 915.09 -1.86739 0.391582 0
M  V30 9975 C 912.23 -3.25264 1.15314 0
M  V30 9976 C 911.343 -3.60473 2.38082 0
M  V30 9977 C 910.478 -4.86814 2.12569 0
M  V30 9978 C 909.517 -5.14765 3.31184 0
M  V30 9979 N 908.654 -6.32295 3.052 0
M  V30 9980 H 913.494 -1.90857 2.28862 0
M  V30 9981 H 911.031 -0.933048 1.13722 0
M  V30 9982 H 912.989 -4.04364 1.02691 0
M  V30 9983 H 911.619 -3.21924 0.237689 0
M  V30 9984 H 910.671 -2.7633 2.61431 0
M  V30 9985 H 911.983 -3.77065 3.26532 0
M  V30 9986 H 911.137 -5.73826 1.96999 0
M  V30 9987 H 909.876 -4.72333 1.21462 0
M  V30 9988 H 908.881 -4.26227 3.4729 0
M  V30 9989 H 910.106 -5.31153 4.23147 0
M  V30 9990 H 908.052 -6.19166 2.16726 0
M  V30 9991 H 907.969 -6.4932 3.87195 0
M  V30 9992 H 909.237 -7.22234 2.93254 0
M  V30 9993 N 913.466 -1.22244 -0.994698 0
M  V30 9994 C 914.414 -0.988118 -2.10568 0
M  V30 9995 C 915.408 0.0681541 -1.69263 0
M  V30 9996 O 916.614 -0.0841311 -1.79803 0
M  V30 9997 H 912.989 -0.302343 -0.688544 0
M  V30 9998 H 914.96 -1.93091 -2.27505 0
M  V30 9999 C 913.709 -0.580557 -3.42819 0
M  V30 10000 H 913.032 -1.385 -3.75044 0
M  V30 10001 H 914.472 -0.456004 -4.21541 0
M  V30 10002 C 912.931 0.709692 -3.2934 0
M  V30 10003 O 913.461 1.76259 -3.60965 0
M  V30 10004 N 911.667 0.680155 -2.82528 0
M  V30 10005 H 911.214 -0.176977 -2.56991 0
M  V30 10006 H 911.172 1.54372 -2.73892 0
M  V30 10007 N 914.944 1.19125 -1.03184 0
M  V30 10008 C 916.355 1.70564 -0.759264 0
M  V30 10009 C 916.706 1.8248 0.720794 0
M  V30 10010 O 915.831 1.49804 1.56166 0
M  V30 10011 C 916.426 3.09793 -1.37163 0
M  V30 10012 C 914.985 3.5848 -1.14757 0
M  V30 10013 C 914.132 2.35265 -1.46784 0
M  V30 10014 H 917.083 1.03925 -1.19939 0
M  V30 10015 H 917.104 3.72624 -0.77015 0
M  V30 10016 H 916.616 3.01088 -2.44882 0
M  V30 10017 H 914.717 3.72494 -0.0887182 0
M  V30 10018 H 914.83 4.42426 -1.83836 0
M  V30 10019 H 913.194 2.38747 -0.887254 0
M  V30 10020 H 913.977 2.29188 -2.55593 0
M  V30 10021 N 916.422 0.810101 1.35185 0
M  V30 10022 C 917.37 0.211071 2.3164 0
M  V30 10023 C 918.364 -0.641109 1.568 0
M  V30 10024 O 919.57 -0.533881 1.719 0
M  V30 10025 H 915.945 0.0494978 0.750369 0
M  V30 10026 H 917.916 1.03964 2.79703 0
M  V30 10027 C 916.665 -0.622933 3.42074 0
M  V30 10028 H 915.988 0.0234648 3.99793 0
M  V30 10029 H 917.428 -1.0084 4.11834 0
M  V30 10030 C 915.887 -1.78994 2.85417 0
M  V30 10031 O 916.417 -2.88758 2.79252 0
M  V30 10032 N 914.623 -1.60259 2.42416 0
M  V30 10033 H 914.17 -0.70974 2.4763 0
M  V30 10034 H 914.128 -2.38498 2.04857 0
M  V30 10035 N 917.9 -1.47166 0.563914 0
M  V30 10036 C 918.81 -2.33885 -0.182977 0
M  V30 10037 C 919.826 -1.48605 -0.905132 0
M  V30 10038 O 921.002 -1.81518 -0.872527 0
M  V30 10039 C 918.067 -3.25433 -1.19558 0
M  V30 10040 C 917.128 -4.26607 -0.480129 0
M  V30 10041 C 916.361 -5.1378 -1.44449 0
M  V30 10042 O 916.584 -5.03531 -2.67979 0
M  V30 10043 O 915.518 -5.94109 -0.965321 0
M  V30 10044 H 919.344 -2.99065 0.528544 0
M  V30 10045 H 916.929 -1.45834 0.324468 0
M  V30 10046 H 918.811 -3.81964 -1.77993 0
M  V30 10047 H 917.486 -2.62873 -1.8889 0
M  V30 10048 H 916.393 -3.73817 0.145583 0
M  V30 10049 H 917.726 -4.919 0.171868 0
M  V30 10050 N 919.378 -0.300708 -1.54705 0
M  V30 10051 C 920.627 0.309428 -1.99312 0
M  V30 10052 C 920.94 1.55027 -1.19272 0
M  V30 10053 O 922.146 2.23498 -1.54146 0
M  V30 10054 C 920.602 0.601856 -3.54832 0
M  V30 10055 C 920.21 -0.620636 -4.4368 0
M  V30 10056 C 921.954 1.1732 -4.07966 0
M  V30 10057 C 919.861 -0.301376 -5.90632 0
M  V30 10058 H 918.791 0.119395 -0.744487 0
M  V30 10059 H 921.442 -0.409368 -1.78875 0
M  V30 10060 H 919.824 1.38024 -3.71168 0
M  V30 10061 H 920.998 -1.39685 -4.39118 0
M  V30 10062 H 919.313 -1.1106 -4.01316 0
M  V30 10063 H 921.91 1.42631 -5.15326 0
M  V30 10064 H 922.253 2.11537 -3.5855 0
M  V30 10065 H 922.786 0.456534 -3.95172 0
M  V30 10066 H 919.525 -1.21209 -6.44196 0
M  V30 10067 H 919.045 0.437574 -5.98202 0
M  V30 10068 H 920.724 0.097164 -6.46927 0
M  V30 10069 N 920.856 1.57574 -0.0284266 0
M  V30 10070 C 922.086 1.95787 0.659617 0
M  V30 10071 C 922.494 0.903475 1.66235 0
M  V30 10072 O 921.837 -0.12329 1.83286 0
M  V30 10073 C 921.899 3.30139 1.42298 0
M  V30 10074 C 921.563 4.53322 0.578658 0
M  V30 10075 C 922.56 5.19696 -0.145751 0
M  V30 10076 C 920.245 4.9964 0.516264 0
M  V30 10077 C 922.239 6.30708 -0.921235 0
M  V30 10078 C 919.926 6.10534 -0.262925 0
M  V30 10079 C 920.924 6.75927 -0.980382 0
M  V30 10080 O 920.612 7.84692 -1.7468 0
M  V30 10081 H 920.344 0.649681 0.186792 0
M  V30 10082 H 922.898 2.05227 -0.0842687 0
M  V30 10083 H 921.128 3.17188 2.21199 0
M  V30 10084 H 922.817 3.53259 1.99906 0
M  V30 10085 H 923.583 4.84882 -0.106876 0
M  V30 10086 H 919.462 4.48547 1.06427 0
M  V30 10087 H 923.006 6.81682 -1.48176 0
M  V30 10088 H 918.903 6.44786 -0.303519 0
M  V30 10089 H 919.671 8.01355 -1.6665 0
M  V30 10090 N 922.334 -0.244713 1.55689 0
M  V30 10091 C 923.559 -0.994157 1.8202 0
M  V30 10092 C 923.984 -1.78079 0.60577 0
M  V30 10093 O 923.342 -1.75748 -0.445221 0
M  V30 10094 C 923.39 -1.90599 3.06111 0
M  V30 10095 O 922.494 -2.99804 2.8318 0
M  V30 10096 H 921.835 -0.282767 0.600782 0
M  V30 10097 H 924.365 -0.26504 2.02876 0
M  V30 10098 H 924.375 -2.32023 3.35603 0
M  V30 10099 H 923.05 -1.32763 3.9414 0
M  V30 10100 H 921.627 -2.62493 2.64862 0
M  V30 10101 N 923.813 -1.49104 -0.510467 0
M  V30 10102 C 924.723 -1.67792 -1.6396 0
M  V30 10103 C 925.739 -0.560454 -1.64727 0
M  V30 10104 O 926.915 -0.833985 -1.83321 0
M  V30 10105 C 923.98 -1.73154 -3.00364 0
M  V30 10106 C 923.041 -2.9667 -3.10299 0
M  V30 10107 C 922.274 -3.01767 -4.40196 0
M  V30 10108 O 922.497 -2.1472 -5.28443 0
M  V30 10109 O 921.431 -3.94137 -4.54906 0
M  V30 10110 H 925.257 -2.63428 -1.51126 0
M  V30 10111 H 922.842 -1.32734 -0.685719 0
M  V30 10112 H 924.724 -1.79089 -3.81451 0
M  V30 10113 H 923.399 -0.806952 -3.1348 0
M  V30 10114 H 922.306 -2.96257 -2.28435 0
M  V30 10115 H 923.639 -3.88578 -3.02106 0
M  V30 10116 N 925.291 0.760815 -1.38019 0
M  V30 10117 C 926.54 1.51506 -1.3315 0
M  V30 10118 C 926.853 1.95444 0.0782124 0
M  V30 10119 O 928.059 2.70352 0.249418 0
M  V30 10120 C 926.515 2.73636 -2.33776 0
M  V30 10121 C 926.123 2.36753 -3.80332 0
M  V30 10122 C 927.867 3.51548 -2.37937 0
M  V30 10123 C 925.774 3.55451 -4.72661 0
M  V30 10124 H 924.704 0.568844 -0.494907 0
M  V30 10125 H 927.355 0.832343 -1.63537 0
M  V30 10126 H 925.737 3.43852 -1.96422 0
M  V30 10127 H 926.911 1.7425 -4.26584 0
M  V30 10128 H 925.226 1.71991 -3.7922 0
M  V30 10129 H 927.823 4.39791 -3.04119 0
M  V30 10130 H 928.166 3.9219 -1.39617 0
M  V30 10131 H 928.699 2.88339 -2.74054 0
M  V30 10132 H 925.438 3.19882 -5.7215 0
M  V30 10133 H 924.958 4.17022 -4.31107 0
M  V30 10134 H 926.637 4.22125 -4.90326 0
M  V30 10135 N 926.769 1.22769 0.988202 0
M  V30 10136 C 927.994 1.08239 1.76915 0
M  V30 10137 C 928.419 -0.362519 1.84574 0
M  V30 10138 O 927.777 -1.26202 1.30165 0
M  V30 10139 C 927.825 1.70363 3.17819 0
M  V30 10140 O 926.929 0.960484 4.01059 0
M  V30 10141 H 926.27 0.379872 0.544604 0
M  V30 10142 H 928.8 1.62663 1.24104 0
M  V30 10143 H 928.81 1.7528 3.6843 0
M  V30 10144 H 927.485 2.75505 3.1156 0
M  V30 10145 H 926.062 0.987667 3.59582 0
M  V30 10146 N 928.247 -1.18576 1.03814 0
M  V30 10147 C 929.157 -2.25778 0.637311 0
M  V30 10148 C 930.173 -1.7074 -0.335248 0
M  V30 10149 O 931.349 -2.00494 -0.19081 0
M  V30 10150 C 928.414 -3.467 0.00386953 0
M  V30 10151 C 927.475 -4.16881 1.02511 0
M  V30 10152 C 926.708 -5.32031 0.421802 0
M  V30 10153 O 926.931 -5.65142 -0.772699 0
M  V30 10154 O 925.865 -5.90826 1.14925 0
M  V30 10155 H 929.691 -2.62323 1.53037 0
M  V30 10156 H 927.276 -1.25609 0.80887 0
M  V30 10157 H 929.158 -4.19953 -0.348873 0
M  V30 10158 H 927.833 -3.11983 -0.863047 0
M  V30 10159 H 926.74 -3.45707 1.4296 0
M  V30 10160 H 928.073 -4.55592 1.86271 0
M  V30 10161 N 929.725 -0.817259 -1.34754 0
M  V30 10162 C 930.971 -0.403244 -1.98751 0
M  V30 10163 C 931.304 1.02963 -1.64658 0
M  V30 10164 O 930.579 1.71617 -0.915314 0
M  V30 10165 C 930.862 -0.599188 -3.5508 0
M  V30 10166 C 930.715 -2.07777 -3.98934 0
M  V30 10167 C 932.034 -0.0315656 -4.40089 0
M  V30 10168 H 929.153 -0.147988 -0.721989 0
M  V30 10169 H 931.795 -1.02877 -1.59738 0
M  V30 10170 H 929.945 -0.0667116 -3.88443 0
M  V30 10171 H 931.617 -2.67345 -3.75931 0
M  V30 10172 H 929.86 -2.57031 -3.49453 0
M  V30 10173 H 930.531 -2.16571 -5.07741 0
M  V30 10174 H 933.007 -0.48644 -4.13247 0
M  V30 10175 H 931.883 -0.198507 -5.48541 0
M  V30 10176 H 932.144 1.06302 -4.2913 0
M  V30 10177 N 931.203 1.46865 -0.571711 0
M  V30 10178 C 932.166 2.28658 0.157499 0
M  V30 10179 C 933.166 1.37773 0.829172 0
M  V30 10180 O 934.356 1.6026 0.682811 0
M  V30 10181 C 931.488 3.17859 1.23202 0
M  V30 10182 H 932.681 2.94603 -0.561171 0
M  V30 10183 H 930.234 1.52793 -0.329229 0
M  V30 10184 H 930.969 2.56637 1.98262 0
M  V30 10185 H 930.754 3.84762 0.755031 0
M  V30 10186 H 932.244 3.7945 1.74378 0
M  V30 10187 N 932.681 0.308908 1.54543 0
M  V30 10188 C 933.628 -0.563659 2.23811 0
M  V30 10189 C 934.598 -1.12332 1.22355 0
M  V30 10190 O 935.783 -1.16638 1.50997 0
M  V30 10191 C 932.923 -1.72585 2.98845 0
M  V30 10192 C 932.036 -1.19682 4.1509 0
M  V30 10193 C 931.171 -2.32351 4.77688 0
M  V30 10194 C 930.21 -1.76623 5.86064 0
M  V30 10195 N 929.347 -2.82896 6.42584 0
M  V30 10196 H 934.187 0.0336288 2.97981 0
M  V30 10197 H 931.724 0.0283666 1.47073 0
M  V30 10198 H 933.682 -2.40951 3.40586 0
M  V30 10199 H 932.312 -2.29464 2.27037 0
M  V30 10200 H 931.364 -0.405173 3.78236 0
M  V30 10201 H 932.676 -0.748923 4.93146 0
M  V30 10202 H 931.83 -3.0865 5.22322 0
M  V30 10203 H 930.569 -2.80472 3.98982 0
M  V30 10204 H 929.574 -0.988171 5.40847 0
M  V30 10205 H 930.799 -1.29398 6.66658 0
M  V30 10206 H 928.745 -3.30336 5.66758 0
M  V30 10207 H 928.662 -2.42626 7.16009 0
M  V30 10208 H 929.93 -3.59068 6.91875 0
M  V30 10209 N 934.159 -1.57557 0.0367827 0
M  V30 10210 C 935.089 -2.13712 -0.940719 0
M  V30 10211 C 936.07 -1.05515 -1.33419 0
M  V30 10212 O 937.255 -1.33385 -1.41146 0
M  V30 10213 C 934.385 -2.67043 -2.22048 0
M  V30 10214 C 933.339 -3.80096 -1.96752 0
M  V30 10215 C 932.665 -4.19886 -3.31059 0
M  V30 10216 C 933.965 -5.05848 -1.30058 0
M  V30 10217 H 935.659 -2.9564 -0.473033 0
M  V30 10218 H 933.205 -1.42214 -0.226089 0
M  V30 10219 H 935.158 -3.04964 -2.90818 0
M  V30 10220 H 933.882 -1.82287 -2.70996 0
M  V30 10221 H 932.541 -3.42625 -1.30398 0
M  V30 10222 H 932.189 -3.32101 -3.77781 0
M  V30 10223 H 931.889 -4.96073 -3.14937 0
M  V30 10224 H 933.413 -4.60395 -4.01084 0
M  V30 10225 H 934.827 -5.41306 -1.8884 0
M  V30 10226 H 933.224 -5.87084 -1.24309 0
M  V30 10227 H 934.294 -4.84122 -0.274591 0
M  V30 10228 N 935.637 0.236453 -1.55816 0
M  V30 10229 C 936.584 1.29289 -1.91188 0
M  V30 10230 C 937.554 1.47315 -0.767301 0
M  V30 10231 O 938.739 1.61128 -1.02189 0
M  V30 10232 C 935.879 2.64126 -2.22107 0
M  V30 10233 C 934.992 2.54022 -3.49423 0
M  V30 10234 C 934.127 3.81282 -3.69861 0
M  V30 10235 C 933.166 3.65839 -4.90743 0
M  V30 10236 N 932.303 4.85014 -5.07647 0
M  V30 10237 H 937.143 0.98424 -2.81277 0
M  V30 10238 H 934.68 0.474722 -1.39229 0
M  V30 10239 H 936.638 3.42626 -2.3804 0
M  V30 10240 H 935.268 2.93118 -1.35209 0
M  V30 10241 H 934.32 1.67036 -3.41765 0
M  V30 10242 H 935.632 2.38525 -4.38072 0
M  V30 10243 H 934.786 4.68226 -3.8581 0
M  V30 10244 H 933.525 3.99688 -2.79465 0
M  V30 10245 H 932.53 2.77279 -4.74759 0
M  V30 10246 H 933.755 3.48918 -5.82609 0
M  V30 10247 H 931.701 5.03762 -4.20191 0
M  V30 10248 H 931.618 4.72188 -5.90402 0
M  V30 10249 H 932.886 5.73427 -5.28017 0
M  V30 10250 N 937.115 1.49373 0.502552 0
M  V30 10251 C 938.392 1.49282 1.26389 0
M  V30 10252 C 938.772 0.219674 2.09954 0
M  V30 10253 O 938.12 -0.797991 2.14113 0
M  V30 10254 C 938.33 2.77083 2.12194 0
M  V30 10255 C 939.678 3.26511 2.71433 0
M  V30 10256 O 940.702 2.78189 2.22462 0
M  V30 10257 O 939.561 4.10665 3.60578 0
M  V30 10258 H 936.655 0.597415 0.57186 0
M  V30 10259 H 939.201 1.61634 0.516951 0
M  V30 10260 H 937.973 3.61237 1.50411 0
M  V30 10261 H 937.596 2.67583 2.94084 0
M  V30 10262 N 938.594 -0.753485 1.38421 0
M  V30 10263 C 939.557 -1.84888 1.35459 0
M  V30 10264 C 940.557 -1.58764 0.255083 0
M  V30 10265 O 941.747 -1.66507 0.511978 0
M  V30 10266 C 938.879 -3.22361 1.10888 0
M  V30 10267 H 940.072 -1.88922 2.32913 0
M  V30 10268 H 937.625 -0.955199 1.23716 0
M  V30 10269 H 938.36 -3.23996 0.1404 0
M  V30 10270 H 938.145 -3.42717 1.90492 0
M  V30 10271 H 939.635 -4.02437 1.1151 0
M  V30 10272 N 940.072 -1.23292 -0.981677 0
M  V30 10273 C 941.019 -1.01296 -2.07383 0
M  V30 10274 C 941.989 0.069139 -1.65956 0
M  V30 10275 O 943.174 -0.0827108 -1.90621 0
M  V30 10276 C 940.314 -0.608876 -3.39686 0
M  V30 10277 C 939.427 -1.76296 -3.9439 0
M  V30 10278 C 938.562 -1.30578 -5.14901 0
M  V30 10279 C 937.601 -2.4307 -5.61768 0
M  V30 10280 N 936.738 -1.98319 -6.73509 0
M  V30 10281 H 941.578 -1.9478 -2.25532 0
M  V30 10282 H 939.115 -0.970356 -1.10555 0
M  V30 10283 H 941.073 -0.355702 -4.15681 0
M  V30 10284 H 939.703 0.288961 -3.21504 0
M  V30 10285 H 938.755 -2.13017 -3.15163 0
M  V30 10286 H 940.067 -2.60871 -4.25145 0
M  V30 10287 H 939.221 -1.01066 -5.98223 0
M  V30 10288 H 937.96 -0.430386 -4.85797 0
M  V30 10289 H 936.965 -2.73358 -4.77028 0
M  V30 10290 H 938.19 -3.31144 -5.92892 0
M  V30 10291 H 936.136 -1.13157 -6.46167 0
M  V30 10292 H 936.053 -2.76454 -7.0364 0
M  V30 10293 H 937.321 -1.71907 -7.60308 0
M  V30 10294 N 941.55 1.18024 -1.04442 0
M  V30 10295 C 942.775 1.92573 -0.770097 0
M  V30 10296 C 943.2 1.75871 0.667169 0
M  V30 10297 O 942.558 1.07136 1.46258 0
M  V30 10298 C 942.606 3.41904 -1.14602 0
M  V30 10299 O 941.71 4.11491 -0.273712 0
M  V30 10300 H 941.051 0.600636 -0.283076 0
M  V30 10301 H 943.581 1.49645 -1.39526 0
M  V30 10302 H 943.591 3.92623 -1.10956 0
M  V30 10303 H 942.266 3.53382 -2.19304 0
M  V30 10304 H 940.843 3.71059 -0.370124 0
M  V30 10305 N 943.028 0.824394 1.34319 0
M  V30 10306 C 943.938 0.24932 2.33271 0
M  V30 10307 C 944.954 -0.617066 1.62691 0
M  V30 10308 O 946.13 -0.524616 1.94447 0
M  V30 10309 C 943.195 -0.578094 3.41846 0
M  V30 10310 C 942.256 0.310866 4.28173 0
M  V30 10311 C 941.489 -0.477153 5.31563 0
M  V30 10312 O 941.712 -1.71028 5.44156 0
M  V30 10313 O 940.646 0.141287 6.01734 0
M  V30 10314 H 944.472 1.06837 2.84288 0
M  V30 10315 H 942.057 0.58657 1.37403 0
M  V30 10316 H 943.939 -1.04878 4.0814 0
M  V30 10317 H 942.614 -1.37444 2.93071 0
M  V30 10318 H 941.521 0.829081 3.64797 0
M  V30 10319 H 942.854 1.07161 4.80393 0
M  V30 10320 N 944.506 -1.46559 0.579492 0
M  V30 10321 C 945.752 -2.02699 0.0639363 0
M  V30 10322 C 946.085 -1.4504 -1.29139 0
M  V30 10323 O 945.36 -0.614284 -1.84545 0
M  V30 10324 C 945.643 -3.601 -0.00528618 0
M  V30 10325 C 945.496 -4.28149 1.37871 0
M  V30 10326 C 946.815 -4.34375 -0.707537 0
M  V30 10327 H 943.934 -0.736586 0.0247085 0
M  V30 10328 H 946.576 -1.74739 0.746071 0
M  V30 10329 H 944.726 -3.84052 -0.586206 0
M  V30 10330 H 946.398 -4.1547 2.00455 0
M  V30 10331 H 944.641 -3.87636 1.94732 0
M  V30 10332 H 945.312 -5.36888 1.28278 0
M  V30 10333 H 947.788 -4.15549 -0.214064 0
M  V30 10334 H 946.664 -5.44091 -0.724992 0
M  V30 10335 H 946.925 -4.052 -1.7682 0
M  V30 10336 N 945.984 -0.3171 -1.54377 0
M  V30 10337 C 946.931 0.551782 -2.24107 0
M  V30 10338 C 947.901 1.11681 -1.22949 0
M  V30 10339 O 949.086 1.15836 -1.51614 0
M  V30 10340 C 946.226 1.70997 -2.99756 0
M  V30 10341 C 945.339 1.17479 -4.15719 0
M  V30 10342 C 944.474 2.29815 -4.78914 0
M  V30 10343 C 943.513 1.73513 -5.86992 0
M  V30 10344 N 942.65 2.79485 -6.44075 0
M  V30 10345 H 947.49 -0.049431 -2.97959 0
M  V30 10346 H 945.027 -0.0361658 -1.47056 0
M  V30 10347 H 946.985 2.39141 -3.41859 0
M  V30 10348 H 945.615 2.28257 -2.28251 0
M  V30 10349 H 944.667 0.385109 -3.78446 0
M  V30 10350 H 945.979 0.72276 -4.93536 0
M  V30 10351 H 945.133 3.05875 -5.23952 0
M  V30 10352 H 943.872 2.78352 -4.00464 0
M  V30 10353 H 942.877 0.959475 -5.41363 0
M  V30 10354 H 944.102 1.2586 -6.67335 0
M  V30 10355 H 942.048 3.27325 -5.68502 0
M  V30 10356 H 941.965 2.38825 -7.17286 0
M  V30 10357 H 943.233 3.55394 -6.93769 0
M  V30 10358 N 947.462 1.57535 -0.0451378 0
M  V30 10359 C 948.409 2.11176 0.931313 0
M  V30 10360 C 949.379 1.01765 1.31275 0
M  V30 10361 O 950.564 1.29279 1.40327 0
M  V30 10362 C 947.704 2.65639 2.20295 0
M  V30 10363 C 946.817 3.89114 1.87654 0
M  V30 10364 C 945.952 4.31914 3.09232 0
M  V30 10365 C 944.991 5.48105 2.72484 0
M  V30 10366 N 944.128 5.85986 3.86736 0
M  V30 10367 H 948.968 2.94318 0.466986 0
M  V30 10368 H 946.505 1.45462 0.218886 0
M  V30 10369 H 948.463 2.95312 2.94697 0
M  V30 10370 H 947.093 1.85303 2.64316 0
M  V30 10371 H 946.145 3.6607 1.03427 0
M  V30 10372 H 947.457 4.7358 1.56601 0
M  V30 10373 H 946.611 4.63108 3.91939 0
M  V30 10374 H 945.35 3.46247 3.43459 0
M  V30 10375 H 944.355 5.16589 1.88192 0
M  V30 10376 H 945.58 6.35482 2.39455 0
M  V30 10377 H 943.526 5.03273 4.20775 0
M  V30 10378 H 943.443 6.65129 3.5936 0
M  V30 10379 H 944.711 6.21793 4.701 0
M  V30 10380 N 948.94 -0.228186 1.55939 0
M  V30 10381 C 950.165 -0.974795 1.83064 0
M  V30 10382 C 950.59 -1.77426 0.624624 0
M  V30 10383 O 949.948 -1.76211 -0.426556 0
M  V30 10384 C 949.996 -1.87342 3.08116 0
M  V30 10385 O 949.1 -2.96784 2.86344 0
M  V30 10386 H 948.441 -0.276379 0.603747 0
M  V30 10387 H 950.971 -0.243507 2.03146 0
M  V30 10388 H 950.981 -2.28451 3.38045 0
M  V30 10389 H 949.656 -1.28575 3.95526 0
M  V30 10390 H 948.233 -2.59669 2.67631 0
M  V30 10391 N 950.418 -1.49637 -0.494624 0
M  V30 10392 C 951.35 -1.62902 -1.61231 0
M  V30 10393 C 952.363 -0.511425 -1.54558 0
M  V30 10394 O 953.552 -0.783724 -1.60375 0
M  V30 10395 C 950.652 -1.57564 -3.00045 0
M  V30 10396 C 949.825 -2.84964 -3.31835 0
M  V30 10397 C 948.884 -2.72591 -4.5009 0
M  V30 10398 O 947.91 -3.46532 -4.51558 0
M  V30 10399 N 949.112 -1.84563 -5.50379 0
M  V30 10400 H 951.877 -2.59301 -1.50276 0
M  V30 10401 H 949.438 -1.46806 -0.68262 0
M  V30 10402 H 951.43 -1.46932 -3.77085 0
M  V30 10403 H 950 -0.689974 -3.0489 0
M  V30 10404 H 949.22 -3.099 -2.4363 0
M  V30 10405 H 950.508 -3.69412 -3.49875 0
M  V30 10406 H 949.906 -1.23758 -5.51997 0
M  V30 10407 H 948.463 -1.79849 -6.26496 0
M  V30 10408 N 951.896 0.746133 -1.38819 0
M  V30 10409 C 953.126 1.53316 -1.38484 0
M  V30 10410 C 953.534 1.89183 0.0253332 0
M  V30 10411 O 952.877 1.5382 1.00424 0
M  V30 10412 C 952.939 2.85623 -2.18311 0
M  V30 10413 C 952.603 2.72253 -3.67052 0
M  V30 10414 C 953.6 2.41547 -4.60381 0
M  V30 10415 C 951.285 2.89472 -4.10501 0
M  V30 10416 C 953.279 2.28226 -5.9514 0
M  V30 10417 C 950.966 2.7577 -5.45338 0
M  V30 10418 C 951.964 2.45191 -6.37472 0
M  V30 10419 O 951.652 2.31561 -7.69828 0
M  V30 10420 H 951.384 0.480763 -0.475229 0
M  V30 10421 H 953.938 0.93057 -1.83111 0
M  V30 10422 H 952.168 3.481 -1.68414 0
M  V30 10423 H 953.857 3.47178 -2.10291 0
M  V30 10424 H 954.623 2.27905 -4.28117 0
M  V30 10425 H 950.502 3.12269 -3.3913 0
M  V30 10426 H 954.046 2.04279 -6.6702 0
M  V30 10427 H 949.943 2.88987 -5.77197 0
M  V30 10428 H 950.711 2.46716 -7.80432 0
M  V30 10429 N 953.375 1.23811 0.975125 0
M  V30 10430 C 954.622 1.07336 1.71712 0
M  V30 10431 C 954.95 -0.388954 1.90571 0
M  V30 10432 O 954.205 -1.30409 1.45918 0
M  V30 10433 C 954.504 1.74994 3.11628 0
M  V30 10434 C 954.17 3.24918 3.12632 0
M  V30 10435 C 952.832 3.65822 3.12614 0
M  V30 10436 C 955.184 4.20797 3.07538 0
M  V30 10437 C 952.512 5.01054 3.05224 0
M  V30 10438 C 954.864 5.56027 3.0169 0
M  V30 10439 C 953.528 5.96287 2.99996 0
M  V30 10440 H 952.798 0.392771 0.62834 0
M  V30 10441 H 955.445 1.53815 1.14075 0
M  V30 10442 H 953.75 1.20889 3.72684 0
M  V30 10443 H 955.447 1.5972 3.67819 0
M  V30 10444 H 952.037 2.92359 3.13407 0
M  V30 10445 H 956.221 3.902 3.06688 0
M  V30 10446 H 951.477 5.31454 3.02268 0
M  V30 10447 H 955.651 6.3003 2.96706 0
M  V30 10448 H 953.278 7.01037 2.94025 0
M  V30 10449 N 954.853 -1.17469 1.05066 0
M  V30 10450 C 956.078 -1.92162 0.780298 0
M  V30 10451 C 956.503 -1.76222 -0.657832 0
M  V30 10452 O 955.861 -1.0791 -1.45688 0
M  V30 10453 C 955.909 -3.41292 1.16414 0
M  V30 10454 O 955.013 -4.1134 0.295531 0
M  V30 10455 H 954.354 -0.599127 0.286257 0
M  V30 10456 H 956.884 -1.48903 1.40318 0
M  V30 10457 H 956.894 -3.92029 1.13036 0
M  V30 10458 H 955.569 -3.52214 2.21175 0
M  V30 10459 H 954.146 -3.70857 0.389797 0
M  V30 10460 N 956.331 -0.831506 -1.3388 0
M  V30 10461 C 957.559 -0.436925 -2.02234 0
M  V30 10462 C 957.974 0.959689 -1.6259 0
M  V30 10463 O 957.331 1.62248 -0.835576 0
M  V30 10464 C 957.382 -0.539429 -3.57453 0
M  V30 10465 O 957.103 -1.88101 -3.95664 0
M  V30 10466 C 958.604 -0.140852 -4.43076 0
M  V30 10467 H 955.824 -0.174302 -0.647966 0
M  V30 10468 H 958.368 -1.12204 -1.70969 0
M  V30 10469 H 956.523 0.0976959 -3.87277 0
M  V30 10470 H 956.937 -1.86131 -4.90363 0
M  V30 10471 H 958.411 -0.26364 -5.5137 0
M  V30 10472 H 958.888 0.916505 -4.29531 0
M  V30 10473 H 959.494 -0.752117 -4.18597 0
M  V30 10474 N 957.809 1.4625 -0.587256 0
M  V30 10475 C 959.056 2.02363 -0.0745746 0
M  V30 10476 C 959.384 1.4582 1.28712 0
M  V30 10477 O 958.639 0.614922 1.85788 0
M  V30 10478 C 958.938 3.57382 0.036328 0
M  V30 10479 C 958.604 4.32985 -1.25837 0
M  V30 10480 C 957.266 4.53358 -1.61306 0
M  V30 10481 C 959.618 4.76361 -2.11494 0
M  V30 10482 C 956.946 5.14361 -2.82223 0
M  V30 10483 C 959.298 5.38699 -3.31641 0
M  V30 10484 C 957.962 5.57299 -3.67388 0
M  V30 10485 H 957.232 0.740497 -0.0272888 0
M  V30 10486 H 959.879 1.75565 -0.764804 0
M  V30 10487 H 958.184 3.83342 0.809712 0
M  V30 10488 H 959.881 3.9848 0.448838 0
M  V30 10489 H 956.471 4.17427 -0.972251 0
M  V30 10490 H 960.655 4.60372 -1.85394 0
M  V30 10491 H 955.911 5.26952 -3.10051 0
M  V30 10492 H 960.085 5.71267 -3.9828 0
M  V30 10493 H 957.712 6.04338 -4.61173 0
M  V30 10494 N 959.287 0.325282 1.54207 0
M  V30 10495 C 960.515 -0.27869 2.05014 0
M  V30 10496 C 960.93 -1.45649 1.20133 0
M  V30 10497 O 960.287 -1.81014 0.232398 0
M  V30 10498 C 960.338 -0.711486 3.54429 0
M  V30 10499 O 960.059 0.419458 4.36087 0
M  V30 10500 C 961.56 -1.37809 4.21336 0
M  V30 10501 H 958.78 -0.0570388 0.668571 0
M  V30 10502 H 961.324 0.47197 1.98979 0
M  V30 10503 H 959.479 -1.41212 3.60746 0
M  V30 10504 H 959.893 0.0781037 5.24442 0
M  V30 10505 H 961.367 -1.63184 5.27328 0
M  V30 10506 H 961.844 -2.32593 3.72555 0
M  V30 10507 H 962.45 -0.719987 4.19161 0
M  V30 10508 N 960.765 -1.57509 0.0534917 0
M  V30 10509 C 961.695 -2.14698 -0.917999 0
M  V30 10510 C 962.676 -1.06924 -1.32292 0
M  V30 10511 O 963.861 -1.34875 -1.39723 0
M  V30 10512 C 960.991 -2.69383 -2.19203 0
M  V30 10513 C 959.945 -3.82161 -1.9271 0
M  V30 10514 C 959.271 -4.23373 -3.26587 0
M  V30 10515 C 960.571 -5.07199 -1.24686 0
M  V30 10516 H 962.265 -2.96125 -0.44165 0
M  V30 10517 H 959.811 -1.42446 -0.210993 0
M  V30 10518 H 961.764 -3.08031 -2.87567 0
M  V30 10519 H 960.488 -1.85151 -2.69048 0
M  V30 10520 H 959.147 -3.43989 -1.26757 0
M  V30 10521 H 958.795 -3.36089 -3.74237 0
M  V30 10522 H 958.495 -4.99385 -3.09658 0
M  V30 10523 H 960.019 -4.64623 -3.96178 0
M  V30 10524 H 961.433 -5.43279 -1.83088 0
M  V30 10525 H 959.83 -5.88369 -1.18076 0
M  V30 10526 H 960.9 -4.84386 -0.223227 0
M  V30 10527 N 962.243 0.219913 -1.56058 0
M  V30 10528 C 963.659 0.569685 -1.49086 0
M  V30 10529 C 963.859 1.87066 -0.748903 0
M  V30 10530 O 962.915 2.50838 -0.289235 0
M  V30 10531 C 964.228 0.647397 -2.93648 0
M  V30 10532 C 965.776 0.737914 -3.04177 0
M  V30 10533 C 966.251 0.846957 -4.50101 0
M  V30 10534 N 967.742 0.911136 -4.5415 0
M  V30 10535 C 968.477 1.01525 -5.64341 0
M  V30 10536 N 967.973 1.0832 -6.8428 0
M  V30 10537 N 969.766 1.05051 -5.52196 0
M  V30 10538 H 961.917 -0.633778 -2.02724 0
M  V30 10539 H 964.18 -0.222583 -0.921499 0
M  V30 10540 H 963.886 -0.238987 -3.50887 0
M  V30 10541 H 963.76 1.51046 -3.45637 0
M  V30 10542 H 966.147 1.61474 -2.47002 0
M  V30 10543 H 966.228 -0.150845 -2.55355 0
M  V30 10544 H 965.872 -0.0254166 -5.07894 0
M  V30 10545 H 965.802 1.75116 -4.96631 0
M  V30 10546 H 968.293 0.868869 -3.67776 0
M  V30 10547 H 968.606 1.16247 -7.64007 0
M  V30 10548 H 966.951 1.05231 -6.86987 0
M  V30 10549 H 970.142 0.994086 -4.57423 0
M  V30 10550 H 970.315 1.12819 -6.38103 0
M  V30 10551 N 963.721 1.49897 0.486681 0
M  V30 10552 C 964.969 1.59789 1.23742 0
M  V30 10553 C 965.29 0.293056 1.92785 0
M  V30 10554 O 964.56 -0.688534 1.83401 0
M  V30 10555 H 963.14 0.588775 0.459731 0
M  V30 10556 H 965.802 1.86597 0.562808 0
M  V30 10557 H 964.898 2.40121 1.9937 0
M  V30 10558 N 965.199 -0.738761 1.39212 0
M  V30 10559 C 966.424 -1.5331 1.39681 0
M  V30 10560 C 966.849 -1.88098 -0.00768715 0
M  V30 10561 O 966.207 -1.51642 -0.993699 0
M  V30 10562 C 966.255 -2.79958 2.27279 0
M  V30 10563 O 965.359 -3.75727 1.70008 0
M  V30 10564 H 964.7 -0.463131 0.475821 0
M  V30 10565 H 967.23 -0.911768 1.83161 0
M  V30 10566 H 967.24 -3.28732 2.41659 0
M  V30 10567 H 965.915 -2.5397 3.29351 0
M  V30 10568 H 964.492 -3.34483 1.64851 0
M  V30 10569 N 966.677 -1.24326 -0.968545 0
M  V30 10570 C 967.907 -1.10786 -1.74385 0
M  V30 10571 C 968.315 0.342503 -1.86074 0
M  V30 10572 O 967.658 1.24817 -1.34782 0
M  V30 10573 C 967.72 -1.67274 -3.18213 0
M  V30 10574 C 967.384 -3.1615 -3.29998 0
M  V30 10575 C 968.381 -4.13309 -3.15392 0
M  V30 10576 C 966.066 -3.56092 -3.54265 0
M  V30 10577 C 968.06 -5.48392 -3.24878 0
M  V30 10578 C 965.747 -4.91316 -3.63389 0
M  V30 10579 C 966.745 -5.87275 -3.48707 0
M  V30 10580 O 966.433 -7.20041 -3.57485 0
M  V30 10581 H 966.165 -0.387795 -0.553706 0
M  V30 10582 H 968.719 -1.64894 -1.22471 0
M  V30 10583 H 966.949 -1.07598 -3.71429 0
M  V30 10584 H 968.638 -1.49036 -3.77549 0
M  V30 10585 H 969.404 -3.83792 -2.96528 0
M  V30 10586 H 965.283 -2.81907 -3.6476 0
M  V30 10587 H 968.827 -6.23271 -3.13335 0
M  V30 10588 H 964.724 -5.20505 -3.81766 0
M  V30 10589 H 965.492 -7.27951 -3.74205 0
M  V30 10590 N 968.156 1.1691 -1.05688 0
M  V30 10591 C 969.384 1.91204 -0.790485 0
M  V30 10592 C 969.799 1.77095 0.654434 0
M  V30 10593 O 969.156 1.11146 1.44751 0
M  V30 10594 C 969.207 3.42108 -1.16808 0
M  V30 10595 O 968.928 3.55788 -2.55629 0
M  V30 10596 C 970.429 4.33466 -0.92855 0
M  V30 10597 H 967.649 0.606508 -0.287035 0
M  V30 10598 H 970.193 1.48225 -1.40888 0
M  V30 10599 H 968.348 3.82814 -0.59434 0
M  V30 10600 H 968.762 4.49321 -2.70575 0
M  V30 10601 H 970.236 5.37836 -1.24245 0
M  V30 10602 H 970.713 4.38989 0.136016 0
M  V30 10603 H 971.319 3.98481 -1.48638 0
M  V30 10604 N 969.634 0.838594 1.33437 0
M  V30 10605 C 970.882 0.433312 1.974 0
M  V30 10606 C 971.203 -1.01078 1.66758 0
M  V30 10607 O 970.473 -1.70406 0.966373 0
M  V30 10608 H 969.053 0.15724 0.730263 0
M  V30 10609 H 971.715 1.07149 1.62804 0
M  V30 10610 H 970.811 0.565144 3.06941 0
M  V30 10611 N 971.112 -1.45937 0.595003 0
M  V30 10612 C 972.36 -2.01921 0.0851368 0
M  V30 10613 C 972.681 -1.46748 -1.28413 0
M  V30 10614 O 971.951 -0.656873 -1.84559 0
M  V30 10615 H 970.531 -0.746457 0.0284826 0
M  V30 10616 H 973.193 -1.78891 0.773561 0
M  V30 10617 H 972.289 -3.1209 0.0254002 0
M  V30 10618 N 972.59 -0.333456 -1.54032 0
M  V30 10619 C 973.553 0.515392 -2.2333 0
M  V30 10620 C 974.553 1.03566 -1.23007 0
M  V30 10621 O 975.743 0.926514 -1.47517 0
M  V30 10622 C 972.875 1.7169 -2.94508 0
M  V30 10623 H 974.068 -0.0905407 -2.99763 0
M  V30 10624 H 971.621 -0.0846651 -1.56071 0
M  V30 10625 H 972.356 2.3618 -2.22237 0
M  V30 10626 H 972.141 1.35115 -3.68085 0
M  V30 10627 H 973.631 2.31922 -3.47278 0
M  V30 10628 N 974.068 1.57479 -0.061844 0
M  V30 10629 C 975.293 1.97843 0.622311 0
M  V30 10630 C 975.718 0.939602 1.62951 0
M  V30 10631 O 975.076 -0.095958 1.81046 0
M  V30 10632 C 975.124 3.37262 1.2762 0
M  V30 10633 O 974.228 3.35943 2.39199 0
M  V30 10634 H 973.569 0.644212 0.160896 0
M  V30 10635 H 976.099 2.04165 -0.133409 0
M  V30 10636 H 976.109 3.74226 1.62539 0
M  V30 10637 H 974.784 4.12404 0.538112 0
M  V30 10638 H 973.361 3.10737 2.06148 0
M  V30 10639 N 975.546 -0.211634 1.56173 0
M  V30 10640 C 976.493 -1.26231 1.93221 0
M  V30 10641 C 977.463 -1.46076 0.790641 0
M  V30 10642 O 978.648 -1.59482 1.04739 0
M  V30 10643 C 975.788 -2.60559 2.26281 0
M  V30 10644 C 974.901 -2.48431 3.5342 0
M  V30 10645 C 974.036 -3.7535 3.7588 0
M  V30 10646 C 973.075 -3.57985 4.96501 0
M  V30 10647 N 972.212 -4.76877 5.15299 0
M  V30 10648 H 977.052 -0.939367 2.82807 0
M  V30 10649 H 974.589 -0.452511 1.39967 0
M  V30 10650 H 976.547 -3.38796 2.43461 0
M  V30 10651 H 975.177 -2.9093 1.39855 0
M  V30 10652 H 974.229 -1.61577 3.44379 0
M  V30 10653 H 975.541 -2.31526 4.41811 0
M  V30 10654 H 974.695 -4.62029 3.9321 0
M  V30 10655 H 973.434 -3.95191 2.85788 0
M  V30 10656 H 972.439 -2.69691 4.79111 0
M  V30 10657 H 973.664 -3.39605 5.88086 0
M  V30 10658 H 971.61 -4.97013 4.28152 0
M  V30 10659 H 971.527 -4.62735 5.9784 0
M  V30 10660 H 972.795 -5.64954 5.37073 0
M  V30 10661 N 977.024 -1.50153 -0.478725 0
M  V30 10662 C 978.272 -1.60443 -1.22892 0
M  V30 10663 C 978.593 -0.303276 -1.92627 0
M  V30 10664 O 977.863 0.678798 -1.83764 0
M  V30 10665 H 976.443 -0.591205 -0.456602 0
M  V30 10666 H 979.105 -1.86893 -0.552905 0
M  V30 10667 H 978.201 -2.41175 -1.98094 0
M  V30 10668 N 978.502 0.731368 -1.39602 0
M  V30 10669 C 979.449 1.84541 -1.38612 0
M  V30 10670 C 980.419 1.64279 -0.245287 0
M  V30 10671 O 981.604 1.85635 -0.440954 0
M  V30 10672 C 978.744 3.22092 -1.23897 0
M  V30 10673 C 977.857 3.54034 -2.47555 0
M  V30 10674 C 976.992 4.81007 -2.25402 0
M  V30 10675 C 976.031 5.05804 -3.44716 0
M  V30 10676 N 975.168 6.23981 -3.21857 0
M  V30 10677 H 980.008 1.84722 -2.33841 0
M  V30 10678 H 977.545 0.902569 -1.16156 0
M  V30 10679 H 979.503 4.01499 -1.13376 0
M  V30 10680 H 978.133 3.2118 -0.322958 0
M  V30 10681 H 977.185 2.69301 -2.68665 0
M  V30 10682 H 978.497 3.68275 -3.36415 0
M  V30 10683 H 977.651 5.68401 -2.12143 0
M  V30 10684 H 976.39 4.68946 -1.33943 0
M  V30 10685 H 975.395 4.1687 -3.58468 0
M  V30 10686 H 976.62 5.19747 -4.37081 0
M  V30 10687 H 974.566 6.13202 -2.33065 0
M  V30 10688 H 974.483 6.38826 -4.04274 0
M  V30 10689 H 975.751 7.14205 -3.123 0
M  V30 10690 N 979.98 1.24838 0.961938 0
M  V30 10691 C 980.91 1.07053 2.07514 0
M  V30 10692 C 981.891 -0.0182465 1.7009 0
M  V30 10693 O 983.076 0.149915 1.9362 0
M  V30 10694 C 980.206 0.680693 3.40564 0
M  V30 10695 C 979.16 1.71889 3.91967 0
M  V30 10696 C 978.486 1.18395 5.21428 0
M  V30 10697 C 979.786 3.1161 4.19161 0
M  V30 10698 H 981.48 2.00167 2.22651 0
M  V30 10699 H 979.026 0.963799 1.0699 0
M  V30 10700 H 980.979 0.54324 4.17884 0
M  V30 10701 H 979.703 -0.28615 3.25344 0
M  V30 10702 H 978.362 1.84465 3.16809 0
M  V30 10703 H 978.01 0.207543 5.02572 0
M  V30 10704 H 977.71 1.87778 5.56788 0
M  V30 10705 H 979.234 1.05873 6.01351 0
M  V30 10706 H 980.648 3.0223 4.87165 0
M  V30 10707 H 979.045 3.78398 4.65763 0
M  V30 10708 H 980.115 3.59218 3.25715 0
M  V30 10709 N 981.458 -1.16348 1.06306 0
M  V30 10710 C 982.368 -2.24375 0.685059 0
M  V30 10711 C 983.384 -1.71413 -0.298956 0
M  V30 10712 O 984.56 -2.00854 -0.148239 0
M  V30 10713 C 981.625 -3.46614 0.0774088 0
M  V30 10714 C 980.686 -4.14613 1.11331 0
M  V30 10715 C 979.919 -5.31016 0.534559 0
M  V30 10716 O 980.142 -5.66654 -0.65265 0
M  V30 10717 O 979.076 -5.88256 1.27431 0
M  V30 10718 H 982.902 -2.59018 1.58566 0
M  V30 10719 H 980.487 -1.23865 0.835332 0
M  V30 10720 H 982.369 -4.20599 -0.259716 0
M  V30 10721 H 981.044 -3.13743 -0.796677 0
M  V30 10722 H 979.951 -3.42597 1.50261 0
M  V30 10723 H 981.284 -4.51538 1.95893 0
M  V30 10724 N 982.937 -0.845659 -1.3299 0
M  V30 10725 C 984.214 -0.366306 -1.92139 0
M  V30 10726 C 984.594 1.14912 -1.77083 0
M  V30 10727 O 983.942 1.96667 -1.16338 0
M  V30 10728 C 984.152 -0.820716 -3.39213 0
M  V30 10729 C 985.5 -0.832667 -4.16355 0
M  V30 10730 O 986.524 -0.764764 -3.47893 0
M  V30 10731 O 985.383 -0.926658 -5.38586 0
M  V30 10732 H 982.477 -0.105063 -0.820299 0
M  V30 10733 H 985.023 -0.931962 -1.41819 0
M  V30 10734 H 983.795 -1.86357 -3.44074 0
M  V30 10735 H 983.418 -0.232009 -3.96923 0
M  V30 10736 N 984.415 1.45619 -0.602734 0
M  V30 10737 C 985.347 2.28662 0.157012 0
M  V30 10738 C 986.36 1.39672 0.836396 0
M  V30 10739 O 987.549 1.64091 0.702599 0
M  V30 10740 C 984.649 3.1528 1.24306 0
M  V30 10741 C 983.822 4.32517 0.651731 0
M  V30 10742 C 982.881 5.00381 1.62804 0
M  V30 10743 O 981.907 5.57333 1.15624 0
M  V30 10744 N 983.109 4.99221 2.96241 0
M  V30 10745 H 985.874 2.94506 -0.555535 0
M  V30 10746 H 983.435 1.55753 -0.441881 0
M  V30 10747 H 985.427 3.57544 1.8959 0
M  V30 10748 H 983.997 2.51376 1.85819 0
M  V30 10749 H 983.217 3.93793 -0.17907 0
M  V30 10750 H 984.505 5.08249 0.236802 0
M  V30 10751 H 983.903 4.54232 3.37179 0
M  V30 10752 H 982.46 5.45364 3.56961 0
M  V30 10753 N 985.893 0.34162 1.53853 0
M  V30 10754 C 986.84 -0.516058 2.24957 0
M  V30 10755 C 987.81 -1.09711 1.2471 0
M  V30 10756 O 988.995 -1.13409 1.53438 0
M  V30 10757 C 986.135 -1.66207 3.02439 0
M  V30 10758 C 985.248 -1.10851 4.17536 0
M  V30 10759 C 984.383 -2.22167 4.82509 0
M  V30 10760 C 983.422 -1.64152 5.89678 0
M  V30 10761 N 982.559 -2.69203 6.4844 0
M  V30 10762 H 987.399 0.0968275 2.97843 0
M  V30 10763 H 984.936 0.0595565 1.46979 0
M  V30 10764 H 986.894 -2.33672 3.4562 0
M  V30 10765 H 985.524 -2.24597 2.31853 0
M  V30 10766 H 984.576 -0.324853 3.7901 0
M  V30 10767 H 985.888 -0.644151 4.94623 0
M  V30 10768 H 985.042 -2.97501 5.28751 0
M  V30 10769 H 983.781 -2.71946 4.04842 0
M  V30 10770 H 982.786 -0.873228 5.42821 0
M  V30 10771 H 984.011 -1.15228 6.69253 0
M  V30 10772 H 981.957 -3.1824 5.73637 0
M  V30 10773 H 981.874 -2.27383 7.20994 0
M  V30 10774 H 983.142 -3.44312 6.99335 0
M  V30 10775 N 987.371 -1.57444 0.0701946 0
M  V30 10776 C 988.334 -2.11511 -0.882923 0
M  V30 10777 C 989.334 -1.03879 -1.22743 0
M  V30 10778 O 990.524 -1.29874 -1.16097 0
M  V30 10779 C 987.656 -2.61514 -2.18686 0
M  V30 10780 H 988.849 -2.9703 -0.413873 0
M  V30 10781 H 986.402 -1.55278 -0.178488 0
M  V30 10782 H 987.137 -1.79443 -2.70131 0
M  V30 10783 H 986.922 -3.40185 -1.94978 0
M  V30 10784 H 988.412 -3.03425 -2.86919 0
M  V30 10785 N 988.849 0.203349 -1.56283 0
M  V30 10786 C 989.782 1.27982 -1.88934 0
M  V30 10787 C 990.76 1.44345 -0.748555 0
M  V30 10788 O 991.944 1.59867 -0.998741 0
M  V30 10789 C 989.071 2.64762 -2.11231 0
M  V30 10790 C 988.117 2.65315 -3.33932 0
M  V30 10791 S 988.95 2.17568 -4.8931 0
M  V30 10792 C 990.106 3.56189 -5.14665 0
M  V30 10793 H 990.339 1.00095 -2.79943 0
M  V30 10794 H 987.872 0.406458 -1.48954 0
M  V30 10795 H 989.83 3.43501 -2.2476 0
M  V30 10796 H 988.491 2.89864 -1.20986 0
M  V30 10797 H 987.684 3.6587 -3.46634 0
M  V30 10798 H 987.286 1.94652 -3.19353 0
M  V30 10799 H 989.578 4.52001 -5.0468 0
M  V30 10800 H 990.521 3.48387 -6.16467 0
M  V30 10801 H 990.929 3.50719 -4.42331 0
M  V30 10802 N 990.327 1.50405 0.470755 0
M  V30 10803 C 991.275 1.6982 1.58946 0
M  V30 10804 C 992.269 0.56407 1.59733 0
M  V30 10805 O 993.475 0.744576 1.63878 0
M  V30 10806 H 989.85 0.536016 0.527438 0
M  V30 10807 H 991.821 2.63662 1.39732 0
M  V30 10808 C 990.57 1.80986 2.96883 0
M  V30 10809 H 989.893 2.67645 2.96996 0
M  V30 10810 H 991.333 1.98596 3.74614 0
M  V30 10811 C 989.792 0.561551 3.32187 0
M  V30 10812 O 990.322 -0.299136 4.00585 0
M  V30 10813 N 988.528 0.415476 2.87615 0
M  V30 10814 H 988.075 1.11691 2.32127 0
M  V30 10815 H 988.033 -0.418592 3.11601 0
M  V30 10816 N 991.805 -0.723954 1.39988 0
M  V30 10817 C 992.752 -1.83803 1.39589 0
M  V30 10818 C 993.722 -1.64146 0.253996 0
M  V30 10819 O 994.907 -1.85398 0.450793 0
M  V30 10820 C 992.047 -3.21431 1.25604 0
M  V30 10821 C 991.16 -3.52717 2.49429 0
M  V30 10822 C 990.295 -4.79805 2.27949 0
M  V30 10823 C 989.334 -5.03968 3.47394 0
M  V30 10824 N 988.471 -6.22266 3.25161 0
M  V30 10825 H 993.311 -1.83479 2.34818 0
M  V30 10826 H 990.848 -0.896396 1.16633 0
M  V30 10827 H 992.806 -4.00892 1.15504 0
M  V30 10828 H 991.436 -3.21005 0.339986 0
M  V30 10829 H 990.488 -2.67872 2.7009 0
M  V30 10830 H 991.8 -3.66486 3.38363 0
M  V30 10831 H 990.954 -5.67268 2.15155 0
M  V30 10832 H 989.693 -4.68229 1.36428 0
M  V30 10833 H 988.698 -4.14963 3.60674 0
M  V30 10834 H 989.923 -5.17422 4.39831 0
M  V30 10835 H 987.869 -6.11957 2.36314 0
M  V30 10836 H 987.786 -6.36673 4.07656 0
M  V30 10837 H 989.054 -7.12539 3.16083 0
M  V30 10838 N 993.283 -1.25346 -0.955304 0
M  V30 10839 C 994.53 -1.10055 -1.69983 0
M  V30 10840 C 994.858 0.358586 -1.91166 0
M  V30 10841 O 994.113 1.28071 -1.47974 0
M  V30 10842 C 994.412 -1.7993 -3.08804 0
M  V30 10843 C 994.078 -3.29851 -3.07424 0
M  V30 10844 C 992.74 -3.7075 -3.06754 0
M  V30 10845 C 995.092 -4.25636 -3.00805 0
M  V30 10846 C 992.42 -5.05847 -2.97214 0
M  V30 10847 C 994.772 -5.60756 -2.92806 0
M  V30 10848 C 993.436 -6.00984 -2.90472 0
M  V30 10849 H 992.706 -0.402718 -0.622012 0
M  V30 10850 H 995.353 -1.5561 -1.11614 0
M  V30 10851 H 993.658 -1.26803 -3.70713 0
M  V30 10852 H 995.355 -1.65551 -3.65231 0
M  V30 10853 H 991.945 -2.97308 -3.08716 0
M  V30 10854 H 996.129 -3.9503 -3.00441 0
M  V30 10855 H 991.385 -5.36196 -2.93775 0
M  V30 10856 H 995.559 -6.34671 -2.86645 0
M  V30 10857 H 993.186 -7.05626 -2.82835 0
M  V30 10858 N 994.761 1.15782 -1.06922 0
M  V30 10859 C 996.01 1.85807 -0.784774 0
M  V30 10860 C 996.323 1.82967 0.691551 0
M  V30 10861 O 997.529 2.48632 1.0906 0
M  V30 10862 C 995.985 3.33469 -1.35375 0
M  V30 10863 C 995.593 3.44766 -2.86077 0
M  V30 10864 C 997.337 4.08707 -1.14713 0
M  V30 10865 C 995.244 4.86551 -3.36187 0
M  V30 10866 H 994.174 0.696046 -0.28989 0
M  V30 10867 H 996.825 1.30629 -1.28873 0
M  V30 10868 H 995.207 3.88292 -0.77754 0
M  V30 10869 H 996.381 3.00073 -3.49704 0
M  V30 10870 H 994.696 2.82969 -3.05479 0
M  V30 10871 H 997.293 5.13336 -1.49633 0
M  V30 10872 H 997.636 4.16211 -0.0858868 0
M  V30 10873 H 998.169 3.60142 -1.68946 0
M  V30 10874 H 994.908 4.84229 -4.41818 0
M  V30 10875 H 994.428 5.31844 -2.77312 0
M  V30 10876 H 996.107 5.55392 -3.31887 0
M  V30 10877 N 996.239 0.8527 1.3254 0
M  V30 10878 C 997.516 0.376491 1.91942 0
M  V30 10879 C 997.896 -1.13972 1.7769 0
M  V30 10880 O 997.244 -1.96047 1.17379 0
M  V30 10881 C 997.454 0.838694 3.38773 0
M  V30 10882 C 998.802 0.854736 4.15908 0
M  V30 10883 O 999.826 0.783203 3.47483 0
M  V30 10884 O 998.685 0.955207 5.38087 0
M  V30 10885 H 995.779 0.109412 0.81973 0
M  V30 10886 H 998.325 0.93947 1.41322 0
M  V30 10887 H 997.097 1.88179 3.43081 0
M  V30 10888 H 996.72 0.253055 3.96794 0
M  V30 10889 N 997.718 -1.45297 0.610449 0
M  V30 10890 C 998.995 -1.95562 0.0386189 0
M  V30 10891 C 999.375 -1.55284 -1.43004 0
M  V30 10892 O 998.723 -0.816785 -2.13403 0
M  V30 10893 C 998.933 -3.48176 0.239731 0
M  V30 10894 C 1000.28 -4.24425 0.122035 0
M  V30 10895 O 1001.3 -3.55794 0.170003 0
M  V30 10896 O 1000.16 -5.46499 0.00953695 0
M  V30 10897 H 997.258 -0.826296 -0.0341081 0
M  V30 10898 H 999.804 -1.55449 0.68071 0
M  V30 10899 H 998.576 -3.70471 1.25963 0
M  V30 10900 H 998.199 -3.95186 -0.437486 0
M  V30 10901 N 999.196 -0.349774 -1.5367 0
M  V30 10902 C 1000.42 0.248692 -2.05904 0
M  V30 10903 C 1000.85 1.42942 -1.22267 0
M  V30 10904 O 1000.2 1.79732 -0.237899 0
M  V30 10905 C 1000.25 0.635639 -3.54953 0
M  V30 10906 O 999.356 1.7349 -3.74132 0
M  V30 10907 H 998.697 0.0399477 -0.662797 0
M  V30 10908 H 1001.23 -0.505795 -1.9825 0
M  V30 10909 H 1001.24 0.911064 -3.97698 0
M  V30 10910 H 999.912 -0.227805 -4.15276 0
M  V30 10911 H 998.489 1.45626 -3.43289 0
M  V30 10912 N 1000.67 1.57404 -0.0785433 0
M  V30 10913 C 1001.6 2.16131 0.883726 0
M  V30 10914 C 1002.58 1.09015 1.30575 0
M  V30 10915 O 1003.77 1.3708 1.37559 0
M  V30 10916 C 1000.9 2.72836 2.1489 0
M  V30 10917 C 999.854 3.85178 1.86605 0
M  V30 10918 C 999.18 4.28516 3.1981 0
M  V30 10919 C 1000.48 5.09118 1.16601 0
M  V30 10920 H 1002.17 2.9679 0.394484 0
M  V30 10921 H 999.72 1.42763 0.188304 0
M  V30 10922 H 1001.67 3.12567 2.8263 0
M  V30 10923 H 1000.4 1.89408 2.66068 0
M  V30 10924 H 999.056 3.45962 1.21268 0
M  V30 10925 H 998.704 3.42 3.68843 0
M  V30 10926 H 998.404 5.04249 3.01674 0
M  V30 10927 H 999.928 4.70868 3.88737 0
M  V30 10928 H 1001.34 5.46123 1.74422 0
M  V30 10929 H 999.739 5.90173 1.087 0
M  V30 10930 H 1000.81 4.8468 0.146138 0
M  V30 10931 N 1002.15 -0.195058 1.56388 0
M  V30 10932 C 1003.1 -1.24175 1.94549 0
M  V30 10933 C 1004.07 -1.45229 0.806089 0
M  V30 10934 O 1005.25 -1.58362 1.06425 0
M  V30 10935 C 1002.39 -2.58145 2.29031 0
M  V30 10936 C 1001.51 -2.44669 3.56035 0
M  V30 10937 C 1000.64 -3.71342 3.7984 0
M  V30 10938 C 999.681 -3.52699 5.0027 0
M  V30 10939 N 998.818 -4.71385 5.20328 0
M  V30 10940 H 1003.66 -0.909319 2.83788 0
M  V30 10941 H 1001.19 -0.437641 1.40439 0
M  V30 10942 H 1003.15 -3.36195 2.4704 0
M  V30 10943 H 1001.78 -2.8943 1.42933 0
M  V30 10944 H 1000.83 -1.57916 3.46073 0
M  V30 10945 H 1002.15 -2.26827 4.44242 0
M  V30 10946 H 1001.3 -4.57832 3.98088 0
M  V30 10947 H 1000.04 -3.92138 2.89964 0
M  V30 10948 H 999.045 -2.64594 4.81944 0
M  V30 10949 H 1000.27 -3.33349 5.91655 0
M  V30 10950 H 998.216 -4.92444 4.33399 0
M  V30 10951 H 998.133 -4.56368 6.02714 0
M  V30 10952 H 999.401 -5.59226 5.43035 0
M  V30 10953 N 1003.63 -1.50653 -0.462772 0
M  V30 10954 C 1004.58 -1.70122 -1.55971 0
M  V30 10955 C 1005.55 -0.542581 -1.56988 0
M  V30 10956 O 1006.73 -0.774114 -1.74391 0
M  V30 10957 C 1003.87 -1.80899 -2.93887 0
M  V30 10958 C 1002.98 -3.08318 -3.02595 0
M  V30 10959 C 1002.12 -3.09841 -4.31477 0
M  V30 10960 C 1001.16 -4.3168 -4.33957 0
M  V30 10961 N 1000.3 -4.30894 -5.54323 0
M  V30 10962 H 1005.14 -2.63768 -1.38674 0
M  V30 10963 H 1002.67 -1.30746 -0.674091 0
M  V30 10964 H 1004.63 -1.85128 -3.73876 0
M  V30 10965 H 1003.26 -0.906854 -3.098 0
M  V30 10966 H 1002.31 -3.13521 -2.15427 0
M  V30 10967 H 1003.62 -3.98282 -3.00288 0
M  V30 10968 H 1002.78 -3.12845 -5.1982 0
M  V30 10969 H 1001.52 -2.17722 -4.36404 0
M  V30 10970 H 1000.52 -4.28879 -3.4401 0
M  V30 10971 H 1001.75 -5.25035 -4.30715 0
M  V30 10972 H 999.694 -3.41633 -5.6002 0
M  V30 10973 H 999.611 -5.14636 -5.53792 0
M  V30 10974 H 1000.88 -4.38056 -6.44769 0
M  V30 10975 N 1005.11 0.71652 -1.4037 0
M  V30 10976 C 1006.04 1.84345 -1.43315 0
M  V30 10977 C 1007.02 1.67537 -0.294186 0
M  V30 10978 O 1008.2 1.87582 -0.502671 0
M  V30 10979 C 1005.33 3.2229 -1.29408 0
M  V30 10980 C 1004.29 3.53769 -2.40897 0
M  V30 10981 C 1003.61 4.90847 -2.12068 0
M  V30 10982 C 1004.91 3.54862 -3.83237 0
M  V30 10983 H 1006.61 1.82138 -2.37626 0
M  V30 10984 H 1004.15 0.874873 -1.14376 0
M  V30 10985 H 1006.11 4.00819 -1.30085 0
M  V30 10986 H 1004.83 3.2507 -0.31573 0
M  V30 10987 H 1003.49 2.77579 -2.39469 0
M  V30 10988 H 1003.14 4.90229 -1.12626 0
M  V30 10989 H 1002.84 5.12875 -2.86762 0
M  V30 10990 H 1004.36 5.71711 -2.14426 0
M  V30 10991 H 1005.78 4.23432 -3.86494 0
M  V30 10992 H 1004.17 3.88416 -4.57442 0
M  V30 10993 H 1005.24 2.54266 -4.12888 0
M  V30 10994 N 1006.59 1.25851 0.948643 0
M  V30 10995 C 1007.86 1.01717 1.67072 0
M  V30 10996 C 1008.24 -0.454749 2.06144 0
M  V30 10997 O 1007.59 -1.43345 1.77945 0
M  V30 10998 C 1007.8 1.95872 2.88852 0
M  V30 10999 C 1009.15 2.24057 3.60671 0
M  V30 11000 O 1010.17 1.93678 2.98944 0
M  V30 11001 O 1009.03 2.75745 4.71833 0
M  V30 11002 H 1006.13 0.386198 0.731287 0
M  V30 11003 H 1008.67 1.37031 1.00104 0
M  V30 11004 H 1007.44 2.95233 2.56814 0
M  V30 11005 H 1007.07 1.60992 3.63548 0
M  V30 11006 N 1008.06 -1.15214 1.07534 0
M  V30 11007 C 1009.29 -1.89922 0.820804 0
M  V30 11008 C 1009.71 -1.78114 -0.626177 0
M  V30 11009 O 1009.06 -1.13435 -1.42964 0
M  V30 11010 C 1009.12 -3.40207 1.22236 0
M  V30 11011 O 1008.84 -3.51676 2.61257 0
M  V30 11012 C 1010.34 -4.31934 0.997393 0
M  V30 11013 H 1007.56 -0.601865 0.296647 0
M  V30 11014 H 1010.1 -1.45965 1.43229 0
M  V30 11015 H 1008.26 -3.8182 0.655167 0
M  V30 11016 H 1008.67 -4.44959 2.77689 0
M  V30 11017 H 1010.14 -5.35791 1.32785 0
M  V30 11018 H 1010.62 -4.3915 -0.0661599 0
M  V30 11019 H 1011.23 -3.96066 1.54958 0
M  V30 11020 N 1009.54 -0.859717 -1.32086 0
M  V30 11021 C 1010.77 -0.479028 -2.0097 0
M  V30 11022 C 1011.18 0.930242 -1.64752 0
M  V30 11023 O 1010.52 1.6193 -0.867437 0
M  V30 11024 C 1010.59 -0.54431 -3.55355 0
M  V30 11025 C 1010.25 -1.91337 -4.15017 0
M  V30 11026 C 1011.25 -2.87951 -4.32874 0
M  V30 11027 C 1008.93 -2.21189 -4.50977 0
M  V30 11028 C 1010.93 -4.12567 -4.85867 0
M  V30 11029 C 1008.61 -3.46057 -5.03674 0
M  V30 11030 C 1009.61 -4.41562 -5.21068 0
M  V30 11031 O 1009.3 -5.64218 -5.72637 0
M  V30 11032 H 1009.03 -0.186161 -0.649861 0
M  V30 11033 H 1011.58 -1.15976 -1.69525 0
M  V30 11034 H 1009.81 0.1933 -3.86217 0
M  V30 11035 H 1011.5 -0.178506 -4.05507 0
M  V30 11036 H 1012.27 -2.66194 -4.05421 0
M  V30 11037 H 1008.15 -1.47635 -4.36721 0
M  V30 11038 H 1011.69 -4.8712 -4.99359 0
M  V30 11039 H 1007.59 -3.67662 -5.30561 0
M  V30 11040 H 1008.36 -5.66246 -5.91023 0
M  V30 11041 N 1011.02 1.44971 -0.618145 0
M  V30 11042 C 1012.25 2.07039 -0.122395 0
M  V30 11043 C 1012.67 1.45793 1.18853 0
M  V30 11044 O 1012.03 0.55453 1.72611 0
M  V30 11045 C 1012.08 3.60599 -0.0073864 0
M  V30 11046 O 1011.18 3.99069 1.04007 0
M  V30 11047 H 1010.52 0.6593 -0.0788615 0
M  V30 11048 H 1013.05 1.86055 -0.851147 0
M  V30 11049 H 1013.06 4.07569 0.187417 0
M  V30 11050 H 1011.74 4.04561 -0.964544 0
M  V30 11051 H 1010.31 3.63753 0.820879 0
M  V30 11052 N 1012.5 0.357919 1.53482 0
M  V30 11053 C 1013.74 -0.22712 2.02128 0
M  V30 11054 C 1014.1 -1.47044 1.2408 0
M  V30 11055 O 1013.39 -1.88841 0.323966 0
M  V30 11056 C 1013.59 -0.579617 3.52669 0
M  V30 11057 C 1013.42 0.627992 4.45294 0
M  V30 11058 C 1012.19 1.13772 4.92325 0
M  V30 11059 C 1014.38 1.49087 4.92217 0
M  V30 11060 N 1012.37 2.30615 5.68937 0
M  V30 11061 C 1013.74 2.50604 5.67096 0
M  V30 11062 C 1015.79 1.51464 4.74303 0
M  V30 11063 C 1014.49 3.54346 6.25964 0
M  V30 11064 C 1016.52 2.54095 5.34032 0
M  V30 11065 C 1015.88 3.54337 6.0879 0
M  V30 11066 H 1011.98 -0.0460295 0.780644 0
M  V30 11067 H 1014.57 0.500733 1.88151 0
M  V30 11068 H 1012.74 -1.27656 3.66822 0
M  V30 11069 H 1014.47 -1.14908 3.88044 0
M  V30 11070 H 1011.22 0.703546 4.68345 0
M  V30 11071 H 1011.65 2.8965 6.11909 0
M  V30 11072 H 1016.29 0.753213 4.16037 0
M  V30 11073 H 1014.01 4.31375 6.83331 0
M  V30 11074 H 1017.59 2.56779 5.22069 0
M  V30 11075 H 1016.47 4.32449 6.54184 0
M  V30 11076 N 1013.98 -1.5736 0.0868897 0
M  V30 11077 C 1015.2 -1.98809 -0.590757 0
M  V30 11078 C 1015.63 -0.965407 -1.61436 0
M  V30 11079 O 1014.98 0.067143 -1.81176 0
M  V30 11080 C 1015.03 -3.39249 -1.22238 0
M  V30 11081 O 1014.14 -3.39706 -2.33824 0
M  V30 11082 H 1013.48 -0.64669 -0.150626 0
M  V30 11083 H 1016.01 -2.03927 0.165873 0
M  V30 11084 H 1016.02 -3.76765 -1.56564 0
M  V30 11085 H 1014.69 -4.13208 -0.472434 0
M  V30 11086 H 1013.27 -3.13977 -2.01178 0
M  V30 11087 N 1015.45 0.186762 -1.56489 0
M  V30 11088 C 1016.7 0.904063 -1.80752 0
M  V30 11089 C 1017.02 1.83443 -0.661343 0
M  V30 11090 O 1016.29 1.93272 0.319811 0
M  V30 11091 H 1014.87 0.336828 -0.66675 0
M  V30 11092 H 1017.54 0.190275 -1.93969 0
M  V30 11093 H 1016.63 1.49021 -2.74225 0
M  V30 11094 N 1016.93 1.50896 0.454776 0
M  V30 11095 C 1018.16 1.66239 1.22671 0
M  V30 11096 C 1018.57 0.351876 1.85899 0
M  V30 11097 O 1017.91 -0.677848 1.70736 0
M  V30 11098 C 1017.98 2.70812 2.36434 0
M  V30 11099 C 1017.64 4.13913 1.93714 0
M  V30 11100 C 1018.64 4.99259 1.45039 0
M  V30 11101 C 1016.32 4.59921 2.01937 0
M  V30 11102 C 1018.32 6.28667 1.05151 0
M  V30 11103 C 1016 5.89329 1.6166 0
M  V30 11104 C 1017 6.73529 1.13347 0
M  V30 11105 O 1016.69 8.0052 0.736354 0
M  V30 11106 H 1016.42 0.561443 0.376508 0
M  V30 11107 H 1018.97 1.97974 0.547325 0
M  V30 11108 H 1017.2 2.34355 3.07595 0
M  V30 11109 H 1018.89 2.7521 2.98353 0
M  V30 11110 H 1019.66 4.64925 1.38095 0
M  V30 11111 H 1015.54 3.94518 2.38488 0
M  V30 11112 H 1019.08 6.94339 0.673711 0
M  V30 11113 H 1014.98 6.23182 1.68269 0
M  V30 11114 H 1015.75 8.1393 0.863759 0
M  V30 11115 N 1018.41 -0.709066 1.40748 0
M  V30 11116 C 1019.36 -1.82312 1.4153 0
M  V30 11117 C 1020.33 -1.63868 0.271392 0
M  V30 11118 O 1021.51 -1.8491 0.470431 0
M  V30 11119 C 1018.65 -3.2008 1.29006 0
M  V30 11120 C 1017.77 -3.50051 2.53156 0
M  V30 11121 C 1016.9 -4.7736 2.33025 0
M  V30 11122 C 1015.94 -5.00255 3.52719 0
M  V30 11123 N 1015.08 -6.18782 3.31743 0
M  V30 11124 H 1019.92 -1.80978 2.36751 0
M  V30 11125 H 1017.45 -0.883975 1.17577 0
M  V30 11126 H 1019.41 -3.99645 1.19749 0
M  V30 11127 H 1018.04 -3.20626 0.374014 0
M  V30 11128 H 1017.09 -2.64993 2.72916 0
M  V30 11129 H 1018.41 -3.62877 3.42231 0
M  V30 11130 H 1017.56 -5.64954 2.21159 0
M  V30 11131 H 1016.3 -4.66756 1.41386 0
M  V30 11132 H 1015.3 -4.11114 3.65055 0
M  V30 11133 H 1016.53 -5.12728 4.45295 0
M  V30 11134 H 1014.47 -6.09416 2.42791 0
M  V30 11135 H 1014.39 -6.32313 4.14386 0
M  V30 11136 H 1015.66 -7.09146 3.23623 0
M  V30 11137 N 1019.89 -1.26353 -0.941956 0
M  V30 11138 C 1021.12 -1.14626 -1.72245 0
M  V30 11139 C 1021.53 0.298588 -1.86424 0
M  V30 11140 O 1020.89 1.2045 -1.37106 0
M  V30 11141 C 1020.94 -1.80933 -3.12963 0
M  V30 11142 O 1020.66 -3.19771 -2.99463 0
M  V30 11143 C 1022.16 -1.7515 -4.07231 0
M  V30 11144 H 1019.38 -0.3992 -0.539333 0
M  V30 11145 H 1021.93 -1.66958 -1.1809 0
M  V30 11146 H 1020.08 -1.32541 -3.64021 0
M  V30 11147 H 1020.5 -3.52571 -3.88322 0
M  V30 11148 H 1021.97 -2.26183 -5.03533 0
M  V30 11149 H 1022.45 -0.717855 -4.33294 0
M  V30 11150 H 1023.05 -2.2309 -3.62093 0
M  V30 11151 N 1021.37 1.14642 -1.08144 0
M  V30 11152 C 1022.3 2.21775 -0.730609 0
M  V30 11153 C 1023.28 1.67683 0.285702 0
M  V30 11154 O 1024.46 1.93567 0.156667 0
M  V30 11155 C 1021.59 3.47033 -0.136242 0
M  V30 11156 C 1020.55 4.14134 -1.0806 0
M  V30 11157 C 1019.87 5.33563 -0.348585 0
M  V30 11158 C 1021.17 4.62978 -2.41761 0
M  V30 11159 H 1022.87 2.51378 -1.62633 0
M  V30 11160 H 1020.41 1.20825 -0.783411 0
M  V30 11161 H 1022.37 4.21226 0.121182 0
M  V30 11162 H 1021.09 3.16786 0.7946 0
M  V30 11163 H 1019.75 3.41892 -1.32308 0
M  V30 11164 H 1019.4 4.99575 0.585974 0
M  V30 11165 H 1019.1 5.79402 -0.978122 0
M  V30 11166 H 1020.62 6.10519 -0.0991508 0
M  V30 11167 H 1022.04 5.28659 -2.21795 0
M  V30 11168 H 1020.43 5.1951 -3.00383 0
M  V30 11169 H 1021.5 3.78189 -3.03482 0
M  V30 11170 N 1022.85 0.866709 1.31628 0
M  V30 11171 C 1024.07 0.49039 2.01004 0
M  V30 11172 C 1024.49 -0.916244 1.65077 0
M  V30 11173 O 1023.85 -1.59975 0.8783 0
M  V30 11174 C 1023.9 0.634011 3.55897 0
M  V30 11175 O 1023.62 1.98525 3.90537 0
M  V30 11176 C 1025.12 0.258277 4.42547 0
M  V30 11177 H 1022.34 0.191421 0.643117 0
M  V30 11178 H 1024.88 1.16698 1.67934 0
M  V30 11179 H 1023.04 0.00501801 3.874 0
M  V30 11180 H 1023.45 1.99067 4.85255 0
M  V30 11181 H 1024.93 0.409733 5.50477 0
M  V30 11182 H 1025.4 -0.802301 4.3181 0
M  V30 11183 H 1026.01 0.862837 4.16456 0
M  V30 11184 N 1024.32 -1.44642 0.625825 0
M  V30 11185 C 1025.29 -2.29085 -0.072526 0
M  V30 11186 C 1026.29 -1.40755 -0.777467 0
M  V30 11187 O 1027.48 -1.62684 -0.622861 0
M  V30 11188 C 1024.61 -3.22212 -1.1132 0
M  V30 11189 H 1025.8 -2.92317 0.670124 0
M  V30 11190 H 1023.35 -1.51466 0.38571 0
M  V30 11191 H 1024.09 -2.63819 -1.88601 0
M  V30 11192 H 1023.87 -3.87299 -0.611709 0
M  V30 11193 H 1025.36 -3.8566 -1.60175 0
M  V30 11194 N 1025.8 -0.366053 -1.5329 0
M  V30 11195 C 1027.03 0.22391 -2.05383 0
M  V30 11196 C 1027.44 1.42962 -1.23929 0
M  V30 11197 O 1026.78 1.81659 -0.273072 0
M  V30 11198 C 1026.84 0.681038 -3.5299 0
M  V30 11199 C 1026.51 -0.40805 -4.55175 0
M  V30 11200 C 1027.51 -1.25806 -5.04449 0
M  V30 11201 C 1025.19 -0.568428 -4.99073 0
M  V30 11202 C 1027.18 -2.25379 -5.96224 0
M  V30 11203 C 1024.87 -1.56752 -5.90654 0
M  V30 11204 C 1025.87 -2.40864 -6.39119 0
M  V30 11205 O 1025.56 -3.39069 -7.28895 0
M  V30 11206 H 1025.29 0.0429593 -0.674634 0
M  V30 11207 H 1027.84 -0.522897 -1.98633 0
M  V30 11208 H 1026.07 1.47945 -3.5728 0
M  V30 11209 H 1027.76 1.19406 -3.8794 0
M  V30 11210 H 1028.53 -1.14536 -4.71282 0
M  V30 11211 H 1024.41 0.0764858 -4.60937 0
M  V30 11212 H 1027.95 -2.91068 -6.33976 0
M  V30 11213 H 1023.85 -1.6807 -6.23236 0
M  V30 11214 H 1024.62 -3.34804 -7.46893 0
M  V30 11215 N 1027.28 1.57312 -0.0952337 0
M  V30 11216 C 1028.53 1.94358 0.568442 0
M  V30 11217 C 1028.85 0.97698 1.68182 0
M  V30 11218 O 1028.11 -0.00340398 1.957 0
M  V30 11219 C 1028.41 3.37937 1.16332 0
M  V30 11220 C 1028.07 4.50565 0.173715 0
M  V30 11221 C 1026.74 4.81099 -0.0984673 0
M  V30 11222 C 1029.09 5.18777 -0.501992 0
M  V30 11223 C 1026.42 5.77172 -1.05305 0
M  V30 11224 C 1028.77 6.15874 -1.44505 0
M  V30 11225 C 1027.43 6.44813 -1.72546 0
M  V30 11226 H 1026.7 0.711206 0.208007 0
M  V30 11227 H 1029.35 1.90734 -0.171096 0
M  V30 11228 H 1027.65 3.3814 1.97911 0
M  V30 11229 H 1029.35 3.63902 1.68453 0
M  V30 11230 H 1025.94 4.26766 0.396042 0
M  V30 11231 H 1030.13 4.95363 -0.304855 0
M  V30 11232 H 1025.38 5.97909 -1.2773 0
M  V30 11233 H 1029.56 6.67824 -1.97444 0
M  V30 11234 H 1027.18 7.19067 -2.46671 0
M  V30 11235 N 1028.76 -0.17846 1.56586 0
M  V30 11236 C 1029.99 -0.911996 1.85715 0
M  V30 11237 C 1030.4 -1.76138 0.679766 0
M  V30 11238 O 1029.76 -1.79088 -0.351266 0
M  V30 11239 C 1029.81 -1.79459 3.1381 0
M  V30 11240 O 1029.53 -0.979476 4.2701 0
M  V30 11241 C 1031.03 -2.6384 3.56235 0
M  V30 11242 H 1028.25 -0.265299 0.616326 0
M  V30 11243 H 1030.79 -0.180704 2.037 0
M  V30 11244 H 1028.95 -2.4793 2.97673 0
M  V30 11245 H 1029.36 -1.58244 5.00059 0
M  V30 11246 H 1030.84 -3.21396 4.48786 0
M  V30 11247 H 1031.31 -3.38363 2.80013 0
M  V30 11248 H 1031.92 -2.00712 3.7496 0
M  V30 11249 N 1030.24 -1.51135 -0.446768 0
M  V30 11250 C 1031.18 -1.72328 -1.56224 0
M  V30 11251 C 1032.18 -0.589411 -1.58815 0
M  V30 11252 O 1033.38 -0.770554 -1.62673 0
M  V30 11253 H 1029.76 -0.544339 -0.518844 0
M  V30 11254 H 1031.73 -2.65851 -1.3552 0
M  V30 11255 C 1030.48 -1.85686 -2.93966 0
M  V30 11256 H 1029.8 -2.72336 -2.927 0
M  V30 11257 H 1031.24 -2.0453 -3.71407 0
M  V30 11258 C 1029.7 -0.614328 -3.31252 0
M  V30 11259 O 1030.23 0.235369 -4.0101 0
M  V30 11260 N 1028.44 -0.461181 -2.86917 0
M  V30 11261 H 1027.98 -1.15369 -2.30321 0
M  V30 11262 H 1027.94 0.368966 -3.12227 0
M  V30 11263 N 1031.71 0.701592 -1.41122 0
M  V30 11264 C 1032.94 1.48833 -1.43291 0
M  V30 11265 C 1033.35 1.89168 -0.0348668 0
M  V30 11266 O 1032.69 1.56937 0.9548 0
M  V30 11267 C 1032.76 2.78533 -2.27287 0
M  V30 11268 C 1032.42 2.60438 -3.75528 0
M  V30 11269 C 1033.42 2.26778 -4.67833 0
M  V30 11270 C 1031.1 2.76266 -4.19503 0
M  V30 11271 C 1033.1 2.09176 -6.021 0
M  V30 11272 C 1030.78 2.58281 -5.53836 0
M  V30 11273 C 1031.78 2.24786 -6.4495 0
M  V30 11274 O 1031.47 2.06952 -7.76805 0
M  V30 11275 H 1031.2 0.465401 -0.490284 0
M  V30 11276 H 1033.76 0.871843 -1.85979 0
M  V30 11277 H 1031.99 3.42566 -1.79403 0
M  V30 11278 H 1033.67 3.40312 -2.21229 0
M  V30 11279 H 1034.44 2.1417 -4.35151 0
M  V30 11280 H 1030.32 3.01322 -3.48893 0
M  V30 11281 H 1033.86 1.82955 -6.73181 0
M  V30 11282 H 1029.76 2.70478 -5.86099 0
M  V30 11283 H 1030.53 2.21762 -7.87886 0
M  V30 11284 N 1033.19 1.2685 0.935242 0
M  V30 11285 C 1034.14 1.08923 2.03481 0
M  V30 11286 C 1035.11 -0.00749786 1.66098 0
M  V30 11287 O 1036.29 0.153401 1.90182 0
M  V30 11288 C 1033.43 0.734529 3.37192 0
M  V30 11289 C 1032.55 1.90812 3.87576 0
M  V30 11290 C 1031.68 1.49599 5.097 0
M  V30 11291 C 1030.72 2.63752 5.5236 0
M  V30 11292 N 1029.86 2.23179 6.65684 0
M  V30 11293 H 1034.7 2.03016 2.18148 0
M  V30 11294 H 1032.23 1.01072 1.06878 0
M  V30 11295 H 1034.19 0.509734 4.14074 0
M  V30 11296 H 1032.82 -0.169438 3.22355 0
M  V30 11297 H 1031.87 2.24567 3.0704 0
M  V30 11298 H 1033.19 2.7647 4.1517 0
M  V30 11299 H 1032.34 1.23199 5.9406 0
M  V30 11300 H 1031.08 0.61039 4.83865 0
M  V30 11301 H 1030.08 2.90874 4.66554 0
M  V30 11302 H 1031.31 3.5292 5.80193 0
M  V30 11303 H 1029.26 1.37061 6.41522 0
M  V30 11304 H 1029.17 3.02379 6.92895 0
M  V30 11305 H 1030.44 2.00007 7.53404 0
M  V30 11306 N 1034.67 -1.14067 1.0875 0
M  V30 11307 C 1035.92 -1.85459 0.82053 0
M  V30 11308 C 1036.25 -1.82923 -0.65213 0
M  V30 11309 O 1035.52 -1.26241 -1.47965 0
M  V30 11310 C 1035.81 -3.33937 1.34752 0
M  V30 11311 C 1035.66 -3.45026 2.88578 0
M  V30 11312 C 1036.98 -4.2915 0.975636 0
M  V30 11313 H 1034.1 -0.673384 0.299538 0
M  V30 11314 H 1036.74 -1.33927 1.34772 0
M  V30 11315 H 1034.89 -3.77953 0.899086 0
M  V30 11316 H 1036.56 -3.09771 3.41818 0
M  V30 11317 H 1034.81 -2.86124 3.26061 0
M  V30 11318 H 1035.48 -4.49408 3.20526 0
M  V30 11319 H 1037.95 -3.93168 1.36228 0
M  V30 11320 H 1036.83 -5.31489 1.37152 0
M  V30 11321 H 1037.09 -4.41945 -0.116956 0
M  V30 11322 N 1036.15 -0.873678 -1.31166 0
M  V30 11323 C 1037.43 -0.40698 -1.91319 0
M  V30 11324 C 1037.81 1.1113 -1.79481 0
M  V30 11325 O 1037.15 1.94155 -1.20483 0
M  V30 11326 C 1037.36 -0.892484 -3.37396 0
M  V30 11327 C 1038.71 -0.920795 -4.14496 0
M  V30 11328 O 1039.74 -0.838386 -3.46193 0
M  V30 11329 O 1038.59 -1.04069 -5.365 0
M  V30 11330 H 1035.69 -0.122439 -0.817886 0
M  V30 11331 H 1038.23 -0.961835 -1.3981 0
M  V30 11332 H 1037.01 -1.93613 -3.40044 0
M  V30 11333 H 1036.63 -0.31615 -3.96341 0
M  V30 11334 N 1037.63 1.44308 -0.633487 0
M  V30 11335 C 1038.85 2.06897 -0.144347 0
M  V30 11336 C 1039.28 1.47045 1.173 0
M  V30 11337 O 1038.63 0.572806 1.72013 0
M  V30 11338 C 1038.68 3.60571 -0.0456324 0
M  V30 11339 O 1037.79 4.0015 0.997682 0
M  V30 11340 H 1037.13 0.658427 -0.0858499 0
M  V30 11341 H 1039.66 1.85142 -0.870833 0
M  V30 11342 H 1039.67 4.07745 0.144178 0
M  V30 11343 H 1038.34 4.03515 -1.0074 0
M  V30 11344 H 1036.92 3.64603 0.782252 0
M  V30 11345 N 1039.1 0.374177 1.53094 0
M  V30 11346 C 1040.33 -0.215903 2.06273 0
M  V30 11347 C 1040.75 -1.40979 1.24526 0
M  V30 11348 O 1040.11 -1.79331 0.266462 0
M  V30 11349 C 1040.16 -0.579089 3.5592 0
M  V30 11350 O 1039.26 -1.67516 3.76845 0
M  V30 11351 H 1038.61 -0.0293981 0.663349 0
M  V30 11352 H 1041.14 0.537271 1.9742 0
M  V30 11353 H 1041.15 -0.847678 3.99097 0
M  V30 11354 H 1039.82 0.293843 4.14861 0
M  V30 11355 H 1038.4 -1.40146 3.45563 0
M  V30 11356 N 1040.58 -1.57259 0.103575 0
M  V30 11357 C 1041.53 -2.15727 -0.869739 0
M  V30 11358 C 1042.52 -1.10236 -1.28625 0
M  V30 11359 O 1043.73 -1.28567 -1.25979 0
M  V30 11360 H 1040.11 -0.690204 -0.298535 0
M  V30 11361 H 1042.08 -2.96317 -0.351984 0
M  V30 11362 C 1040.83 -2.75905 -2.11593 0
M  V30 11363 H 1040.15 -3.56768 -1.80434 0
M  V30 11364 H 1041.59 -3.20373 -2.77736 0
M  V30 11365 C 1040.05 -1.72218 -2.89556 0
M  V30 11366 O 1040.58 -1.16623 -3.84398 0
M  V30 11367 N 1038.78 -1.42514 -2.53255 0
M  V30 11368 H 1038.33 -1.87914 -1.76198 0
M  V30 11369 H 1038.29 -0.733782 -3.05717 0
M  V30 11370 N 1042.06 0.170153 -1.56679 0
M  V30 11371 C 1043.48 0.521966 -1.50823 0
M  V30 11372 C 1043.68 1.84589 -0.808037 0
M  V30 11373 O 1042.73 2.49791 -0.368891 0
M  V30 11374 C 1044.05 0.553648 -2.95559 0
M  V30 11375 C 1045.59 0.640769 -3.06371 0
M  V30 11376 C 1046.07 0.703332 -4.52567 0
M  V30 11377 N 1047.56 0.76619 -4.56819 0
M  V30 11378 C 1048.29 0.835192 -5.67285 0
M  V30 11379 N 1047.79 0.864957 -6.87379 0
M  V30 11380 N 1049.58 0.874302 -5.55259 0
M  V30 11381 H 1041.73 -0.697952 -2.00605 0
M  V30 11382 H 1044 -0.251787 -0.913952 0
M  V30 11383 H 1043.7 -0.350498 -3.49949 0
M  V30 11384 H 1043.58 1.39973 -3.50268 0
M  V30 11385 H 1045.96 1.53534 -2.52015 0
M  V30 11386 H 1046.05 -0.232008 -2.54746 0
M  V30 11387 H 1045.69 -0.186986 -5.07556 0
M  V30 11388 H 1045.62 1.59227 -5.0195 0
M  V30 11389 H 1048.11 0.751424 -3.70354 0
M  V30 11390 H 1048.42 0.918814 -7.67318 0
M  V30 11391 H 1046.77 0.833215 -6.89987 0
M  V30 11392 H 1049.96 0.848057 -4.60354 0
M  V30 11393 H 1050.13 0.924615 -6.4137 0
M  V30 11394 N 1043.54 1.5137 0.438746 0
M  V30 11395 C 1044.78 1.64211 1.19006 0
M  V30 11396 C 1045.12 0.356607 1.90898 0
M  V30 11397 O 1044.39 -0.643722 1.83539 0
M  V30 11398 C 1044.68 2.8445 2.20817 0
M  V30 11399 C 1044.53 4.22972 1.53018 0
M  V30 11400 C 1045.85 3.00207 3.21813 0
M  V30 11401 H 1042.97 0.597628 0.431288 0
M  V30 11402 H 1045.61 1.8385 0.479487 0
M  V30 11403 H 1043.76 2.67836 2.81418 0
M  V30 11404 H 1045.43 4.5125 0.957654 0
M  V30 11405 H 1043.67 4.25736 0.832556 0
M  V30 11406 H 1044.34 5.03094 2.27158 0
M  V30 11407 H 1046.82 3.15522 2.71266 0
M  V30 11408 H 1045.7 3.85904 3.90345 0
M  V30 11409 H 1045.96 2.12216 3.87836 0
M  V30 11410 N 1045.02 -0.694098 1.41492 0
M  V30 11411 C 1046.24 -1.48286 1.44288 0
M  V30 11412 C 1046.66 -1.88737 0.0485783 0
M  V30 11413 O 1046.02 -1.56881 -0.932449 0
M  V30 11414 C 1046.07 -2.74446 2.3529 0
M  V30 11415 O 1045.79 -2.35698 3.69294 0
M  V30 11416 C 1047.29 -3.68175 2.46905 0
M  V30 11417 H 1044.51 -0.45692 0.491391 0
M  V30 11418 H 1047.05 -0.854477 1.85793 0
M  V30 11419 H 1045.21 -3.33518 1.9709 0
M  V30 11420 H 1045.62 -3.17029 4.17843 0
M  V30 11421 H 1047.1 -4.53476 3.14743 0
M  V30 11422 H 1047.57 -4.12763 1.50078 0
M  V30 11423 H 1048.18 -3.15006 2.85747 0
M  V30 11424 N 1046.49 -1.27344 -0.928501 0
M  V30 11425 C 1047.72 -1.16278 -1.70772 0
M  V30 11426 C 1048.13 0.283131 -1.8707 0
M  V30 11427 O 1047.48 1.20466 -1.38685 0
M  V30 11428 C 1047.54 -1.77313 -3.1273 0
M  V30 11429 C 1047.2 -3.26488 -3.19773 0
M  V30 11430 C 1048.2 -4.23133 -3.02083 0
M  V30 11431 C 1045.88 -3.67182 -3.42757 0
M  V30 11432 C 1047.88 -5.5845 -3.07267 0
M  V30 11433 C 1045.56 -5.02629 -3.47574 0
M  V30 11434 C 1046.56 -5.98072 -3.29847 0
M  V30 11435 O 1046.25 -7.3105 -3.34397 0
M  V30 11436 H 1045.98 -0.405215 -0.541089 0
M  V30 11437 H 1048.54 -1.68707 -1.17163 0
M  V30 11438 H 1046.77 -1.19361 -3.67818 0
M  V30 11439 H 1048.46 -1.60972 -3.72616 0
M  V30 11440 H 1049.22 -3.93031 -2.84168 0
M  V30 11441 H 1045.1 -2.93369 -3.55606 0
M  V30 11442 H 1048.64 -6.32924 -2.93348 0
M  V30 11443 H 1044.54 -5.32387 -3.65013 0
M  V30 11444 H 1045.31 -7.39488 -3.50857 0
M  V30 11445 N 1047.97 1.13488 -1.09353 0
M  V30 11446 C 1049.25 1.80998 -0.741559 0
M  V30 11447 C 1049.63 1.96418 0.773505 0
M  V30 11448 O 1048.98 1.53168 1.69563 0
M  V30 11449 C 1049.19 3.16078 -1.47972 0
M  V30 11450 C 1050.54 3.91438 -1.64504 0
M  V30 11451 O 1051.56 3.25699 -1.44218 0
M  V30 11452 O 1050.42 5.0935 -1.98054 0
M  V30 11453 H 1047.51 0.782953 -0.266297 0
M  V30 11454 H 1050.06 1.20422 -1.19569 0
M  V30 11455 H 1048.83 3.00076 -2.51137 0
M  V30 11456 H 1048.45 3.84354 -1.01772 0
M  V30 11457 N 1049.45 0.880621 1.30701 0
M  V30 11458 C 1050.7 0.497611 1.966 0
M  V30 11459 C 1051.03 -0.949901 1.69383 0
M  V30 11460 O 1050.31 -1.67054 0.996152 0
M  V30 11461 C 1050.59 0.767919 3.51817 0
M  V30 11462 C 1050.44 2.26574 3.88567 0
M  V30 11463 C 1051.76 0.241502 4.39437 0
M  V30 11464 H 1048.88 0.182267 0.714106 0
M  V30 11465 H 1051.52 1.10382 1.54648 0
M  V30 11466 H 1049.67 0.251967 3.87682 0
M  V30 11467 H 1051.34 2.84977 3.62748 0
M  V30 11468 H 1049.59 2.73411 3.36792 0
M  V30 11469 H 1050.26 2.40549 4.9683 0
M  V30 11470 H 1052.73 0.683051 4.10455 0
M  V30 11471 H 1051.61 0.459997 5.46969 0
M  V30 11472 H 1051.87 -0.857068 4.33713 0
M  V30 11473 N 1050.93 -1.4397 0.641131 0
M  V30 11474 C 1052.18 -2.02246 0.14985 0
M  V30 11475 C 1052.51 -1.50387 -1.22871 0
M  V30 11476 O 1051.78 -0.692003 -1.81773 0
M  V30 11477 C 1052.07 -3.59798 0.147449 0
M  V30 11478 C 1051.92 -4.21916 1.55907 0
M  V30 11479 C 1053.24 -4.36985 -0.522667 0
M  V30 11480 H 1050.36 -0.734875 0.0559274 0
M  V30 11481 H 1053 -1.71418 0.819513 0
M  V30 11482 H 1051.15 -3.86193 -0.422789 0
M  V30 11483 H 1052.82 -4.06594 2.17896 0
M  V30 11484 H 1051.06 -3.79028 2.10998 0
M  V30 11485 H 1051.74 -5.30964 1.50934 0
M  V30 11486 H 1054.21 -4.16083 -0.0376226 0
M  V30 11487 H 1053.09 -5.46676 -0.493572 0
M  V30 11488 H 1053.35 -4.12335 -1.59475 0
M  V30 11489 N 1052.41 -0.382291 -1.52893 0
M  V30 11490 C 1053.65 0.202133 -2.01489 0
M  V30 11491 C 1053.98 1.47399 -1.26901 0
M  V30 11492 O 1053.24 1.92439 -0.355771 0
M  V30 11493 C 1053.54 0.523437 -3.53546 0
M  V30 11494 C 1053.2 -0.656042 -4.46102 0
M  V30 11495 C 1051.86 -0.979633 -4.71123 0
M  V30 11496 C 1054.22 -1.44545 -5.00756 0
M  V30 11497 C 1051.54 -2.0943 -5.48047 0
M  V30 11498 C 1053.9 -2.55066 -5.78899 0
M  V30 11499 C 1052.56 -2.87942 -6.02201 0
M  V30 11500 H 1051.83 0.0739659 -0.737299 0
M  V30 11501 H 1054.48 -0.518196 -1.84356 0
M  V30 11502 H 1052.78 1.325 -3.68715 0
M  V30 11503 H 1054.48 0.988148 -3.88634 0
M  V30 11504 H 1051.07 -0.393818 -4.26787 0
M  V30 11505 H 1055.25 -1.20869 -4.81357 0
M  V30 11506 H 1050.51 -2.3528 -5.64317 0
M  V30 11507 H 1054.68 -3.1664 -6.20252 0
M  V30 11508 H 1052.31 -3.74435 -6.61591 0
M  V30 11509 N 1053.89 1.57202 -0.111913 0
M  V30 11510 C 1054.84 2.11487 0.851897 0
M  V30 11511 C 1055.82 1.03392 1.23284 0
M  V30 11512 O 1057.01 1.29638 1.20511 0
M  V30 11513 C 1054.14 2.71219 2.10464 0
M  V30 11514 C 1053.23 3.86384 1.74838 0
M  V30 11515 N 1053.62 4.93727 1.09852 0
M  V30 11516 C 1051.92 3.96435 2.04341 0
M  V30 11517 C 1052.62 5.74184 0.93209 0
M  V30 11518 N 1051.59 5.23771 1.45482 0
M  V30 11519 H 1055.39 2.91859 0.345791 0
M  V30 11520 H 1052.91 1.62146 0.0907816 0
M  V30 11521 H 1054.91 3.08449 2.80472 0
M  V30 11522 H 1053.57 1.92308 2.61625 0
M  V30 11523 H 1054.58 5.12244 0.763334 0
M  V30 11524 H 1051.25 3.28556 2.57599 0
M  V30 11525 H 1052.64 6.7057 0.422542 0
M  V30 11526 N 1055.36 -0.161842 1.56767 0
M  V30 11527 C 1056.61 -0.875192 1.82167 0
M  V30 11528 C 1056.93 -1.82367 0.690444 0
M  V30 11529 O 1056.2 -1.93756 -0.289023 0
M  V30 11530 H 1054.78 -0.326178 0.672024 0
M  V30 11531 H 1057.44 -0.159392 1.94247 0
M  V30 11532 H 1056.54 -1.44639 2.76561 0
M  V30 11533 N 1056.84 -1.516 -0.430713 0
M  V30 11534 C 1058.07 -1.68169 -1.20011 0
M  V30 11535 C 1058.48 -0.381406 -1.85316 0
M  V30 11536 O 1057.82 0.6506 -1.71793 0
M  V30 11537 C 1057.88 -2.7454 -2.32095 0
M  V30 11538 C 1057.55 -4.16942 -1.87104 0
M  V30 11539 C 1058.55 -5.01503 -1.37078 0
M  V30 11540 C 1056.23 -4.63075 -1.94594 0
M  V30 11541 C 1058.22 -6.3026 -0.951362 0
M  V30 11542 C 1055.91 -5.91827 -1.52264 0
M  V30 11543 C 1056.91 -6.75247 -1.02618 0
M  V30 11544 O 1056.6 -8.01591 -0.608905 0
M  V30 11545 H 1056.33 -0.567361 -0.367528 0
M  V30 11546 H 1058.88 -1.98819 -0.515759 0
M  V30 11547 H 1057.11 -2.39219 -3.03828 0
M  V30 11548 H 1058.8 -2.79921 -2.93937 0
M  V30 11549 H 1059.57 -4.67063 -1.30681 0
M  V30 11550 H 1055.45 -3.98262 -2.32182 0
M  V30 11551 H 1058.99 -6.95323 -0.563163 0
M  V30 11552 H 1054.89 -6.2578 -1.58333 0
M  V30 11553 H 1055.66 -8.15201 -0.73416 0
M  V30 11554 N 1058.32 0.686584 -1.41858 0
M  V30 11555 C 1059.25 1.81264 -1.47193 0
M  V30 11556 C 1060.23 1.66875 -0.329657 0
M  V30 11557 O 1061.42 1.86473 -0.542347 0
M  V30 11558 C 1058.55 3.19472 -1.36216 0
M  V30 11559 C 1057.5 3.4858 -2.48347 0
M  V30 11560 C 1056.83 4.86239 -2.22432 0
M  V30 11561 C 1058.13 3.46653 -3.90678 0
M  V30 11562 H 1059.82 1.77057 -2.41436 0
M  V30 11563 H 1057.37 0.850415 -1.16206 0
M  V30 11564 H 1059.32 3.97969 -1.38558 0
M  V30 11565 H 1058.04 3.24327 -0.384611 0
M  V30 11566 H 1056.7 2.72437 -2.45303 0
M  V30 11567 H 1056.35 4.8773 -1.22999 0
M  V30 11568 H 1056.05 5.06677 -2.97577 0
M  V30 11569 H 1057.57 5.67034 -2.26505 0
M  V30 11570 H 1058.99 4.15139 -3.95389 0
M  V30 11571 H 1057.38 3.78625 -4.65578 0
M  V30 11572 H 1058.45 2.45451 -4.18189 0
M  V30 11573 N 1059.8 1.27835 0.921735 0
M  V30 11574 C 1061.21 1.13151 1.48505 0
M  V30 11575 C 1061.56 -0.281373 1.94172 0
M  V30 11576 O 1060.68 -1.17487 1.8173 0
M  V30 11577 C 1061.28 2.04792 2.69899 0
M  V30 11578 C 1059.84 1.94196 3.22436 0
M  V30 11579 C 1058.99 1.96999 1.95158 0
M  V30 11580 H 1061.94 1.40641 0.735241 0
M  V30 11581 H 1061.96 1.60724 3.44889 0
M  V30 11582 H 1061.47 3.07615 2.36631 0
M  V30 11583 H 1059.57 0.943805 3.60448 0
M  V30 11584 H 1059.68 2.80744 3.88226 0
M  V30 11585 H 1058.05 1.41301 2.11911 0
M  V30 11586 H 1058.83 3.01487 1.64196 0
M  V30 11587 N 1061.28 -1.12907 1.09954 0
M  V30 11588 C 1062.22 -2.20561 0.73863 0
M  V30 11589 C 1063.22 -1.67347 -0.262944 0
M  V30 11590 O 1064.42 -1.79574 -0.123834 0
M  V30 11591 H 1060.8 -0.718823 0.220901 0
M  V30 11592 H 1062.77 -2.4826 1.65559 0
M  V30 11593 C 1061.52 -3.47227 0.181239 0
M  V30 11594 H 1060.84 -3.88516 0.943144 0
M  V30 11595 H 1062.28 -4.23987 -0.0332888 0
M  V30 11596 C 1060.74 -3.18956 -1.08485 0
M  V30 11597 O 1061.27 -3.38224 -2.1672 0
M  V30 11598 N 1059.48 -2.72797 -1.00151 0
M  V30 11599 H 1059.02 -2.57317 -0.120645 0
M  V30 11600 H 1058.98 -2.54256 -1.84935 0
M  V30 11601 N 1062.75 -0.88754 -1.30232 0
M  V30 11602 C 1063.66 -0.360333 -2.31816 0
M  V30 11603 C 1064.68 0.538741 -1.6545 0
M  V30 11604 O 1065.86 0.431246 -1.96729 0
M  V30 11605 C 1062.92 0.414336 -3.44215 0
M  V30 11606 C 1061.98 -0.514799 -4.26202 0
M  V30 11607 C 1061.21 0.222994 -5.33234 0
M  V30 11608 O 1061.44 1.44871 -5.51696 0
M  V30 11609 O 1060.37 -0.428221 -6.00375 0
M  V30 11610 H 1064.2 -1.20279 -2.78867 0
M  V30 11611 H 1061.78 -0.651459 -1.34448 0
M  V30 11612 H 1063.66 0.852859 -4.12679 0
M  V30 11613 H 1062.34 1.23305 -2.99295 0
M  V30 11614 H 1061.25 -1.00219 -3.60426 0
M  V30 11615 H 1062.58 -1.29959 -4.74733 0
M  V30 11616 N 1064.23 1.43628 -0.648757 0
M  V30 11617 C 1065.48 2.01465 -0.16002 0
M  V30 11618 C 1065.8 1.51413 1.22878 0
M  V30 11619 O 1065.07 0.724919 1.81994 0
M  V30 11620 H 1063.65 0.744885 -0.0561672 0
M  V30 11621 H 1066.31 1.75897 -0.839422 0
M  V30 11622 H 1065.41 3.1178 -0.141213 0
M  V30 11623 N 1065.71 0.390394 1.52688 0
M  V30 11624 C 1066.99 -0.249068 1.94008 0
M  V30 11625 C 1067.37 -1.64263 1.32593 0
M  V30 11626 O 1066.72 -2.23086 0.494448 0
M  V30 11627 C 1066.93 -0.274318 3.4792 0
M  V30 11628 C 1068.27 -0.502743 4.21613 0
M  V30 11629 O 1069.3 -0.35448 3.54432 0
M  V30 11630 O 1068.16 -0.79334 5.40711 0
M  V30 11631 H 1065.25 -0.155116 0.812323 0
M  V30 11632 H 1067.8 0.44498 1.63762 0
M  V30 11633 H 1066.57 0.701766 3.84956 0
M  V30 11634 H 1066.19 -1.01324 3.84473 0
M  V30 11635 N 1067.19 -1.57141 0.120249 0
M  V30 11636 C 1068.41 -2.00017 -0.548454 0
M  V30 11637 C 1068.84 -0.999433 -1.59352 0
M  V30 11638 O 1068.2 0.0286978 -1.81277 0
M  V30 11639 C 1068.24 -3.41766 -1.15015 0
M  V30 11640 O 1067.35 -3.44589 -2.26566 0
M  V30 11641 H 1066.69 -0.649739 -0.136875 0
M  V30 11642 H 1069.22 -2.03529 0.209092 0
M  V30 11643 H 1069.23 -3.80001 -1.48537 0
M  V30 11644 H 1067.9 -4.14117 -0.384681 0
M  V30 11645 H 1066.48 -3.18174 -1.94473 0
M  V30 11646 N 1068.67 0.153526 -1.5685 0
M  V30 11647 C 1069.61 1.18973 -1.97773 0
M  V30 11648 C 1070.58 1.43041 -0.844311 0
M  V30 11649 O 1071.77 1.55484 -1.10586 0
M  V30 11650 C 1068.91 2.51981 -2.35795 0
M  V30 11651 C 1068.02 2.35143 -3.62397 0
M  V30 11652 C 1067.16 3.61141 -3.89552 0
M  V30 11653 C 1066.2 3.39311 -5.09445 0
M  V30 11654 N 1065.33 4.57423 -5.32643 0
M  V30 11655 H 1070.17 0.833758 -2.86099 0
M  V30 11656 H 1067.71 0.400252 -1.4155 0
M  V30 11657 H 1069.67 3.29527 -2.55867 0
M  V30 11658 H 1068.3 2.85539 -1.50557 0
M  V30 11659 H 1067.35 1.48684 -3.50139 0
M  V30 11660 H 1068.66 2.14969 -4.501 0
M  V30 11661 H 1067.82 4.47117 -4.10087 0
M  V30 11662 H 1066.55 3.84312 -3.00259 0
M  V30 11663 H 1065.56 2.51723 -4.8879 0
M  V30 11664 H 1066.78 3.17545 -6.00285 0
M  V30 11665 H 1064.73 4.8078 -4.46303 0
M  V30 11666 H 1064.65 4.40228 -6.14602 0
M  V30 11667 H 1065.92 5.44632 -5.57671 0
M  V30 11668 N 1070.14 1.51827 0.422667 0
M  V30 11669 C 1071.09 1.74791 1.53463 0
M  V30 11670 C 1072.09 0.614602 1.57858 0
M  V30 11671 O 1073.29 0.796336 1.61426 0
M  V30 11672 H 1069.67 0.552524 0.510118 0
M  V30 11673 H 1071.64 2.67974 1.31273 0
M  V30 11674 C 1070.39 1.90339 2.90975 0
M  V30 11675 H 1069.71 2.76958 2.8833 0
M  V30 11676 H 1071.15 2.10413 3.68106 0
M  V30 11677 C 1069.61 0.66695 3.30232 0
M  V30 11678 O 1070.14 -0.171542 4.01334 0
M  V30 11679 N 1068.35 0.506768 2.86147 0
M  V30 11680 H 1067.89 1.19019 2.28456 0
M  V30 11681 H 1067.85 -0.319247 3.12775 0
M  V30 11682 N 1071.62 -0.679052 1.4222 0
M  V30 11683 C 1072.85 -1.47248 1.46058 0
M  V30 11684 C 1073.27 -1.87962 0.0720987 0
M  V30 11685 O 1072.63 -1.5572 -0.928488 0
M  V30 11686 C 1072.68 -2.70067 2.38948 0
M  V30 11687 O 1071.78 -3.68178 1.85791 0
M  V30 11688 H 1071.12 -0.442533 0.495036 0
M  V30 11689 H 1073.65 -0.833263 1.86863 0
M  V30 11690 H 1073.66 -3.18187 2.55385 0
M  V30 11691 H 1072.34 -2.39773 3.39826 0
M  V30 11692 H 1070.92 -3.2719 1.78889 0
M  V30 11693 N 1073.1 -1.28322 -0.914942 0
M  V30 11694 C 1074.03 -1.14681 -2.03398 0
M  V30 11695 C 1075.01 -0.0448939 -1.70041 0
M  V30 11696 O 1076.2 -0.221672 -1.92931 0
M  V30 11697 C 1073.33 -0.806623 -3.37803 0
M  V30 11698 C 1072.28 -1.86318 -3.85318 0
M  V30 11699 C 1071.61 -1.37665 -5.16674 0
M  V30 11700 C 1072.91 -3.26953 -4.07307 0
M  V30 11701 H 1074.6 -2.08293 -2.15068 0
M  V30 11702 H 1072.15 -1.00284 -1.03339 0
M  V30 11703 H 1074.1 -0.69796 -4.1558 0
M  V30 11704 H 1072.82 0.165203 -3.26182 0
M  V30 11705 H 1071.48 -1.96096 -3.09745 0
M  V30 11706 H 1071.13 -0.393927 -5.01455 0
M  V30 11707 H 1070.83 -2.08313 -5.49435 0
M  V30 11708 H 1072.35 -1.28119 -5.97007 0
M  V30 11709 H 1073.77 -3.20102 -4.75613 0
M  V30 11710 H 1072.17 -3.95424 -4.51398 0
M  V30 11711 H 1073.24 -3.71059 -3.12159 0
M  V30 11712 N 1074.58 1.12322 -1.10551 0
M  V30 11713 C 1075.99 1.6539 -0.8662 0
M  V30 11714 C 1076.34 1.86695 0.603284 0
M  V30 11715 O 1075.47 1.59432 1.46323 0
M  V30 11716 C 1076.06 3.00443 -1.56587 0
M  V30 11717 C 1074.62 3.50456 -1.37323 0
M  V30 11718 C 1073.77 2.25454 -1.61449 0
M  V30 11719 H 1076.72 0.960866 -1.26305 0
M  V30 11720 H 1076.74 3.66972 -1.00557 0
M  V30 11721 H 1076.25 2.84905 -2.63535 0
M  V30 11722 H 1074.35 3.71176 -0.325431 0
M  V30 11723 H 1074.46 4.29839 -2.11601 0
M  V30 11724 H 1072.83 2.32621 -1.03729 0
M  V30 11725 H 1073.61 2.12469 -2.69651 0
M  V30 11726 N 1076.06 0.894434 1.2976 0
M  V30 11727 C 1077.29 0.532143 1.99629 0
M  V30 11728 C 1077.69 -0.886234 1.6716 0
M  V30 11729 O 1077.04 -1.59573 0.910065 0
M  V30 11730 C 1077.1 0.638335 3.53787 0
M  V30 11731 C 1076.76 2.02273 4.09798 0
M  V30 11732 C 1077.76 2.99327 4.25087 0
M  V30 11733 C 1075.45 2.33069 4.44954 0
M  V30 11734 C 1077.44 4.25304 4.74758 0
M  V30 11735 C 1075.13 3.59289 4.94322 0
M  V30 11736 C 1076.12 4.55222 5.09178 0
M  V30 11737 O 1075.81 5.79202 5.57477 0
M  V30 11738 H 1075.54 0.203326 0.644697 0
M  V30 11739 H 1078.1 1.2043 1.6639 0
M  V30 11740 H 1076.33 -0.0908338 3.86593 0
M  V30 11741 H 1078.02 0.285956 4.04891 0
M  V30 11742 H 1078.78 2.76849 3.9822 0
M  V30 11743 H 1074.66 1.59162 4.32653 0
M  V30 11744 H 1078.21 5.00189 4.86269 0
M  V30 11745 H 1074.1 3.816 5.20626 0
M  V30 11746 H 1074.87 5.81717 5.75802 0
M  V30 11747 N 1077.53 -1.43282 0.656365 0
M  V30 11748 C 1078.78 -2.01378 0.170702 0
M  V30 11749 C 1079.1 -1.52063 -1.22073 0
M  V30 11750 O 1078.37 -0.73456 -1.81607 0
M  V30 11751 H 1076.95 -0.744577 0.0601168 0
M  V30 11752 H 1079.62 -1.75449 0.848739 0
M  V30 11753 H 1078.71 -3.11701 0.157745 0
M  V30 11754 N 1079.01 -0.398486 -1.52479 0
M  V30 11755 C 1079.96 0.432212 -2.26717 0
M  V30 11756 C 1080.93 1.05007 -1.28696 0
M  V30 11757 O 1082.12 1.07636 -1.57541 0
M  V30 11758 C 1079.26 1.54868 -3.08399 0
M  V30 11759 C 1078.37 0.952779 -4.21362 0
M  V30 11760 C 1077.5 2.04106 -4.90423 0
M  V30 11761 C 1076.54 1.42153 -5.95364 0
M  V30 11762 N 1075.68 2.44951 -6.57984 0
M  V30 11763 H 1080.52 -0.207303 -2.97278 0
M  V30 11764 H 1078.06 -0.114066 -1.46657 0
M  V30 11765 H 1080.01 2.20684 -3.54054 0
M  V30 11766 H 1078.64 2.15837 -2.4003 0
M  V30 11767 H 1077.7 0.183962 -3.79955 0
M  V30 11768 H 1079.01 0.460131 -4.96673 0
M  V30 11769 H 1078.16 2.77672 -5.39429 0
M  V30 11770 H 1076.9 2.56733 -4.14656 0
M  V30 11771 H 1075.91 0.671161 -5.45688 0
M  V30 11772 H 1077.13 0.903093 -6.73068 0
M  V30 11773 H 1075.08 2.9673 -5.85053 0
M  V30 11774 H 1074.99 2.00468 -7.28937 0
M  V30 11775 H 1076.26 3.18119 -7.11632 0
M  V30 11776 N 1080.49 1.57075 -0.12858 0
M  V30 11777 C 1081.74 1.94695 0.526952 0
M  V30 11778 C 1082.05 1.01482 1.67215 0
M  V30 11779 O 1083.26 1.28606 2.39108 0
M  V30 11780 C 1081.72 3.4605 0.988801 0
M  V30 11781 C 1081.32 4.47816 -0.128457 0
M  V30 11782 C 1083.07 3.92572 1.61517 0
M  V30 11783 C 1080.97 5.9036 0.350628 0
M  V30 11784 H 1079.9 0.726819 0.200623 0
M  V30 11785 H 1082.56 1.82295 -0.209972 0
M  V30 11786 H 1080.94 3.53718 1.78043 0
M  V30 11787 H 1082.11 4.51826 -0.904976 0
M  V30 11788 H 1080.43 4.11103 -0.662075 0
M  V30 11789 H 1083.02 4.96493 1.98491 0
M  V30 11790 H 1083.37 3.33085 2.49721 0
M  V30 11791 H 1083.9 3.87744 0.888768 0
M  V30 11792 H 1080.64 6.53624 -0.495592 0
M  V30 11793 H 1080.16 5.89749 1.09342 0
M  V30 11794 H 1081.84 6.41926 0.808717 0
M  V30 11795 N 1081.97 -0.145205 1.5693 0
M  V30 11796 C 1082.92 -1.19841 1.99351 0
M  V30 11797 C 1083.91 -1.44371 0.886197 0
M  V30 11798 O 1085.12 -1.44642 1.07138 0
M  V30 11799 H 1081.49 -0.403437 0.63462 0
M  V30 11800 H 1083.46 -0.813932 2.87085 0
M  V30 11801 C 1082.21 -2.52377 2.39167 0
M  V30 11802 H 1081.54 -2.34332 3.23927 0
M  V30 11803 H 1082.98 -3.24694 2.72671 0
M  V30 11804 C 1081.43 -3.1305 1.24503 0
M  V30 11805 O 1081.96 -3.97962 0.546739 0
M  V30 11806 N 1080.17 -2.72528 1.00882 0
M  V30 11807 H 1079.72 -2.03576 1.57843 0
M  V30 11808 H 1079.68 -3.13456 0.24351 0
M  V30 11809 N 1083.45 -1.52049 -0.414609 0
M  V30 11810 C 1084.7 -1.65511 -1.15977 0
M  V30 11811 C 1085.02 -0.384703 -1.91168 0
M  V30 11812 O 1084.29 0.600247 -1.86477 0
M  V30 11813 H 1082.87 -0.610039 -0.431116 0
M  V30 11814 H 1085.53 -1.8907 -0.473139 0
M  V30 11815 H 1084.62 -2.4936 -1.87686 0
M  V30 11816 N 1084.93 0.6715 -1.42579 0
M  V30 11817 C 1086.15 1.45972 -1.46628 0
M  V30 11818 C 1086.57 1.88636 -0.0785986 0
M  V30 11819 O 1085.93 1.58345 0.907372 0
M  V30 11820 C 1085.98 2.70668 -2.39627 0
M  V30 11821 O 1085.7 2.29793 -3.72997 0
M  V30 11822 C 1087.2 3.64201 -2.52731 0
M  V30 11823 H 1084.42 0.449044 -0.498598 0
M  V30 11824 H 1086.96 0.824811 -1.87129 0
M  V30 11825 H 1085.12 3.3034 -2.02371 0
M  V30 11826 H 1085.53 3.10341 -4.22834 0
M  V30 11827 H 1087.01 4.48412 -3.21918 0
M  V30 11828 H 1087.48 4.10323 -1.56626 0
M  V30 11829 H 1088.09 3.1042 -2.90722 0
M  V30 11830 N 1086.4 1.28806 0.908124 0
M  V30 11831 C 1087.63 1.1898 1.689 0
M  V30 11832 C 1088.04 -0.253334 1.87496 0
M  V30 11833 O 1087.38 -1.18245 1.40584 0
M  V30 11834 C 1087.45 1.82266 3.0987 0
M  V30 11835 C 1087.11 3.31534 3.14538 0
M  V30 11836 C 1088.11 4.27886 2.95313 0
M  V30 11837 C 1085.79 3.72589 3.36872 0
M  V30 11838 C 1087.79 5.63267 2.98343 0
M  V30 11839 C 1085.47 5.08095 3.39534 0
M  V30 11840 C 1086.47 6.03244 3.2029 0
M  V30 11841 O 1086.16 7.36277 3.22724 0
M  V30 11842 H 1085.89 0.413772 0.534574 0
M  V30 11843 H 1088.45 1.7055 1.14464 0
M  V30 11844 H 1086.68 1.25197 3.65872 0
M  V30 11845 H 1088.36 1.6688 3.70008 0
M  V30 11846 H 1089.13 3.97502 2.77879 0
M  V30 11847 H 1085.01 2.98989 3.50894 0
M  V30 11848 H 1088.55 6.37511 2.83241 0
M  V30 11849 H 1084.45 5.38126 3.56497 0
M  V30 11850 H 1085.22 7.44976 3.39048 0
M  V30 11851 N 1087.88 -1.11734 1.11145 0
M  V30 11852 C 1088.83 -2.17683 0.766979 0
M  V30 11853 C 1089.8 -1.64051 -0.260108 0
M  V30 11854 O 1090.98 -1.90302 -0.137723 0
M  V30 11855 C 1088.12 -3.44442 0.212982 0
M  V30 11856 C 1087.24 -4.12094 1.29626 0
M  V30 11857 C 1086.37 -5.26526 0.703127 0
M  V30 11858 C 1085.41 -5.86057 1.76647 0
M  V30 11859 N 1084.55 -6.91889 1.19306 0
M  V30 11860 H 1089.39 -2.46495 1.67465 0
M  V30 11861 H 1086.92 -1.21011 0.836353 0
M  V30 11862 H 1088.88 -4.17009 -0.126162 0
M  V30 11863 H 1087.51 -3.16025 -0.657888 0
M  V30 11864 H 1086.56 -3.37631 1.75241 0
M  V30 11865 H 1087.88 -4.52398 2.10089 0
M  V30 11866 H 1087.03 -6.05888 0.313859 0
M  V30 11867 H 1085.77 -4.87519 -0.132856 0
M  V30 11868 H 1084.77 -5.05375 2.16508 0
M  V30 11869 H 1086 -6.27132 2.60543 0
M  V30 11870 H 1083.95 -6.54906 0.378664 0
M  V30 11871 H 1083.86 -7.30832 1.93443 0
M  V30 11872 H 1085.13 -7.75062 0.830578 0
M  V30 11873 N 1089.36 -0.901303 -1.29284 0
M  V30 11874 C 1090.61 -0.527 -1.95108 0
M  V30 11875 C 1090.93 0.930065 -1.71391 0
M  V30 11876 O 1090.2 1.65601 -1.04658 0
M  V30 11877 H 1088.78 -0.191903 -0.721929 0
M  V30 11878 H 1091.44 -1.14795 -1.57506 0
M  V30 11879 H 1090.54 -0.710945 -3.03895 0
M  V30 11880 N 1090.84 1.42931 -0.663954 0
M  V30 11881 C 1092.07 2.06028 -0.189808 0
M  V30 11882 C 1092.48 1.49827 1.14879 0
M  V30 11883 O 1091.84 0.633778 1.71142 0
M  V30 11884 C 1091.89 3.61349 -0.104343 0
M  V30 11885 O 1091.61 4.15463 -1.39004 0
M  V30 11886 C 1093.11 4.4154 0.394599 0
M  V30 11887 H 1090.33 0.664259 -0.0948744 0
M  V30 11888 H 1092.87 1.83255 -0.907632 0
M  V30 11889 H 1091.03 3.83271 0.564103 0
M  V30 11890 H 1091.44 5.09233 -1.25626 0
M  V30 11891 H 1092.92 5.50525 0.403329 0
M  V30 11892 H 1093.39 4.1534 1.4279 0
M  V30 11893 H 1094 4.24612 -0.241729 0
M  V30 11894 N 1092.32 0.406567 1.52266 0
M  V30 11895 C 1093.23 -0.4271 2.30679 0
M  V30 11896 C 1094.24 -1.0559 1.383 0
M  V30 11897 O 1095.42 -1.05797 1.71374 0
M  V30 11898 C 1092.48 -1.53008 3.1111 0
M  V30 11899 C 1091.54 -0.924604 4.19225 0
M  V30 11900 C 1090.78 -1.97502 4.95811 0
M  V30 11901 O 1091 -3.19277 4.72671 0
M  V30 11902 O 1089.93 -1.58268 5.80719 0
M  V30 11903 H 1093.76 0.212187 3.02958 0
M  V30 11904 H 1091.34 0.169835 1.48432 0
M  V30 11905 H 1093.23 -2.17046 3.61205 0
M  V30 11906 H 1091.9 -2.15401 2.41628 0
M  V30 11907 H 1090.81 -0.247009 3.73284 0
M  V30 11908 H 1092.14 -0.34463 4.90992 0
M  V30 11909 N 1093.79 -1.57004 0.136909 0
M  V30 11910 C 1094.74 -2.16246 -0.806607 0
M  V30 11911 C 1095.71 -1.09246 -1.25118 0
M  V30 11912 O 1096.9 -1.3724 -1.32551 0
M  V30 11913 C 1094.04 -2.78031 -2.04433 0
M  V30 11914 C 1093.15 -3.99393 -1.64649 0
M  V30 11915 C 1092.28 -4.49208 -2.83524 0
M  V30 11916 C 1091.32 -5.63059 -2.40064 0
M  V30 11917 N 1090.46 -6.07537 -3.51913 0
M  V30 11918 H 1095.3 -2.9654 -0.294596 0
M  V30 11919 H 1092.84 -1.46491 -0.133705 0
M  V30 11920 H 1094.8 -3.11992 -2.76978 0
M  V30 11921 H 1093.43 -2.00398 -2.53062 0
M  V30 11922 H 1092.48 -3.71477 -0.819077 0
M  V30 11923 H 1093.79 -4.81904 -1.28723 0
M  V30 11924 H 1092.94 -4.85171 -3.64271 0
M  V30 11925 H 1091.68 -3.65683 -3.22688 0
M  V30 11926 H 1090.69 -5.26682 -1.57754 0
M  V30 11927 H 1091.91 -6.48362 -2.01997 0
M  V30 11928 H 1089.86 -5.2695 -3.90717 0
M  V30 11929 H 1089.78 -6.84949 -3.1997 0
M  V30 11930 H 1091.04 -6.48143 -4.33048 0
M  V30 11931 N 1095.27 0.136881 -1.57004 0
M  V30 11932 C 1096.18 1.18793 -2.023 0
M  V30 11933 C 1097.2 1.46412 -0.94018 0
M  V30 11934 O 1098.37 1.57883 -1.2504 0
M  V30 11935 C 1095.44 2.49903 -2.40311 0
M  V30 11936 C 1094.5 2.29841 -3.6259 0
M  V30 11937 C 1093.73 3.54699 -3.98779 0
M  V30 11938 O 1093.96 4.61291 -3.3551 0
M  V30 11939 O 1092.89 3.46761 -4.91976 0
M  V30 11940 H 1096.72 0.833345 -2.92043 0
M  V30 11941 H 1094.3 0.346361 -1.4533 0
M  V30 11942 H 1096.18 3.27183 -2.65574 0
M  V30 11943 H 1094.86 2.84872 -1.5372 0
M  V30 11944 H 1093.77 1.50478 -3.42501 0
M  V30 11945 H 1095.1 1.99784 -4.4983 0
M  V30 11946 N 1096.75 1.52266 0.40654 0
M  V30 11947 C 1097.7 1.75794 1.4955 0
M  V30 11948 C 1098.67 0.600472 1.54866 0
M  V30 11949 O 1099.85 0.838305 1.71397 0
M  V30 11950 C 1096.99 1.91682 2.86971 0
M  V30 11951 C 1096.11 3.19337 2.90943 0
M  V30 11952 C 1095.24 3.25641 4.1968 0
M  V30 11953 C 1094.28 4.47488 4.17637 0
M  V30 11954 N 1093.42 4.51171 5.37949 0
M  V30 11955 H 1098.26 2.68733 1.28789 0
M  V30 11956 H 1095.79 1.33157 0.625102 0
M  V30 11957 H 1097.75 1.98877 3.66748 0
M  V30 11958 H 1096.38 1.02121 3.06221 0
M  V30 11959 H 1095.43 3.21301 2.03642 0
M  V30 11960 H 1096.75 4.09153 2.85299 0
M  V30 11961 H 1095.9 3.31922 5.07851 0
M  V30 11962 H 1094.64 2.33769 4.28023 0
M  V30 11963 H 1093.64 4.41351 3.27856 0
M  V30 11964 H 1094.87 5.40659 4.10932 0
M  V30 11965 H 1092.81 3.62182 5.46955 0
M  V30 11966 H 1092.73 5.34835 5.3431 0
M  V30 11967 H 1094 4.61685 6.28066 0
M  V30 11968 N 1098.23 -0.663929 1.42933 0
M  V30 11969 C 1099.48 -1.41973 1.43271 0
M  V30 11970 C 1099.79 -1.95518 0.0566103 0
M  V30 11971 O 1101 -2.71428 -0.0625862 0
M  V30 11972 C 1099.45 -2.56882 2.52071 0
M  V30 11973 C 1099.06 -2.0999 3.95737 0
M  V30 11974 C 1100.8 -3.34322 2.61589 0
M  V30 11975 C 1098.71 -3.22046 4.96025 0
M  V30 11976 H 1097.64 -0.5334 0.532917 0
M  V30 11977 H 1100.29 -0.717709 1.68882 0
M  V30 11978 H 1098.67 -3.29504 2.19643 0
M  V30 11979 H 1099.85 -1.44449 4.37574 0
M  V30 11980 H 1098.16 -1.45459 3.90168 0
M  V30 11981 H 1100.76 -4.17796 3.33692 0
M  V30 11982 H 1101.1 -3.8164 1.66302 0
M  V30 11983 H 1101.64 -2.68775 2.93266 0
M  V30 11984 H 1098.38 -2.79708 5.92827 0
M  V30 11985 H 1097.9 -3.86333 4.5881 0
M  V30 11986 H 1099.57 -3.87345 5.1824 0
M  V30 11987 N 1099.71 -1.29285 -0.901281 0
M  V30 11988 C 1100.65 -1.1428 -2.00521 0
M  V30 11989 C 1101.62 -0.0365428 -1.6606 0
M  V30 11990 O 1102.81 -0.203771 -1.89709 0
M  V30 11991 C 1099.95 -0.823671 -3.35126 0
M  V30 11992 C 1099.06 -2.01021 -3.8238 0
M  V30 11993 C 1098.2 -1.6306 -5.05554 0
M  V30 11994 C 1097.24 -2.78304 -5.45173 0
M  V30 11995 N 1096.37 -2.4075 -6.59533 0
M  V30 11996 H 1101.21 -2.08729 -2.12688 0
M  V30 11997 H 1098.75 -1.0387 -1.04161 0
M  V30 11998 H 1100.71 -0.61934 -4.12577 0
M  V30 11999 H 1099.34 0.0839113 -3.22691 0
M  V30 12000 H 1098.39 -2.32629 -3.00978 0
M  V30 12001 H 1099.7 -2.8738 -4.07694 0
M  V30 12002 H 1098.86 -1.38906 -5.90584 0
M  V30 12003 H 1097.59 -0.738464 -4.82077 0
M  V30 12004 H 1096.6 -3.03142 -4.58678 0
M  V30 12005 H 1097.82 -3.68179 -5.70632 0
M  V30 12006 H 1095.77 -1.54022 -6.37662 0
M  V30 12007 H 1095.69 -3.20643 -6.84634 0
M  V30 12008 H 1096.96 -2.19912 -7.47836 0
M  V30 12009 N 1101.18 1.11143 -1.11736 0
M  V30 12010 C 1102.43 1.82948 -0.868127 0
M  V30 12011 C 1102.76 1.84813 0.606182 0
M  V30 12012 O 1102.01 1.29901 1.4637 0
M  V30 12013 C 1102.31 3.29733 -1.3788 0
M  V30 12014 C 1101.98 3.48025 -2.86687 0
M  V30 12015 C 1100.64 3.52725 -3.2732 0
M  V30 12016 C 1102.99 3.54024 -3.82513 0
M  V30 12017 C 1100.32 3.60983 -4.62502 0
M  V30 12018 C 1102.67 3.63814 -5.17515 0
M  V30 12019 C 1101.34 3.66776 -5.57702 0
M  V30 12020 H 1100.61 0.669452 -0.31767 0
M  V30 12021 H 1103.25 1.31057 -1.3963 0
M  V30 12022 H 1101.56 3.8414 -0.77093 0
M  V30 12023 H 1103.26 3.83787 -1.16225 0
M  V30 12024 H 1099.85 3.45039 -2.54256 0
M  V30 12025 H 1104.03 3.4965 -3.52219 0
M  V30 12026 H 1099.29 3.61554 -4.9304 0
M  V30 12027 H 1103.46 3.674 -5.916 0
M  V30 12028 H 1101.09 3.72927 -6.62442 0
M  V30 12029 N 1102.66 0.908147 1.28804 0
M  V30 12030 C 1103.89 0.553431 1.9988 0
M  V30 12031 C 1104.31 -0.856714 1.67458 0
M  V30 12032 O 1103.67 -1.57163 0.903849 0
M  V30 12033 C 1103.72 0.762688 3.52442 0
M  V30 12034 O 1102.82 -0.180924 4.12003 0
M  V30 12035 H 1102.16 0.215237 0.628147 0
M  V30 12036 H 1104.69 1.22205 1.64095 0
M  V30 12037 H 1104.7 0.670612 4.02451 0
M  V30 12038 H 1103.38 1.79071 3.75375 0
M  V30 12039 H 1101.96 -0.0405897 3.72878 0
M  V30 12040 N 1104.14 -1.42577 0.671525 0
M  V30 12041 C 1105.37 -2.06442 0.199152 0
M  V30 12042 C 1105.79 -1.50104 -1.1336 0
M  V30 12043 O 1105.15 -0.618211 -1.70434 0
M  V30 12044 C 1105.2 -3.60323 0.141215 0
M  V30 12045 O 1104.3 -4.02655 -0.891238 0
M  V30 12046 H 1103.64 -0.655919 0.103277 0
M  V30 12047 H 1106.17 -1.82768 0.919614 0
M  V30 12048 H 1106.18 -4.07984 -0.0360209 0
M  V30 12049 H 1104.86 -4.00702 1.11403 0
M  V30 12050 H 1103.43 -3.66549 -0.685309 0
M  V30 12051 N 1105.62 -0.414636 -1.52048 0
M  V30 12052 C 1106.53 0.414861 -2.30903 0
M  V30 12053 C 1107.54 1.04855 -1.38858 0
M  V30 12054 O 1108.72 1.04886 -1.71933 0
M  V30 12055 C 1105.79 1.51356 -3.11917 0
M  V30 12056 C 1104.85 0.902359 -4.19709 0
M  V30 12057 C 1104.08 1.9487 -4.96852 0
M  V30 12058 O 1104.3 3.16766 -4.74358 0
M  V30 12059 O 1103.24 1.55186 -5.8155 0
M  V30 12060 H 1107.06 -0.228251 -3.02841 0
M  V30 12061 H 1104.65 -0.177704 -1.48339 0
M  V30 12062 H 1106.53 2.15127 -3.62351 0
M  V30 12063 H 1105.2 2.14117 -2.42767 0
M  V30 12064 H 1104.11 0.22721 -3.73409 0
M  V30 12065 H 1105.44 0.318587 -4.91168 0
M  V30 12066 N 1107.1 1.56929 -0.145233 0
M  V30 12067 C 1108.34 1.95681 0.50532 0
M  V30 12068 C 1108.67 1.03098 1.65516 0
M  V30 12069 O 1107.94 0.0921961 1.95683 0
M  V30 12070 H 1106.52 0.72252 0.189668 0
M  V30 12071 H 1109.18 1.93651 -0.220318 0
M  V30 12072 H 1108.27 2.99359 0.882631 0
M  V30 12073 N 1108.58 -0.128553 1.57075 0
M  V30 12074 C 1109.8 -0.8564 1.88893 0
M  V30 12075 C 1110.23 -1.73095 0.736196 0
M  V30 12076 O 1109.58 -1.78567 -0.313629 0
M  V30 12077 C 1109.63 -1.67368 3.19406 0
M  V30 12078 O 1108.74 -2.77973 3.04639 0
M  V30 12079 H 1108.08 -0.237424 0.620102 0
M  V30 12080 H 1110.61 -0.113821 2.04283 0
M  V30 12081 H 1110.62 -2.0649 3.51889 0
M  V30 12082 H 1109.29 -1.03161 4.02903 0
M  V30 12083 H 1107.87 -2.42123 2.83603 0
M  V30 12084 N 1110.05 -1.5248 -0.398459 0
M  V30 12085 C 1111.3 -1.67061 -1.14441 0
M  V30 12086 C 1111.63 -0.405821 -1.90219 0
M  V30 12087 O 1110.88 0.611532 -1.859 0
M  V30 12088 C 1111.18 -2.85038 -2.15611 0
M  V30 12089 C 1110.85 -4.22847 -1.56561 0
M  V30 12090 C 1109.51 -4.60329 -1.40182 0
M  V30 12091 C 1111.86 -5.08683 -1.1354 0
M  V30 12092 C 1109.19 -5.81314 -0.793149 0
M  V30 12093 C 1111.54 -6.30284 -0.540866 0
M  V30 12094 C 1110.21 -6.66505 -0.364297 0
M  V30 12095 H 1109.48 -0.611321 -0.418769 0
M  V30 12096 H 1112.12 -1.86604 -0.430241 0
M  V30 12097 H 1110.43 -2.59873 -2.93212 0
M  V30 12098 H 1112.13 -2.93516 -2.73221 0
M  V30 12099 H 1108.72 -3.93316 -1.70295 0
M  V30 12100 H 1112.9 -4.80301 -1.24999 0
M  V30 12101 H 1108.16 -6.07994 -0.64446 0
M  V30 12102 H 1112.33 -6.96115 -0.199167 0
M  V30 12103 H 1109.96 -7.60121 0.109439 0
M  V30 12104 N 1111.53 0.65634 -1.43283 0
M  V30 12105 C 1112.81 1.41339 -1.35213 0
M  V30 12106 C 1113.19 2.111 0.00158494 0
M  V30 12107 O 1112.54 2.0457 1.018 0
M  V30 12108 C 1112.75 2.40066 -2.53317 0
M  V30 12109 C 1114.09 3.04159 -2.96264 0
M  V30 12110 O 1115.12 2.50393 -2.53341 0
M  V30 12111 O 1113.98 4.01633 -3.70612 0
M  V30 12112 H 1111.07 0.631325 -0.534189 0
M  V30 12113 H 1113.62 0.68351 -1.55326 0
M  V30 12114 H 1112.39 1.87444 -3.43483 0
M  V30 12115 H 1112.01 3.20509 -2.35287 0
M  V30 12116 N 1113.01 1.29761 0.894412 0
M  V30 12117 C 1114.42 1.16275 1.46072 0
M  V30 12118 C 1114.77 -0.240123 1.94725 0
M  V30 12119 O 1113.9 -1.13606 1.84181 0
M  V30 12120 C 1114.49 2.10471 2.65494 0
M  V30 12121 C 1113.05 2.00992 3.18244 0
M  V30 12122 C 1112.2 2.01094 1.90936 0
M  V30 12123 H 1115.15 1.42169 0.705243 0
M  V30 12124 H 1115.17 1.68003 3.41402 0
M  V30 12125 H 1114.68 3.12566 2.30053 0
M  V30 12126 H 1112.78 1.02005 3.58365 0
M  V30 12127 H 1112.9 2.88916 3.82184 0
M  V30 12128 H 1111.26 1.45764 2.08866 0
M  V30 12129 H 1112.04 3.04902 1.57764 0
M  V30 12130 N 1114.49 -1.10549 1.12324 0
M  V30 12131 C 1115.76 -1.78968 0.789287 0
M  V30 12132 C 1116.14 -1.984 -0.721156 0
M  V30 12133 O 1115.49 -1.5761 -1.65443 0
M  V30 12134 C 1115.7 -3.12044 1.563 0
M  V30 12135 C 1117.05 -3.86939 1.74825 0
M  V30 12136 O 1118.07 -3.21761 1.52802 0
M  V30 12137 O 1116.93 -5.0392 2.11488 0
M  V30 12138 H 1114.03 -0.775617 0.286962 0
M  V30 12139 H 1116.57 -1.17209 1.2272 0
M  V30 12140 H 1115.35 -2.93313 2.59005 0
M  V30 12141 H 1114.97 -3.81521 1.11926 0
M  V30 12142 N 1115.97 -0.914965 -1.28321 0
M  V30 12143 C 1117.21 -0.547665 -1.94538 0
M  V30 12144 C 1117.53 0.911834 -1.72368 0
M  V30 12145 O 1116.8 1.64481 -1.06408 0
M  V30 12146 H 1115.38 -0.199549 -0.719853 0
M  V30 12147 H 1118.05 -1.16459 -1.5628 0
M  V30 12148 H 1117.14 -0.743138 -3.03124 0
M  V30 12149 N 1117.44 1.42219 -0.679077 0
M  V30 12150 C 1118.39 2.308 -0.00340316 0
M  V30 12151 C 1119.36 1.462 0.788334 0
M  V30 12152 O 1120.55 1.75023 0.759716 0
M  V30 12153 C 1117.69 3.32084 0.938854 0
M  V30 12154 C 1116.8 4.31772 0.140485 0
M  V30 12155 C 1115.93 5.20128 1.07888 0
M  V30 12156 C 1114.97 6.11493 0.27245 0
M  V30 12157 N 1114.11 6.92388 1.16378 0
M  V30 12158 H 1118.95 2.88024 -0.764587 0
M  V30 12159 H 1116.49 1.41869 -0.38878 0
M  V30 12160 H 1118.44 3.89339 1.49903 0
M  V30 12161 H 1117.07 2.76448 1.66662 0
M  V30 12162 H 1116.13 3.76599 -0.536376 0
M  V30 12163 H 1117.44 4.96432 -0.485433 0
M  V30 12164 H 1116.59 5.82137 1.70884 0
M  V30 12165 H 1115.33 4.55655 1.73868 0
M  V30 12166 H 1114.34 5.48549 -0.370693 0
M  V30 12167 H 1115.56 6.78017 -0.383315 0
M  V30 12168 H 1113.51 6.30538 1.8099 0
M  V30 12169 H 1113.42 7.5367 0.593043 0
M  V30 12170 H 1114.69 7.58879 1.78107 0
M  V30 12171 N 1118.92 0.422693 1.51826 0
M  V30 12172 C 1120.17 -0.150066 2.01141 0
M  V30 12173 C 1120.48 -1.45059 1.31214 0
M  V30 12174 O 1121.69 -2.10542 1.71419 0
M  V30 12175 C 1120.15 -0.317985 3.58492 0
M  V30 12176 C 1119.75 0.971244 4.37345 0
M  V30 12177 C 1121.5 -0.845303 4.15999 0
M  V30 12178 C 1119.4 0.769769 5.86369 0
M  V30 12179 H 1118.33 -0.0598567 0.75162 0
M  V30 12180 H 1120.99 0.550217 1.75057 0
M  V30 12181 H 1119.37 -1.08092 3.80962 0
M  V30 12182 H 1120.54 1.74138 4.26629 0
M  V30 12183 H 1118.86 1.42599 3.91222 0
M  V30 12184 H 1121.45 -1.01229 5.2503 0
M  V30 12185 H 1121.8 -1.82375 3.74226 0
M  V30 12186 H 1122.33 -0.141067 3.9755 0
M  V30 12187 H 1119.07 1.72017 6.32527 0
M  V30 12188 H 1118.59 0.0391717 5.99787 0
M  V30 12189 H 1120.27 0.417225 6.45653 0
M  V30 12190 N 1120.4 -1.5685 0.153553 0
M  V30 12191 C 1121.65 -1.96625 -0.49665 0
M  V30 12192 C 1121.98 -1.03877 -1.64083 0
M  V30 12193 O 1121.25 -0.0824112 -1.94325 0
M  V30 12194 C 1121.54 -3.46035 -0.996585 0
M  V30 12195 C 1121.39 -4.49561 0.146551 0
M  V30 12196 C 1122.71 -3.98104 -1.8762 0
M  V30 12197 H 1119.83 -0.714917 -0.179059 0
M  V30 12198 H 1122.47 -1.88527 0.236104 0
M  V30 12199 H 1120.62 -3.53066 -1.621 0
M  V30 12200 H 1122.29 -4.54604 0.783108 0
M  V30 12201 H 1120.53 -4.26271 0.804727 0
M  V30 12202 H 1121.21 -5.51456 -0.245078 0
M  V30 12203 H 1123.68 -3.93593 -1.34997 0
M  V30 12204 H 1122.56 -5.03098 -2.19508 0
M  V30 12205 H 1122.82 -3.40852 -2.81554 0
M  V30 12206 N 1121.88 0.120221 -1.57141 0
M  V30 12207 C 1123.1 0.84637 -1.89344 0
M  V30 12208 C 1123.53 1.72702 -0.745365 0
M  V30 12209 O 1122.89 1.7873 0.304155 0
M  V30 12210 C 1122.93 1.65671 -3.20289 0
M  V30 12211 O 1122.04 2.76353 -3.06109 0
M  V30 12212 H 1121.38 0.234132 -0.621352 0
M  V30 12213 H 1123.91 0.102986 -2.04341 0
M  V30 12214 H 1123.92 2.04621 -3.52979 0
M  V30 12215 H 1122.59 1.01023 -4.03444 0
M  V30 12216 H 1121.17 2.40615 -2.84884 0
M  V30 12217 N 1123.36 1.52689 0.390367 0
M  V30 12218 C 1124.59 1.71292 1.1551 0
M  V30 12219 C 1124.99 0.430405 1.84239 0
M  V30 12220 O 1124.34 -0.604823 1.73458 0
M  V30 12221 C 1124.4 2.80597 2.24735 0
M  V30 12222 C 1124.06 4.21757 1.75984 0
M  V30 12223 C 1125.06 5.04961 1.23733 0
M  V30 12224 C 1122.75 4.68071 1.82248 0
M  V30 12225 C 1124.74 6.32561 0.783926 0
M  V30 12226 C 1122.43 5.95656 1.36519 0
M  V30 12227 C 1123.42 6.7773 0.846786 0
M  V30 12228 O 1123.11 8.02923 0.396164 0
M  V30 12229 H 1122.84 0.576906 0.352356 0
M  V30 12230 H 1125.4 2.00117 0.462865 0
M  V30 12231 H 1123.63 2.4719 2.97378 0
M  V30 12232 H 1125.32 2.87616 2.86412 0
M  V30 12233 H 1126.08 4.70363 1.18251 0
M  V30 12234 H 1121.96 4.04278 2.21541 0
M  V30 12235 H 1125.51 6.96572 0.378612 0
M  V30 12236 H 1121.4 6.29758 1.41686 0
M  V30 12237 H 1122.17 8.16861 0.517766 0
M  V30 12238 N 1124.83 -0.648732 1.43629 0
M  V30 12239 C 1125.74 -1.79046 1.51591 0
M  V30 12240 C 1126.76 -1.69276 0.402697 0
M  V30 12241 O 1127.94 -1.90366 0.657484 0
M  V30 12242 C 1125 -3.15347 1.44073 0
M  V30 12243 C 1124.06 -3.3688 2.66102 0
M  V30 12244 C 1123.3 -4.66679 2.58933 0
M  V30 12245 O 1123.52 -5.46328 1.63956 0
M  V30 12246 O 1122.45 -4.9003 3.49506 0
M  V30 12247 H 1126.28 -1.75283 2.48011 0
M  V30 12248 H 1123.86 -0.807774 1.2568 0
M  V30 12249 H 1125.75 -3.96633 1.42339 0
M  V30 12250 H 1124.42 -3.19691 0.50789 0
M  V30 12251 H 1123.33 -2.55341 2.73407 0
M  V30 12252 H 1124.66 -3.37386 3.58373 0
M  V30 12253 N 1126.31 -1.30234 -0.887518 0
M  V30 12254 C 1127.56 -1.20096 -1.6416 0
M  V30 12255 C 1127.91 0.24253 -1.90865 0
M  V30 12256 O 1127.21 1.17078 -1.51668 0
M  V30 12257 C 1127.4 -1.96046 -2.98832 0
M  V30 12258 C 1127.23 -3.47633 -2.85274 0
M  V30 12259 C 1126 -4.16989 -2.85392 0
M  V30 12260 C 1128.2 -4.42911 -2.61409 0
M  V30 12261 N 1126.18 -5.54854 -2.62699 0
M  V30 12262 C 1127.55 -5.68321 -2.47813 0
M  V30 12263 C 1129.61 -4.32535 -2.46613 0
M  V30 12264 C 1128.31 -6.84532 -2.20927 0
M  V30 12265 C 1130.33 -5.4851 -2.21112 0
M  V30 12266 C 1129.7 -6.729 -2.08291 0
M  V30 12267 H 1125.8 -0.494513 -0.605789 0
M  V30 12268 H 1128.38 -1.64213 -1.04605 0
M  V30 12269 H 1126.55 -1.54324 -3.56425 0
M  V30 12270 H 1128.28 -1.78072 -3.63418 0
M  V30 12271 H 1125.04 -3.68798 -2.97128 0
M  V30 12272 H 1125.46 -6.27395 -2.54371 0
M  V30 12273 H 1130.1 -3.37047 -2.55262 0
M  V30 12274 H 1127.82 -7.80063 -2.11015 0
M  V30 12275 H 1131.41 -5.42389 -2.1049 0
M  V30 12276 H 1130.29 -7.61125 -1.88833 0
M  V30 12277 N 1127.79 1.09952 -1.12909 0
M  V30 12278 C 1129.07 1.78547 -0.798767 0
M  V30 12279 C 1129.45 1.9878 0.710624 0
M  V30 12280 O 1128.8 1.58485 1.64604 0
M  V30 12281 C 1129.01 3.1121 -1.57953 0
M  V30 12282 C 1130.35 3.86006 -1.76874 0
M  V30 12283 O 1131.38 3.20946 -1.54506 0
M  V30 12284 O 1130.24 5.02791 -2.14158 0
M  V30 12285 H 1127.33 0.774084 -0.291072 0
M  V30 12286 H 1129.88 1.16557 -1.2334 0
M  V30 12287 H 1128.65 2.91935 -2.60557 0
M  V30 12288 H 1128.27 3.80922 -1.13948 0
M  V30 12289 N 1129.27 0.921757 1.27833 0
M  V30 12290 C 1130.52 0.559078 1.94629 0
M  V30 12291 C 1130.84 -0.898641 1.72495 0
M  V30 12292 O 1130.1 -1.65546 1.0437 0
M  V30 12293 C 1130.4 0.824259 3.47765 0
M  V30 12294 C 1130.06 2.26278 3.90011 0
M  V30 12295 C 1128.73 2.65607 4.01256 0
M  V30 12296 C 1131.08 3.19853 4.11513 0
M  V30 12297 C 1128.41 3.97646 4.31387 0
M  V30 12298 C 1130.76 4.51467 4.43126 0
M  V30 12299 C 1129.42 4.90637 4.52583 0
M  V30 12300 H 1128.69 0.204581 0.712199 0
M  V30 12301 H 1131.34 1.1646 1.52018 0
M  V30 12302 H 1129.64 0.136011 3.91564 0
M  V30 12303 H 1131.34 0.522701 3.97579 0
M  V30 12304 H 1127.93 1.94765 3.81791 0
M  V30 12305 H 1132.11 2.90674 4.02271 0
M  V30 12306 H 1127.37 4.27685 4.36916 0
M  V30 12307 H 1131.54 5.23982 4.58711 0
M  V30 12308 H 1129.17 5.92982 4.75685 0
M  V30 12309 N 1130.75 -1.41857 0.686609 0
M  V30 12310 C 1131.99 -2.0097 0.213378 0
M  V30 12311 C 1132.32 -1.54618 -1.1882 0
M  V30 12312 O 1131.59 -0.772916 -1.80008 0
M  V30 12313 H 1130.17 -0.743134 0.0758968 0
M  V30 12314 H 1132.83 -1.73609 0.885763 0
M  V30 12315 H 1131.92 -3.11296 0.223826 0
M  V30 12316 N 1132.22 -0.430739 -1.51599 0
M  V30 12317 C 1133.5 0.197543 -1.946 0
M  V30 12318 C 1133.88 1.6069 -1.36901 0
M  V30 12319 O 1133.23 2.21697 -0.553422 0
M  V30 12320 C 1133.44 0.181976 -3.48525 0
M  V30 12321 C 1134.79 0.390783 -4.22798 0
M  V30 12322 O 1135.81 0.260384 -3.55247 0
M  V30 12323 O 1134.67 0.649701 -5.42624 0
M  V30 12324 H 1131.76 0.133524 -0.81615 0
M  V30 12325 H 1134.31 -0.488243 -1.62525 0
M  V30 12326 H 1133.08 -0.803584 -3.8296 0
M  V30 12327 H 1132.71 0.910952 -3.87024 0
M  V30 12328 N 1133.7 1.56767 -0.161869 0
M  V30 12329 C 1134.95 1.96206 0.484537 0
M  V30 12330 C 1135.27 1.04848 1.64414 0
M  V30 12331 O 1134.54 0.112946 1.95574 0
M  V30 12332 H 1133.12 0.724491 0.181994 0
M  V30 12333 H 1135.78 1.93406 -0.240845 0
M  V30 12334 H 1134.88 3.00279 0.85083 0
M  V30 12335 N 1135.18 -0.111886 1.57202 0
M  V30 12336 C 1136.13 -1.15585 2.01849 0
M  V30 12337 C 1137.12 -1.42458 0.916621 0
M  V30 12338 O 1138.33 -1.42337 1.10182 0
M  V30 12339 H 1134.7 -0.389885 0.643035 0
M  V30 12340 H 1136.67 -0.752854 2.88747 0
M  V30 12341 C 1135.42 -2.47247 2.44467 0
M  V30 12342 H 1134.75 -2.27409 3.28824 0
M  V30 12343 H 1136.19 -3.18837 2.79497 0
M  V30 12344 C 1134.65 -3.10339 1.31115 0
M  V30 12345 O 1135.18 -3.96713 0.631029 0
M  V30 12346 N 1133.38 -2.70326 1.0664 0
M  V30 12347 H 1132.93 -2.00182 1.62126 0
M  V30 12348 H 1132.89 -3.12869 0.309944 0
M  V30 12349 N 1136.66 -1.52894 -0.382264 0
M  V30 12350 C 1137.61 -1.78151 -1.46734 0
M  V30 12351 C 1138.58 -0.625034 -1.53891 0
M  V30 12352 O 1139.76 -0.865467 -1.70042 0
M  V30 12353 C 1136.9 -1.96223 -2.83885 0
M  V30 12354 C 1136.01 -3.23925 -2.85826 0
M  V30 12355 C 1135.15 -3.32277 -4.14446 0
M  V30 12356 C 1134.19 -4.54076 -4.10465 0
M  V30 12357 N 1133.32 -4.59672 -5.30703 0
M  V30 12358 H 1138.16 -2.70748 -1.24497 0
M  V30 12359 H 1135.7 -1.34135 -0.603838 0
M  V30 12360 H 1137.66 -2.04686 -3.63537 0
M  V30 12361 H 1136.29 -1.0698 -3.04557 0
M  V30 12362 H 1135.34 -3.245 -1.98505 0
M  V30 12363 H 1136.65 -4.1364 -2.78754 0
M  V30 12364 H 1135.81 -3.3996 -5.02506 0
M  V30 12365 H 1134.55 -2.40548 -4.2425 0
M  V30 12366 H 1133.55 -4.46511 -3.20793 0
M  V30 12367 H 1134.78 -5.47128 -4.02278 0
M  V30 12368 H 1132.72 -3.70838 -5.41124 0
M  V30 12369 H 1132.64 -5.43268 -5.25734 0
M  V30 12370 H 1133.91 -4.71618 -6.20642 0
M  V30 12371 N 1138.14 0.641106 -1.43971 0
M  V30 12372 C 1139.36 1.43324 -1.4991 0
M  V30 12373 C 1139.79 1.87705 -0.121908 0
M  V30 12374 O 1139.15 1.58127 0.886875 0
M  V30 12375 C 1139.19 2.63637 -2.46025 0
M  V30 12376 O 1138.3 3.63123 -1.95488 0
M  V30 12377 H 1137.64 0.429252 -0.506595 0
M  V30 12378 H 1140.17 0.783427 -1.89007 0
M  V30 12379 H 1140.18 3.11304 -2.63731 0
M  V30 12380 H 1138.85 2.30678 -3.46064 0
M  V30 12381 H 1137.43 3.22332 -1.87501 0
M  V30 12382 N 1139.62 1.30703 0.880598 0
M  V30 12383 C 1140.56 1.17369 2.00817 0
M  V30 12384 C 1141.56 0.0845159 1.69189 0
M  V30 12385 O 1142.76 0.245673 1.78316 0
M  V30 12386 H 1139.14 0.363107 0.658527 0
M  V30 12387 H 1141.11 2.12789 2.09197 0
M  V30 12388 C 1139.86 0.886851 3.362 0
M  V30 12389 H 1139.18 1.71704 3.61051 0
M  V30 12390 H 1140.62 0.83368 4.15723 0
M  V30 12391 C 1139.08 -0.410293 3.34392 0
M  V30 12392 O 1139.61 -1.43044 3.75368 0
M  V30 12393 N 1137.82 -0.423023 2.87505 0
M  V30 12394 H 1137.36 0.407637 2.54354 0
M  V30 12395 H 1137.32 -1.29086 2.86678 0
M  V30 12396 N 1141.09 -1.09351 1.1349 0
M  V30 12397 C 1142 -2.19564 0.826366 0
M  V30 12398 C 1143.02 -1.72967 -0.189339 0
M  V30 12399 O 1144.2 -2.0139 -0.0202033 0
M  V30 12400 C 1141.26 -3.4542 0.297685 0
M  V30 12401 C 1140.32 -4.06694 1.37473 0
M  V30 12402 C 1139.55 -5.26542 0.871183 0
M  V30 12403 O 1139.78 -5.69657 -0.290958 0
M  V30 12404 O 1138.71 -5.78961 1.64584 0
M  V30 12405 H 1142.54 -2.4841 1.74718 0
M  V30 12406 H 1140.12 -1.18302 0.912414 0
M  V30 12407 H 1142 -4.21399 0.00829479 0
M  V30 12408 H 1140.68 -3.18175 -0.595536 0
M  V30 12409 H 1139.59 -3.32347 1.71745 0
M  V30 12410 H 1140.92 -4.38166 2.24212 0
M  V30 12411 N 1142.57 -0.928524 -1.27343 0
M  V30 12412 C 1143.48 -0.433901 -2.30553 0
M  V30 12413 C 1144.5 0.485832 -1.6708 0
M  V30 12414 O 1145.67 0.36844 -1.98001 0
M  V30 12415 C 1142.74 0.304617 -3.45359 0
M  V30 12416 C 1141.8 -0.650131 -4.24349 0
M  V30 12417 C 1141.03 0.0532372 -5.33673 0
M  V30 12418 O 1141.26 1.27246 -5.56026 0
M  V30 12419 O 1140.19 -0.619009 -5.98709 0
M  V30 12420 H 1144.02 -1.2909 -2.74899 0
M  V30 12421 H 1141.6 -0.693903 -1.32308 0
M  V30 12422 H 1143.48 0.721137 -4.15184 0
M  V30 12423 H 1142.16 1.13721 -3.03066 0
M  V30 12424 H 1141.06 -1.11635 -3.57055 0
M  V30 12425 H 1142.4 -1.44996 -4.70358 0
M  V30 12426 N 1144.05 1.41491 -0.694123 0
M  V30 12427 C 1145 2.32594 -0.0164704 0
M  V30 12428 C 1145.99 1.50884 0.770086 0
M  V30 12429 O 1147.2 1.66829 0.675871 0
M  V30 12430 H 1143.57 0.751879 0.0134743 0
M  V30 12431 H 1145.54 2.87423 -0.80191 0
M  V30 12432 C 1144.29 3.35661 0.90703 0
M  V30 12433 H 1143.62 3.98587 0.311205 0
M  V30 12434 H 1145.06 4.0195 1.34952 0
M  V30 12435 C 1143.51 2.69436 2.02253 0
M  V30 12436 O 1144.04 2.54107 3.11115 0
M  V30 12437 N 1142.25 2.28154 1.79984 0
M  V30 12438 H 1141.8 2.40821 0.914492 0
M  V30 12439 H 1141.76 1.84178 2.54805 0
M  V30 12440 N 1145.53 0.438773 1.51369 0
M  V30 12441 C 1146.94 -0.0240139 1.86685 0
M  V30 12442 C 1147.29 -1.41816 1.35583 0
M  V30 12443 O 1146.41 -2.04517 0.707232 0
M  V30 12444 C 1147.01 -0.0503527 3.38763 0
M  V30 12445 C 1145.57 -0.457556 3.73609 0
M  V30 12446 C 1144.72 0.348852 2.75097 0
M  V30 12447 H 1147.67 0.654552 1.44573 0
M  V30 12448 H 1147.69 -0.859534 3.70665 0
M  V30 12449 H 1147.2 0.964451 3.75925 0
M  V30 12450 H 1145.3 -1.47791 3.42036 0
M  V30 12451 H 1145.41 -0.181357 4.78757 0
M  V30 12452 H 1143.78 -0.193037 2.53967 0
M  V30 12453 H 1144.56 1.36256 3.15102 0
M  V30 12454 N 1147.01 -1.56678 0.170181 0
M  V30 12455 C 1147.92 -2.21496 -0.773079 0
M  V30 12456 C 1148.93 -1.20626 -1.25401 0
M  V30 12457 O 1150.11 -1.53283 -1.30638 0
M  V30 12458 C 1147.17 -2.8421 -1.98558 0
M  V30 12459 C 1146.23 -4.00278 -1.55164 0
M  V30 12460 C 1145.47 -4.59992 -2.70634 0
M  V30 12461 O 1145.69 -4.18595 -3.87472 0
M  V30 12462 O 1144.62 -5.49881 -2.44775 0
M  V30 12463 H 1148.45 -3.02659 -0.251195 0
M  V30 12464 H 1146.03 -1.49288 -0.0579621 0
M  V30 12465 H 1147.92 -3.2398 -2.69472 0
M  V30 12466 H 1146.59 -2.06045 -2.49654 0
M  V30 12467 H 1145.5 -3.6518 -0.812038 0
M  V30 12468 H 1146.83 -4.80033 -1.0876 0
M  V30 12469 N 1148.48 0.103547 -1.57259 0
M  V30 12470 C 1149.43 1.13239 -1.97891 0
M  V30 12471 C 1150.42 1.36234 -0.856105 0
M  V30 12472 O 1151.61 1.37067 -1.11989 0
M  V30 12473 C 1148.74 2.4549 -2.39979 0
M  V30 12474 C 1147.82 2.25905 -3.58926 0
M  V30 12475 N 1148.22 1.76167 -4.7413 0
M  V30 12476 C 1146.51 2.56503 -3.64859 0
M  V30 12477 C 1147.21 1.70653 -5.56105 0
M  V30 12478 N 1146.19 2.15562 -4.99033 0
M  V30 12479 H 1149.99 0.740638 -2.84415 0
M  V30 12480 H 1147.51 0.311091 -1.59393 0
M  V30 12481 H 1149.5 3.19922 -2.67312 0
M  V30 12482 H 1148.16 2.8541 -1.54827 0
M  V30 12483 H 1149.17 1.45487 -4.97045 0
M  V30 12484 H 1145.85 3.00005 -2.9035 0
M  V30 12485 H 1147.24 1.33321 -6.5854 0
M  V30 12486 N 1149.96 1.53094 0.37415 0
M  V30 12487 C 1151.19 1.73061 1.143 0
M  V30 12488 C 1151.61 0.454611 1.82524 0
M  V30 12489 O 1150.97 -0.590743 1.71406 0
M  V30 12490 C 1151.02 2.89086 2.15549 0
M  V30 12491 O 1150.12 2.57096 3.22452 0
M  V30 12492 H 1149.46 0.575009 0.332055 0
M  V30 12493 H 1151.99 1.99946 0.433897 0
M  V30 12494 H 1152 3.15007 2.59296 0
M  V30 12495 H 1150.68 3.81647 1.65283 0
M  V30 12496 H 1149.25 2.41965 2.83738 0
M  V30 12497 N 1151.44 -0.633461 1.44309 0
M  V30 12498 C 1152.67 -1.41827 1.50229 0
M  V30 12499 C 1153.08 -1.88786 0.125082 0
M  V30 12500 O 1152.42 -1.61314 -0.878836 0
M  V30 12501 C 1152.48 -2.67372 2.40317 0
M  V30 12502 C 1152.15 -2.42224 3.87526 0
M  V30 12503 C 1153.14 -2.04199 4.7812 0
M  V30 12504 C 1150.83 -2.55936 4.32206 0
M  V30 12505 C 1152.82 -1.80211 6.11394 0
M  V30 12506 C 1150.51 -2.31563 5.65528 0
M  V30 12507 C 1151.51 -1.93758 6.5494 0
M  V30 12508 O 1151.2 -1.69654 7.85794 0
M  V30 12509 H 1150.93 -0.441478 0.51193 0
M  V30 12510 H 1153.48 -0.782118 1.89927 0
M  V30 12511 H 1151.71 -3.33616 1.95543 0
M  V30 12512 H 1153.4 -3.2937 2.37214 0
M  V30 12513 H 1154.17 -1.93164 4.44874 0
M  V30 12514 H 1150.05 -2.84333 3.62872 0
M  V30 12515 H 1153.59 -1.50628 6.81144 0
M  V30 12516 H 1149.49 -2.42206 5.98336 0
M  V30 12517 H 1150.25 -1.83919 7.97569 0
M  V30 12518 N 1152.92 -1.31168 -0.873655 0
M  V30 12519 C 1154.2 -1.11285 -1.60857 0
M  V30 12520 C 1154.58 0.333788 -2.08444 0
M  V30 12521 O 1153.92 1.32726 -1.86 0
M  V30 12522 C 1154.13 -2.12379 -2.7694 0
M  V30 12523 C 1155.48 -2.44704 -3.46994 0
M  V30 12524 O 1156.51 -2.10778 -2.87143 0
M  V30 12525 O 1155.36 -3.02786 -4.54954 0
M  V30 12526 H 1152.46 -0.428177 -0.707526 0
M  V30 12527 H 1155 -1.42634 -0.91944 0
M  V30 12528 H 1153.78 -3.09703 -2.39164 0
M  V30 12529 H 1153.4 -1.81914 -3.53544 0
M  V30 12530 N 1154.4 1.08748 -1.14068 0
M  V30 12531 C 1155.34 2.15573 -0.824425 0
M  V30 12532 C 1156.31 1.64683 0.216522 0
M  V30 12533 O 1157.5 1.90601 0.0872193 0
M  V30 12534 C 1154.64 3.43756 -0.30423 0
M  V30 12535 C 1153.75 4.08512 -1.40506 0
M  V30 12536 C 1152.89 5.24477 -0.842479 0
M  V30 12537 C 1151.93 5.81167 -1.92123 0
M  V30 12538 N 1151.06 6.88483 -1.37608 0
M  V30 12539 H 1155.9 2.41968 -1.73941 0
M  V30 12540 H 1153.44 1.18751 -0.868143 0
M  V30 12541 H 1155.4 4.17197 0.0155546 0
M  V30 12542 H 1154.03 3.17658 0.573868 0
M  V30 12543 H 1153.08 3.32866 -1.84131 0
M  V30 12544 H 1154.39 4.46669 -2.2201 0
M  V30 12545 H 1153.55 6.04842 -0.474389 0
M  V30 12546 H 1152.28 4.877 0.00355212 0
M  V30 12547 H 1151.29 4.99458 -2.29831 0
M  V30 12548 H 1152.51 6.20003 -2.77079 0
M  V30 12549 H 1150.46 6.53672 -0.552168 0
M  V30 12550 H 1150.38 7.25446 -2.12752 0
M  V30 12551 H 1151.65 7.72588 -1.03578 0
M  V30 12552 N 1155.87 0.935264 1.26849 0
M  V30 12553 C 1157.12 0.580548 1.94313 0
M  V30 12554 C 1157.45 -0.877205 1.73259 0
M  V30 12555 O 1156.73 -1.62679 1.06611 0
M  V30 12556 C 1157.01 0.916445 3.48243 0
M  V30 12557 C 1156.86 2.42851 3.78607 0
M  V30 12558 C 1158.18 0.427665 4.38017 0
M  V30 12559 H 1155.3 0.21239 0.705733 0
M  V30 12560 H 1157.94 1.16841 1.49827 0
M  V30 12561 H 1156.09 0.416169 3.86265 0
M  V30 12562 H 1157.77 3.00106 3.50335 0
M  V30 12563 H 1156.01 2.8745 3.24892 0
M  V30 12564 H 1156.68 2.61405 4.8618 0
M  V30 12565 H 1159.16 0.856525 4.07189 0
M  V30 12566 H 1158.03 0.691571 5.44526 0
M  V30 12567 H 1158.29 -0.672344 4.36958 0
M  V30 12568 N 1157.35 -1.41121 0.701616 0
M  V30 12569 C 1158.6 -2.00733 0.234682 0
M  V30 12570 C 1158.92 -1.55869 -1.17174 0
M  V30 12571 O 1158.19 -0.791965 -1.79178 0
M  V30 12572 H 1156.77 -0.742288 0.0837745 0
M  V30 12573 H 1159.43 -1.7266 0.904127 0
M  V30 12574 H 1158.53 -3.11041 0.256831 0
M  V30 12575 N 1158.83 -0.446794 -1.51134 0
M  V30 12576 C 1160.06 0.114893 -2.06581 0
M  V30 12577 C 1160.47 1.35642 -1.31327 0
M  V30 12578 O 1159.83 1.78595 -0.375506 0
M  V30 12579 C 1159.88 0.427589 -3.58962 0
M  V30 12580 O 1159.6 -0.764669 -4.31375 0
M  V30 12581 C 1161.1 1.03891 -4.30954 0
M  V30 12582 H 1158.32 0.00373031 -0.67099 0
M  V30 12583 H 1160.87 -0.628596 -1.94599 0
M  V30 12584 H 1159.02 1.12099 -3.70827 0
M  V30 12585 H 1159.44 -0.494605 -5.22163 0
M  V30 12586 H 1160.91 1.20764 -5.38628 0
M  V30 12587 H 1161.39 2.02252 -3.8986 0
M  V30 12588 H 1161.99 0.384623 -4.23557 0
M  V30 12589 N 1160.31 1.56586 -0.178487 0
M  V30 12590 C 1161.54 2.01183 0.470002 0
M  V30 12591 C 1161.95 1.05781 1.56866 0
M  V30 12592 O 1161.29 0.0519678 1.83626 0
M  V30 12593 C 1161.35 3.42199 1.10183 0
M  V30 12594 C 1161.02 4.56773 0.143945 0
M  V30 12595 C 1162.01 5.1594 -0.64043 0
M  V30 12596 C 1159.7 5.02286 0.0376874 0
M  V30 12597 C 1161.69 6.19055 -1.51819 0
M  V30 12598 C 1159.38 6.05248 -0.843652 0
M  V30 12599 C 1160.38 6.63505 -1.62017 0
M  V30 12600 O 1160.06 7.6447 -2.48677 0
M  V30 12601 H 1159.8 0.664527 0.124018 0
M  V30 12602 H 1162.35 2.0349 -0.279495 0
M  V30 12603 H 1160.58 3.36827 1.89959 0
M  V30 12604 H 1162.27 3.70705 1.65326 0
M  V30 12605 H 1163.04 4.81656 -0.56855 0
M  V30 12606 H 1158.91 4.56649 0.631893 0
M  V30 12607 H 1162.46 6.64455 -2.12475 0
M  V30 12608 H 1158.36 6.38958 -0.916708 0
M  V30 12609 H 1159.12 7.81823 -2.42272 0
M  V30 12610 N 1161.79 -0.095206 1.57312 0
M  V30 12611 C 1163.01 -0.81227 1.90289 0
M  V30 12612 C 1163.43 -1.72287 0.772178 0
M  V30 12613 O 1162.79 -1.80698 -0.255841 0
M  V30 12614 C 1162.84 -1.62572 3.22882 0
M  V30 12615 O 1162.56 -0.75175 4.31602 0
M  V30 12616 C 1164.06 -2.44585 3.6972 0
M  V30 12617 H 1161.28 -0.232256 0.629522 0
M  V30 12618 H 1163.82 -0.0724733 2.04372 0
M  V30 12619 H 1161.98 -2.31803 3.10397 0
M  V30 12620 H 1162.39 -1.31514 5.07744 0
M  V30 12621 H 1163.87 -2.97155 4.65191 0
M  V30 12622 H 1164.34 -3.23044 2.97555 0
M  V30 12623 H 1164.95 -1.80554 3.85072 0
M  V30 12624 N 1163.26 -1.53291 -0.366026 0
M  V30 12625 C 1164.51 -1.69702 -1.11036 0
M  V30 12626 C 1164.84 -0.44728 -1.88979 0
M  V30 12627 O 1164.12 0.55542 -1.86401 0
M  V30 12628 C 1164.4 -2.94661 -2.06995 0
M  V30 12629 C 1164.25 -4.29791 -1.32663 0
M  V30 12630 C 1165.57 -3.15219 -3.07123 0
M  V30 12631 H 1162.69 -0.617525 -0.402284 0
M  V30 12632 H 1165.33 -1.85929 -0.391223 0
M  V30 12633 H 1163.48 -2.80958 -2.68318 0
M  V30 12634 H 1165.16 -4.55305 -0.741266 0
M  V30 12635 H 1163.4 -4.29223 -0.628484 0
M  V30 12636 H 1164.07 -5.13359 -2.02896 0
M  V30 12637 H 1166.55 -3.28105 -2.55903 0
M  V30 12638 H 1165.42 -4.04088 -3.71489 0
M  V30 12639 H 1165.68 -2.30479 -3.77269 0
M  V30 12640 N 1164.74 0.6258 -1.44643 0
M  V30 12641 C 1165.69 1.73751 -1.51919 0
M  V30 12642 C 1166.66 1.62007 -0.36647 0
M  V30 12643 O 1167.84 1.81852 -0.577439 0
M  V30 12644 C 1164.98 3.12015 -1.47448 0
M  V30 12645 C 1164.1 3.34696 -2.73135 0
M  V30 12646 C 1163.23 4.62962 -2.6046 0
M  V30 12647 C 1162.27 4.7884 -3.81286 0
M  V30 12648 N 1161.41 5.98388 -3.67255 0
M  V30 12649 H 1166.25 1.66867 -2.46899 0
M  V30 12650 H 1163.79 0.813921 -1.22531 0
M  V30 12651 H 1165.74 3.91983 -1.42846 0
M  V30 12652 H 1164.37 3.179 -0.560312 0
M  V30 12653 H 1163.43 2.4863 -2.87901 0
M  V30 12654 H 1164.74 3.42306 -3.62806 0
M  V30 12655 H 1163.89 5.51099 -2.53722 0
M  V30 12656 H 1162.63 4.57719 -1.68359 0
M  V30 12657 H 1161.64 3.89131 -3.88403 0
M  V30 12658 H 1162.86 4.85893 -4.74431 0
M  V30 12659 H 1160.81 5.94224 -2.77909 0
M  V30 12660 H 1160.72 6.07078 -4.50547 0
M  V30 12661 H 1161.99 6.89072 -3.64417 0
M  V30 12662 N 1166.22 1.31629 0.866686 0
M  V30 12663 C 1167.15 1.22151 1.99001 0
M  V30 12664 C 1168.13 0.107972 1.69757 0
M  V30 12665 O 1169.32 0.293125 1.91975 0
M  V30 12666 C 1166.45 0.93144 3.34577 0
M  V30 12667 C 1165.4 2.0049 3.78137 0
M  V30 12668 C 1164.73 1.56747 5.11209 0
M  V30 12669 C 1166.03 3.41844 3.94892 0
M  V30 12670 H 1167.72 2.16132 2.0719 0
M  V30 12671 H 1165.27 1.04051 0.995463 0
M  V30 12672 H 1167.22 0.851719 4.12703 0
M  V30 12673 H 1165.94 -0.0440289 3.2657 0
M  V30 12674 H 1164.6 2.07457 3.02253 0
M  V30 12675 H 1164.25 0.579767 4.99648 0
M  V30 12676 H 1163.95 2.28562 5.41326 0
M  V30 12677 H 1165.47 1.50188 5.91841 0
M  V30 12678 H 1166.89 3.37534 4.63405 0
M  V30 12679 H 1165.29 4.11905 4.36411 0
M  V30 12680 H 1166.36 3.82389 2.98172 0
M  V30 12681 N 1167.7 -1.08142 1.14644 0
M  V30 12682 C 1168.65 -2.15133 0.835845 0
M  V30 12683 C 1169.62 -1.64795 -0.207785 0
M  V30 12684 O 1170.8 -1.90644 -0.07711 0
M  V30 12685 C 1167.94 -3.4359 0.322456 0
M  V30 12686 C 1167.05 -4.07761 1.42671 0
M  V30 12687 C 1166.19 -5.24022 0.870281 0
M  V30 12688 C 1165.23 -5.8014 1.95202 0
M  V30 12689 N 1164.37 -6.87743 1.41257 0
M  V30 12690 H 1169.21 -2.41042 1.75222 0
M  V30 12691 H 1166.74 -1.18288 0.874428 0
M  V30 12692 H 1168.7 -4.17199 0.00657059 0
M  V30 12693 H 1167.33 -3.17958 -0.557014 0
M  V30 12694 H 1166.38 -3.31885 1.85893 0
M  V30 12695 H 1167.69 -4.45485 2.24375 0
M  V30 12696 H 1166.85 -6.04582 0.506459 0
M  V30 12697 H 1165.59 -4.87695 0.0223118 0
M  V30 12698 H 1164.59 -4.98232 2.32476 0
M  V30 12699 H 1165.82 -6.18525 2.80363 0
M  V30 12700 H 1163.76 -6.5337 0.586826 0
M  V30 12701 H 1163.68 -7.24308 2.16596 0
M  V30 12702 H 1164.95 -7.72028 1.07674 0
M  V30 12703 N 1169.18 -0.941978 -1.26351 0
M  V30 12704 C 1170.42 -0.590845 -1.94002 0
M  V30 12705 C 1170.76 0.868004 -1.73722 0
M  V30 12706 O 1170.03 1.62111 -1.07472 0
M  V30 12707 C 1170.31 -0.934901 -3.47752 0
M  V30 12708 C 1170.17 -2.44855 -3.77314 0
M  V30 12709 C 1171.49 -0.450888 -4.37784 0
M  V30 12710 H 1168.61 -0.21613 -0.704597 0
M  V30 12711 H 1171.25 -1.17634 -1.49205 0
M  V30 12712 H 1169.4 -0.436648 -3.86038 0
M  V30 12713 H 1171.07 -3.01959 -3.48738 0
M  V30 12714 H 1169.31 -2.89169 -3.23363 0
M  V30 12715 H 1169.98 -2.6398 -4.84787 0
M  V30 12716 H 1172.46 -0.878107 -4.06729 0
M  V30 12717 H 1171.34 -0.720439 -5.44152 0
M  V30 12718 H 1171.6 0.649162 -4.37308 0
M  V30 12719 N 1170.66 1.40747 -0.709091 0
M  V30 12720 C 1171.88 2.05319 -0.255258 0
M  V30 12721 C 1172.3 1.53406 1.10054 0
M  V30 12722 O 1171.66 0.687905 1.69039 0
M  V30 12723 C 1171.71 3.60835 -0.219251 0
M  V30 12724 O 1171.43 4.1083 -1.52151 0
M  V30 12725 C 1172.93 4.42572 0.253927 0
M  V30 12726 H 1170.15 0.660904 -0.115959 0
M  V30 12727 H 1172.69 1.80274 -0.965474 0
M  V30 12728 H 1170.85 3.84872 0.441882 0
M  V30 12729 H 1171.26 5.04979 -1.41764 0
M  V30 12730 H 1172.74 5.51529 0.22798 0
M  V30 12731 H 1173.21 4.19673 1.29504 0
M  V30 12732 H 1173.82 4.23629 -0.376694 0
M  V30 12733 N 1172.13 0.454803 1.50895 0
M  V30 12734 C 1173.41 -0.166559 1.9489 0
M  V30 12735 C 1173.79 -1.58492 1.3944 0
M  V30 12736 O 1173.14 -2.20788 0.588622 0
M  V30 12737 C 1173.35 -0.126506 3.48771 0
M  V30 12738 C 1174.7 -0.32347 4.23366 0
M  V30 12739 O 1175.72 -0.203835 3.55616 0
M  V30 12740 O 1174.58 -0.563292 5.43589 0
M  V30 12741 H 1171.67 -0.120523 0.818171 0
M  V30 12742 H 1174.22 0.514037 1.61727 0
M  V30 12743 H 1172.99 0.864407 3.81633 0
M  V30 12744 H 1172.61 -0.849264 3.88424 0
M  V30 12745 N 1173.61 -1.56489 0.186789 0
M  V30 12746 C 1174.89 -1.89066 -0.501337 0
M  V30 12747 C 1175.27 -1.09906 -1.80233 0
M  V30 12748 O 1174.62 -0.197626 -2.27644 0
M  V30 12749 C 1174.83 -3.41318 -0.728207 0
M  V30 12750 C 1176.17 -4.11379 -1.0513 0
M  V30 12751 O 1177.2 -3.46722 -0.816216 0
M  V30 12752 O 1176.06 -5.25638 -1.49557 0
M  V30 12753 H 1173.15 -0.784966 -0.260303 0
M  V30 12754 H 1175.7 -1.68183 0.226382 0
M  V30 12755 H 1174.47 -3.90834 0.19088 0
M  V30 12756 H 1174.09 -3.67865 -1.50869 0
M  V30 12757 N 1175.09 0.086862 -1.5736 0
M  V30 12758 C 1176.04 1.10478 -2.02641 0
M  V30 12759 C 1177.01 1.39331 -0.904219 0
M  V30 12760 O 1178.19 1.50654 -1.17081 0
M  V30 12761 C 1175.33 2.41754 -2.4627 0
M  V30 12762 C 1174.44 2.19561 -3.72044 0
M  V30 12763 C 1173.58 3.44294 -4.04519 0
M  V30 12764 C 1172.62 3.17399 -5.23378 0
M  V30 12765 N 1171.76 4.3442 -5.51564 0
M  V30 12766 H 1176.6 0.711663 -2.89378 0
M  V30 12767 H 1174.13 0.339856 -1.4312 0
M  V30 12768 H 1176.09 3.18378 -2.69613 0
M  V30 12769 H 1174.72 2.78896 -1.62532 0
M  V30 12770 H 1173.77 1.337 -3.5613 0
M  V30 12771 H 1175.08 1.95685 -4.58812 0
M  V30 12772 H 1174.24 4.29321 -4.28682 0
M  V30 12773 H 1172.98 3.71232 -3.16289 0
M  V30 12774 H 1171.98 2.30765 -4.99026 0
M  V30 12775 H 1173.21 2.91799 -6.13213 0
M  V30 12776 H 1171.15 4.61418 -4.66293 0
M  V30 12777 H 1171.07 4.13764 -6.3272 0
M  V30 12778 H 1172.34 5.20489 -5.80269 0
M  V30 12779 N 1176.57 1.53483 0.357892 0
M  V30 12780 C 1177.82 1.69701 1.09754 0
M  V30 12781 C 1178.14 0.455389 1.89608 0
M  V30 12782 O 1177.41 -0.530623 1.88577 0
M  V30 12783 H 1175.99 0.62562 0.408178 0
M  V30 12784 H 1178.65 1.90696 0.402641 0
M  V30 12785 H 1177.74 2.56154 1.78302 0
M  V30 12786 N 1178.05 -0.61812 1.44973 0
M  V30 12787 C 1178.96 -1.7579 1.55355 0
M  V30 12788 C 1179.97 -1.68384 0.438512 0
M  V30 12789 O 1181.15 -1.88928 0.697715 0
M  V30 12790 C 1178.21 -3.1222 1.50729 0
M  V30 12791 C 1177.27 -3.3116 2.73188 0
M  V30 12792 C 1176.51 -4.61082 2.68774 0
M  V30 12793 O 1176.73 -5.42728 1.75507 0
M  V30 12794 O 1175.66 -4.82506 3.59821 0
M  V30 12795 H 1179.49 -1.69983 2.51674 0
M  V30 12796 H 1177.07 -0.780934 1.27365 0
M  V30 12797 H 1178.96 -3.93524 1.5072 0
M  V30 12798 H 1177.63 -3.18541 0.575587 0
M  V30 12799 H 1176.54 -2.49485 2.78762 0
M  V30 12800 H 1177.87 -3.29709 3.65449 0
M  V30 12801 N 1179.52 -1.32087 -0.859693 0
M  V30 12802 C 1180.75 -1.25486 -1.6513 0
M  V30 12803 C 1181.17 0.175015 -1.87284 0
M  V30 12804 O 1180.53 1.12468 -1.42199 0
M  V30 12805 C 1180.58 -2.01469 -2.9907 0
M  V30 12806 O 1179.68 -1.35904 -3.89363 0
M  V30 12807 H 1179.02 -0.432728 -0.503629 0
M  V30 12808 H 1181.55 -1.74322 -1.07112 0
M  V30 12809 H 1181.56 -2.11452 -3.4893 0
M  V30 12810 H 1180.24 -3.05448 -2.82266 0
M  V30 12811 H 1178.82 -1.34437 -3.47823 0
M  V30 12812 N 1181 1.07532 -1.15215 0
M  V30 12813 C 1182.23 1.84356 -0.950139 0
M  V30 12814 C 1182.65 1.81429 0.496502 0
M  V30 12815 O 1182.01 1.20589 1.35381 0
M  V30 12816 C 1182.06 3.29425 -1.46669 0
M  V30 12817 O 1181.16 4.07008 -0.664674 0
M  V30 12818 H 1180.5 0.570921 -0.339036 0
M  V30 12819 H 1183.03 1.35665 -1.53154 0
M  V30 12820 H 1183.04 3.8026 -1.47873 0
M  V30 12821 H 1181.72 3.3087 -2.51988 0
M  V30 12822 H 1180.29 3.65841 -0.72211 0
M  V30 12823 N 1182.48 0.948665 1.2585 0
M  V30 12824 C 1183.73 0.601125 1.93686 0
M  V30 12825 C 1184.06 -0.858779 1.7418 0
M  V30 12826 O 1183.33 -1.61539 1.0833 0
M  V30 12827 C 1183.62 0.95333 3.47252 0
M  V30 12828 C 1183.47 2.46853 3.7601 0
M  V30 12829 C 1184.79 0.474098 4.37539 0
M  V30 12830 H 1181.91 0.219864 0.703441 0
M  V30 12831 H 1184.55 1.18424 1.48579 0
M  V30 12832 H 1182.7 0.457114 3.85801 0
M  V30 12833 H 1184.37 3.03804 3.47132 0
M  V30 12834 H 1182.62 2.9088 3.21825 0
M  V30 12835 H 1183.29 2.66547 4.83381 0
M  V30 12836 H 1185.76 0.899664 4.06258 0
M  V30 12837 H 1184.64 0.749287 5.43762 0
M  V30 12838 H 1184.9 -0.625961 4.37646 0
M  V30 12839 N 1183.96 -1.40369 0.716545 0
M  V30 12840 C 1185.18 -2.05704 0.264729 0
M  V30 12841 C 1185.61 -1.53634 -1.08527 0
M  V30 12842 O 1184.97 -0.67212 -1.68381 0
M  V30 12843 C 1185.01 -3.59692 0.255778 0
M  V30 12844 O 1184.12 -4.05286 -0.762686 0
M  V30 12845 H 1183.46 -0.652301 0.124092 0
M  V30 12846 H 1185.99 -1.7975 0.977295 0
M  V30 12847 H 1186 -4.07892 0.0937944 0
M  V30 12848 H 1184.67 -3.96955 1.24095 0
M  V30 12849 H 1183.25 -3.68543 -0.568347 0
M  V30 12850 N 1185.44 -0.462799 -1.50652 0
M  V30 12851 C 1186.66 0.0929761 -2.06691 0
M  V30 12852 C 1187.08 1.34241 -1.32758 0
M  V30 12853 O 1186.44 1.78187 -0.394427 0
M  V30 12854 C 1186.49 0.389492 -3.59396 0
M  V30 12855 O 1186.21 -0.810379 -4.3054 0
M  V30 12856 C 1187.71 0.993147 -4.32032 0
M  V30 12857 H 1184.93 -0.00338664 -0.670991 0
M  V30 12858 H 1187.47 -0.649201 -1.93922 0
M  V30 12859 H 1185.63 1.08159 -3.71995 0
M  V30 12860 H 1186.04 -0.54996 -5.21609 0
M  V30 12861 H 1187.52 1.15044 -5.39878 0
M  V30 12862 H 1187.99 1.98106 -3.91983 0
M  V30 12863 H 1188.6 0.339677 -4.23941 0
M  V30 12864 N 1186.91 1.56388 -0.195085 0
M  V30 12865 C 1188.14 2.01963 0.449289 0
M  V30 12866 C 1188.56 1.07522 1.55192 0
M  V30 12867 O 1187.91 0.0800915 1.82324 0
M  V30 12868 C 1187.97 3.47231 1.00561 0
M  V30 12869 O 1187.69 4.38068 -0.0530241 0
M  V30 12870 C 1189.19 4.08324 1.72587 0
M  V30 12871 H 1186.41 0.661452 0.112792 0
M  V30 12872 H 1188.95 2.02231 -0.303788 0
M  V30 12873 H 1187.11 3.47663 1.70907 0
M  V30 12874 H 1187.52 5.23256 0.361076 0
M  V30 12875 H 1188.99 5.11821 2.06744 0
M  V30 12876 H 1189.47 3.51782 2.62956 0
M  V30 12877 H 1190.08 4.11665 1.06826 0
M  V30 12878 N 1188.39 -0.0785156 1.57404 0
M  V30 12879 C 1189.62 -0.792042 1.9114 0
M  V30 12880 C 1190.04 -1.71458 0.790408 0
M  V30 12881 O 1189.39 -1.80959 -0.236662 0
M  V30 12882 C 1189.44 -1.59138 3.24588 0
M  V30 12883 O 1189.16 -0.705931 4.32375 0
M  V30 12884 C 1190.67 -2.4065 3.72293 0
M  V30 12885 H 1187.89 -0.225566 0.63195 0
M  V30 12886 H 1190.43 -0.0507929 2.04437 0
M  V30 12887 H 1188.58 -2.28498 3.12838 0
M  V30 12888 H 1189 -1.26121 5.09111 0
M  V30 12889 H 1190.47 -2.92204 4.68317 0
M  V30 12890 H 1190.95 -3.1987 3.00965 0
M  V30 12891 H 1191.56 -1.7646 3.86965 0
M  V30 12892 N 1189.87 -1.5367 -0.349747 0
M  V30 12893 C 1190.83 -1.80533 -1.41211 0
M  V30 12894 C 1191.83 -0.676188 -1.45892 0
M  V30 12895 O 1193.02 -0.944453 -1.46375 0
M  V30 12896 C 1190.16 -1.94175 -2.80195 0
M  V30 12897 H 1191.35 -2.75428 -1.18658 0
M  V30 12898 H 1188.9 -1.44988 -0.583787 0
M  V30 12899 H 1189.64 -1.01402 -3.08039 0
M  V30 12900 H 1189.42 -2.76316 -2.78194 0
M  V30 12901 H 1190.91 -2.16496 -3.57098 0
M  V30 12902 N 1191.35 0.610423 -1.45298 0
M  V30 12903 C 1192.26 1.74964 -1.56285 0
M  V30 12904 C 1193.27 1.68149 -0.447436 0
M  V30 12905 O 1194.45 1.88556 -0.707725 0
M  V30 12906 C 1191.52 3.11417 -1.52383 0
M  V30 12907 C 1190.58 3.29707 -2.7494 0
M  V30 12908 C 1189.81 4.5965 -2.71215 0
M  V30 12909 O 1190.03 5.41789 -1.78383 0
M  V30 12910 O 1188.97 4.80591 -3.62375 0
M  V30 12911 H 1192.79 1.68646 -2.52571 0
M  V30 12912 H 1190.38 0.774168 -1.27777 0
M  V30 12913 H 1192.26 3.9272 -1.52805 0
M  V30 12914 H 1190.93 3.18232 -0.592472 0
M  V30 12915 H 1189.84 2.48003 -2.80081 0
M  V30 12916 H 1191.17 3.27766 -3.67192 0
M  V30 12917 N 1192.83 1.32541 0.852676 0
M  V30 12918 C 1194.08 1.22567 1.60188 0
M  V30 12919 C 1194.39 -0.210594 1.94463 0
M  V30 12920 O 1195.59 -0.432214 2.68038 0
M  V30 12921 C 1194.05 2.14678 2.88862 0
M  V30 12922 C 1193.66 3.63398 2.62004 0
M  V30 12923 C 1195.4 2.13545 3.66877 0
M  V30 12924 C 1193.31 4.47464 3.86691 0
M  V30 12925 H 1192.24 0.455184 0.601102 0
M  V30 12926 H 1194.89 1.57515 0.941347 0
M  V30 12927 H 1193.27 1.72647 3.56383 0
M  V30 12928 H 1194.45 4.13783 2.02782 0
M  V30 12929 H 1192.76 3.66681 1.97316 0
M  V30 12930 H 1195.36 2.73589 4.59405 0
M  V30 12931 H 1195.7 1.12694 4.00756 0
M  V30 12932 H 1196.23 2.53866 3.06263 0
M  V30 12933 H 1192.97 5.49136 3.57952 0
M  V30 12934 H 1192.49 4.01829 4.45302 0
M  V30 12935 H 1194.17 4.60565 4.5441 0
M  V30 12936 N 1194.3 -1.0692 1.15784 0
M  V30 12937 C 1195.25 -2.14235 0.858616 0
M  V30 12938 C 1196.22 -1.65006 -0.190295 0
M  V30 12939 O 1197.41 -1.90715 -0.0568853 0
M  V30 12940 C 1194.55 -3.43229 0.35888 0
M  V30 12941 C 1193.66 -4.06225 1.46987 0
M  V30 12942 C 1192.79 -5.2307 0.925812 0
M  V30 12943 C 1191.83 -5.78037 2.01345 0
M  V30 12944 N 1190.97 -6.86206 1.48544 0
M  V30 12945 H 1195.81 -2.3917 1.77769 0
M  V30 12946 H 1193.35 -1.17354 0.886925 0
M  V30 12947 H 1195.31 -4.17169 0.0508198 0
M  V30 12948 H 1193.94 -3.18531 -0.523259 0
M  V30 12949 H 1192.99 -3.29895 1.89403 0
M  V30 12950 H 1194.3 -4.43081 2.29088 0
M  V30 12951 H 1193.45 -6.04011 0.570555 0
M  V30 12952 H 1192.19 -4.87644 0.0740371 0
M  V30 12953 H 1191.2 -4.95738 2.37748 0
M  V30 12954 H 1192.42 -6.15517 2.86907 0
M  V30 12955 H 1190.37 -6.52711 0.656092 0
M  V30 12956 H 1190.29 -7.2197 2.24266 0
M  V30 12957 H 1191.55 -7.70842 1.15856 0
M  V30 12958 N 1195.78 -0.955326 -1.25345 0
M  V30 12959 C 1197.06 -0.527828 -1.88344 0
M  V30 12960 C 1197.44 0.994911 -1.86185 0
M  V30 12961 O 1196.79 1.86099 -1.32587 0
M  V30 12962 C 1197 -1.10525 -3.31037 0
M  V30 12963 C 1198.35 -1.18253 -4.07801 0
M  V30 12964 O 1199.37 -1.05685 -3.4016 0
M  V30 12965 O 1198.23 -1.37978 -5.28795 0
M  V30 12966 H 1195.32 -0.174206 -0.808444 0
M  V30 12967 H 1197.87 -1.0488 -1.3341 0
M  V30 12968 H 1196.64 -2.14847 -3.27042 0
M  V30 12969 H 1196.26 -0.567568 -3.93528 0
M  V30 12970 N 1197.26 1.39987 -0.723979 0
M  V30 12971 C 1198.19 2.3332 -0.0917282 0
M  V30 12972 C 1199.17 1.53335 0.736361 0
M  V30 12973 O 1200.36 1.81771 0.683582 0
M  V30 12974 C 1197.49 3.3737 0.824549 0
M  V30 12975 C 1196.44 4.2788 0.101452 0
M  V30 12976 C 1195.77 5.22536 1.13401 0
M  V30 12977 C 1197.07 5.11649 -1.04939 0
M  V30 12978 H 1198.76 2.86441 -0.871318 0
M  V30 12979 H 1196.31 1.37725 -0.420448 0
M  V30 12980 H 1198.26 4.01607 1.27631 0
M  V30 12981 H 1196.98 2.82663 1.63613 0
M  V30 12982 H 1195.64 3.65107 -0.330569 0
M  V30 12983 H 1195.29 4.64131 1.93886 0
M  V30 12984 H 1194.99 5.83938 0.65502 0
M  V30 12985 H 1196.52 5.89651 1.58569 0
M  V30 12986 H 1197.93 5.69293 -0.6766 0
M  V30 12987 H 1196.33 5.82137 -1.45729 0
M  V30 12988 H 1197.4 4.47132 -1.8762 0
M  V30 12989 N 1198.74 0.470782 1.50404 0
M  V30 12990 C 1199.96 -0.084284 2.07229 0
M  V30 12991 C 1200.39 -1.32774 1.33239 0
M  V30 12992 O 1199.75 -1.77274 0.379971 0
M  V30 12993 C 1199.8 -0.351565 3.58882 0
M  V30 12994 O 1198.9 -1.43211 3.86736 0
M  V30 12995 H 1198.24 0.0128479 0.663876 0
M  V30 12996 H 1200.77 0.661735 1.93603 0
M  V30 12997 H 1200.78 -0.592151 4.0368 0
M  V30 12998 H 1199.46 0.557084 4.12152 0
M  V30 12999 H 1198.03 -1.17886 3.53776 0
M  V30 13000 N 1200.22 -1.56282 0.203376 0
M  V30 13001 C 1201.13 -2.23086 -0.725922 0
M  V30 13002 C 1202.14 -1.23258 -1.22814 0
M  V30 13003 O 1203.32 -1.5602 -1.27357 0
M  V30 13004 C 1200.38 -2.88358 -1.92485 0
M  V30 13005 C 1199.45 -4.03479 -1.46639 0
M  V30 13006 C 1198.68 -4.65629 -2.60816 0
M  V30 13007 O 1198.9 -4.2672 -3.78506 0
M  V30 13008 O 1197.84 -5.54949 -2.33056 0
M  V30 13009 H 1201.66 -3.03124 -0.18694 0
M  V30 13010 H 1199.25 -1.49377 -0.0262829 0
M  V30 13011 H 1201.13 -3.29623 -2.62539 0
M  V30 13012 H 1199.8 -2.11294 -2.45228 0
M  V30 13013 H 1198.71 -3.66821 -0.734396 0
M  V30 13014 H 1200.04 -4.82232 -0.985535 0
M  V30 13015 N 1201.7 0.070167 -1.57444 0
M  V30 13016 C 1202.64 1.10193 -2.04842 0
M  V30 13017 C 1203.64 1.39978 -0.954069 0
M  V30 13018 O 1204.84 1.39366 -1.13917 0
M  V30 13019 H 1201.22 0.372699 -0.653146 0
M  V30 13020 H 1203.19 0.676033 -2.90641 0
M  V30 13021 C 1201.94 2.40679 -2.50936 0
M  V30 13022 H 1201.26 2.1861 -3.34738 0
M  V30 13023 H 1202.7 3.11315 -2.87852 0
M  V30 13024 C 1201.16 3.06754 -1.39297 0
M  V30 13025 O 1201.69 3.949 -0.735989 0
M  V30 13026 N 1199.9 2.67404 -1.13769 0
M  V30 13027 H 1199.44 1.95813 -1.67376 0
M  V30 13028 H 1199.4 3.11937 -0.392787 0
M  V30 13029 N 1203.17 1.53854 0.341593 0
M  V30 13030 C 1204.12 1.81979 1.41959 0
M  V30 13031 C 1205.09 0.665616 1.5218 0
M  V30 13032 O 1206.28 0.910246 1.67688 0
M  V30 13033 C 1203.42 2.03681 2.78583 0
M  V30 13034 C 1202.53 3.31389 2.77137 0
M  V30 13035 C 1201.66 3.43148 4.05491 0
M  V30 13036 C 1200.7 4.64799 3.98282 0
M  V30 13037 N 1199.84 4.73581 5.18329 0
M  V30 13038 H 1204.68 2.73953 1.17275 0
M  V30 13039 H 1202.22 1.35689 0.568062 0
M  V30 13040 H 1204.17 2.14253 3.57983 0
M  V30 13041 H 1202.8 1.15017 3.01614 0
M  V30 13042 H 1201.86 3.29649 1.89832 0
M  V30 13043 H 1203.17 4.20885 2.67689 0
M  V30 13044 H 1202.32 3.53163 4.93316 0
M  V30 13045 H 1201.06 2.51712 4.17723 0
M  V30 13046 H 1200.07 4.54859 3.08842 0
M  V30 13047 H 1201.29 5.57601 3.87631 0
M  V30 13048 H 1199.24 3.85055 5.31102 0
M  V30 13049 H 1199.15 5.57016 5.11145 0
M  V30 13050 H 1200.42 4.87908 6.0792 0
M  V30 13051 N 1204.65 -0.602709 1.4562 0
M  V30 13052 C 1205.58 -1.72374 1.5751 0
M  V30 13053 C 1206.56 -1.64669 0.426389 0
M  V30 13054 O 1207.75 -1.82994 0.650143 0
M  V30 13055 C 1204.88 -3.10987 1.5461 0
M  V30 13056 C 1203.83 -3.33507 2.68248 0
M  V30 13057 C 1203.16 -4.72443 2.50403 0
M  V30 13058 C 1204.46 -3.23285 4.10224 0
M  V30 13059 H 1206.15 -1.62679 2.51348 0
M  V30 13060 H 1203.7 -0.781217 1.20967 0
M  V30 13061 H 1205.65 -3.89214 1.61525 0
M  V30 13062 H 1204.37 -3.21533 0.573049 0
M  V30 13063 H 1203.03 -2.57672 2.60769 0
M  V30 13064 H 1202.68 -4.79729 1.51226 0
M  V30 13065 H 1202.38 -4.88466 3.26611 0
M  V30 13066 H 1203.91 -5.52864 2.59179 0
M  V30 13067 H 1205.32 -3.91381 4.1892 0
M  V30 13068 H 1203.72 -3.50837 4.86861 0
M  V30 13069 H 1204.79 -2.20652 4.31788 0
M  V30 13070 N 1206.13 -1.32992 -0.845635 0
M  V30 13071 C 1207.54 -1.21616 -1.41656 0
M  V30 13072 C 1207.89 0.167687 -1.95482 0
M  V30 13073 O 1207.02 1.06692 -1.8827 0
M  V30 13074 C 1207.61 -2.2018 -2.575 0
M  V30 13075 C 1206.17 -2.12664 -3.10565 0
M  V30 13076 C 1205.32 -2.08042 -1.83341 0
M  V30 13077 H 1208.27 -1.44688 -0.651993 0
M  V30 13078 H 1208.29 -1.80558 -3.34931 0
M  V30 13079 H 1207.8 -3.20888 -2.18294 0
M  V30 13080 H 1205.9 -1.15235 -3.54333 0
M  V30 13081 H 1206.02 -3.02902 -3.71197 0
M  V30 13082 H 1204.38 -1.53416 -2.03312 0
M  V30 13083 H 1205.16 -3.10547 -1.46339 0
M  V30 13084 N 1207.61 1.06304 -1.1635 0
M  V30 13085 C 1208.85 1.79366 -0.94634 0
M  V30 13086 C 1209.19 1.86981 0.524569 0
M  V30 13087 O 1208.46 1.36134 1.38917 0
M  V30 13088 C 1208.74 3.23861 -1.57436 0
M  V30 13089 C 1208.6 3.24327 -3.1166 0
M  V30 13090 C 1209.92 4.21409 -1.26895 0
M  V30 13091 H 1207.04 0.65115 -0.345215 0
M  V30 13092 H 1209.68 1.24325 -1.43678 0
M  V30 13093 H 1207.83 3.70862 -1.15731 0
M  V30 13094 H 1209.5 2.85488 -3.62346 0
M  V30 13095 H 1207.74 2.62983 -3.44997 0
M  V30 13096 H 1208.41 4.2626 -3.50723 0
M  V30 13097 H 1210.89 3.8285 -1.62989 0
M  V30 13098 H 1209.77 5.20778 -1.73439 0
M  V30 13099 H 1210.03 4.41701 -0.187768 0
M  V30 13100 N 1209.09 0.96196 1.24836 0
M  V30 13101 C 1210.33 0.616342 1.92052 0
M  V30 13102 C 1210.65 -0.851601 1.76088 0
M  V30 13103 O 1211.85 -1.3075 2.37943 0
M  V30 13104 C 1210.31 1.05168 3.44191 0
M  V30 13105 C 1209.92 2.54268 3.68852 0
M  V30 13106 C 1211.66 0.778938 4.17292 0
M  V30 13107 C 1209.57 2.91564 5.14533 0
M  V30 13108 H 1208.5 0.22681 0.719078 0
M  V30 13109 H 1211.15 1.1674 1.41577 0
M  V30 13110 H 1209.53 0.428979 3.9367 0
M  V30 13111 H 1210.71 3.21619 3.29997 0
M  V30 13112 H 1209.02 2.79091 3.09026 0
M  V30 13113 H 1211.62 1.03366 5.24614 0
M  V30 13114 H 1211.96 -0.284772 4.15325 0
M  V30 13115 H 1212.49 1.36233 3.73745 0
M  V30 13116 H 1209.23 3.96982 5.21618 0
M  V30 13117 H 1208.75 2.28892 5.54408 0
M  V30 13118 H 1210.43 2.81155 5.82718 0
M  V30 13119 N 1210.56 -1.39601 0.731392 0
M  V30 13120 C 1211.79 -2.0459 0.287472 0
M  V30 13121 C 1212.2 -1.5525 -1.08139 0
M  V30 13122 O 1211.54 -0.710949 -1.69385 0
M  V30 13123 C 1211.61 -3.58904 0.206948 0
M  V30 13124 C 1211.27 -4.31204 1.51368 0
M  V30 13125 C 1212.27 -4.58088 2.45869 0
M  V30 13126 C 1209.95 -4.69818 1.77698 0
M  V30 13127 C 1211.95 -5.22591 3.64935 0
M  V30 13128 C 1209.63 -5.34049 2.97043 0
M  V30 13129 C 1210.63 -5.60368 3.90483 0
M  V30 13130 O 1210.32 -6.23268 5.07732 0
M  V30 13131 H 1210.05 -0.664515 0.12408 0
M  V30 13132 H 1212.61 -1.79701 0.994814 0
M  V30 13133 H 1210.84 -3.82675 -0.556466 0
M  V30 13134 H 1212.52 -4.05385 -0.204498 0
M  V30 13135 H 1213.29 -4.28706 2.26796 0
M  V30 13136 H 1209.17 -4.48692 1.05815 0
M  V30 13137 H 1212.71 -5.43049 4.37885 0
M  V30 13138 H 1208.61 -5.62852 3.16018 0
M  V30 13139 H 1209.38 -6.41763 5.08019 0
M  V30 13140 N 1212.04 -0.478751 -1.50152 0
M  V30 13141 C 1212.98 0.357584 -2.25381 0
M  V30 13142 C 1213.95 0.98965 -1.29014 0
M  V30 13143 O 1215.14 1.02409 -1.58255 0
M  V30 13144 C 1212.26 1.50167 -3.03591 0
M  V30 13145 C 1211.31 0.986215 -4.14941 0
M  V30 13146 S 1212.14 -0.105239 -5.35397 0
M  V30 13147 C 1213.3 1.04254 -6.17156 0
M  V30 13148 H 1213.53 -0.280985 -2.95969 0
M  V30 13149 H 1211.07 -0.263734 -1.52131 0
M  V30 13150 H 1213.02 2.15733 -3.49241 0
M  V30 13151 H 1211.68 2.11178 -2.32514 0
M  V30 13152 H 1210.88 1.84295 -4.69096 0
M  V30 13153 H 1210.48 0.408141 -3.71766 0
M  V30 13154 H 1212.77 1.95255 -6.48754 0
M  V30 13155 H 1213.71 0.540083 -7.06037 0
M  V30 13156 H 1214.12 1.29983 -5.49331 0
M  V30 13157 N 1213.52 1.56172 -0.211661 0
M  V30 13158 C 1214.47 2.16477 0.715675 0
M  V30 13159 C 1215.45 1.11023 1.16459 0
M  V30 13160 O 1216.65 1.3704 1.12023 0
M  V30 13161 C 1213.78 2.84055 1.92789 0
M  V30 13162 C 1212.86 3.96721 1.49911 0
M  V30 13163 N 1213.25 4.99714 0.782304 0
M  V30 13164 C 1211.55 4.08628 1.78716 0
M  V30 13165 C 1212.25 5.78949 0.565043 0
M  V30 13166 N 1211.23 5.31963 1.11878 0
M  V30 13167 H 1215.03 2.93467 0.15948 0
M  V30 13168 H 1212.54 1.62395 -0.012521 0
M  V30 13169 H 1214.54 3.25662 2.60289 0
M  V30 13170 H 1213.2 2.08558 2.48865 0
M  V30 13171 H 1214.21 5.16061 0.436021 0
M  V30 13172 H 1210.89 3.44273 2.36183 0
M  V30 13173 H 1212.28 6.719 -0.00477074 0
M  V30 13174 N 1215 -0.0618163 1.57479 0
M  V30 13175 C 1216.24 -0.760193 1.88013 0
M  V30 13176 C 1216.58 -1.76718 0.805258 0
M  V30 13177 O 1215.85 -1.93633 -0.183408 0
M  V30 13178 C 1216.14 -1.45924 3.29208 0
M  V30 13179 C 1215.99 -0.467994 4.47359 0
M  V30 13180 C 1217.31 -2.40166 3.68793 0
M  V30 13181 H 1214.43 -0.274896 0.683814 0
M  V30 13182 H 1217.07 -0.0232433 1.89986 0
M  V30 13183 H 1215.22 -2.08741 3.27657 0
M  V30 13184 H 1216.89 0.155735 4.61037 0
M  V30 13185 H 1215.13 0.215797 4.33263 0
M  V30 13186 H 1215.8 -0.994942 5.42959 0
M  V30 13187 H 1218.28 -1.87419 3.71501 0
M  V30 13188 H 1217.16 -2.86076 4.68457 0
M  V30 13189 H 1217.42 -3.25413 2.99264 0
M  V30 13190 N 1216.48 -1.54033 -0.333429 0
M  V30 13191 C 1217.89 -1.63107 -0.908455 0
M  V30 13192 C 1218.24 -0.518823 -1.89216 0
M  V30 13193 O 1217.36 0.34985 -2.13553 0
M  V30 13194 C 1217.96 -2.95657 -1.65447 0
M  V30 13195 C 1216.52 -3.0696 -2.17836 0
M  V30 13196 C 1215.66 -2.58617 -1.00063 0
M  V30 13197 H 1218.62 -1.58309 -0.11128 0
M  V30 13198 H 1218.64 -2.85263 -2.51804 0
M  V30 13199 H 1218.15 -3.76588 -0.938263 0
M  V30 13200 H 1216.25 -2.30683 -2.92602 0
M  V30 13201 H 1216.36 -4.12599 -2.43513 0
M  V30 13202 H 1214.73 -2.1427 -1.37697 0
M  V30 13203 H 1215.51 -3.41996 -0.298901 0
M  V30 13204 N 1217.95 0.594978 -1.45938 0
M  V30 13205 C 1218.9 1.70489 -1.5557 0
M  V30 13206 C 1219.87 1.61193 -0.400751 0
M  V30 13207 O 1221.06 1.80587 -0.615882 0
M  V30 13208 C 1218.2 3.08817 -1.54033 0
M  V30 13209 C 1217.31 3.28827 -2.80173 0
M  V30 13210 C 1216.44 4.57333 -2.70222 0
M  V30 13211 C 1215.48 4.70644 -3.91357 0
M  V30 13212 N 1214.62 5.90463 -3.79865 0
M  V30 13213 H 1219.46 1.61593 -2.50383 0
M  V30 13214 H 1217 0.787747 -1.24229 0
M  V30 13215 H 1218.96 3.88865 -1.51129 0
M  V30 13216 H 1217.59 3.1664 -0.627617 0
M  V30 13217 H 1216.64 2.42467 -2.9311 0
M  V30 13218 H 1217.95 3.34534 -3.69985 0
M  V30 13219 H 1217.1 5.45593 -2.65354 0
M  V30 13220 H 1215.84 4.54045 -1.7803 0
M  V30 13221 H 1214.85 3.80805 -3.9657 0
M  V30 13222 H 1216.07 4.75721 -4.8463 0
M  V30 13223 H 1214.02 5.88196 -2.90451 0
M  V30 13224 H 1213.94 5.97385 -4.63322 0
M  V30 13225 H 1215.2 6.81187 -3.78952 0
M  V30 13226 N 1219.43 1.33438 0.838571 0
M  V30 13227 C 1220.66 1.28097 1.63113 0
M  V30 13228 C 1221.08 -0.145197 1.87539 0
M  V30 13229 O 1220.44 -1.10191 1.43971 0
M  V30 13230 C 1220.49 2.06201 2.95827 0
M  V30 13231 O 1219.59 1.42082 3.87152 0
M  V30 13232 H 1218.93 0.440685 0.496681 0
M  V30 13233 H 1221.46 1.76004 1.04325 0
M  V30 13234 H 1221.47 2.16977 3.45521 0
M  V30 13235 H 1220.15 3.099 2.77371 0
M  V30 13236 H 1218.73 1.39953 3.45641 0
M  V30 13237 N 1220.91 -1.05686 1.16912 0
M  V30 13238 C 1222.16 -1.78244 0.95254 0
M  V30 13239 C 1222.48 -1.87924 -0.520525 0
M  V30 13240 O 1221.75 -1.39239 -1.37802 0
M  V30 13241 H 1220.33 -0.660228 0.349439 0
M  V30 13242 H 1222.99 -1.27634 1.47294 0
M  V30 13243 H 1222.09 -2.80102 1.37657 0
M  V30 13244 N 1222.39 -0.968567 -1.24324 0
M  V30 13245 C 1223.35 -0.504307 -2.23583 0
M  V30 13246 C 1224.35 0.399626 -1.55755 0
M  V30 13247 O 1225.54 0.194966 -1.73106 0
M  V30 13248 C 1222.67 0.26956 -3.39833 0
M  V30 13249 H 1223.87 -1.3818 -2.6617 0
M  V30 13250 H 1221.42 -0.753241 -1.36952 0
M  V30 13251 H 1222.15 1.16411 -3.02686 0
M  V30 13252 H 1221.94 -0.379133 -3.90263 0
M  V30 13253 H 1223.43 0.583376 -4.13505 0
M  V30 13254 N 1223.87 1.39211 -0.738786 0
M  V30 13255 C 1224.8 2.33209 -0.11647 0
M  V30 13256 C 1225.78 1.54108 0.720056 0
M  V30 13257 O 1226.96 1.82486 0.664264 0
M  V30 13258 C 1224.09 3.38226 0.78872 0
M  V30 13259 C 1223.05 4.27963 0.0560636 0
M  V30 13260 C 1222.37 5.2371 1.07852 0
M  V30 13261 C 1223.67 5.10508 -1.1036 0
M  V30 13262 H 1225.37 2.85501 -0.901649 0
M  V30 13263 H 1222.91 1.37272 -0.435032 0
M  V30 13264 H 1224.87 4.02938 1.23364 0
M  V30 13265 H 1223.59 2.84382 1.60606 0
M  V30 13266 H 1222.25 3.64735 -0.369274 0
M  V30 13267 H 1221.9 4.66161 1.88953 0
M  V30 13268 H 1221.6 5.846 0.593048 0
M  V30 13269 H 1223.12 5.91299 1.52307 0
M  V30 13270 H 1224.53 5.68544 -0.736943 0
M  V30 13271 H 1222.93 5.80558 -1.51895 0
M  V30 13272 H 1224 4.45117 -1.92352 0
M  V30 13273 N 1225.34 0.486708 1.49896 0
M  V30 13274 C 1226.29 -0.313156 2.30482 0
M  V30 13275 C 1227.29 -0.976043 1.38455 0
M  V30 13276 O 1228.49 -0.905364 1.55574 0
M  V30 13277 H 1224.87 -0.119839 0.74239 0
M  V30 13278 H 1226.84 0.386701 2.95884 0
M  V30 13279 C 1225.59 -1.37334 3.19429 0
M  V30 13280 H 1224.91 -0.87265 3.9016 0
M  V30 13281 H 1226.35 -1.90526 3.78782 0
M  V30 13282 C 1224.81 -2.38378 2.38071 0
M  V30 13283 O 1225.34 -3.43972 2.07476 0
M  V30 13284 N 1223.55 -2.10486 2.00359 0
M  V30 13285 H 1223.09 -1.24638 2.2544 0
M  V30 13286 H 1223.05 -2.78324 1.46229 0
M  V30 13287 N 1226.82 -1.56058 0.219941 0
M  V30 13288 C 1227.76 -2.17494 -0.723133 0
M  V30 13289 C 1228.77 -1.14356 -1.15873 0
M  V30 13290 O 1229.96 -1.41343 -1.09016 0
M  V30 13291 C 1227.06 -2.74242 -1.99109 0
M  V30 13292 C 1226.23 -4.02533 -1.71132 0
M  V30 13293 C 1225.29 -4.43862 -2.82618 0
M  V30 13294 O 1224.32 -5.10792 -2.51157 0
M  V30 13295 N 1225.52 -4.09412 -4.11537 0
M  V30 13296 H 1228.28 -2.99048 -0.197619 0
M  V30 13297 H 1225.84 -1.61853 0.0388738 0
M  V30 13298 H 1227.84 -2.98862 -2.7288 0
M  V30 13299 H 1226.41 -1.97 -2.42713 0
M  V30 13300 H 1225.63 -3.85786 -0.810128 0
M  V30 13301 H 1226.91 -4.86227 -1.49868 0
M  V30 13302 H 1226.31 -3.55624 -4.39941 0
M  V30 13303 H 1224.87 -4.38928 -4.81857 0
M  V30 13304 N 1228.3 0.053464 -1.57509 0
M  V30 13305 C 1229.25 1.06155 -2.04939 0
M  V30 13306 C 1230.22 1.37382 -0.93357 0
M  V30 13307 O 1231.4 1.48137 -1.2025 0
M  V30 13308 C 1228.54 2.36476 -2.51343 0
M  V30 13309 C 1227.66 2.1162 -3.76618 0
M  V30 13310 C 1226.79 3.35636 -4.11731 0
M  V30 13311 C 1225.83 3.06226 -5.29993 0
M  V30 13312 N 1224.97 4.22623 -5.60655 0
M  V30 13313 H 1229.81 0.650122 -2.90822 0
M  V30 13314 H 1227.34 0.309421 -1.43809 0
M  V30 13315 H 1229.3 3.12588 -2.76306 0
M  V30 13316 H 1227.93 2.75386 -1.68411 0
M  V30 13317 H 1226.98 1.26116 -3.58886 0
M  V30 13318 H 1228.3 1.85909 -4.6286 0
M  V30 13319 H 1227.45 4.20132 -4.37692 0
M  V30 13320 H 1226.19 3.64439 -3.24092 0
M  V30 13321 H 1225.19 2.20128 -5.03809 0
M  V30 13322 H 1226.42 2.78726 -6.19265 0
M  V30 13323 H 1224.37 4.51424 -4.75976 0
M  V30 13324 H 1224.28 4.0025 -6.41355 0
M  V30 13325 H 1225.55 5.08063 -5.91178 0
M  V30 13326 N 1229.78 1.54207 0.325255 0
M  V30 13327 C 1231.03 1.72587 1.06497 0
M  V30 13328 C 1231.36 0.497228 1.87727 0
M  V30 13329 O 1230.63 -0.505804 1.87808 0
M  V30 13330 C 1230.92 3.00046 1.99109 0
M  V30 13331 C 1230.77 4.33158 1.21221 0
M  V30 13332 C 1232.09 3.23251 2.98658 0
M  V30 13333 H 1229.21 0.627974 0.38577 0
M  V30 13334 H 1231.85 1.869 0.34179 0
M  V30 13335 H 1230 2.87973 2.60775 0
M  V30 13336 H 1231.67 4.57111 0.620289 0
M  V30 13337 H 1229.91 4.30739 0.514462 0
M  V30 13338 H 1230.59 5.18558 1.89214 0
M  V30 13339 H 1233.06 3.34774 2.47114 0
M  V30 13340 H 1231.94 4.13796 3.60645 0
M  V30 13341 H 1232.2 2.40401 3.71026 0
M  V30 13342 N 1231.26 -0.58723 1.46251 0
M  V30 13343 C 1232.5 -1.3476 1.51551 0
M  V30 13344 C 1232.84 -1.93499 0.16483 0
M  V30 13345 O 1232.11 -1.7622 -0.823207 0
M  V30 13346 C 1232.39 -2.48033 2.61059 0
M  V30 13347 C 1232.25 -1.94358 4.05642 0
M  V30 13348 C 1233.57 -3.50096 2.66685 0
M  V30 13349 H 1230.69 -0.48863 0.551733 0
M  V30 13350 H 1233.33 -0.660097 1.78165 0
M  V30 13351 H 1231.48 -3.06679 2.38496 0
M  V30 13352 H 1233.15 -1.40204 4.39478 0
M  V30 13353 H 1231.39 -1.25217 4.15335 0
M  V30 13354 H 1232.06 -2.76105 4.77986 0
M  V30 13355 H 1234.54 -3.01324 2.86955 0
M  V30 13356 H 1233.42 -4.26817 3.45135 0
M  V30 13357 H 1233.68 -4.07032 1.7256 0
M  V30 13358 N 1232.74 -1.33881 -0.831482 0
M  V30 13359 C 1233.98 -1.25755 -1.58719 0
M  V30 13360 C 1234.31 0.174746 -1.93713 0
M  V30 13361 O 1233.57 1.13384 -1.59507 0
M  V30 13362 C 1233.86 -2.08544 -2.90249 0
M  V30 13363 C 1233.53 -3.57651 -2.74585 0
M  V30 13364 C 1232.19 -3.983 -2.7002 0
M  V30 13365 C 1234.54 -4.52369 -2.58866 0
M  V30 13366 C 1231.87 -5.31872 -2.47647 0
M  V30 13367 C 1234.22 -5.86112 -2.38025 0
M  V30 13368 C 1232.89 -6.25934 -2.31867 0
M  V30 13369 H 1232.16 -0.460171 -0.580796 0
M  V30 13370 H 1234.81 -1.6554 -0.96274 0
M  V30 13371 H 1233.11 -1.6156 -3.56939 0
M  V30 13372 H 1234.81 -1.99609 -3.47789 0
M  V30 13373 H 1231.4 -3.2538 -2.78973 0
M  V30 13374 H 1235.58 -4.21868 -2.61421 0
M  V30 13375 H 1230.84 -5.61756 -2.41331 0
M  V30 13376 H 1235.01 -6.59103 -2.24847 0
M  V30 13377 H 1232.64 -7.29372 -2.14291 0
M  V30 13378 N 1234.21 1.05064 -1.1747 0
M  V30 13379 C 1235.44 1.81497 -0.987031 0
M  V30 13380 C 1235.85 1.83323 0.467921 0
M  V30 13381 O 1235.19 1.26006 1.33672 0
M  V30 13382 C 1235.26 3.28826 -1.45306 0
M  V30 13383 C 1234.92 3.50681 -2.93039 0
M  V30 13384 C 1235.92 3.42699 -3.90965 0
M  V30 13385 C 1233.6 3.77602 -3.31243 0
M  V30 13386 C 1235.6 3.61325 -5.25093 0
M  V30 13387 C 1233.28 3.95876 -4.65538 0
M  V30 13388 C 1234.28 3.87737 -5.62271 0
M  V30 13389 O 1233.97 4.055 -6.94136 0
M  V30 13390 H 1233.7 0.578734 -0.349347 0
M  V30 13391 H 1236.26 1.33373 -1.56208 0
M  V30 13392 H 1234.49 3.77872 -0.821581 0
M  V30 13393 H 1236.17 3.86788 -1.23085 0
M  V30 13394 H 1236.94 3.21877 -3.62795 0
M  V30 13395 H 1232.82 3.8304 -2.56517 0
M  V30 13396 H 1236.36 3.54888 -6.00583 0
M  V30 13397 H 1232.26 4.16191 -4.93412 0
M  V30 13398 H 1233.03 4.22718 -7.00894 0
M  V30 13399 N 1235.69 0.975146 1.23809 0
M  V30 13400 C 1236.94 0.639858 1.91704 0
M  V30 13401 C 1237.26 -0.828557 1.76522 0
M  V30 13402 O 1236.53 -1.59217 1.14135 0
M  V30 13403 H 1235.11 0.233667 0.709513 0
M  V30 13404 H 1237.77 1.23782 1.50545 0
M  V30 13405 H 1236.87 0.886915 2.99233 0
M  V30 13406 N 1237.17 -1.38817 0.746158 0
M  V30 13407 C 1238.12 -2.30521 0.113517 0
M  V30 13408 C 1239.09 -1.49795 -0.717682 0
M  V30 13409 O 1240.27 -1.78448 -0.675345 0
M  V30 13410 C 1237.41 -3.36185 -0.779343 0
M  V30 13411 C 1236.52 -4.3195 0.0656784 0
M  V30 13412 C 1235.66 -5.24684 -0.829492 0
M  V30 13413 C 1234.7 -6.12097 0.0196112 0
M  V30 13414 N 1233.84 -6.97152 -0.832107 0
M  V30 13415 H 1238.68 -2.84048 0.901136 0
M  V30 13416 H 1236.21 -1.39853 0.456025 0
M  V30 13417 H 1238.17 -3.96048 -1.31156 0
M  V30 13418 H 1236.8 -2.84085 -1.53282 0
M  V30 13419 H 1235.85 -3.73611 0.715445 0
M  V30 13420 H 1237.16 -4.93551 0.721735 0
M  V30 13421 H 1236.32 -5.89627 -1.42915 0
M  V30 13422 H 1235.06 -4.63431 -1.5193 0
M  V30 13423 H 1234.06 -5.46156 0.631991 0
M  V30 13424 H 1235.29 -6.75416 0.706369 0
M  V30 13425 H 1233.23 -6.38456 -1.507 0
M  V30 13426 H 1233.15 -7.55642 -0.232782 0
M  V30 13427 H 1234.42 -7.66513 -1.41697 0
M  V30 13428 N 1238.65 -0.49465 -1.49636 0
M  V30 13429 C 1239.9 0.0520143 -2.02033 0
M  V30 13430 C 1240.22 1.38071 -1.37701 0
M  V30 13431 O 1239.49 1.88589 -0.530181 0
M  V30 13432 H 1238.07 0.0222123 -0.74667 0
M  V30 13433 H 1240.73 -0.650445 -1.83726 0
M  V30 13434 H 1239.82 0.186337 -3.11543 0
M  V30 13435 N 1240.13 1.55939 -0.228214 0
M  V30 13436 C 1241.35 2.0287 0.406348 0
M  V30 13437 C 1241.77 1.1079 1.52876 0
M  V30 13438 O 1241.13 0.118747 1.82113 0
M  V30 13439 C 1241.18 3.49286 0.931734 0
M  V30 13440 O 1240.9 4.37857 -0.145933 0
M  V30 13441 C 1242.4 4.11893 1.63887 0
M  V30 13442 H 1239.62 0.663696 0.0987358 0
M  V30 13443 H 1242.16 2.01541 -0.346616 0
M  V30 13444 H 1240.32 3.5121 1.63494 0
M  V30 13445 H 1240.73 5.23904 0.250005 0
M  V30 13446 H 1242.21 5.16091 1.95841 0
M  V30 13447 H 1242.68 3.57281 2.55435 0
M  V30 13448 H 1243.29 4.13839 0.980697 0
M  V30 13449 N 1241.6 -0.0451101 1.57535 0
M  V30 13450 C 1242.83 -0.750231 1.92497 0
M  V30 13451 C 1243.24 -1.70268 0.824946 0
M  V30 13452 O 1242.59 -1.82511 -0.208656 0
M  V30 13453 C 1242.65 -1.57543 3.23141 0
M  V30 13454 C 1242.31 -0.789495 4.50129 0
M  V30 13455 C 1243.31 -0.0968367 5.1981 0
M  V30 13456 C 1240.99 -0.748776 4.96688 0
M  V30 13457 C 1242.99 0.626018 6.34318 0
M  V30 13458 C 1240.67 -0.0221652 6.11096 0
M  V30 13459 C 1241.67 0.664006 6.79765 0
M  V30 13460 O 1241.36 1.37885 7.91987 0
M  V30 13461 H 1241.09 -0.216895 0.64026 0
M  V30 13462 H 1243.65 -0.011558 2.05397 0
M  V30 13463 H 1241.88 -2.35754 3.06524 0
M  V30 13464 H 1243.57 -2.16168 3.4355 0
M  V30 13465 H 1244.33 -0.119429 4.84853 0
M  V30 13466 H 1240.21 -1.27235 4.43094 0
M  V30 13467 H 1243.75 1.16215 6.87852 0
M  V30 13468 H 1239.65 0.00240707 6.455 0
M  V30 13469 H 1240.42 1.29087 8.08257 0
M  V30 13470 N 1243.08 -1.54377 -0.317073 0
M  V30 13471 C 1244.36 -1.63551 -1.07287 0
M  V30 13472 C 1244.74 -0.473499 -2.05721 0
M  V30 13473 O 1244.09 0.531545 -2.22232 0
M  V30 13474 C 1244.3 -3.00842 -1.76904 0
M  V30 13475 C 1245.65 -3.57111 -2.29689 0
M  V30 13476 O 1246.67 -3.0319 -1.86961 0
M  V30 13477 O 1245.53 -4.51486 -3.07932 0
M  V30 13478 H 1242.62 -0.662557 -0.494922 0
M  V30 13479 H 1245.17 -1.66723 -0.316444 0
M  V30 13480 H 1243.94 -3.76854 -1.05341 0
M  V30 13481 H 1243.56 -3.01377 -2.59341 0
M  V30 13482 N 1244.56 0.579466 -1.4656 0
M  V30 13483 C 1245.97 1.1616 -1.46164 0
M  V30 13484 C 1246.32 1.95134 -0.20423 0
M  V30 13485 O 1245.45 2.05022 0.692457 0
M  V30 13486 C 1246.04 2.11322 -2.64818 0
M  V30 13487 C 1244.6 2.64852 -2.67452 0
M  V30 13488 C 1243.75 1.40786 -2.38903 0
M  V30 13489 H 1246.7 0.367229 -1.54393 0
M  V30 13490 H 1246.72 2.94839 -2.4052 0
M  V30 13491 H 1246.23 1.53815 -3.56318 0
M  V30 13492 H 1244.33 3.26219 -1.80032 0
M  V30 13493 H 1244.45 3.07366 -3.67509 0
M  V30 13494 H 1242.81 1.70707 -1.89027 0
M  V30 13495 H 1243.59 0.851049 -3.32584 0
M  V30 13496 N 1246.04 1.3432 0.824371 0
M  V30 13497 C 1247.32 1.17178 1.56616 0
M  V30 13498 C 1247.7 -0.256195 2.0954 0
M  V30 13499 O 1247.04 -1.25732 1.90798 0
M  V30 13500 C 1247.25 2.22511 2.68867 0
M  V30 13501 C 1248.6 2.57414 3.37673 0
M  V30 13502 O 1249.63 2.2129 2.79122 0
M  V30 13503 O 1248.48 3.19462 4.43403 0
M  V30 13504 H 1245.58 0.454141 0.691147 0
M  V30 13505 H 1248.12 1.45948 0.865869 0
M  V30 13506 H 1246.9 3.18366 2.27505 0
M  V30 13507 H 1246.52 1.9491 3.46548 0
M  V30 13508 N 1247.52 -1.0444 1.18026 0
M  V30 13509 C 1248.76 -1.77224 0.971391 0
M  V30 13510 C 1249.09 -1.88466 -0.500564 0
M  V30 13511 O 1248.36 -1.40692 -1.36317 0
M  V30 13512 H 1246.94 -0.656485 0.356422 0
M  V30 13513 H 1249.6 -1.26064 1.4864 0
M  V30 13514 H 1248.69 -2.78626 1.4062 0
M  V30 13515 N 1248.99 -0.981699 -1.2329 0
M  V30 13516 C 1250.22 -0.669025 -1.96313 0
M  V30 13517 C 1250.64 0.757624 -1.72168 0
M  V30 13518 O 1250 1.51626 -0.993942 0
M  V30 13519 C 1250.05 -0.966875 -3.47396 0
M  V30 13520 O 1249.15 -0.0595933 -4.12357 0
M  V30 13521 H 1248.5 -0.251493 -0.61453 0
M  V30 13522 H 1251.03 -1.31564 -1.56691 0
M  V30 13523 H 1251.04 -0.904112 -3.97857 0
M  V30 13524 H 1249.71 -2.00651 -3.64296 0
M  V30 13525 H 1248.29 -0.176878 -3.7248 0
M  V30 13526 N 1250.47 1.3842 -0.753509 0
M  V30 13527 C 1251.72 1.99359 -0.306416 0
M  V30 13528 C 1252.03 1.60492 1.11811 0
M  V30 13529 O 1253.24 2.14401 1.66567 0
M  V30 13530 C 1251.7 3.56453 -0.496895 0
M  V30 13531 C 1251.3 4.04272 -1.9305 0
M  V30 13532 C 1253.05 4.24351 -0.11251 0
M  V30 13533 C 1250.96 5.54007 -2.06955 0
M  V30 13534 H 1249.89 0.745812 -0.110818 0
M  V30 13535 H 1252.54 1.58185 -0.930039 0
M  V30 13536 H 1250.92 3.95515 0.195912 0
M  V30 13537 H 1252.09 3.765 -2.65677 0
M  V30 13538 H 1250.41 3.49098 -2.26979 0
M  V30 13539 H 1253 5.34344 -0.195161 0
M  V30 13540 H 1253.35 4.05668 0.934849 0
M  V30 13541 H 1253.88 3.90528 -0.757168 0
M  V30 13542 H 1250.62 5.77594 -3.09944 0
M  V30 13543 H 1250.14 5.83522 -1.38788 0
M  V30 13544 H 1251.82 6.19704 -1.85945 0
M  V30 13545 N 1251.95 0.502579 1.49372 0
M  V30 13546 C 1252.91 -0.263993 2.27675 0
M  V30 13547 C 1253.91 -0.892538 1.33755 0
M  V30 13548 O 1255.1 -0.756826 1.56901 0
M  V30 13549 C 1252.24 -1.37895 3.11765 0
M  V30 13550 H 1253.43 0.423132 2.969 0
M  V30 13551 H 1250.98 0.257595 1.54163 0
M  V30 13552 H 1251.72 -2.10018 2.47109 0
M  V30 13553 H 1251.5 -0.933694 3.80821 0
M  V30 13554 H 1252.99 -1.91889 3.70902 0
M  V30 13555 N 1253.43 -1.55816 0.23648 0
M  V30 13556 C 1254.68 -1.98294 -0.390373 0
M  V30 13557 C 1255 -1.12573 -1.59224 0
M  V30 13558 O 1254.27 -0.206128 -1.94813 0
M  V30 13559 H 1252.85 -0.732349 -0.14722 0
M  V30 13560 H 1255.51 -1.92037 0.332848 0
M  V30 13561 H 1254.61 -3.03996 -0.706595 0
M  V30 13562 N 1254.91 0.036755 -1.57557 0
M  V30 13563 C 1256.14 0.740011 -1.92892 0
M  V30 13564 C 1256.54 1.69828 -0.833964 0
M  V30 13565 O 1255.89 1.82619 0.198974 0
M  V30 13566 C 1255.95 1.55827 -3.23972 0
M  V30 13567 C 1255.61 0.765613 -4.50541 0
M  V30 13568 C 1256.61 0.0692686 -5.19854 0
M  V30 13569 C 1254.3 0.722425 -4.97078 0
M  V30 13570 C 1256.29 -0.659649 -6.33977 0
M  V30 13571 C 1253.98 -0.0102431 -6.11099 0
M  V30 13572 C 1254.97 -0.700047 -6.79403 0
M  V30 13573 O 1254.66 -1.42084 -7.91244 0
M  V30 13574 H 1254.39 0.213496 -0.641401 0
M  V30 13575 H 1256.95 0.000665152 -2.054 0
M  V30 13576 H 1255.18 2.34125 -3.0777 0
M  V30 13577 H 1256.87 2.14343 -3.44691 0
M  V30 13578 H 1257.63 0.0937148 -4.84909 0
M  V30 13579 H 1253.51 1.24883 -4.43763 0
M  V30 13580 H 1257.06 -1.19861 -6.87226 0
M  V30 13581 H 1252.95 -0.0366395 -6.4549 0
M  V30 13582 H 1253.72 -1.33372 -8.07561 0
M  V30 13583 N 1256.39 1.54543 0.308881 0
M  V30 13584 C 1257.32 1.81309 1.40212 0
M  V30 13585 C 1258.33 0.69568 1.47187 0
M  V30 13586 O 1259.52 0.973034 1.49647 0
M  V30 13587 C 1256.62 1.92901 2.78644 0
M  V30 13588 C 1255.79 3.23222 2.94697 0
M  V30 13589 C 1254.85 3.25329 4.13579 0
M  V30 13590 O 1253.88 3.989 4.06039 0
M  V30 13591 N 1255.08 2.50158 5.23833 0
M  V30 13592 H 1257.84 2.75659 1.1761 0
M  V30 13593 H 1255.41 1.54021 0.498925 0
M  V30 13594 H 1257.4 1.91721 3.56406 0
M  V30 13595 H 1255.97 1.05582 2.9423 0
M  V30 13596 H 1255.19 3.37241 2.04113 0
M  V30 13597 H 1256.48 4.09238 3.02328 0
M  V30 13598 H 1255.87 1.90002 5.32838 0
M  V30 13599 H 1254.43 2.5474 5.99959 0
M  V30 13600 N 1257.86 -0.571685 1.46866 0
M  V30 13601 C 1259.11 -1.32924 1.53957 0
M  V30 13602 C 1259.46 -1.91428 0.1932 0
M  V30 13603 O 1258.76 -1.74125 -0.799447 0
M  V30 13604 C 1258.95 -2.47051 2.58264 0
M  V30 13605 C 1258.78 -1.99729 4.02913 0
M  V30 13606 C 1257.55 -1.84236 4.70516 0
M  V30 13607 C 1259.75 -1.55035 4.90376 0
M  V30 13608 N 1257.73 -1.31101 5.99738 0
M  V30 13609 C 1259.1 -1.13566 6.0951 0
M  V30 13610 C 1261.16 -1.42953 4.76937 0
M  V30 13611 C 1259.86 -0.612183 7.1669 0
M  V30 13612 C 1261.89 -0.92008 5.84199 0
M  V30 13613 C 1261.25 -0.515239 7.02513 0
M  V30 13614 H 1257.35 -0.47897 0.618152 0
M  V30 13615 H 1259.93 -0.649687 1.83541 0
M  V30 13616 H 1258.1 -3.12555 2.30573 0
M  V30 13617 H 1259.83 -3.14025 2.55285 0
M  V30 13618 H 1256.59 -2.06516 4.26202 0
M  V30 13619 H 1257.01 -1.06663 6.68545 0
M  V30 13620 H 1261.65 -1.72869 3.85845 0
M  V30 13621 H 1259.37 -0.300634 8.07541 0
M  V30 13622 H 1262.96 -0.830357 5.75844 0
M  V30 13623 H 1261.84 -0.127122 7.84097 0
M  V30 13624 N 1259.34 -1.34755 -0.817236 0
M  V30 13625 C 1260.62 -1.18007 -1.55993 0
M  V30 13626 C 1261 0.245079 -2.09673 0
M  V30 13627 O 1260.35 1.24718 -1.91462 0
M  V30 13628 C 1260.56 -2.23934 -2.67684 0
M  V30 13629 C 1261.9 -2.59201 -3.36303 0
M  V30 13630 O 1262.93 -2.22767 -2.77945 0
M  V30 13631 O 1261.79 -3.21809 -4.41702 0
M  V30 13632 H 1258.88 -0.4578 -0.688729 0
M  V30 13633 H 1261.43 -1.46405 -0.858117 0
M  V30 13634 H 1260.2 -3.19568 -2.25813 0
M  V30 13635 H 1259.82 -1.96745 -3.4551 0
M  V30 13636 N 1260.82 1.03812 -1.18578 0
M  V30 13637 C 1262.07 1.77056 -0.982718 0
M  V30 13638 C 1262.39 1.88294 0.487421 0
M  V30 13639 O 1261.65 1.38946 1.37813 0
M  V30 13640 C 1261.95 3.20297 -1.5857 0
M  V30 13641 C 1261.61 3.29088 -3.0824 0
M  V30 13642 C 1260.28 3.31194 -3.4909 0
M  V30 13643 C 1262.63 3.28981 -4.04253 0
M  V30 13644 C 1259.96 3.30839 -4.84523 0
M  V30 13645 C 1262.31 3.30166 -5.39605 0
M  V30 13646 C 1260.97 3.30565 -5.79899 0
M  V30 13647 H 1260.24 0.647895 -0.359602 0
M  V30 13648 H 1262.89 1.21911 -1.47682 0
M  V30 13649 H 1261.19 3.7846 -1.01367 0
M  V30 13650 H 1262.89 3.75619 -1.40398 0
M  V30 13651 H 1259.48 3.28171 -2.75685 0
M  V30 13652 H 1263.67 3.26543 -3.73743 0
M  V30 13653 H 1258.92 3.29467 -5.15035 0
M  V30 13654 H 1263.1 3.29033 -6.13767 0
M  V30 13655 H 1260.72 3.30044 -6.84818 0
M  V30 13656 N 1262.3 0.988223 1.22768 0
M  V30 13657 C 1263.55 0.660154 1.91014 0
M  V30 13658 C 1263.87 -0.809788 1.77391 0
M  V30 13659 O 1263.14 -1.57998 1.15817 0
M  V30 13660 H 1261.72 0.24118 0.706995 0
M  V30 13661 H 1264.38 1.25372 1.49224 0
M  V30 13662 H 1263.47 0.918603 2.98275 0
M  V30 13663 N 1263.78 -1.38018 0.760839 0
M  V30 13664 C 1265.05 -1.94054 0.245437 0
M  V30 13665 C 1265.43 -1.6955 -1.25761 0
M  V30 13666 O 1264.78 -1.03812 -2.03557 0
M  V30 13667 C 1264.99 -3.43681 0.606986 0
M  V30 13668 C 1266.34 -4.20748 0.570673 0
M  V30 13669 O 1267.36 -3.51995 0.545715 0
M  V30 13670 O 1266.22 -5.43327 0.588043 0
M  V30 13671 H 1263.32 -0.825264 0.0535607 0
M  V30 13672 H 1265.86 -1.47369 0.841453 0
M  V30 13673 H 1264.63 -3.55054 1.64476 0
M  V30 13674 H 1264.26 -3.97597 -0.0166576 0
M  V30 13675 N 1265.25 -0.510493 -1.49103 0
M  V30 13676 C 1266.5 0.0305831 -2.02077 0
M  V30 13677 C 1266.82 1.36602 -1.39157 0
M  V30 13678 O 1266.09 1.88016 -0.550154 0
M  V30 13679 H 1264.67 0.0142916 -0.746863 0
M  V30 13680 H 1267.33 -0.669895 -1.83026 0
M  V30 13681 H 1266.43 0.153283 -3.11723 0
M  V30 13682 N 1266.73 1.55688 -0.24474 0
M  V30 13683 C 1267.96 2.03743 0.387776 0
M  V30 13684 C 1268.38 1.1229 1.50906 0
M  V30 13685 O 1267.74 0.115445 1.80932 0
M  V30 13686 C 1267.79 3.49825 0.874927 0
M  V30 13687 O 1266.89 3.61504 1.98466 0
M  V30 13688 H 1266.23 0.658561 0.0848107 0
M  V30 13689 H 1268.76 2.01224 -0.370165 0
M  V30 13690 H 1268.77 3.90603 1.17871 0
M  V30 13691 H 1267.45 4.15864 0.0543852 0
M  V30 13692 H 1266.02 3.32622 1.68574 0
M  V30 13693 N 1268.21 -0.0283989 1.57574 0
M  V30 13694 C 1269.49 -0.754527 1.80461 0
M  V30 13695 C 1269.87 -1.93539 0.842966 0
M  V30 13696 O 1269.21 -2.28212 -0.114714 0
M  V30 13697 C 1269.42 -1.18694 3.28196 0
M  V30 13698 C 1270.77 -1.60257 3.93196 0
M  V30 13699 O 1271.8 -1.2815 3.32349 0
M  V30 13700 O 1270.66 -2.19853 5.00327 0
M  V30 13701 H 1267.75 -0.364936 0.742126 0
M  V30 13702 H 1270.3 -0.00512589 1.69699 0
M  V30 13703 H 1269.07 -0.34398 3.89785 0
M  V30 13704 H 1268.69 -1.99633 3.43849 0
M  V30 13705 N 1269.69 -1.54705 -0.300681 0
M  V30 13706 C 1270.93 -1.74001 -1.03585 0
M  V30 13707 C 1271.26 -0.525972 -1.87253 0
M  V30 13708 O 1270.52 0.492068 -1.89413 0
M  V30 13709 C 1270.82 -2.98173 -1.97047 0
M  V30 13710 C 1270.48 -4.31948 -1.29352 0
M  V30 13711 C 1269.14 -4.68312 -1.10623 0
M  V30 13712 C 1271.5 -5.14874 -0.809594 0
M  V30 13713 C 1268.82 -5.85181 -0.42185 0
M  V30 13714 C 1271.18 -6.32447 -0.138935 0
M  V30 13715 C 1269.84 -6.67473 0.0603129 0
M  V30 13716 H 1269.11 -0.636716 -0.379044 0
M  V30 13717 H 1271.76 -1.88963 -0.310697 0
M  V30 13718 H 1270.06 -2.77994 -2.76091 0
M  V30 13719 H 1271.76 -3.10297 -2.54001 0
M  V30 13720 H 1268.35 -4.0335 -1.44937 0
M  V30 13721 H 1272.53 -4.87278 -0.942006 0
M  V30 13722 H 1267.79 -6.10862 -0.256494 0
M  V30 13723 H 1271.96 -6.95973 0.243939 0
M  V30 13724 H 1269.59 -7.57887 0.592626 0
M  V30 13725 N 1271.17 0.563888 -1.47167 0
M  V30 13726 C 1272.39 1.35176 -1.57297 0
M  V30 13727 C 1272.82 1.86794 -0.221235 0
M  V30 13728 O 1272.17 1.62606 0.801809 0
M  V30 13729 C 1272.22 2.50225 -2.59654 0
M  V30 13730 O 1271.33 3.5225 -2.14461 0
M  V30 13731 H 1270.67 0.401795 -0.528637 0
M  V30 13732 H 1273.2 0.682137 -1.92894 0
M  V30 13733 H 1273.21 2.96886 -2.79862 0
M  V30 13734 H 1271.88 2.1201 -3.57805 0
M  V30 13735 H 1270.46 3.1194 -2.04323 0
M  V30 13736 N 1272.64 1.35187 0.810078 0
M  V30 13737 C 1273.87 1.31528 1.60359 0
M  V30 13738 C 1274.29 -0.105385 1.87805 0
M  V30 13739 O 1273.65 -1.07113 1.46276 0
M  V30 13740 C 1273.7 2.12429 2.91386 0
M  V30 13741 O 1272.8 1.50262 3.84051 0
M  V30 13742 H 1272.15 0.451122 0.487222 0
M  V30 13743 H 1274.68 1.78178 1.00568 0
M  V30 13744 H 1274.69 2.24257 3.40841 0
M  V30 13745 H 1273.36 3.15714 2.70735 0
M  V30 13746 H 1271.94 1.47253 3.42594 0
M  V30 13747 N 1274.12 -1.03182 1.19127 0
M  V30 13748 C 1275.03 -2.14875 0.94159 0
M  V30 13749 C 1276.05 -1.73727 -0.0973872 0
M  V30 13750 O 1277.22 -2.01214 0.0865775 0
M  V30 13751 C 1274.29 -3.43356 0.480366 0
M  V30 13752 C 1273.35 -3.98835 1.58838 0
M  V30 13753 C 1272.58 -5.21183 1.14907 0
M  V30 13754 O 1272.81 -5.70399 0.0114141 0
M  V30 13755 O 1271.74 -5.69423 1.95042 0
M  V30 13756 H 1275.57 -2.38799 1.8764 0
M  V30 13757 H 1273.15 -1.13299 0.973841 0
M  V30 13758 H 1275.03 -4.20763 0.231658 0
M  V30 13759 H 1273.71 -3.20884 -0.426041 0
M  V30 13760 H 1272.62 -3.22776 1.8912 0
M  V30 13761 H 1273.95 -4.25665 2.47123 0
M  V30 13762 N 1275.6 -0.99472 -1.22242 0
M  V30 13763 C 1276.53 -0.504783 -2.23572 0
M  V30 13764 C 1277.55 0.401105 -1.57781 0
M  V30 13765 O 1278.73 0.202948 -1.77343 0
M  V30 13766 C 1275.83 0.287524 -3.37678 0
M  V30 13767 C 1275.01 -0.614941 -4.33056 0
M  V30 13768 C 1274.07 0.125974 -5.26049 0
M  V30 13769 O 1273.09 -0.489234 -5.67094 0
M  V30 13770 N 1274.29 1.40772 -5.63173 0
M  V30 13771 H 1277.06 -1.37612 -2.66238 0
M  V30 13772 H 1274.62 -0.86965 -1.3656 0
M  V30 13773 H 1276.61 0.791884 -3.96877 0
M  V30 13774 H 1275.18 1.05998 -2.9408 0
M  V30 13775 H 1274.4 -1.29994 -3.72149 0
M  V30 13776 H 1275.69 -1.22947 -4.93722 0
M  V30 13777 H 1275.09 1.92884 -5.31801 0
M  V30 13778 H 1273.65 1.85723 -6.2478 0
M  V30 13779 N 1277.08 1.37613 -0.768148 0
M  V30 13780 C 1278.03 2.3218 -0.13974 0
M  V30 13781 C 1279.02 1.54754 0.689023 0
M  V30 13782 O 1280.23 1.70177 0.586489 0
M  V30 13783 H 1276.6 0.751536 -0.0264001 0
M  V30 13784 H 1278.57 2.82768 -0.953139 0
M  V30 13785 C 1277.32 3.39997 0.727829 0
M  V30 13786 H 1276.64 3.99676 0.0994851 0
M  V30 13787 H 1278.08 4.08538 1.13456 0
M  V30 13788 C 1276.54 2.79778 1.87686 0
M  V30 13789 O 1277.07 2.70241 2.97208 0
M  V30 13790 N 1275.28 2.37373 1.67637 0
M  V30 13791 H 1274.83 2.4533 0.785552 0
M  V30 13792 H 1274.78 1.97426 2.44684 0
M  V30 13793 N 1278.56 0.518393 1.4883 0
M  V30 13794 C 1279.97 0.0749773 1.86549 0
M  V30 13795 C 1280.32 -1.34429 1.4291 0
M  V30 13796 O 1279.44 -2.00481 0.814648 0
M  V30 13797 C 1280.04 0.129289 3.38553 0
M  V30 13798 C 1278.6 -0.258871 3.75509 0
M  V30 13799 C 1277.74 0.494185 2.72861 0
M  V30 13800 H 1280.7 0.730266 1.409 0
M  V30 13801 H 1280.72 -0.661844 3.747 0
M  V30 13802 H 1280.23 1.16237 3.70285 0
M  V30 13803 H 1278.33 -1.29453 3.49389 0
M  V30 13804 H 1278.44 0.0726769 4.79045 0
M  V30 13805 H 1276.81 -0.0581428 2.54634 0
M  V30 13806 H 1277.59 1.52767 3.07436 0
M  V30 13807 N 1280.03 -1.55556 0.252993 0
M  V30 13808 C 1281.26 -2.03945 -0.376965 0
M  V30 13809 C 1281.68 -1.13089 -1.50308 0
M  V30 13810 O 1281.04 -0.125039 -1.80868 0
M  V30 13811 C 1281.09 -3.50284 -0.856363 0
M  V30 13812 O 1280.19 -3.62551 -1.96546 0
M  V30 13813 H 1279.54 -0.659002 -0.081317 0
M  V30 13814 H 1282.07 -2.01024 0.380831 0
M  V30 13815 H 1282.08 -3.91222 -1.15798 0
M  V30 13816 H 1280.75 -4.15887 -0.0323302 0
M  V30 13817 H 1279.33 -3.33511 -1.66808 0
M  V30 13818 N 1281.51 0.0200419 -1.57587 0
M  V30 13819 C 1282.46 1.0259 -2.03615 0
M  V30 13820 C 1283.45 1.31504 -0.927116 0
M  V30 13821 O 1284.64 1.30938 -1.19098 0
M  V30 13822 C 1281.77 2.32424 -2.52654 0
M  V30 13823 C 1280.85 2.06561 -3.70396 0
M  V30 13824 N 1281.24 1.50787 -4.82801 0
M  V30 13825 C 1279.54 2.36802 -3.77943 0
M  V30 13826 C 1280.24 1.40935 -5.64369 0
M  V30 13827 N 1279.22 1.88806 -5.09758 0
M  V30 13828 H 1283.02 0.588835 -2.87941 0
M  V30 13829 H 1280.54 0.226163 -1.60817 0
M  V30 13830 H 1282.53 3.05303 -2.83894 0
M  V30 13831 H 1281.19 2.76801 -1.69738 0
M  V30 13832 H 1282.2 1.18935 -5.04058 0
M  V30 13833 H 1278.88 2.84192 -3.05845 0
M  V30 13834 H 1280.27 0.982261 -6.64681 0
M  V30 13835 N 1282.99 1.54862 0.292472 0
M  V30 13836 C 1284.24 1.74807 1.02813 0
M  V30 13837 C 1284.57 0.536935 1.8663 0
M  V30 13838 O 1283.84 -0.465854 1.88839 0
M  V30 13839 C 1284.13 3.04202 1.927 0
M  V30 13840 C 1283.98 4.35631 1.12006 0
M  V30 13841 C 1285.3 3.29514 2.91734 0
M  V30 13842 H 1282.42 0.636015 0.372362 0
M  V30 13843 H 1285.06 1.87583 0.302069 0
M  V30 13844 H 1283.21 2.9344 2.54608 0
M  V30 13845 H 1284.88 4.58323 0.52319 0
M  V30 13846 H 1283.13 4.31733 0.42298 0
M  V30 13847 H 1283.8 5.22454 1.78172 0
M  V30 13848 H 1286.27 3.39941 2.39957 0
M  V30 13849 H 1285.15 4.21352 3.51786 0
M  V30 13850 H 1285.41 2.48216 3.65843 0
M  V30 13851 N 1284.47 -0.556076 1.47464 0
M  V30 13852 C 1285.7 -1.33664 1.57536 0
M  V30 13853 C 1286.11 -1.87858 0.224977 0
M  V30 13854 O 1285.45 -1.65746 -0.792091 0
M  V30 13855 C 1285.51 -2.54257 2.54152 0
M  V30 13856 C 1285.18 -2.21342 3.99821 0
M  V30 13857 C 1286.17 -1.78568 4.88272 0
M  V30 13858 C 1283.86 -2.32666 4.45165 0
M  V30 13859 C 1285.85 -1.47549 6.20087 0
M  V30 13860 C 1283.54 -2.0126 5.77008 0
M  V30 13861 C 1284.54 -1.58769 6.6429 0
M  V30 13862 O 1284.22 -1.27762 7.93683 0
M  V30 13863 H 1283.96 -0.413721 0.534613 0
M  V30 13864 H 1286.51 -0.680342 1.93805 0
M  V30 13865 H 1284.74 -3.22782 2.12952 0
M  V30 13866 H 1286.43 -3.16332 2.5434 0
M  V30 13867 H 1287.2 -1.69311 4.54487 0
M  V30 13868 H 1283.07 -2.64698 3.77433 0
M  V30 13869 H 1286.62 -1.1431 6.88171 0
M  V30 13870 H 1282.52 -2.10149 6.10334 0
M  V30 13871 H 1283.28 -1.41383 8.06197 0
M  V30 13872 N 1285.95 -1.35615 -0.802897 0
M  V30 13873 C 1287.18 -1.32217 -1.59142 0
M  V30 13874 C 1287.59 0.0995496 -1.88537 0
M  V30 13875 O 1286.95 1.05258 -1.49087 0
M  V30 13876 C 1287 -2.13048 -2.92049 0
M  V30 13877 O 1286.72 -3.49677 -2.63927 0
M  V30 13878 C 1288.22 -2.17278 -3.864 0
M  V30 13879 H 1285.44 -0.454054 -0.49404 0
M  V30 13880 H 1287.98 -1.78521 -0.997516 0
M  V30 13881 H 1286.14 -1.70334 -3.47944 0
M  V30 13882 H 1286.55 -3.917 -3.48814 0
M  V30 13883 H 1288.03 -2.7822 -4.76758 0
M  V30 13884 H 1288.5 -1.17253 -4.23259 0
M  V30 13885 H 1289.11 -2.6017 -3.3644 0
M  V30 13886 N 1287.43 1.02549 -1.19673 0
M  V30 13887 C 1288.37 2.109 -0.937536 0
M  V30 13888 C 1289.34 1.65599 0.128923 0
M  V30 13889 O 1290.53 1.90795 -0.0139366 0
M  V30 13890 C 1287.67 3.4166 -0.48602 0
M  V30 13891 C 1286.78 4.0049 -1.61963 0
M  V30 13892 C 1285.92 5.19273 -1.11931 0
M  V30 13893 C 1284.95 5.70166 -2.22659 0
M  V30 13894 N 1284.09 6.80221 -1.73909 0
M  V30 13895 H 1288.93 2.32408 -1.86523 0
M  V30 13896 H 1286.47 1.13982 -0.929869 0
M  V30 13897 H 1288.43 4.16693 -0.205614 0
M  V30 13898 H 1287.06 3.20253 0.404678 0
M  V30 13899 H 1286.11 3.22638 -2.01516 0
M  V30 13900 H 1287.42 4.34273 -2.45374 0
M  V30 13901 H 1286.57 6.01478 -0.794336 0
M  V30 13902 H 1285.31 4.87033 -0.254972 0
M  V30 13903 H 1284.32 4.86572 -2.55983 0
M  V30 13904 H 1285.54 6.04444 -3.09554 0
M  V30 13905 H 1283.49 6.49826 -0.897889 0
M  V30 13906 H 1283.41 7.13149 -2.50907 0
M  V30 13907 H 1284.67 7.66011 -1.44386 0
M  V30 13908 N 1288.9 1.00119 1.21713 0
M  V30 13909 C 1289.85 0.558388 2.23943 0
M  V30 13910 C 1290.82 -0.413576 1.60869 0
M  V30 13911 O 1292.01 -0.316478 1.88157 0
M  V30 13912 C 1289.15 -0.112618 3.44916 0
M  V30 13913 C 1288.26 0.902071 4.22477 0
M  V30 13914 C 1287.39 0.203722 5.30809 0
M  V30 13915 C 1286.43 1.20622 6.00097 0
M  V30 13916 N 1285.57 0.535607 7.00054 0
M  V30 13917 H 1290.41 1.43486 2.61182 0
M  V30 13918 H 1287.95 0.718572 1.28355 0
M  V30 13919 H 1289.9 -0.51865 4.13964 0
M  V30 13920 H 1288.53 -0.952827 3.08417 0
M  V30 13921 H 1287.59 1.42637 3.52645 0
M  V30 13922 H 1288.9 1.66513 4.70186 0
M  V30 13923 H 1288.05 -0.258614 6.06149 0
M  V30 13924 H 1286.79 -0.591773 4.84096 0
M  V30 13925 H 1285.8 1.6791 5.23532 0
M  V30 13926 H 1287.02 2.00273 6.48897 0
M  V30 13927 H 1284.97 -0.2403 6.5556 0
M  V30 13928 H 1284.88 1.23698 7.45812 0
M  V30 13929 H 1286.15 0.0963489 7.7944 0
M  V30 13930 N 1290.38 -1.37203 0.775435 0
M  V30 13931 C 1291.63 -1.99207 0.340756 0
M  V30 13932 C 1291.95 -1.61861 -1.08747 0
M  V30 13933 O 1291.22 -0.88583 -1.74728 0
M  V30 13934 H 1289.8 -0.736803 0.123004 0
M  V30 13935 H 1292.46 -1.67625 0.994379 0
M  V30 13936 H 1291.56 -3.09243 0.421346 0
M  V30 13937 N 1291.86 -0.526279 -1.48553 0
M  V30 13938 C 1292.77 0.24244 -2.33344 0
M  V30 13939 C 1293.79 0.942658 -1.46253 0
M  V30 13940 O 1294.96 0.91844 -1.79239 0
M  V30 13941 C 1292.03 1.27801 -3.22285 0
M  V30 13942 C 1291.09 0.588543 -4.25247 0
M  V30 13943 C 1290.32 1.57478 -5.09938 0
M  V30 13944 O 1290.54 2.80707 -4.96548 0
M  V30 13945 O 1289.48 1.11621 -5.9146 0
M  V30 13946 H 1293.3 -0.452262 -3.00314 0
M  V30 13947 H 1290.89 -0.287249 -1.46613 0
M  V30 13948 H 1292.77 1.87656 -3.7731 0
M  V30 13949 H 1291.45 1.95519 -2.57981 0
M  V30 13950 H 1290.35 -0.0504022 -3.74066 0
M  V30 13951 H 1291.69 -0.046627 -4.92178 0
M  V30 13952 N 1293.34 1.5542 -0.261239 0
M  V30 13953 C 1294.57 2.03391 0.362698 0
M  V30 13954 C 1294.98 1.13947 1.51039 0
M  V30 13955 O 1294.32 0.149231 1.83093 0
M  V30 13956 C 1294.38 3.47558 0.918889 0
M  V30 13957 C 1294.04 4.56894 -0.0983829 0
M  V30 13958 C 1295.04 5.1182 -0.913018 0
M  V30 13959 C 1292.73 5.01779 -0.228616 0
M  V30 13960 C 1294.72 6.10138 -1.84421 0
M  V30 13961 C 1292.41 5.99926 -1.16329 0
M  V30 13962 C 1293.41 6.53984 -1.9696 0
M  V30 13963 O 1293.09 7.50214 -2.8885 0
M  V30 13964 H 1292.83 0.670166 0.0886182 0
M  V30 13965 H 1295.38 2.01722 -0.386967 0
M  V30 13966 H 1293.61 3.46423 1.71838 0
M  V30 13967 H 1295.3 3.78947 1.45443 0
M  V30 13968 H 1296.06 4.77965 -0.823066 0
M  V30 13969 H 1291.94 4.59356 0.388945 0
M  V30 13970 H 1295.49 6.52258 -2.47397 0
M  V30 13971 H 1291.38 6.332 -1.25412 0
M  V30 13972 H 1292.15 7.67881 -2.83374 0
M  V30 13973 N 1294.82 -0.0116844 1.57596 0
M  V30 13974 C 1296.04 -0.71026 1.94327 0
M  V30 13975 C 1296.46 -1.67952 0.862418 0
M  V30 13976 O 1295.82 -1.818 -0.159698 0
M  V30 13977 C 1295.87 -1.45228 3.31045 0
M  V30 13978 O 1295.59 -0.52191 4.3498 0
M  V30 13979 C 1297.09 -2.24644 3.82165 0
M  V30 13980 H 1294.31 -0.198559 0.640949 0
M  V30 13981 H 1296.85 0.0359615 2.04468 0
M  V30 13982 H 1295.01 -2.15023 3.22248 0
M  V30 13983 H 1295.42 -1.04415 5.14002 0
M  V30 13984 H 1296.9 -2.72078 4.80289 0
M  V30 13985 H 1297.37 -3.06817 3.14261 0
M  V30 13986 H 1297.98 -1.59888 3.94101 0
M  V30 13987 N 1296.29 -1.55015 -0.284256 0
M  V30 13988 C 1297.54 -1.7535 -1.01884 0
M  V30 13989 C 1297.87 -0.546825 -1.86342 0
M  V30 13990 O 1297.15 0.455832 -1.89083 0
M  V30 13991 C 1297.43 -3.05219 -1.91084 0
M  V30 13992 C 1297.28 -4.36219 -1.09694 0
M  V30 13993 C 1298.6 -3.31056 -2.89983 0
M  V30 13994 H 1295.72 -0.637981 -0.368984 0
M  V30 13995 H 1298.36 -1.87741 -0.292116 0
M  V30 13996 H 1296.51 -2.94786 -2.53048 0
M  V30 13997 H 1298.19 -4.58594 -0.498876 0
M  V30 13998 H 1296.43 -4.31951 -0.400078 0
M  V30 13999 H 1297.1 -5.23392 -1.75399 0
M  V30 14000 H 1299.58 -3.41209 -2.38151 0
M  V30 14001 H 1298.45 -4.23212 -3.49547 0
M  V30 14002 H 1298.71 -2.50153 -3.64521 0
M  V30 14003 N 1297.77 0.548248 -1.47757 0
M  V30 14004 C 1299 1.3302 -1.58472 0
M  V30 14005 C 1299.41 1.87292 -0.238186 0
M  V30 14006 O 1298.77 1.65465 0.76991 0
M  V30 14007 C 1298.82 2.49386 -2.61704 0
M  V30 14008 O 1298.54 1.97355 -3.9113 0
M  V30 14009 C 1300.04 3.41471 -2.82688 0
M  V30 14010 H 1297.26 0.405172 -0.534861 0
M  V30 14011 H 1299.81 0.663251 -1.93446 0
M  V30 14012 H 1297.96 3.12001 -2.29639 0
M  V30 14013 H 1298.38 2.7339 -4.47614 0
M  V30 14014 H 1299.85 4.19516 -3.58762 0
M  V30 14015 H 1300.33 3.95573 -1.90837 0
M  V30 14016 H 1300.93 2.84664 -3.15985 0
M  V30 14017 N 1299.25 1.36039 0.795694 0
M  V30 14018 C 1300.18 1.32528 1.92246 0
M  V30 14019 C 1301.16 0.197805 1.68946 0
M  V30 14020 O 1302.35 0.394474 1.90151 0
M  V30 14021 C 1299.48 1.10748 3.29169 0
M  V30 14022 C 1298.43 2.20253 3.66978 0
M  V30 14023 C 1297.76 1.83624 5.02181 0
M  V30 14024 C 1299.06 3.62296 3.76216 0
M  V30 14025 H 1300.75 2.2681 1.95442 0
M  V30 14026 H 1298.3 1.09181 0.938908 0
M  V30 14027 H 1300.25 1.06929 4.07608 0
M  V30 14028 H 1298.97 0.129141 3.26345 0
M  V30 14029 H 1297.63 2.23187 2.90832 0
M  V30 14030 H 1297.28 0.843804 4.95872 0
M  V30 14031 H 1296.98 2.56935 5.28449 0
M  V30 14032 H 1298.5 1.81349 5.83048 0
M  V30 14033 H 1299.92 3.61623 4.44861 0
M  V30 14034 H 1298.31 4.34459 4.13963 0
M  V30 14035 H 1299.38 3.97657 2.77483 0
M  V30 14036 N 1300.73 -1.01913 1.20215 0
M  V30 14037 C 1302.14 -1.27766 0.956459 0
M  V30 14038 C 1302.34 -1.98158 -0.365486 0
M  V30 14039 O 1301.4 -2.27539 -1.09463 0
M  V30 14040 C 1302.71 -2.11516 2.13732 0
M  V30 14041 C 1304.26 -2.24792 2.17802 0
M  V30 14042 C 1304.74 -3.11919 3.35367 0
M  V30 14043 N 1306.23 -3.19507 3.35364 0
M  V30 14044 C 1306.96 -3.8714 4.22978 0
M  V30 14045 N 1306.46 -4.5692 5.20765 0
M  V30 14046 N 1308.25 -3.83638 4.10827 0
M  V30 14047 H 1300.4 -0.546426 2.05251 0
M  V30 14048 H 1302.67 -0.303772 0.898012 0
M  V30 14049 H 1302.37 -1.67127 3.09453 0
M  V30 14050 H 1302.25 -3.12249 2.11614 0
M  V30 14051 H 1304.63 -2.68407 1.22645 0
M  V30 14052 H 1304.71 -1.23576 2.2397 0
M  V30 14053 H 1304.36 -2.6901 4.30809 0
M  V30 14054 H 1304.29 -4.13215 3.26436 0
M  V30 14055 H 1306.78 -2.69819 2.64587 0
M  V30 14056 H 1307.09 -5.06188 5.83947 0
M  V30 14057 H 1305.44 -4.55753 5.24704 0
M  V30 14058 H 1308.63 -3.28268 3.33703 0
M  V30 14059 H 1308.8 -4.36071 4.79318 0
M  V30 14060 N 1302.21 -1.00763 -1.2118 0
M  V30 14061 C 1303.45 -0.692851 -1.90598 0
M  V30 14062 C 1303.79 0.774698 -1.78079 0
M  V30 14063 O 1303.06 1.56186 -1.15914 0
M  V30 14064 C 1303.34 -1.11792 -3.42308 0
M  V30 14065 C 1303.2 -2.64511 -3.63805 0
M  V30 14066 C 1304.52 -0.682314 -4.34779 0
M  V30 14067 H 1301.63 -0.253175 -0.69215 0
M  V30 14068 H 1304.28 -1.25378 -1.4276 0
M  V30 14069 H 1302.43 -0.640665 -3.83181 0
M  V30 14070 H 1304.1 -3.20021 -3.32242 0
M  V30 14071 H 1302.34 -3.05903 -3.0758 0
M  V30 14072 H 1303.01 -2.89306 -4.70113 0
M  V30 14073 H 1305.49 -1.09247 -4.01503 0
M  V30 14074 H 1304.36 -1.00787 -5.39568 0
M  V30 14075 H 1304.63 0.416441 -4.40134 0
M  V30 14076 N 1303.68 1.3679 -0.7827 0
M  V30 14077 C 1304.62 2.27871 -0.122531 0
M  V30 14078 C 1305.6 1.46885 0.697399 0
M  V30 14079 O 1306.78 1.76198 0.669819 0
M  V30 14080 C 1303.91 3.28314 0.832311 0
M  V30 14081 C 1302.95 4.26394 0.0950152 0
M  V30 14082 S 1303.79 5.2131 -1.22457 0
M  V30 14083 C 1304.94 6.25302 -0.273558 0
M  V30 14084 H 1305.17 2.83514 -0.894814 0
M  V30 14085 H 1302.71 1.43229 -0.5766 0
M  V30 14086 H 1304.67 3.86688 1.37778 0
M  V30 14087 H 1303.33 2.71597 1.57779 0
M  V30 14088 H 1302.52 4.97297 0.819278 0
M  V30 14089 H 1302.12 3.72067 -0.379778 0
M  V30 14090 H 1304.41 6.75263 0.550064 0
M  V30 14091 H 1305.36 7.01684 -0.951071 0
M  V30 14092 H 1305.76 5.64372 0.120115 0
M  V30 14093 N 1305.16 0.53415 1.48272 0
M  V30 14094 C 1306.44 -0.0630181 1.95498 0
M  V30 14095 C 1306.82 -1.50877 1.47646 0
M  V30 14096 O 1306.17 -2.17358 0.704829 0
M  V30 14097 C 1306.38 0.0585475 3.48951 0
M  V30 14098 C 1307.73 -0.0985978 4.24486 0
M  V30 14099 O 1308.75 -0.0150438 3.56197 0
M  V30 14100 O 1307.61 -0.274356 5.45811 0
M  V30 14101 H 1304.7 -0.0769841 0.823409 0
M  V30 14102 H 1307.25 0.599043 1.58775 0
M  V30 14103 H 1306.02 1.06549 3.76514 0
M  V30 14104 H 1305.64 -0.642175 3.9238 0
M  V30 14105 N 1306.64 -1.55279 0.269478 0
M  V30 14106 C 1307.87 -2.04334 -0.355313 0
M  V30 14107 C 1308.29 -1.14677 -1.491 0
M  V30 14108 O 1307.65 -0.144215 -1.80726 0
M  V30 14109 C 1307.7 -3.51172 -0.819162 0
M  V30 14110 O 1306.8 -3.64615 -1.9269 0
M  V30 14111 H 1306.14 -0.659827 -0.0743229 0
M  V30 14112 H 1308.67 -2.00609 0.402131 0
M  V30 14113 H 1308.68 -3.92428 -1.11642 0
M  V30 14114 H 1307.36 -4.15898 0.0117821 0
M  V30 14115 H 1305.93 -3.35261 -1.63261 0
M  V30 14116 N 1308.12 0.00332656 -1.576 0
M  V30 14117 C 1309.34 0.703587 -1.95101 0
M  V30 14118 C 1309.77 1.66697 -0.871418 0
M  V30 14119 O 1309.13 1.80494 0.170739 0
M  V30 14120 C 1309.17 1.41457 -3.31696 0
M  V30 14121 O 1308.28 2.52885 -3.25765 0
M  V30 14122 H 1307.62 0.187396 -0.637008 0
M  V30 14123 H 1310.15 -0.0488727 -2.04542 0
M  V30 14124 H 1310.16 1.77874 -3.67185 0
M  V30 14125 H 1308.83 0.708182 -4.09826 0
M  V30 14126 H 1307.41 2.18821 -3.01947 0
M  V30 14127 N 1309.6 1.55164 0.276031 0
M  V30 14128 C 1310.84 1.7528 1.00604 0
M  V30 14129 C 1311.17 0.555256 1.86928 0
M  V30 14130 O 1310.44 -0.429917 1.91124 0
M  V30 14131 H 1309.02 0.646377 0.374441 0
M  V30 14132 H 1311.68 1.92562 0.300992 0
M  V30 14133 H 1310.77 2.65245 1.64473 0
M  V30 14134 N 1311.07 -0.540404 1.48045 0
M  V30 14135 C 1312.01 -1.66164 1.57867 0
M  V30 14136 C 1313.02 -1.56058 0.463655 0
M  V30 14137 O 1314.21 -1.62709 0.734038 0
M  V30 14138 C 1311.31 -3.04748 1.48263 0
M  V30 14139 C 1310.48 -3.40441 2.74625 0
M  V30 14140 C 1309.54 -4.58259 2.58621 0
M  V30 14141 O 1308.57 -4.62 3.32482 0
M  V30 14142 N 1309.77 -5.55794 1.67551 0
M  V30 14143 H 1312.53 -1.58179 2.54557 0
M  V30 14144 H 1310.09 -0.727441 1.44637 0
M  V30 14145 H 1312.09 -3.81425 1.35267 0
M  V30 14146 H 1310.66 -3.06868 0.595892 0
M  V30 14147 H 1309.88 -2.53044 3.02262 0
M  V30 14148 H 1311.16 -3.61069 3.58478 0
M  V30 14149 H 1310.56 -5.55541 1.06725 0
M  V30 14150 H 1309.12 -6.3173 1.60499 0
M  V30 14151 N 1312.55 -1.36459 -0.788468 0
M  V30 14152 C 1313.49 -1.25222 -1.90774 0
M  V30 14153 C 1314.46 -0.136188 -1.62029 0
M  V30 14154 O 1315.65 -0.307486 -1.85975 0
M  V30 14155 C 1312.77 -0.932287 -3.25616 0
M  V30 14156 C 1311.82 -2.0629 -3.73292 0
M  V30 14157 S 1312.65 -3.68084 -3.8894 0
M  V30 14158 C 1313.81 -3.38206 -5.26657 0
M  V30 14159 H 1314.04 -2.19959 -2.00013 0
M  V30 14160 H 1311.58 -1.21886 -0.947801 0
M  V30 14161 H 1313.53 -0.754514 -4.03506 0
M  V30 14162 H 1312.19 -0.00268413 -3.141 0
M  V30 14163 H 1311.39 -1.79363 -4.71004 0
M  V30 14164 H 1310.99 -2.19994 -3.02454 0
M  V30 14165 H 1313.28 -2.92158 -6.11269 0
M  V30 14166 H 1314.22 -4.35185 -5.58587 0
M  V30 14167 H 1314.63 -2.73531 -4.93802 0
M  V30 14168 N 1314.03 1.01274 -1.20754 0
M  V30 14169 C 1315.26 1.7906 -1.04653 0
M  V30 14170 C 1315.68 1.83806 0.399632 0
M  V30 14171 O 1315.04 1.27596 1.28798 0
M  V30 14172 C 1315.09 3.21187 -1.63925 0
M  V30 14173 O 1314.19 4.02913 -0.879486 0
M  V30 14174 H 1313.53 0.552147 -0.368823 0
M  V30 14175 H 1316.06 1.27356 -1.6013 0
M  V30 14176 H 1316.07 3.71887 -1.67822 0
M  V30 14177 H 1314.75 3.17048 -2.69172 0
M  V30 14178 H 1313.32 3.61499 -0.915019 0
M  V30 14179 N 1315.51 1.01404 1.20644 0
M  V30 14180 C 1316.42 0.591693 2.27016 0
M  V30 14181 C 1317.44 -0.36958 1.7003 0
M  V30 14182 O 1318.61 -0.231165 2.00069 0
M  V30 14183 C 1315.68 -0.0659827 3.46637 0
M  V30 14184 C 1314.74 0.940911 4.18862 0
M  V30 14185 C 1313.97 0.314526 5.32772 0
M  V30 14186 O 1314.19 -0.886404 5.63471 0
M  V30 14187 O 1313.13 1.02998 5.93022 0
M  V30 14188 H 1316.95 1.4772 2.65353 0
M  V30 14189 H 1314.54 0.783399 1.27213 0
M  V30 14190 H 1316.42 -0.433412 4.19165 0
M  V30 14191 H 1315.1 -0.925729 3.10181 0
M  V30 14192 H 1314 1.35966 3.48517 0
M  V30 14193 H 1315.34 1.77054 4.59252 0
M  V30 14194 N 1316.99 -1.36373 0.789944 0
M  V30 14195 C 1317.93 -2.30043 0.186798 0
M  V30 14196 C 1318.9 -1.52002 -0.669663 0
M  V30 14197 O 1320.09 -1.80506 -0.618232 0
M  V30 14198 C 1317.23 -3.38494 -0.671994 0
M  V30 14199 C 1316.34 -4.31522 0.203067 0
M  V30 14200 C 1315.48 -5.27057 -0.662148 0
M  V30 14201 C 1314.52 -6.11725 0.214335 0
M  V30 14202 N 1313.65 -6.99446 -0.609892 0
M  V30 14203 H 1318.49 -2.81038 0.991048 0
M  V30 14204 H 1316.03 -1.38331 0.500288 0
M  V30 14205 H 1317.99 -4.0002 -1.1849 0
M  V30 14206 H 1316.62 -2.88818 -1.44167 0
M  V30 14207 H 1315.67 -3.71146 0.833945 0
M  V30 14208 H 1316.98 -4.91005 0.878389 0
M  V30 14209 H 1316.14 -5.93875 -1.24084 0
M  V30 14210 H 1314.88 -4.6803 -1.37109 0
M  V30 14211 H 1313.88 -5.43868 0.805426 0
M  V30 14212 H 1315.11 -6.72827 0.92089 0
M  V30 14213 H 1313.05 -6.42927 -1.30312 0
M  V30 14214 H 1312.97 -7.56 0.00773786 0
M  V30 14215 H 1314.24 -7.70633 -1.1724 0
M  V30 14216 N 1318.47 -0.542005 -1.47987 0
M  V30 14217 C 1319.69 -0.016717 -2.06893 0
M  V30 14218 C 1320.11 1.27015 -1.39687 0
M  V30 14219 O 1319.47 1.75845 -0.488326 0
M  V30 14220 C 1319.52 0.198437 -3.60955 0
M  V30 14221 O 1319.24 -1.03746 -4.25639 0
M  V30 14222 C 1320.74 0.762741 -4.36689 0
M  V30 14223 H 1317.96 -0.0389497 -0.669869 0
M  V30 14224 H 1320.5 -0.751082 -1.90208 0
M  V30 14225 H 1318.66 0.882884 -3.77205 0
M  V30 14226 H 1319.07 -0.82568 -5.1796 0
M  V30 14227 H 1320.55 0.862649 -5.45218 0
M  V30 14228 H 1321.02 1.77049 -4.01933 0
M  V30 14229 H 1321.63 0.114478 -4.25146 0
M  V30 14230 N 1319.94 1.55134 -0.277709 0
M  V30 14231 C 1320.88 2.18745 0.650058 0
M  V30 14232 C 1321.85 1.14922 1.15029 0
M  V30 14233 O 1323.04 1.43458 1.22278 0
M  V30 14234 C 1320.17 2.81277 1.88683 0
M  V30 14235 C 1319.21 3.98425 1.52185 0
M  V30 14236 S 1320.04 5.32153 0.597782 0
M  V30 14237 C 1321.2 5.98155 1.84287 0
M  V30 14238 H 1321.43 2.97098 0.109571 0
M  V30 14239 H 1318.97 1.54276 -0.0619536 0
M  V30 14240 H 1320.92 3.17934 2.59669 0
M  V30 14241 H 1319.59 2.02813 2.39845 0
M  V30 14242 H 1318.78 4.40877 2.4422 0
M  V30 14243 H 1318.38 3.63203 0.892146 0
M  V30 14244 H 1320.67 6.17546 2.78646 0
M  V30 14245 H 1321.62 6.92857 1.46131 0
M  V30 14246 H 1322.02 5.27541 2.00899 0
M  V30 14247 N 1321.42 0.00503138 1.57599 0
M  V30 14248 C 1322.37 -0.984754 2.08737 0
M  V30 14249 C 1323.34 -1.33822 0.983915 0
M  V30 14250 O 1324.52 -1.43572 1.25665 0
M  V30 14251 C 1321.66 -2.26984 2.59946 0
M  V30 14252 C 1320.78 -1.97496 3.84212 0
M  V30 14253 C 1319.91 -3.20123 4.23904 0
M  V30 14254 C 1318.95 -2.86344 5.40993 0
M  V30 14255 N 1318.09 -4.01524 5.75954 0
M  V30 14256 H 1322.93 -0.541737 2.93034 0
M  V30 14257 H 1320.46 -0.255834 1.44858 0
M  V30 14258 H 1322.42 -3.02117 2.87717 0
M  V30 14259 H 1321.05 -2.68946 1.78516 0
M  V30 14260 H 1320.1 -1.12709 3.63319 0
M  V30 14261 H 1321.42 -1.68602 4.69441 0
M  V30 14262 H 1320.57 -4.03598 4.52983 0
M  V30 14263 H 1319.31 -3.5216 3.37394 0
M  V30 14264 H 1318.31 -2.01278 5.11632 0
M  V30 14265 H 1319.54 -2.5555 6.29183 0
M  V30 14266 H 1317.49 -4.33447 4.92402 0
M  V30 14267 H 1317.4 -3.76171 6.55768 0
M  V30 14268 H 1318.67 -4.85772 6.09628 0
M  V30 14269 N 1322.9 -1.55308 -0.267798 0
M  V30 14270 C 1324.15 -1.75364 -0.996515 0
M  V30 14271 C 1324.46 -0.565028 -1.87261 0
M  V30 14272 O 1325.67 -0.648119 -2.63651 0
M  V30 14273 C 1324.12 -3.10388 -1.82175 0
M  V30 14274 C 1323.73 -4.36832 -0.994062 0
M  V30 14275 C 1325.48 -3.39791 -2.54445 0
M  V30 14276 C 1323.38 -5.62893 -1.81398 0
M  V30 14277 H 1322.31 -0.653679 -0.375793 0
M  V30 14278 H 1324.96 -1.81762 -0.251975 0
M  V30 14279 H 1323.35 -2.98041 -2.60744 0
M  V30 14280 H 1324.52 -4.6011 -0.252167 0
M  V30 14281 H 1322.83 -4.1461 -0.385662 0
M  V30 14282 H 1325.43 -4.31184 -3.16203 0
M  V30 14283 H 1325.77 -2.60159 -3.24997 0
M  V30 14284 H 1326.31 -3.53259 -1.82902 0
M  V30 14285 H 1323.05 -6.45287 -1.15258 0
M  V30 14286 H 1322.57 -5.43751 -2.5317 0
M  V30 14287 H 1324.25 -6.01384 -2.38634 0
M  V30 14288 N 1324.38 0.532545 -1.4833 0
M  V30 14289 C 1325.32 1.63737 -1.62661 0
M  V30 14290 C 1326.29 1.59348 -0.468758 0
M  V30 14291 O 1327.48 1.77812 -0.691921 0
M  V30 14292 C 1324.62 3.02006 -1.66993 0
M  V30 14293 C 1323.73 3.16648 -2.93867 0
M  V30 14294 C 1322.87 4.4546 -2.89376 0
M  V30 14295 C 1321.91 4.53622 -4.10966 0
M  V30 14296 N 1321.04 5.7382 -4.04567 0
M  V30 14297 H 1325.88 1.50828 -2.57012 0
M  V30 14298 H 1323.42 0.734348 -1.27459 0
M  V30 14299 H 1325.38 3.82105 -1.67486 0
M  V30 14300 H 1324.01 3.13693 -0.76135 0
M  V30 14301 H 1323.06 2.29817 -3.0313 0
M  V30 14302 H 1324.37 3.1854 -3.8384 0
M  V30 14303 H 1323.53 5.33848 -2.88256 0
M  V30 14304 H 1322.27 4.46085 -1.97127 0
M  V30 14305 H 1321.27 3.63642 -4.12364 0
M  V30 14306 H 1322.5 4.54738 -5.04371 0
M  V30 14307 H 1320.44 5.75347 -3.15137 0
M  V30 14308 H 1320.36 5.77196 -4.88243 0
M  V30 14309 H 1321.63 6.64502 -4.07502 0
M  V30 14310 N 1325.86 1.36875 0.78122 0
M  V30 14311 C 1327.1 1.30886 1.53466 0
M  V30 14312 C 1327.42 -0.107218 1.95306 0
M  V30 14313 O 1328.62 -0.289525 2.69952 0
M  V30 14314 C 1327.08 2.29688 2.77076 0
M  V30 14315 C 1326.69 3.76775 2.42373 0
M  V30 14316 C 1328.43 2.32692 3.55042 0
M  V30 14317 C 1326.34 4.67332 3.62428 0
M  V30 14318 H 1325.27 0.486408 0.576128 0
M  V30 14319 H 1327.92 1.62283 0.856529 0
M  V30 14320 H 1326.3 1.91296 3.4673 0
M  V30 14321 H 1327.48 4.2395 1.80563 0
M  V30 14322 H 1325.79 3.76625 1.77602 0
M  V30 14323 H 1328.39 2.97556 4.44257 0
M  V30 14324 H 1328.73 1.33779 3.94219 0
M  V30 14325 H 1329.26 2.69743 2.92375 0
M  V30 14326 H 1326 5.67339 3.2834 0
M  V30 14327 H 1325.52 4.24868 4.23376 0
M  V30 14328 H 1327.2 4.84005 4.29358 0
M  V30 14329 N 1327.33 -1.00632 1.21289 0
M  V30 14330 C 1328.56 -1.77967 1.05524 0
M  V30 14331 C 1328.98 -1.84621 -0.395023 0
M  V30 14332 O 1328.33 -1.30664 -1.27409 0
M  V30 14333 C 1328.38 -3.21939 1.64432 0
M  V30 14334 O 1328.11 -3.15669 3.03784 0
M  V30 14335 C 1329.61 -4.1578 1.5376 0
M  V30 14336 H 1326.83 -0.559341 0.370646 0
M  V30 14337 H 1329.37 -1.26604 1.60598 0
M  V30 14338 H 1327.53 -3.70415 1.13453 0
M  V30 14339 H 1327.94 -4.06112 3.31924 0
M  V30 14340 H 1329.41 -5.14602 1.99722 0
M  V30 14341 H 1329.89 -4.36438 0.491811 0
M  V30 14342 H 1330.5 -3.73192 2.0398 0
M  V30 14343 N 1328.81 -1.02043 -1.20104 0
M  V30 14344 C 1330.09 -0.626922 -1.85281 0
M  V30 14345 C 1330.47 0.894819 -1.91197 0
M  V30 14346 O 1329.82 1.7881 -1.42265 0
M  V30 14347 C 1330.03 -1.27917 -3.24713 0
M  V30 14348 C 1331.37 -1.39704 -4.00959 0
M  V30 14349 O 1332.4 -1.23568 -3.3408 0
M  V30 14350 O 1331.26 -1.65814 -5.20738 0
M  V30 14351 H 1328.35 -0.216815 -0.798073 0
M  V30 14352 H 1330.9 -1.11804 -1.27663 0
M  V30 14353 H 1329.67 -2.3188 -3.15194 0
M  V30 14354 H 1329.29 -0.775371 -3.89966 0
M  V30 14355 N 1330.29 1.35952 -0.797165 0
M  V30 14356 C 1331.7 1.81554 -0.435311 0
M  V30 14357 C 1332.05 1.66266 1.04164 0
M  V30 14358 O 1331.18 1.18796 1.80877 0
M  V30 14359 C 1331.77 3.29619 -0.783358 0
M  V30 14360 C 1330.33 3.73401 -0.47423 0
M  V30 14361 C 1329.48 2.58098 -1.01394 0
M  V30 14362 H 1332.43 1.24064 -0.989638 0
M  V30 14363 H 1332.45 3.80421 -0.0773381 0
M  V30 14364 H 1331.96 3.40715 -1.85836 0
M  V30 14365 H 1330.06 3.6786 0.592418 0
M  V30 14366 H 1330.18 4.68542 -1.00026 0
M  V30 14367 H 1328.54 2.50927 -0.436747 0
M  V30 14368 H 1329.32 2.71976 -2.09485 0
M  V30 14369 N 1331.77 0.549846 1.47697 0
M  V30 14370 C 1333.01 0.0230845 2.02787 0
M  V30 14371 C 1333.35 -1.32035 1.42409 0
M  V30 14372 O 1332.62 -1.85745 0.576978 0
M  V30 14373 C 1332.91 -0.0778363 3.60016 0
M  V30 14374 C 1332.76 1.29217 4.3084 0
M  V30 14375 C 1334.08 -0.794909 4.32862 0
M  V30 14376 H 1331.2 0.00986307 0.736934 0
M  V30 14377 H 1333.84 0.710714 1.76207 0
M  V30 14378 H 1331.99 -0.663464 3.82793 0
M  V30 14379 H 1333.66 1.92044 4.19424 0
M  V30 14380 H 1331.9 1.86883 3.91481 0
M  V30 14381 H 1332.57 1.17435 5.39364 0
M  V30 14382 H 1335.05 -0.297743 4.15033 0
M  V30 14383 H 1333.93 -0.834466 5.4252 0
M  V30 14384 H 1334.19 -1.84948 4.01555 0
M  V30 14385 N 1333.25 -1.54984 0.285932 0
M  V30 14386 C 1334.48 -2.03943 -0.330295 0
M  V30 14387 C 1334.88 -1.16336 -1.49207 0
M  V30 14388 O 1334.23 -0.178341 -1.82832 0
M  V30 14389 C 1334.29 -3.48976 -0.863479 0
M  V30 14390 C 1333.95 -4.5668 0.171058 0
M  V30 14391 C 1334.95 -5.10303 0.994329 0
M  V30 14392 C 1332.64 -5.01352 0.308416 0
M  V30 14393 C 1334.63 -6.07126 1.94104 0
M  V30 14394 C 1332.32 -5.97999 1.25859 0
M  V30 14395 C 1333.31 -6.50768 2.0734 0
M  V30 14396 O 1333 -7.45524 3.00749 0
M  V30 14397 H 1332.73 -0.671491 -0.0779452 0
M  V30 14398 H 1335.29 -2.01081 0.419011 0
M  V30 14399 H 1333.52 -3.49113 -1.66305 0
M  V30 14400 H 1335.21 -3.81213 -1.39396 0
M  V30 14401 H 1335.97 -4.76595 0.899002 0
M  V30 14402 H 1331.85 -4.59917 -0.315817 0
M  V30 14403 H 1335.4 -6.48239 2.57743 0
M  V30 14404 H 1331.29 -6.31125 1.35469 0
M  V30 14405 H 1332.06 -7.63276 2.95554 0
M  V30 14406 N 1334.72 -0.0133892 -1.57594 0
M  V30 14407 C 1336.14 0.527615 -1.7909 0
M  V30 14408 C 1336.49 1.73179 -0.922142 0
M  V30 14409 O 1335.61 2.1602 -0.128233 0
M  V30 14410 C 1336.21 0.963949 -3.24798 0
M  V30 14411 C 1334.77 1.45017 -3.47343 0
M  V30 14412 C 1333.91 0.407548 -2.74289 0
M  V30 14413 H 1336.86 -0.239505 -1.56882 0
M  V30 14414 H 1336.88 1.82924 -3.33645 0
M  V30 14415 H 1336.4 0.0873315 -3.88002 0
M  V30 14416 H 1334.5 2.34724 -2.89371 0
M  V30 14417 H 1334.61 1.4684 -4.56043 0
M  V30 14418 H 1332.97 0.872174 -2.39301 0
M  V30 14419 H 1333.76 -0.460333 -3.402 0
M  V30 14420 N 1336.2 1.55448 0.259558 0
M  V30 14421 C 1337.45 1.7589 0.987201 0
M  V30 14422 C 1337.76 0.574951 1.86959 0
M  V30 14423 O 1338.97 0.662091 2.63303 0
M  V30 14424 C 1337.43 3.11349 1.80526 0
M  V30 14425 C 1337.03 4.37353 0.970882 0
M  V30 14426 C 1338.78 3.41136 2.5264 0
M  V30 14427 C 1336.69 5.63847 1.7841 0
M  V30 14428 H 1335.62 0.655662 0.372321 0
M  V30 14429 H 1338.27 1.81893 0.242332 0
M  V30 14430 H 1336.65 2.9942 2.5916 0
M  V30 14431 H 1337.82 4.60237 0.227763 0
M  V30 14432 H 1336.14 4.14809 0.363669 0
M  V30 14433 H 1338.73 4.32855 3.13912 0
M  V30 14434 H 1339.08 2.61879 3.23612 0
M  V30 14435 H 1339.61 3.54224 1.81026 0
M  V30 14436 H 1336.35 6.4589 1.11834 0
M  V30 14437 H 1335.87 5.45086 2.50283 0
M  V30 14438 H 1337.55 6.02641 2.35441 0
M  V30 14439 N 1337.68 -0.524672 1.4861 0
M  V30 14440 C 1338.93 -1.27768 1.56588 0
M  V30 14441 C 1339.25 -1.93469 0.243899 0
M  V30 14442 O 1338.52 -1.8159 -0.734985 0
M  V30 14443 H 1337.1 -0.474566 0.576885 0
M  V30 14444 H 1339.76 -0.610114 1.85104 0
M  V30 14445 H 1338.86 -2.05416 2.34969 0
M  V30 14446 N 1339.16 -1.37287 -0.77395 0
M  V30 14447 C 1340.39 -1.35563 -1.56302 0
M  V30 14448 C 1340.8 0.0595356 -1.88706 0
M  V30 14449 O 1340.16 1.02072 -1.51286 0
M  V30 14450 C 1340.21 -2.19195 -2.87464 0
M  V30 14451 O 1339.93 -3.55197 -2.5645 0
M  V30 14452 C 1341.43 -2.25425 -3.81704 0
M  V30 14453 H 1338.65 -0.464431 -0.484298 0
M  V30 14454 H 1341.2 -1.80597 -0.959425 0
M  V30 14455 H 1339.35 -1.77676 -3.44253 0
M  V30 14456 H 1339.76 -3.99011 -3.40427 0
M  V30 14457 H 1341.24 -2.8827 -4.70749 0
M  V30 14458 H 1341.72 -1.26205 -4.20677 0
M  V30 14459 H 1342.32 -2.67247 -3.30846 0
M  V30 14460 N 1340.64 0.999871 -1.21821 0
M  V30 14461 C 1341.55 2.12303 -0.99823 0
M  V30 14462 C 1342.56 1.73924 0.0512923 0
M  V30 14463 O 1343.74 2.00914 -0.139895 0
M  V30 14464 C 1340.8 3.41962 -0.571232 0
M  V30 14465 C 1339.86 3.94483 -1.69356 0
M  V30 14466 C 1339.1 5.17954 -1.28685 0
M  V30 14467 O 1339.32 5.70168 -0.162641 0
M  V30 14468 O 1338.25 5.64051 -2.10071 0
M  V30 14469 H 1342.08 2.3374 -1.93905 0
M  V30 14470 H 1339.67 1.10677 -1.00354 0
M  V30 14471 H 1341.55 4.20001 -0.343134 0
M  V30 14472 H 1340.22 3.21901 0.340814 0
M  V30 14473 H 1339.13 3.17648 -1.97612 0
M  V30 14474 H 1340.46 4.18964 -2.58322 0
M  V30 14475 N 1342.11 1.02678 1.19562 0
M  V30 14476 C 1343.06 0.605764 2.22709 0
M  V30 14477 C 1344.03 -0.37936 1.6171 0
M  V30 14478 O 1345.22 -0.276496 1.88786 0
M  V30 14479 C 1342.36 -0.0394312 3.45077 0
M  V30 14480 C 1341.47 0.991481 4.20468 0
M  V30 14481 C 1340.6 0.316269 5.30258 0
M  V30 14482 C 1339.64 1.33324 5.97404 0
M  V30 14483 N 1338.78 0.683979 6.9876 0
M  V30 14484 H 1343.62 1.48994 2.58079 0
M  V30 14485 H 1341.16 0.745636 1.26802 0
M  V30 14486 H 1343.12 -0.430726 4.14971 0
M  V30 14487 H 1341.75 -0.887193 3.10369 0
M  V30 14488 H 1340.8 1.50085 3.49541 0
M  V30 14489 H 1342.11 1.76449 4.66548 0
M  V30 14490 H 1341.26 -0.129983 6.06561 0
M  V30 14491 H 1340 -0.488956 4.85243 0
M  V30 14492 H 1339.01 1.78977 5.19853 0
M  V30 14493 H 1340.23 2.13992 6.44503 0
M  V30 14494 H 1338.18 -0.101192 6.55922 0
M  V30 14495 H 1338.1 1.3949 7.4302 0
M  V30 14496 H 1339.36 0.261658 7.79061 0
M  V30 14497 N 1343.59 -1.35528 0.804364 0
M  V30 14498 C 1344.5 -2.33616 0.214663 0
M  V30 14499 C 1345.52 -1.61757 -0.64115 0
M  V30 14500 O 1346.69 -1.93647 -0.553424 0
M  V30 14501 C 1343.76 -3.40951 -0.628778 0
M  V30 14502 C 1342.82 -4.28587 0.247269 0
M  V30 14503 C 1342.05 -5.30796 -0.556012 0
M  V30 14504 O 1342.28 -5.41557 -1.79088 0
M  V30 14505 O 1341.21 -6.01878 0.0519437 0
M  V30 14506 H 1345.04 -2.85843 1.02605 0
M  V30 14507 H 1342.62 -1.38259 0.566108 0
M  V30 14508 H 1344.5 -4.06538 -1.10926 0
M  V30 14509 H 1343.18 -2.90999 -1.4178 0
M  V30 14510 H 1342.09 -3.65988 0.774835 0
M  V30 14511 H 1343.42 -4.81931 1.00017 0
M  V30 14512 N 1345.07 -0.557671 -1.47404 0
M  V30 14513 C 1346.48 -0.124411 -1.86285 0
M  V30 14514 C 1346.83 1.30593 -1.46424 0
M  V30 14515 O 1345.96 1.9825 -0.867515 0
M  V30 14516 C 1346.55 -0.219005 -3.38091 0
M  V30 14517 C 1345.11 0.159221 -3.76063 0
M  V30 14518 C 1344.26 -0.566355 -2.71455 0
M  V30 14519 H 1347.21 -0.767367 -1.38914 0
M  V30 14520 H 1347.23 0.562267 -3.76323 0
M  V30 14521 H 1346.74 -1.26013 -3.67073 0
M  V30 14522 H 1344.84 1.20144 -3.52698 0
M  V30 14523 H 1344.96 -0.199662 -4.78684 0
M  V30 14524 H 1343.32 -0.00938921 -2.54698 0
M  V30 14525 H 1344.1 -1.60865 -3.03278 0
M  V30 14526 N 1346.55 1.54831 -0.294147 0
M  V30 14527 C 1347.5 2.24707 0.600795 0
M  V30 14528 C 1348.49 1.25067 1.14257 0
M  V30 14529 O 1349.7 1.42939 1.094 0
M  V30 14530 H 1346.07 0.721399 0.212338 0
M  V30 14531 H 1348.04 2.98398 -0.0111682 0
M  V30 14532 C 1346.79 2.996 1.76451 0
M  V30 14533 H 1346.12 3.76072 1.35684 0
M  V30 14534 H 1347.56 3.51785 2.36692 0
M  V30 14535 C 1346.01 2.0617 2.6645 0
M  V30 14536 O 1346.54 1.62527 3.67353 0
M  V30 14537 N 1344.75 1.7227 2.34033 0
M  V30 14538 H 1344.3 2.07957 1.52025 0
M  V30 14539 H 1344.26 1.10031 2.94518 0
M  V30 14540 N 1348.03 0.0217466 1.57585 0
M  V30 14541 C 1348.98 -0.980624 2.10918 0
M  V30 14542 C 1349.97 -1.34178 1.03406 0
M  V30 14543 O 1351.18 -1.32487 1.21849 0
M  V30 14544 H 1347.55 -0.333984 0.673764 0
M  V30 14545 H 1349.52 -0.505431 2.94088 0
M  V30 14546 C 1348.27 -2.25639 2.64542 0
M  V30 14547 H 1347.59 -1.98722 3.46914 0
M  V30 14548 H 1349.03 -2.94003 3.05513 0
M  V30 14549 C 1347.49 -2.98111 1.56945 0
M  V30 14550 O 1348.02 -3.89937 0.964975 0
M  V30 14551 N 1346.23 -2.60316 1.29166 0
M  V30 14552 H 1345.78 -1.85722 1.78508 0
M  V30 14553 H 1345.73 -3.09116 0.573987 0
M  V30 14554 N 1349.51 -1.55583 -0.251311 0
M  V30 14555 C 1350.73 -1.81597 -1.00186 0
M  V30 14556 C 1351.16 -0.598216 -1.78334 0
M  V30 14557 O 1350.51 0.452667 -1.75558 0
M  V30 14558 C 1350.56 -3.05301 -1.91895 0
M  V30 14559 O 1349.67 -2.81907 -3.01002 0
M  V30 14560 H 1349.01 -0.599578 -0.285311 0
M  V30 14561 H 1351.54 -2.02762 -0.273638 0
M  V30 14562 H 1351.55 -3.34616 -2.33444 0
M  V30 14563 H 1350.22 -3.93574 -1.34433 0
M  V30 14564 H 1348.8 -2.63747 -2.63613 0
M  V30 14565 N 1350.98 0.516783 -1.48886 0
M  V30 14566 C 1351.93 1.62003 -1.64389 0
M  V30 14567 C 1352.9 1.58842 -0.485633 0
M  V30 14568 O 1354.09 1.77068 -0.710742 0
M  V30 14569 C 1351.23 3.00218 -1.70186 0
M  V30 14570 C 1350.34 3.13513 -2.97209 0
M  V30 14571 C 1349.47 4.42366 -2.94084 0
M  V30 14572 C 1348.51 4.49238 -4.15754 0
M  V30 14573 N 1347.65 5.69497 -4.10631 0
M  V30 14574 H 1352.49 1.48093 -2.58597 0
M  V30 14575 H 1350.03 0.720788 -1.2823 0
M  V30 14576 H 1351.98 3.80307 -1.71529 0
M  V30 14577 H 1350.61 3.12868 -0.794578 0
M  V30 14578 H 1349.67 2.26589 -3.05551 0
M  V30 14579 H 1350.98 3.14451 -3.87197 0
M  V30 14580 H 1350.13 5.3076 -2.93902 0
M  V30 14581 H 1348.87 4.43969 -2.01847 0
M  V30 14582 H 1347.88 3.59248 -4.16198 0
M  V30 14583 H 1349.1 4.49363 -5.09166 0
M  V30 14584 H 1347.05 5.71973 -3.21222 0
M  V30 14585 H 1346.96 5.71985 -4.94337 0
M  V30 14586 H 1348.23 6.60142 -4.14527 0
M  V30 14587 N 1352.46 1.37696 0.766659 0
M  V30 14588 C 1353.37 1.36075 1.91104 0
M  V30 14589 C 1354.39 0.259617 1.72052 0
M  V30 14590 O 1355.56 0.49586 1.952 0
M  V30 14591 C 1352.63 1.17176 3.26298 0
M  V30 14592 C 1351.69 2.36975 3.57968 0
M  V30 14593 C 1350.92 2.18968 4.86712 0
M  V30 14594 O 1351.15 1.17658 5.58133 0
M  V30 14595 O 1350.08 3.07269 5.17561 0
M  V30 14596 H 1353.91 2.32472 1.95424 0
M  V30 14597 H 1351.49 1.18478 0.910122 0
M  V30 14598 H 1353.37 1.08645 4.07154 0
M  V30 14599 H 1352.05 0.238559 3.2282 0
M  V30 14600 H 1350.95 2.51079 2.77327 0
M  V30 14601 H 1352.29 3.2888 3.66195 0
M  V30 14602 N 1353.94 -0.993397 1.22349 0
M  V30 14603 C 1355.17 -1.76838 1.07406 0
M  V30 14604 C 1355.58 -1.8503 -0.37542 0
M  V30 14605 O 1354.94 -1.32008 -1.26016 0
M  V30 14606 C 1354.99 -3.20177 1.67837 0
M  V30 14607 O 1354.71 -3.12429 3.07115 0
M  V30 14608 C 1356.21 -4.14125 1.58161 0
M  V30 14609 H 1353.43 -0.555379 0.376557 0
M  V30 14610 H 1355.98 -1.24893 1.61932 0
M  V30 14611 H 1354.13 -3.69191 1.17375 0
M  V30 14612 H 1354.55 -4.02568 3.36213 0
M  V30 14613 H 1356.02 -5.12455 2.05169 0
M  V30 14614 H 1356.5 -4.35892 0.538073 0
M  V30 14615 H 1357.1 -3.71008 2.07926 0
M  V30 14616 N 1355.42 -1.03311 -1.19015 0
M  V30 14617 C 1356.38 -0.622114 -2.20596 0
M  V30 14618 C 1357.38 0.316502 -1.57654 0
M  V30 14619 O 1358.57 0.102932 -1.73896 0
M  V30 14620 C 1355.7 0.0890432 -3.40784 0
M  V30 14621 H 1356.9 -1.52095 -2.58471 0
M  V30 14622 H 1354.45 -0.824777 -1.32767 0
M  V30 14623 H 1355.18 1.00203 -3.08431 0
M  V30 14624 H 1354.97 -0.58547 -3.87704 0
M  V30 14625 H 1356.46 0.363366 -4.16016 0
M  V30 14626 N 1356.9 1.35099 -0.81154 0
M  V30 14627 C 1358.12 2.03391 -0.405805 0
M  V30 14628 C 1358.55 1.60745 0.97686 0
M  V30 14629 O 1357.9 0.786518 1.63351 0
M  V30 14630 C 1357.95 3.57075 -0.502954 0
M  V30 14631 O 1357.06 4.09577 0.481681 0
M  V30 14632 H 1356.4 0.642203 -0.168733 0
M  V30 14633 H 1358.93 1.72591 -1.0988 0
M  V30 14634 H 1358.94 4.06277 -0.37456 0
M  V30 14635 H 1357.61 3.87463 -1.51145 0
M  V30 14636 H 1356.19 3.71583 0.313115 0
M  V30 14637 N 1358.37 0.56548 1.47106 0
M  V30 14638 C 1359.62 0.0444375 2.02051 0
M  V30 14639 C 1359.94 -1.31344 1.44131 0
M  V30 14640 O 1359.21 -1.85845 0.619556 0
M  V30 14641 H 1357.79 0.0134375 0.746879 0
M  V30 14642 H 1360.45 0.737362 1.80413 0
M  V30 14643 H 1359.55 -0.0374834 3.12077 0
M  V30 14644 N 1359.85 -1.54672 0.302354 0
M  V30 14645 C 1361.26 -1.85731 -0.190019 0
M  V30 14646 C 1361.61 -1.22427 -1.53317 0
M  V30 14647 O 1360.74 -0.522461 -2.09998 0
M  V30 14648 C 1361.33 -3.36971 -0.351562 0
M  V30 14649 C 1359.89 -3.68056 -0.788155 0
M  V30 14650 C 1359.04 -2.7711 0.102705 0
M  V30 14651 H 1361.99 -1.49823 0.523324 0
M  V30 14652 H 1362.01 -3.61547 -1.18592 0
M  V30 14653 H 1361.52 -3.83016 0.626152 0
M  V30 14654 H 1359.63 -3.2753 -1.77637 0
M  V30 14655 H 1359.74 -4.75244 -0.606604 0
M  V30 14656 H 1358.1 -2.51243 -0.418235 0
M  V30 14657 H 1358.89 -3.25975 1.0768 0
M  V30 14658 N 1361.33 -0.0301034 -1.57571 0
M  V30 14659 C 1362.58 0.647672 -1.91019 0
M  V30 14660 C 1362.89 1.73234 -0.908265 0
M  V30 14661 O 1364.1 2.46682 -1.13402 0
M  V30 14662 C 1362.55 1.20327 -3.3919 0
M  V30 14663 C 1362.16 0.151833 -4.47743 0
M  V30 14664 C 1363.91 1.8575 -3.81703 0
M  V30 14665 C 1361.81 0.719119 -5.87012 0
M  V30 14666 H 1360.74 0.245682 -0.712851 0
M  V30 14667 H 1363.39 -0.0955645 -1.83251 0
M  V30 14668 H 1361.78 1.99814 -3.41892 0
M  V30 14669 H 1362.95 -0.620659 -4.56601 0
M  V30 14670 H 1361.27 -0.403699 -4.14438 0
M  V30 14671 H 1363.86 2.29151 -4.83109 0
M  V30 14672 H 1364.21 2.70061 -3.16817 0
M  V30 14673 H 1364.74 1.1295 -3.81428 0
M  V30 14674 H 1361.48 -0.0858832 -6.55444 0
M  V30 14675 H 1361 1.46008 -5.81758 0
M  V30 14676 H 1362.68 1.20856 -6.35612 0
M  V30 14677 N 1362.81 1.55714 0.243056 0
M  V30 14678 C 1364.05 1.77989 0.971993 0
M  V30 14679 C 1364.39 0.596038 1.84827 0
M  V30 14680 O 1363.66 -0.40554 1.90225 0
M  V30 14681 C 1363.95 3.10178 1.82925 0
M  V30 14682 C 1363.8 4.38974 0.9809 0
M  V30 14683 C 1365.12 3.38628 2.81103 0
M  V30 14684 H 1362.24 0.64754 0.35194 0
M  V30 14685 H 1364.88 1.88449 0.242237 0
M  V30 14686 H 1363.03 3.01392 2.45143 0
M  V30 14687 H 1364.7 4.59756 0.377113 0
M  V30 14688 H 1362.94 4.3286 0.285414 0
M  V30 14689 H 1363.61 5.27858 1.61461 0
M  V30 14690 H 1366.09 3.47403 2.29021 0
M  V30 14691 H 1364.97 4.32331 3.38203 0
M  V30 14692 H 1365.23 2.5973 3.57761 0
M  V30 14693 N 1364.29 -0.50888 1.49158 0
M  V30 14694 C 1365.7 -1.09054 1.51539 0
M  V30 14695 C 1366.05 -1.93938 0.297099 0
M  V30 14696 O 1365.17 -2.08092 -0.593849 0
M  V30 14697 C 1365.77 -1.98447 2.74599 0
M  V30 14698 C 1364.33 -2.5179 2.79783 0
M  V30 14699 C 1363.47 -1.29227 2.45348 0
M  V30 14700 H 1366.43 -0.293148 1.55969 0
M  V30 14701 H 1366.45 -2.83028 2.54314 0
M  V30 14702 H 1365.96 -1.3664 3.63251 0
M  V30 14703 H 1364.06 -3.17258 1.95392 0
M  V30 14704 H 1364.17 -2.89481 3.81756 0
M  V30 14705 H 1362.54 -1.61494 1.96957 0
M  V30 14706 H 1363.32 -0.6914 3.36266 0
M  V30 14707 N 1365.76 -1.381 -0.759346 0
M  V30 14708 C 1367.01 -1.33727 -1.5153 0
M  V30 14709 C 1367.33 0.0739504 -1.9486 0
M  V30 14710 O 1366.6 1.02049 -1.67221 0
M  V30 14711 H 1365.18 -0.492037 -0.562058 0
M  V30 14712 H 1367.85 -1.72719 -0.902995 0
M  V30 14713 H 1366.94 -1.98439 -2.40891 0
M  V30 14714 N 1367.24 0.986894 -1.22875 0
M  V30 14715 C 1368.49 1.72152 -1.05103 0
M  V30 14716 C 1368.8 1.91185 0.413248 0
M  V30 14717 O 1370.01 2.62031 0.710759 0
M  V30 14718 C 1368.47 3.09771 -1.8322 0
M  V30 14719 C 1368.07 2.98648 -3.33936 0
M  V30 14720 C 1369.82 3.87238 -1.73917 0
M  V30 14721 C 1367.73 4.31459 -4.04471 0
M  V30 14722 H 1366.66 0.645498 -0.389677 0
M  V30 14723 H 1369.31 1.10125 -1.46781 0
M  V30 14724 H 1367.69 3.72515 -1.34345 0
M  V30 14725 H 1368.86 2.45033 -3.9025 0
M  V30 14726 H 1367.18 2.34661 -3.43982 0
M  V30 14727 H 1369.77 4.85549 -2.23933 0
M  V30 14728 H 1370.12 4.1036 -0.700711 0
M  V30 14729 H 1370.65 3.31183 -2.20369 0
M  V30 14730 H 1367.39 4.13534 -5.08596 0
M  V30 14731 H 1366.91 4.84964 -3.52944 0
M  V30 14732 H 1368.59 5.00179 -4.10403 0
M  V30 14733 N 1368.72 1.0394 1.18466 0
M  V30 14734 C 1370.13 0.77011 1.70077 0
M  V30 14735 C 1370.48 -0.70916 1.82935 0
M  V30 14736 O 1369.61 -1.55209 1.50795 0
M  V30 14737 C 1370.2 1.39132 3.08914 0
M  V30 14738 C 1368.76 1.17037 3.57742 0
M  V30 14739 C 1367.91 1.48279 2.34326 0
M  V30 14740 H 1370.86 1.20598 1.03159 0
M  V30 14741 H 1370.88 0.793861 3.72126 0
M  V30 14742 H 1370.39 2.46795 2.99523 0
M  V30 14743 H 1368.49 0.112435 3.7243 0
M  V30 14744 H 1368.61 1.8665 4.41247 0
M  V30 14745 H 1366.97 0.902438 2.38177 0
M  V30 14746 H 1367.75 2.57047 2.27556 0
M  V30 14747 N 1370.2 -1.34667 0.818693 0
M  V30 14748 C 1371.44 -1.98708 0.405359 0
M  V30 14749 C 1371.78 -1.64767 -1.02788 0
M  V30 14750 O 1371.05 -0.91714 -1.71519 0
M  V30 14751 C 1371.34 -3.55016 0.602966 0
M  V30 14752 C 1371.19 -3.98713 2.08201 0
M  V30 14753 C 1372.51 -4.40085 0.0362489 0
M  V30 14754 H 1369.63 -0.721831 0.148756 0
M  V30 14755 H 1372.27 -1.59628 1.03047 0
M  V30 14756 H 1370.42 -3.88435 0.0708453 0
M  V30 14757 H 1372.09 -3.75647 2.67745 0
M  V30 14758 H 1370.33 -3.49179 2.57403 0
M  V30 14759 H 1371 -5.0751 2.17111 0
M  V30 14760 H 1373.48 -4.13195 0.490837 0
M  V30 14761 H 1372.36 -5.4852 0.204344 0
M  V30 14762 H 1372.62 -4.29243 -1.05845 0
M  V30 14763 N 1371.68 -0.573274 -1.46804 0
M  V30 14764 C 1372.9 -0.0586717 -2.07317 0
M  V30 14765 C 1373.33 1.2328 -1.42069 0
M  V30 14766 O 1372.68 1.74235 -0.501188 0
M  V30 14767 C 1372.73 0.103503 -3.60451 0
M  V30 14768 O 1371.84 1.16229 -3.95682 0
M  V30 14769 H 1371.18 -0.0585504 -0.661414 0
M  V30 14770 H 1373.71 -0.793532 -1.88585 0
M  V30 14771 H 1373.72 0.312658 -4.068 0
M  V30 14772 H 1372.39 -0.839684 -4.07335 0
M  V30 14773 H 1370.97 0.932347 -3.61056 0
M  V30 14774 N 1373.15 1.5451 -0.310553 0
M  V30 14775 C 1374.4 1.99931 0.29532 0
M  V30 14776 C 1374.72 1.20042 1.53672 0
M  V30 14777 O 1373.99 0.298841 1.93607 0
M  V30 14778 H 1372.57 0.738539 0.112111 0
M  V30 14779 H 1375.24 1.9023 -0.424092 0
M  V30 14780 H 1374.33 3.07021 0.560749 0
M  V30 14781 N 1374.63 0.0384594 1.57553 0
M  V30 14782 C 1375.86 -0.648077 1.96488 0
M  V30 14783 C 1376.28 -1.65123 0.915414 0
M  V30 14784 O 1375.63 -1.82216 -0.101779 0
M  V30 14785 C 1375.68 -1.34623 3.35498 0
M  V30 14786 O 1375.41 -0.383261 4.3642 0
M  V30 14787 C 1376.91 -2.12372 3.89119 0
M  V30 14788 H 1374.13 -0.178068 0.646941 0
M  V30 14789 H 1376.67 0.100993 2.0425 0
M  V30 14790 H 1374.83 -2.04663 3.28926 0
M  V30 14791 H 1375.24 -0.880095 5.17063 0
M  V30 14792 H 1376.71 -2.5666 4.88702 0
M  V30 14793 H 1377.19 -2.96664 3.23863 0
M  V30 14794 H 1377.8 -1.4727 3.98988 0
M  V30 14795 N 1376.11 -1.55841 -0.234795 0
M  V30 14796 C 1377.36 -1.77438 -0.959094 0
M  V30 14797 C 1377.67 -0.604621 -1.86021 0
M  V30 14798 O 1378.88 -0.703897 -2.62217 0
M  V30 14799 C 1377.34 -3.14182 -1.7555 0
M  V30 14800 C 1376.94 -4.38843 -0.90118 0
M  V30 14801 C 1378.69 -3.45112 -2.47181 0
M  V30 14802 C 1376.59 -5.66614 -1.69417 0
M  V30 14803 H 1375.52 -0.661503 -0.361843 0
M  V30 14804 H 1378.18 -1.82255 -0.213364 0
M  V30 14805 H 1376.56 -3.03505 -2.54364 0
M  V30 14806 H 1377.73 -4.60541 -0.154515 0
M  V30 14807 H 1376.05 -4.15335 -0.297631 0
M  V30 14808 H 1378.64 -4.37794 -3.06986 0
M  V30 14809 H 1378.99 -2.66995 -3.19405 0
M  V30 14810 H 1379.52 -3.57059 -1.75368 0
M  V30 14811 H 1376.26 -6.47587 -1.01545 0
M  V30 14812 H 1375.78 -5.48998 -2.4158 0
M  V30 14813 H 1377.46 -6.06311 -2.25824 0
M  V30 14814 N 1377.59 0.500963 -1.49426 0
M  V30 14815 C 1378.5 1.62889 -1.68833 0
M  V30 14816 C 1379.52 1.64367 -0.570932 0
M  V30 14817 O 1380.69 1.82786 -0.845641 0
M  V30 14818 C 1377.76 2.99255 -1.75063 0
M  V30 14819 C 1376.82 3.08404 -2.9864 0
M  V30 14820 C 1376.05 4.38266 -3.04564 0
M  V30 14821 O 1376.27 5.27065 -2.1808 0
M  V30 14822 O 1375.21 4.52387 -3.97026 0
M  V30 14823 H 1379.03 1.49446 -2.64385 0
M  V30 14824 H 1376.62 0.677254 -1.33168 0
M  V30 14825 H 1378.5 3.80303 -1.81515 0
M  V30 14826 H 1377.18 3.1296 -0.826896 0
M  V30 14827 H 1376.08 2.26544 -2.97706 0
M  V30 14828 H 1377.42 2.99626 -3.90494 0
M  V30 14829 N 1379.07 1.38501 0.752011 0
M  V30 14830 C 1380.02 1.35975 1.88716 0
M  V30 14831 C 1381.01 0.245392 1.67613 0
M  V30 14832 O 1382.22 0.414514 1.75162 0
M  V30 14833 H 1378.59 0.424221 0.620919 0
M  V30 14834 H 1380.56 2.3176 1.87962 0
M  V30 14835 C 1379.31 1.20326 3.26216 0
M  V30 14836 H 1378.63 2.05336 3.43041 0
M  V30 14837 H 1380.07 1.22613 4.05884 0
M  V30 14838 C 1378.53 -0.0897029 3.36781 0
M  V30 14839 O 1379.06 -1.06615 3.87293 0
M  V30 14840 N 1377.27 -0.147065 2.90228 0
M  V30 14841 H 1376.82 0.648216 2.49311 0
M  V30 14842 H 1376.77 -1.01174 2.97676 0
M  V30 14843 N 1380.55 -0.980364 1.23396 0
M  V30 14844 C 1381.77 -1.75689 1.09275 0
M  V30 14845 C 1382.19 -1.85418 -0.355773 0
M  V30 14846 O 1381.55 -1.33337 -1.24609 0
M  V30 14847 C 1381.6 -3.18378 1.71223 0
M  V30 14848 O 1381.32 -3.09154 3.10411 0
M  V30 14849 C 1382.82 -4.12425 1.62545 0
M  V30 14850 H 1380.04 -0.551354 0.382427 0
M  V30 14851 H 1382.58 -1.23169 1.63247 0
M  V30 14852 H 1380.74 -3.67925 1.21285 0
M  V30 14853 H 1381.15 -3.9898 3.40464 0
M  V30 14854 H 1382.63 -5.1025 2.10592 0
M  V30 14855 H 1383.1 -4.35296 0.584275 0
M  V30 14856 H 1383.71 -3.68782 2.1185 0
M  V30 14857 N 1382.02 -1.04567 -1.17913 0
M  V30 14858 C 1383.25 -0.772146 -1.92491 0
M  V30 14859 C 1383.67 0.665297 -1.75942 0
M  V30 14860 O 1383.03 1.46144 -1.07292 0
M  V30 14861 C 1383.08 -1.14966 -3.41782 0
M  V30 14862 O 1382.18 -0.278091 -4.11461 0
M  V30 14863 H 1381.52 -0.283715 -0.600335 0
M  V30 14864 H 1384.05 -1.39685 -1.49496 0
M  V30 14865 H 1384.06 -1.11374 -3.92505 0
M  V30 14866 H 1382.74 -2.1968 -3.53148 0
M  V30 14867 H 1381.32 -0.374073 -3.71019 0
M  V30 14868 N 1383.5 1.34231 -0.825823 0
M  V30 14869 C 1384.78 1.92662 -0.337743 0
M  V30 14870 C 1385.16 1.75358 1.17529 0
M  V30 14871 O 1384.51 1.13405 1.98372 0
M  V30 14872 C 1384.72 3.40394 -0.770269 0
M  V30 14873 C 1386.06 4.17546 -0.770767 0
M  V30 14874 O 1387.09 3.4899 -0.713035 0
M  V30 14875 O 1385.95 5.39903 -0.846602 0
M  V30 14876 H 1383.04 0.821768 -0.0928741 0
M  V30 14877 H 1385.59 1.43187 -0.910807 0
M  V30 14878 H 1384.36 3.46802 -1.81228 0
M  V30 14879 H 1383.98 3.97223 -0.17306 0
M  V30 14880 N 1384.98 0.581051 1.46498 0
M  V30 14881 C 1385.91 -0.19094 2.28403 0
M  V30 14882 C 1386.92 -0.857039 1.38415 0
M  V30 14883 O 1388.11 -0.726881 1.6303 0
M  V30 14884 C 1385.21 -1.28972 3.134 0
M  V30 14885 C 1384.39 -0.715867 4.31502 0
M  V30 14886 C 1383.45 -1.70215 4.97909 0
M  V30 14887 O 1382.47 -1.23885 5.55555 0
M  V30 14888 N 1383.67 -3.0362 4.94768 0
M  V30 14889 H 1386.44 0.511754 2.95298 0
M  V30 14890 H 1384 0.41871 1.56392 0
M  V30 14891 H 1385.99 -1.94877 3.5469 0
M  V30 14892 H 1384.56 -1.8953 2.4859 0
M  V30 14893 H 1383.78 0.120591 3.94016 0
M  V30 14894 H 1385.07 -0.312226 5.07841 0
M  V30 14895 H 1384.47 -3.43885 4.49177 0
M  V30 14896 H 1383.02 -3.65018 5.40005 0
M  V30 14897 N 1386.46 -1.54343 0.318742 0
M  V30 14898 C 1387.73 -1.92635 -0.339299 0
M  V30 14899 C 1388.11 -1.24786 -1.7027 0
M  V30 14900 O 1387.46 -0.389844 -2.2515 0
M  V30 14901 C 1387.67 -3.46262 -0.436318 0
M  V30 14902 C 1389.02 -4.18809 -0.698871 0
M  V30 14903 O 1390.04 -3.52392 -0.519431 0
M  V30 14904 O 1388.9 -5.36422 -1.04471 0
M  V30 14905 H 1386 -0.804202 -0.192841 0
M  V30 14906 H 1388.54 -1.6566 0.368104 0
M  V30 14907 H 1387.32 -3.8781 0.521427 0
M  V30 14908 H 1386.94 -3.79327 -1.19149 0
M  V30 14909 N 1387.94 -0.0468143 -1.5753 0
M  V30 14910 C 1389.17 0.636723 -1.96544 0
M  V30 14911 C 1389.57 1.65169 -0.922814 0
M  V30 14912 O 1388.92 1.83417 0.101892 0
M  V30 14913 C 1388.98 1.38435 -3.31777 0
M  V30 14914 C 1388.64 0.525714 -4.53966 0
M  V30 14915 C 1389.64 -0.206392 -5.1949 0
M  V30 14916 C 1387.32 0.457919 -5.00208 0
M  V30 14917 C 1389.32 -0.994779 -6.29589 0
M  V30 14918 C 1387.01 -0.334159 -6.10186 0
M  V30 14919 C 1388 -1.0592 -6.74737 0
M  V30 14920 O 1387.69 -1.83826 -7.826 0
M  V30 14921 H 1387.42 0.179197 -0.651816 0
M  V30 14922 H 1389.98 -0.108214 -2.05115 0
M  V30 14923 H 1388.21 2.17482 -3.19748 0
M  V30 14924 H 1389.9 1.9577 -3.55568 0
M  V30 14925 H 1390.66 -0.163457 -4.84724 0
M  V30 14926 H 1386.54 1.01185 -4.49758 0
M  V30 14927 H 1390.09 -1.56121 -6.79906 0
M  V30 14928 H 1385.98 -0.378748 -6.44388 0
M  V30 14929 H 1386.75 -1.75991 -7.99356 0
M  V30 14930 N 1389.41 1.55964 0.226527 0
M  V30 14931 C 1390.66 1.78745 0.95165 0
M  V30 14932 C 1390.99 0.614714 1.84531 0
M  V30 14933 O 1390.24 -0.401137 1.91545 0
M  V30 14934 C 1390.54 3.07235 1.82597 0
M  V30 14935 C 1390.21 4.37627 1.08596 0
M  V30 14936 C 1388.87 4.73057 0.881531 0
M  V30 14937 C 1391.22 5.1815 0.563019 0
M  V30 14938 C 1388.55 5.86528 0.142172 0
M  V30 14939 C 1390.9 6.3239 -0.162972 0
M  V30 14940 C 1389.57 6.66425 -0.378704 0
M  V30 14941 H 1388.84 0.654075 0.348233 0
M  V30 14942 H 1391.48 1.9023 0.220187 0
M  V30 14943 H 1389.79 2.9085 2.62514 0
M  V30 14944 H 1391.49 3.22063 2.38907 0
M  V30 14945 H 1388.08 4.09806 1.25527 0
M  V30 14946 H 1392.26 4.91218 0.708446 0
M  V30 14947 H 1387.52 6.1139 -0.0352481 0
M  V30 14948 H 1391.69 6.94016 -0.575719 0
M  V30 14949 H 1389.32 7.54196 -0.953549 0
M  V30 14950 N 1390.89 -0.493031 1.4969 0
M  V30 14951 C 1392.12 -1.26862 1.63063 0
M  V30 14952 C 1392.53 -1.86734 0.304451 0
M  V30 14953 O 1391.87 -1.68956 -0.72108 0
M  V30 14954 C 1391.94 -2.43249 2.64708 0
M  V30 14955 C 1391.6 -2.04185 4.08849 0
M  V30 14956 C 1392.6 -1.57698 4.95406 0
M  V30 14957 C 1390.28 -2.13576 4.54632 0
M  V30 14958 C 1392.28 -1.21116 6.25787 0
M  V30 14959 C 1389.96 -1.76606 5.85024 0
M  V30 14960 C 1390.96 -1.30451 6.70426 0
M  V30 14961 O 1390.65 -0.939844 7.98387 0
M  V30 14962 H 1390.38 -0.390674 0.551679 0
M  V30 14963 H 1392.93 -0.59753 1.96516 0
M  V30 14964 H 1391.16 -3.1346 2.26451 0
M  V30 14965 H 1392.85 -3.0526 2.67528 0
M  V30 14966 H 1393.62 -1.49882 4.6126 0
M  V30 14967 H 1389.5 -2.48451 3.88321 0
M  V30 14968 H 1393.04 -0.850198 6.924 0
M  V30 14969 H 1388.94 -1.84074 6.18698 0
M  V30 14970 H 1389.71 -1.07062 8.11468 0
M  V30 14971 N 1392.37 -1.38898 -0.744656 0
M  V30 14972 C 1393.62 -1.35595 -1.50401 0
M  V30 14973 C 1393.95 0.0511979 -1.94433 0
M  V30 14974 O 1393.2 1.03011 -1.66395 0
M  V30 14975 C 1393.5 -2.2658 -2.76398 0
M  V30 14976 C 1393.17 -3.74389 -2.51283 0
M  V30 14977 C 1391.83 -4.14666 -2.44143 0
M  V30 14978 C 1394.18 -4.67916 -2.29573 0
M  V30 14979 C 1391.51 -5.46545 -2.1332 0
M  V30 14980 C 1393.86 -6.00063 -2.00269 0
M  V30 14981 C 1392.52 -6.39413 -1.91591 0
M  V30 14982 H 1391.79 -0.496176 -0.550355 0
M  V30 14983 H 1394.44 -1.71328 -0.855514 0
M  V30 14984 H 1392.75 -1.83933 -3.45942 0
M  V30 14985 H 1394.44 -2.21323 -3.34391 0
M  V30 14986 H 1391.03 -3.42463 -2.57715 0
M  V30 14987 H 1395.22 -4.37639 -2.34063 0
M  V30 14988 H 1390.47 -5.75966 -2.05117 0
M  V30 14989 H 1394.65 -6.72068 -1.82476 0
M  V30 14990 H 1392.27 -7.41524 -1.67472 0
M  V30 14991 N 1393.85 0.973806 -1.23914 0
M  V30 14992 C 1395.13 1.69087 -0.9833 0
M  V30 14993 C 1395.51 2.05186 0.49619 0
M  V30 14994 O 1394.85 1.75021 1.46901 0
M  V30 14995 C 1395.06 2.92739 -1.90012 0
M  V30 14996 C 1396.41 3.65112 -2.16745 0
M  V30 14997 O 1397.44 3.02785 -1.87616 0
M  V30 14998 O 1396.29 4.77293 -2.66183 0
M  V30 14999 H 1393.39 0.738919 -0.371386 0
M  V30 15000 H 1395.93 1.02844 -1.34986 0
M  V30 15001 H 1394.71 2.6271 -2.89999 0
M  V30 15002 H 1394.33 3.66718 -1.53635 0
M  V30 15003 N 1395.33 1.05191 1.17357 0
M  V30 15004 C 1396.57 0.763113 1.87895 0
M  V30 15005 C 1396.91 -0.708071 1.80831 0
M  V30 15006 O 1396.18 -1.51777 1.21631 0
M  V30 15007 C 1396.46 1.2442 3.37923 0
M  V30 15008 C 1396.32 2.77832 3.53737 0
M  V30 15009 C 1397.64 0.843209 4.31947 0
M  V30 15010 H 1394.75 0.27869 0.682276 0
M  V30 15011 H 1397.4 1.3059 1.38008 0
M  V30 15012 H 1395.55 0.782438 3.80539 0
M  V30 15013 H 1397.22 3.32131 3.20135 0
M  V30 15014 H 1395.46 3.17108 2.96015 0
M  V30 15015 H 1396.13 3.06555 4.59052 0
M  V30 15016 H 1398.61 1.24073 3.97171 0
M  V30 15017 H 1397.48 1.20743 5.35455 0
M  V30 15018 H 1397.75 -0.252802 4.41377 0
M  V30 15019 N 1396.8 -1.33791 0.83293 0
M  V30 15020 C 1398.05 -1.97233 0.422127 0
M  V30 15021 C 1398.37 -1.66738 -1.02264 0
M  V30 15022 O 1399.57 -2.23747 -1.53783 0
M  V30 15023 C 1398.03 -3.5295 0.703872 0
M  V30 15024 C 1397.64 -3.92329 2.16292 0
M  V30 15025 C 1399.38 -4.22973 0.359727 0
M  V30 15026 C 1397.29 -5.40999 2.38903 0
M  V30 15027 H 1396.22 -0.738082 0.154112 0
M  V30 15028 H 1398.87 -1.52494 1.02068 0
M  V30 15029 H 1397.25 -3.95985 0.0350184 0
M  V30 15030 H 1398.42 -3.6037 2.87176 0
M  V30 15031 H 1396.74 -3.35271 2.46947 0
M  V30 15032 H 1399.34 -5.32297 0.506366 0
M  V30 15033 H 1399.68 -4.10428 -0.696743 0
M  V30 15034 H 1400.21 -3.85449 0.983568 0
M  V30 15035 H 1396.95 -5.58541 3.43093 0
M  V30 15036 H 1396.47 -5.74438 1.72573 0
M  V30 15037 H 1398.15 -6.07809 2.2176 0
M  V30 15038 N 1398.28 -0.588812 -1.46187 0
M  V30 15039 C 1399.51 -0.0825301 -2.06735 0
M  V30 15040 C 1399.93 1.22507 -1.43658 0
M  V30 15041 O 1399.28 1.74203 -0.544022 0
M  V30 15042 C 1399.33 0.083501 -3.61404 0
M  V30 15043 O 1399.05 -1.17235 -4.22123 0
M  V30 15044 C 1400.56 0.623425 -4.38894 0
M  V30 15045 H 1397.78 -0.0602413 -0.66829 0
M  V30 15046 H 1400.32 -0.811215 -1.87722 0
M  V30 15047 H 1398.47 0.762432 -3.79823 0
M  V30 15048 H 1398.89 -0.990047 -5.15071 0
M  V30 15049 H 1400.36 0.688755 -5.47686 0
M  V30 15050 H 1400.84 1.64172 -4.07362 0
M  V30 15051 H 1401.45 -0.0208373 -4.25295 0
M  V30 15052 N 1399.76 1.54172 -0.326923 0
M  V30 15053 C 1401.17 1.86009 0.160446 0
M  V30 15054 C 1401.52 1.24851 1.51349 0
M  V30 15055 O 1400.65 0.555804 2.09141 0
M  V30 15056 C 1401.24 3.37488 0.297909 0
M  V30 15057 C 1399.8 3.69263 0.7295 0
M  V30 15058 C 1398.95 2.76911 -0.146778 0
M  V30 15059 H 1401.9 1.48972 -0.547093 0
M  V30 15060 H 1401.92 3.63388 1.12825 0
M  V30 15061 H 1401.43 3.81971 -0.687007 0
M  V30 15062 H 1399.53 3.30314 1.72404 0
M  V30 15063 H 1399.65 4.76149 0.53092 0
M  V30 15064 H 1398.01 2.51876 0.378212 0
M  V30 15065 H 1398.79 3.24221 -1.12852 0
M  V30 15066 N 1401.24 0.0551678 1.57503 0
M  V30 15067 C 1402.49 -0.6165 1.92467 0
M  V30 15068 C 1402.81 -1.71147 0.934552 0
M  V30 15069 O 1402.08 -1.9589 -0.0199649 0
M  V30 15070 H 1400.66 -0.230714 0.710479 0
M  V30 15071 H 1403.32 0.109111 1.94594 0
M  V30 15072 H 1402.42 -1.05254 2.93816 0
M  V30 15073 N 1402.72 -1.56081 -0.218252 0
M  V30 15074 C 1403.63 -1.95856 -1.29141 0
M  V30 15075 C 1404.64 -0.862857 -1.51099 0
M  V30 15076 O 1405.82 -1.1667 -1.64165 0
M  V30 15077 C 1402.88 -2.27005 -2.62049 0
M  V30 15078 C 1401.94 -3.50162 -2.48365 0
M  V30 15079 C 1401.18 -3.79815 -3.74935 0
M  V30 15080 O 1401.4 -3.11095 -4.78096 0
M  V30 15081 O 1400.33 -4.73299 -3.71849 0
M  V30 15082 H 1404.16 -2.8732 -0.983922 0
M  V30 15083 H 1401.75 -1.43334 -0.421385 0
M  V30 15084 H 1403.63 -2.4822 -3.40536 0
M  V30 15085 H 1402.3 -1.38715 -2.92472 0
M  V30 15086 H 1401.21 -3.34222 -1.68066 0
M  V30 15087 H 1402.54 -4.38845 -2.22881 0
M  V30 15088 N 1404.2 0.485086 -1.49949 0
M  V30 15089 C 1405.44 1.23999 -1.60474 0
M  V30 15090 C 1405.77 1.91904 -0.297736 0
M  V30 15091 O 1405.05 1.81472 0.699857 0
M  V30 15092 C 1405.33 2.2946 -2.77525 0
M  V30 15093 C 1405.19 1.65952 -4.18067 0
M  V30 15094 C 1406.5 3.30893 -2.90169 0
M  V30 15095 H 1403.62 0.449462 -0.584083 0
M  V30 15096 H 1406.27 0.535795 -1.82289 0
M  V30 15097 H 1404.42 2.89521 -2.59056 0
M  V30 15098 H 1406.09 1.09596 -4.48092 0
M  V30 15099 H 1404.33 0.963079 -4.22974 0
M  V30 15100 H 1405 2.42521 -4.9587 0
M  V30 15101 H 1407.48 2.8084 -3.07031 0
M  V30 15102 H 1406.35 4.02027 -3.73718 0
M  V30 15103 H 1406.61 3.94178 -2.0019 0
M  V30 15104 N 1405.67 1.39291 0.737279 0
M  V30 15105 C 1406.62 1.37829 1.85127 0
M  V30 15106 C 1407.59 0.238321 1.64381 0
M  V30 15107 O 1408.78 0.433081 1.8582 0
M  V30 15108 C 1405.92 1.22531 3.22615 0
M  V30 15109 C 1405.03 2.46052 3.55081 0
M  V30 15110 C 1404.16 2.2336 4.81958 0
M  V30 15111 C 1403.2 3.42569 5.0726 0
M  V30 15112 N 1402.34 3.19209 6.2534 0
M  V30 15113 H 1407.18 2.33056 1.85712 0
M  V30 15114 H 1404.72 1.15772 0.907484 0
M  V30 15115 H 1406.67 1.11673 4.01976 0
M  V30 15116 H 1405.3 0.30934 3.21314 0
M  V30 15117 H 1404.36 2.67521 2.70438 0
M  V30 15118 H 1405.67 3.3485 3.69698 0
M  V30 15119 H 1404.82 2.09732 5.69295 0
M  V30 15120 H 1403.56 1.31953 4.6951 0
M  V30 15121 H 1402.57 3.56698 4.18386 0
M  V30 15122 H 1403.79 4.34874 5.21595 0
M  V30 15123 H 1401.74 2.30464 6.14184 0
M  V30 15124 H 1401.65 4.01562 6.40534 0
M  V30 15125 H 1402.92 3.09269 7.15523 0
M  V30 15126 N 1407.15 -0.967221 1.24429 0
M  V30 15127 C 1408.4 -1.70458 1.07829 0
M  V30 15128 C 1408.71 -1.91818 -0.38278 0
M  V30 15129 O 1409.92 -2.63129 -0.668982 0
M  V30 15130 C 1408.38 -3.06817 1.88125 0
M  V30 15131 C 1407.98 -2.93298 3.38645 0
M  V30 15132 C 1409.73 -3.84422 1.80056 0
M  V30 15133 C 1407.63 -4.2497 4.11284 0
M  V30 15134 H 1406.56 -0.639217 0.399897 0
M  V30 15135 H 1409.22 -1.07776 1.48515 0
M  V30 15136 H 1407.6 -3.70331 1.40254 0
M  V30 15137 H 1408.77 -2.38793 3.94099 0
M  V30 15138 H 1407.09 -2.29159 3.47671 0
M  V30 15139 H 1409.68 -4.81925 2.31629 0
M  V30 15140 H 1410.03 -4.09194 0.765908 0
M  V30 15141 H 1410.56 -3.27636 2.2561 0
M  V30 15142 H 1407.3 -4.05391 5.1511 0
M  V30 15143 H 1406.82 -4.79288 3.60615 0
M  V30 15144 H 1408.5 -4.93586 4.18308 0
M  V30 15145 N 1408.63 -1.05812 -1.16797 0
M  V30 15146 C 1409.91 -0.685551 -1.83193 0
M  V30 15147 C 1410.29 0.833539 -1.93947 0
M  V30 15148 O 1409.63 1.74193 -1.47882 0
M  V30 15149 C 1409.84 -1.38183 -3.20479 0
M  V30 15150 C 1411.19 -1.52389 -3.96311 0
M  V30 15151 O 1412.22 -1.34134 -3.2998 0
M  V30 15152 O 1411.08 -1.82297 -5.15199 0
M  V30 15153 H 1408.17 -0.242095 -0.790771 0
M  V30 15154 H 1410.72 -1.15809 -1.24041 0
M  V30 15155 H 1409.49 -2.41791 -3.07657 0
M  V30 15156 H 1409.11 -0.899043 -3.87302 0
M  V30 15157 N 1410.11 1.33347 -0.840014 0
M  V30 15158 C 1411.36 1.97007 -0.432581 0
M  V30 15159 C 1411.67 1.67278 1.01378 0
M  V30 15160 O 1412.88 2.2456 1.52595 0
M  V30 15161 C 1411.33 3.52572 -0.72258 0
M  V30 15162 C 1410.94 3.91176 -2.1837 0
M  V30 15163 C 1412.68 4.22776 -0.382153 0
M  V30 15164 C 1410.59 5.39724 -2.41768 0
M  V30 15165 H 1409.52 0.737255 -0.158024 0
M  V30 15166 H 1412.17 1.5195 -1.02876 0
M  V30 15167 H 1410.55 3.9596 -0.0560179 0
M  V30 15168 H 1411.73 3.58842 -2.89083 0
M  V30 15169 H 1410.04 3.33956 -2.48721 0
M  V30 15170 H 1412.64 5.32021 -0.534588 0
M  V30 15171 H 1412.98 4.10792 0.674967 0
M  V30 15172 H 1413.52 3.84922 -1.004 0
M  V30 15173 H 1410.25 5.56713 -3.4605 0
M  V30 15174 H 1409.77 5.73514 -1.75617 0
M  V30 15175 H 1411.45 6.06624 -2.2498 0
M  V30 15176 N 1411.59 0.596556 1.45873 0
M  V30 15177 C 1412.53 -0.141327 2.3217 0
M  V30 15178 C 1413.53 -0.870652 1.45314 0
M  V30 15179 O 1414.73 -0.787469 1.61861 0
M  V30 15180 H 1411.11 -0.0644404 0.749234 0
M  V30 15181 H 1413.08 0.605115 2.922 0
M  V30 15182 C 1411.83 -1.13261 3.28736 0
M  V30 15183 H 1411.15 -0.580835 3.95558 0
M  V30 15184 H 1412.59 -1.61904 3.91871 0
M  V30 15185 C 1411.05 -2.20062 2.55097 0
M  V30 15186 O 1411.58 -3.27634 2.3242 0
M  V30 15187 N 1409.79 -1.95044 2.15421 0
M  V30 15188 H 1409.33 -1.07573 2.34064 0
M  V30 15189 H 1409.29 -2.66711 1.66472 0
M  V30 15190 N 1413.06 -1.53996 0.335095 0
M  V30 15191 C 1414.01 -2.24736 -0.52559 0
M  V30 15192 C 1414.98 -1.24244 -1.10239 0
M  V30 15193 O 1416.17 -1.52955 -1.14058 0
M  V30 15194 C 1413.31 -3.01732 -1.67487 0
M  V30 15195 C 1412.42 -4.17062 -1.1262 0
M  V30 15196 C 1411.55 -4.81563 -2.2421 0
M  V30 15197 C 1410.59 -5.88977 -1.6665 0
M  V30 15198 N 1409.73 -6.47293 -2.71949 0
M  V30 15199 H 1414.57 -2.97881 0.0842008 0
M  V30 15200 H 1412.11 -1.47003 0.0533254 0
M  V30 15201 H 1414.06 -3.44626 -2.35135 0
M  V30 15202 H 1412.69 -2.30899 -2.25578 0
M  V30 15203 H 1411.75 -3.78869 -0.340917 0
M  V30 15204 H 1413.06 -4.94346 -0.665113 0
M  V30 15205 H 1412.21 -5.27486 -2.9974 0
M  V30 15206 H 1410.95 -4.03685 -2.73659 0
M  V30 15207 H 1409.96 -5.42446 -0.89623 0
M  V30 15208 H 1411.18 -6.68758 -1.18064 0
M  V30 15209 H 1409.13 -5.72283 -3.20668 0
M  V30 15210 H 1409.04 -7.20024 -2.30438 0
M  V30 15211 H 1410.31 -6.97869 -3.47273 0
M  V30 15212 N 1414.54 -0.0635198 -1.57472 0
M  V30 15213 C 1415.47 0.90431 -2.15278 0
M  V30 15214 C 1416.45 1.31609 -1.07764 0
M  V30 15215 O 1417.64 1.38861 -1.35762 0
M  V30 15216 C 1414.77 2.17483 -2.70774 0
M  V30 15217 C 1413.72 1.90272 -3.8338 0
M  V30 15218 C 1413.05 3.23885 -4.25444 0
M  V30 15219 C 1414.35 1.21454 -5.07983 0
M  V30 15220 H 1416.04 0.422786 -2.964 0
M  V30 15221 H 1413.59 0.201918 -1.42577 0
M  V30 15222 H 1415.54 2.856 -3.09856 0
M  V30 15223 H 1414.26 2.67863 -1.86861 0
M  V30 15224 H 1412.92 1.24564 -3.44789 0
M  V30 15225 H 1412.57 3.72089 -3.38465 0
M  V30 15226 H 1412.27 3.06472 -5.01347 0
M  V30 15227 H 1413.8 3.93212 -4.67137 0
M  V30 15228 H 1415.21 1.79625 -5.44433 0
M  V30 15229 H 1413.61 1.14327 -5.89109 0
M  V30 15230 H 1414.68 0.19238 -4.84518 0
M  V30 15231 N 1416.02 1.56195 0.209972 0
M  V30 15232 C 1417.27 1.7939 0.930796 0
M  V30 15233 C 1417.59 0.634038 1.84404 0
M  V30 15234 O 1416.86 -0.348467 1.92776 0
M  V30 15235 H 1415.44 0.661676 0.346689 0
M  V30 15236 H 1418.1 1.93665 0.219049 0
M  V30 15237 H 1417.2 2.71982 1.53075 0
M  V30 15238 N 1417.5 -0.477127 1.50204 0
M  V30 15239 C 1418.73 -1.25126 1.64399 0
M  V30 15240 C 1419.14 -1.86401 0.32424 0
M  V30 15241 O 1418.48 -1.69711 -0.703119 0
M  V30 15242 C 1418.54 -2.40428 2.67273 0
M  V30 15243 C 1418.2 -1.99837 4.10992 0
M  V30 15244 C 1419.2 -1.52435 4.97051 0
M  V30 15245 C 1416.89 -2.08742 4.56872 0
M  V30 15246 C 1418.88 -1.14472 6.27037 0
M  V30 15247 C 1416.57 -1.70391 5.86865 0
M  V30 15248 C 1417.57 -1.23333 6.71772 0
M  V30 15249 O 1417.25 -0.855111 7.99339 0
M  V30 15250 H 1416.99 -0.384801 0.555791 0
M  V30 15251 H 1419.54 -0.576654 1.97139 0
M  V30 15252 H 1417.77 -3.1104 2.29763 0
M  V30 15253 H 1419.46 -3.02406 2.7075 0
M  V30 15254 H 1420.22 -1.44981 4.62823 0
M  V30 15255 H 1416.1 -2.44319 3.90934 0
M  V30 15256 H 1419.65 -0.776712 6.93263 0
M  V30 15257 H 1415.54 -1.77501 6.20615 0
M  V30 15258 H 1416.31 -0.984492 8.12558 0
M  V30 15259 N 1418.98 -1.3968 -0.729882 0
M  V30 15260 C 1420.22 -1.36911 -1.4866 0
M  V30 15261 C 1420.55 0.0326011 -1.94973 0
M  V30 15262 O 1419.82 0.984789 -1.69348 0
M  V30 15263 H 1418.4 -0.503848 -0.551495 0
M  V30 15264 H 1421.06 -1.74596 -0.866155 0
M  V30 15265 H 1420.15 -2.03504 -2.36628 0
M  V30 15266 N 1420.45 0.960609 -1.2494 0
M  V30 15267 C 1421.7 1.70111 -1.09117 0
M  V30 15268 C 1422.02 1.91466 0.369544 0
M  V30 15269 O 1421.29 1.49749 1.26302 0
M  V30 15270 H 1419.87 0.630372 -0.400799 0
M  V30 15271 H 1422.54 1.15525 -1.56971 0
M  V30 15272 H 1421.63 2.68277 -1.5948 0
M  V30 15273 N 1421.93 1.0643 1.16234 0
M  V30 15274 C 1422.9 0.680383 2.18869 0
M  V30 15275 C 1423.9 -0.274591 1.58438 0
M  V30 15276 O 1425.09 -0.0567907 1.74107 0
M  V30 15277 C 1422.22 0.00134091 3.409 0
M  V30 15278 H 1423.41 1.58894 2.54347 0
M  V30 15279 H 1420.96 0.859688 1.30534 0
M  V30 15280 H 1421.7 -0.919903 3.1098 0
M  V30 15281 H 1421.48 0.688057 3.86016 0
M  V30 15282 H 1422.97 -0.252938 4.16833 0
M  V30 15283 N 1423.41 -1.329 0.847073 0
M  V30 15284 C 1424.64 -2.0171 0.460497 0
M  V30 15285 C 1425.05 -1.63699 -0.940649 0
M  V30 15286 O 1424.41 -0.854454 -1.61262 0
M  V30 15287 C 1424.46 -3.56799 0.581108 0
M  V30 15288 O 1424.18 -3.93442 1.92705 0
M  V30 15289 C 1425.68 -4.42882 0.192552 0
M  V30 15290 H 1422.9 -0.645887 0.181853 0
M  V30 15291 H 1425.45 -1.69648 1.14192 0
M  V30 15292 H 1423.6 -3.87364 -0.0524924 0
M  V30 15293 H 1424.02 -4.88157 1.91841 0
M  V30 15294 H 1425.49 -5.51025 0.327969 0
M  V30 15295 H 1425.97 -4.30571 -0.866315 0
M  V30 15296 H 1426.57 -4.17691 0.800918 0
M  V30 15297 N 1424.89 -0.604284 -1.45555 0
M  V30 15298 C 1426.13 -0.106748 -2.0312 0
M  V30 15299 C 1426.49 1.24754 -1.46472 0
M  V30 15300 O 1425.78 1.80993 -0.628659 0
M  V30 15301 C 1425.98 -0.00538243 -3.574 0
M  V30 15302 C 1425.81 -1.3483 -4.29012 0
M  V30 15303 C 1424.58 -1.92813 -4.67067 0
M  V30 15304 C 1426.77 -2.27634 -4.6118 0
M  V30 15305 N 1424.76 -3.20619 -5.23523 0
M  V30 15306 C 1426.13 -3.40037 -5.18435 0
M  V30 15307 C 1428.18 -2.27047 -4.43119 0
M  V30 15308 C 1426.88 -4.52014 -5.59531 0
M  V30 15309 C 1428.91 -3.38069 -4.85245 0
M  V30 15310 C 1428.27 -4.49194 -5.4259 0
M  V30 15311 H 1424.37 -0.0823527 -0.777652 0
M  V30 15312 H 1426.96 -0.801912 -1.77419 0
M  V30 15313 H 1425.13 0.658995 -3.82769 0
M  V30 15314 H 1426.86 0.498511 -4.01618 0
M  V30 15315 H 1423.61 -1.46056 -4.50516 0
M  V30 15316 H 1424.04 -3.8589 -5.56253 0
M  V30 15317 H 1428.68 -1.42395 -3.981 0
M  V30 15318 H 1426.4 -5.37394 -6.03518 0
M  V30 15319 H 1429.98 -3.38759 -4.73005 0
M  V30 15320 H 1428.86 -5.33683 -5.74588 0
M  V30 15321 N 1426.37 1.53816 -0.343257 0
M  V30 15322 C 1427.61 2.01207 0.253721 0
M  V30 15323 C 1427.95 1.23069 1.50225 0
M  V30 15324 O 1427.22 0.31824 1.91879 0
M  V30 15325 C 1427.5 3.5559 0.56815 0
M  V30 15326 C 1427.36 4.44438 -0.692457 0
M  V30 15327 C 1428.68 4.17974 1.37788 0
M  V30 15328 H 1425.79 0.731392 0.0907427 0
M  V30 15329 H 1428.44 1.84254 -0.463736 0
M  V30 15330 H 1426.59 3.70166 1.17937 0
M  V30 15331 H 1428.26 4.41698 -1.33042 0
M  V30 15332 H 1426.5 4.13312 -1.3174 0
M  V30 15333 H 1427.17 5.5034 -0.427715 0
M  V30 15334 H 1429.65 4.07094 0.861043 0
M  V30 15335 H 1428.52 5.26068 1.56663 0
M  V30 15336 H 1428.79 3.72577 2.3799 0
M  V30 15337 N 1427.84 0.0718701 1.57436 0
M  V30 15338 C 1429.09 -0.598116 1.93779 0
M  V30 15339 C 1429.42 -1.69258 0.952131 0
M  V30 15340 O 1428.7 -1.94491 -0.0186426 0
M  V30 15341 C 1428.98 -1.17499 3.40391 0
M  V30 15342 C 1428.83 -0.0871719 4.49716 0
M  V30 15343 C 1430.15 -2.08047 3.8782 0
M  V30 15344 H 1427.27 -0.215954 0.704651 0
M  V30 15345 H 1429.91 0.137854 1.89499 0
M  V30 15346 H 1428.06 -1.80221 3.44169 0
M  V30 15347 H 1429.74 0.545906 4.58058 0
M  V30 15348 H 1427.98 0.582213 4.29875 0
M  V30 15349 H 1428.65 -0.531202 5.49438 0
M  V30 15350 H 1431.13 -1.5526 3.86049 0
M  V30 15351 H 1430 -2.45345 4.91016 0
M  V30 15352 H 1430.26 -2.98879 3.25766 0
M  V30 15353 N 1429.32 -1.56304 -0.201686 0
M  V30 15354 C 1430.55 -1.84074 -0.938103 0
M  V30 15355 C 1430.96 -0.651377 -1.77634 0
M  V30 15356 O 1430.3 0.389278 -1.79528 0
M  V30 15357 C 1430.37 -3.05856 -1.88924 0
M  V30 15358 C 1430.03 -4.40036 -1.2336 0
M  V30 15359 C 1431.03 -5.16265 -0.613737 0
M  V30 15360 C 1428.71 -4.86768 -1.23942 0
M  V30 15361 C 1430.71 -6.37399 -0.00844569 0
M  V30 15362 C 1428.39 -6.07841 -0.630296 0
M  V30 15363 C 1429.39 -6.82998 -0.0158799 0
M  V30 15364 O 1429.08 -8.01778 0.58372 0
M  V30 15365 H 1428.81 -0.615492 -0.279545 0
M  V30 15366 H 1431.36 -2.04262 -0.215938 0
M  V30 15367 H 1429.59 -2.81536 -2.65093 0
M  V30 15368 H 1431.28 -3.20328 -2.49289 0
M  V30 15369 H 1432.05 -4.81257 -0.601424 0
M  V30 15370 H 1427.93 -4.2823 -1.70705 0
M  V30 15371 H 1431.47 -6.96003 0.47174 0
M  V30 15372 H 1427.37 -6.42319 -0.640089 0
M  V30 15373 H 1428.14 -8.17091 0.479979 0
M  V30 15374 N 1430.8 0.469154 -1.50455 0
M  V30 15375 C 1432.08 1.23033 -1.5206 0
M  V30 15376 C 1432.46 2.09412 -0.266388 0
M  V30 15377 O 1431.81 2.15837 0.750099 0
M  V30 15378 C 1432.02 2.05969 -2.81741 0
M  V30 15379 C 1433.36 2.64093 -3.32476 0
M  V30 15380 O 1434.39 2.1621 -2.83075 0
M  V30 15381 O 1433.25 3.51341 -4.18595 0
M  V30 15382 H 1430.34 0.55841 -0.610006 0
M  V30 15383 H 1432.89 0.480818 -1.62746 0
M  V30 15384 H 1431.66 1.42327 -3.64498 0
M  V30 15385 H 1431.28 2.8805 -2.74067 0
M  V30 15386 N 1432.28 1.40065 0.722464 0
M  V30 15387 C 1433.19 1.42086 1.86678 0
M  V30 15388 C 1434.2 0.314223 1.71139 0
M  V30 15389 O 1435.38 0.55771 1.93524 0
M  V30 15390 C 1432.45 1.27498 3.22405 0
M  V30 15391 C 1431.51 2.48243 3.50248 0
M  V30 15392 C 1430.74 2.34342 4.79499 0
M  V30 15393 O 1430.96 1.35355 5.54108 0
M  V30 15394 O 1429.9 3.23579 5.07523 0
M  V30 15395 H 1433.72 2.38571 1.87929 0
M  V30 15396 H 1431.31 1.21314 0.871968 0
M  V30 15397 H 1433.19 1.21543 4.03491 0
M  V30 15398 H 1431.86 0.341141 3.21897 0
M  V30 15399 H 1430.77 2.59775 2.69199 0
M  V30 15400 H 1432.1 3.40364 3.55547 0
M  V30 15401 N 1433.76 -0.95397 1.25448 0
M  V30 15402 C 1434.71 -2.07206 1.05681 0
M  V30 15403 C 1435.7 -1.69395 -0.0124672 0
M  V30 15404 O 1436.91 -1.79429 0.143201 0
M  V30 15405 H 1433.28 -0.678231 0.324817 0
M  V30 15406 H 1435.25 -2.21034 2.00466 0
M  V30 15407 C 1434 -3.40725 0.692955 0
M  V30 15408 H 1433.32 -3.70287 1.50756 0
M  V30 15409 H 1434.76 -4.19814 0.594351 0
M  V30 15410 C 1433.22 -3.31495 -0.601028 0
M  V30 15411 O 1433.75 -3.66565 -1.64296 0
M  V30 15412 N 1431.96 -2.84612 -0.586899 0
M  V30 15413 H 1431.51 -2.56271 0.261375 0
M  V30 15414 H 1431.46 -2.78819 -1.45284 0
M  V30 15415 N 1435.24 -1.07045 -1.15668 0
M  V30 15416 C 1436.18 -0.68226 -2.22369 0
M  V30 15417 C 1437.18 0.305448 -1.66623 0
M  V30 15418 O 1438.38 0.169495 -1.792 0
M  V30 15419 H 1434.76 -0.202536 -0.724212 0
M  V30 15420 H 1436.73 -1.59187 -2.52393 0
M  V30 15421 C 1435.48 -0.0928131 -3.47576 0
M  V30 15422 H 1434.8 -0.843964 -3.90791 0
M  V30 15423 H 1436.24 0.14118 -4.23765 0
M  V30 15424 C 1434.7 1.16567 -3.16091 0
M  V30 15425 O 1435.23 2.25257 -3.32599 0
M  V30 15426 N 1433.44 1.07061 -2.7016 0
M  V30 15427 H 1432.98 0.186091 -2.56927 0
M  V30 15428 H 1432.94 1.91346 -2.49468 0
M  V30 15429 N 1436.71 1.32449 -0.85411 0
M  V30 15430 C 1437.66 2.30821 -0.287115 0
M  V30 15431 C 1438.66 1.58823 0.58921 0
M  V30 15432 O 1439.86 1.73563 0.477075 0
M  V30 15433 H 1436.24 0.748336 -0.0741416 0
M  V30 15434 H 1438.21 2.76134 -1.13104 0
M  V30 15435 C 1436.96 3.43937 0.51013 0
M  V30 15436 H 1436.28 3.995 -0.154895 0
M  V30 15437 H 1437.72 4.14927 0.872451 0
M  V30 15438 C 1436.18 2.91147 1.69513 0
M  V30 15439 O 1436.71 2.88595 2.7942 0
M  V30 15440 N 1434.91 2.47554 1.52202 0
M  V30 15441 H 1434.46 2.49829 0.627941 0
M  V30 15442 H 1434.42 2.12587 2.31633 0
M  V30 15443 N 1438.19 0.611994 1.45232 0
M  V30 15444 C 1439.15 -0.0943825 2.29006 0
M  V30 15445 C 1440.15 -0.790863 1.40007 0
M  V30 15446 O 1441.34 -0.638356 1.62082 0
M  V30 15447 C 1438.48 -1.1439 3.21135 0
M  V30 15448 H 1439.67 0.6422 2.92943 0
M  V30 15449 H 1437.22 0.37124 1.51827 0
M  V30 15450 H 1437.96 -1.9111 2.62007 0
M  V30 15451 H 1437.74 -0.648638 3.86698 0
M  V30 15452 H 1439.23 -1.63848 3.84114 0
M  V30 15453 N 1439.67 -1.53632 0.351409 0
M  V30 15454 C 1440.92 -2.01338 -0.243047 0
M  V30 15455 C 1441.25 -1.23864 -1.4957 0
M  V30 15456 O 1440.52 -0.328412 -1.91707 0
M  V30 15457 C 1440.81 -3.55886 -0.549284 0
M  V30 15458 C 1440.66 -4.44064 0.716016 0
M  V30 15459 C 1441.98 -4.18699 -1.35569 0
M  V30 15460 H 1439.1 -0.731863 -0.0868627 0
M  V30 15461 H 1441.74 -1.84005 0.473501 0
M  V30 15462 H 1439.89 -3.70787 -1.15972 0
M  V30 15463 H 1441.56 -4.40987 1.35383 0
M  V30 15464 H 1439.8 -4.12608 1.3393 0
M  V30 15465 H 1440.48 -5.50106 0.456895 0
M  V30 15466 H 1442.95 -4.07545 -0.839441 0
M  V30 15467 H 1441.83 -5.26892 -1.53871 0
M  V30 15468 H 1442.09 -3.73834 -2.3601 0
M  V30 15469 N 1441.15 -0.0802183 -1.57396 0
M  V30 15470 C 1442.37 0.599179 -1.98556 0
M  V30 15471 C 1442.8 1.61844 -0.958555 0
M  V30 15472 O 1442.16 1.81146 0.0748226 0
M  V30 15473 C 1442.2 1.23675 -3.38728 0
M  V30 15474 O 1441.31 2.35262 -3.38712 0
M  V30 15475 H 1440.65 0.153366 -0.646045 0
M  V30 15476 H 1443.18 -0.157227 -2.03995 0
M  V30 15477 H 1443.19 1.5816 -3.76098 0
M  V30 15478 H 1441.86 0.489946 -4.13004 0
M  V30 15479 H 1440.44 2.02507 -3.13122 0
M  V30 15480 N 1442.63 1.56409 0.193394 0
M  V30 15481 C 1443.86 1.84569 0.928328 0
M  V30 15482 C 1444.26 0.660788 1.77286 0
M  V30 15483 O 1443.61 -0.379752 1.79732 0
M  V30 15484 C 1443.67 3.06854 1.87299 0
M  V30 15485 C 1443.33 4.40684 1.21025 0
M  V30 15486 C 1444.33 5.16583 0.58635 0
M  V30 15487 C 1442.01 4.87419 1.21359 0
M  V30 15488 C 1444.01 6.37395 -0.0253573 0
M  V30 15489 C 1441.7 6.08167 0.598052 0
M  V30 15490 C 1442.69 6.82997 -0.0203414 0
M  V30 15491 O 1442.38 8.01457 -0.626232 0
M  V30 15492 H 1442.11 0.616966 0.276277 0
M  V30 15493 H 1444.67 2.04373 0.205102 0
M  V30 15494 H 1442.9 2.82938 2.63596 0
M  V30 15495 H 1444.59 3.21645 2.47587 0
M  V30 15496 H 1445.35 4.81569 0.575894 0
M  V30 15497 H 1441.23 4.29129 1.68432 0
M  V30 15498 H 1444.78 6.95743 -0.508644 0
M  V30 15499 H 1440.67 6.42649 0.606017 0
M  V30 15500 H 1441.44 8.16825 -0.523305 0
M  V30 15501 N 1444.1 -0.461169 1.50702 0
M  V30 15502 C 1445.07 -1.54032 1.69725 0
M  V30 15503 C 1446.07 -1.50445 0.567707 0
M  V30 15504 O 1447.26 -1.52889 0.834901 0
M  V30 15505 C 1444.39 -2.93642 1.73168 0
M  V30 15506 H 1445.58 -1.38478 2.66015 0
M  V30 15507 H 1443.13 -0.688235 1.40332 0
M  V30 15508 H 1443.87 -3.14629 0.786078 0
M  V30 15509 H 1443.65 -2.97652 2.55236 0
M  V30 15510 H 1445.14 -3.71972 1.89807 0
M  V30 15511 N 1445.58 -1.40446 -0.715026 0
M  V30 15512 C 1446.81 -1.4207 -1.50412 0
M  V30 15513 C 1447.22 -0.0205547 -1.88789 0
M  V30 15514 O 1446.58 0.955635 -1.55479 0
M  V30 15515 C 1446.63 -2.3119 -2.77909 0
M  V30 15516 O 1446.35 -3.65754 -2.41154 0
M  V30 15517 C 1447.85 -2.41412 -3.718 0
M  V30 15518 H 1445.07 -0.484554 -0.464164 0
M  V30 15519 H 1447.62 -1.84504 -0.881964 0
M  V30 15520 H 1445.77 -1.92117 -3.36407 0
M  V30 15521 H 1446.19 -4.13091 -3.23197 0
M  V30 15522 H 1447.66 -3.07976 -4.58099 0
M  V30 15523 H 1448.14 -1.43934 -4.14945 0
M  V30 15524 H 1448.74 -2.81039 -3.19213 0
M  V30 15525 N 1447.06 0.947303 -1.25952 0
M  V30 15526 C 1448.34 1.66964 -1.01894 0
M  V30 15527 C 1448.72 2.06192 0.452555 0
M  V30 15528 O 1448.06 1.78098 1.43156 0
M  V30 15529 C 1448.27 2.88643 -1.96179 0
M  V30 15530 C 1449.62 3.60432 -2.24441 0
M  V30 15531 O 1450.65 2.98737 -1.93996 0
M  V30 15532 O 1449.51 4.7154 -2.76247 0
M  V30 15533 H 1446.6 0.730875 -0.386976 0
M  V30 15534 H 1449.15 0.999577 -1.37137 0
M  V30 15535 H 1447.92 2.565 -2.95506 0
M  V30 15536 H 1447.54 3.63377 -1.61379 0
M  V30 15537 N 1448.54 1.07657 1.15099 0
M  V30 15538 C 1449.82 0.714608 1.82079 0
M  V30 15539 C 1450.2 -0.802578 1.95248 0
M  V30 15540 O 1449.54 -1.71818 1.50634 0
M  V30 15541 C 1449.75 1.43264 3.1824 0
M  V30 15542 C 1451.1 1.58675 3.93837 0
M  V30 15543 O 1452.13 1.39367 3.27804 0
M  V30 15544 O 1450.98 1.9047 5.12234 0
M  V30 15545 H 1448.08 0.254645 0.786819 0
M  V30 15546 H 1450.62 1.17768 1.22183 0
M  V30 15547 H 1449.4 2.46655 3.03772 0
M  V30 15548 H 1449.02 0.960546 3.85823 0
M  V30 15549 N 1450.02 -1.31994 0.861122 0
M  V30 15550 C 1451.26 -1.96636 0.466754 0
M  V30 15551 C 1451.59 -1.6845 -0.982328 0
M  V30 15552 O 1450.86 -0.995157 -1.68741 0
M  V30 15553 H 1449.44 -0.727489 0.169613 0
M  V30 15554 H 1452.1 -1.60962 1.09897 0
M  V30 15555 H 1451.19 -3.05937 0.61716 0
M  V30 15556 N 1451.49 -0.619688 -1.44906 0
M  V30 15557 C 1452.43 0.130316 -2.28829 0
M  V30 15558 C 1453.44 0.820039 -1.40639 0
M  V30 15559 O 1454.63 0.683401 -1.649 0
M  V30 15560 C 1451.73 1.20618 -3.16709 0
M  V30 15561 C 1450.9 0.60121 -4.33248 0
M  V30 15562 C 1449.96 1.56954 -5.02247 0
M  V30 15563 O 1448.99 1.09112 -5.58644 0
M  V30 15564 N 1450.19 2.90395 -5.02644 0
M  V30 15565 H 1452.95 -0.589867 -2.93838 0
M  V30 15566 H 1450.51 -0.460028 -1.55227 0
M  V30 15567 H 1452.51 1.85404 -3.59732 0
M  V30 15568 H 1451.08 1.82873 -2.53528 0
M  V30 15569 H 1450.3 -0.225015 -3.93557 0
M  V30 15570 H 1451.58 0.177471 -5.0849 0
M  V30 15571 H 1450.98 3.31855 -4.58136 0
M  V30 15572 H 1449.54 3.50572 -5.49493 0
M  V30 15573 N 1452.97 1.53444 -0.359552 0
M  V30 15574 C 1453.92 2.27053 0.504949 0
M  V30 15575 C 1454.91 1.29801 1.08849 0
M  V30 15576 O 1456.12 1.47451 1.03239 0
M  V30 15577 H 1452.5 0.729756 0.181549 0
M  V30 15578 H 1454.47 2.98082 -0.137719 0
M  V30 15579 C 1453.22 3.06815 1.63585 0
M  V30 15580 H 1452.54 3.81488 1.19611 0
M  V30 15581 H 1453.98 3.61508 2.21558 0
M  V30 15582 C 1452.44 2.17286 2.57466 0
M  V30 15583 O 1452.97 1.77961 3.60129 0
M  V30 15584 N 1451.17 1.82041 2.26516 0
M  V30 15585 H 1450.72 2.14218 1.43068 0
M  V30 15586 H 1450.68 1.22423 2.89586 0
M  V30 15587 N 1454.45 0.0885642 1.57351 0
M  V30 15588 C 1455.38 -0.869946 2.16689 0
M  V30 15589 C 1456.36 -1.29878 1.09844 0
M  V30 15590 O 1457.55 -1.36684 1.37954 0
M  V30 15591 C 1454.68 -2.13148 2.74199 0
M  V30 15592 C 1453.63 -1.84149 3.86359 0
M  V30 15593 C 1452.96 -3.17075 4.30543 0
M  V30 15594 C 1454.26 -1.13357 5.09851 0
M  V30 15595 H 1455.95 -0.375578 2.97035 0
M  V30 15596 H 1453.5 -0.17921 1.42881 0
M  V30 15597 H 1455.45 -2.80634 3.14361 0
M  V30 15598 H 1454.17 -2.64856 1.91098 0
M  V30 15599 H 1452.83 -1.19063 3.46727 0
M  V30 15600 H 1452.48 -3.66658 3.44342 0
M  V30 15601 H 1452.18 -2.98457 5.06159 0
M  V30 15602 H 1453.7 -3.85731 4.73333 0
M  V30 15603 H 1455.12 -1.70941 5.47222 0
M  V30 15604 H 1453.52 -1.0494 5.90853 0
M  V30 15605 H 1454.59 -0.115273 4.84763 0
M  V30 15606 N 1455.93 -1.56509 -0.185096 0
M  V30 15607 C 1457.15 -1.85683 -0.923941 0
M  V30 15608 C 1457.58 -0.673315 -1.75636 0
M  V30 15609 O 1456.94 0.3778 -1.7732 0
M  V30 15610 C 1456.98 -3.13165 -1.78774 0
M  V30 15611 O 1456.09 -2.9442 -2.88775 0
M  V30 15612 H 1455.43 -0.611139 -0.259624 0
M  V30 15613 H 1457.96 -2.0374 -0.187393 0
M  V30 15614 H 1457.97 -3.44216 -2.19042 0
M  V30 15615 H 1456.64 -3.98922 -1.17619 0
M  V30 15616 H 1455.22 -2.7469 -2.5219 0
M  V30 15617 N 1457.41 0.45317 -1.50944 0
M  V30 15618 C 1458.65 1.20151 -1.62506 0
M  V30 15619 C 1458.98 1.92085 -0.335927 0
M  V30 15620 O 1458.25 1.84889 0.64751 0
M  V30 15621 H 1456.83 0.446502 -0.59887 0
M  V30 15622 H 1459.49 0.521103 -1.87804 0
M  V30 15623 H 1458.58 1.93972 -2.44502 0
M  V30 15624 N 1458.88 1.40823 0.707568 0
M  V30 15625 C 1459.83 1.41724 1.82162 0
M  V30 15626 C 1460.8 0.273135 1.63839 0
M  V30 15627 O 1461.99 0.472399 1.84859 0
M  V30 15628 C 1459.13 1.29347 3.19943 0
M  V30 15629 C 1458.24 2.53529 3.49782 0
M  V30 15630 C 1457.37 2.33533 4.77112 0
M  V30 15631 C 1456.41 3.53252 4.9988 0
M  V30 15632 N 1455.55 3.32401 6.18429 0
M  V30 15633 H 1460.39 2.36943 1.80726 0
M  V30 15634 H 1457.93 1.17671 0.882723 0
M  V30 15635 H 1459.89 1.20175 3.99517 0
M  V30 15636 H 1458.52 0.377426 3.20586 0
M  V30 15637 H 1457.57 2.73198 2.64702 0
M  V30 15638 H 1458.88 3.42617 3.62512 0
M  V30 15639 H 1458.03 2.2176 5.64719 0
M  V30 15640 H 1456.77 1.41883 4.66605 0
M  V30 15641 H 1455.78 3.65492 4.10725 0
M  V30 15642 H 1457 4.4584 5.12253 0
M  V30 15643 H 1454.95 2.4344 6.09158 0
M  V30 15644 H 1454.87 4.15059 6.31872 0
M  V30 15645 H 1456.13 3.24377 7.08802 0
M  V30 15646 N 1460.36 -0.94061 1.26453 0
M  V30 15647 C 1461.61 -1.68687 1.12031 0
M  V30 15648 C 1461.94 -1.91571 -0.336252 0
M  V30 15649 O 1461.19 -1.49458 -1.26336 0
M  V30 15650 C 1461.49 -3.06683 1.83521 0
M  V30 15651 C 1461.16 -3.03553 3.33416 0
M  V30 15652 C 1459.82 -3.02407 3.74304 0
M  V30 15653 C 1462.17 -2.95817 4.29118 0
M  V30 15654 C 1459.5 -2.9129 5.09281 0
M  V30 15655 C 1461.85 -2.86242 5.64135 0
M  V30 15656 C 1460.52 -2.83438 6.04333 0
M  V30 15657 H 1459.79 -0.61727 0.40995 0
M  V30 15658 H 1462.43 -1.0979 1.56902 0
M  V30 15659 H 1460.74 -3.69208 1.31121 0
M  V30 15660 H 1462.43 -3.63274 1.69802 0
M  V30 15661 H 1459.02 -3.05226 3.00891 0
M  V30 15662 H 1463.21 -2.9581 3.9851 0
M  V30 15663 H 1458.46 -2.87498 5.39588 0
M  V30 15664 H 1462.64 -2.79219 6.37973 0
M  V30 15665 H 1460.27 -2.74581 7.08879 0
M  V30 15666 N 1461.84 -1.08266 -1.14527 0
M  V30 15667 C 1462.79 -0.711332 -2.19565 0
M  V30 15668 C 1463.76 0.301774 -1.63336 0
M  V30 15669 O 1464.94 0.186109 -1.8989 0
M  V30 15670 C 1462.08 -0.125255 -3.44873 0
M  V30 15671 C 1461.2 -1.19096 -4.15259 0
M  V30 15672 C 1460.33 -0.568901 -5.28145 0
M  V30 15673 C 1459.37 -1.61675 -5.90362 0
M  V30 15674 N 1458.51 -1.01659 -6.94701 0
M  V30 15675 H 1463.35 -1.61137 -2.50677 0
M  V30 15676 H 1460.88 -0.805286 -1.231 0
M  V30 15677 H 1462.84 0.232247 -4.16553 0
M  V30 15678 H 1461.47 0.738101 -3.14248 0
M  V30 15679 H 1460.52 -1.66591 -3.41982 0
M  V30 15680 H 1461.84 -1.98508 -4.57598 0
M  V30 15681 H 1460.99 -0.159563 -6.0649 0
M  V30 15682 H 1459.73 0.256884 -4.87023 0
M  V30 15683 H 1458.73 -2.03576 -5.10722 0
M  V30 15684 H 1459.96 -2.44498 -6.33559 0
M  V30 15685 H 1457.9 -0.211872 -6.55658 0
M  V30 15686 H 1457.82 -1.74781 -7.35518 0
M  V30 15687 H 1459.09 -0.63306 -7.76925 0
M  V30 15688 N 1463.32 1.31536 -0.86811 0
M  V30 15689 C 1464.28 2.26849 -0.327456 0
M  V30 15690 C 1465.28 1.52142 0.520514 0
M  V30 15691 O 1466.47 1.71044 0.330088 0
M  V30 15692 C 1463.6 3.36673 0.535174 0
M  V30 15693 H 1464.8 2.76184 -1.16886 0
M  V30 15694 H 1462.35 1.42437 -0.643545 0
M  V30 15695 H 1463.09 2.92627 1.39785 0
M  V30 15696 H 1462.87 3.92034 -0.0719835 0
M  V30 15697 H 1464.36 4.07658 0.905786 0
M  V30 15698 N 1464.8 0.627364 1.44575 0
M  V30 15699 C 1466.07 0.0614392 1.95503 0
M  V30 15700 C 1466.45 -1.41182 1.56942 0
M  V30 15701 O 1465.8 -2.12435 0.841634 0
M  V30 15702 C 1466.01 0.280349 3.47872 0
M  V30 15703 C 1467.36 0.171559 4.24253 0
M  V30 15704 O 1468.38 0.211515 3.55571 0
M  V30 15705 O 1467.24 0.0733152 5.46451 0
M  V30 15706 H 1464.34 -0.0244626 0.826638 0
M  V30 15707 H 1466.88 0.698805 1.54644 0
M  V30 15708 H 1465.66 1.30278 3.68976 0
M  V30 15709 H 1465.28 -0.391336 3.95669 0
M  V30 15710 N 1466.28 -1.53251 0.367684 0
M  V30 15711 C 1467.22 -2.258 -0.477802 0
M  V30 15712 C 1468.19 -1.26554 -1.07579 0
M  V30 15713 O 1469.38 -1.5534 -1.10788 0
M  V30 15714 C 1466.52 -3.05216 -1.6105 0
M  V30 15715 C 1465.63 -4.19357 -1.03748 0
M  V30 15716 C 1464.77 -4.86211 -2.13945 0
M  V30 15717 C 1463.8 -5.9238 -1.5412 0
M  V30 15718 N 1462.94 -6.52916 -2.58158 0
M  V30 15719 H 1467.78 -2.97635 0.147367 0
M  V30 15720 H 1465.32 -1.46857 0.084495 0
M  V30 15721 H 1467.28 -3.49536 -2.27772 0
M  V30 15722 H 1465.91 -2.35632 -2.20629 0
M  V30 15723 H 1464.96 -3.79507 -0.260476 0
M  V30 15724 H 1466.27 -4.95645 -0.560105 0
M  V30 15725 H 1465.42 -5.33725 -2.88483 0
M  V30 15726 H 1464.16 -4.09399 -2.65035 0
M  V30 15727 H 1463.17 -5.44225 -0.780968 0
M  V30 15728 H 1464.39 -6.71112 -1.03852 0
M  V30 15729 H 1462.34 -5.78956 -3.08457 0
M  V30 15730 H 1462.26 -7.2475 -2.15113 0
M  V30 15731 H 1463.52 -7.05079 -3.32392 0
M  V30 15732 N 1467.75 -0.0969077 -1.57302 0
M  V30 15733 C 1469.16 0.431942 -1.81635 0
M  V30 15734 C 1469.52 1.68047 -1.01264 0
M  V30 15735 O 1468.64 2.15036 -0.24256 0
M  V30 15736 C 1469.24 0.790426 -3.29451 0
M  V30 15737 C 1467.79 1.26401 -3.54542 0
M  V30 15738 C 1466.94 0.26158 -2.76063 0
M  V30 15739 H 1469.89 -0.322328 -1.55392 0
M  V30 15740 H 1469.91 1.64981 -3.42873 0
M  V30 15741 H 1469.43 -0.118463 -3.87919 0
M  V30 15742 H 1467.53 2.19055 -3.01406 0
M  V30 15743 H 1467.64 1.22459 -4.63185 0
M  V30 15744 H 1466 0.7441 -2.43588 0
M  V30 15745 H 1466.79 -0.640018 -3.37281 0
M  V30 15746 N 1469.23 1.56605 0.176793 0
M  V30 15747 C 1470.48 1.81324 0.892535 0
M  V30 15748 C 1470.8 0.67301 1.83018 0
M  V30 15749 O 1470.07 -0.307498 1.93472 0
M  V30 15750 H 1468.65 0.668881 0.332576 0
M  V30 15751 H 1471.31 1.94086 0.17792 0
M  V30 15752 H 1470.41 2.75168 1.47272 0
M  V30 15753 N 1470.71 -0.445159 1.51182 0
M  V30 15754 C 1472.13 -0.781023 1.39184 0
M  V30 15755 C 1472.33 -1.95988 0.468076 0
M  V30 15756 O 1471.38 -2.52374 -0.0796822 0
M  V30 15757 C 1472.69 -1.06874 2.81067 0
M  V30 15758 C 1474.24 -1.17364 2.90163 0
M  V30 15759 C 1474.72 -1.49433 4.32936 0
M  V30 15760 N 1476.21 -1.56373 4.36006 0
M  V30 15761 C 1476.94 -1.82743 5.435 0
M  V30 15762 N 1476.44 -2.06958 6.61166 0
M  V30 15763 N 1478.23 -1.84461 5.30971 0
M  V30 15764 H 1470.38 0.331347 2.098 0
M  V30 15765 H 1472.65 0.0858102 0.944108 0
M  V30 15766 H 1472.35 -0.275306 3.50621 0
M  V30 15767 H 1472.23 -1.99839 3.19913 0
M  V30 15768 H 1474.61 -1.95771 2.20812 0
M  V30 15769 H 1474.69 -0.22318 2.54825 0
M  V30 15770 H 1474.34 -0.715573 5.02834 0
M  V30 15771 H 1474.27 -2.45673 4.65782 0
M  V30 15772 H 1476.76 -1.39595 3.51172 0
M  V30 15773 H 1477.07 -2.26427 7.38885 0
M  V30 15774 H 1475.42 -2.04297 6.64295 0
M  V30 15775 H 1478.61 -1.65057 4.38034 0
M  V30 15776 H 1478.78 -2.04675 6.14827 0
M  V30 15777 N 1472.19 -1.41197 -0.700089 0
M  V30 15778 C 1473.42 -1.43449 -1.4868 0
M  V30 15779 C 1473.83 -0.0368799 -1.89164 0
M  V30 15780 O 1473.17 0.953129 -1.57039 0
M  V30 15781 C 1473.23 -2.27583 -2.78291 0
M  V30 15782 C 1472.89 -3.75805 -2.60038 0
M  V30 15783 C 1473.89 -4.68074 -2.2628 0
M  V30 15784 C 1471.58 -4.19796 -2.75819 0
M  V30 15785 C 1473.57 -6.02322 -2.08535 0
M  V30 15786 C 1471.26 -5.5411 -2.57692 0
M  V30 15787 C 1472.26 -6.45189 -2.24099 0
M  V30 15788 O 1471.94 -7.77025 -2.06125 0
M  V30 15789 H 1471.68 -0.490779 -0.464879 0
M  V30 15790 H 1474.23 -1.86071 -0.869864 0
M  V30 15791 H 1472.46 -1.79767 -3.42375 0
M  V30 15792 H 1474.15 -2.21591 -3.40077 0
M  V30 15793 H 1474.91 -4.35379 -2.13707 0
M  V30 15794 H 1470.79 -3.49213 -3.0095 0
M  V30 15795 H 1474.34 -6.73376 -1.82238 0
M  V30 15796 H 1470.23 -5.86386 -2.69854 0
M  V30 15797 H 1471 -7.88121 -2.20924 0
M  V30 15798 N 1473.67 0.933891 -1.2695 0
M  V30 15799 C 1474.9 1.71263 -1.15553 0
M  V30 15800 C 1475.3 1.86948 0.291059 0
M  V30 15801 O 1474.65 1.38173 1.21053 0
M  V30 15802 C 1474.71 3.13479 -1.75986 0
M  V30 15803 C 1474.37 3.21154 -3.2513 0
M  V30 15804 C 1475.37 3.03874 -4.21849 0
M  V30 15805 C 1473.05 3.44311 -3.65726 0
M  V30 15806 C 1475.05 3.09631 -5.57142 0
M  V30 15807 C 1472.74 3.49702 -5.01151 0
M  V30 15808 C 1473.73 3.32379 -5.96668 0
M  V30 15809 O 1473.42 3.37493 -7.29626 0
M  V30 15810 H 1473.15 0.542801 -0.402918 0
M  V30 15811 H 1475.71 1.17877 -1.68209 0
M  V30 15812 H 1473.94 3.6832 -1.178 0
M  V30 15813 H 1475.63 3.73295 -1.59391 0
M  V30 15814 H 1476.39 2.85832 -3.91823 0
M  V30 15815 H 1472.27 3.56847 -2.91859 0
M  V30 15816 H 1475.82 2.96028 -6.31675 0
M  V30 15817 H 1471.71 3.67267 -5.30835 0
M  V30 15818 H 1472.48 3.53988 -7.37994 0
M  V30 15819 N 1475.14 1.08871 1.13951 0
M  V30 15820 C 1476.39 0.816198 1.84448 0
M  V30 15821 C 1476.71 -0.660396 1.84114 0
M  V30 15822 O 1477.91 -1.04825 2.50448 0
M  V30 15823 C 1476.37 1.41015 3.31123 0
M  V30 15824 C 1475.98 2.91888 3.39861 0
M  V30 15825 C 1477.72 1.21633 4.06701 0
M  V30 15826 C 1475.63 3.44397 4.80775 0
M  V30 15827 H 1474.56 0.301662 0.691025 0
M  V30 15828 H 1477.21 1.31072 1.28423 0
M  V30 15829 H 1475.59 0.843333 3.86916 0
M  V30 15830 H 1476.76 3.54747 2.94094 0
M  V30 15831 H 1475.08 3.10238 2.77743 0
M  V30 15832 H 1477.68 1.58324 5.10723 0
M  V30 15833 H 1478.02 0.156519 4.16006 0
M  V30 15834 H 1478.55 1.75035 3.57222 0
M  V30 15835 H 1475.29 4.49973 4.7666 0
M  V30 15836 H 1474.81 2.86299 5.27061 0
M  V30 15837 H 1476.49 3.41266 5.49679 0
M  V30 15838 N 1476.62 -1.31073 0.875073 0
M  V30 15839 C 1477.57 -2.25936 0.306104 0
M  V30 15840 C 1478.56 -1.50848 -0.559782 0
M  V30 15841 O 1479.75 -1.72285 -0.405824 0
M  V30 15842 C 1476.88 -3.39828 -0.486995 0
M  V30 15843 C 1475.96 -4.22281 0.392421 0
M  V30 15844 N 1476.35 -4.83409 1.48828 0
M  V30 15845 C 1474.65 -4.45613 0.185762 0
M  V30 15846 C 1475.35 -5.45092 2.031 0
M  V30 15847 N 1474.33 -5.27147 1.3273 0
M  V30 15848 H 1478.13 -2.70738 1.14359 0
M  V30 15849 H 1475.64 -1.45399 0.72339 0
M  V30 15850 H 1477.64 -4.06821 -0.911171 0
M  V30 15851 H 1476.3 -2.96568 -1.32203 0
M  V30 15852 H 1477.31 -4.82915 1.87118 0
M  V30 15853 H 1473.99 -4.12977 -0.61291 0
M  V30 15854 H 1475.38 -6.03641 2.95071 0
M  V30 15855 N 1478.1 -0.635022 -1.4424 0
M  V30 15856 C 1479.03 0.0543561 -2.33437 0
M  V30 15857 C 1480.01 0.830807 -1.48431 0
M  V30 15858 O 1481.2 0.795913 -1.77141 0
M  V30 15859 C 1478.33 1.03391 -3.31553 0
M  V30 15860 C 1477.28 0.368824 -4.26408 0
M  V30 15861 C 1476.61 1.45855 -5.14422 0
M  V30 15862 C 1477.91 -0.727381 -5.1721 0
M  V30 15863 H 1479.6 -0.690489 -2.91329 0
M  V30 15864 H 1477.15 -0.3335 -1.40085 0
M  V30 15865 H 1479.1 1.52495 -3.9284 0
M  V30 15866 H 1477.82 1.80969 -2.71878 0
M  V30 15867 H 1476.48 -0.101605 -3.66459 0
M  V30 15868 H 1476.13 2.22531 -4.51098 0
M  V30 15869 H 1475.83 1.0189 -5.78699 0
M  V30 15870 H 1477.35 1.95132 -5.78581 0
M  V30 15871 H 1478.77 -0.319272 -5.7241 0
M  V30 15872 H 1477.17 -1.09041 -5.9011 0
M  V30 15873 H 1478.24 -1.59292 -4.57989 0
M  V30 15874 N 1479.58 1.53054 -0.375806 0
M  V30 15875 C 1480.81 2.05521 0.210828 0
M  V30 15876 C 1481.22 1.24837 1.4217 0
M  V30 15877 O 1480.56 0.284634 1.81481 0
M  V30 15878 C 1480.62 3.53417 0.658548 0
M  V30 15879 C 1480.29 4.54906 -0.437025 0
M  V30 15880 C 1481.28 5.03638 -1.29016 0
M  V30 15881 C 1478.97 4.98701 -0.600194 0
M  V30 15882 C 1480.96 5.94777 -2.29171 0
M  V30 15883 C 1478.65 5.89644 -1.6051 0
M  V30 15884 C 1479.65 6.37573 -2.44929 0
M  V30 15885 O 1479.33 7.26721 -3.43703 0
M  V30 15886 H 1479.07 0.674893 0.0386627 0
M  V30 15887 H 1481.62 1.98296 -0.535534 0
M  V30 15888 H 1479.85 3.58215 1.45667 0
M  V30 15889 H 1481.54 3.88692 1.16933 0
M  V30 15890 H 1482.31 4.70543 -1.17534 0
M  V30 15891 H 1478.18 4.60976 0.0471346 0
M  V30 15892 H 1481.73 6.3211 -2.95099 0
M  V30 15893 H 1477.63 6.22153 -1.72035 0
M  V30 15894 H 1478.39 7.44746 -3.39553 0
M  V30 15895 N 1481.06 0.105248 1.57248 0
M  V30 15896 C 1481.99 -0.886904 2.1026 0
M  V30 15897 C 1482.97 -1.26981 1.01561 0
M  V30 15898 O 1484.15 -1.37327 1.29126 0
M  V30 15899 C 1481.28 -2.18499 2.58797 0
M  V30 15900 C 1480.32 -1.95119 3.79251 0
M  V30 15901 S 1481.16 -1.17995 5.22338 0
M  V30 15902 C 1482.31 -2.49012 5.74233 0
M  V30 15903 H 1482.55 -0.435954 2.94086 0
M  V30 15904 H 1480.08 -0.108251 1.5402 0
M  V30 15905 H 1482.04 -2.93089 2.87418 0
M  V30 15906 H 1480.7 -2.60714 1.75178 0
M  V30 15907 H 1479.89 -2.91268 4.11314 0
M  V30 15908 H 1479.49 -1.28654 3.51175 0
M  V30 15909 H 1481.79 -3.44932 5.83119 0
M  V30 15910 H 1482.73 -2.21513 6.7256 0
M  V30 15911 H 1483.14 -2.5775 5.0222 0
M  V30 15912 N 1482.53 -1.56697 -0.168486 0
M  V30 15913 C 1483.78 -1.82154 -0.884654 0
M  V30 15914 C 1484.11 -0.682778 -1.82122 0
M  V30 15915 O 1483.36 0.32977 -1.92902 0
M  V30 15916 C 1483.66 -3.138 -1.71068 0
M  V30 15917 C 1483.33 -4.41356 -0.922793 0
M  V30 15918 C 1481.99 -4.76002 -0.705352 0
M  V30 15919 C 1484.34 -5.19883 -0.370323 0
M  V30 15920 C 1481.67 -5.86651 0.0756121 0
M  V30 15921 C 1484.02 -6.31349 0.397568 0
M  V30 15922 C 1482.69 -6.6456 0.625782 0
M  V30 15923 H 1481.96 -0.666549 -0.323718 0
M  V30 15924 H 1484.6 -1.90916 -0.149432 0
M  V30 15925 H 1482.91 -3.00393 -2.51538 0
M  V30 15926 H 1484.61 -3.30708 -2.2679 0
M  V30 15927 H 1481.2 -4.14182 -1.10231 0
M  V30 15928 H 1485.38 -4.93509 -0.525646 0
M  V30 15929 H 1480.64 -6.10838 0.262137 0
M  V30 15930 H 1484.81 -6.91401 0.832902 0
M  V30 15931 H 1482.44 -7.50137 1.23281 0
M  V30 15932 N 1484.01 0.437135 -1.51416 0
M  V30 15933 C 1484.96 1.55124 -1.73319 0
M  V30 15934 C 1485.95 1.58437 -0.599511 0
M  V30 15935 O 1487.16 1.62179 -0.780896 0
M  V30 15936 H 1483.54 0.515368 -0.547632 0
M  V30 15937 H 1485.51 1.33824 -2.66709 0
M  V30 15938 C 1484.26 2.92778 -1.87554 0
M  V30 15939 H 1483.58 2.9096 -2.74194 0
M  V30 15940 H 1485.02 3.70097 -2.06891 0
M  V30 15941 C 1483.48 3.30854 -0.635408 0
M  V30 15942 O 1484.01 4.01152 0.20983 0
M  V30 15943 N 1482.21 2.86618 -0.47944 0
M  V30 15944 H 1481.76 2.29582 -1.16834 0
M  V30 15945 H 1481.72 3.12456 0.349078 0
M  V30 15946 N 1485.49 1.41566 0.692592 0
M  V30 15947 C 1486.74 1.40805 1.44978 0
M  V30 15948 C 1487.06 0.0191039 1.94991 0
M  V30 15949 O 1486.33 -0.939544 1.71899 0
M  V30 15950 H 1484.91 0.518293 0.537942 0
M  V30 15951 H 1487.57 1.76831 0.81956 0
M  V30 15952 H 1486.67 2.09706 2.31149 0
M  V30 15953 N 1486.97 -0.927146 1.27443 0
M  V30 15954 C 1488.19 -1.71426 1.16739 0
M  V30 15955 C 1488.62 -1.86122 -0.272063 0
M  V30 15956 O 1487.98 -1.36165 -1.19703 0
M  V30 15957 C 1488.02 -3.09131 1.85661 0
M  V30 15958 O 1487.13 -3.95897 1.15495 0
M  V30 15959 H 1486.47 -0.525428 0.405983 0
M  V30 15960 H 1489 -1.16022 1.68523 0
M  V30 15961 H 1489.01 -3.59442 1.93042 0
M  V30 15962 H 1487.68 -2.97752 2.90373 0
M  V30 15963 H 1486.26 -3.54337 1.16187 0
M  V30 15964 N 1488.45 -1.09474 -1.13372 0
M  V30 15965 C 1489.68 -0.851685 -1.88228 0
M  V30 15966 C 1490.08 0.600707 -1.79411 0
M  V30 15967 O 1489.43 1.42527 -1.15895 0
M  V30 15968 C 1489.49 -1.20874 -3.3857 0
M  V30 15969 C 1489.15 -2.66614 -3.71168 0
M  V30 15970 C 1490.15 -3.64862 -3.70367 0
M  V30 15971 C 1487.84 -3.02748 -4.0081 0
M  V30 15972 C 1489.83 -4.97269 -3.98751 0
M  V30 15973 C 1487.52 -4.35347 -4.28855 0
M  V30 15974 C 1488.51 -5.32417 -4.2781 0
M  V30 15975 O 1488.2 -6.6263 -4.55167 0
M  V30 15976 H 1487.93 -0.306097 -0.602728 0
M  V30 15977 H 1490.49 -1.46038 -1.44437 0
M  V30 15978 H 1488.72 -0.543096 -3.82867 0
M  V30 15979 H 1490.41 -0.944753 -3.94752 0
M  V30 15980 H 1491.17 -3.3829 -3.47541 0
M  V30 15981 H 1487.05 -2.27824 -4.00771 0
M  V30 15982 H 1490.6 -5.73028 -3.9785 0
M  V30 15983 H 1486.49 -4.61661 -4.51153 0
M  V30 15984 H 1487.26 -6.6811 -4.72833 0
M  V30 15985 N 1489.92 1.30607 -0.882012 0
M  V30 15986 C 1490.86 2.26334 -0.291222 0
M  V30 15987 C 1491.84 1.51653 0.586522 0
M  V30 15988 O 1493.02 1.80681 0.537275 0
M  V30 15989 C 1490.15 3.33584 0.586482 0
M  V30 15990 C 1489.19 4.25924 -0.221535 0
M  V30 15991 S 1490.03 5.10791 -1.6079 0
M  V30 15992 C 1491.18 6.2155 -0.736638 0
M  V30 15993 H 1491.41 2.76096 -1.10265 0
M  V30 15994 H 1488.95 1.38558 -0.681255 0
M  V30 15995 H 1490.91 3.95842 1.08715 0
M  V30 15996 H 1489.57 2.82552 1.37198 0
M  V30 15997 H 1488.76 5.02004 0.448139 0
M  V30 15998 H 1488.36 3.68225 -0.654722 0
M  V30 15999 H 1490.65 6.77483 0.0476549 0
M  V30 16000 H 1491.6 6.92696 -1.46894 0
M  V30 16001 H 1492 5.63708 -0.298853 0
M  V30 16002 N 1491.4 0.642663 1.43901 0
M  V30 16003 C 1492.81 0.232809 1.85243 0
M  V30 16004 C 1493.16 -1.21834 1.53789 0
M  V30 16005 O 1492.29 -1.92855 0.981625 0
M  V30 16006 C 1492.88 0.415749 3.36239 0
M  V30 16007 C 1491.44 0.0603055 3.76352 0
M  V30 16008 C 1490.59 0.723658 2.67691 0
M  V30 16009 H 1493.54 0.847052 1.34204 0
M  V30 16010 H 1493.56 -0.341903 3.78961 0
M  V30 16011 H 1493.07 1.472 3.59101 0
M  V30 16012 H 1491.18 -0.993761 3.59103 0
M  V30 16013 H 1491.29 0.478408 4.76705 0
M  V30 16014 H 1489.65 0.15787 2.5421 0
M  V30 16015 H 1490.44 1.78273 2.93383 0
M  V30 16016 N 1492.88 -1.52852 0.383918 0
M  V30 16017 C 1494.11 -2.0563 -0.199926 0
M  V30 16018 C 1494.52 -1.25589 -1.41506 0
M  V30 16019 O 1493.86 -0.294254 -1.81328 0
M  V30 16020 C 1493.92 -3.53761 -0.639796 0
M  V30 16021 C 1493.59 -4.54667 0.461143 0
M  V30 16022 C 1494.59 -5.02946 1.31685 0
M  V30 16023 C 1492.27 -4.98376 0.626633 0
M  V30 16024 C 1494.26 -5.93553 2.32322 0
M  V30 16025 C 1491.95 -5.88784 1.63635 0
M  V30 16026 C 1492.95 -6.36265 2.48306 0
M  V30 16027 O 1492.64 -7.24888 3.47553 0
M  V30 16028 H 1492.37 -0.675089 -0.0350831 0
M  V30 16029 H 1494.92 -1.98009 0.546042 0
M  V30 16030 H 1493.15 -3.58982 -1.43766 0
M  V30 16031 H 1494.84 -3.89307 -1.1487 0
M  V30 16032 H 1495.61 -4.69913 1.20028 0
M  V30 16033 H 1491.49 -4.60994 -0.0226873 0
M  V30 16034 H 1495.03 -6.30536 2.98447 0
M  V30 16035 H 1490.93 -6.21232 1.75332 0
M  V30 16036 H 1491.7 -7.42934 3.43498 0
M  V30 16037 N 1494.36 -0.113586 -1.5719 0
M  V30 16038 C 1495.78 0.243023 -1.57739 0
M  V30 16039 C 1495.98 1.67105 -1.12597 0
M  V30 16040 O 1495.03 2.39126 -0.810874 0
M  V30 16041 C 1496.34 0.014629 -3.00696 0
M  V30 16042 C 1497.89 0.0809485 -3.12895 0
M  V30 16043 C 1498.37 -0.119685 -4.57844 0
M  V30 16044 N 1499.86 -0.0654711 -4.63154 0
M  V30 16045 C 1500.59 -0.195692 -5.73066 0
M  V30 16046 N 1500.09 -0.381782 -6.91747 0
M  V30 16047 N 1501.88 -0.13565 -5.61936 0
M  V30 16048 H 1494.03 -1.04639 -1.84836 0
M  V30 16049 H 1496.3 -0.411609 -0.85398 0
M  V30 16050 H 1496 -0.972399 -3.3799 0
M  V30 16051 H 1495.88 0.748882 -3.69691 0
M  V30 16052 H 1498.26 1.0585 -2.75463 0
M  V30 16053 H 1498.34 -0.685097 -2.46455 0
M  V30 16054 H 1497.99 -1.09418 -4.95974 0
M  V30 16055 H 1497.92 0.666281 -5.22368 0
M  V30 16056 H 1500.41 0.0750649 -3.77825 0
M  V30 16057 H 1500.72 -0.472157 -7.71356 0
M  V30 16058 H 1499.07 -0.417686 -6.93744 0
M  V30 16059 H 1502.26 0.0087301 -4.68099 0
M  V30 16060 H 1502.43 -0.240579 -6.47553 0
M  V30 16061 N 1495.84 1.56784 0.160173 0
M  V30 16062 C 1497.09 1.81812 0.873344 0
M  V30 16063 C 1497.4 0.692686 1.82924 0
M  V30 16064 O 1498.61 0.828202 2.5856 0
M  V30 16065 C 1497.06 3.222 1.6036 0
M  V30 16066 C 1496.67 4.42642 0.690776 0
M  V30 16067 C 1498.41 3.56512 2.30433 0
M  V30 16068 C 1496.32 5.74052 1.4219 0
M  V30 16069 H 1495.25 0.678013 0.32987 0
M  V30 16070 H 1497.9 1.83066 0.126164 0
M  V30 16071 H 1496.28 3.15295 2.39593 0
M  V30 16072 H 1497.46 4.60754 -0.0653914 0
M  V30 16073 H 1495.77 4.16282 0.09913 0
M  V30 16074 H 1498.37 4.51942 2.85749 0
M  V30 16075 H 1498.71 2.8193 3.06303 0
M  V30 16076 H 1499.25 3.65019 1.58132 0
M  V30 16077 H 1495.98 6.51694 0.705318 0
M  V30 16078 H 1495.5 5.59899 2.15111 0
M  V30 16079 H 1497.18 6.16395 1.96639 0
M  V30 16080 N 1497.32 -0.429099 1.51646 0
M  V30 16081 C 1498.26 -1.54202 1.74139 0
M  V30 16082 C 1499.26 -1.58117 0.607905 0
M  V30 16083 O 1500.46 -1.61763 0.789486 0
M  V30 16084 H 1496.84 -0.512456 0.550357 0
M  V30 16085 H 1498.81 -1.32408 2.67415 0
M  V30 16086 C 1497.56 -2.91779 1.89104 0
M  V30 16087 H 1496.88 -2.89502 2.75733 0
M  V30 16088 H 1498.32 -3.68995 2.08851 0
M  V30 16089 C 1496.78 -3.30512 0.652945 0
M  V30 16090 O 1497.31 -4.01257 -0.188553 0
M  V30 16091 N 1495.52 -2.86359 0.494634 0
M  V30 16092 H 1495.06 -2.28959 1.18049 0
M  V30 16093 H 1495.02 -3.12637 -0.332503 0
M  V30 16094 N 1498.79 -1.41931 -0.685074 0
M  V30 16095 C 1500.04 -1.41147 -1.44085 0
M  V30 16096 C 1500.36 -0.0275793 -1.95581 0
M  V30 16097 O 1501.56 0.102873 -2.71305 0
M  V30 16098 C 1500.02 -2.4823 -2.60596 0
M  V30 16099 C 1499.63 -3.92576 -2.15842 0
M  V30 16100 C 1501.37 -2.56597 -3.38169 0
M  V30 16101 C 1499.28 -4.91189 -3.29374 0
M  V30 16102 H 1498.21 -0.52494 -0.541252 0
M  V30 16103 H 1500.86 -1.67798 -0.7427 0
M  V30 16104 H 1499.24 -2.14727 -3.32729 0
M  V30 16105 H 1500.41 -4.35381 -1.50929 0
M  V30 16106 H 1498.73 -3.87965 -1.51235 0
M  V30 16107 H 1501.33 -3.27453 -4.22704 0
M  V30 16108 H 1501.67 -1.60618 -3.84067 0
M  V30 16109 H 1502.2 -2.89244 -2.73099 0
M  V30 16110 H 1498.94 -5.88609 -2.88477 0
M  V30 16111 H 1498.46 -4.53024 -3.93102 0
M  V30 16112 H 1500.14 -5.12433 -3.94996 0
M  V30 16113 N 1500.27 0.920374 -1.27933 0
M  V30 16114 C 1501.18 2.05525 -1.13123 0
M  V30 16115 C 1502.2 1.73899 -0.059421 0
M  V30 16116 O 1503.37 1.99617 -0.267386 0
M  V30 16117 C 1500.44 3.37637 -0.787551 0
M  V30 16118 C 1499.5 3.82914 -1.94101 0
M  V30 16119 C 1498.73 5.08721 -1.61364 0
M  V30 16120 O 1498.96 5.6798 -0.524918 0
M  V30 16121 O 1497.89 5.4955 -2.45517 0
M  V30 16122 H 1501.72 2.20935 -2.08378 0
M  V30 16123 H 1499.3 1.04071 -1.07189 0
M  V30 16124 H 1501.18 4.16968 -0.609544 0
M  V30 16125 H 1499.86 3.23417 0.135407 0
M  V30 16126 H 1498.76 3.04438 -2.17413 0
M  V30 16127 H 1500.1 4.01687 -2.84444 0
M  V30 16128 N 1501.75 1.10074 1.1279 0
M  V30 16129 C 1503 0.839212 1.83852 0
M  V30 16130 C 1503.32 -0.637023 1.84301 0
M  V30 16131 O 1502.59 -1.46239 1.30349 0
M  V30 16132 H 1501.17 0.307468 0.680788 0
M  V30 16133 H 1503.83 1.39025 1.36595 0
M  V30 16134 H 1502.93 1.19872 2.88162 0
M  V30 16135 N 1503.23 -1.30138 0.888926 0
M  V30 16136 C 1504.45 -2.00679 0.523697 0
M  V30 16137 C 1504.88 -1.66167 -0.881479 0
M  V30 16138 O 1504.24 -0.880418 -1.58488 0
M  V30 16139 C 1504.28 -3.53535 0.710284 0
M  V30 16140 O 1503.39 -4.11689 -0.242066 0
M  V30 16141 H 1502.73 -0.631273 0.205888 0
M  V30 16142 H 1505.26 -1.65891 1.19756 0
M  V30 16143 H 1505.27 -4.03402 0.610794 0
M  V30 16144 H 1503.94 -3.77992 1.73478 0
M  V30 16145 H 1502.52 -3.72777 -0.0959393 0
M  V30 16146 N 1504.71 -0.650285 -1.43559 0
M  V30 16147 C 1505.95 -0.162725 -2.02146 0
M  V30 16148 C 1506.28 1.21911 -1.51166 0
M  V30 16149 O 1505.56 1.81329 -0.703563 0
M  V30 16150 C 1505.84 -0.170356 -3.59697 0
M  V30 16151 C 1505.7 -1.5859 -4.20915 0
M  V30 16152 C 1507.01 0.494831 -4.37309 0
M  V30 16153 H 1504.13 -0.0606055 -0.734504 0
M  V30 16154 H 1506.78 -0.830411 -1.70892 0
M  V30 16155 H 1504.93 0.39819 -3.86454 0
M  V30 16156 H 1506.6 -2.20481 -4.05199 0
M  V30 16157 H 1504.84 -2.13407 -3.77677 0
M  V30 16158 H 1505.51 -1.54312 -5.29992 0
M  V30 16159 H 1507.99 0.0111281 -4.16099 0
M  V30 16160 H 1506.86 0.458753 -5.4698 0
M  V30 16161 H 1507.12 1.56846 -4.13342 0
M  V30 16162 N 1506.18 1.52647 -0.392018 0
M  V30 16163 C 1507.43 2.01215 0.188926 0
M  V30 16164 C 1507.75 1.28019 1.47092 0
M  V30 16165 O 1507.02 0.401048 1.91751 0
M  V30 16166 H 1505.6 0.743444 0.0728049 0
M  V30 16167 H 1508.26 1.87715 -0.524332 0
M  V30 16168 H 1507.36 3.09562 0.397216 0
M  V30 16169 N 1507.66 0.121921 1.57128 0
M  V30 16170 C 1509.08 -0.234655 1.57866 0
M  V30 16171 C 1509.28 -1.66506 1.13482 0
M  V30 16172 O 1508.33 -2.38692 0.823544 0
M  V30 16173 C 1509.65 0.00131784 3.007 0
M  V30 16174 C 1511.2 -0.0643537 3.12934 0
M  V30 16175 C 1511.67 0.143964 4.57774 0
M  V30 16176 N 1513.16 0.0900323 4.63112 0
M  V30 16177 C 1513.9 0.22608 5.72954 0
M  V30 16178 N 1513.39 0.418461 6.91535 0
M  V30 16179 N 1515.19 0.165449 5.61856 0
M  V30 16180 H 1507.34 1.05618 1.84279 0
M  V30 16181 H 1509.6 0.416132 0.851785 0
M  V30 16182 H 1509.31 0.99031 3.3747 0
M  V30 16183 H 1509.18 -0.729266 3.70083 0
M  V30 16184 H 1511.57 -1.04387 2.7602 0
M  V30 16185 H 1511.65 0.698157 2.46088 0
M  V30 16186 H 1511.29 1.12047 4.95387 0
M  V30 16187 H 1511.22 -0.638569 5.22714 0
M  V30 16188 H 1513.71 -0.0550269 3.7786 0
M  V30 16189 H 1514.03 0.513057 7.71095 0
M  V30 16190 H 1512.37 0.454471 6.93512 0
M  V30 16191 H 1515.56 0.0160945 4.68097 0
M  V30 16192 H 1515.73 0.274917 6.47417 0
M  V30 16193 O 1509.18 -1.61491 -0.0173858 0
M  V30 16194 H 1509.87 -1.82947 -0.636397 0
M  V30 END ATOM
M  V30 BEGIN BOND
M  V30 END BOND
M  V30 END CTAB
M  END
$$$$
