drugbank_target|P00918 Carbonic anhydrase 2 (DB00232; DB00273; DB00311; DB00391; DB00436; DB00482; DB00562; DB00580; DB00606; DB00695; DB00703; DB00774; DB00819; DB00869; DB00880; DB00909; DB01021; DB01031; DB01119; DB01144; DB01194; DB01325; DB01671; DB01748; DB01784; DB01942; DB01964; DB02069; DB02087; DB02220; DB02221; DB02292; DB02429; DB02479; DB02535; DB02602; DB02610; DB02679; DB02861; DB02866; DB02894; DB02986; DB03039; DB03221; DB03262; DB03270; DB03294; DB03333; DB03385; DB03526; DB03594; DB03596; DB03598; DB03697; DB03844; DB03877; DB03904; DB03950; DB03975; DB04002; DB04081; DB04089; DB04180; DB04203; DB04371; DB04394; DB04549; DB04600; DB04601; DB04763; DB06891; DB06954; DB07048; DB07050; DB07363; DB07467; DB07476; DB07596; DB07632; DB07710; DB07742; DB08046; DB08083; DB08155; DB08156; DB08157; DB08165; DB08202; DB08301; DB08329; DB08416; DB08418; DB08645; DB08659; DB08765; DB08782; DB08846; DB09460; DB09472)
 OpenBabel12092119293D

  0  0  0     0  0            999 V3000
M  V30 BEGIN CTAB
M  V30 COUNTS 4099 4161 0 0 0
M  V30 BEGIN ATOM
M  V30 1 H -0.908 1.98254 -0.117106 0
M  V30 2 N 0 1.576 0 0
M  V30 3 C 0.933 2.03868 1.02534 0
M  V30 4 C 1.911 0.928543 1.3348 0
M  V30 5 O 3.095 1.19667 1.45644 0
M  V30 6 C 0.222 2.43627 2.35294 0
M  V30 7 C -0.732 3.65373 2.2001 0
M  V30 8 S 0.101 5.13292 1.52614 0
M  V30 9 C 1.257 5.56322 2.86805 0
M  V30 10 H 1.49 2.90518 0.631377 0
M  V30 11 H -0.977 1.52953 0.210867 0
M  V30 12 H 0.981 2.67203 3.11629 0
M  V30 13 H -0.358 1.57376 2.7183 0
M  V30 14 H -1.165 3.90944 3.18086 0
M  V30 15 H -1.563 3.418 1.51819 0
M  V30 16 H 0.729 5.58782 3.83104 0
M  V30 17 H 1.672 6.56266 2.65933 0
M  V30 18 H 2.08 4.83886 2.90714 0
M  V30 19 N 1.4781 -0.272755 1.55222 0
M  V30 20 C 2.7031 -1.02683 1.80197 0
M  V30 21 C 3.1281 -1.79142 0.573551 0
M  V30 22 O 2.4861 -1.74917 -0.476849 0
M  V30 23 C 2.5341 -1.9609 3.02624 0
M  V30 24 O 1.6381 -3.04863 2.77727 0
M  V30 25 H 0.9791 -0.293557 0.595584 0
M  V30 26 H 3.5091 -0.30159 2.02365 0
M  V30 27 H 3.5191 -2.38039 3.31363 0
M  V30 28 H 2.1941 -1.39851 3.91682 0
M  V30 29 H 0.7711 -2.67228 2.60084 0
M  V30 30 N 2.9562 -1.48159 -0.537278 0
M  V30 31 C 3.9062 -1.5854 -1.63857 0
M  V30 32 C 4.8902 -0.442969 -1.54682 0
M  V30 33 O 6.0822 -0.69401 -1.62827 0
M  V30 34 C 3.2112 -1.62144 -3.02596 0
M  V30 35 C 2.2972 -2.81841 -3.16901 0
M  V30 36 N 2.6882 -4.06337 -3.01204 0
M  V30 37 C 0.9862 -2.79021 -3.47942 0
M  V30 38 C 1.6872 -4.86606 -3.18731 0
M  V30 39 N 0.6632 -4.19288 -3.45974 0
M  V30 40 H 4.4652 -2.5255 -1.50319 0
M  V30 41 H 1.9792 -1.4443 -0.742555 0
M  V30 42 H 3.9762 -1.67674 -3.81695 0
M  V30 43 H 2.6362 -0.69245 -3.17231 0
M  V30 44 H 3.6472 -4.36888 -2.78117 0
M  V30 45 H 0.3242 -1.95347 -3.6898 0
M  V30 46 H 1.7142 -5.95385 -3.11394 0
M  V30 47 N 4.4343 0.785586 -1.36625 0
M  V30 48 C 5.3843 1.88822 -1.27789 0
M  V30 49 C 6.3683 1.60014 -0.168579 0
M  V30 50 O 7.5603 1.72381 -0.401737 0
M  V30 51 C 4.6893 3.26092 -1.07327 0
M  V30 52 C 3.7753 3.60897 -2.22743 0
M  V30 53 N 4.1663 3.66982 -3.48077 0
M  V30 54 C 2.4643 3.90981 -2.14593 0
M  V30 55 C 3.1653 3.98137 -4.24101 0
M  V30 56 N 2.1413 4.13319 -3.53084 0
M  V30 57 H 5.9433 1.91759 -2.22723 0
M  V30 58 H 3.4573 0.981311 -1.29399 0
M  V30 59 H 5.4543 4.04954 -0.990842 0
M  V30 60 H 4.1143 3.24428 -0.132977 0
M  V30 61 H 5.1253 3.49531 -3.82163 0
M  V30 62 H 1.8023 3.9722 -1.2854 0
M  V30 63 H 3.1923 4.09737 -5.32509 0
M  V30 64 N 5.9124 1.20967 1.01018 0
M  V30 65 C 7.1584 1.0353 1.7508 0
M  V30 66 C 7.5134 -0.42734 1.87594 0
M  V30 67 O 6.8064 -1.31298 1.3954 0
M  V30 68 C 7.0004 1.65997 3.16512 0
M  V30 69 C 6.8294 3.18184 3.17788 0
M  V30 70 C 5.5994 3.87198 3.24662 0
M  V30 71 C 7.7974 4.15334 3.03319 0
M  V30 72 N 5.7794 5.26618 3.15509 0
M  V30 73 C 7.1504 5.41472 3.02007 0
M  V30 74 C 9.2054 4.06449 2.87583 0
M  V30 75 C 7.9084 6.5975 2.86571 0
M  V30 76 C 9.9344 5.24357 2.73503 0
M  V30 77 C 9.2964 6.49404 2.72862 0
M  V30 78 H 5.3954 0.433137 0.651089 0
M  V30 79 H 7.9794 1.5324 1.20107 0
M  V30 80 H 6.1504 1.18863 3.69765 0
M  V30 81 H 7.8824 1.41816 3.79039 0
M  V30 82 H 4.6374 3.38093 3.31648 0
M  V30 83 H 5.0614 5.99626 3.14289 0
M  V30 84 H 9.7034 3.10573 2.86887 0
M  V30 85 H 7.4214 7.55792 2.86015 0
M  V30 86 H 11.0074 5.19299 2.62334 0
M  V30 87 H 9.8874 7.39105 2.62093 0
M  V30 88 N 7.3905 -1.2043 1.01659 0
M  V30 89 C 8.6385 -1.89423 0.704522 0
M  V30 90 C 8.9595 -1.79231 -0.768197 0
M  V30 91 O 8.2295 -1.1947 -1.55254 0
M  V30 92 H 6.8095 -0.701178 0.257602 0
M  V30 93 H 9.4715 -1.4626 1.28818 0
M  V30 94 H 8.5675 -2.96052 0.987916 0
M  V30 95 N 8.8686 -0.792821 -1.36206 0
M  V30 96 C 10.0986 -0.378275 -2.03107 0
M  V30 97 C 10.5066 1.01119 -1.59911 0
M  V30 98 O 9.8496 1.66052 -0.785658 0
M  V30 99 C 9.9116 -0.366535 -3.57627 0
M  V30 100 C 9.5756 -1.70416 -4.24037 0
M  V30 101 C 10.5726 -2.6602 -4.46687 0
M  V30 102 C 8.2576 -1.98439 -4.6144 0
M  V30 103 C 10.2516 -3.8784 -5.05825 0
M  V30 104 C 7.9386 -3.20525 -5.20295 0
M  V30 105 C 8.9366 -4.15044 -5.42427 0
M  V30 106 O 8.6246 -5.34978 -6.00045 0
M  V30 107 H 8.3566 -0.153543 -0.658332 0
M  V30 108 H 10.9106 -1.07383 -1.75094 0
M  V30 109 H 9.1406 0.385539 -3.84773 0
M  V30 110 H 10.8296 0.0238088 -4.05893 0
M  V30 111 H 11.5956 -2.45658 -4.18183 0
M  V30 112 H 7.4746 -1.25686 -4.43536 0
M  V30 113 H 11.0186 -4.61628 -5.23015 0
M  V30 114 H 6.9156 -3.40764 -5.48225 0
M  V30 115 H 7.6836 -5.36088 -6.18508 0
M  V30 116 N 10.3467 1.47872 -0.545128 0
M  V30 117 C 11.5947 2.02093 -0.016553 0
M  V30 118 C 11.9157 1.42305 1.3332 0
M  V30 119 O 11.1857 0.593853 1.86682 0
M  V30 120 H 9.7657 0.746993 -0.00313038 0
M  V30 121 H 12.4277 1.81414 -0.712397 0
M  V30 122 H 11.5237 3.11996 0.0805422 0
M  V30 123 N 11.8248 0.280983 1.55075 0
M  V30 124 C 12.7718 -0.603937 2.22758 0
M  V30 125 C 13.7418 -1.1452 1.20309 0
M  V30 126 O 14.9268 -1.19343 1.48869 0
M  V30 127 C 12.0668 -1.77947 2.95684 0
M  V30 128 C 11.1798 -1.2715 4.12864 0
M  V30 129 C 10.3148 -2.4093 4.7342 0
M  V30 130 C 9.3538 -1.87165 5.82783 0
M  V30 131 N 8.4908 -2.94441 6.37377 0
M  V30 132 H 13.3308 -0.020124 2.97993 0
M  V30 133 H 10.8678 0.00183425 1.471 0
M  V30 134 H 12.8258 -2.47055 3.36184 0
M  V30 135 H 11.4558 -2.33522 2.22861 0
M  V30 136 H 10.5078 -0.473331 3.77444 0
M  V30 137 H 11.8198 -0.837751 4.91715 0
M  V30 138 H 10.9738 -3.18021 5.1667 0
M  V30 139 H 9.7128 -2.87623 3.93859 0
M  V30 140 H 8.7178 -1.08556 5.38976 0
M  V30 141 H 9.9428 -1.41401 6.64216 0
M  V30 142 H 7.8888 -3.40505 5.60707 0
M  V30 143 H 7.8058 -2.55501 7.11516 0
M  V30 144 H 9.0738 -3.71489 6.85285 0
M  V30 145 N 13.3029 -1.57598 0.00835791 0
M  V30 146 C 14.2529 -2.05431 -0.989045 0
M  V30 147 C 15.2369 -0.950662 -1.29812 0
M  V30 148 O 16.4289 -1.21438 -1.28771 0
M  V30 149 C 13.5579 -2.56801 -2.27833 0
M  V30 150 C 12.6439 -3.74058 -1.99853 0
M  V30 151 N 13.0349 -4.8544 -1.42062 0
M  V30 152 C 11.3329 -3.82148 -2.29953 0
M  V30 153 C 12.0339 -5.66817 -1.30743 0
M  V30 154 N 11.0099 -5.13077 -1.7959 0
M  V30 155 H 14.8119 -2.88955 -0.536853 0
M  V30 156 H 12.3259 -1.61199 -0.197148 0
M  V30 157 H 14.3229 -2.89349 -3.00137 0
M  V30 158 H 12.9829 -1.74699 -2.73698 0
M  V30 159 H 13.9939 -5.0612 -1.09833 0
M  V30 160 H 10.6709 -3.10916 -2.78635 0
M  V30 161 H 12.0609 -6.66343 -0.862328 0
M  V30 162 N 14.781 0.264519 -1.55364 0
M  V30 163 C 15.729 1.34702 -1.89626 0
M  V30 164 C 16.723 1.50712 -0.773459 0
M  V30 165 O 17.929 1.52395 -0.957897 0
M  V30 166 H 14.304 0.450682 -0.601988 0
M  V30 167 H 16.275 1.0306 -2.80038 0
M  V30 168 C 15.024 2.6989 -2.19214 0
M  V30 169 H 14.347 2.58365 -3.05103 0
M  V30 170 H 15.787 3.44553 -2.47102 0
M  V30 171 C 14.246 3.21637 -1.00254 0
M  V30 172 O 14.776 4.00973 -0.241501 0
M  V30 173 N 12.982 2.7943 -0.797938 0
M  V30 174 H 12.529 2.15026 -1.4185 0
M  V30 175 H 12.487 3.144 -0.00363422 0
M  V30 176 N 16.2591 1.48442 0.529413 0
M  V30 177 C 17.5071 1.56179 1.28267 0
M  V30 178 C 17.8281 0.237721 1.93546 0
M  V30 179 O 17.0981 -0.740779 1.81354 0
M  V30 180 H 15.6781 0.575367 0.476405 0
M  V30 181 H 18.3401 1.84909 0.61602 0
M  V30 182 H 17.4361 2.34312 2.06165 0
M  V30 183 N 17.7372 -0.778329 1.37039 0
M  V30 184 C 19.1482 -1.35421 1.28523 0
M  V30 185 C 19.4992 -1.96075 -0.0700901 0
M  V30 186 O 18.6242 -1.93352 -0.971801 0
M  V30 187 C 19.2192 -2.46211 2.32735 0
M  V30 188 C 17.7782 -2.99585 2.27873 0
M  V30 189 C 16.9252 -1.72748 2.16918 0
M  V30 190 H 19.8762 -0.5791 1.47757 0
M  V30 191 H 19.8972 -3.2552 1.9702 0
M  V30 192 H 19.4092 -2.02036 3.31365 0
M  V30 193 H 17.5102 -3.48152 1.32745 0
M  V30 194 H 17.6232 -3.55646 3.21018 0
M  V30 195 H 15.9872 -1.95416 1.63354 0
M  V30 196 H 16.7702 -1.30686 3.17452 0
M  V30 197 N 19.2153 -1.21501 -1.00376 0
M  V30 198 C 20.1253 -0.991447 -2.12621 0
M  V30 199 C 21.1413 0.0568446 -1.73907 0
M  V30 200 O 22.3173 -0.13348 -2.00957 0
M  V30 201 C 19.3823 -0.560312 -3.42142 0
M  V30 202 C 18.4433 -1.68096 -3.95022 0
M  V30 203 C 17.6763 -1.2703 -5.18362 0
M  V30 204 O 17.8993 -0.144438 -5.70217 0
M  V30 205 O 16.8333 -2.08269 -5.64719 0
M  V30 206 H 20.6593 -1.93158 -2.34358 0
M  V30 207 H 18.2443 -0.999999 -1.10997 0
M  V30 208 H 20.1263 -0.329724 -4.20108 0
M  V30 209 H 18.8013 0.351089 -3.2179 0
M  V30 210 H 17.7083 -1.96597 -3.18278 0
M  V30 211 H 19.0413 -2.56983 -4.19786 0
M  V30 212 N 20.6934 1.19889 -1.02296 0
M  V30 213 C 21.6434 2.20777 -0.56934 0
M  V30 214 C 22.6274 1.56379 0.378741 0
M  V30 215 O 23.8194 1.75859 0.200673 0
M  V30 216 C 20.9484 3.43196 0.0845077 0
M  V30 217 C 20.0344 4.14749 -0.88566 0
M  V30 218 N 20.4254 4.62584 -2.04573 0
M  V30 219 C 18.7234 4.40347 -0.707835 0
M  V30 220 C 19.4244 5.17466 -2.65714 0
M  V30 221 N 18.4004 5.0791 -1.93723 0
M  V30 222 H 22.2024 2.55434 -1.45365 0
M  V30 223 H 19.7164 1.35897 -0.88915 0
M  V30 224 H 21.7134 4.14707 0.427067 0
M  V30 225 H 20.3734 3.10042 0.964574 0
M  V30 226 H 21.3844 4.57597 -2.4254 0
M  V30 227 H 18.0614 4.17317 0.12364 0
M  V30 228 H 19.4514 5.64808 -3.63925 0
M  V30 229 N 22.1715 0.800033 1.35784 0
M  V30 230 C 23.4175 0.38701 1.99684 0
M  V30 231 C 23.7725 -1.03268 1.62338 0
M  V30 232 O 23.0655 -1.70543 0.87325 0
M  V30 233 C 23.2595 0.500276 3.53881 0
M  V30 234 C 23.0885 1.92942 4.06206 0
M  V30 235 C 21.8585 2.55637 4.35865 0
M  V30 236 C 24.0565 2.89307 4.25213 0
M  V30 237 N 22.0385 3.9003 4.74078 0
M  V30 238 C 23.4095 4.08556 4.66349 0
M  V30 239 C 25.4645 2.86225 4.07406 0
M  V30 240 C 24.1675 5.25146 4.91543 0
M  V30 241 C 26.1935 4.02011 4.33752 0
M  V30 242 C 25.5555 5.20007 4.75155 0
M  V30 243 H 21.6545 0.189252 0.758754 0
M  V30 244 H 24.2385 1.03988 1.64604 0
M  V30 245 H 22.4095 -0.122568 3.88207 0
M  V30 246 H 24.1415 0.0624733 4.04652 0
M  V30 247 H 20.8965 2.07039 4.25948 0
M  V30 248 H 21.3205 4.59205 4.97454 0
M  V30 249 H 25.9625 1.96154 3.74544 0
M  V30 250 H 23.6805 6.15794 5.23281 0
M  V30 251 H 27.2665 4.00999 4.21534 0
M  V30 252 H 26.1465 6.08113 4.95145 0
M  V30 253 N 23.6496 -1.47581 0.552962 0
M  V30 254 C 24.5996 -2.26961 -0.217423 0
M  V30 255 C 25.5836 -1.34099 -0.889168 0
M  V30 256 O 26.7756 -1.58483 -0.788176 0
M  V30 257 C 23.9046 -3.19756 -1.24944 0
M  V30 258 C 22.9906 -4.20097 -0.581327 0
M  V30 259 N 23.3816 -5.04614 0.346171 0
M  V30 260 C 21.6796 -4.38099 -0.835767 0
M  V30 261 C 22.3806 -5.77052 0.733854 0
M  V30 262 N 21.3566 -5.43526 0.0896567 0
M  V30 263 H 25.1586 -2.89688 0.495761 0
M  V30 264 H 22.6726 -1.58068 0.372597 0
M  V30 265 H 24.6696 -3.75305 -1.81527 0
M  V30 266 H 23.3296 -2.58585 -1.96376 0
M  V30 267 H 24.3406 -5.12869 0.720098 0
M  V30 268 H 21.0176 -3.88102 -1.53892 0
M  V30 269 H 22.4076 -6.5504 1.49574 0
M  V30 270 N 25.1277 -0.289203 -1.54924 0
M  V30 271 C 26.0747 0.592115 -2.23075 0
M  V30 272 C 27.0447 1.13881 -1.20915 0
M  V30 273 O 28.2297 1.18551 -1.495 0
M  V30 274 C 25.3697 1.76376 -2.96623 0
M  V30 275 C 24.4827 1.24959 -4.13533 0
M  V30 276 C 23.6177 2.38416 -4.74691 0
M  V30 277 C 22.6567 1.84072 -5.83767 0
M  V30 278 N 21.7937 2.91057 -6.38929 0
M  V30 279 H 26.6337 0.00432038 -2.98 0
M  V30 280 H 24.1707 -0.00963529 -1.47097 0
M  V30 281 H 26.1287 2.45268 -3.3749 0
M  V30 282 H 24.7587 2.32337 -2.24097 0
M  V30 283 H 23.8107 0.453307 -3.77689 0
M  V30 284 H 25.1227 0.811662 -4.92152 0
M  V30 285 H 24.2767 3.15276 -5.18349 0
M  V30 286 H 23.0157 2.8553 -3.95378 0
M  V30 287 H 22.0207 1.05697 -5.39545 0
M  V30 288 H 23.2457 1.37877 -6.64956 0
M  V30 289 H 21.1917 3.37526 -5.62505 0
M  V30 290 H 21.1087 2.51724 -7.12861 0
M  V30 291 H 22.3767 3.6785 -6.87246 0
M  V30 292 N 26.6058 1.57591 -0.0167156 0
M  V30 293 C 27.8828 1.82547 0.702564 0
M  V30 294 C 28.2628 0.898018 1.91047 0
M  V30 295 O 27.6108 -0.0493456 2.28447 0
M  V30 296 C 27.8208 3.31459 1.09251 0
M  V30 297 C 29.1688 3.97622 1.48937 0
M  V30 298 O 30.1928 3.35881 1.18584 0
M  V30 299 O 29.0518 5.06415 2.05442 0
M  V30 300 H 26.1458 0.752268 0.343544 0
M  V30 301 H 28.6918 1.69644 -0.0434495 0
M  V30 302 H 27.4638 3.9061 0.23227 0
M  V30 303 H 27.0868 3.49422 1.89709 0
M  V30 304 N 28.0839 -0.256276 1.55502 0
M  V30 305 C 29.3309 -0.985619 1.76895 0
M  V30 306 C 29.6589 -1.85671 0.579355 0
M  V30 307 O 28.9139 -1.90744 -0.437651 0
M  V30 308 C 29.2129 -1.88432 3.03691 0
M  V30 309 C 28.8789 -1.16936 4.35473 0
M  V30 310 C 27.5409 -0.97173 4.71286 0
M  V30 311 C 29.8929 -0.661889 5.1698 0
M  V30 312 C 27.2209 -0.254179 5.86149 0
M  V30 313 C 29.5729 0.042149 6.32586 0
M  V30 314 C 28.2369 0.25134 6.67027 0
M  V30 315 H 27.5069 -0.360663 0.647304 0
M  V30 316 H 30.1539 -0.256483 1.89775 0
M  V30 317 H 28.4589 -2.68021 2.85783 0
M  V30 318 H 30.1559 -2.45015 3.1744 0
M  V30 319 H 26.7459 -1.33332 4.07333 0
M  V30 320 H 30.9299 -0.802145 4.89775 0
M  V30 321 H 26.1859 -0.0815408 6.11346 0
M  V30 322 H 30.3599 0.443049 6.94989 0
M  V30 323 H 27.9869 0.809314 7.5588 0
M  V30 324 N 29.562 -1.4872 -0.521534 0
M  V30 325 C 30.973 -1.50607 -1.10337 0
M  V30 326 C 31.324 -0.280612 -1.94183 0
M  V30 327 O 30.449 0.611507 -2.0758 0
M  V30 328 C 31.044 -2.72903 -2.00772 0
M  V30 329 C 29.603 -2.77634 -2.54158 0
M  V30 330 C 28.75 -2.44241 -1.31307 0
M  V30 331 H 31.701 -1.55714 -0.306388 0
M  V30 332 H 31.722 -2.519 -2.85178 0
M  V30 333 H 31.234 -3.62077 -1.39721 0
M  V30 334 H 29.335 -1.92689 -3.18907 0
M  V30 335 H 29.448 -3.79283 -2.92714 0
M  V30 336 H 27.812 -1.95577 -1.63161 0
M  V30 337 H 28.595 -3.35666 -0.719943 0
M  V30 338 N 31.0401 0.771051 -1.3745 0
M  V30 339 C 32.2891 1.52491 -1.3202 0
M  V30 340 C 32.6021 1.9538 0.0927347 0
M  V30 341 O 33.8081 2.70159 0.269503 0
M  V30 342 C 32.2641 2.75366 -2.31736 0
M  V30 343 C 31.8721 2.39573 -3.78562 0
M  V30 344 C 33.6161 3.53307 -2.35318 0
M  V30 345 C 31.5231 3.58954 -4.70007 0
M  V30 346 H 30.4531 0.572506 -0.490666 0
M  V30 347 H 33.1041 0.844474 -1.62914 0
M  V30 348 H 31.4861 3.45303 -1.93861 0
M  V30 349 H 32.6601 1.77415 -4.25277 0
M  V30 350 H 30.9751 1.74805 -3.77932 0
M  V30 351 H 33.5721 4.42039 -3.00842 0
M  V30 352 H 33.9151 3.93217 -1.36698 0
M  V30 353 H 34.4481 2.90367 -2.71904 0
M  V30 354 H 31.1871 3.24125 -5.69757 0
M  V30 355 H 30.7071 4.20214 -4.27996 0
M  V30 356 H 32.3861 4.25758 -4.87175 0
M  V30 357 N 32.5182 1.22032 0.997298 0
M  V30 358 C 33.4812 0.987909 2.06816 0
M  V30 359 C 34.4812 -0.0440084 1.6074 0
M  V30 360 O 35.6712 0.194053 1.73116 0
M  V30 361 C 32.8032 0.49132 3.37341 0
M  V30 362 H 33.9962 1.93803 2.28868 0
M  V30 363 H 31.5492 1.03838 1.16822 0
M  V30 364 H 32.2842 -0.463364 3.20973 0
M  V30 365 H 32.0692 1.23575 3.72118 0
M  V30 366 H 33.5592 0.348824 4.16141 0
M  V30 367 N 33.9963 -1.19345 1.0293 0
M  V30 368 C 34.9433 -2.2258 0.610464 0
M  V30 369 C 35.9133 -1.6179 -0.375946 0
M  V30 370 O 37.0983 -1.88844 -0.272511 0
M  V30 371 C 34.2383 -3.45085 -0.0321473 0
M  V30 372 C 33.3513 -4.20258 1.00035 0
M  V30 373 C 32.4863 -5.3019 0.32746 0
M  V30 374 C 31.5253 -5.97121 1.34584 0
M  V30 375 N 30.6623 -6.98615 0.698726 0
M  V30 376 H 35.5023 -2.57764 1.49538 0
M  V30 377 H 33.0393 -1.26644 0.748311 0
M  V30 378 H 34.9973 -4.15061 -0.421966 0
M  V30 379 H 33.6273 -3.10555 -0.88064 0
M  V30 380 H 32.6793 -3.49223 1.50823 0
M  V30 381 H 33.9913 -4.66175 1.77433 0
M  V30 382 H 33.1453 -6.06587 -0.11718 0
M  V30 383 H 31.8843 -4.85345 -0.478713 0
M  V30 384 H 30.8893 -5.19474 1.80074 0
M  V30 385 H 32.1143 -6.4405 2.15352 0
M  V30 386 H 30.0603 -6.55942 -0.0873471 0
M  V30 387 H 29.9773 -7.42724 1.41058 0
M  V30 388 H 31.2453 -7.79004 0.278102 0
M  V30 389 N 35.4744 -0.807222 -1.35358 0
M  V30 390 C 36.7224 -0.387122 -1.98358 0
M  V30 391 C 37.0434 1.04942 -1.64354 0
M  V30 392 O 36.3134 1.72615 -0.926339 0
M  V30 393 H 34.8934 -0.140154 -0.733734 0
M  V30 394 H 37.5554 -1.0332 -1.6526 0
M  V30 395 H 36.6514 -0.493352 -3.08176 0
M  V30 396 N 36.9525 1.47285 -0.560781 0
M  V30 397 C 37.8625 2.33846 0.187954 0
M  V30 398 C 38.8785 1.48412 0.908293 0
M  V30 399 O 40.0545 1.81332 0.876388 0
M  V30 400 C 37.1195 3.25178 1.2025 0
M  V30 401 C 36.1805 4.26504 0.489208 0
M  V30 402 C 35.4135 5.13472 1.45542 0
M  V30 403 O 35.6365 5.02959 2.6905 0
M  V30 404 O 34.5705 5.93902 0.977963 0
M  V30 405 H 38.3965 2.99177 -0.522177 0
M  V30 406 H 35.9815 1.45903 -0.321364 0
M  V30 407 H 37.8635 3.81584 1.78805 0
M  V30 408 H 36.5385 2.6247 1.89449 0
M  V30 409 H 35.4455 3.73847 -0.137627 0
M  V30 410 H 36.7785 4.91935 -0.161399 0
M  V30 411 N 38.4306 0.297415 1.54768 0
M  V30 412 C 39.8466 -0.0560823 1.59501 0
M  V30 413 C 40.0466 -1.52725 1.31444 0
M  V30 414 O 39.1026 -2.27947 1.08611 0
M  V30 415 C 40.4156 0.338631 2.98787 0
M  V30 416 C 41.9636 0.287097 3.11681 0
M  V30 417 C 42.4386 0.656579 4.53269 0
M  V30 418 N 43.9296 0.608977 4.59179 0
M  V30 419 C 44.6646 0.867385 5.66802 0
M  V30 420 N 44.1606 1.19157 6.82476 0
M  V30 421 N 45.9536 0.794687 5.56454 0
M  V30 422 H 38.1046 1.25624 1.71267 0
M  V30 423 H 40.3676 0.509057 0.799728 0
M  V30 424 H 40.0736 1.36263 3.2423 0
M  V30 425 H 39.9476 -0.309508 3.75928 0
M  V30 426 H 42.3346 -0.727649 2.85988 0
M  V30 427 H 42.4156 0.969809 2.36703 0
M  V30 428 H 42.0596 1.66912 4.7969 0
M  V30 429 H 41.9896 -0.0481649 5.26578 0
M  V30 430 H 44.4806 0.369198 3.76092 0
M  V30 431 H 44.7936 1.37482 7.60473 0
M  V30 432 H 43.1386 1.22958 6.84037 0
M  V30 433 H 46.3296 0.541098 4.64962 0
M  V30 434 H 46.5026 0.999445 6.40246 0
M  V30 435 N 39.9087 -1.5758 0.0250728 0
M  V30 436 C 40.8407 -2.06869 -0.986796 0
M  V30 437 C 41.8537 -0.991332 -1.29137 0
M  V30 438 O 43.0427 -1.26761 -1.25674 0
M  V30 439 C 40.1427 -2.47486 -2.31525 0
M  V30 440 C 39.3157 -3.78253 -2.19643 0
M  V30 441 C 38.3747 -4.05464 -3.35388 0
M  V30 442 O 37.4007 -4.75774 -3.12454 0
M  V30 443 N 38.6027 -3.55321 -4.59051 0
M  V30 444 H 41.3677 -2.94302 -0.566276 0
M  V30 445 H 38.9287 -1.6109 -0.161776 0
M  V30 446 H 40.9207 -2.62785 -3.07776 0
M  V30 447 H 39.4907 -1.65441 -2.65232 0
M  V30 448 H 38.7107 -3.7279 -1.28144 0
M  V30 449 H 39.9987 -4.63936 -2.08903 0
M  V30 450 H 39.3967 -2.98431 -4.80578 0
M  V30 451 H 37.9537 -3.75905 -5.32483 0
M  V30 452 N 41.3868 0.248026 -1.55636 0
M  V30 453 C 42.6118 0.998028 -1.81808 0
M  V30 454 C 43.0368 1.78207 -0.601979 0
M  V30 455 O 42.3948 1.75653 0.448961 0
M  V30 456 C 42.4428 1.9125 -3.05705 0
M  V30 457 O 41.5468 3.00406 -2.82542 0
M  V30 458 H 40.8878 0.284045 -0.600179 0
M  V30 459 H 43.4178 0.269357 -2.02819 0
M  V30 460 H 43.4278 2.32737 -3.35108 0
M  V30 461 H 42.1028 1.33602 -3.93857 0
M  V30 462 H 40.6798 2.63056 -2.64303 0
M  V30 463 N 42.8649 1.48995 0.513639 0
M  V30 464 C 44.2759 1.5119 1.09537 0
M  V30 465 C 44.6269 0.290906 1.94031 0
M  V30 466 O 43.7519 -0.60049 2.07902 0
M  V30 467 C 44.3469 2.73964 1.99322 0
M  V30 468 C 42.9059 2.78978 2.52682 0
M  V30 469 C 42.0529 2.44934 1.30009 0
M  V30 470 H 45.0039 1.55875 0.298125 0
M  V30 471 H 45.0249 2.53409 2.83838 0
M  V30 472 H 44.5369 3.62813 1.37799 0
M  V30 473 H 42.6379 1.94378 3.1788 0
M  V30 474 H 42.7509 3.8083 2.90698 0
M  V30 475 H 41.1149 1.9644 1.62122 0
M  V30 476 H 41.8979 3.36043 0.702131 0
M  V30 477 N 44.343 -0.763751 1.37857 0
M  V30 478 C 45.589 -1.52483 1.33704 0
M  V30 479 C 45.922 -1.94051 -0.0759612 0
M  V30 480 O 45.197 -1.64675 -1.03501 0
M  V30 481 C 45.48 -2.78441 2.28348 0
M  V30 482 C 45.333 -2.43075 3.78463 0
M  V30 483 C 46.652 -3.80415 2.21298 0
M  V30 484 H 43.771 -0.553169 0.487005 0
M  V30 485 H 46.413 -0.875562 1.68624 0
M  V30 486 H 44.563 -3.33842 1.987 0
M  V30 487 H 46.235 -1.93527 4.18742 0
M  V30 488 H 44.478 -1.75666 3.96641 0
M  V30 489 H 45.149 -3.33149 4.40132 0
M  V30 490 H 47.625 -3.34527 2.47449 0
M  V30 491 H 46.501 -4.66257 2.89647 0
M  V30 492 H 46.762 -4.25262 1.20849 0
M  V30 493 N 45.8211 -1.22559 -0.990812 0
M  V30 494 C 47.0981 -0.959875 -1.70428 0
M  V30 495 C 47.4781 0.524455 -2.04481 0
M  V30 496 O 46.8261 1.49302 -1.72977 0
M  V30 497 C 47.0361 -1.85955 -2.95333 0
M  V30 498 C 48.3841 -2.11687 -3.68068 0
M  V30 499 O 49.4081 -1.8342 -3.05345 0
M  V30 500 O 48.2671 -2.59572 -4.80921 0
M  V30 501 H 45.3611 -0.361154 -0.743974 0
M  V30 502 H 47.9071 -1.33554 -1.04697 0
M  V30 503 H 46.6791 -2.86346 -2.66687 0
M  V30 504 H 46.3021 -1.4856 -3.68803 0
M  V30 505 N 47.2992 1.18797 -1.03562 0
M  V30 506 C 48.5482 1.87978 -0.731235 0
M  V30 507 C 48.8612 1.80911 0.743671 0
M  V30 508 O 50.0672 2.45407 1.16137 0
M  V30 509 C 48.5232 3.3721 -1.25768 0
M  V30 510 C 48.1312 3.52818 -2.76085 0
M  V30 511 C 49.8752 4.11825 -1.0296 0
M  V30 512 C 47.7822 4.9598 -3.22114 0
M  V30 513 H 46.7122 0.704063 -0.269835 0
M  V30 514 H 49.3632 1.34266 -1.25079 0
M  V30 515 H 47.7452 3.90359 -0.666011 0
M  V30 516 H 48.9192 3.09965 -3.40966 0
M  V30 517 H 47.2342 2.91602 -2.97249 0
M  V30 518 H 49.8312 5.17411 -1.34869 0
M  V30 519 H 50.1742 4.16287 0.0333546 0
M  V30 520 H 50.7072 3.64833 -1.58562 0
M  V30 521 H 47.4462 4.96684 -4.27768 0
M  V30 522 H 46.9662 5.39569 -2.61965 0
M  V30 523 H 48.6452 5.6467 -3.15844 0
M  V30 524 N 48.7773 0.814389 1.34928 0
M  V30 525 C 50.0543 0.321363 1.92942 0
M  V30 526 C 50.4343 -1.19014 1.74353 0
M  V30 527 O 49.7823 -1.99328 1.11716 0
M  V30 528 C 49.9923 0.741323 3.41036 0
M  V30 529 C 51.3403 0.735266 4.18185 0
M  V30 530 O 52.3643 0.68336 3.49584 0
M  V30 531 O 51.2233 0.800703 5.40602 0
M  V30 532 H 48.3173 0.0858893 0.822528 0
M  V30 533 H 50.8633 0.898609 1.43955 0
M  V30 534 H 49.6353 1.78276 3.4833 0
M  V30 535 H 49.2583 0.139307 3.97356 0
M  V30 536 N 50.2554 -1.46986 0.568584 0
M  V30 537 C 51.4834 -2.0683 0.0539956 0
M  V30 538 C 51.8984 -1.41953 -1.24478 0
M  V30 539 O 51.2554 -0.519933 -1.74937 0
M  V30 540 C 51.3064 -3.61254 -0.133362 0
M  V30 541 O 51.0274 -4.237 1.11399 0
M  V30 542 C 52.5284 -4.37992 -0.683927 0
M  V30 543 H 49.7484 -0.669058 0.0510141 0
M  V30 544 H 52.2924 -1.88824 0.785234 0
M  V30 545 H 50.4474 -3.78735 -0.81477 0
M  V30 546 H 50.8614 -5.16388 0.91888 0
M  V30 547 H 52.3354 -5.46684 -0.764263 0
M  V30 548 H 52.8124 -4.05058 -1.69778 0
M  V30 549 H 53.4184 -4.25283 -0.0378494 0
M  V30 550 N 51.7335 -0.305618 -1.54608 0
M  V30 551 C 52.6835 0.583595 -2.20405 0
M  V30 552 C 53.6675 1.09539 -1.17856 0
M  V30 553 O 54.8595 1.0354 -1.43557 0
M  V30 554 C 51.9885 1.75277 -2.95183 0
M  V30 555 C 51.0745 1.25672 -4.05052 0
M  V30 556 N 51.4655 0.478998 -5.03527 0
M  V30 557 C 49.7635 1.53704 -4.18678 0
M  V30 558 C 50.4645 0.214269 -5.81305 0
M  V30 559 N 49.4405 0.795374 -5.3775 0
M  V30 560 H 53.2425 -0.0180946 -2.93894 0
M  V30 561 H 50.7565 -0.110601 -1.62023 0
M  V30 562 H 52.7535 2.4014 -3.40791 0
M  V30 563 H 51.4135 2.35812 -2.23211 0
M  V30 564 H 52.4245 0.123473 -5.17753 0
M  V30 565 H 49.1015 2.14954 -3.57912 0
M  V30 566 H 50.4915 -0.410656 -6.70644 0
M  V30 567 N 53.2116 1.57565 -0.0334293 0
M  V30 568 C 54.4396 1.9628 0.654347 0
M  V30 569 C 54.8546 0.910138 1.65414 0
M  V30 570 O 54.2116 -0.107595 1.82183 0
M  V30 571 C 54.2626 3.35067 1.35693 0
M  V30 572 O 53.9836 4.36296 0.397191 0
M  V30 573 C 55.4846 3.88439 2.13613 0
M  V30 574 H 52.7046 0.646369 0.180132 0
M  V30 575 H 55.2486 2.04282 -0.0944721 0
M  V30 576 H 53.4036 3.2827 2.05712 0
M  V30 577 H 53.8176 5.1678 0.896597 0
M  V30 578 H 55.2916 4.8788 2.58219 0
M  V30 579 H 55.7686 3.22914 2.97696 0
M  V30 580 H 56.3746 3.98516 1.48543 0
M  V30 581 N 54.6897 -0.239769 1.55765 0
M  V30 582 C 55.6527 -1.28038 1.90103 0
M  V30 583 C 56.6527 -1.40723 0.778055 0
M  V30 584 O 57.8427 -1.39301 1.04599 0
M  V30 585 C 54.9747 -2.65702 2.13577 0
M  V30 586 H 56.1677 -0.988048 2.83157 0
M  V30 587 H 53.7207 -0.479382 1.48767 0
M  V30 588 H 54.4557 -3.00063 1.23015 0
M  V30 589 H 54.2407 -2.57875 2.95369 0
M  V30 590 H 55.7307 -3.40828 2.41301 0
M  V30 591 N 56.1678 -1.49265 -0.50573 0
M  V30 592 C 57.1148 -1.65585 -1.6078 0
M  V30 593 C 58.0848 -0.497396 -1.58478 0
M  V30 594 O 59.2698 -0.72385 -1.76536 0
M  V30 595 C 56.4098 -1.72408 -2.98948 0
M  V30 596 C 55.5228 -2.99525 -3.11301 0
M  V30 597 C 54.6578 -2.97356 -4.40174 0
M  V30 598 C 53.6968 -4.19074 -4.46143 0
M  V30 599 N 52.8338 -4.14841 -5.66437 0
M  V30 600 H 57.6738 -2.59688 -1.46172 0
M  V30 601 H 55.2108 -1.28761 -0.711261 0
M  V30 602 H 57.1688 -1.74344 -3.79025 0
M  V30 603 H 55.7988 -0.817753 -3.1227 0
M  V30 604 H 54.8508 -3.07222 -2.24318 0
M  V30 605 H 56.1628 -3.89518 -3.11572 0
M  V30 606 H 55.3168 -2.97829 -5.28567 0
M  V30 607 H 54.0558 -2.05133 -4.42461 0
M  V30 608 H 53.0608 -4.1885 -3.56153 0
M  V30 609 H 54.2858 -5.12483 -4.45575 0
M  V30 610 H 52.2318 -3.25453 -5.69575 0
M  V30 611 H 52.1488 -4.98564 -5.68304 0
M  V30 612 H 53.4168 -4.1941 -6.57051 0
M  V30 613 N 57.6459 0.756429 -1.3826 0
M  V30 614 C 58.8759 1.54341 -1.3734 0
M  V30 615 C 59.2839 1.89159 0.0393917 0
M  V30 616 O 58.6269 1.5307 1.01565 0
M  V30 617 C 58.6889 2.87238 -2.16182 0
M  V30 618 C 58.3529 2.74973 -3.65019 0
M  V30 619 C 59.3499 2.44962 -4.58574 0
M  V30 620 C 57.0349 2.92515 -4.08338 0
M  V30 621 C 59.0289 2.32642 -5.93428 0
M  V30 622 C 56.7159 2.79815 -5.43274 0
M  V30 623 C 57.7139 2.49921 -6.35632 0
M  V30 624 O 57.4019 2.37275 -7.68086 0
M  V30 625 H 57.1339 0.484281 -0.471643 0
M  V30 626 H 59.6879 0.944152 -1.82414 0
M  V30 627 H 57.9179 3.49342 -1.65822 0
M  V30 628 H 59.6069 3.48731 -2.07705 0
M  V30 629 H 60.3729 2.31081 -4.26412 0
M  V30 630 H 56.2519 3.14781 -3.368 0
M  V30 631 H 59.7959 2.0923 -6.65484 0
M  V30 632 H 55.6929 2.93269 -5.75034 0
M  V30 633 H 56.4609 2.52509 -7.78577 0
M  V30 634 N 59.124 1.23083 0.984299 0
M  V30 635 C 60.401 0.9689 1.69917 0
M  V30 636 C 60.781 -0.513604 2.04757 0
M  V30 637 O 60.129 -1.48383 1.73767 0
M  V30 638 C 60.339 1.87518 2.94343 0
M  V30 639 C 61.687 2.13636 3.6694 0
M  V30 640 O 62.711 1.85036 3.04368 0
M  V30 641 O 61.57 2.62119 4.79537 0
M  V30 642 H 58.664 0.365095 0.742048 0
M  V30 643 H 61.21 1.34107 1.03987 0
M  V30 644 H 59.982 2.87756 2.65164 0
M  V30 645 H 59.605 1.50514 3.6801 0
M  V30 646 N 60.6021 -1.18246 1.0419 0
M  V30 647 C 62.0131 -1.69914 0.773698 0
M  V30 648 C 62.3641 -1.83085 -0.705297 0
M  V30 649 O 61.4891 -1.51123 -1.5489 0
M  V30 650 C 62.0841 -3.08619 1.39784 0
M  V30 651 C 60.6431 -3.57494 1.17792 0
M  V30 652 C 59.7901 -2.34013 1.48773 0
M  V30 653 H 62.7411 -1.02904 1.20816 0
M  V30 654 H 62.7621 -3.71958 0.801714 0
M  V30 655 H 62.2741 -2.99001 2.47426 0
M  V30 656 H 60.3751 -3.72406 0.120295 0
M  V30 657 H 60.4881 -4.40852 1.87581 0
M  V30 658 H 58.8521 -2.37986 0.907463 0
M  V30 659 H 59.6351 -2.27013 2.57527 0
M  V30 660 N 62.0802 -0.821533 -1.34494 0
M  V30 661 C 63.3052 -0.420873 -2.03085 0
M  V30 662 C 63.7302 0.964915 -1.61465 0
M  V30 663 O 63.0882 1.62763 -0.798607 0
M  V30 664 C 63.1362 -0.529414 -3.56693 0
M  V30 665 O 62.2402 0.451302 -4.09923 0
M  V30 666 H 61.5812 -0.173489 -0.640935 0
M  V30 667 H 64.1112 -1.11157 -1.71771 0
M  V30 668 H 64.1212 -0.404671 -4.05988 0
M  V30 669 H 62.7962 -1.54014 -3.86332 0
M  V30 670 H 61.3732 0.285558 -3.71805 0
M  V30 671 N 63.5583 1.46682 -0.576371 0
M  V30 672 C 64.4883 2.33028 0.148397 0
M  V30 673 C 65.4693 1.44961 0.889956 0
M  V30 674 O 66.6543 1.73789 0.866662 0
M  V30 675 C 63.7843 3.27117 1.1667 0
M  V30 676 C 62.7383 4.24575 0.540386 0
M  V30 677 C 62.0643 5.08126 1.6647 0
M  V30 678 C 63.3643 5.19722 -0.518331 0
M  V30 679 H 65.0583 2.93875 -0.572509 0
M  V30 680 H 62.6043 1.41315 -0.276768 0
M  V30 681 H 64.5573 3.86374 1.68204 0
M  V30 682 H 63.2813 2.64364 1.9178 0
M  V30 683 H 61.9403 3.66571 0.0461769 0
M  V30 684 H 61.5883 4.41762 2.40531 0
M  V30 685 H 61.2883 5.74122 1.25131 0
M  V30 686 H 62.8123 5.70246 2.18293 0
M  V30 687 H 64.2263 5.73232 -0.0883058 0
M  V30 688 H 62.6233 5.94026 -0.851679 0
M  V30 689 H 63.6933 4.64037 -1.40703 0
M  V30 690 N 65.0364 0.313813 1.54444 0
M  V30 691 C 65.9834 -0.55655 2.23989 0
M  V30 692 C 66.9534 -1.11943 1.22711 0
M  V30 693 O 68.1384 -1.16158 1.51367 0
M  V30 694 C 65.2784 -1.71635 2.99392 0
M  V30 695 C 64.3914 -1.18364 4.15468 0
M  V30 696 C 63.5264 -2.30834 4.78424 0
M  V30 697 C 62.5654 -1.74762 5.86622 0
M  V30 698 N 61.7024 -2.80855 6.43479 0
M  V30 699 H 66.5424 0.0430893 2.97969 0
M  V30 700 H 64.0794 0.0330359 1.47063 0
M  V30 701 H 66.0374 -2.39868 3.41349 0
M  V30 702 H 64.6674 -2.28742 2.27765 0
M  V30 703 H 63.7194 -0.393163 3.78363 0
M  V30 704 H 65.0314 -0.733262 4.93381 0
M  V30 705 H 64.1854 -3.0699 5.23299 0
M  V30 706 H 62.9244 -2.79204 3.99871 0
M  V30 707 H 61.9294 -0.970995 5.41158 0
M  V30 708 H 63.1544 -1.2728 6.67066 0
M  V30 709 H 61.1004 -3.28535 5.67804 0
M  V30 710 H 61.0174 -2.40351 7.16776 0
M  V30 711 H 62.2854 -3.5687 6.93011 0
M  V30 712 N 66.5145 -1.57545 0.0417849 0
M  V30 713 C 67.9255 -1.80011 -0.495259 0
M  V30 714 C 68.2765 -0.953199 -1.71489 0
M  V30 715 O 67.4015 -0.167138 -2.15754 0
M  V30 716 C 67.9965 -3.26482 -0.905265 0
M  V30 717 C 66.5555 -3.499 -1.38734 0
M  V30 718 C 65.7025 -2.74979 -0.358056 0
M  V30 719 H 68.6535 -1.56425 0.267736 0
M  V30 720 H 68.6745 -3.36887 -1.76882 0
M  V30 721 H 68.1865 -3.88096 -0.017401 0
M  V30 722 H 66.2875 -2.93553 -2.29471 0
M  V30 723 H 66.4005 -4.58615 -1.38598 0
M  V30 724 H 64.7645 -2.40834 -0.828912 0
M  V30 725 H 65.5475 -3.39315 0.521561 0
M  V30 726 N 67.9926 0.231505 -1.5589 0
M  V30 727 C 68.9226 1.29022 -1.94617 0
M  V30 728 C 69.9036 1.4941 -0.813067 0
M  V30 729 O 71.0886 1.6176 -1.07459 0
M  V30 730 C 68.2186 2.64199 -2.25424 0
M  V30 731 C 67.1726 2.58484 -3.41131 0
M  V30 732 C 66.4986 3.97599 -3.57518 0
M  V30 733 C 67.7986 2.1413 -4.76388 0
M  V30 734 H 69.4926 0.968563 -2.83301 0
M  V30 735 H 67.0386 0.464479 -1.36303 0
M  V30 736 H 68.9916 3.38413 -2.51107 0
M  V30 737 H 67.7156 2.98032 -1.33583 0
M  V30 738 H 66.3746 1.86727 -3.15481 0
M  V30 739 H 66.0226 4.28723 -2.6307 0
M  V30 740 H 65.7226 3.94659 -4.35337 0
M  V30 741 H 67.2466 4.7349 -3.85538 0
M  V30 742 H 68.6606 2.78083 -5.01341 0
M  V30 743 H 67.0576 2.2227 -5.57419 0
M  V30 744 H 68.1276 1.09331 -4.72414 0
M  V30 745 N 69.4707 1.49531 0.497807 0
M  V30 746 C 70.6957 1.63159 1.28039 0
M  V30 747 C 71.1207 0.30418 1.85624 0
M  V30 748 O 70.4787 -0.728618 1.66015 0
M  V30 749 C 70.5267 2.70537 2.38416 0
M  V30 750 O 69.6307 2.29931 3.42353 0
M  V30 751 H 68.9717 0.546001 0.377861 0
M  V30 752 H 71.5017 1.9574 0.59558 0
M  V30 753 H 71.5117 2.92802 2.84132 0
M  V30 754 H 70.1867 3.6689 1.95869 0
M  V30 755 H 68.7637 2.18009 3.02533 0
M  V30 756 N 70.9488 -0.749086 1.3866 0
M  V30 757 C 72.1948 -1.51056 1.35314 0
M  V30 758 C 72.5278 -1.94121 -0.0553751 0
M  V30 759 O 71.8028 -1.65763 -1.01749 0
M  V30 760 C 72.0858 -2.76003 2.31288 0
M  V30 761 C 71.9388 -2.39047 3.8102 0
M  V30 762 C 73.2578 -3.78046 2.2532 0
M  V30 763 H 70.3768 -0.547972 0.492844 0
M  V30 764 H 73.0188 -0.857628 1.69543 0
M  V30 765 H 71.1688 -3.31716 2.02229 0
M  V30 766 H 72.8408 -1.89074 4.20771 0
M  V30 767 H 71.0838 -1.71449 3.98482 0
M  V30 768 H 71.7548 -3.28462 4.4364 0
M  V30 769 H 74.2308 -3.31884 2.50983 0
M  V30 770 H 73.1068 -4.63159 2.94576 0
M  V30 771 H 73.3678 -4.23957 1.25352 0
M  V30 772 N 72.4269 -1.23603 -0.977757 0
M  V30 773 C 73.6519 -1.09735 -1.75991 0
M  V30 774 C 74.0769 0.346858 -1.84874 0
M  V30 775 O 73.4349 1.25093 -1.3123 0
M  V30 776 C 73.4829 -1.73051 -3.16363 0
M  V30 777 O 72.5869 -0.994452 -4.0023 0
M  V30 778 H 71.9279 -0.384476 -0.541364 0
M  V30 779 H 74.4579 -1.6371 -1.2272 0
M  V30 780 H 74.4679 -1.78398 -3.66931 0
M  V30 781 H 73.1429 -2.78137 -3.09213 0
M  V30 782 H 71.7199 -1.01812 -3.58732 0
M  V30 783 N 73.905 1.17692 -1.04816 0
M  V30 784 C 75.135 1.91508 -0.775128 0
M  V30 785 C 75.543 1.76844 0.67253 0
M  V30 786 O 74.886 1.10057 1.47082 0
M  V30 787 C 74.948 3.43167 -1.0713 0
M  V30 788 C 74.612 3.81612 -2.51438 0
M  V30 789 C 75.609 3.84772 -3.49638 0
M  V30 790 C 73.294 4.12687 -2.86348 0
M  V30 791 C 75.288 4.18469 -4.80794 0
M  V30 792 C 72.975 4.46053 -4.17708 0
M  V30 793 C 73.973 4.48921 -5.14741 0
M  V30 794 O 73.661 4.81504 -6.43746 0
M  V30 795 H 73.393 0.614575 -0.281555 0
M  V30 796 H 75.947 1.50206 -1.40098 0
M  V30 797 H 74.177 3.84745 -0.388342 0
M  V30 798 H 75.866 3.98239 -0.784883 0
M  V30 799 H 76.632 3.60893 -3.24008 0
M  V30 800 H 72.511 4.09627 -2.11486 0
M  V30 801 H 76.055 4.20623 -5.56527 0
M  V30 802 H 71.952 4.69393 -4.43103 0
M  V30 803 H 72.72 4.99377 -6.4851 0
M  V30 804 N 75.3831 0.828654 1.34056 0
M  V30 805 C 76.6601 0.341809 1.9259 0
M  V30 806 C 77.0401 -1.17158 1.75605 0
M  V30 807 O 76.3881 -1.98132 1.13824 0
M  V30 808 C 76.5981 0.777453 3.4023 0
M  V30 809 C 77.9461 0.779579 4.17382 0
M  V30 810 O 78.9701 0.7204 3.48839 0
M  V30 811 O 77.8291 0.857996 5.39723 0
M  V30 812 H 74.9231 0.0946085 0.821571 0
M  V30 813 H 77.4691 0.913827 1.42994 0
M  V30 814 H 76.2411 1.8196 3.46419 0
M  V30 815 H 75.8641 0.181444 3.97186 0
M  V30 816 N 76.8612 -1.46375 0.584142 0
M  V30 817 C 77.7932 -2.28443 -0.186119 0
M  V30 818 C 78.8062 -1.38596 -0.854115 0
M  V30 819 O 79.9952 -1.63183 -0.723438 0
M  V30 820 C 77.0952 -3.13671 -1.28311 0
M  V30 821 C 76.2682 -4.31652 -0.706758 0
M  V30 822 C 75.3272 -4.98267 -1.69163 0
M  V30 823 O 74.3532 -5.55815 -1.22712 0
M  V30 824 N 75.5552 -4.95408 -3.02575 0
M  V30 825 H 78.3202 -2.9519 0.517986 0
M  V30 826 H 75.8812 -1.56303 0.42201 0
M  V30 827 H 77.8732 -3.55101 -1.94128 0
M  V30 828 H 76.4432 -2.48989 -1.89005 0
M  V30 829 H 75.6632 -3.93989 0.128908 0
M  V30 830 H 76.9512 -5.07906 -0.301506 0
M  V30 831 H 76.3492 -4.49902 -3.42936 0
M  V30 832 H 74.9062 -5.40774 -3.63877 0
M  V30 833 N 78.3393 -0.321999 -1.54275 0
M  V30 834 C 79.3023 0.531975 -2.22941 0
M  V30 835 C 80.3023 1.04478 -1.22234 0
M  V30 836 O 81.4923 0.937452 -1.46825 0
M  V30 837 C 78.6243 1.73874 -2.93224 0
M  V30 838 H 79.8173 -0.0682612 -2.99822 0
M  V30 839 H 77.3703 -0.0730644 -1.56129 0
M  V30 840 H 78.1053 2.37825 -2.20476 0
M  V30 841 H 77.8903 1.37847 -3.6707 0
M  V30 842 H 79.3803 2.34496 -3.45545 0
M  V30 843 N 79.8174 1.5752 -0.0501392 0
M  V30 844 C 81.0454 1.96963 0.633492 0
M  V30 845 C 81.4604 0.927631 1.6444 0
M  V30 846 O 80.8174 -0.0882665 1.82286 0
M  V30 847 C 80.8684 3.36487 1.32132 0
M  V30 848 O 80.5894 4.36693 0.350894 0
M  V30 849 C 82.0904 3.90682 2.09481 0
M  V30 850 H 79.3104 0.648244 0.173266 0
M  V30 851 H 81.8544 2.0417 -0.116134 0
M  V30 852 H 80.0094 3.30434 2.02218 0
M  V30 853 H 80.4234 5.17702 0.841735 0
M  V30 854 H 81.8974 4.90591 2.5303 0
M  V30 855 H 82.3744 3.26053 2.94255 0
M  V30 856 H 82.9804 4.00069 1.44307 0
M  V30 857 N 81.2955 -0.223234 1.56011 0
M  V30 858 C 82.5205 -0.968978 1.83373 0
M  V30 859 C 82.9455 -1.77227 0.630254 0
M  V30 860 O 82.3035 -1.76345 -0.420959 0
M  V30 861 C 82.3515 -1.86363 3.08709 0
M  V30 862 O 81.4555 -2.95873 2.87285 0
M  V30 863 H 80.7965 -0.274461 0.604622 0
M  V30 864 H 83.3265 -0.237056 2.03222 0
M  V30 865 H 83.3365 -2.27376 3.38768 0
M  V30 866 H 82.0115 -1.27319 3.95933 0
M  V30 867 H 80.5885 -2.58818 2.68454 0
M  V30 868 N 82.7736 -1.49793 -0.48987 0
M  V30 869 C 83.7036 -1.70201 -1.59856 0
M  V30 870 C 84.6846 -0.55076 -1.60937 0
M  V30 871 O 85.8696 -0.787841 -1.77501 0
M  V30 872 C 82.9996 -1.77882 -2.98287 0
M  V30 873 C 81.9536 -2.92907 -3.12073 0
M  V30 874 C 81.2796 -2.85712 -4.51965 0
M  V30 875 C 82.5796 -4.3369 -2.91051 0
M  V30 876 H 84.2736 -2.63025 -1.43032 0
M  V30 877 H 81.8196 -1.26574 -0.686664 0
M  V30 878 H 83.7726 -1.90744 -3.75759 0
M  V30 879 H 82.4966 -0.816653 -3.16225 0
M  V30 880 H 81.1556 -2.79665 -2.37029 0
M  V30 881 H 80.8036 -1.8738 -4.66795 0
M  V30 882 H 80.5036 -3.62921 -4.62128 0
M  V30 883 H 82.0276 -3.00598 -5.31482 0
M  V30 884 H 83.4416 -4.47555 -3.58284 0
M  V30 885 H 81.8386 -5.12205 -3.12675 0
M  V30 886 H 82.9086 -4.47362 -1.87071 0
M  V30 887 N 84.2517 0.741722 -1.39055 0
M  V30 888 C 85.6677 1.04638 -1.20512 0
M  V30 889 C 85.8677 2.01405 -0.0620218 0
M  V30 890 O 84.9237 2.45547 0.588457 0
M  V30 891 C 86.2367 1.6151 -2.53643 0
M  V30 892 C 87.7847 1.73623 -2.6043 0
M  V30 893 C 88.2597 2.33906 -3.93767 0
M  V30 894 N 89.7507 2.41323 -3.9537 0
M  V30 895 C 90.4857 2.88888 -4.95309 0
M  V30 896 N 89.9817 3.36401 -6.05645 0
M  V30 897 N 91.7747 2.88037 -4.82692 0
M  V30 898 H 83.9257 0.0998155 -2.12165 0
M  V30 899 H 86.1887 0.106907 -0.941953 0
M  V30 900 H 85.8947 0.978739 -3.37807 0
M  V30 901 H 85.7687 2.60411 -2.72885 0
M  V30 902 H 88.1557 2.36384 -1.76655 0
M  V30 903 H 88.2367 0.733945 -2.45045 0
M  V30 904 H 87.8807 1.71776 -4.7797 0
M  V30 905 H 87.8107 3.34799 -4.06469 0
M  V30 906 H 90.3017 2.07734 -3.15682 0
M  V30 907 H 90.6147 3.71186 -6.77821 0
M  V30 908 H 88.9597 3.34427 -6.09248 0
M  V30 909 H 92.1507 2.50237 -3.95599 0
M  V30 910 H 92.3237 3.24792 -5.60726 0
M  V30 911 N 85.7298 1.2412 0.971189 0
M  V30 912 C 86.9788 1.07284 1.70801 0
M  V30 913 C 87.2918 -0.388902 1.91695 0
M  V30 914 O 88.4978 -0.677379 2.62914 0
M  V30 915 C 86.9538 1.87145 3.07416 0
M  V30 916 C 86.5618 3.37707 2.94377 0
M  V30 917 C 88.3058 1.78828 3.84995 0
M  V30 918 C 86.2128 4.09925 4.26281 0
M  V30 919 H 85.1428 0.397854 0.64049 0
M  V30 920 H 87.7938 1.4817 1.0825 0
M  V30 921 H 86.1758 1.39071 3.70777 0
M  V30 922 H 87.3498 3.93335 2.4005 0
M  V30 923 H 85.6648 3.46938 2.30267 0
M  V30 924 H 88.2618 2.30089 4.82662 0
M  V30 925 H 88.6048 0.75284 4.09436 0
M  V30 926 H 89.1378 2.24563 3.28354 0
M  V30 927 H 85.8768 5.13813 4.07033 0
M  V30 928 H 85.3968 3.59083 4.80437 0
M  V30 929 H 87.0758 4.1673 4.94919 0
M  V30 930 N 87.2079 -1.17134 1.05439 0
M  V30 931 C 88.1379 -2.2342 0.678649 0
M  V30 932 C 89.1189 -1.66971 -0.32476 0
M  V30 933 O 90.3039 -1.93149 -0.201802 0
M  V30 934 C 87.4339 -3.47256 0.0552099 0
M  V30 935 C 86.3879 -4.16543 0.98365 0
M  V30 936 C 85.7139 -5.34231 0.223961 0
M  V30 937 C 87.0139 -4.68495 2.3089 0
M  V30 938 H 88.7079 -2.55105 1.56722 0
M  V30 939 H 86.2539 -1.2262 0.754998 0
M  V30 940 H 88.2069 -4.20828 -0.21946 0
M  V30 941 H 86.9309 -3.14846 -0.868319 0
M  V30 942 H 85.5899 -3.44887 1.24293 0
M  V30 943 H 85.2379 -4.98071 -0.702412 0
M  V30 944 H 84.9379 -5.81527 0.842627 0
M  V30 945 H 86.4619 -6.10585 -0.0433671 0
M  V30 946 H 87.8759 -5.33691 2.09396 0
M  V30 947 H 86.2729 -5.26379 2.88176 0
M  V30 948 H 87.3429 -3.85169 2.94572 0
M  V30 949 N 88.686 -0.835752 -1.33615 0
M  V30 950 C 89.634 -0.255238 -2.31195 0
M  V30 951 C 90.628 0.61107 -1.57995 0
M  V30 952 O 91.834 0.500979 -1.72888 0
M  V30 953 H 88.209 -0.0638085 -0.749288 0
M  V30 954 H 90.18 -1.09283 -2.77669 0
M  V30 955 C 88.929 0.55754 -3.43201 0
M  V30 956 H 88.252 -0.0997553 -3.99676 0
M  V30 957 H 89.692 0.929622 -4.13683 0
M  V30 958 C 88.151 1.73515 -2.88781 0
M  V30 959 O 88.681 2.83376 -2.84712 0
M  V30 960 N 86.887 1.55603 -2.4543 0
M  V30 961 H 86.434 0.662354 -2.48939 0
M  V30 962 H 86.392 2.34545 -2.09371 0
M  V30 963 N 90.1641 1.46063 -0.591896 0
M  V30 964 C 91.1121 2.32124 0.148739 0
M  V30 965 C 92.1061 1.45035 0.875286 0
M  V30 966 O 93.3121 1.61609 0.792632 0
M  V30 967 H 89.6871 0.749024 0.066832 0
M  V30 968 H 91.6581 2.92392 -0.595783 0
M  V30 969 C 90.4071 3.28373 1.1431 0
M  V30 970 H 89.7301 3.95371 0.59346 0
M  V30 971 H 91.1701 3.91352 1.63155 0
M  V30 972 C 89.6291 2.54393 2.20875 0
M  V30 973 O 90.1591 2.31373 3.28374 0
M  V30 974 N 88.3651 2.14797 1.95731 0
M  V30 975 H 87.9121 2.33719 1.08319 0
M  V30 976 H 87.8701 1.65619 2.67241 0
M  V30 977 N 91.6422 0.330177 1.54103 0
M  V30 978 C 92.8902 -0.269871 2.0029 0
M  V30 979 C 93.2112 -1.52133 1.21986 0
M  V30 980 O 92.4812 -1.93212 0.323438 0
M  V30 981 H 91.0612 -0.10271 0.739905 0
M  V30 982 H 93.7232 0.448249 1.89675 0
M  V30 983 H 92.8192 -0.52166 3.07709 0
M  V30 984 N 93.1203 -1.57491 0.0584922 0
M  V30 985 C 94.0703 -2.08474 -0.923188 0
M  V30 986 C 95.0543 -0.991479 -1.26722 0
M  V30 987 O 96.2463 -1.25473 -1.24842 0
M  V30 988 C 93.3753 -2.6392 -2.19548 0
M  V30 989 C 92.4613 -3.80227 -1.87852 0
M  V30 990 N 92.8523 -4.89714 -1.26546 0
M  V30 991 C 91.1503 -3.89271 -2.17679 0
M  V30 992 C 91.8513 -5.70689 -1.12644 0
M  V30 993 N 90.8273 -5.18531 -1.63176 0
M  V30 994 H 94.6293 -2.90517 -0.444653 0
M  V30 995 H 92.1433 -1.61745 -0.145764 0
M  V30 996 H 94.1403 -2.98752 -2.9078 0
M  V30 997 H 92.8003 -1.83318 -2.68001 0
M  V30 998 H 93.8113 -5.09358 -0.936757 0
M  V30 999 H 90.4883 -3.19623 -2.68602 0
M  V30 1000 H 91.8783 -6.6875 -0.6499 0
M  V30 1001 N 94.5984 0.214957 -1.56127 0
M  V30 1002 C 95.5614 1.24997 -1.92116 0
M  V30 1003 C 96.5614 1.39467 -0.800344 0
M  V30 1004 O 97.7514 1.37619 -1.06802 0
M  V30 1005 C 94.8834 2.62271 -2.17777 0
M  V30 1006 H 96.0764 0.942875 -2.84693 0
M  V30 1007 H 93.6294 0.455654 -1.49511 0
M  V30 1008 H 94.3644 2.98068 -1.27773 0
M  V30 1009 H 94.1494 2.53143 -2.99434 0
M  V30 1010 H 95.6394 3.36946 -2.46693 0
M  V30 1011 N 96.0765 1.50051 0.48192 0
M  V30 1012 C 97.3235 1.60498 1.23477 0
M  V30 1013 C 97.6515 0.300331 1.92167 0
M  V30 1014 O 96.9065 -0.713094 1.82246 0
M  V30 1015 C 97.2055 2.72717 2.30998 0
M  V30 1016 C 96.8715 4.13572 1.79636 0
M  V30 1017 C 95.5335 4.519 1.65348 0
M  V30 1018 C 97.8855 5.01649 1.41412 0
M  V30 1019 C 95.2135 5.76057 1.11244 0
M  V30 1020 C 97.5655 6.26343 0.887538 0
M  V30 1021 C 96.2295 6.63483 0.731207 0
M  V30 1022 H 95.4995 0.587303 0.451836 0
M  V30 1023 H 98.1465 1.83948 0.532468 0
M  V30 1024 H 96.4515 2.43312 3.07094 0
M  V30 1025 H 98.1485 2.78006 2.88988 0
M  V30 1026 H 94.7385 3.83329 1.91721 0
M  V30 1027 H 98.9225 4.72679 1.51289 0
M  V30 1028 H 94.1785 6.03516 0.978686 0
M  V30 1029 H 98.3525 6.93958 0.582654 0
M  V30 1030 H 95.9795 7.59568 0.309806 0
M  V30 1031 N 97.5546 -0.734337 1.39446 0
M  V30 1032 C 98.5026 -1.86971 1.38364 0
M  V30 1033 C 99.4966 -1.67288 0.266687 0
M  V30 1034 O 100.703 -1.74621 0.436755 0
M  V30 1035 H 97.0776 -0.615474 0.432082 0
M  V30 1036 H 99.0486 -1.85 2.34132 0
M  V30 1037 C 97.7976 -3.2466 1.24465 0
M  V30 1038 H 97.1206 -3.40402 2.09682 0
M  V30 1039 H 98.5606 -4.04292 1.27764 0
M  V30 1040 C 97.0196 -3.36867 -0.0468674 0
M  V30 1041 O 97.5496 -3.88618 -1.01681 0
M  V30 1042 N 95.7556 -2.90391 -0.110145 0
M  V30 1043 H 95.3026 -2.48466 0.679868 0
M  V30 1044 H 95.2606 -2.98939 -0.973799 0
M  V30 1045 N 99.0327 -1.24633 -0.964593 0
M  V30 1046 C 100.279 -1.08949 -1.71049 0
M  V30 1047 C 100.612 0.370302 -1.90637 0
M  V30 1048 O 99.8867 1.27349 -1.47011 0
M  V30 1049 C 100.17 -1.83329 -3.0994 0
M  V30 1050 C 100.023 -3.37077 -2.97824 0
M  V30 1051 C 101.342 -1.60846 -4.09654 0
M  V30 1052 H 98.4607 -0.397178 -0.620821 0
M  V30 1053 H 101.103 -1.5334 -1.12191 0
M  V30 1054 H 99.2527 -1.45597 -3.60186 0
M  V30 1055 H 100.925 -3.84425 -2.5498 0
M  V30 1056 H 99.1677 -3.65298 -2.33965 0
M  V30 1057 H 99.8387 -3.84324 -3.96231 0
M  V30 1058 H 102.315 -1.93674 -3.68279 0
M  V30 1059 H 101.191 -2.1534 -5.04896 0
M  V30 1060 H 101.452 -0.547434 -4.38698 0
M  V30 1061 N 100.511 1.16574 -1.06058 0
M  V30 1062 C 101.421 2.2452 -0.680282 0
M  V30 1063 C 102.437 1.71348 0.302604 0
M  V30 1064 O 103.613 2.00822 0.152513 0
M  V30 1065 C 100.678 3.46629 -0.0700315 0
M  V30 1066 C 99.7388 4.14849 -1.10448 0
M  V30 1067 C 98.9718 5.31129 -0.523256 0
M  V30 1068 O 99.1948 5.66514 0.664709 0
M  V30 1069 O 98.1288 5.88526 -1.26179 0
M  V30 1070 H 101.955 2.59355 -1.58015 0
M  V30 1071 H 99.5398 1.24043 -0.832694 0
M  V30 1072 H 101.422 4.20543 0.268667 0
M  V30 1073 H 100.097 3.13573 0.803353 0
M  V30 1074 H 99.0038 3.42916 -1.49532 0
M  V30 1075 H 100.337 4.51954 -1.94931 0
M  V30 1076 N 101.989 0.842826 1.3317 0
M  V30 1077 C 103.236 0.440447 1.97652 0
M  V30 1078 C 103.564 -1.00123 1.6675 0
M  V30 1079 O 102.819 -1.7155 0.941761 0
M  V30 1080 C 103.118 0.612607 3.52111 0
M  V30 1081 C 102.784 2.02297 4.02972 0
M  V30 1082 C 101.446 2.40874 4.16573 0
M  V30 1083 C 103.798 2.94402 4.30089 0
M  V30 1084 C 101.126 3.70852 4.54627 0
M  V30 1085 C 103.478 4.23865 4.69597 0
M  V30 1086 C 102.142 4.62392 4.81404 0
M  V30 1087 H 101.412 0.161171 0.72326 0
M  V30 1088 H 104.059 1.07061 1.58777 0
M  V30 1089 H 102.364 -0.100849 3.9167 0
M  V30 1090 H 104.061 0.2815 4.00011 0
M  V30 1091 H 100.651 1.71338 3.92863 0
M  V30 1092 H 104.835 2.65835 4.19101 0
M  V30 1093 H 100.091 4.00501 4.61962 0
M  V30 1094 H 104.265 4.95306 4.89536 0
M  V30 1095 H 101.892 5.63154 5.10648 0
M  V30 1096 N 103.467 -1.45747 0.599634 0
M  V30 1097 C 104.744 -1.95585 0.0240846 0
M  V30 1098 C 105.124 -1.54217 -1.44154 0
M  V30 1099 O 104.472 -0.800903 -2.14004 0
M  V30 1100 C 104.682 -3.48344 0.21385 0
M  V30 1101 C 106.03 -4.24504 0.0904902 0
M  V30 1102 O 107.054 -3.55911 0.143558 0
M  V30 1103 O 105.913 -5.46491 -0.0310766 0
M  V30 1104 H 103.007 -0.82602 -0.0402478 0
M  V30 1105 H 105.553 -1.55951 0.669139 0
M  V30 1106 H 104.325 -3.71397 1.23206 0
M  V30 1107 H 103.948 -3.9485 -0.466842 0
M  V30 1108 N 104.945 -0.338344 -1.53925 0
M  V30 1109 C 106.222 0.314774 -1.93051 0
M  V30 1110 C 106.602 1.68669 -1.26941 0
M  V30 1111 O 105.95 2.24636 -0.418445 0
M  V30 1112 C 106.16 0.392249 -3.46789 0
M  V30 1113 C 107.508 0.645554 -4.19664 0
M  V30 1114 O 108.532 0.474575 -3.53024 0
M  V30 1115 O 107.391 0.976408 -5.37707 0
M  V30 1116 H 104.485 0.182598 -0.80659 0
M  V30 1117 H 107.031 -0.389141 -1.65178 0
M  V30 1118 H 105.803 -0.570702 -3.87116 0
M  V30 1119 H 105.426 1.14316 -3.80812 0
M  V30 1120 N 106.423 1.57458 -0.0668435 0
M  V30 1121 C 107.648 1.9804 0.616027 0
M  V30 1122 C 108.073 0.944771 1.62652 0
M  V30 1123 O 107.431 -0.0902094 1.81075 0
M  V30 1124 C 107.479 3.37665 1.26549 0
M  V30 1125 O 106.583 3.36701 2.38131 0
M  V30 1126 H 105.924 0.644719 0.158849 0
M  V30 1127 H 108.454 2.04121 -0.139891 0
M  V30 1128 H 108.464 3.7474 1.6135 0
M  V30 1129 H 107.139 4.12573 0.525016 0
M  V30 1130 H 105.716 3.1139 2.0516 0
M  V30 1131 N 107.901 -0.206675 1.56239 0
M  V30 1132 C 108.833 -1.27997 1.9013 0
M  V30 1133 C 109.846 -1.42299 0.790883 0
M  V30 1134 O 111.035 -1.42931 1.06925 0
M  V30 1135 C 108.135 -2.65368 2.10792 0
M  V30 1136 C 107.308 -2.72824 3.41886 0
M  V30 1137 C 106.367 -3.9131 3.51799 0
M  V30 1138 O 105.393 -3.78953 4.24716 0
M  V30 1139 N 106.595 -5.06265 2.84035 0
M  V30 1140 H 109.36 -0.992444 2.82791 0
M  V30 1141 H 106.921 -0.396652 1.56966 0
M  V30 1142 H 108.913 -3.43039 2.14724 0
M  V30 1143 H 107.483 -2.86657 1.24685 0
M  V30 1144 H 106.703 -1.81515 3.49923 0
M  V30 1145 H 107.991 -2.74786 4.28217 0
M  V30 1146 H 107.389 -5.19203 2.246 0
M  V30 1147 H 105.946 -5.81925 2.93609 0
M  V30 1148 N 109.379 -1.50304 -0.473955 0
M  V30 1149 C 110.656 -1.51667 -1.23518 0
M  V30 1150 C 111.036 -0.259701 -2.09496 0
M  V30 1151 O 110.384 0.756986 -2.15597 0
M  V30 1152 C 110.594 -2.81082 -2.06868 0
M  V30 1153 C 111.942 -3.31631 -2.65153 0
M  V30 1154 O 112.966 -2.82384 -2.17113 0
M  V30 1155 O 111.825 -4.17471 -3.52675 0
M  V30 1156 H 108.919 -0.60822 -0.560355 0
M  V30 1157 H 111.465 -1.62592 -0.486011 0
M  V30 1158 H 110.237 -3.64041 -1.4349 0
M  V30 1159 H 109.86 -2.73146 -2.88924 0
M  V30 1160 N 110.857 0.726932 -1.39834 0
M  V30 1161 C 111.804 1.841 -1.39197 0
M  V30 1162 C 112.774 1.642 -0.250502 0
M  V30 1163 O 113.959 1.85494 -0.446846 0
M  V30 1164 C 111.099 3.21697 -1.24919 0
M  V30 1165 C 110.212 3.53247 -2.48678 0
M  V30 1166 C 109.347 4.80289 -2.26928 0
M  V30 1167 C 108.386 5.04707 -3.4632 0
M  V30 1168 N 107.523 6.22956 -3.23836 0
M  V30 1169 H 112.363 1.83979 -2.34427 0
M  V30 1170 H 109.9 0.898876 -1.16442 0
M  V30 1171 H 111.858 4.01137 -1.1465 0
M  V30 1172 H 110.488 3.21076 -0.333153 0
M  V30 1173 H 109.54 2.68447 -2.69519 0
M  V30 1174 H 110.852 3.67205 -3.37582 0
M  V30 1175 H 110.006 5.67725 -2.13947 0
M  V30 1176 H 108.745 4.68519 -1.35431 0
M  V30 1177 H 107.75 4.1573 -3.5979 0
M  V30 1178 H 108.975 5.18357 -4.38729 0
M  V30 1179 H 106.921 6.12459 -2.35011 0
M  V30 1180 H 106.838 6.37539 -4.063 0
M  V30 1181 H 108.106 7.1321 -3.14566 0
M  V30 1182 N 112.336 1.25143 0.95797 0
M  V30 1183 C 113.299 1.05321 2.03569 0
M  V30 1184 C 114.299 0.007152 1.60798 0
M  V30 1185 O 115.489 0.24903 1.72411 0
M  V30 1186 C 112.621 0.598394 3.35607 0
M  V30 1187 H 113.814 2.00986 2.22586 0
M  V30 1188 H 111.367 1.07502 1.13459 0
M  V30 1189 H 112.102 -0.361014 3.22284 0
M  V30 1190 H 111.887 1.35351 3.67998 0
M  V30 1191 H 113.377 0.48104 4.1482 0
M  V30 1192 N 113.814 -1.1601 1.06675 0
M  V30 1193 C 115.06 -1.86909 0.786945 0
M  V30 1194 C 115.393 -1.81717 -0.685018 0
M  V30 1195 O 114.668 -1.23551 -1.50218 0
M  V30 1196 C 114.951 -3.36313 1.28707 0
M  V30 1197 C 114.804 -3.50175 2.82308 0
M  V30 1198 C 116.123 -4.3084 0.898071 0
M  V30 1199 H 113.242 -0.678677 0.287343 0
M  V30 1200 H 115.884 -1.36336 1.32334 0
M  V30 1201 H 114.034 -3.79513 0.830768 0
M  V30 1202 H 115.706 -3.15886 3.36175 0
M  V30 1203 H 113.949 -2.91959 3.20847 0
M  V30 1204 H 114.62 -4.55116 3.12368 0
M  V30 1205 H 117.096 -3.95561 1.29114 0
M  V30 1206 H 115.972 -5.33876 1.27543 0
M  V30 1207 H 116.233 -4.41662 -0.196651 0
M  V30 1208 N 115.292 -0.849877 -1.32721 0
M  V30 1209 C 116.222 -0.306308 -2.31482 0
M  V30 1210 C 117.203 0.591952 -1.59468 0
M  V30 1211 O 118.388 0.513199 -1.87296 0
M  V30 1212 C 115.518 0.510204 -3.43532 0
M  V30 1213 C 114.472 -0.293209 -4.26994 0
M  V30 1214 C 113.798 0.647743 -5.30762 0
M  V30 1215 C 115.098 -1.51634 -4.99804 0
M  V30 1216 H 116.792 -1.13153 -2.77195 0
M  V30 1217 H 114.338 -0.545553 -1.33266 0
M  V30 1218 H 116.291 0.900856 -4.11658 0
M  V30 1219 H 115.015 1.36874 -2.96535 0
M  V30 1220 H 113.674 -0.665555 -3.60508 0
M  V30 1221 H 113.322 1.50299 -4.8002 0
M  V30 1222 H 113.022 0.11422 -5.87489 0
M  V30 1223 H 114.546 1.03567 -6.01753 0
M  V30 1224 H 115.96 -1.19824 -5.60638 0
M  V30 1225 H 114.357 -1.98745 -5.66234 0
M  V30 1226 H 115.427 -2.28018 -4.27943 0
M  V30 1227 N 116.77 1.45427 -0.607355 0
M  V30 1228 C 117.717 2.3053 0.111625 0
M  V30 1229 C 118.687 1.4209 0.860216 0
M  V30 1230 O 119.872 1.71019 0.845998 0
M  V30 1231 C 117.012 3.26992 1.10319 0
M  V30 1232 C 116.125 4.30535 0.355493 0
M  V30 1233 C 115.26 5.14105 1.33676 0
M  V30 1234 C 114.299 6.09376 0.576862 0
M  V30 1235 N 113.436 6.85727 1.5074 0
M  V30 1236 H 118.276 2.91477 -0.620093 0
M  V30 1237 H 115.813 1.43631 -0.317594 0
M  V30 1238 H 117.771 3.81385 1.6912 0
M  V30 1239 H 116.401 2.67799 1.80232 0
M  V30 1240 H 115.453 3.78805 -0.348023 0
M  V30 1241 H 116.765 4.98235 -0.237423 0
M  V30 1242 H 115.919 5.72897 1.99684 0
M  V30 1243 H 114.658 4.46423 1.9636 0
M  V30 1244 H 113.663 5.49715 -0.0968519 0
M  V30 1245 H 114.888 6.79085 -0.0449341 0
M  V30 1246 H 112.834 6.20735 2.12189 0
M  V30 1247 H 112.751 7.49778 0.967913 0
M  V30 1248 H 114.019 7.4906 2.15706 0
M  V30 1249 N 118.248 0.346503 1.53744 0
M  V30 1250 C 119.496 -0.248612 2.00565 0
M  V30 1251 C 119.817 -1.5083 1.23593 0
M  V30 1252 O 119.087 -1.92858 0.343912 0
M  V30 1253 H 117.667 -0.0948564 0.740953 0
M  V30 1254 H 120.329 0.468341 1.89189 0
M  V30 1255 H 119.425 -0.488994 3.08245 0
M  V30 1256 N 119.726 -1.57421 0.075193 0
M  V30 1257 C 120.974 -1.93236 -0.591974 0
M  V30 1258 C 121.295 -0.956241 -1.69944 0
M  V30 1259 O 120.565 -0.00494792 -1.95899 0
M  V30 1260 H 119.145 -0.713355 -0.22166 0
M  V30 1261 H 121.807 -1.9444 0.133848 0
M  V30 1262 H 120.903 -2.95131 -1.01509 0
M  V30 1263 N 121.204 0.198386 -1.56346 0
M  V30 1264 C 122.615 0.763358 -1.70381 0
M  V30 1265 C 122.966 1.83995 -0.681203 0
M  V30 1266 O 122.091 2.15785 0.16305 0
M  V30 1267 C 122.686 1.39143 -3.08909 0
M  V30 1268 C 121.245 1.90352 -3.2472 0
M  V30 1269 C 120.392 0.772233 -2.6633 0
M  V30 1270 H 123.343 -0.0266377 -1.58678 0
M  V30 1271 H 123.364 2.26076 -3.06055 0
M  V30 1272 H 122.876 0.607638 -3.83314 0
M  V30 1273 H 120.977 2.71461 -2.55225 0
M  V30 1274 H 121.09 2.06757 -4.3219 0
M  V30 1275 H 119.454 1.18566 -2.2542 0
M  V30 1276 H 120.237 0.00073556 -3.433 0
M  V30 1277 N 122.682 1.50554 0.465978 0
M  V30 1278 C 123.612 1.72722 1.57128 0
M  V30 1279 C 124.593 0.576294 1.6004 0
M  V30 1280 O 125.778 0.81598 1.76225 0
M  V30 1281 C 122.908 1.82605 2.95419 0
M  V30 1282 C 121.862 2.97835 3.07373 0
M  V30 1283 C 121.188 2.92867 4.47363 0
M  V30 1284 C 122.488 4.38265 2.84114 0
M  V30 1285 H 124.182 2.65267 1.38829 0
M  V30 1286 H 121.728 1.2765 0.666441 0
M  V30 1287 H 123.681 1.96698 3.72677 0
M  V30 1288 H 122.405 0.866858 3.14886 0
M  V30 1289 H 121.064 2.83401 2.3255 0
M  V30 1290 H 120.712 1.94783 4.63755 0
M  V30 1291 H 120.412 3.70227 4.56296 0
M  V30 1292 H 121.936 3.09015 5.26633 0
M  V30 1293 H 123.35 4.53198 3.51118 0
M  V30 1294 H 121.747 5.17115 3.04487 0
M  V30 1295 H 122.817 4.50281 1.7993 0
M  V30 1296 N 124.16 -0.719506 1.40217 0
M  V30 1297 C 125.437 -1.47221 1.28784 0
M  V30 1298 C 125.817 -2.10883 -0.0956067 0
M  V30 1299 O 125.165 -1.99833 -1.10811 0
M  V30 1300 C 125.375 -2.5111 2.42373 0
M  V30 1301 C 126.723 -3.17053 2.82423 0
M  V30 1302 O 127.747 -2.61429 2.41937 0
M  V30 1303 O 126.606 -4.17742 3.52355 0
M  V30 1304 H 123.7 -0.654491 0.50554 0
M  V30 1305 H 126.246 -0.752014 1.52128 0
M  V30 1306 H 125.018 -2.02556 3.34793 0
M  V30 1307 H 124.641 -3.3067 2.20778 0
M  V30 1308 N 125.638 -1.25649 -0.95132 0
M  V30 1309 C 126.886 -1.10375 -1.69298 0
M  V30 1310 C 127.207 0.355339 -1.91735 0
M  V30 1311 O 126.477 1.25188 -1.50681 0
M  V30 1312 H 125.057 -0.405461 -0.627384 0
M  V30 1313 H 127.719 -1.57823 -1.14358 0
M  V30 1314 H 126.815 -1.61465 -2.67087 0
M  V30 1315 N 127.117 1.15442 -1.07289 0
M  V30 1316 C 128.345 1.90096 -0.81676 0
M  V30 1317 C 128.76 1.7798 0.629966 0
M  V30 1318 O 128.117 1.1313 1.43206 0
M  V30 1319 C 128.168 3.40466 -1.21512 0
M  V30 1320 O 127.889 3.52232 -2.60508 0
M  V30 1321 C 129.39 4.32145 -0.988198 0
M  V30 1322 H 126.61 0.602495 -0.295366 0
M  V30 1323 H 129.154 1.4627 -1.42918 0
M  V30 1324 H 127.309 3.81958 -0.647039 0
M  V30 1325 H 127.723 4.45549 -2.76742 0
M  V30 1326 H 129.197 5.36072 -1.31645 0
M  V30 1327 H 129.674 4.39135 0.0755063 0
M  V30 1328 H 130.28 3.96395 -1.54115 0
M  V30 1329 N 128.595 0.856903 1.32268 0
M  V30 1330 C 129.825 0.47475 2.01071 0
M  V30 1331 C 130.233 -0.933746 1.64553 0
M  V30 1332 O 129.576 -1.62114 0.863989 0
M  V30 1333 C 129.638 0.536746 3.55471 0
M  V30 1334 C 129.302 1.90453 4.15423 0
M  V30 1335 C 130.299 2.87029 4.33486 0
M  V30 1336 C 127.984 2.20229 4.51447 0
M  V30 1337 C 129.978 4.11532 4.86744 0
M  V30 1338 C 127.665 3.44984 5.0441 0
M  V30 1339 C 128.663 4.40452 5.22007 0
M  V30 1340 O 128.351 5.62998 5.73837 0
M  V30 1341 H 128.083 0.184778 0.650256 0
M  V30 1342 H 130.637 1.15615 1.69771 0
M  V30 1343 H 128.867 -0.20152 3.86175 0
M  V30 1344 H 130.556 0.169875 4.05544 0
M  V30 1345 H 131.322 2.6533 4.05986 0
M  V30 1346 H 127.201 1.46705 4.37034 0
M  V30 1347 H 130.745 4.86056 5.00395 0
M  V30 1348 H 126.642 3.66532 5.31342 0
M  V30 1349 H 127.41 5.64987 5.92226 0
M  V30 1350 N 130.073 -1.45103 0.615059 0
M  V30 1351 C 131.489 -1.57137 0.279322 0
M  V30 1352 C 131.689 -1.60523 -1.21797 0
M  V30 1353 O 130.745 -1.53956 -2.00134 0
M  V30 1354 C 132.058 -2.85062 0.957083 0
M  V30 1355 C 133.606 -2.98749 0.933706 0
M  V30 1356 C 134.081 -4.29455 1.59162 0
M  V30 1357 N 135.572 -4.36231 1.55746 0
M  V30 1358 C 136.307 -5.36051 2.0356 0
M  V30 1359 N 135.803 -6.42367 2.59494 0
M  V30 1360 N 137.596 -5.27456 1.94284 0
M  V30 1361 H 129.747 -1.41148 1.58717 0
M  V30 1362 H 132.01 -0.675331 0.665306 0
M  V30 1363 H 131.716 -2.88488 2.01166 0
M  V30 1364 H 131.59 -3.7407 0.48494 0
M  V30 1365 H 133.977 -2.94886 -0.112347 0
M  V30 1366 H 134.058 -2.11132 1.44419 0
M  V30 1367 H 133.702 -4.34077 2.63704 0
M  V30 1368 H 133.632 -5.15901 1.0561 0
M  V30 1369 H 136.123 -3.60011 1.14893 0
M  V30 1370 H 136.436 -7.14793 2.93752 0
M  V30 1371 H 134.781 -6.43097 2.63537 0
M  V30 1372 H 137.972 -4.43308 1.5032 0
M  V30 1373 H 138.145 -6.05099 2.3186 0
M  V30 1374 N 131.551 -0.354651 -1.53558 0
M  V30 1375 C 132.481 0.489091 -2.2832 0
M  V30 1376 C 133.462 1.09324 -1.30316 0
M  V30 1377 O 134.647 1.11255 -1.59173 0
M  V30 1378 C 131.777 1.63456 -3.0643 0
M  V30 1379 C 130.731 1.1582 -4.12031 0
M  V30 1380 C 130.057 2.39305 -4.7816 0
M  V30 1381 C 131.357 0.250731 -5.21698 0
M  V30 1382 H 133.051 -0.134614 -2.99097 0
M  V30 1383 H 130.597 -0.0661826 -1.43848 0
M  V30 1384 H 132.55 2.23136 -3.57475 0
M  V30 1385 H 131.274 2.28533 -2.33325 0
M  V30 1386 H 129.933 0.584146 -3.61916 0
M  V30 1387 H 129.581 3.02814 -4.01637 0
M  V30 1388 H 129.281 2.08109 -5.49513 0
M  V30 1389 H 130.805 2.99691 -5.31994 0
M  V30 1390 H 132.219 0.754695 -5.68311 0
M  V30 1391 H 130.616 0.0301468 -6.00092 0
M  V30 1392 H 131.686 -0.710125 -4.79672 0
M  V30 1393 N 133.029 1.57378 -0.0835403 0
M  V30 1394 C 134.278 1.93106 0.582498 0
M  V30 1395 C 134.591 0.96651 1.70053 0
M  V30 1396 O 135.797 1.21705 2.42693 0
M  V30 1397 C 134.253 3.43076 1.08751 0
M  V30 1398 C 133.861 4.48 -0.000146404 0
M  V30 1399 C 135.605 3.87785 1.72694 0
M  V30 1400 C 133.512 5.89113 0.519568 0
M  V30 1401 H 132.442 0.720775 0.221358 0
M  V30 1402 H 135.093 1.82821 -0.157675 0
M  V30 1403 H 133.475 3.48474 1.88101 0
M  V30 1404 H 134.649 4.54233 -0.775199 0
M  V30 1405 H 132.964 4.1283 -0.54406 0
M  V30 1406 H 135.561 4.90604 2.1263 0
M  V30 1407 H 135.904 3.25796 2.59158 0
M  V30 1408 H 136.437 3.8504 0.999457 0
M  V30 1409 H 133.176 6.54775 -0.308186 0
M  V30 1410 H 132.696 5.86376 1.26188 0
M  V30 1411 H 134.375 6.39346 0.992237 0
M  V30 1412 N 134.507 -0.190092 1.56449 0
M  V30 1413 C 135.439 -1.25973 1.91477 0
M  V30 1414 C 136.452 -1.41452 0.805931 0
M  V30 1415 O 137.641 -1.41789 1.08435 0
M  V30 1416 C 134.741 -2.63117 2.13594 0
M  V30 1417 C 133.914 -2.69182 3.4476 0
M  V30 1418 C 132.973 -3.87557 3.5593 0
M  V30 1419 O 131.999 -3.74427 4.28711 0
M  V30 1420 N 133.201 -5.03224 2.89388 0
M  V30 1421 H 135.966 -0.962394 2.83828 0
M  V30 1422 H 133.527 -0.379981 1.57378 0
M  V30 1423 H 135.519 -3.40742 2.1835 0
M  V30 1424 H 134.089 -2.85319 1.27719 0
M  V30 1425 H 133.309 -1.77793 3.51828 0
M  V30 1426 H 134.597 -2.70229 4.31107 0
M  V30 1427 H 133.995 -5.16791 2.30094 0
M  V30 1428 H 132.552 -5.78778 2.99764 0
M  V30 1429 N 135.985 -1.50799 -0.457987 0
M  V30 1430 C 137.232 -1.62442 -1.20908 0
M  V30 1431 C 137.56 -0.330865 -1.91665 0
M  V30 1432 O 136.815 0.68401 -1.83357 0
M  V30 1433 C 137.114 -2.76358 -2.2663 0
M  V30 1434 C 136.78 -4.16378 -1.73033 0
M  V30 1435 C 135.442 -4.54473 -1.58138 0
M  V30 1436 C 137.794 -5.03836 -1.33413 0
M  V30 1437 C 135.122 -5.77754 -1.02065 0
M  V30 1438 C 137.474 -6.27676 -0.78778 0
M  V30 1439 C 136.138 -6.64562 -0.625561 0
M  V30 1440 H 135.408 -0.594417 -0.442435 0
M  V30 1441 H 138.055 -1.84772 -0.503136 0
M  V30 1442 H 136.36 -2.48167 -3.03184 0
M  V30 1443 H 138.057 -2.82568 -2.84528 0
M  V30 1444 H 134.647 -3.86331 -1.85598 0
M  V30 1445 H 138.831 -4.75026 -1.4375 0
M  V30 1446 H 134.087 -6.04997 -0.882547 0
M  V30 1447 H 138.261 -6.94797 -0.472177 0
M  V30 1448 H 135.888 -7.59965 -0.188926 0
M  V30 1449 N 137.463 0.71206 -1.40597 0
M  V30 1450 C 138.413 1.81783 -1.37619 0
M  V30 1451 C 139.397 1.58896 -0.253162 0
M  V30 1452 O 140.589 1.70009 -0.492547 0
M  V30 1453 C 137.718 3.19944 -1.24462 0
M  V30 1454 C 136.804 3.48582 -2.4156 0
M  V30 1455 N 137.195 3.48016 -3.67041 0
M  V30 1456 C 135.493 3.79056 -2.35016 0
M  V30 1457 C 136.194 3.75096 -4.44609 0
M  V30 1458 N 135.17 3.94022 -3.74497 0
M  V30 1459 H 138.972 1.79683 -2.32575 0
M  V30 1460 H 136.486 0.91134 -1.34419 0
M  V30 1461 H 138.483 3.99133 -1.20411 0
M  V30 1462 H 137.143 3.23267 -0.304762 0
M  V30 1463 H 138.154 3.28782 -4.00153 0
M  V30 1464 H 134.831 3.89848 -1.49415 0
M  V30 1465 H 136.221 3.80934 -5.53479 0
M  V30 1466 N 138.941 1.26152 0.944643 0
M  V30 1467 C 140.188 1.11492 1.69044 0
M  V30 1468 C 140.516 -0.342366 1.91463 0
M  V30 1469 O 139.771 -1.26812 1.49054 0
M  V30 1470 C 140.07 1.82541 3.07268 0
M  V30 1471 C 139.736 3.32445 3.04616 0
M  V30 1472 C 138.398 3.73337 3.036 0
M  V30 1473 C 140.75 4.28171 2.97185 0
M  V30 1474 C 138.078 5.08348 2.92915 0
M  V30 1475 C 140.43 5.63218 2.88041 0
M  V30 1476 C 139.094 6.03426 2.85366 0
M  V30 1477 H 138.364 0.407977 0.618576 0
M  V30 1478 H 141.011 1.56551 1.10291 0
M  V30 1479 H 139.316 1.29941 3.69625 0
M  V30 1480 H 141.013 1.68642 3.63815 0
M  V30 1481 H 137.603 2.99915 3.06185 0
M  V30 1482 H 141.787 3.97563 2.97081 0
M  V30 1483 H 137.043 5.38667 2.89219 0
M  V30 1484 H 141.217 6.37078 2.81254 0
M  V30 1485 H 138.844 7.07999 2.76842 0
M  V30 1486 N 140.419 -1.14872 1.07899 0
M  V30 1487 C 141.369 -2.17809 0.674027 0
M  V30 1488 C 142.353 -1.58008 -0.303699 0
M  V30 1489 O 143.545 -1.76616 -0.11654 0
M  V30 1490 C 140.674 -3.43208 0.0793318 0
M  V30 1491 C 139.76 -4.10051 1.08253 0
M  V30 1492 N 140.151 -4.52296 2.2641 0
M  V30 1493 C 138.449 -4.36469 0.917124 0
M  V30 1494 C 139.15 -5.04199 2.901 0
M  V30 1495 N 138.126 -4.98088 2.17736 0
M  V30 1496 H 141.928 -2.48207 1.57386 0
M  V30 1497 H 139.442 -1.315 0.952976 0
M  V30 1498 H 141.439 -4.16272 -0.228719 0
M  V30 1499 H 140.099 -3.14291 -0.815551 0
M  V30 1500 H 141.11 -4.45504 2.64096 0
M  V30 1501 H 137.787 -4.17432 0.0756078 0
M  V30 1502 H 139.177 -5.46802 3.90458 0
M  V30 1503 N 141.898 -0.863906 -1.31812 0
M  V30 1504 C 143.144 -0.481841 -1.9761 0
M  V30 1505 C 143.499 0.954048 -1.6708 0
M  V30 1506 O 142.792 1.66182 -0.953624 0
M  V30 1507 C 142.986 -0.668547 -3.51091 0
M  V30 1508 C 142.815 -2.12103 -3.96538 0
M  V30 1509 C 141.585 -2.76141 -4.23171 0
M  V30 1510 C 143.783 -3.09265 -4.10925 0
M  V30 1511 N 141.765 -4.12205 -4.54929 0
M  V30 1512 C 143.136 -4.30341 -4.46326 0
M  V30 1513 C 145.191 -3.05337 -3.93286 0
M  V30 1514 C 143.894 -5.48 -4.65928 0
M  V30 1515 C 145.92 -4.22248 -4.14078 0
M  V30 1516 C 145.282 -5.42085 -4.49804 0
M  V30 1517 H 141.381 -0.225238 -0.74886 0
M  V30 1518 H 143.965 -1.11723 -1.59455 0
M  V30 1519 H 142.136 -0.0627898 -3.88349 0
M  V30 1520 H 143.868 -0.255467 -4.03893 0
M  V30 1521 H 140.623 -2.27125 -4.15585 0
M  V30 1522 H 141.047 -4.82416 -4.74978 0
M  V30 1523 H 145.689 -2.138 -3.64759 0
M  V30 1524 H 143.407 -6.40059 -4.93305 0
M  V30 1525 H 146.993 -4.20654 -4.01922 0
M  V30 1526 H 145.873 -6.31044 -4.65567 0
M  V30 1527 N 143.376 1.44774 -0.622745 0
M  V30 1528 C 144.624 2.01721 -0.123655 0
M  V30 1529 C 144.945 1.49172 1.25589 0
M  V30 1530 O 144.215 0.691974 1.83272 0
M  V30 1531 H 142.795 0.745777 -0.0427225 0
M  V30 1532 H 145.457 1.77382 -0.807559 0
M  V30 1533 H 144.553 3.11984 -0.0849534 0
M  V30 1534 N 144.854 0.36279 1.53368 0
M  V30 1535 C 146.079 -0.231226 2.06107 0
M  V30 1536 C 146.504 -1.419 1.23474 0
M  V30 1537 O 145.862 -1.79524 0.253128 0
M  V30 1538 C 145.91 -0.605523 3.5548 0
M  V30 1539 O 145.014 -1.70312 3.7559 0
M  V30 1540 H 144.355 -0.034327 0.663112 0
M  V30 1541 H 146.885 0.522584 1.97814 0
M  V30 1542 H 146.895 -0.877314 3.98456 0
M  V30 1543 H 145.57 0.263004 4.15068 0
M  V30 1544 H 144.147 -1.4271 3.44512 0
M  V30 1545 N 146.332 -1.57332 0.0918853 0
M  V30 1546 C 147.262 -2.16872 -0.865371 0
M  V30 1547 C 148.243 -1.10118 -1.29646 0
M  V30 1548 O 149.428 -1.38242 -1.36392 0
M  V30 1549 C 146.558 -2.74649 -2.12569 0
M  V30 1550 C 145.512 -3.86747 -1.83333 0
M  V30 1551 C 144.838 -4.31212 -3.16166 0
M  V30 1552 C 146.138 -5.10089 -1.1228 0
M  V30 1553 H 147.832 -2.97114 -0.369307 0
M  V30 1554 H 145.378 -1.42918 -0.176194 0
M  V30 1555 H 147.331 -3.14952 -2.7997 0
M  V30 1556 H 146.055 -1.91657 -2.64452 0
M  V30 1557 H 144.714 -3.46978 -1.18331 0
M  V30 1558 H 144.362 -3.45115 -3.6593 0
M  V30 1559 H 144.062 -5.06788 -2.97388 0
M  V30 1560 H 145.586 -4.74146 -3.84731 0
M  V30 1561 H 147 -5.47582 -1.69785 0
M  V30 1562 H 145.397 -5.91073 -1.03693 0
M  V30 1563 H 146.467 -4.84786 -0.105041 0
M  V30 1564 N 147.81 0.181792 -1.56548 0
M  V30 1565 C 149.087 0.926765 -1.72251 0
M  V30 1566 C 149.467 2.00831 -0.650386 0
M  V30 1567 O 148.815 2.26008 0.336521 0
M  V30 1568 C 149.025 1.50106 -3.1507 0
M  V30 1569 C 150.373 1.97805 -3.75711 0
M  V30 1570 O 151.397 1.59922 -3.18282 0
M  V30 1571 O 150.256 2.67555 -4.76525 0
M  V30 1572 H 147.35 0.435506 -0.703039 0
M  V30 1573 H 149.896 0.170443 -1.68842 0
M  V30 1574 H 148.668 0.72212 -3.84579 0
M  V30 1575 H 148.291 2.32186 -3.22763 0
M  V30 1576 N 149.288 1.51039 0.449983 0
M  V30 1577 C 150.536 1.62759 1.19808 0
M  V30 1578 C 150.857 0.339981 1.92013 0
M  V30 1579 O 150.127 -0.643606 1.85026 0
M  V30 1580 H 148.707 0.599811 0.445237 0
M  V30 1581 H 151.369 1.87914 0.517138 0
M  V30 1582 H 150.465 2.44911 1.93455 0
M  V30 1583 N 150.766 -0.704594 1.40972 0
M  V30 1584 C 151.698 -1.82974 1.38033 0
M  V30 1585 C 152.711 -1.60305 0.283931 0
M  V30 1586 O 153.9 -1.69975 0.545042 0
M  V30 1587 C 151 -3.19578 1.12795 0
M  V30 1588 C 150.173 -3.69352 2.34302 0
M  V30 1589 C 149.232 -4.84601 2.05058 0
M  V30 1590 O 148.258 -4.96682 2.7802 0
M  V30 1591 N 149.46 -5.71194 1.03528 0
M  V30 1592 H 152.225 -1.85991 2.35005 0
M  V30 1593 H 149.786 -0.886567 1.35468 0
M  V30 1594 H 151.778 -3.9429 0.911987 0
M  V30 1595 H 150.348 -3.11642 0.24452 0
M  V30 1596 H 149.568 -2.85649 2.71659 0
M  V30 1597 H 150.856 -3.99345 3.1528 0
M  V30 1598 H 150.254 -5.64054 0.431217 0
M  V30 1599 H 148.811 -6.45843 0.879205 0
M  V30 1600 N 152.244 -1.26651 -0.937939 0
M  V30 1601 C 153.492 -1.12165 -1.68118 0
M  V30 1602 C 153.813 0.334983 -1.92101 0
M  V30 1603 O 153.083 1.23583 -1.52 0
M  V30 1604 H 151.663 -0.412093 -0.623048 0
M  V30 1605 H 154.325 -1.59027 -1.12678 0
M  V30 1606 H 153.421 -1.64289 -2.6536 0
M  V30 1607 N 153.722 1.14298 -1.08507 0
M  V30 1608 C 154.947 1.8976 -0.837001 0
M  V30 1609 C 155.372 1.78097 0.605228 0
M  V30 1610 O 154.73 1.12188 1.4242 0
M  V30 1611 C 154.778 3.37685 -1.26495 0
M  V30 1612 O 153.882 4.10281 -0.417514 0
M  V30 1613 H 153.223 0.590365 -0.303917 0
M  V30 1614 H 155.753 1.44672 -1.44676 0
M  V30 1615 H 155.763 3.88501 -1.24625 0
M  V30 1616 H 154.438 3.45492 -2.31534 0
M  V30 1617 H 153.015 3.69536 -0.499722 0
M  V30 1618 N 155.201 0.870884 1.31352 0
M  V30 1619 C 156.111 0.330783 2.32256 0
M  V30 1620 C 157.127 -0.559767 1.6475 0
M  V30 1621 O 158.303 -0.456263 1.96164 0
M  V30 1622 C 155.368 -0.458137 3.4366 0
M  V30 1623 C 154.429 0.460482 4.26823 0
M  V30 1624 C 153.662 -0.290881 5.32907 0
M  V30 1625 O 153.885 -1.51885 5.49806 0
M  V30 1626 O 152.819 0.351732 6.00871 0
M  V30 1627 H 156.645 1.16718 2.80376 0
M  V30 1628 H 154.23 0.634285 1.35267 0
M  V30 1629 H 156.112 -0.905343 4.1156 0
M  V30 1630 H 154.787 -1.27106 2.97701 0
M  V30 1631 H 153.694 0.956207 3.61673 0
M  V30 1632 H 155.027 1.23903 4.7635 0
M  V30 1633 N 156.679 -1.44442 0.630414 0
M  V30 1634 C 157.629 -2.27794 -0.0968103 0
M  V30 1635 C 158.613 -1.38624 -0.816834 0
M  V30 1636 O 159.805 -1.62438 -0.70306 0
M  V30 1637 C 156.934 -3.25929 -1.07819 0
M  V30 1638 C 156.02 -4.22588 -0.357826 0
M  V30 1639 N 156.411 -5.0207 0.613169 0
M  V30 1640 C 154.709 -4.41914 -0.602365 0
M  V30 1641 C 155.41 -5.72351 1.03871 0
M  V30 1642 N 154.386 -5.42287 0.377642 0
M  V30 1643 H 158.188 -2.86653 0.648621 0
M  V30 1644 H 155.702 -1.55871 0.455862 0
M  V30 1645 H 157.699 -3.84399 -1.61378 0
M  V30 1646 H 156.359 -2.68631 -1.82393 0
M  V30 1647 H 157.37 -5.08331 0.990947 0
M  V30 1648 H 154.047 -3.95714 -1.33103 0
M  V30 1649 H 155.437 -6.4619 1.84086 0
M  V30 1650 N 158.157 -0.370918 -1.53173 0
M  V30 1651 C 159.385 0.217704 -2.05751 0
M  V30 1652 C 159.8 1.42018 -1.24404 0
M  V30 1653 O 159.157 1.80245 -0.286033 0
M  V30 1654 C 159.208 0.605954 -3.56385 0
M  V30 1655 O 158.929 -0.548734 -4.3465 0
M  V30 1656 C 160.43 1.2524 -4.25241 0
M  V30 1657 H 157.65 0.0371659 -0.66997 0
M  V30 1658 H 160.194 -0.530832 -1.9749 0
M  V30 1659 H 158.349 1.3044 -3.6478 0
M  V30 1660 H 158.763 -0.23376 -5.23979 0
M  V30 1661 H 160.237 1.47458 -5.3194 0
M  V30 1662 H 160.714 2.2143 -3.79296 0
M  V30 1663 H 161.32 0.595233 -4.21114 0
M  V30 1664 N 159.635 1.57281 -0.100228 0
M  V30 1665 C 160.881 1.94826 0.563101 0
M  V30 1666 C 161.214 0.982475 1.67514 0
M  V30 1667 O 160.489 0.0164069 1.94493 0
M  V30 1668 C 160.772 3.42453 1.11346 0
M  V30 1669 C 160.625 4.498 0.00612081 0
M  V30 1670 C 161.944 3.91506 2.01024 0
M  V30 1671 H 159.063 0.708428 0.203221 0
M  V30 1672 H 161.705 1.8922 -0.171979 0
M  V30 1673 H 159.855 3.47361 1.7399 0
M  V30 1674 H 161.527 4.57 -0.628357 0
M  V30 1675 H 159.77 4.28756 -0.659581 0
M  V30 1676 H 160.441 5.50306 0.432109 0
M  V30 1677 H 162.917 3.88784 1.48278 0
M  V30 1678 H 161.793 4.95358 2.36457 0
M  V30 1679 H 162.054 3.31099 2.92961 0
M  V30 1680 N 161.113 -0.173488 1.56642 0
M  V30 1681 C 162.39 -0.917617 1.7274 0
M  V30 1682 C 162.77 -2.00484 0.661027 0
M  V30 1683 O 162.118 -2.26184 -0.32453 0
M  V30 1684 C 162.328 -1.48433 3.15862 0
M  V30 1685 C 163.676 -1.95809 3.76754 0
M  V30 1686 O 164.7 -1.58231 3.19126 0
M  V30 1687 O 163.559 -2.65024 4.77938 0
M  V30 1688 H 160.653 -0.431772 0.705338 0
M  V30 1689 H 163.199 -0.161487 1.6893 0
M  V30 1690 H 161.971 -0.701715 3.84957 0
M  V30 1691 H 161.594 -2.30471 3.23989 0
M  V30 1692 N 162.591 -1.51276 -0.441967 0
M  V30 1693 C 163.538 -1.72256 -1.53612 0
M  V30 1694 C 164.508 -0.564164 -1.56225 0
M  V30 1695 O 165.693 -0.798074 -1.73307 0
M  V30 1696 C 162.833 -1.84932 -2.91366 0
M  V30 1697 C 161.946 -3.12459 -2.98317 0
M  V30 1698 C 161.081 -3.15758 -4.27166 0
M  V30 1699 C 160.12 -4.37619 -4.27967 0
M  V30 1700 N 159.257 -4.38493 -5.48333 0
M  V30 1701 H 164.097 -2.65654 -1.35026 0
M  V30 1702 H 161.634 -1.31662 -0.656009 0
M  V30 1703 H 163.592 -1.90263 -3.7129 0
M  V30 1704 H 162.222 -0.949461 -3.08521 0
M  V30 1705 H 161.274 -3.1646 -2.11086 0
M  V30 1706 H 162.586 -4.02382 -2.94771 0
M  V30 1707 H 161.74 -3.19979 -5.15459 0
M  V30 1708 H 160.479 -2.23715 -4.33362 0
M  V30 1709 H 159.484 -4.33579 -3.38067 0
M  V30 1710 H 160.709 -5.30921 -4.23438 0
M  V30 1711 H 158.655 -3.49318 -5.55259 0
M  V30 1712 H 158.572 -5.22219 -5.46647 0
M  V30 1713 H 159.84 -4.469 -6.38671 0
M  V30 1714 N 164.069 0.697108 -1.41344 0
M  V30 1715 C 165.016 1.81106 -1.43071 0
M  V30 1716 C 165.986 1.63632 -0.285275 0
M  V30 1717 O 167.171 1.84504 -0.486091 0
M  V30 1718 C 164.311 3.18975 -1.31715 0
M  V30 1719 C 163.424 3.47892 -2.56115 0
M  V30 1720 C 162.559 4.75367 -2.37064 0
M  V30 1721 C 161.598 4.97247 -3.56948 0
M  V30 1722 N 160.735 6.15947 -3.36977 0
M  V30 1723 H 165.575 1.78965 -2.38276 0
M  V30 1724 H 163.112 0.873975 -1.18322 0
M  V30 1725 H 165.07 3.98615 -1.23133 0
M  V30 1726 H 163.7 3.20297 -0.401183 0
M  V30 1727 H 162.752 2.62669 -2.75153 0
M  V30 1728 H 164.064 3.59962 -3.45295 0
M  V30 1729 H 163.218 5.63059 -2.25941 0
M  V30 1730 H 161.957 4.65541 -1.45338 0
M  V30 1731 H 160.962 4.08004 -3.68527 0
M  V30 1732 H 162.187 5.08934 -4.49626 0
M  V30 1733 H 160.133 6.07336 -2.47949 0
M  V30 1734 H 160.05 6.28777 -4.19732 0
M  V30 1735 H 161.318 7.06377 -3.29623 0
M  V30 1736 N 165.547 1.27147 0.931209 0
M  V30 1737 C 166.494 1.09568 2.03134 0
M  V30 1738 C 167.464 -0.00222433 1.661 0
M  V30 1739 O 168.649 0.159439 1.90133 0
M  V30 1740 C 165.789 0.745231 3.36957 0
M  V30 1741 C 164.902 1.92041 3.86968 0
M  V30 1742 C 164.037 1.51216 5.09222 0
M  V30 1743 C 163.076 2.65504 5.5152 0
M  V30 1744 N 162.213 2.25291 6.64972 0
M  V30 1745 H 167.053 2.03708 2.17502 0
M  V30 1746 H 164.59 1.01411 1.06556 0
M  V30 1747 H 166.548 0.522878 4.1391 0
M  V30 1748 H 165.178 -0.159202 3.22407 0
M  V30 1749 H 164.23 2.25541 3.06326 0
M  V30 1750 H 165.542 2.77787 4.1429 0
M  V30 1751 H 164.696 1.25084 5.93666 0
M  V30 1752 H 163.435 0.625749 4.83669 0
M  V30 1753 H 162.44 2.92354 4.65628 0
M  V30 1754 H 163.665 3.54761 5.7907 0
M  V30 1755 H 161.611 1.39098 6.41083 0
M  V30 1756 H 161.528 3.04577 6.91931 0
M  V30 1757 H 162.796 2.02398 7.52765 0
M  V30 1758 N 167.025 -1.13721 1.09112 0
M  V30 1759 C 168.255 -1.88499 0.845671 0
M  V30 1760 C 168.663 -1.79218 -0.606432 0
M  V30 1761 O 168.006 -1.1544 -1.42896 0
M  V30 1762 C 168.068 -3.38954 1.19793 0
M  V30 1763 C 167.732 -3.72018 2.65428 0
M  V30 1764 C 168.729 -3.7153 3.63677 0
M  V30 1765 C 166.414 -4.01775 3.01467 0
M  V30 1766 C 168.408 -4.00336 4.95994 0
M  V30 1767 C 166.095 -4.30243 4.33975 0
M  V30 1768 C 167.093 -4.29508 5.31048 0
M  V30 1769 O 166.781 -4.5728 6.61173 0
M  V30 1770 H 166.513 -0.603702 0.304171 0
M  V30 1771 H 169.067 -1.44903 1.45576 0
M  V30 1772 H 167.297 -3.83039 0.530871 0
M  V30 1773 H 168.986 -3.95052 0.932146 0
M  V30 1774 H 169.752 -3.4862 3.37179 0
M  V30 1775 H 165.631 -4.01496 2.26544 0
M  V30 1776 H 169.175 -3.99678 5.71755 0
M  V30 1777 H 165.072 -4.52625 4.60219 0
M  V30 1778 H 165.84 -4.74964 6.66597 0
M  V30 1779 N 168.503 -0.877838 -1.30888 0
M  V30 1780 C 169.466 -0.344265 -2.266 0
M  V30 1781 C 170.466 0.50922 -1.52524 0
M  V30 1782 O 171.656 0.317398 -1.71284 0
M  V30 1783 C 168.788 0.510198 -3.37061 0
M  V30 1784 H 169.981 -1.1893 -2.7531 0
M  V30 1785 H 167.534 -0.654088 -1.41956 0
M  V30 1786 H 168.269 1.37612 -2.93655 0
M  V30 1787 H 168.054 -0.101047 -3.9197 0
M  V30 1788 H 169.544 0.875537 -4.08319 0
M  V30 1789 N 169.982 1.44106 -0.638065 0
M  V30 1790 C 170.945 2.29138 0.0531013 0
M  V30 1791 C 171.945 1.41409 0.765506 0
M  V30 1792 O 173.135 1.63206 0.609046 0
M  V30 1793 C 170.267 3.23144 1.08584 0
M  V30 1794 H 171.46 2.91739 -0.694883 0
M  V30 1795 H 169.013 1.51134 -0.398538 0
M  V30 1796 H 169.748 2.65408 1.86357 0
M  V30 1797 H 169.533 3.87804 0.578852 0
M  V30 1798 H 171.023 3.87004 1.56899 0
M  V30 1799 N 171.46 0.379036 1.52974 0
M  V30 1800 C 172.37 -0.468639 2.29872 0
M  V30 1801 C 173.386 -1.08067 1.36373 0
M  V30 1802 O 174.562 -1.08871 1.69438 0
M  V30 1803 C 171.627 -1.58594 3.083 0
M  V30 1804 C 170.688 -1.00007 4.17489 0
M  V30 1805 C 169.921 -2.06413 4.92168 0
M  V30 1806 O 170.144 -3.27751 4.66835 0
M  V30 1807 O 169.078 -1.68717 5.7777 0
M  V30 1808 H 172.904 0.157508 3.03291 0
M  V30 1809 H 170.489 0.143035 1.48714 0
M  V30 1810 H 172.371 -2.23525 3.57232 0
M  V30 1811 H 171.046 -2.19724 2.37703 0
M  V30 1812 H 169.953 -0.314299 3.72777 0
M  V30 1813 H 171.286 -0.433135 4.90291 0
M  V30 1814 N 172.938 -1.57226 0.108567 0
M  V30 1815 C 173.868 -2.17778 -0.84232 0
M  V30 1816 C 174.849 -1.11487 -1.2847 0
M  V30 1817 O 176.034 -1.39681 -1.34918 0
M  V30 1818 C 173.164 -2.76888 -2.09644 0
M  V30 1819 C 172.118 -3.88669 -1.79221 0
M  V30 1820 C 171.444 -4.34541 -3.11574 0
M  V30 1821 C 172.744 -5.11251 -1.06864 0
M  V30 1822 H 174.438 -2.97489 -0.337774 0
M  V30 1823 H 171.984 -1.43097 -0.161025 0
M  V30 1824 H 173.937 -3.17904 -2.76614 0
M  V30 1825 H 172.661 -1.94451 -2.62405 0
M  V30 1826 H 171.32 -3.48213 -1.14644 0
M  V30 1827 H 170.968 -3.48977 -3.62249 0
M  V30 1828 H 170.668 -5.09914 -2.91996 0
M  V30 1829 H 172.192 -4.782 -3.7968 0
M  V30 1830 H 173.606 -5.49352 -1.63968 0
M  V30 1831 H 172.003 -5.9214 -0.974178 0
M  V30 1832 H 173.073 -4.8487 -0.0536168 0
M  V30 1833 N 174.416 0.165178 -1.56732 0
M  V30 1834 C 175.366 1.20917 -1.93295 0
M  V30 1835 C 176.35 1.39488 -0.801985 0
M  V30 1836 O 177.542 1.41356 -1.06525 0
M  V30 1837 C 174.671 2.54718 -2.3016 0
M  V30 1838 C 173.757 2.39815 -3.49785 0
M  V30 1839 N 174.148 1.94637 -4.66851 0
M  V30 1840 C 172.446 2.70623 -3.54513 0
M  V30 1841 C 173.147 1.92344 -5.4898 0
M  V30 1842 N 172.123 2.34978 -4.9019 0
M  V30 1843 H 175.925 0.851675 -2.81289 0
M  V30 1844 H 173.439 0.373399 -1.58049 0
M  V30 1845 H 175.436 3.30165 -2.54552 0
M  V30 1846 H 174.096 2.91265 -1.43508 0
M  V30 1847 H 175.107 1.6488 -4.90953 0
M  V30 1848 H 171.784 3.11167 -2.78354 0
M  V30 1849 H 173.174 1.5906 -6.52801 0
M  V30 1850 N 175.894 1.51508 0.433938 0
M  V30 1851 C 176.824 1.76016 1.53429 0
M  V30 1852 C 177.805 0.610112 1.58782 0
M  V30 1853 O 178.99 0.853177 1.74455 0
M  V30 1854 C 176.12 1.88831 2.9148 0
M  V30 1855 C 175.074 3.04288 3.00987 0
M  V30 1856 C 174.4 3.0229 4.4105 0
M  V30 1857 C 175.7 4.44193 2.74754 0
M  V30 1858 H 177.394 2.68152 1.33171 0
M  V30 1859 H 174.94 1.29035 0.639214 0
M  V30 1860 H 176.893 2.04559 3.6842 0
M  V30 1861 H 175.617 0.933455 3.12976 0
M  V30 1862 H 174.276 2.8827 2.26486 0
M  V30 1863 H 173.924 2.04576 4.59519 0
M  V30 1864 H 173.624 3.79822 4.4834 0
M  V30 1865 H 175.148 3.20116 5.1996 0
M  V30 1866 H 176.562 4.60544 3.41426 0
M  V30 1867 H 174.959 5.23457 2.9345 0
M  V30 1868 H 176.029 4.53996 1.70339 0
M  V30 1869 N 177.372 -0.689602 1.41712 0
M  V30 1870 C 178.618 -1.45181 1.41599 0
M  V30 1871 C 178.951 -1.94181 0.0270081 0
M  V30 1872 O 178.226 -1.6993 -0.946265 0
M  V30 1873 C 178.509 -2.65945 2.42787 0
M  V30 1874 C 178.362 -2.22672 3.90816 0
M  V30 1875 C 179.681 -3.68149 2.41151 0
M  V30 1876 H 176.8 -0.526576 0.515642 0
M  V30 1877 H 179.442 -0.784947 1.73028 0
M  V30 1878 H 177.592 -3.2284 2.16116 0
M  V30 1879 H 179.264 -1.71058 4.28412 0
M  V30 1880 H 177.507 -1.54394 4.05395 0
M  V30 1881 H 178.178 -3.0935 4.57172 0
M  V30 1882 H 180.654 -3.2094 2.64834 0
M  V30 1883 H 179.53 -4.50248 3.13955 0
M  V30 1884 H 179.791 -4.18259 1.43221 0
M  V30 1885 N 178.85 -1.27639 -0.924453 0
M  V30 1886 C 179.8 -1.07295 -2.01176 0
M  V30 1887 C 180.784 5.77352e-05 -1.609 0
M  V30 1888 O 181.976 -0.218855 -1.75642 0
M  V30 1889 C 179.105 -0.725592 -3.35544 0
M  V30 1890 C 178.191 -1.83691 -3.82254 0
M  V30 1891 N 178.582 -3.07697 -4.01443 0
M  V30 1892 C 176.88 -1.72433 -4.11319 0
M  V30 1893 C 177.581 -3.80037 -4.40394 0
M  V30 1894 N 176.557 -3.0782 -4.48049 0
M  V30 1895 H 180.359 -2.01399 -2.14046 0
M  V30 1896 H 177.873 -1.18401 -1.11153 0
M  V30 1897 H 179.87 -0.560959 -4.13109 0
M  V30 1898 H 178.53 0.207782 -3.24034 0
M  V30 1899 H 179.541 -3.43424 -3.8766 0
M  V30 1900 H 176.218 -0.862005 -4.08504 0
M  V30 1901 H 177.608 -4.86632 -4.63291 0
M  V30 1902 N 180.328 1.1314 -1.09713 0
M  V30 1903 C 181.574 1.84967 -0.846104 0
M  V30 1904 C 181.929 1.82082 0.621601 0
M  V30 1905 O 181.222 1.2501 1.452 0
M  V30 1906 C 181.416 3.32167 -1.3191 0
M  V30 1907 C 181.245 3.49386 -2.83125 0
M  V30 1908 C 180.015 3.63456 -3.51038 0
M  V30 1909 C 182.213 3.45179 -3.81256 0
M  V30 1910 N 180.195 3.68966 -4.9065 0
M  V30 1911 C 181.566 3.57094 -5.06837 0
M  V30 1912 C 183.621 3.28598 -3.74069 0
M  V30 1913 C 182.324 3.5414 -6.26081 0
M  V30 1914 C 184.35 3.26953 -4.92804 0
M  V30 1915 C 183.712 3.39422 -6.17229 0
M  V30 1916 H 179.811 0.692899 -0.362512 0
M  V30 1917 H 182.395 1.35506 -1.39808 0
M  V30 1918 H 180.566 3.80186 -0.794535 0
M  V30 1919 H 182.298 3.91815 -1.01308 0
M  V30 1920 H 179.053 3.65256 -3.01471 0
M  V30 1921 H 179.477 3.75404 -5.63383 0
M  V30 1922 H 184.119 3.17858 -2.78794 0
M  V30 1923 H 181.837 3.63653 -7.21653 0
M  V30 1924 H 185.423 3.15316 -4.88945 0
M  V30 1925 H 184.303 3.38114 -7.07565 0
M  V30 1926 N 181.806 0.884767 1.30421 0
M  V30 1927 C 182.754 0.340869 2.30089 0
M  V30 1928 C 183.748 -0.55201 1.60154 0
M  V30 1929 O 184.954 -0.436467 1.74628 0
M  V30 1930 H 181.329 0.0915739 0.746404 0
M  V30 1931 H 183.3 1.19513 2.73421 0
M  V30 1932 C 182.049 -0.429779 3.45034 0
M  V30 1933 H 181.372 0.248024 3.9903 0
M  V30 1934 H 182.812 -0.775445 4.16849 0
M  V30 1935 C 181.271 -1.62677 2.95022 0
M  V30 1936 O 181.801 -2.72614 2.95033 0
M  V30 1937 N 180.007 -1.46387 2.51036 0
M  V30 1938 H 179.554 -0.569506 2.51226 0
M  V30 1939 H 179.512 -2.26612 2.17932 0
M  V30 1940 N 183.284 -1.43765 0.645699 0
M  V30 1941 C 184.512 -2.06253 0.163556 0
M  V30 1942 C 184.927 -1.48352 -1.16778 0
M  V30 1943 O 184.284 -0.611932 -1.71935 0
M  V30 1944 C 184.335 -3.61453 0.0583186 0
M  V30 1945 O 184.056 -4.172 1.33702 0
M  V30 1946 C 185.557 -4.41002 -0.450795 0
M  V30 1947 H 182.777 -0.665413 0.0864077 0
M  V30 1948 H 185.321 -1.84396 0.884222 0
M  V30 1949 H 183.476 -3.82522 -0.612865 0
M  V30 1950 H 183.89 -5.10791 1.19131 0
M  V30 1951 H 185.364 -5.49966 -0.473403 0
M  V30 1952 H 185.841 -4.13488 -1.48068 0
M  V30 1953 H 186.447 -4.24886 0.187637 0
M  V30 1954 N 184.763 -0.387143 -1.52771 0
M  V30 1955 C 185.71 0.449048 -2.26389 0
M  V30 1956 C 186.68 1.05961 -1.27912 0
M  V30 1957 O 187.865 1.08804 -1.56737 0
M  V30 1958 C 185.005 1.57155 -3.0724 0
M  V30 1959 C 184.118 0.984066 -4.20643 0
M  V30 1960 C 183.253 2.07745 -4.88892 0
M  V30 1961 C 182.292 1.46574 -5.94292 0
M  V30 1962 N 181.429 2.49834 -6.56146 0
M  V30 1963 H 186.269 -0.185205 -2.97424 0
M  V30 1964 H 183.806 -0.103164 -1.46738 0
M  V30 1965 H 185.764 2.23309 -3.52405 0
M  V30 1966 H 184.394 2.17615 -2.38419 0
M  V30 1967 H 183.446 0.212193 -3.79808 0
M  V30 1968 H 184.758 0.497029 -4.96318 0
M  V30 1969 H 183.912 2.81673 -5.3735 0
M  V30 1970 H 182.651 2.59807 -4.12737 0
M  V30 1971 H 181.656 0.711696 -5.45174 0
M  V30 1972 H 182.881 0.953088 -6.72379 0
M  V30 1973 H 180.827 3.0107 -5.82832 0
M  V30 1974 H 180.744 2.05879 -7.27427 0
M  V30 1975 H 182.012 3.23399 -7.09249 0
M  V30 1976 N 186.241 1.57166 -0.116904 0
M  V30 1977 C 187.471 1.99184 0.548586 0
M  V30 1978 C 187.879 0.995436 1.60897 0
M  V30 1979 O 187.222 -0.0201293 1.83689 0
M  V30 1980 C 187.284 3.37611 1.23526 0
M  V30 1981 C 186.948 4.55857 0.323077 0
M  V30 1982 C 187.945 5.18056 -0.437476 0
M  V30 1983 C 185.63 5.01751 0.234761 0
M  V30 1984 C 187.624 6.24536 -1.2741 0
M  V30 1985 C 185.311 6.08093 -0.605496 0
M  V30 1986 C 186.309 6.69352 -1.35856 0
M  V30 1987 O 185.997 7.7364 -2.18487 0
M  V30 1988 H 185.729 0.659148 0.149999 0
M  V30 1989 H 188.283 2.0443 -0.199428 0
M  V30 1990 H 186.513 3.29113 2.0303 0
M  V30 1991 H 188.202 3.63932 1.79745 0
M  V30 1992 H 188.968 4.83516 -0.379105 0
M  V30 1993 H 184.847 4.53817 0.810601 0
M  V30 1994 H 188.391 6.72281 -1.86237 0
M  V30 1995 H 184.288 6.42063 -0.665268 0
M  V30 1996 H 185.056 7.90727 -2.11406 0
M  V30 1997 N 187.719 -0.156864 1.56817 0
M  V30 1998 C 188.967 -0.869404 1.82444 0
M  V30 1999 C 189.288 -1.82147 0.69623 0
M  V30 2000 O 188.558 -1.93847 -0.28287 0
M  V30 2001 H 187.138 -0.324043 0.673056 0
M  V30 2002 H 189.8 -0.153224 1.94297 0
M  V30 2003 H 188.896 -1.43761 2.77019 0
M  V30 2004 N 189.197 -1.51736 -0.425897 0
M  V30 2005 C 190.474 -1.55519 -1.1863 0
M  V30 2006 C 190.854 -0.326219 -2.08564 0
M  V30 2007 O 190.202 0.688012 -2.17896 0
M  V30 2008 C 190.412 -2.87521 -1.9782 0
M  V30 2009 C 191.76 -3.39899 -2.54468 0
M  V30 2010 O 192.784 -2.89148 -2.08019 0
M  V30 2011 O 191.643 -4.2848 -3.39215 0
M  V30 2012 H 188.737 -0.625739 -0.540721 0
M  V30 2013 H 191.283 -1.64055 -0.434038 0
M  V30 2014 H 190.055 -3.68422 -1.31836 0
M  V30 2015 H 189.678 -2.822 -2.80088 0
M  V30 2016 N 190.675 0.682077 -1.42076 0
M  V30 2017 C 191.922 1.44215 -1.42156 0
M  V30 2018 C 192.25 1.94468 -0.0354186 0
M  V30 2019 O 191.505 1.70816 0.955002 0
M  V30 2020 C 191.804 2.66036 -2.38662 0
M  V30 2021 C 191.47 2.34366 -3.85206 0
M  V30 2022 C 190.132 2.25439 -4.25124 0
M  V30 2023 C 192.484 2.08513 -4.77673 0
M  V30 2024 C 189.812 1.88775 -5.55501 0
M  V30 2025 C 192.164 1.73354 -6.08384 0
M  V30 2026 C 190.828 1.62933 -6.47309 0
M  V30 2027 H 190.098 0.527718 -0.520187 0
M  V30 2028 H 192.745 0.778387 -1.74967 0
M  V30 2029 H 191.05 3.3741 -1.99152 0
M  V30 2030 H 192.747 3.24205 -2.35991 0
M  V30 2031 H 189.337 2.42213 -3.53597 0
M  V30 2032 H 193.521 2.14346 -4.47626 0
M  V30 2033 H 188.777 1.7927 -5.84527 0
M  V30 2034 H 192.951 1.52373 -6.79526 0
M  V30 2035 H 190.578 1.34292 -7.48244 0
M  V30 2036 N 192.153 1.28127 0.917671 0
M  V30 2037 C 193.401 1.14825 1.66312 0
M  V30 2038 C 193.722 -0.304379 1.9261 0
M  V30 2039 O 192.992 -1.21149 1.53947 0
M  V30 2040 H 191.572 0.421953 0.616413 0
M  V30 2041 H 194.234 1.608 1.10134 0
M  V30 2042 H 193.33 1.68489 2.62712 0
M  V30 2043 N 193.631 -1.12557 1.10312 0
M  V30 2044 C 194.578 -2.18247 0.750781 0
M  V30 2045 C 195.548 -1.63853 -0.272293 0
M  V30 2046 O 196.733 -1.90195 -0.151862 0
M  V30 2047 C 193.873 -3.44591 0.187379 0
M  V30 2048 C 192.986 -4.13046 1.2656 0
M  V30 2049 C 192.121 -5.27034 0.663978 0
M  V30 2050 C 191.16 -5.87353 1.72287 0
M  V30 2051 N 190.297 -6.92757 1.1416 0
M  V30 2052 H 195.137 -2.47732 1.65628 0
M  V30 2053 H 192.674 -1.21629 0.827337 0
M  V30 2054 H 194.632 -4.16904 -0.157148 0
M  V30 2055 H 193.262 -3.15527 -0.681355 0
M  V30 2056 H 192.314 -3.38924 1.72727 0
M  V30 2057 H 193.626 -4.53947 2.06721 0
M  V30 2058 H 192.78 -6.06104 0.268824 0
M  V30 2059 H 191.519 -4.87407 -0.169082 0
M  V30 2060 H 190.524 -5.06971 2.12746 0
M  V30 2061 H 191.749 -6.29051 2.55875 0
M  V30 2062 H 189.695 -6.5517 0.329984 0
M  V30 2063 H 189.612 -7.3225 1.88007 0
M  V30 2064 H 190.88 -7.75658 0.772956 0
M  V30 2065 N 195.109 -0.891671 -1.2995 0
M  V30 2066 C 196.072 -0.36828 -2.26222 0
M  V30 2067 C 197.072 0.493014 -1.53056 0
M  V30 2068 O 198.262 0.299213 -1.71611 0
M  V30 2069 C 195.394 0.47442 -3.37583 0
M  V30 2070 H 196.587 -1.21844 -2.74033 0
M  V30 2071 H 194.14 -0.669107 -1.41254 0
M  V30 2072 H 194.875 1.34489 -2.95099 0
M  V30 2073 H 194.66 -0.142615 -3.91841 0
M  V30 2074 H 196.15 0.83218 -4.09224 0
M  V30 2075 N 196.587 1.43421 -0.653314 0
M  V30 2076 C 197.833 2.02111 -0.166992 0
M  V30 2077 C 198.166 1.51423 1.21592 0
M  V30 2078 O 197.441 0.707389 1.8118 0
M  V30 2079 C 197.724 3.5966 -0.177948 0
M  V30 2080 C 197.577 4.20579 -1.59478 0
M  V30 2081 C 198.896 4.37413 0.4856 0
M  V30 2082 H 196.015 0.734374 -0.0621557 0
M  V30 2083 H 198.657 1.70717 -0.834016 0
M  V30 2084 H 196.807 3.86537 0.390032 0
M  V30 2085 H 198.479 4.04732 -2.21336 0
M  V30 2086 H 196.722 3.77226 -2.14204 0
M  V30 2087 H 197.393 5.29665 -1.5543 0
M  V30 2088 H 199.869 4.161 0.00234528 0
M  V30 2089 H 198.745 5.47075 0.447207 0
M  V30 2090 H 199.006 4.13672 1.55974 0
M  V30 2091 N 198.065 0.39524 1.52563 0
M  V30 2092 C 198.997 -0.472201 2.24283 0
M  V30 2093 C 200.01 -1.02178 1.26742 0
M  V30 2094 O 201.199 -0.923097 1.52778 0
M  V30 2095 C 198.299 -1.66775 2.95024 0
M  V30 2096 C 197.472 -1.2445 4.19322 0
M  V30 2097 C 196.531 -2.30539 4.7301 0
M  V30 2098 O 195.557 -1.91702 5.35947 0
M  V30 2099 N 196.759 -3.6253 4.53379 0
M  V30 2100 H 199.524 0.142282 2.99362 0
M  V30 2101 H 197.085 0.2219 1.60372 0
M  V30 2102 H 199.077 -2.37283 3.27839 0
M  V30 2103 H 197.647 -2.18845 2.23217 0
M  V30 2104 H 196.867 -0.368069 3.92478 0
M  V30 2105 H 198.155 -0.938457 5.0007 0
M  V30 2106 H 197.553 -3.96841 4.03154 0
M  V30 2107 H 196.11 -4.29055 4.90668 0
M  V30 2108 N 199.544 -1.57102 0.125237 0
M  V30 2109 C 200.476 -2.12726 -0.853237 0
M  V30 2110 C 201.489 -1.07145 -1.22571 0
M  V30 2111 O 202.678 -1.34497 -1.17358 0
M  V30 2112 C 199.778 -2.61709 -2.15317 0
M  V30 2113 C 198.951 -3.91456 -1.95143 0
M  V30 2114 C 198.01 -4.25973 -3.08923 0
M  V30 2115 O 197.036 -4.94682 -2.81564 0
M  V30 2116 N 198.238 -3.83795 -4.35524 0
M  V30 2117 H 201.003 -2.97307 -0.377964 0
M  V30 2118 H 198.564 -1.61792 -0.0590011 0
M  V30 2119 H 200.556 -2.81826 -2.90441 0
M  V30 2120 H 199.126 -1.81974 -2.54174 0
M  V30 2121 H 198.346 -3.80185 -1.04177 0
M  V30 2122 H 199.634 -4.76283 -1.78976 0
M  V30 2123 H 199.032 -3.2839 -4.60626 0
M  V30 2124 H 197.589 -4.09008 -5.07499 0
M  V30 2125 N 201.022 0.148545 -1.56898 0
M  V30 2126 C 202.433 0.708766 -1.72723 0
M  V30 2127 C 202.784 1.81734 -0.739395 0
M  V30 2128 O 201.909 2.16194 0.0943169 0
M  V30 2129 C 202.504 1.29245 -3.13179 0
M  V30 2130 C 201.063 1.79925 -3.30611 0
M  V30 2131 C 200.21 0.687111 -2.68652 0
M  V30 2132 H 203.161 -0.0771063 -1.58513 0
M  V30 2133 H 203.182 2.16224 -3.13093 0
M  V30 2134 H 202.694 0.485382 -3.85053 0
M  V30 2135 H 200.795 2.63203 -2.63732 0
M  V30 2136 H 200.908 1.92903 -4.38549 0
M  V30 2137 H 199.272 1.11335 -2.29078 0
M  V30 2138 H 200.055 -0.108483 -3.43129 0
M  V30 2139 N 202.5 1.5196 0.417844 0
M  V30 2140 C 203.777 1.56146 1.17803 0
M  V30 2141 C 204.157 0.337275 2.08388 0
M  V30 2142 O 203.505 -0.676447 2.18258 0
M  V30 2143 C 203.715 2.88566 1.96293 0
M  V30 2144 C 205.063 3.41244 2.52662 0
M  V30 2145 O 206.087 2.90247 2.06483 0
M  V30 2146 O 204.946 4.30273 3.36938 0
M  V30 2147 H 202.04 0.628598 0.537395 0
M  V30 2148 H 204.586 1.64283 0.425331 0
M  V30 2149 H 203.358 3.69116 1.2988 0
M  V30 2150 H 202.981 2.83681 2.78587 0
M  V30 2151 N 203.978 -0.674533 1.42435 0
M  V30 2152 C 205.226 -1.43175 1.42637 0
M  V30 2153 C 205.547 -1.94951 0.0438992 0
M  V30 2154 O 204.817 -1.7308 -0.917607 0
M  V30 2155 H 203.397 -0.531307 0.525092 0
M  V30 2156 H 206.059 -0.797006 1.77859 0
M  V30 2157 H 205.155 -2.28463 2.12629 0
M  V30 2158 N 205.456 -1.28612 -0.910864 0
M  V30 2159 C 206.386 -1.15326 -2.03032 0
M  V30 2160 C 207.367 -0.0502924 -1.70026 0
M  V30 2161 O 208.552 -0.227797 -1.92859 0
M  V30 2162 C 205.682 -0.817343 -3.37545 0
M  V30 2163 C 204.636 -1.8754 -3.84724 0
M  V30 2164 C 203.962 -1.39305 -5.16235 0
M  V30 2165 C 205.262 -3.28244 -4.06267 0
M  V30 2166 H 206.956 -2.08975 -2.14406 0
M  V30 2167 H 204.502 -1.00612 -1.03021 0
M  V30 2168 H 206.455 -0.711151 -4.15356 0
M  V30 2169 H 205.179 0.154846 -3.26233 0
M  V30 2170 H 203.838 -1.97079 -3.09121 0
M  V30 2171 H 203.486 -0.409846 -5.01328 0
M  V30 2172 H 203.186 -2.10057 -5.48771 0
M  V30 2173 H 204.71 -1.30014 -5.96598 0
M  V30 2174 H 206.124 -3.21611 -4.74594 0
M  V30 2175 H 204.521 -3.96855 -4.5014 0
M  V30 2176 H 205.591 -3.72048 -3.10979 0
M  V30 2177 N 206.934 1.1197 -1.10907 0
M  V30 2178 C 207.897 2.16031 -0.765707 0
M  V30 2179 C 208.897 1.59393 0.212235 0
M  V30 2180 O 210.087 1.74196 -0.0115441 0
M  V30 2181 C 207.219 3.40632 -0.135053 0
M  V30 2182 H 208.412 2.47919 -1.68748 0
M  V30 2183 H 205.965 1.27061 -0.910226 0
M  V30 2184 H 206.7 3.14348 0.797218 0
M  V30 2185 H 206.485 3.8302 -0.838937 0
M  V30 2186 H 207.975 4.17505 0.0892469 0
M  V30 2187 N 208.412 0.89855 1.29475 0
M  V30 2188 C 209.658 0.524658 1.95896 0
M  V30 2189 C 209.991 -0.926468 1.70676 0
M  V30 2190 O 209.266 -1.65665 1.01908 0
M  V30 2191 C 209.549 0.81633 3.50725 0
M  V30 2192 C 209.402 2.31907 3.85408 0
M  V30 2193 C 210.721 0.302038 4.39062 0
M  V30 2194 H 207.84 0.19209 0.711527 0
M  V30 2195 H 210.482 1.12502 1.53112 0
M  V30 2196 H 208.632 0.305369 3.87298 0
M  V30 2197 H 210.304 2.89949 3.58786 0
M  V30 2198 H 208.547 2.78027 3.32992 0
M  V30 2199 H 209.218 2.47373 4.93468 0
M  V30 2200 H 211.694 0.739551 4.09475 0
M  V30 2201 H 210.57 0.535331 5.46283 0
M  V30 2202 H 210.831 -0.797216 4.34853 0
M  V30 2203 N 209.89 -1.43072 0.660911 0
M  V30 2204 C 210.82 -2.33497 -0.0122829 0
M  V30 2205 C 211.801 -1.49903 -0.803925 0
M  V30 2206 O 212.986 -1.78546 -0.763864 0
M  V30 2207 C 210.116 -3.33363 -0.973994 0
M  V30 2208 C 209.07 -4.27003 -0.291928 0
M  V30 2209 C 208.396 -5.16967 -1.36562 0
M  V30 2210 C 209.696 -5.15816 0.820462 0
M  V30 2211 H 211.39 -2.90038 0.742873 0
M  V30 2212 H 208.936 -1.39461 0.358688 0
M  V30 2213 H 210.889 -3.95524 -1.45392 0
M  V30 2214 H 209.613 -2.75095 -1.7604 0
M  V30 2215 H 208.272 -3.66217 0.167623 0
M  V30 2216 H 207.92 -4.55034 -2.14366 0
M  V30 2217 H 207.62 -5.80441 -0.914454 0
M  V30 2218 H 209.144 -5.82003 -1.84675 0
M  V30 2219 H 210.558 -5.71742 0.422366 0
M  V30 2220 H 208.955 -5.8805 1.19656 0
M  V30 2221 H 210.025 -4.55045 1.67518 0
M  V30 2222 N 211.368 -0.403325 -1.52352 0
M  V30 2223 C 212.616 0.174003 -2.0135 0
M  V30 2224 C 212.937 1.46139 -1.29106 0
M  V30 2225 O 212.207 1.91448 -0.415253 0
M  V30 2226 H 210.787 0.0672911 -0.743963 0
M  V30 2227 H 213.449 -0.538235 -1.87321 0
M  V30 2228 H 212.545 0.374254 -3.09848 0
M  V30 2229 N 212.846 1.57033 -0.133567 0
M  V30 2230 C 214.095 1.94861 0.520768 0
M  V30 2231 C 214.408 1.02012 1.66892 0
M  V30 2232 O 215.614 1.29365 2.38699 0
M  V30 2233 C 214.07 3.46362 0.977809 0
M  V30 2234 C 213.678 4.47773 -0.142674 0
M  V30 2235 C 215.422 3.93083 1.60269 0
M  V30 2236 C 213.329 5.90468 0.331883 0
M  V30 2237 H 212.259 0.727453 0.198315 0
M  V30 2238 H 214.91 1.82227 -0.215759 0
M  V30 2239 H 213.292 3.54282 1.7692 0
M  V30 2240 H 214.466 4.51536 -0.919317 0
M  V30 2241 H 212.781 4.10891 -0.675124 0
M  V30 2242 H 215.378 4.97121 1.96914 0
M  V30 2243 H 215.721 3.33876 2.48662 0
M  V30 2244 H 216.254 3.88025 0.876453 0
M  V30 2245 H 212.993 6.53463 -0.516341 0
M  V30 2246 H 212.513 5.90094 1.07469 0
M  V30 2247 H 214.192 6.42179 0.788332 0
M  V30 2248 N 214.325 -0.140222 1.56975 0
M  V30 2249 C 215.572 -0.851687 1.83719 0
M  V30 2250 C 215.9 -1.80862 0.715485 0
M  V30 2251 O 215.155 -1.93464 -0.294956 0
M  V30 2252 C 215.454 -1.65386 3.16832 0
M  V30 2253 C 215.12 -0.843112 4.42947 0
M  V30 2254 C 213.782 -0.619464 4.77196 0
M  V30 2255 C 216.134 -0.276582 5.20466 0
M  V30 2256 C 213.462 0.181312 5.8642 0
M  V30 2257 C 215.814 0.51127 6.30531 0
M  V30 2258 C 214.478 0.745432 6.63325 0
M  V30 2259 H 213.748 -0.311654 0.672274 0
M  V30 2260 H 216.395 -0.115006 1.91154 0
M  V30 2261 H 214.7 -2.46084 3.04877 0
M  V30 2262 H 216.397 -2.20793 3.34741 0
M  V30 2263 H 212.987 -1.0275 4.16101 0
M  V30 2264 H 217.171 -0.436632 4.94376 0
M  V30 2265 H 212.427 0.372165 6.10266 0
M  V30 2266 H 216.601 0.957354 6.89788 0
M  V30 2267 H 214.228 1.36778 7.47794 0
M  V30 2268 N 215.803 -1.52179 -0.40978 0
M  V30 2269 C 216.733 -1.78435 -1.5061 0
M  V30 2270 C 217.714 -0.635295 -1.57791 0
M  V30 2271 O 218.899 -0.880823 -1.73076 0
M  V30 2272 C 216.029 -1.93444 -2.88439 0
M  V30 2273 C 214.983 -3.09038 -2.96108 0
M  V30 2274 C 214.309 -3.09268 -4.36185 0
M  V30 2275 C 215.609 -4.48508 -2.67652 0
M  V30 2276 H 217.303 -2.70237 -1.28889 0
M  V30 2277 H 214.849 -1.30036 -0.618605 0
M  V30 2278 H 216.802 -2.10394 -3.65119 0
M  V30 2279 H 215.526 -0.983129 -3.11452 0
M  V30 2280 H 214.185 -2.91837 -2.21872 0
M  V30 2281 H 213.833 -2.11861 -4.56206 0
M  V30 2282 H 213.533 -3.86907 -4.42241 0
M  V30 2283 H 215.057 -3.28348 -5.14801 0
M  V30 2284 H 216.471 -4.65918 -3.34056 0
M  V30 2285 H 214.868 -5.28059 -2.85085 0
M  V30 2286 H 215.938 -4.56649 -1.63095 0
M  V30 2287 N 217.281 0.66697 -1.42791 0
M  V30 2288 C 218.228 1.7803 -1.4688 0
M  V30 2289 C 219.198 1.6299 -0.319919 0
M  V30 2290 O 220.383 1.83432 -0.525118 0
M  V30 2291 C 217.523 3.1611 -1.38451 0
M  V30 2292 C 216.636 3.42381 -2.63437 0
M  V30 2293 C 215.771 4.70232 -2.47094 0
M  V30 2294 C 214.81 4.89564 -3.67415 0
M  V30 2295 N 213.947 6.08661 -3.49966 0
M  V30 2296 H 218.787 1.7387 -2.42019 0
M  V30 2297 H 216.324 0.84868 -1.20149 0
M  V30 2298 H 218.282 3.95914 -1.31561 0
M  V30 2299 H 216.912 3.19374 -0.469033 0
M  V30 2300 H 215.964 2.56774 -2.80662 0
M  V30 2301 H 217.276 3.52557 -3.52853 0
M  V30 2302 H 216.43 5.5814 -2.37834 0
M  V30 2303 H 215.169 4.62353 -1.5518 0
M  V30 2304 H 214.174 4.00096 -3.77099 0
M  V30 2305 H 215.399 4.99282 -4.6032 0
M  V30 2306 H 213.345 6.0194 -2.60776 0
M  V30 2307 H 213.262 6.19733 -4.32975 0
M  V30 2308 H 214.53 6.99226 -3.44532 0
M  V30 2309 N 218.759 1.29093 0.90403 0
M  V30 2310 C 220.005 1.16986 1.65656 0
M  V30 2311 C 220.338 -0.278925 1.92186 0
M  V30 2312 O 219.613 -1.2019 1.5292 0
M  V30 2313 C 219.896 1.97908 3.0084 0
M  V30 2314 C 219.749 3.50903 2.81403 0
M  V30 2315 C 221.068 1.80208 4.01513 0
M  V30 2316 H 218.187 0.426346 0.601164 0
M  V30 2317 H 220.829 1.58518 1.04747 0
M  V30 2318 H 218.979 1.62616 3.52829 0
M  V30 2319 H 220.651 3.96153 2.36348 0
M  V30 2320 H 218.894 3.76045 2.1627 0
M  V30 2321 H 219.565 4.02791 3.77443 0
M  V30 2322 H 222.041 2.11025 3.58619 0
M  V30 2323 H 220.917 2.39184 4.94047 0
M  V30 2324 H 221.178 0.756119 4.35586 0
M  V30 2325 N 220.237 -1.11381 1.11499 0
M  V30 2326 C 221.485 -1.8277 0.862524 0
M  V30 2327 C 221.806 -1.85097 -0.613534 0
M  V30 2328 O 221.076 -1.32198 -1.4457 0
M  V30 2329 H 219.656 -0.676823 0.316101 0
M  V30 2330 H 222.318 -1.34816 1.4075 0
M  V30 2331 H 221.414 -2.86614 1.23527 0
M  V30 2332 N 221.715 -0.905404 -1.28997 0
M  V30 2333 C 222.94 -0.549175 -1.99997 0
M  V30 2334 C 223.365 0.860276 -1.67275 0
M  V30 2335 O 222.723 1.57355 -0.900502 0
M  V30 2336 C 222.771 -0.755185 -3.52604 0
M  V30 2337 O 221.875 0.189692 -4.11964 0
M  V30 2338 H 221.216 -0.213899 -0.628604 0
M  V30 2339 H 223.746 -1.21856 -1.64354 0
M  V30 2340 H 223.756 -0.662045 -4.02593 0
M  V30 2341 H 222.431 -1.78271 -3.75755 0
M  V30 2342 H 221.008 0.0485257 -3.72868 0
M  V30 2343 N 223.193 1.4272 -0.668489 0
M  V30 2344 C 224.156 2.292 0.00448567 0
M  V30 2345 C 225.156 1.43001 0.735339 0
M  V30 2346 O 226.346 1.64461 0.57429 0
M  V30 2347 C 223.478 3.25375 1.01705 0
M  V30 2348 H 224.671 2.90199 -0.756608 0
M  V30 2349 H 222.224 1.50254 -0.430506 0
M  V30 2350 H 222.959 2.69301 1.80686 0
M  V30 2351 H 222.744 3.88944 0.496463 0
M  V30 2352 H 224.234 3.90245 1.48655 0
M  V30 2353 N 224.671 0.411399 1.52136 0
M  V30 2354 C 225.618 -0.412975 2.27075 0
M  V30 2355 C 226.588 -1.03912 1.29582 0
M  V30 2356 O 227.773 -1.06296 1.58448 0
M  V30 2357 C 224.913 -1.52247 3.09701 0
M  V30 2358 C 224.026 -0.917021 4.22155 0
M  V30 2359 C 223.161 -1.9994 4.92135 0
M  V30 2360 C 222.2 -1.37101 5.96548 0
M  V30 2361 N 221.337 -2.39364 6.60038 0
M  V30 2362 H 226.177 0.232499 2.97092 0
M  V30 2363 H 223.714 0.126496 1.46555 0
M  V30 2364 H 225.672 -2.17674 3.55913 0
M  V30 2365 H 224.302 -2.13794 2.41851 0
M  V30 2366 H 223.354 -0.151742 3.80097 0
M  V30 2367 H 224.666 -0.418006 4.97045 0
M  V30 2368 H 223.82 -2.73088 5.41763 0
M  V30 2369 H 222.559 -2.53208 4.16818 0
M  V30 2370 H 221.564 -0.624873 5.46237 0
M  V30 2371 H 222.789 -0.845998 6.7381 0
M  V30 2372 H 220.735 -2.91759 5.87548 0
M  V30 2373 H 220.652 -1.9428 7.3061 0
M  V30 2374 H 221.92 -3.12074 7.14304 0
M  V30 2375 N 226.149 -1.5696 0.141893 0
M  V30 2376 C 227.56 -1.82797 -0.379776 0
M  V30 2377 C 227.911 -1.06033 -1.6508 0
M  V30 2378 O 227.036 -0.304011 -2.14254 0
M  V30 2379 C 227.631 -3.31578 -0.695802 0
M  V30 2380 C 226.19 -3.58014 -1.16201 0
M  V30 2381 C 225.337 -2.76699 -0.182455 0
M  V30 2382 H 228.288 -1.54406 0.366675 0
M  V30 2383 H 228.309 -3.47454 -1.55099 0
M  V30 2384 H 227.821 -3.87421 0.229449 0
M  V30 2385 H 225.922 -3.07553 -2.10338 0
M  V30 2386 H 226.035 -4.66501 -1.09151 0
M  V30 2387 H 224.399 -2.45618 -0.674072 0
M  V30 2388 H 225.182 -3.35311 0.736297 0
M  V30 2389 N 227.627 0.131896 -1.57047 0
M  V30 2390 C 228.875 0.840269 -1.83804 0
M  V30 2391 C 229.196 1.81017 -0.72512 0
M  V30 2392 O 228.466 1.94272 0.251995 0
M  V30 2393 H 227.046 0.313294 -0.678127 0
M  V30 2394 H 229.708 0.122294 -1.94516 0
M  V30 2395 H 228.804 1.39335 -2.79271 0
M  V30 2396 N 229.106 1.52395 0.401703 0
M  V30 2397 C 230.036 1.79231 1.49661 0
M  V30 2398 C 231.017 0.643654 1.57452 0
M  V30 2399 O 232.202 0.889989 1.72606 0
M  V30 2400 C 229.332 1.94971 2.87409 0
M  V30 2401 C 228.286 3.10604 2.94465 0
M  V30 2402 C 227.612 3.11577 4.34538 0
M  V30 2403 C 228.912 4.49921 2.6527 0
M  V30 2404 H 230.606 2.70917 1.27454 0
M  V30 2405 H 228.152 1.30362 0.6117 0
M  V30 2406 H 230.105 2.12328 3.63999 0
M  V30 2407 H 228.829 0.999632 3.10926 0
M  V30 2408 H 227.488 2.93009 2.20321 0
M  V30 2409 H 227.136 2.14277 4.55076 0
M  V30 2410 H 226.836 3.89247 4.40183 0
M  V30 2411 H 228.36 3.31073 5.13053 0
M  V30 2412 H 229.774 4.67683 3.31581 0
M  V30 2413 H 228.171 5.29564 2.82281 0
M  V30 2414 H 229.241 4.57507 1.60671 0
M  V30 2415 N 230.584 -0.659388 1.43143 0
M  V30 2416 C 231.516 -1.7849 1.43784 0
M  V30 2417 C 232.529 -1.5932 0.334787 0
M  V30 2418 O 233.718 -1.68155 0.598842 0
M  V30 2419 C 230.818 -3.15828 1.22906 0
M  V30 2420 C 229.991 -3.61711 2.45934 0
M  V30 2421 C 229.05 -4.77831 2.20371 0
M  V30 2422 O 228.076 -4.87586 2.93681 0
M  V30 2423 N 229.278 -5.67611 1.21647 0
M  V30 2424 H 232.043 -1.7842 2.40803 0
M  V30 2425 H 229.604 -0.84302 1.3822 0
M  V30 2426 H 231.596 -3.91189 1.03697 0
M  V30 2427 H 230.166 -3.10707 0.343542 0
M  V30 2428 H 229.386 -2.76861 2.80609 0
M  V30 2429 H 230.674 -3.89112 3.27825 0
M  V30 2430 H 230.072 -5.62397 0.610449 0
M  V30 2431 H 228.629 -6.42719 1.08423 0
M  V30 2432 N 232.062 -1.29571 -0.897171 0
M  V30 2433 C 233.009 -1.14916 -2.00158 0
M  V30 2434 C 233.979 -0.0418149 -1.66047 0
M  V30 2435 O 235.164 -0.209793 -1.89643 0
M  V30 2436 C 232.304 -0.834307 -3.34863 0
M  V30 2437 C 231.417 -2.02234 -3.8174 0
M  V30 2438 C 230.552 -1.64664 -5.05034 0
M  V30 2439 C 229.591 -2.80033 -5.44286 0
M  V30 2440 N 228.728 -2.42843 -6.58765 0
M  V30 2441 H 233.568 -2.09403 -2.12025 0
M  V30 2442 H 231.105 -1.042 -1.0383 0
M  V30 2443 H 233.063 -0.632436 -4.12379 0
M  V30 2444 H 231.693 0.0736656 -3.22716 0
M  V30 2445 H 230.745 -2.33583 -3.00238 0
M  V30 2446 H 232.057 -2.88673 -4.06779 0
M  V30 2447 H 231.211 -1.4078 -5.9014 0
M  V30 2448 H 229.95 -0.753766 -4.8184 0
M  V30 2449 H 228.955 -3.04596 -4.57713 0
M  V30 2450 H 230.18 -3.69989 -5.6946 0
M  V30 2451 H 228.126 -1.56046 -6.3717 0
M  V30 2452 H 228.043 -3.22815 -6.83613 0
M  V30 2453 H 229.311 -2.22285 -7.47134 0
M  V30 2454 N 233.54 1.10788 -1.12088 0
M  V30 2455 C 234.786 1.82942 -0.875226 0
M  V30 2456 C 235.119 1.84779 0.597538 0
M  V30 2457 O 234.394 1.30578 1.44152 0
M  V30 2458 C 234.677 3.29789 -1.44606 0
M  V30 2459 C 234.53 3.36307 -2.98693 0
M  V30 2460 C 235.849 4.26064 -1.10261 0
M  V30 2461 H 232.968 0.664195 -0.319397 0
M  V30 2462 H 235.61 1.29867 -1.38689 0
M  V30 2463 H 233.76 3.75118 -1.01089 0
M  V30 2464 H 235.432 2.99487 -3.50864 0
M  V30 2465 H 233.675 2.76318 -3.34411 0
M  V30 2466 H 234.346 4.39694 -3.33726 0
M  V30 2467 H 236.822 3.88951 -1.4784 0
M  V30 2468 H 235.698 5.27183 -1.52869 0
M  V30 2469 H 235.959 4.42098 -0.0142953 0
M  V30 2470 N 235.018 0.912232 1.28515 0
M  V30 2471 C 236.264 0.545405 1.95328 0
M  V30 2472 C 236.597 -0.908313 1.71649 0
M  V30 2473 O 235.872 -1.64575 1.03659 0
M  V30 2474 C 236.155 0.853483 3.4984 0
M  V30 2475 C 236.008 2.35982 3.82926 0
M  V30 2476 C 237.327 0.348589 4.38717 0
M  V30 2477 H 234.446 0.199626 0.709449 0
M  V30 2478 H 237.088 1.1412 1.5191 0
M  V30 2479 H 235.238 0.34643 3.86952 0
M  V30 2480 H 236.91 2.93738 3.55691 0
M  V30 2481 H 235.153 2.81543 3.30024 0
M  V30 2482 H 235.824 2.52593 4.90816 0
M  V30 2483 H 238.3 0.78294 4.08668 0
M  V30 2484 H 237.176 0.593242 5.45685 0
M  V30 2485 H 237.437 -0.751049 4.35674 0
M  V30 2486 N 236.496 -1.42363 0.676048 0
M  V30 2487 C 237.773 -1.95183 0.127726 0
M  V30 2488 C 238.153 -1.61641 -1.35777 0
M  V30 2489 O 237.501 -0.913216 -2.09458 0
M  V30 2490 C 237.711 -3.46721 0.398199 0
M  V30 2491 C 239.059 -4.23427 0.315383 0
M  V30 2492 O 240.083 -3.54649 0.332016 0
M  V30 2493 O 238.942 -5.45888 0.25865 0
M  V30 2494 H 236.036 -0.826992 0.00359427 0
M  V30 2495 H 238.582 -1.52184 0.750864 0
M  V30 2496 H 237.354 -3.64344 1.4272 0
M  V30 2497 H 236.977 -3.96769 -0.256885 0
M  V30 2498 N 237.974 -0.419461 -1.51915 0
M  V30 2499 C 239.22 0.153166 -2.02221 0
M  V30 2500 C 239.553 1.43907 -1.30401 0
M  V30 2501 O 238.828 1.90055 -0.413438 0
M  V30 2502 C 239.111 0.390291 -3.57979 0
M  V30 2503 C 238.964 -0.913014 -4.40436 0
M  V30 2504 C 240.283 1.16794 -4.2432 0
M  V30 2505 H 237.402 0.0541924 -0.735005 0
M  V30 2506 H 240.044 -0.554955 -1.81715 0
M  V30 2507 H 238.194 0.993491 -3.75582 0
M  V30 2508 H 239.866 -1.54882 -4.34522 0
M  V30 2509 H 238.109 -1.52168 -4.06236 0
M  V30 2510 H 238.78 -0.701361 -5.47526 0
M  V30 2511 H 241.256 0.657161 -4.10878 0
M  V30 2512 H 240.132 1.3026 -5.3322 0
M  V30 2513 H 240.393 2.19132 -3.83971 0
M  V30 2514 N 239.452 1.56882 -0.150215 0
M  V30 2515 C 240.382 2.19935 0.784284 0
M  V30 2516 C 241.363 1.14854 1.25469 0
M  V30 2517 O 242.548 1.43209 1.31168 0
M  V30 2518 C 239.678 2.82349 2.02229 0
M  V30 2519 C 238.632 3.93285 1.68853 0
M  V30 2520 C 237.958 4.42649 2.99944 0
M  V30 2521 C 239.258 5.13904 0.932714 0
M  V30 2522 H 240.952 2.9828 0.258781 0
M  V30 2523 H 238.498 1.43473 0.123029 0
M  V30 2524 H 240.451 3.25126 2.68088 0
M  V30 2525 H 239.175 2.0134 2.57157 0
M  V30 2526 H 237.834 3.5113 1.05371 0
M  V30 2527 H 237.482 3.58458 3.52869 0
M  V30 2528 H 237.182 5.17476 2.78374 0
M  V30 2529 H 238.706 4.88099 3.66868 0
M  V30 2530 H 240.12 5.53506 1.49345 0
M  V30 2531 H 238.517 5.94515 0.81684 0
M  V30 2532 H 239.587 4.84842 -0.0749568 0
M  V30 2533 N 240.93 -0.123565 1.57115 0
M  V30 2534 C 242.207 -0.862196 1.75572 0
M  V30 2535 C 242.587 -1.98279 0.724475 0
M  V30 2536 O 241.935 -2.27102 -0.252407 0
M  V30 2537 C 242.145 -1.38309 3.20424 0
M  V30 2538 C 243.493 -1.83724 3.82793 0
M  V30 2539 O 244.517 -1.47999 3.23998 0
M  V30 2540 O 243.376 -2.49685 4.86127 0
M  V30 2541 H 240.47 -0.409113 0.718718 0
M  V30 2542 H 243.016 -0.107661 1.69358 0
M  V30 2543 H 241.788 -0.578889 3.86994 0
M  V30 2544 H 241.411 -2.20046 3.31158 0
M  V30 2545 N 242.408 -1.52605 -0.393616 0
M  V30 2546 C 243.633 -1.71592 -1.16495 0
M  V30 2547 C 244.058 -0.43133 -1.83088 0
M  V30 2548 O 243.416 0.612523 -1.7064 0
M  V30 2549 C 243.464 -2.86318 -2.19213 0
M  V30 2550 O 242.568 -2.52969 -3.257 0
M  V30 2551 H 241.909 -0.570734 -0.33935 0
M  V30 2552 H 244.439 -1.99377 -0.459324 0
M  V30 2553 H 244.449 -3.1168 -2.63286 0
M  V30 2554 H 243.124 -3.79511 -1.7013 0
M  V30 2555 H 241.701 -2.38332 -2.86797 0
M  V30 2556 N 243.887 0.651787 -1.4349 0
M  V30 2557 C 245.136 1.40754 -1.44469 0
M  V30 2558 C 245.449 1.95463 -0.0731845 0
M  V30 2559 O 246.655 2.71471 0.0395721 0
M  V30 2560 C 245.111 2.54735 -2.5424 0
M  V30 2561 C 244.719 2.06628 -3.97504 0
M  V30 2562 C 246.463 3.32092 -2.64414 0
M  V30 2563 C 244.37 3.17829 -4.98737 0
M  V30 2564 H 243.3 0.528862 -0.53742 0
M  V30 2565 H 245.951 0.703365 -1.69485 0
M  V30 2566 H 244.333 3.2763 -2.22428 0
M  V30 2567 H 245.507 1.40734 -4.38783 0
M  V30 2568 H 243.822 1.42146 -3.91387 0
M  V30 2569 H 246.419 4.14952 -3.37223 0
M  V30 2570 H 246.762 3.80217 -1.69532 0
M  V30 2571 H 247.295 2.66279 -2.95534 0
M  V30 2572 H 244.034 2.74671 -5.95177 0
M  V30 2573 H 243.554 3.82429 -4.62069 0
M  V30 2574 H 245.233 3.82937 -5.21505 0
M  V30 2575 N 245.365 1.30045 0.890287 0
M  V30 2576 C 246.312 1.15976 1.99545 0
M  V30 2577 C 247.282 0.0506202 1.66023 0
M  V30 2578 O 248.467 0.219847 1.89529 0
M  V30 2579 C 245.607 0.852054 3.34416 0
M  V30 2580 C 244.72 2.04255 3.80662 0
M  V30 2581 C 243.855 1.6734 5.04154 0
M  V30 2582 C 242.894 2.82916 5.42794 0
M  V30 2583 N 242.031 2.46333 6.57468 0
M  V30 2584 H 246.871 2.10524 2.10911 0
M  V30 2585 H 244.408 1.04749 1.03276 0
M  V30 2586 H 246.366 0.654296 4.12037 0
M  V30 2587 H 244.996 -0.0565502 3.2275 0
M  V30 2588 H 244.048 2.35172 2.98995 0
M  V30 2589 H 245.36 2.90826 4.05242 0
M  V30 2590 H 244.514 1.43908 5.89386 0
M  V30 2591 H 243.253 0.779308 4.81433 0
M  V30 2592 H 242.258 3.0702 4.56091 0
M  V30 2593 H 243.483 3.73004 5.6749 0
M  V30 2594 H 241.429 1.59423 6.36334 0
M  V30 2595 H 241.346 3.26436 6.81891 0
M  V30 2596 H 242.614 2.26244 7.45945 0
M  V30 2597 N 246.843 -1.10192 1.12674 0
M  V30 2598 C 248.071 -1.85983 0.906527 0
M  V30 2599 C 248.486 -1.80783 -0.544333 0
M  V30 2600 O 247.843 -1.19834 -1.37645 0
M  V30 2601 C 247.894 -3.34281 1.37618 0
M  V30 2602 O 247.615 -3.39401 2.77017 0
M  V30 2603 C 249.116 -4.26938 1.19325 0
M  V30 2604 H 246.336 -0.587716 0.323775 0
M  V30 2605 H 248.88 -1.39284 1.49734 0
M  V30 2606 H 247.035 -3.78436 0.828539 0
M  V30 2607 H 247.449 -4.31838 2.97684 0
M  V30 2608 H 248.923 -5.29181 1.57071 0
M  V30 2609 H 249.4 -4.38995 0.134097 0
M  V30 2610 H 250.006 -3.8859 1.72852 0
M  V30 2611 N 248.321 -0.919034 -1.28029 0
M  V30 2612 C 249.268 -0.410005 -2.27129 0
M  V30 2613 C 250.238 0.518405 -1.57803 0
M  V30 2614 O 251.423 0.439451 -1.8567 0
M  V30 2615 C 248.563 0.339054 -3.4343 0
M  V30 2616 C 247.676 -0.622468 -4.27492 0
M  V30 2617 C 246.811 0.145567 -5.31001 0
M  V30 2618 C 245.85 -0.809226 -6.06727 0
M  V30 2619 N 244.987 -0.0743728 -7.02061 0
M  V30 2620 H 249.827 -1.26011 -2.70047 0
M  V30 2621 H 247.364 -0.632663 -1.328 0
M  V30 2622 H 249.322 0.789586 -4.0966 0
M  V30 2623 H 247.952 1.15346 -3.01488 0
M  V30 2624 H 247.004 -1.19153 -3.61257 0
M  V30 2625 H 248.316 -1.35252 -4.80113 0
M  V30 2626 H 247.47 0.656417 -6.03139 0
M  V30 2627 H 246.209 0.908643 -4.79161 0
M  V30 2628 H 245.214 -1.3314 -5.33436 0
M  V30 2629 H 246.439 -1.57194 -6.60656 0
M  V30 2630 H 244.385 0.670616 -6.52563 0
M  V30 2631 H 244.302 -0.744157 -7.52329 0
M  V30 2632 H 245.57 0.416109 -7.78389 0
M  V30 2633 N 249.799 1.42003 -0.683588 0
M  V30 2634 C 251.047 2.01015 -0.209101 0
M  V30 2635 C 251.368 1.54365 1.19149 0
M  V30 2636 O 250.638 0.769083 1.80172 0
M  V30 2637 H 249.218 0.743294 -0.074315 0
M  V30 2638 H 251.88 1.73798 -0.882066 0
M  V30 2639 H 250.976 3.11343 -0.2172 0
M  V30 2640 N 251.277 0.427512 1.51691 0
M  V30 2641 C 252.224 -0.388867 2.275 0
M  V30 2642 C 253.194 -1.02532 1.30677 0
M  V30 2643 O 254.379 -1.0461 1.59566 0
M  V30 2644 C 251.519 -1.48954 3.11298 0
M  V30 2645 C 250.632 -0.872194 4.23104 0
M  V30 2646 C 249.767 -1.94709 4.94228 0
M  V30 2647 C 248.806 -1.30766 5.97969 0
M  V30 2648 N 247.943 -2.32349 6.62539 0
M  V30 2649 H 252.783 0.263997 2.96828 0
M  V30 2650 H 250.32 0.142033 1.46413 0
M  V30 2651 H 252.278 -2.13887 3.58201 0
M  V30 2652 H 250.908 -2.11217 2.44105 0
M  V30 2653 H 249.96 -0.111419 3.80237 0
M  V30 2654 H 251.272 -0.365264 4.97461 0
M  V30 2655 H 250.426 -2.67327 5.44629 0
M  V30 2656 H 249.165 -2.48773 4.1948 0
M  V30 2657 H 248.17 -0.566902 5.4687 0
M  V30 2658 H 249.395 -0.774483 6.74669 0
M  V30 2659 H 247.341 -2.85511 5.90609 0
M  V30 2660 H 247.258 -1.8652 7.3263 0
M  V30 2661 H 248.526 -3.04481 7.17574 0
M  V30 2662 N 252.755 -1.56801 0.158532 0
M  V30 2663 C 253.98 -2.01295 -0.499516 0
M  V30 2664 C 254.405 -1.03799 -1.56867 0
M  V30 2665 O 253.763 -0.0155162 -1.81293 0
M  V30 2666 C 253.811 -3.44469 -1.06647 0
M  V30 2667 O 252.915 -3.50012 -2.18095 0
M  V30 2668 H 252.256 -0.652884 -0.12099 0
M  V30 2669 H 254.786 -2.02958 0.258661 0
M  V30 2670 H 254.796 -3.8351 -1.39227 0
M  V30 2671 H 253.471 -4.14932 -0.283581 0
M  V30 2672 H 252.048 -3.22822 -1.86656 0
M  V30 2673 N 254.233 0.115231 -1.57178 0
M  V30 2674 C 255.196 1.12526 -1.99676 0
M  V30 2675 C 256.196 1.34095 -0.88742 0
M  V30 2676 O 257.386 1.30548 -1.15337 0
M  V30 2677 C 254.518 2.4789 -2.34015 0
M  V30 2678 H 255.711 0.759912 -2.90113 0
M  V30 2679 H 253.264 0.359648 -1.52106 0
M  V30 2680 H 253.999 2.89339 -1.4647 0
M  V30 2681 H 253.784 2.33588 -3.14927 0
M  V30 2682 H 255.274 3.20575 -2.67622 0
M  V30 2683 N 255.711 1.52812 0.385517 0
M  V30 2684 C 256.988 1.5861 1.14465 0
M  V30 2685 C 257.368 0.381402 2.07626 0
M  V30 2686 O 256.716 -0.629999 2.19643 0
M  V30 2687 C 256.926 2.92664 1.90128 0
M  V30 2688 C 258.274 3.46526 2.45367 0
M  V30 2689 O 259.298 2.94562 2.0028 0
M  V30 2690 O 258.157 4.37323 3.27736 0
M  V30 2691 H 255.251 0.639855 0.523941 0
M  V30 2692 H 257.797 1.65149 0.390389 0
M  V30 2693 H 256.569 3.71788 1.22022 0
M  V30 2694 H 256.192 2.89527 2.72507 0
M  V30 2695 N 257.189 -0.644168 1.43834 0
M  V30 2696 C 258.436 -1.40395 1.4593 0
M  V30 2697 C 258.764 -1.94305 0.0869658 0
M  V30 2698 O 258.019 -1.73288 -0.909378 0
M  V30 2699 C 258.318 -2.59615 2.45631 0
M  V30 2700 C 257.984 -2.2407 3.91284 0
M  V30 2701 C 256.646 -2.14089 4.30952 0
M  V30 2702 C 258.998 -1.95775 4.83034 0
M  V30 2703 C 256.326 -1.73981 5.6031 0
M  V30 2704 C 258.678 -1.57163 6.12766 0
M  V30 2705 C 257.342 -1.45713 6.51402 0
M  V30 2706 H 256.612 -0.513741 0.533995 0
M  V30 2707 H 259.259 -0.731724 1.76969 0
M  V30 2708 H 257.564 -3.32011 2.08028 0
M  V30 2709 H 259.261 -3.17834 2.44504 0
M  V30 2710 H 255.851 -2.32753 3.59895 0
M  V30 2711 H 260.035 -2.02403 4.53152 0
M  V30 2712 H 255.291 -1.63709 5.89075 0
M  V30 2713 H 259.465 -1.34303 6.83327 0
M  V30 2714 H 257.092 -1.14406 7.51542 0
M  V30 2715 N 258.668 -1.30515 -0.883378 0
M  V30 2716 C 259.896 -1.22359 -1.66841 0
M  V30 2717 C 260.311 0.213296 -1.87591 0
M  V30 2718 O 259.668 1.14075 -1.42454 0
M  V30 2719 C 259.719 -1.95011 -3.04389 0
M  V30 2720 O 259.44 -3.3309 -2.84575 0
M  V30 2721 C 260.941 -1.93532 -3.98824 0
M  V30 2722 H 258.161 -0.423371 -0.520575 0
M  V30 2723 H 260.705 -1.72167 -1.10357 0
M  V30 2724 H 258.86 -1.48997 -3.57601 0
M  V30 2725 H 259.274 -3.69907 -3.71846 0
M  V30 2726 H 260.748 -2.48902 -4.92699 0
M  V30 2727 H 261.225 -0.914627 -4.29571 0
M  V30 2728 H 261.831 -2.39364 -3.51547 0
M  V30 2729 N 260.146 1.09593 -1.13257 0
M  V30 2730 C 261.094 2.18271 -0.803783 0
M  V30 2731 C 262.088 1.68054 0.213148 0
M  V30 2732 O 263.294 1.79862 0.0704699 0
M  V30 2733 H 259.669 0.711949 -0.242143 0
M  V30 2734 H 261.64 2.43235 -1.72856 0
M  V30 2735 C 260.389 3.46536 -0.28424 0
M  V30 2736 H 259.712 3.85545 -1.05807 0
M  V30 2737 H 261.152 4.23899 -0.0925945 0
M  V30 2738 C 259.611 3.22036 0.989684 0
M  V30 2739 O 260.141 3.44509 2.06584 0
M  V30 2740 N 258.347 2.7565 0.920086 0
M  V30 2741 H 257.894 2.57562 0.0442019 0
M  V30 2742 H 257.852 2.59635 1.77306 0
M  V30 2743 N 261.624 0.925811 1.2754 0
M  V30 2744 C 262.871 0.565255 1.94451 0
M  V30 2745 C 263.199 -0.89316 1.7278 0
M  V30 2746 O 262.454 -1.65213 1.04895 0
M  V30 2747 C 262.753 0.835296 3.47502 0
M  V30 2748 C 262.419 2.27515 3.89291 0
M  V30 2749 C 261.081 2.66879 4.00411 0
M  V30 2750 C 263.433 3.21158 4.10496 0
M  V30 2751 C 260.761 3.99014 4.30122 0
M  V30 2752 C 263.113 4.52871 4.4169 0
M  V30 2753 C 261.777 4.92072 4.51023 0
M  V30 2754 H 261.047 0.206841 0.711546 0
M  V30 2755 H 263.694 1.16942 1.51647 0
M  V30 2756 H 261.999 0.148442 3.91519 0
M  V30 2757 H 263.696 0.535322 3.97411 0
M  V30 2758 H 260.286 1.95976 3.81171 0
M  V30 2759 H 264.47 2.9195 4.01346 0
M  V30 2760 H 259.726 4.2907 4.35556 0
M  V30 2761 H 263.9 5.25436 4.57045 0
M  V30 2762 H 261.527 5.9449 4.738 0
M  V30 2763 N 263.102 -1.41638 0.69111 0
M  V30 2764 C 264.379 -1.95036 0.148421 0
M  V30 2765 C 264.759 -1.63072 -1.34055 0
M  V30 2766 O 264.107 -0.93538 -2.08478 0
M  V30 2767 C 264.317 -3.46279 0.434951 0
M  V30 2768 C 265.665 -4.23069 0.360275 0
M  V30 2769 O 266.689 -3.54277 0.369613 0
M  V30 2770 O 265.548 -5.45583 0.316534 0
M  V30 2771 H 262.642 -0.826908 0.0123654 0
M  V30 2772 H 265.188 -1.5138 0.766963 0
M  V30 2773 H 263.96 -3.6281 1.46576 0
M  V30 2774 H 263.583 -3.97019 -0.214787 0
M  V30 2775 N 264.58 -0.43555 -1.51462 0
M  V30 2776 C 265.991 0.0279871 -1.86679 0
M  V30 2777 C 266.342 1.42104 -1.35281 0
M  V30 2778 O 265.467 2.04667 -0.702878 0
M  V30 2779 C 266.062 0.0575626 -3.38751 0
M  V30 2780 C 264.621 0.465507 -3.7351 0
M  V30 2781 C 263.768 -0.342996 -2.75171 0
M  V30 2782 H 266.719 -0.651473 -1.44712 0
M  V30 2783 H 266.74 0.867421 -3.70481 0
M  V30 2784 H 266.252 -0.956448 -3.7613 0
M  V30 2785 H 264.353 1.48519 -3.41721 0
M  V30 2786 H 264.466 0.191546 -4.78717 0
M  V30 2787 H 262.83 0.198442 -2.53926 0
M  V30 2788 H 263.613 -1.35585 -3.15391 0
M  V30 2789 N 266.058 1.56714 -0.166846 0
M  V30 2790 C 267.474 1.58473 0.189372 0
M  V30 2791 C 267.674 1.18201 1.63189 0
M  V30 2792 O 266.73 0.891528 2.36237 0
M  V30 2793 C 268.043 3.00573 -0.0873872 0
M  V30 2794 C 269.591 3.1299 -0.0252443 0
M  V30 2795 C 270.066 4.57174 -0.274934 0
M  V30 2796 N 271.557 4.62665 -0.222553 0
M  V30 2797 C 272.292 5.72072 -0.389985 0
M  V30 2798 N 271.788 6.90054 -0.616229 0
M  V30 2799 N 273.581 5.61153 -0.326202 0
M  V30 2800 H 265.732 1.8118 -1.10849 0
M  V30 2801 H 267.995 0.839525 -0.440342 0
M  V30 2802 H 267.701 3.34497 -1.0865 0
M  V30 2803 H 267.575 3.72019 0.623037 0
M  V30 2804 H 269.962 2.78895 0.96444 0
M  V30 2805 H 270.043 2.43989 -0.768309 0
M  V30 2806 H 269.687 4.91976 -1.26181 0
M  V30 2807 H 269.617 5.24328 0.48869 0
M  V30 2808 H 272.108 3.77863 -0.0531512 0
M  V30 2809 H 272.421 7.69311 -0.733559 0
M  V30 2810 H 270.766 6.91927 -0.652791 0
M  V30 2811 H 273.957 4.67859 -0.150072 0
M  V30 2812 H 274.13 6.46364 -0.460116 0
M  V30 2813 N 267.536 -0.106894 1.57237 0
M  V30 2814 C 268.784 -0.810921 1.85117 0
M  V30 2815 C 269.105 -1.7984 0.753827 0
M  V30 2816 O 268.375 -1.94649 -0.221056 0
M  V30 2817 H 266.955 -0.302466 0.683025 0
M  V30 2818 H 269.617 -0.0913324 1.94686 0
M  V30 2819 H 268.713 -1.34875 2.81452 0
M  V30 2820 N 269.014 -1.53014 -0.377408 0
M  V30 2821 C 269.944 -1.81589 -1.46791 0
M  V30 2822 C 270.925 -0.668622 -1.56408 0
M  V30 2823 O 272.11 -0.917337 -1.71168 0
M  V30 2824 C 269.24 -1.99519 -2.8427 0
M  V30 2825 C 268.194 -3.15249 -2.89486 0
M  V30 2826 C 267.52 -3.18451 -4.29527 0
M  V30 2827 C 268.82 -4.54084 -2.58079 0
M  V30 2828 H 270.514 -2.7291 -1.23127 0
M  V30 2829 H 268.06 -1.31319 -0.590883 0
M  V30 2830 H 270.013 -2.18092 -3.60575 0
M  V30 2831 H 268.737 -1.04897 -3.09296 0
M  V30 2832 H 267.396 -2.96477 -2.15631 0
M  V30 2833 H 267.044 -2.2149 -4.5161 0
M  V30 2834 H 266.744 -3.962 -4.33934 0
M  V30 2835 H 268.268 -3.39193 -5.07721 0
M  V30 2836 H 269.682 -4.72899 -3.24098 0
M  V30 2837 H 268.079 -5.33987 -2.7382 0
M  V30 2838 H 269.149 -4.60006 -1.53372 0
M  V30 2839 N 270.492 0.636531 -1.44174 0
M  V30 2840 C 271.422 1.76003 -1.53444 0
M  V30 2841 C 272.403 1.65619 -0.387841 0
M  V30 2842 O 273.588 1.84461 -0.607257 0
M  V30 2843 C 270.718 3.14511 -1.4731 0
M  V30 2844 C 269.672 3.39677 -2.60391 0
M  V30 2845 C 268.998 4.78159 -2.39308 0
M  V30 2846 C 270.298 3.32772 -4.02567 0
M  V30 2847 H 271.992 1.68501 -2.47483 0
M  V30 2848 H 269.538 0.809237 -1.19111 0
M  V30 2849 H 271.491 3.92878 -1.52397 0
M  V30 2850 H 270.215 3.22783 -0.49785 0
M  V30 2851 H 268.874 2.63688 -2.54684 0
M  V30 2852 H 268.522 4.83128 -1.39988 0
M  V30 2853 H 268.222 4.95956 -3.15122 0
M  V30 2854 H 269.746 5.58762 -2.46205 0
M  V30 2855 H 271.16 4.01051 -4.09672 0
M  V30 2856 H 269.557 3.62104 -4.7854 0
M  V30 2857 H 270.627 2.30669 -4.2652 0
M  V30 2858 N 271.97 1.30982 0.876444 0
M  V30 2859 C 273.381 1.18277 1.44456 0
M  V30 2860 C 273.732 -0.213265 1.95037 0
M  V30 2861 O 272.857 -1.11057 1.85729 0
M  V30 2862 C 273.452 2.1411 2.62569 0
M  V30 2863 C 272.011 2.05358 3.15444 0
M  V30 2864 C 271.158 2.03706 1.88146 0
M  V30 2865 H 274.109 1.43127 0.685584 0
M  V30 2866 H 274.13 1.72692 3.39054 0
M  V30 2867 H 273.642 3.15706 2.25724 0
M  V30 2868 H 271.743 1.06934 3.56926 0
M  V30 2869 H 271.856 2.94156 3.78166 0
M  V30 2870 H 270.22 1.48629 2.06837 0
M  V30 2871 H 271.003 3.07047 1.53547 0
M  V30 2872 N 273.449 -1.08991 1.13837 0
M  V30 2873 C 274.359 -2.19301 0.833333 0
M  V30 2874 C 275.375 -1.73026 -0.183847 0
M  V30 2875 O 276.551 -2.01395 -0.0138092 0
M  V30 2876 C 273.616 -3.45323 0.308651 0
M  V30 2877 C 272.677 -4.06255 1.38764 0
M  V30 2878 C 271.91 -5.26262 0.887896 0
M  V30 2879 O 272.133 -5.69747 -0.27287 0
M  V30 2880 O 271.067 -5.78435 1.66421 0
M  V30 2881 H 274.893 -2.47854 1.75506 0
M  V30 2882 H 272.478 -1.18012 0.916166 0
M  V30 2883 H 274.36 -4.21394 0.0216739 0
M  V30 2884 H 273.035 -3.18362 -0.585431 0
M  V30 2885 H 271.942 -3.318 1.72799 0
M  V30 2886 H 273.275 -4.37452 2.25602 0
M  V30 2887 N 274.927 -0.932562 -1.27047 0
M  V30 2888 C 276.152 -0.591474 -1.98787 0
M  V30 2889 C 276.577 0.824601 -1.69062 0
M  V30 2890 O 275.935 1.5541 -0.933677 0
M  V30 2891 C 275.983 -0.829808 -3.50922 0
M  V30 2892 O 275.087 0.102266 -4.12273 0
M  V30 2893 H 274.428 -0.227185 -0.623926 0
M  V30 2894 H 276.958 -1.25314 -1.61733 0
M  V30 2895 H 276.968 -0.747292 -4.01098 0
M  V30 2896 H 275.643 -1.86201 -3.7189 0
M  V30 2897 H 274.22 -0.0305761 -3.72887 0
M  V30 2898 N 276.405 1.4127 -0.698611 0
M  V30 2899 C 277.335 2.33447 -0.049629 0
M  V30 2900 C 278.316 1.51982 0.763898 0
M  V30 2901 O 279.501 1.80509 0.716257 0
M  V30 2902 C 276.631 3.35828 0.885267 0
M  V30 2903 C 275.585 4.27627 0.178613 0
M  V30 2904 C 274.911 5.20406 1.22807 0
M  V30 2905 C 276.211 5.13459 -0.956933 0
M  V30 2906 H 277.905 2.87966 -0.81951 0
M  V30 2907 H 275.451 1.38461 -0.395538 0
M  V30 2908 H 277.404 3.9924 1.34854 0
M  V30 2909 H 276.128 2.79666 1.68685 0
M  V30 2910 H 274.787 3.65643 -0.26466 0
M  V30 2911 H 274.435 4.60558 2.02226 0
M  V30 2912 H 274.135 5.82661 0.760239 0
M  V30 2913 H 275.659 5.86695 1.69179 0
M  V30 2914 H 277.073 5.70421 -0.573805 0
M  V30 2915 H 275.47 5.8467 -1.35205 0
M  V30 2916 H 276.54 4.50443 -1.79524 0
M  V30 2917 N 277.883 0.443576 1.51229 0
M  V30 2918 C 279.16 -0.181038 1.9476 0
M  V30 2919 C 279.54 -1.59523 1.38259 0
M  V30 2920 O 278.888 -2.2122 0.572198 0
M  V30 2921 C 279.098 -0.152422 3.48667 0
M  V30 2922 C 280.446 -0.354923 4.23114 0
M  V30 2923 O 281.47 -0.230257 3.55455 0
M  V30 2924 O 280.329 -0.603674 5.43156 0
M  V30 2925 H 277.423 -0.1266 0.817252 0
M  V30 2926 H 279.969 0.502004 1.62105 0
M  V30 2927 H 278.741 0.836022 3.82265 0
M  V30 2928 H 278.364 -0.878107 3.87782 0
M  V30 2929 N 279.361 -1.56624 0.175154 0
M  V30 2930 C 280.591 -2.01082 -0.474283 0
M  V30 2931 C 280.999 -1.05447 -1.57091 0
M  V30 2932 O 280.342 -0.0480595 -1.83637 0
M  V30 2933 C 280.404 -3.41963 -1.10911 0
M  V30 2934 C 280.068 -4.56742 -0.153666 0
M  V30 2935 C 281.065 -5.16076 0.629448 0
M  V30 2936 C 278.75 -5.02277 -0.0483776 0
M  V30 2937 C 280.744 -6.19377 1.50501 0
M  V30 2938 C 278.431 -6.05427 0.830768 0
M  V30 2939 C 279.429 -6.63849 1.60605 0
M  V30 2940 O 279.117 -7.64998 2.47049 0
M  V30 2941 H 278.849 -0.664261 -0.125432 0
M  V30 2942 H 281.403 -2.03549 0.275163 0
M  V30 2943 H 279.633 -3.36422 -1.90676 0
M  V30 2944 H 281.322 -3.70352 -1.66114 0
M  V30 2945 H 282.088 -4.81776 0.558297 0
M  V30 2946 H 277.967 -4.56513 -0.641611 0
M  V30 2947 H 281.511 -6.64906 2.1106 0
M  V30 2948 H 277.408 -6.39151 0.903107 0
M  V30 2949 H 278.176 -7.82336 2.40607 0
M  V30 2950 N 280.839 0.0985539 -1.57292 0
M  V30 2951 C 282.085 0.798769 -1.87059 0
M  V30 2952 C 282.44 1.76514 -0.76555 0
M  V30 2953 O 281.733 1.90181 0.232752 0
M  V30 2954 C 281.927 1.56927 -3.21105 0
M  V30 2955 C 281.756 0.679026 -4.44544 0
M  V30 2956 C 280.526 0.326071 -5.04247 0
M  V30 2957 C 282.724 -0.0124715 -5.14298 0
M  V30 2958 N 280.706 -0.572702 -6.11223 0
M  V30 2959 C 282.077 -0.769446 -6.15207 0
M  V30 2960 C 284.132 -0.0867545 -4.97824 0
M  V30 2961 C 282.835 -1.59376 -7.01421 0
M  V30 2962 C 284.861 -0.897955 -5.84543 0
M  V30 2963 C 284.223 -1.64306 -6.84969 0
M  V30 2964 H 280.322 0.268568 -0.734435 0
M  V30 2965 H 282.906 0.0614664 -1.94603 0
M  V30 2966 H 281.077 2.27748 -3.1462 0
M  V30 2967 H 282.809 2.21641 -3.38611 0
M  V30 2968 H 279.564 0.67295 -4.68795 0
M  V30 2969 H 279.988 -1.01454 -6.69355 0
M  V30 2970 H 284.63 0.474963 -4.20124 0
M  V30 2971 H 282.348 -2.16655 -7.78515 0
M  V30 2972 H 285.934 -0.958059 -5.73858 0
M  V30 2973 H 284.814 -2.26065 -7.50909 0
M  V30 2974 N 282.317 1.53212 0.369288 0
M  V30 2975 C 283.545 1.73119 1.13303 0
M  V30 2976 C 283.96 0.458455 1.83149 0
M  V30 2977 O 283.317 -0.568403 1.73423 0
M  V30 2978 C 283.368 2.89413 2.16616 0
M  V30 2979 O 283.089 4.11761 1.49614 0
M  V30 2980 C 284.59 3.21161 3.05566 0
M  V30 2981 H 281.81 0.579107 0.338934 0
M  V30 2982 H 284.354 1.99942 0.429338 0
M  V30 2983 H 282.509 2.64994 2.82589 0
M  V30 2984 H 282.923 4.76858 2.18419 0
M  V30 2985 H 284.397 4.05949 3.74045 0
M  V30 2986 H 284.874 2.36369 3.70171 0
M  V30 2987 H 285.48 3.47492 2.45213 0
M  V30 2988 N 283.795 -0.628877 1.44509 0
M  V30 2989 C 285.025 -1.41349 1.50678 0
M  V30 2990 C 285.433 -1.88745 0.131075 0
M  V30 2991 O 284.776 -1.61592 -0.87371 0
M  V30 2992 C 284.838 -2.66608 2.41165 0
M  V30 2993 C 284.502 -2.40993 3.88293 0
M  V30 2994 C 285.499 -2.0268 4.78766 0
M  V30 2995 C 283.184 -2.54563 4.33016 0
M  V30 2996 C 285.178 -1.78269 6.11963 0
M  V30 2997 C 282.865 -2.29766 5.6626 0
M  V30 2998 C 283.863 -1.91678 6.55552 0
M  V30 2999 O 283.551 -1.67158 7.86329 0
M  V30 3000 H 283.283 -0.439851 0.51333 0
M  V30 3001 H 285.837 -0.776084 1.90174 0
M  V30 3002 H 284.067 -3.32994 1.96601 0
M  V30 3003 H 285.756 -3.28615 2.38259 0
M  V30 3004 H 286.522 -1.91751 4.45485 0
M  V30 3005 H 282.401 -2.83179 3.63773 0
M  V30 3006 H 285.945 -1.48465 6.81619 0
M  V30 3007 H 281.842 -2.40306 5.99102 0
M  V30 3008 H 282.61 -1.81386 7.98149 0
M  V30 3009 N 285.273 -1.31445 -0.869486 0
M  V30 3010 C 286.684 -1.19042 -1.43826 0
M  V30 3011 C 287.035 0.202919 -1.95148 0
M  V30 3012 O 286.16 1.10071 -1.86315 0
M  V30 3013 C 286.755 -2.15499 -2.6143 0
M  V30 3014 C 285.314 -2.07028 -3.14351 0
M  V30 3015 C 284.461 -2.04701 -1.87063 0
M  V30 3016 H 287.412 -1.43489 -0.677984 0
M  V30 3017 H 287.433 -1.74488 -3.38134 0
M  V30 3018 H 286.945 -3.16899 -2.24046 0
M  V30 3019 H 285.046 -1.08825 -3.56354 0
M  V30 3020 H 285.159 -2.96157 -3.766 0
M  V30 3021 H 283.523 -1.49724 -2.06046 0
M  V30 3022 H 284.306 -3.07857 -1.51917 0
M  V30 3023 N 286.751 1.08385 -1.14413 0
M  V30 3024 C 287.999 1.80419 -0.910679 0
M  V30 3025 C 288.32 1.86658 0.564243 0
M  V30 3026 O 287.59 1.35985 1.41014 0
M  V30 3027 H 286.17 0.668204 -0.333934 0
M  V30 3028 H 288.832 1.31037 -1.44275 0
M  V30 3029 H 287.928 2.83238 -1.31082 0
M  V30 3030 N 288.23 0.939286 1.26551 0
M  V30 3031 C 289.455 0.602008 1.98471 0
M  V30 3032 C 289.88 -0.815624 1.69497 0
M  V30 3033 O 289.238 -1.54912 0.941905 0
M  V30 3034 C 289.286 0.848407 3.50477 0
M  V30 3035 O 288.39 -0.0804009 4.12322 0
M  V30 3036 H 287.731 0.23049 0.622712 0
M  V30 3037 H 290.261 1.2617 1.61066 0
M  V30 3038 H 290.271 0.768553 4.00696 0
M  V30 3039 H 288.946 1.88171 3.70897 0
M  V30 3040 H 287.523 0.0503508 3.72866 0
M  V30 3041 N 289.708 -1.40897 0.706093 0
M  V30 3042 C 290.638 -2.33418 0.0620085 0
M  V30 3043 C 291.619 -1.52385 -0.755827 0
M  V30 3044 O 292.804 -1.80886 -0.706674 0
M  V30 3045 C 289.934 -3.36293 -0.867445 0
M  V30 3046 C 288.888 -4.27716 -0.155932 0
M  V30 3047 C 288.214 -5.2105 -1.20046 0
M  V30 3048 C 289.514 -5.12944 0.984149 0
M  V30 3049 H 291.208 -2.87527 0.83477 0
M  V30 3050 H 288.754 -1.38249 0.402875 0
M  V30 3051 H 290.707 -3.99949 -1.32735 0
M  V30 3052 H 289.431 -2.80556 -1.67199 0
M  V30 3053 H 288.09 -3.65498 0.284047 0
M  V30 3054 H 287.738 -4.61624 -1.99781 0
M  V30 3055 H 287.438 -5.83056 -0.729328 0
M  V30 3056 H 288.962 -5.87584 -1.66066 0
M  V30 3057 H 290.376 -5.70109 0.604048 0
M  V30 3058 H 288.773 -5.83945 1.38304 0
M  V30 3059 H 289.843 -4.49485 1.81911 0
M  V30 3060 N 291.186 -0.45159 -1.50991 0
M  V30 3061 C 292.414 0.108334 -2.06616 0
M  V30 3062 C 292.829 1.35224 -1.31757 0
M  V30 3063 O 292.186 1.78475 -0.381174 0
M  V30 3064 C 292.237 0.41619 -3.59096 0
M  V30 3065 O 291.958 -0.778361 -4.3113 0
M  V30 3066 C 293.459 1.02523 -4.31282 0
M  V30 3067 H 290.679 0.00159995 -0.670998 0
M  V30 3068 H 293.223 -0.634771 -1.94399 0
M  V30 3069 H 291.378 1.10921 -3.71181 0
M  V30 3070 H 291.792 -0.511181 -5.22003 0
M  V30 3071 H 293.266 1.19053 -5.39009 0
M  V30 3072 H 293.743 2.01013 -3.905 0
M  V30 3073 H 294.349 0.371173 -4.23677 0
M  V30 3074 N 292.664 1.56529 -0.183458 0
M  V30 3075 C 293.892 2.01623 0.464285 0
M  V30 3076 C 294.307 1.06366 1.55986 0
M  V30 3077 O 293.664 0.0665398 1.82379 0
M  V30 3078 C 293.715 3.46475 1.03139 0
M  V30 3079 O 293.436 4.38095 -0.0204675 0
M  V30 3080 C 294.937 4.0703 1.75617 0
M  V30 3081 H 292.157 0.660596 0.117704 0
M  V30 3082 H 294.701 2.02451 -0.288751 0
M  V30 3083 H 292.856 3.46383 1.73486 0
M  V30 3084 H 293.27 5.22973 0.399952 0
M  V30 3085 H 294.744 5.10271 2.10542 0
M  V30 3086 H 295.221 3.49819 2.65563 0
M  V30 3087 H 295.827 4.1086 1.09882 0
M  V30 3088 N 294.142 -0.090211 1.57342 0
M  V30 3089 C 295.553 -0.644173 1.75235 0
M  V30 3090 C 295.904 -1.78865 0.806335 0
M  V30 3091 O 295.029 -2.16395 -0.0140128 0
M  V30 3092 C 295.624 -1.17532 3.1776 0
M  V30 3093 C 294.183 -1.67531 3.37061 0
M  V30 3094 C 293.33 -0.58693 2.71017 0
M  V30 3095 H 296.281 0.135884 1.58117 0
M  V30 3096 H 296.302 -2.04455 3.20902 0
M  V30 3097 H 295.814 -0.342138 3.86589 0
M  V30 3098 H 293.915 -2.53234 2.73319 0
M  V30 3099 H 294.028 -1.76493 4.45406 0
M  V30 3100 H 292.392 -1.02756 2.33052 0
M  V30 3101 H 293.175 0.235758 3.4249 0
M  V30 3102 N 295.62 -1.53406 -0.361157 0
M  V30 3103 C 297.031 -1.61442 -0.937728 0
M  V30 3104 C 297.382 -0.48461 -1.90121 0
M  V30 3105 O 296.507 0.388312 -2.12888 0
M  V30 3106 C 297.102 -2.92624 -1.70753 0
M  V30 3107 C 295.661 -3.02981 -2.23337 0
M  V30 3108 C 294.808 -2.5677 -1.04712 0
M  V30 3109 H 297.759 -1.58083 -0.139816 0
M  V30 3110 H 297.78 -2.80675 -2.56908 0
M  V30 3111 H 297.292 -3.74834 -1.00604 0
M  V30 3112 H 295.393 -2.25368 -2.96715 0
M  V30 3113 H 295.506 -4.0814 -2.50916 0
M  V30 3114 H 293.87 -2.11752 -1.41539 0
M  V30 3115 H 294.653 -3.41402 -0.360539 0
M  V30 3116 N 297.098 0.621204 -1.44841 0
M  V30 3117 C 298.028 1.74366 -1.55303 0
M  V30 3118 C 299.009 1.65199 -0.405385 0
M  V30 3119 O 300.194 1.83807 -0.626787 0
M  V30 3120 C 297.324 3.12931 -1.50637 0
M  V30 3121 C 296.278 3.36896 -2.63979 0
M  V30 3122 C 295.604 4.75594 -2.44366 0
M  V30 3123 C 296.904 3.28483 -4.06074 0
M  V30 3124 H 298.598 1.65867 -2.49256 0
M  V30 3125 H 296.144 0.796558 -1.19962 0
M  V30 3126 H 298.097 3.9124 -1.56555 0
M  V30 3127 H 296.821 3.22237 -0.532057 0
M  V30 3128 H 295.48 2.60972 -2.57467 0
M  V30 3129 H 295.128 4.81616 -1.45105 0
M  V30 3130 H 294.828 4.92586 -3.20364 0
M  V30 3131 H 296.352 5.5612 -2.52117 0
M  V30 3132 H 297.766 3.96684 -4.13902 0
M  V30 3133 H 296.163 3.57008 -4.82354 0
M  V30 3134 H 297.233 2.26133 -4.28943 0
M  V30 3135 N 298.576 1.31904 0.862503 0
M  V30 3136 C 299.506 1.22782 1.98612 0
M  V30 3137 C 300.487 0.113362 1.69722 0
M  V30 3138 O 301.672 0.299218 1.91881 0
M  V30 3139 C 298.802 0.942058 3.34279 0
M  V30 3140 C 297.756 2.0169 3.77499 0
M  V30 3141 C 297.082 1.58369 5.10709 0
M  V30 3142 C 298.382 3.43096 3.93805 0
M  V30 3143 H 300.076 2.16788 2.06502 0
M  V30 3144 H 297.622 1.04366 0.992154 0
M  V30 3145 H 299.575 0.864818 4.1243 0
M  V30 3146 H 298.299 -0.0336603 3.26583 0
M  V30 3147 H 296.958 2.08416 3.01593 0
M  V30 3148 H 296.606 0.595628 4.99461 0
M  V30 3149 H 296.306 2.30279 5.40597 0
M  V30 3150 H 297.83 1.52067 5.91361 0
M  V30 3151 H 299.244 3.39003 4.62331 0
M  V30 3152 H 297.641 4.13288 4.35101 0
M  V30 3153 H 298.711 3.83334 2.96957 0
M  V30 3154 N 300.054 -1.07777 1.14986 0
M  V30 3155 C 300.964 -2.18404 0.856546 0
M  V30 3156 C 301.98 -1.73211 -0.165485 0
M  V30 3157 O 303.156 -2.01399 0.00755219 0
M  V30 3158 C 300.221 -3.44977 0.34526 0
M  V30 3159 C 299.282 -4.0476 1.43065 0
M  V30 3160 C 298.515 -5.25291 0.943663 0
M  V30 3161 O 298.738 -5.70004 -0.212426 0
M  V30 3162 O 297.672 -5.76638 1.72547 0
M  V30 3163 H 301.498 -2.45978 1.78125 0
M  V30 3164 H 299.083 -1.17033 0.928631 0
M  V30 3165 H 300.965 -4.21348 0.0663671 0
M  V30 3166 H 299.64 -3.18965 -0.551631 0
M  V30 3167 H 298.547 -3.29949 1.76309 0
M  V30 3168 H 299.88 -4.35035 2.30229 0
M  V30 3169 N 301.532 -0.945985 -1.26051 0
M  V30 3170 C 302.772 -0.603665 -1.95282 0
M  V30 3171 C 303.136 0.842377 -1.72534 0
M  V30 3172 O 304.337 1.29387 -2.35611 0
M  V30 3173 C 302.608 -0.942292 -3.44754 0
M  V30 3174 S 304.167 -0.711242 -4.32997 0
M  V30 3175 H 300.985 -0.222176 -0.675395 0
M  V30 3176 H 303.587 -1.21832 -1.52896 0
M  V30 3177 H 302.291 -1.99203 -3.58812 0
M  V30 3178 H 301.822 -0.317546 -3.92116 0
M  V30 3179 H 303.837 0.422221 -4.944 0
M  V30 3180 N 303.011 1.40521 -0.713556 0
M  V30 3181 C 304.257 2.01221 -0.252564 0
M  V30 3182 C 304.59 1.56444 1.1506 0
M  V30 3183 O 303.865 0.783597 1.78017 0
M  V30 3184 C 304.148 3.58582 -0.330332 0
M  V30 3185 C 304.001 4.13437 -1.77173 0
M  V30 3186 C 305.32 4.39079 0.299641 0
M  V30 3187 H 302.439 0.731077 -0.0932471 0
M  V30 3188 H 305.081 1.67026 -0.905673 0
M  V30 3189 H 303.231 3.87844 0.225737 0
M  V30 3190 H 304.903 3.9498 -2.38303 0
M  V30 3191 H 303.146 3.67801 -2.3001 0
M  V30 3192 H 303.817 5.22597 -1.77755 0
M  V30 3193 H 306.293 4.15735 -0.174139 0
M  V30 3194 H 305.169 5.4848 0.214771 0
M  V30 3195 H 305.43 4.19915 1.38288 0
M  V30 3196 N 304.489 0.459591 1.5075 0
M  V30 3197 C 305.717 -0.0973749 2.06671 0
M  V30 3198 C 306.132 -1.34524 1.32472 0
M  V30 3199 O 305.489 -1.7827 0.390634 0
M  V30 3200 C 305.54 -0.39714 3.59312 0
M  V30 3201 O 305.261 0.801214 4.30711 0
M  V30 3202 C 306.762 -1.00234 4.31819 0
M  V30 3203 H 303.982 0.00195854 0.670997 0
M  V30 3204 H 306.526 0.645072 1.94059 0
M  V30 3205 H 304.681 -1.08951 3.71764 0
M  V30 3206 H 305.095 0.538857 5.21725 0
M  V30 3207 H 306.569 -1.16193 5.39632 0
M  V30 3208 H 307.046 -1.98939 3.91561 0
M  V30 3209 H 307.652 -0.348699 4.23868 0
M  V30 3210 N 305.967 -1.56429 0.191757 0
M  V30 3211 C 307.213 -1.98541 -0.441943 0
M  V30 3212 C 307.568 -1.07646 -1.59468 0
M  V30 3213 O 306.861 -0.120191 -1.91223 0
M  V30 3214 C 307.055 -3.44449 -0.953384 0
M  V30 3215 C 306.884 -4.49456 0.148262 0
M  V30 3216 C 305.654 -5.01668 0.604781 0
M  V30 3217 C 307.852 -5.05336 0.95602 0
M  V30 3218 N 305.834 -5.90334 1.6846 0
M  V30 3219 C 307.205 -5.9064 1.88531 0
M  V30 3220 C 309.26 -4.87779 0.998811 0
M  V30 3221 C 307.963 -6.60264 2.85383 0
M  V30 3222 C 309.989 -5.58139 1.95537 0
M  V30 3223 C 309.351 -6.43187 2.8721 0
M  V30 3224 H 305.45 -0.771247 -0.129236 0
M  V30 3225 H 308.034 -1.92426 0.296682 0
M  V30 3226 H 306.205 -3.5107 -1.66146 0
M  V30 3227 H 307.937 -3.73533 -1.55741 0
M  V30 3228 H 304.692 -4.73183 0.198736 0
M  V30 3229 H 305.116 -6.39371 2.22561 0
M  V30 3230 H 309.758 -4.21705 0.304048 0
M  V30 3231 H 307.476 -7.25538 3.55837 0
M  V30 3232 H 311.062 -5.46532 1.99484 0
M  V30 3233 H 309.942 -6.96674 3.60022 0
M  V30 3234 N 307.445 0.0818655 -1.57387 0
M  V30 3235 C 308.694 0.781681 -1.85937 0
M  V30 3236 C 309.007 1.79246 -0.782957 0
M  V30 3237 O 310.213 2.54112 -0.955987 0
M  V30 3238 C 308.669 1.44109 -3.29789 0
M  V30 3239 C 308.277 0.469396 -4.45534 0
M  V30 3240 C 310.021 2.12386 -3.67549 0
M  V30 3241 C 307.928 1.13415 -5.80423 0
M  V30 3242 H 306.858 0.295682 -0.693605 0
M  V30 3243 H 309.509 0.0348051 -1.83467 0
M  V30 3244 H 307.891 2.23588 -3.2684 0
M  V30 3245 H 309.065 -0.294856 -4.59856 0
M  V30 3246 H 307.38 -0.108383 -4.16259 0
M  V30 3247 H 309.977 2.62878 -4.65617 0
M  V30 3248 H 310.32 2.91877 -2.96839 0
M  V30 3249 H 310.853 1.39751 -3.72444 0
M  V30 3250 H 307.592 0.379771 -6.54399 0
M  V30 3251 H 307.112 1.8695 -5.69921 0
M  V30 3252 H 308.791 1.65686 -6.25426 0
M  V30 3253 N 308.923 1.53595 0.353017 0
M  V30 3254 C 310.169 1.70638 1.09593 0
M  V30 3255 C 310.502 0.463286 1.88593 0
M  V30 3256 O 309.777 -0.539597 1.86865 0
M  V30 3257 C 310.06 2.96406 2.04489 0
M  V30 3258 C 309.913 4.30901 1.29014 0
M  V30 3259 C 311.232 3.17812 3.0444 0
M  V30 3260 H 308.351 0.620913 0.397034 0
M  V30 3261 H 310.993 1.86254 0.375446 0
M  V30 3262 H 309.143 2.83223 2.65927 0
M  V30 3263 H 310.815 4.55917 0.702638 0
M  V30 3264 H 309.058 4.29741 0.592071 0
M  V30 3265 H 309.729 5.1506 1.98537 0
M  V30 3266 H 312.205 3.30263 2.53112 0
M  V30 3267 H 311.081 4.07223 3.6805 0
M  V30 3268 H 311.342 2.33669 3.75301 0
M  V30 3269 N 310.401 -0.613514 1.45168 0
M  V30 3270 C 311.331 -1.7354 1.56225 0
M  V30 3271 C 312.312 -1.64981 0.41414 0
M  V30 3272 O 313.497 -1.83472 0.636526 0
M  V30 3273 C 310.627 -3.12128 1.52295 0
M  V30 3274 C 309.581 -3.35491 2.65762 0
M  V30 3275 C 308.907 -4.74291 2.46885 0
M  V30 3276 C 310.207 -3.26325 4.0781 0
M  V30 3277 H 311.901 -1.64543 2.50132 0
M  V30 3278 H 309.447 -0.790185 1.20383 0
M  V30 3279 H 311.4 -3.90404 1.58628 0
M  V30 3280 H 310.124 -3.2195 0.549139 0
M  V30 3281 H 308.783 -2.59603 2.58847 0
M  V30 3282 H 308.431 -4.80839 1.47657 0
M  V30 3283 H 308.131 -4.9088 3.22972 0
M  V30 3284 H 309.655 -5.54775 2.55063 0
M  V30 3285 H 311.069 -3.94483 4.16 0
M  V30 3286 H 309.466 -3.54445 4.8424 0
M  V30 3287 H 310.536 -2.23855 4.30136 0
M  V30 3288 N 311.879 -1.3236 -0.855495 0
M  V30 3289 C 312.826 -1.21225 -1.964 0
M  V30 3290 C 313.796 -0.0946204 -1.6583 0
M  V30 3291 O 314.981 -0.27002 -1.8888 0
M  V30 3292 C 312.121 -0.940419 -3.32039 0
M  V30 3293 C 311.234 -2.14276 -3.75113 0
M  V30 3294 C 310.369 -1.80648 -4.9954 0
M  V30 3295 C 309.408 -2.97208 -5.35102 0
M  V30 3296 N 308.545 -2.63678 -6.50706 0
M  V30 3297 H 313.385 -2.16042 -2.05255 0
M  V30 3298 H 310.922 -1.07451 -1.00463 0
M  V30 3299 H 312.88 -0.763311 -4.10158 0
M  V30 3300 H 311.51 -0.0290413 -3.22787 0
M  V30 3301 H 310.562 -2.43017 -2.92655 0
M  V30 3302 H 311.874 -3.01468 -3.97389 0
M  V30 3303 H 311.028 -1.59484 -5.85363 0
M  V30 3304 H 309.767 -0.906678 -4.79198 0
M  V30 3305 H 308.772 -3.19004 -4.47791 0
M  V30 3306 H 309.997 -3.87918 -5.57401 0
M  V30 3307 H 307.943 -1.76238 -6.31883 0
M  V30 3308 H 307.86 -3.444 -6.72997 0
M  V30 3309 H 309.128 -2.45942 -7.39684 0
M  V30 3310 N 313.357 1.07166 -1.15556 0
M  V30 3311 C 314.267 2.17947 -0.868116 0
M  V30 3312 C 315.283 1.73297 0.156297 0
M  V30 3313 O 316.459 2.01392 -0.0182327 0
M  V30 3314 C 313.524 3.44789 -0.36355 0
M  V30 3315 C 312.585 4.03996 -1.45209 0
M  V30 3316 C 311.818 5.24783 -0.971508 0
M  V30 3317 O 312.041 5.70109 0.182194 0
M  V30 3318 O 310.975 5.75715 -1.75603 0
M  V30 3319 H 314.801 2.4503 -1.79427 0
M  V30 3320 H 312.386 1.16539 -0.934824 0
M  V30 3321 H 314.268 4.21307 -0.0887113 0
M  V30 3322 H 312.943 3.19253 0.534708 0
M  V30 3323 H 311.85 3.29009 -1.78056 0
M  V30 3324 H 313.183 4.33808 -2.32533 0
M  V30 3325 N 314.835 0.952656 1.25548 0
M  V30 3326 C 316.246 0.647392 1.75116 0
M  V30 3327 C 316.597 -0.837274 1.77438 0
M  V30 3328 O 315.722 -1.65525 1.39393 0
M  V30 3329 C 316.317 1.16845 3.18014 0
M  V30 3330 C 314.876 0.913382 3.6515 0
M  V30 3331 C 314.023 1.31265 2.44264 0
M  V30 3332 H 316.974 1.12968 1.11462 0
M  V30 3333 H 316.995 0.527606 3.76824 0
M  V30 3334 H 316.507 2.24902 3.16292 0
M  V30 3335 H 314.608 -0.152316 3.72289 0
M  V30 3336 H 314.721 1.54845 4.53387 0
M  V30 3337 H 313.085 0.731028 2.43984 0
M  V30 3338 H 313.868 2.40239 2.45234 0
M  V30 3339 N 316.313 -1.40141 0.720998 0
M  V30 3340 C 317.562 -2.0002 0.259804 0
M  V30 3341 C 317.875 -1.57839 -1.15526 0
M  V30 3342 O 319.081 -2.10455 -1.71525 0
M  V30 3343 C 317.537 -3.57516 0.413566 0
M  V30 3344 C 317.145 -4.08667 1.83562 0
M  V30 3345 C 318.889 -4.24498 0.0134387 0
M  V30 3346 C 316.796 -5.58686 1.93968 0
M  V30 3347 H 315.726 -0.748195 0.0933806 0
M  V30 3348 H 318.377 -1.60313 0.892866 0
M  V30 3349 H 316.759 -3.9495 -0.288169 0
M  V30 3350 H 317.933 -3.82598 2.56817 0
M  V30 3351 H 316.248 -3.543 2.1877 0
M  V30 3352 H 318.845 -5.34654 0.0703954 0
M  V30 3353 H 319.188 -4.03375 -1.02927 0
M  V30 3354 H 319.721 -3.92188 0.665815 0
M  V30 3355 H 316.46 -5.8467 2.96379 0
M  V30 3356 H 315.98 -5.86602 1.25131 0
M  V30 3357 H 317.659 -6.23875 1.71431 0
M  V30 3358 N 317.792 -0.46758 -1.50504 0
M  V30 3359 C 319.017 0.0886943 -2.0721 0
M  V30 3360 C 319.442 1.33057 -1.32956 0
M  V30 3361 O 318.8 1.77354 -0.376197 0
M  V30 3362 C 318.848 0.359202 -3.58806 0
M  V30 3363 O 317.952 1.44034 -3.8643 0
M  V30 3364 H 317.293 -0.0114349 -0.663902 0
M  V30 3365 H 319.823 -0.657613 -1.93744 0
M  V30 3366 H 319.833 0.600742 -4.03553 0
M  V30 3367 H 318.508 -0.548311 -4.1227 0
M  V30 3368 H 317.085 1.18638 -3.53524 0
M  V30 3369 N 319.27 1.56325 -0.20005 0
M  V30 3370 C 320.516 1.98012 0.438059 0
M  V30 3371 C 320.849 1.08702 1.60927 0
M  V30 3372 O 320.124 0.140064 1.93995 0
M  V30 3373 C 320.407 3.48841 0.893419 0
M  V30 3374 C 320.26 4.48928 -0.279947 0
M  V30 3375 C 321.579 4.03498 1.75719 0
M  V30 3376 H 318.698 0.719918 0.157757 0
M  V30 3377 H 321.34 1.87743 -0.291968 0
M  V30 3378 H 319.49 3.57723 1.51547 0
M  V30 3379 H 321.162 4.52079 -0.91772 0
M  V30 3380 H 319.405 4.23694 -0.930919 0
M  V30 3381 H 320.076 5.5194 0.0812601 0
M  V30 3382 H 322.552 3.97427 1.23253 0
M  V30 3383 H 321.428 5.09393 2.04476 0
M  V30 3384 H 321.689 3.4906 2.71311 0
M  V30 3385 N 320.748 -0.0735177 1.57428 0
M  V30 3386 C 321.973 -0.789787 1.91774 0
M  V30 3387 C 322.398 -1.70413 0.796306 0
M  V30 3388 O 321.756 -1.79555 -0.250961 0
M  V30 3389 C 321.804 -1.5609 3.25067 0
M  V30 3390 O 320.908 -2.67144 3.14178 0
M  V30 3391 H 320.249 -0.215582 0.628029 0
M  V30 3392 H 322.779 -0.0422781 2.04556 0
M  V30 3393 H 322.789 -1.94052 3.58898 0
M  V30 3394 H 321.464 -0.890015 4.06265 0
M  V30 3395 H 320.041 -2.32052 2.91901 0
M  V30 3396 N 322.226 -1.5378 -0.344866 0
M  V30 3397 C 323.451 -1.75211 -1.10977 0
M  V30 3398 C 323.876 -0.48936 -1.81623 0
M  V30 3399 O 323.234 0.557925 -1.72502 0
M  V30 3400 C 323.282 -2.93147 -2.09993 0
M  V30 3401 O 322.386 -2.63203 -3.17487 0
M  V30 3402 H 321.727 -0.581241 -0.321021 0
M  V30 3403 H 324.257 -2.00738 -0.395661 0
M  V30 3404 H 324.267 -3.19898 -2.53237 0
M  V30 3405 H 322.942 -3.84731 -1.5797 0
M  V30 3406 H 321.519 -2.47336 -2.79069 0
M  V30 3407 N 323.704 0.605807 -1.45491 0
M  V30 3408 C 324.614 1.74466 -1.56839 0
M  V30 3409 C 325.63 1.68006 -0.452772 0
M  V30 3410 O 326.806 1.8833 -0.713708 0
M  V30 3411 C 323.871 3.10931 -1.53371 0
M  V30 3412 C 322.932 3.28832 -2.75986 0
M  V30 3413 C 322.165 4.58787 -2.72673 0
M  V30 3414 O 322.388 5.4122 -1.80102 0
M  V30 3415 O 321.322 4.79438 -3.63899 0
M  V30 3416 H 325.148 1.67843 -2.53106 0
M  V30 3417 H 322.733 0.770108 -1.28022 0
M  V30 3418 H 324.615 3.92233 -1.54051 0
M  V30 3419 H 323.29 3.18042 -0.602572 0
M  V30 3420 H 322.197 2.47112 -2.80867 0
M  V30 3421 H 323.53 3.26599 -3.68231 0
M  V30 3422 N 325.182 1.32811 0.848464 0
M  V30 3423 C 326.114 1.18095 1.96433 0
M  V30 3424 C 327.127 0.114354 1.62398 0
M  V30 3425 O 328.316 0.363892 1.74751 0
M  V30 3426 C 325.416 0.786798 3.2964 0
M  V30 3427 C 324.589 1.943 3.91875 0
M  V30 3428 C 323.648 1.53138 5.03423 0
M  V30 3429 O 322.674 2.24432 5.23086 0
M  V30 3430 N 323.876 0.430915 5.78898 0
M  V30 3431 H 326.641 2.14218 2.09597 0
M  V30 3432 H 324.202 1.2543 1.02367 0
M  V30 3433 H 326.194 0.493715 4.01677 0
M  V30 3434 H 324.764 -0.0834541 3.12489 0
M  V30 3435 H 323.984 2.40224 3.12547 0
M  V30 3436 H 325.272 2.71689 4.30189 0
M  V30 3437 H 324.67 -0.162333 5.65467 0
M  V30 3438 H 323.227 0.197466 6.51501 0
M  V30 3439 N 326.66 -1.06551 1.16123 0
M  V30 3440 C 327.906 -1.79567 0.94252 0
M  V30 3441 C 328.239 -1.86869 -0.528547 0
M  V30 3442 O 327.514 -1.35838 -1.39206 0
M  V30 3443 C 327.797 -3.24195 1.56747 0
M  V30 3444 C 327.65 -3.24989 3.10969 0
M  V30 3445 C 328.969 -4.21678 1.25998 0
M  V30 3446 H 326.088 -0.651883 0.343828 0
M  V30 3447 H 328.73 -1.2463 1.43413 0
M  V30 3448 H 326.88 -3.71107 1.14942 0
M  V30 3449 H 328.552 -2.86258 3.61737 0
M  V30 3450 H 326.795 -2.63716 3.44436 0
M  V30 3451 H 327.466 -4.27005 3.49815 0
M  V30 3452 H 329.942 -3.83196 1.62174 0
M  V30 3453 H 328.818 -5.21146 1.7233 0
M  V30 3454 H 329.079 -4.4174 0.178367 0
M  V30 3455 N 328.138 -0.959301 -1.25041 0
M  V30 3456 C 329.068 -0.501388 -2.28053 0
M  V30 3457 C 330.049 0.454673 -1.63911 0
M  V30 3458 O 331.234 0.352618 -1.90972 0
M  V30 3459 C 328.364 0.217224 -3.4662 0
M  V30 3460 C 327.318 -0.654034 -4.22973 0
M  V30 3461 C 326.644 0.195589 -5.34342 0
M  V30 3462 C 327.944 -1.93447 -4.85155 0
M  V30 3463 H 329.638 -1.36238 -2.66608 0
M  V30 3464 H 327.184 -0.656534 -1.28163 0
M  V30 3465 H 329.137 0.548732 -4.17812 0
M  V30 3466 H 327.861 1.1125 -3.07068 0
M  V30 3467 H 326.52 -0.968693 -3.5357 0
M  V30 3468 H 326.168 1.09076 -4.91031 0
M  V30 3469 H 325.868 -0.384091 -5.86343 0
M  V30 3470 H 327.392 0.521958 -6.08365 0
M  V30 3471 H 328.806 -1.66908 -5.48466 0
M  V30 3472 H 327.203 -2.46018 -5.47353 0
M  V30 3473 H 328.273 -2.63466 -4.07079 0
M  V30 3474 N 329.616 1.39756 -0.72842 0
M  V30 3475 C 330.563 2.30647 -0.0841519 0
M  V30 3476 C 331.533 1.48869 0.7367 0
M  V30 3477 O 332.718 1.77574 0.698015 0
M  V30 3478 C 329.858 3.35165 0.822091 0
M  V30 3479 C 328.971 4.31999 -0.0106663 0
M  V30 3480 C 328.106 5.23585 0.896241 0
M  V30 3481 C 327.145 6.12072 0.0583381 0
M  V30 3482 N 326.282 6.96035 0.920818 0
M  V30 3483 H 331.122 2.85173 -0.864891 0
M  V30 3484 H 328.659 1.40422 -0.438179 0
M  V30 3485 H 330.617 3.94345 1.36189 0
M  V30 3486 H 329.247 2.8211 1.56888 0
M  V30 3487 H 328.299 3.74492 -0.66781 0
M  V30 3488 H 329.611 4.9443 -0.658825 0
M  V30 3489 H 328.765 5.87759 1.50412 0
M  V30 3490 H 327.504 4.61459 1.57819 0
M  V30 3491 H 326.509 5.46916 -0.562389 0
M  V30 3492 H 327.734 6.76261 -0.6203 0
M  V30 3493 H 325.68 6.36485 1.58818 0
M  V30 3494 H 325.597 7.55284 0.32899 0
M  V30 3495 H 326.865 7.64646 1.51447 0
M  V30 3496 N 331.094 0.475555 1.50254 0
M  V30 3497 C 332.341 -0.0778919 2.0235 0
M  V30 3498 C 332.669 -1.39319 1.35722 0
M  V30 3499 O 331.924 -1.89888 0.473395 0
M  V30 3500 C 332.223 -0.305114 3.56095 0
M  V30 3501 C 331.889 0.92903 4.41225 0
M  V30 3502 C 330.551 1.26739 4.6421 0
M  V30 3503 C 332.903 1.75054 4.90923 0
M  V30 3504 C 330.231 2.42724 5.34137 0
M  V30 3505 C 332.583 2.9017 5.62125 0
M  V30 3506 C 331.247 3.24416 5.83362 0
M  V30 3507 H 330.517 -0.0285027 0.740452 0
M  V30 3508 H 333.164 0.630543 1.80821 0
M  V30 3509 H 331.469 -1.09584 3.76163 0
M  V30 3510 H 333.166 -0.747377 3.93974 0
M  V30 3511 H 329.756 0.655428 4.23559 0
M  V30 3512 H 333.94 1.50231 4.73016 0
M  V30 3513 H 329.196 2.69525 5.48786 0
M  V30 3514 H 333.37 3.54169 5.99614 0
M  V30 3515 H 330.997 4.14396 6.37323 0
M  V30 3516 N 332.573 -1.56217 0.208337 0
M  V30 3517 C 333.989 -1.58919 -0.14729 0
M  V30 3518 C 334.189 -1.22486 -1.59998 0
M  V30 3519 O 333.245 -0.953849 -2.3379 0
M  V30 3520 C 334.558 -3.00236 0.167048 0
M  V30 3521 C 336.106 -3.12813 0.108219 0
M  V30 3522 C 336.581 -4.56284 0.396049 0
M  V30 3523 N 338.072 -4.61912 0.345142 0
M  V30 3524 C 338.807 -5.70837 0.541523 0
M  V30 3525 N 338.303 -6.88178 0.798968 0
M  V30 3526 N 340.096 -5.60091 0.474867 0
M  V30 3527 H 332.247 -1.78177 1.15614 0
M  V30 3528 H 334.51 -0.827555 0.462446 0
M  V30 3529 H 334.216 -3.31499 1.1748 0
M  V30 3530 H 334.09 -3.7354 -0.524184 0
M  V30 3531 H 336.477 -2.81354 -0.890157 0
M  V30 3532 H 336.558 -2.41866 0.832729 0
M  V30 3533 H 336.202 -4.88458 1.3918 0
M  V30 3534 H 336.132 -5.25439 -0.349502 0
M  V30 3535 H 338.623 -3.77589 0.153316 0
M  V30 3536 H 338.936 -7.67095 0.93727 0
M  V30 3537 H 337.281 -6.89953 0.836013 0
M  V30 3538 H 340.472 -4.67297 0.274064 0
M  V30 3539 H 340.645 -6.44917 0.631326 0
M  V30 3540 N 334.051 0.0651679 -1.57465 0
M  V30 3541 C 334.998 1.07675 -2.04144 0
M  V30 3542 C 335.968 1.38071 -0.923335 0
M  V30 3543 O 337.153 1.49026 -1.19146 0
M  V30 3544 C 334.293 2.38337 -2.49579 0
M  V30 3545 C 333.406 2.14413 -3.75035 0
M  V30 3546 C 332.541 3.38686 -4.09225 0
M  V30 3547 C 331.58 3.10156 -5.27702 0
M  V30 3548 N 330.717 4.26778 -5.57499 0
M  V30 3549 H 335.557 0.671716 -2.90331 0
M  V30 3550 H 333.094 0.3201 -1.43575 0
M  V30 3551 H 335.052 3.14632 -2.73975 0
M  V30 3552 H 333.682 2.7663 -1.6636 0
M  V30 3553 H 332.734 1.2878 -3.57939 0
M  V30 3554 H 334.046 1.89344 -4.61466 0
M  V30 3555 H 333.2 4.23373 -4.34558 0
M  V30 3556 H 331.939 3.66837 -3.21374 0
M  V30 3557 H 330.944 2.23866 -5.02159 0
M  V30 3558 H 332.169 2.8332 -6.17176 0
M  V30 3559 H 330.115 4.54948 -4.72608 0
M  V30 3560 H 330.032 4.05005 -6.38362 0
M  V30 3561 H 331.3 5.12443 -5.87386 0
M  V30 3562 N 335.529 1.53961 0.336706 0
M  V30 3563 C 336.459 1.85417 1.41925 0
M  V30 3564 C 337.44 0.709856 1.5458 0
M  V30 3565 O 338.625 0.962396 1.68676 0
M  V30 3566 C 335.755 2.06985 2.78881 0
M  V30 3567 C 334.709 3.22813 2.81026 0
M  V30 3568 C 334.035 3.29727 4.20932 0
M  V30 3569 C 335.335 4.60767 2.45949 0
M  V30 3570 H 337.029 2.76079 1.15848 0
M  V30 3571 H 334.575 1.32839 0.555859 0
M  V30 3572 H 336.528 2.27575 3.54665 0
M  V30 3573 H 335.252 1.13061 3.06406 0
M  V30 3574 H 333.911 3.0209 2.07695 0
M  V30 3575 H 333.559 2.33385 4.45579 0
M  V30 3576 H 333.259 4.07566 4.23277 0
M  V30 3577 H 334.783 3.52536 4.98549 0
M  V30 3578 H 336.197 4.81325 3.11446 0
M  V30 3579 H 334.594 5.4106 2.59566 0
M  V30 3580 H 335.664 4.6391 1.41122 0
M  V30 3581 N 337.007 -0.598083 1.45811 0
M  V30 3582 C 337.955 -1.72932 1.55555 0
M  V30 3583 C 338.949 -1.63984 0.424921 0
M  V30 3584 O 340.155 -1.69663 0.601205 0
M  V30 3585 H 336.53 -0.571489 0.488779 0
M  V30 3586 H 338.501 -1.61842 2.50699 0
M  V30 3587 C 337.25 -3.11318 1.54843 0
M  V30 3588 H 336.573 -3.18867 2.41172 0
M  V30 3589 H 338.013 -3.90274 1.65717 0
M  V30 3590 C 336.472 -3.3578 0.274427 0
M  V30 3591 O 337.002 -3.9654 -0.641778 0
M  V30 3592 N 335.208 -2.90119 0.167139 0
M  V30 3593 H 334.755 -2.40855 0.913596 0
M  V30 3594 H 334.713 -3.0686 -0.684435 0
M  V30 3595 N 338.485 -1.33259 -0.841409 0
M  V30 3596 C 339.732 -1.24572 -1.5965 0
M  V30 3597 C 340.06 0.189137 -1.93578 0
M  V30 3598 O 339.315 1.14566 -1.5866 0
M  V30 3599 C 339.614 -2.06381 -2.9179 0
M  V30 3600 C 339.28 -3.556 -2.77235 0
M  V30 3601 C 337.942 -3.96282 -2.72973 0
M  V30 3602 C 340.294 -4.50433 -2.62221 0
M  V30 3603 C 337.622 -5.30017 -2.51592 0
M  V30 3604 C 339.974 -5.84327 -2.42374 0
M  V30 3605 C 338.638 -6.24194 -2.36512 0
M  V30 3606 H 337.908 -0.455842 -0.5842 0
M  V30 3607 H 340.555 -1.6482 -0.975016 0
M  V30 3608 H 338.86 -1.58903 -3.5813 0
M  V30 3609 H 340.557 -1.97019 -3.49263 0
M  V30 3610 H 337.147 -3.23298 -2.81384 0
M  V30 3611 H 341.331 -4.19914 -2.64549 0
M  V30 3612 H 336.587 -5.59947 -2.45499 0
M  V30 3613 H 340.761 -6.57414 -2.29739 0
M  V30 3614 H 338.388 -7.27759 -2.19706 0
M  V30 3615 N 339.963 1.05934 -1.16686 0
M  V30 3616 C 340.911 2.15603 -0.872817 0
M  V30 3617 C 341.905 1.68647 0.159576 0
M  V30 3618 O 343.111 1.79995 0.0132125 0
M  V30 3619 H 339.486 0.703885 -0.264671 0
M  V30 3620 H 341.457 2.37613 -1.80507 0
M  V30 3621 C 340.206 3.45457 -0.394344 0
M  V30 3622 H 339.529 3.81984 -1.18019 0
M  V30 3623 H 340.969 4.2339 -0.227408 0
M  V30 3624 C 339.428 3.25021 0.88673 0
M  V30 3625 O 339.958 3.50906 1.95519 0
M  V30 3626 N 338.164 2.78437 0.831925 0
M  V30 3627 H 337.711 2.57572 -0.0377619 0
M  V30 3628 H 337.669 2.65144 1.68956 0
M  V30 3629 N 341.441 0.965919 1.2453 0
M  V30 3630 C 342.689 0.625593 1.92174 0
M  V30 3631 C 343.01 -0.841652 1.75901 0
M  V30 3632 O 342.28 -1.60061 1.12948 0
M  V30 3633 H 340.86 0.228388 0.71123 0
M  V30 3634 H 343.522 1.2266 1.51461 0
M  V30 3635 H 342.618 0.864653 2.99884 0
M  V30 3636 N 342.919 -1.39368 0.735821 0
M  V30 3637 C 343.829 -2.34395 0.0979693 0
M  V30 3638 C 344.845 -1.58361 -0.720968 0
M  V30 3639 O 346.021 -1.90648 -0.649245 0
M  V30 3640 C 343.086 -3.37393 -0.797916 0
M  V30 3641 C 342.147 -4.29287 0.0333662 0
M  V30 3642 C 341.38 -5.27365 -0.819854 0
M  V30 3643 O 341.603 -5.31959 -2.05855 0
M  V30 3644 O 340.537 -6.01389 -0.248079 0
M  V30 3645 H 344.363 -2.90601 0.882315 0
M  V30 3646 H 341.948 -1.40909 0.4965 0
M  V30 3647 H 343.83 -4.00505 -1.31048 0
M  V30 3648 H 342.505 -2.83571 -1.56106 0
M  V30 3649 H 341.412 -3.69395 0.591475 0
M  V30 3650 H 342.745 -4.86317 0.758752 0
M  V30 3651 N 344.397 -0.483516 -1.5 0
M  V30 3652 C 345.645 0.067027 -2.01989 0
M  V30 3653 C 345.966 1.3909 -1.36671 0
M  V30 3654 O 345.236 1.88978 -0.516152 0
M  V30 3655 H 343.816 0.0277606 -0.746484 0
M  V30 3656 H 346.478 -0.636773 -1.84204 0
M  V30 3657 H 345.574 0.209484 -3.11396 0
M  V30 3658 N 345.875 1.56104 -0.216619 0
M  V30 3659 C 346.785 2.23694 0.706982 0
M  V30 3660 C 347.801 1.24295 1.21765 0
M  V30 3661 O 348.977 1.57094 1.2603 0
M  V30 3662 C 346.042 2.8998 1.90033 0
M  V30 3663 C 345.103 4.04708 1.43213 0
M  V30 3664 C 344.336 4.67824 2.56859 0
M  V30 3665 O 344.559 4.29913 3.74874 0
M  V30 3666 O 343.493 5.56905 2.28343 0
M  V30 3667 H 347.319 3.03272 0.161235 0
M  V30 3668 H 344.904 1.49394 0.0136177 0
M  V30 3669 H 346.786 3.31837 2.59735 0
M  V30 3670 H 345.461 2.13365 2.43428 0
M  V30 3671 H 344.368 3.6743 0.70327 0
M  V30 3672 H 345.701 4.83051 0.944615 0
M  V30 3673 N 347.353 -0.0568162 1.57498 0
M  V30 3674 C 348.764 -0.606858 1.76562 0
M  V30 3675 C 349.115 -1.77114 0.844094 0
M  V30 3676 O 348.24 -2.16376 0.0318911 0
M  V30 3677 C 348.835 -1.10766 3.20182 0
M  V30 3678 C 347.394 -1.60344 3.40539 0
M  V30 3679 C 346.541 -0.529311 2.72201 0
M  V30 3680 H 349.492 0.169393 1.57793 0
M  V30 3681 H 349.513 -1.97602 3.25167 0
M  V30 3682 H 349.025 -0.26006 3.87228 0
M  V30 3683 H 347.126 -2.47379 2.78629 0
M  V30 3684 H 347.239 -1.67006 4.4905 0
M  V30 3685 H 345.603 -0.977893 2.35179 0
M  V30 3686 H 346.386 0.308352 3.41912 0
M  V30 3687 N 348.832 -1.54138 -0.328536 0
M  V30 3688 C 349.742 -1.86192 -1.42723 0
M  V30 3689 C 350.758 -0.753382 -1.56844 0
M  V30 3690 O 351.934 -1.04718 -1.72035 0
M  V30 3691 C 348.999 -2.07824 -2.77507 0
M  V30 3692 C 348.06 -3.31641 -2.72603 0
M  V30 3693 C 347.293 -3.52232 -4.00959 0
M  V30 3694 O 347.516 -2.7636 -4.9898 0
M  V30 3695 O 346.45 -4.45699 -4.0452 0
M  V30 3696 H 350.276 -2.79608 -1.18547 0
M  V30 3697 H 347.861 -1.3998 -0.522104 0
M  V30 3698 H 349.743 -2.23411 -3.57303 0
M  V30 3699 H 348.418 -1.17596 -3.01584 0
M  V30 3700 H 347.325 -3.21444 -1.91376 0
M  V30 3701 H 348.658 -4.2191 -2.53481 0
M  V30 3702 N 350.31 0.590341 -1.46126 0
M  V30 3703 C 351.22 1.72793 -1.58681 0
M  V30 3704 C 352.236 1.67516 -0.470566 0
M  V30 3705 O 353.412 1.87562 -0.733642 0
M  V30 3706 C 350.477 3.09287 -1.5666 0
M  V30 3707 C 349.538 3.25886 -2.79458 0
M  V30 3708 C 348.771 4.55869 -2.77524 0
M  V30 3709 O 348.994 5.3928 -1.85832 0
M  V30 3710 O 347.928 4.75552 -3.68964 0
M  V30 3711 H 351.754 1.65149 -2.54872 0
M  V30 3712 H 349.339 0.756486 -1.28832 0
M  V30 3713 H 351.221 3.90577 -1.58202 0
M  V30 3714 H 349.896 3.17385 -0.636271 0
M  V30 3715 H 348.803 2.44119 -2.83472 0
M  V30 3716 H 350.136 3.22675 -3.71674 0
M  V30 3717 N 351.788 1.33704 0.83433 0
M  V30 3718 C 352.718 1.26967 1.95963 0
M  V30 3719 C 353.699 0.149337 1.69443 0
M  V30 3720 O 354.884 0.339852 1.91203 0
M  V30 3721 C 352.014 1.01275 3.32206 0
M  V30 3722 C 350.968 2.09652 3.73136 0
M  V30 3723 C 350.294 1.69166 5.07235 0
M  V30 3724 C 351.594 3.51372 3.86439 0
M  V30 3725 H 353.288 2.2112 2.01857 0
M  V30 3726 H 350.834 1.06447 0.969793 0
M  V30 3727 H 352.787 0.952106 4.10503 0
M  V30 3728 H 351.511 0.0356203 3.26581 0
M  V30 3729 H 350.17 2.14766 2.97104 0
M  V30 3730 H 349.818 0.701437 4.98085 0
M  V30 3731 H 349.518 2.41694 5.35591 0
M  V30 3732 H 351.042 1.64576 5.88003 0
M  V30 3733 H 352.456 3.48734 4.55036 0
M  V30 3734 H 350.853 4.22425 4.26236 0
M  V30 3735 H 351.923 3.89546 2.88759 0
M  V30 3736 N 353.266 -1.05314 1.17247 0
M  V30 3737 C 354.199 -2.12512 0.831507 0
M  V30 3738 C 355.177 -1.61351 -0.201168 0
M  V30 3739 O 356.361 -1.88317 -0.0829831 0
M  V30 3740 C 353.488 -3.37848 0.24015 0
M  V30 3741 C 352.534 -4.07832 1.24801 0
M  V30 3742 S 353.367 -4.56537 2.79882 0
M  V30 3743 C 354.523 -5.85122 2.22223 0
M  V30 3744 H 354.756 -2.41106 1.7394 0
M  V30 3745 H 352.289 -1.17896 0.996988 0
M  V30 3746 H 354.247 -4.10391 -0.0945588 0
M  V30 3747 H 352.908 -3.07392 -0.645668 0
M  V30 3748 H 352.101 -4.97883 0.78287 0
M  V30 3749 H 351.703 -3.41348 1.52831 0
M  V30 3750 H 353.995 -6.58408 1.59703 0
M  V30 3751 H 354.938 -6.36381 3.10523 0
M  V30 3752 H 355.346 -5.39626 1.65722 0
M  V30 3753 N 354.744 -0.972509 -1.24016 0
M  V30 3754 C 355.99 -0.637978 -1.92504 0
M  V30 3755 C 356.323 0.825383 -1.75787 0
M  V30 3756 O 355.598 1.59442 -1.11393 0
M  V30 3757 C 355.881 -1.01942 -3.45369 0
M  V30 3758 C 355.734 -2.53983 -3.71231 0
M  V30 3759 C 357.053 -0.55751 -4.36555 0
M  V30 3760 H 354.172 -0.233248 -0.699117 0
M  V30 3761 H 356.814 -1.21238 -1.46292 0
M  V30 3762 H 354.964 -0.530656 -3.84859 0
M  V30 3763 H 356.636 -3.10374 -3.41271 0
M  V30 3764 H 354.879 -2.96968 -3.16216 0
M  V30 3765 H 355.55 -2.75723 -4.78206 0
M  V30 3766 H 358.026 -0.977029 -4.04467 0
M  V30 3767 H 356.902 -0.85292 -5.42233 0
M  V30 3768 H 357.163 0.542328 -4.38761 0
M  V30 3769 N 356.222 1.38976 -0.743202 0
M  V30 3770 C 357.499 1.94351 -0.220705 0
M  V30 3771 C 357.879 1.67935 1.2791 0
M  V30 3772 O 357.227 1.01211 2.04862 0
M  V30 3773 C 357.437 3.44426 -0.563171 0
M  V30 3774 C 358.785 4.2144 -0.517046 0
M  V30 3775 O 359.809 3.52661 -0.500846 0
M  V30 3776 O 358.668 5.44032 -0.518806 0
M  V30 3777 H 355.762 0.825879 -0.043047 0
M  V30 3778 H 358.308 1.48429 -0.822618 0
M  V30 3779 H 357.08 3.5712 -1.59941 0
M  V30 3780 H 356.703 3.97543 0.0672883 0
M  V30 3781 N 357.7 0.491464 1.49741 0
M  V30 3782 C 358.648 -0.305837 2.30581 0
M  V30 3783 C 359.642 -0.971642 1.38764 0
M  V30 3784 O 360.848 -0.90042 1.5586 0
M  V30 3785 H 357.223 -0.117482 0.742767 0
M  V30 3786 H 359.194 0.396093 2.95759 0
M  V30 3787 C 357.943 -1.36319 3.19863 0
M  V30 3788 H 357.266 -0.860258 3.90435 0
M  V30 3789 H 358.706 -1.89323 3.79385 0
M  V30 3790 C 357.165 -2.37621 2.38826 0
M  V30 3791 O 357.695 -3.43311 2.08567 0
M  V30 3792 N 355.901 -2.09849 2.01026 0
M  V30 3793 H 355.448 -1.23922 2.25834 0
M  V30 3794 H 355.406 -2.77859 1.47112 0
M  V30 3795 N 359.178 -1.55987 0.224894 0
M  V30 3796 C 360.424 -1.99433 -0.39973 0
M  V30 3797 C 360.779 -1.11004 -1.57149 0
M  V30 3798 O 360.072 -0.160725 -1.90925 0
M  V30 3799 C 360.266 -3.46394 -0.880106 0
M  V30 3800 C 360.095 -4.4904 0.243565 0
M  V30 3801 C 358.865 -5.00272 0.711056 0
M  V30 3802 C 361.063 -5.03195 1.06299 0
M  V30 3803 N 359.045 -5.86628 1.80944 0
M  V30 3804 C 360.416 -5.86508 2.01017 0
M  V30 3805 C 362.471 -4.8555 1.10205 0
M  V30 3806 C 361.174 -6.54062 2.99324 0
M  V30 3807 C 363.2 -5.53866 2.07332 0
M  V30 3808 C 362.562 -6.3695 3.00789 0
M  V30 3809 H 358.661 -0.773815 -0.112847 0
M  V30 3810 H 361.245 -1.91754 0.337432 0
M  V30 3811 H 359.416 -3.54515 -1.58662 0
M  V30 3812 H 361.148 -3.76752 -1.47783 0
M  V30 3813 H 357.903 -4.72655 0.29906 0
M  V30 3814 H 358.327 -6.34507 2.36073 0
M  V30 3815 H 362.969 -4.20966 0.39343 0
M  V30 3816 H 360.687 -7.17827 3.71147 0
M  V30 3817 H 364.273 -5.42178 2.11032 0
M  V30 3818 H 363.153 -6.8888 3.74718 0
M  V30 3819 N 360.656 0.0484629 -1.57525 0
M  V30 3820 C 362.072 0.40375 -1.54409 0
M  V30 3821 C 362.272 1.77786 -0.948384 0
M  V30 3822 O 361.328 2.46189 -0.560983 0
M  V30 3823 C 362.641 0.323394 -2.98956 0
M  V30 3824 C 364.189 0.401892 -3.10409 0
M  V30 3825 C 364.664 0.351195 -4.56652 0
M  V30 3826 N 366.155 0.410576 -4.61377 0
M  V30 3827 C 366.89 0.393933 -5.72045 0
M  V30 3828 N 366.386 0.330724 -6.9201 0
M  V30 3829 N 368.179 0.442227 -5.60358 0
M  V30 3830 H 360.33 -0.851016 -1.94606 0
M  V30 3831 H 362.593 -0.321721 -0.89174 0
M  V30 3832 H 362.299 -0.62011 -3.4619 0
M  V30 3833 H 362.173 1.12463 -3.60044 0
M  V30 3834 H 364.56 1.33582 -2.63134 0
M  V30 3835 H 364.641 -0.428342 -2.52188 0
M  V30 3836 H 364.285 -0.578987 -5.04589 0
M  V30 3837 H 364.215 1.19928 -5.12762 0
M  V30 3838 H 366.706 0.462729 -3.75056 0
M  V30 3839 H 367.019 0.322592 -7.72126 0
M  V30 3840 H 365.364 0.29706 -6.94365 0
M  V30 3841 H 368.555 0.489464 -4.65534 0
M  V30 3842 H 368.728 0.425788 -6.466 0
M  V30 3843 N 362.134 1.5431 0.320358 0
M  V30 3844 C 363.545 1.63872 0.894594 0
M  V30 3845 C 363.896 0.534847 1.88769 0
M  V30 3846 O 363.021 -0.331732 2.13842 0
M  V30 3847 C 363.616 2.97049 1.62934 0
M  V30 3848 C 362.175 3.08796 2.15226 0
M  V30 3849 C 361.322 2.59456 0.978671 0
M  V30 3850 H 364.273 1.58398 0.0978544 0
M  V30 3851 H 364.294 2.87388 2.49376 0
M  V30 3852 H 363.806 3.7737 0.906302 0
M  V30 3853 H 361.907 2.33156 2.90636 0
M  V30 3854 H 362.02 4.14649 2.40006 0
M  V30 3855 H 360.384 2.1543 1.35875 0
M  V30 3856 H 361.167 3.42237 0.269895 0
M  V30 3857 N 363.613 -0.582584 1.46437 0
M  V30 3858 C 364.576 -1.67366 1.56592 0
M  V30 3859 C 365.576 -1.54575 0.443072 0
M  V30 3860 O 366.766 -1.59191 0.707381 0
M  V30 3861 C 363.898 -3.06791 1.48634 0
M  V30 3862 H 365.091 -1.5972 2.5383 0
M  V30 3863 H 362.644 -0.800432 1.34249 0
M  V30 3864 H 363.379 -3.19993 0.526763 0
M  V30 3865 H 363.164 -3.17484 2.30101 0
M  V30 3866 H 364.654 -3.86218 1.58826 0
M  V30 3867 N 365.091 -1.34144 -0.827227 0
M  V30 3868 C 366.023 -1.21206 -1.9453 0
M  V30 3869 C 367.036 -0.140176 -1.62195 0
M  V30 3870 O 368.225 -0.391647 -1.7415 0
M  V30 3871 C 365.325 -0.839141 -3.28347 0
M  V30 3872 C 364.498 -2.0051 -3.88734 0
M  V30 3873 C 363.557 -1.61128 -5.00923 0
M  V30 3874 O 362.583 -2.32726 -5.19449 0
M  V30 3875 N 363.785 -0.522958 -5.7814 0
M  V30 3876 H 366.55 -2.17525 -2.06162 0
M  V30 3877 H 364.111 -1.27043 -1.00358 0
M  V30 3878 H 366.103 -0.557556 -4.00841 0
M  V30 3879 H 364.673 0.0337293 -3.12582 0
M  V30 3880 H 363.893 -2.45166 -3.08686 0
M  V30 3881 H 365.181 -2.78498 -4.25812 0
M  V30 3882 H 364.579 0.0723518 -5.65654 0
M  V30 3883 H 363.136 -0.301089 -6.51104 0
M  V30 3884 N 366.569 1.04691 -1.17803 0
M  V30 3885 C 367.98 1.59238 -0.974689 0
M  V30 3886 C 368.331 1.90306 0.477292 0
M  V30 3887 O 367.456 1.68846 1.35352 0
M  V30 3888 C 368.051 2.89318 -1.76296 0
M  V30 3889 C 366.61 3.40506 -1.60414 0
M  V30 3890 C 365.757 2.14172 -1.76141 0
M  V30 3891 H 368.708 0.874395 -1.32439 0
M  V30 3892 H 368.729 3.5944 -1.24833 0
M  V30 3893 H 368.241 2.66675 -2.81968 0
M  V30 3894 H 366.342 3.68175 -0.572519 0
M  V30 3895 H 366.455 4.14753 -2.39827 0
M  V30 3896 H 364.819 2.25176 -1.19028 0
M  V30 3897 H 365.602 1.93992 -2.83235 0
M  V30 3898 N 368.047 0.979072 1.23499 0
M  V30 3899 C 368.977 0.537606 2.27227 0
M  V30 3900 C 369.958 -0.428539 1.64613 0
M  V30 3901 O 371.143 -0.322191 1.91509 0
M  V30 3902 C 368.273 -0.162052 3.46922 0
M  V30 3903 C 367.227 0.721242 4.21879 0
M  V30 3904 C 366.553 -0.110555 5.34586 0
M  V30 3905 C 367.853 2.01141 4.82016 0
M  V30 3906 H 369.547 1.40462 2.64406 0
M  V30 3907 H 367.093 0.67684 1.27102 0
M  V30 3908 H 369.046 -0.482192 4.18632 0
M  V30 3909 H 367.77 -1.06351 3.08799 0
M  V30 3910 H 366.429 1.02482 3.51984 0
M  V30 3911 H 366.077 -1.0125 4.92704 0
M  V30 3912 H 365.777 0.477325 5.85658 0
M  V30 3913 H 367.301 -0.425107 6.09118 0
M  V30 3914 H 368.715 1.75612 5.45741 0
M  V30 3915 H 367.112 2.54695 5.43369 0
M  V30 3916 H 368.182 2.69909 4.02836 0
M  V30 3917 N 369.525 -1.3858 0.750561 0
M  V30 3918 C 370.472 -2.30483 0.120835 0
M  V30 3919 C 371.442 -1.50022 -0.712923 0
M  V30 3920 O 372.627 -1.78662 -0.669676 0
M  V30 3921 C 369.767 -3.36431 -0.768666 0
M  V30 3922 C 368.88 -4.31927 0.0793922 0
M  V30 3923 C 368.015 -5.24944 -0.81283 0
M  V30 3924 C 367.054 -6.12088 0.0390447 0
M  V30 3925 N 366.191 -6.97412 -0.809969 0
M  V30 3926 H 371.031 -2.83761 0.91015 0
M  V30 3927 H 368.568 -1.39707 0.460463 0
M  V30 3928 H 370.526 -3.96462 -1.29898 0
M  V30 3929 H 369.156 -2.8457 -1.5238 0
M  V30 3930 H 368.208 -3.73382 0.727303 0
M  V30 3931 H 369.52 -4.93319 0.737401 0
M  V30 3932 H 368.674 -5.90078 -1.41042 0
M  V30 3933 H 367.413 -4.63911 -1.50458 0
M  V30 3934 H 366.418 -5.45952 0.649328 0
M  V30 3935 H 367.643 -6.75189 0.727809 0
M  V30 3936 H 365.589 -6.38931 -1.48672 0
M  V30 3937 H 365.506 -7.55712 -0.208789 0
M  V30 3938 H 366.774 -7.66959 -1.39263 0
M  V30 3939 N 371.003 -0.499398 -1.49478 0
M  V30 3940 C 371.951 0.293604 -2.3074 0
M  V30 3941 C 372.945 0.96427 -1.39277 0
M  V30 3942 O 374.151 0.892141 -1.56336 0
M  V30 3943 H 370.526 0.113541 -0.743379 0
M  V30 3944 H 372.497 -0.411772 -2.95545 0
M  V30 3945 C 371.246 1.3462 -3.20582 0
M  V30 3946 H 370.569 0.83954 -3.90886 0
M  V30 3947 H 372.009 1.87308 -3.80384 0
M  V30 3948 C 370.468 2.36351 -2.40083 0
M  V30 3949 O 370.998 3.422 -2.10385 0
M  V30 3950 N 369.204 2.0878 -2.02137 0
M  V30 3951 H 368.751 1.22723 -2.26488 0
M  V30 3952 H 368.709 2.77075 -1.48583 0
M  V30 3953 N 372.481 1.55866 -0.233164 0
M  V30 3954 C 373.897 1.59133 0.121988 0
M  V30 3955 C 374.097 1.25016 1.58029 0
M  V30 3956 O 373.153 0.990922 2.32243 0
M  V30 3957 C 374.466 2.99932 -0.214792 0
M  V30 3958 C 376.014 3.12601 -0.157971 0
M  V30 3959 C 376.489 4.55597 -0.46859 0
M  V30 3960 N 377.98 4.61305 -0.418585 0
M  V30 3961 C 378.715 5.69903 -0.63227 0
M  V30 3962 N 378.211 6.86819 -0.90835 0
M  V30 3963 N 380.004 5.59264 -0.563913 0
M  V30 3964 H 372.155 1.76315 -1.18434 0
M  V30 3965 H 374.418 0.820093 -0.475553 0
M  V30 3966 H 374.124 3.29588 -1.22739 0
M  V30 3967 H 373.998 3.74327 0.464691 0
M  V30 3968 H 376.385 2.82735 0.845283 0
M  V30 3969 H 376.466 2.40511 -0.871102 0
M  V30 3970 H 376.11 4.86182 -1.46934 0
M  V30 3971 H 376.04 5.25928 0.265865 0
M  V30 3972 H 378.531 3.77297 -0.213368 0
M  V30 3973 H 378.844 7.65507 -1.05919 0
M  V30 3974 H 377.189 6.88536 -0.945673 0
M  V30 3975 H 380.38 4.66802 -0.348372 0
M  V30 3976 H 380.553 6.43831 -0.733847 0
M  V30 3977 N 373.959 -0.0401083 1.57549 0
M  V30 3978 C 374.891 -1.07149 2.02612 0
M  V30 3979 C 375.904 -1.33126 0.937085 0
M  V30 3980 O 377.093 -1.30808 1.21456 0
M  V30 3981 C 374.193 -2.41561 2.37701 0
M  V30 3982 C 373.366 -2.35096 3.68848 0
M  V30 3983 C 372.425 -3.51867 3.91249 0
M  V30 3984 O 371.451 -3.3186 4.62447 0
M  V30 3985 N 372.653 -4.73351 3.36035 0
M  V30 3986 H 375.418 -0.687485 2.91708 0
M  V30 3987 H 372.979 -0.228248 1.60283 0
M  V30 3988 H 374.971 -3.18379 2.49833 0
M  V30 3989 H 373.541 -2.71846 1.54332 0
M  V30 3990 H 372.761 -1.4345 3.67173 0
M  V30 3991 H 374.049 -2.27908 4.54901 0
M  V30 3992 H 373.447 -4.92507 2.78304 0
M  V30 3993 H 372.004 -5.47572 3.53565 0
M  V30 3994 N 375.437 -1.54477 -0.31217 0
M  V30 3995 C 376.686 -1.72438 -1.04633 0
M  V30 3996 C 376.999 -0.511163 -1.88803 0
M  V30 3997 O 378.205 -0.572341 -2.65399 0
M  V30 3998 C 376.661 -3.05043 -1.9099 0
M  V30 3999 C 376.269 -4.33806 -1.11877 0
M  V30 4000 C 378.013 -3.32364 -2.64073 0
M  V30 4001 C 375.92 -5.57467 -1.97445 0
M  V30 4002 H 374.85 -0.642647 -0.394361 0
M  V30 4003 H 377.501 -1.80966 -0.303929 0
M  V30 4004 H 375.883 -2.90451 -2.69173 0
M  V30 4005 H 377.057 -4.59199 -0.383843 0
M  V30 4006 H 375.372 -4.13336 -0.504252 0
M  V30 4007 H 377.969 -4.21951 -3.28423 0
M  V30 4008 H 378.312 -2.50745 -3.32314 0
M  V30 4009 H 378.845 -3.47875 -1.92944 0
M  V30 4010 H 375.584 -6.41722 -1.33692 0
M  V30 4011 H 375.104 -5.36277 -2.6864 0
M  V30 4012 H 376.783 -5.94303 -2.5576 0
M  V30 4013 N 376.915 0.57481 -1.46744 0
M  V30 4014 C 377.862 1.68329 -1.57905 0
M  V30 4015 C 378.832 1.60625 -0.422927 0
M  V30 4016 O 380.017 1.79721 -0.640711 0
M  V30 4017 C 377.157 3.06665 -1.58274 0
M  V30 4018 C 376.27 3.24935 -2.84678 0
M  V30 4019 C 375.405 4.53566 -2.76499 0
M  V30 4020 C 374.444 4.65207 -3.97806 0
M  V30 4021 N 373.581 5.85172 -3.87967 0
M  V30 4022 H 378.421 1.58127 -2.52587 0
M  V30 4023 H 375.958 0.770552 -1.25303 0
M  V30 4024 H 377.916 3.86745 -1.56473 0
M  V30 4025 H 376.546 3.15745 -0.671194 0
M  V30 4026 H 375.598 2.38405 -2.96424 0
M  V30 4027 H 376.91 3.29403 -3.7456 0
M  V30 4028 H 376.064 5.41885 -2.72848 0
M  V30 4029 H 374.803 4.51548 -1.8427 0
M  V30 4030 H 373.808 3.75304 -4.0178 0
M  V30 4031 H 375.033 4.68997 -4.9114 0
M  V30 4032 H 372.979 5.84137 -2.98529 0
M  V30 4033 H 372.896 5.90943 -4.71511 0
M  V30 4034 H 374.164 6.759 -3.88303 0
M  V30 4035 N 378.394 1.34581 0.820102 0
M  V30 4036 C 379.357 1.2628 1.91275 0
M  V30 4037 C 380.357 0.177344 1.59819 0
M  V30 4038 O 381.547 0.430156 1.68806 0
M  V30 4039 C 378.679 0.950327 3.27386 0
M  V30 4040 H 379.872 2.23421 2.00057 0
M  V30 4041 H 377.425 1.1891 1.0144 0
M  V30 4042 H 378.16 -0.0177938 3.24295 0
M  V30 4043 H 377.945 1.73549 3.51601 0
M  V30 4044 H 379.435 0.917492 4.07396 0
M  V30 4045 N 379.872 -1.04064 1.18357 0
M  V30 4046 C 381.097 -1.81454 1.00445 0
M  V30 4047 C 381.522 -1.82823 -0.442423 0
M  V30 4048 O 380.88 -1.24555 -1.31741 0
M  V30 4049 C 380.928 -3.24925 1.56384 0
M  V30 4050 O 380.032 -4.04856 0.785209 0
M  V30 4051 H 379.373 -0.560604 0.355835 0
M  V30 4052 H 381.903 -1.31059 1.57114 0
M  V30 4053 H 381.913 -3.75702 1.59097 0
M  V30 4054 H 380.588 -3.23244 2.61699 0
M  V30 4055 H 379.165 -3.63537 0.830399 0
M  V30 4056 N 381.35 -0.985608 -1.22978 0
M  V30 4057 C 382.597 -0.657386 -1.91532 0
M  V30 4058 C 382.925 0.809707 -1.76845 0
M  V30 4059 O 382.18 1.60021 -1.12658 0
M  V30 4060 C 382.479 -1.00014 -3.43121 0
M  V30 4061 C 382.145 -2.4583 -3.77993 0
M  V30 4062 C 380.807 -2.85679 -3.87222 0
M  V30 4063 C 383.159 -3.40378 -3.94705 0
M  V30 4064 C 380.487 -4.19081 -4.10595 0
M  V30 4065 C 382.839 -4.73429 -4.1958 0
M  V30 4066 C 381.503 -5.1303 -4.27032 0
M  V30 4067 H 380.773 -0.240555 -0.700867 0
M  V30 4068 H 383.42 -1.24044 -1.45895 0
M  V30 4069 H 381.725 -0.335072 -3.90365 0
M  V30 4070 H 383.422 -0.724322 -3.94404 0
M  V30 4071 H 380.012 -2.13939 -3.71387 0
M  V30 4072 H 384.196 -3.10766 -3.8696 0
M  V30 4073 H 379.452 -4.49362 -4.14589 0
M  V30 4074 H 383.626 -5.46644 -4.31455 0
M  V30 4075 H 381.253 -6.16418 -4.44896 0
M  V30 4076 N 382.828 1.3818 -0.7579 0
M  V30 4077 C 383.775 2.30416 -0.133057 0
M  V30 4078 C 384.745 1.50398 0.704957 0
M  V30 4079 O 385.93 1.79014 0.660192 0
M  V30 4080 C 383.07 3.36834 0.750813 0
M  V30 4081 C 382.183 4.31879 -0.102297 0
M  V30 4082 C 381.318 5.25368 0.784979 0
M  V30 4083 C 380.357 6.12058 -0.0715046 0
M  V30 4084 N 379.494 6.97832 0.772972 0
M  V30 4085 H 384.334 2.83274 -0.925186 0
M  V30 4086 H 381.871 1.39461 -0.467866 0
M  V30 4087 H 383.829 3.97145 1.27794 0
M  V30 4088 H 382.459 2.85374 1.50868 0
M  V30 4089 H 381.511 3.72991 -0.747095 0
M  V30 4090 H 382.823 4.92921 -0.763552 0
M  V30 4091 H 381.977 5.90818 1.37911 0
M  V30 4092 H 380.716 4.64703 1.47996 0
M  V30 4093 H 379.721 5.456 -0.678272 0
M  V30 4094 H 380.946 6.74793 -0.763606 0
M  V30 4095 H 378.892 6.3971 1.45282 0
M  V30 4096 H 378.809 7.55812 0.168709 0
M  V30 4097 H 380.077 7.67687 1.35194 0
M  V30 4098 O 384.345 0.648902 1.4789 0
M  V30 4099 H 385.036 0.173089 1.92925 0
M  V30 END ATOM
M  V30 BEGIN BOND
M  V30 END BOND
M  V30 END CTAB
M  END
$$$$
