drugbank_drug|DB01285 ACTH(1-39)
 OpenBabel12092119123D

639650  0  0  0  0  0  0  0  0999 V2000
   -0.9080    1.9825   -0.1171 H   0  0  0  0  0 15  0  0  0  0  0  0
    0.0000    1.5760    0.0000 N   0  0  0  0  0 15  0  0  0  0  0  0
    1.2250    1.9525    0.6995 C   0  0  0  0  0 15  0  0  0  0  0  0
    1.6500    0.8749    1.6651 C   0  0  0  0  0 15  0  0  0  0  0  0
    1.0080   -0.1669    1.8053 O   0  0  0  0  0 15  0  0  0  0  0  0
    1.0560    3.3199    1.4076 C   0  0  0  0  0 15  0  0  0  0  0  0
    0.1600    3.2630    2.5220 O   0  0  0  0  0 15  0  0  0  0  0  0
   -0.4990    0.6374    0.1861 H   0  0  0  0  0 15  0  0  0  0  0  0
    2.0310    2.0453   -0.0532 H   0  0  0  0  0 15  0  0  0  0  0  0
    2.0410    3.6756    1.7710 H   0  0  0  0  0 15  0  0  0  0  0  0
    0.7160    4.0997    0.6995 H   0  0  0  0  0 15  0  0  0  0  0  0
   -0.7070    3.0241    2.1818 H   0  0  0  0  0 15  0  0  0  0  0  0
    1.4781   -0.2728    1.5522 N   0  0  0  0  0 15  0  0  0  0  0  0
    2.7081   -1.0211    1.7960 C   0  0  0  0  0 15  0  0  0  0  0  0
    3.1161   -1.8042    0.5697 C   0  0  0  0  0 15  0  0  0  0  0  0
    2.4591   -1.7757   -0.4707 O   0  0  0  0  0 15  0  0  0  0  0  0
    2.5211   -2.0268    2.9692 C   0  0  0  0  0 15  0  0  0  0  0  0
    2.1851   -1.4330    4.3395 C   0  0  0  0  0 15  0  0  0  0  0  0
    3.1821   -0.8485    5.1293 C   0  0  0  0  0 15  0  0  0  0  0  0
    0.8671   -1.4601    4.8061 C   0  0  0  0  0 15  0  0  0  0  0  0
    2.8611   -0.2991    6.3670 C   0  0  0  0  0 15  0  0  0  0  0  0
    0.5481   -0.9068    6.0433 C   0  0  0  0  0 15  0  0  0  0  0  0
    1.5461   -0.3273    6.8222 C   0  0  0  0  0 15  0  0  0  0  0  0
    1.2341    0.2175    8.0361 O   0  0  0  0  0 15  0  0  0  0  0  0
    0.9661   -0.3073    0.6021 H   0  0  0  0  0 15  0  0  0  0  0  0
    3.5201   -0.3089    2.0306 H   0  0  0  0  0 15  0  0  0  0  0  0
    1.7501   -2.7766    2.6915 H   0  0  0  0  0 15  0  0  0  0  0  0
    3.4391   -2.6364    3.0863 H   0  0  0  0  0 15  0  0  0  0  0  0
    4.2051   -0.8203    4.7801 H   0  0  0  0  0 15  0  0  0  0  0  0
    0.0841   -1.9006    4.2000 H   0  0  0  0  0 15  0  0  0  0  0  0
    3.6281    0.1539    6.9743 H   0  0  0  0  0 15  0  0  0  0  0  0
   -0.4749   -0.9323    6.3873 H   0  0  0  0  0 15  0  0  0  0  0  0
    0.2931    0.1069    8.1843 H   0  0  0  0  0 15  0  0  0  0  0  0
    2.9562   -1.4816   -0.5373 N   0  0  0  0  0 15  0  0  0  0  0  0
    4.1812   -1.5971   -1.3232 C   0  0  0  0  0 15  0  0  0  0  0  0
    4.6062   -0.2549   -1.8637 C   0  0  0  0  0 15  0  0  0  0  0  0
    3.9642    0.7724   -1.6402 O   0  0  0  0  0 15  0  0  0  0  0  0
    4.0122   -2.6412   -2.4551 C   0  0  0  0  0 15  0  0  0  0  0  0
    3.1162   -2.2077   -3.4833 O   0  0  0  0  0 15  0  0  0  0  0  0
    2.4572   -0.5358   -0.3922 H   0  0  0  0  0 15  0  0  0  0  0  0
    4.9872   -1.9409   -0.6473 H   0  0  0  0  0 15  0  0  0  0  0  0
    4.9972   -2.8517   -2.9180 H   0  0  0  0  0 15  0  0  0  0  0  0
    3.6722   -3.6157   -2.0553 H   0  0  0  0  0 15  0  0  0  0  0  0
    2.2492   -2.0991   -3.0821 H   0  0  0  0  0 15  0  0  0  0  0  0
    4.4343    0.7856   -1.3662 N   0  0  0  0  0 15  0  0  0  0  0  0
    5.3673    1.9051   -1.2562 C   0  0  0  0  0 15  0  0  0  0  0  0
    6.3453    1.6200   -0.1396 C   0  0  0  0  0 15  0  0  0  0  0  0
    7.5293    1.8591   -0.3114 O   0  0  0  0  0 15  0  0  0  0  0  0
    4.6563    3.2542   -0.9392 C   0  0  0  0  0 15  0  0  0  0  0  0
    3.7023    3.7286   -2.0708 C   0  0  0  0  0 15  0  0  0  0  0  0
    4.5353    3.8816   -3.6890 S   0  0  0  0  0 15  0  0  0  0  0  0
    5.6913    5.2594   -3.3932 C   0  0  0  0  0 15  0  0  0  0  0  0
    5.9243    1.9955   -2.2038 H   0  0  0  0  0 15  0  0  0  0  0  0
    3.4573    0.9452   -1.2209 H   0  0  0  0  0 15  0  0  0  0  0  0
    5.4153    4.0335   -0.7630 H   0  0  0  0  0 15  0  0  0  0  0  0
    4.0763    3.1410   -0.0093 H   0  0  0  0  0 15  0  0  0  0  0  0
    3.2693    4.7062   -1.8036 H   0  0  0  0  0 15  0  0  0  0  0  0
    2.8713    3.0199   -2.2063 H   0  0  0  0  0 15  0  0  0  0  0  0
    5.1633    6.1065   -2.9345 H   0  0  0  0  0 15  0  0  0  0  0  0
    6.1063    5.5767   -4.3636 H   0  0  0  0  0 15  0  0  0  0  0  0
    6.5143    4.9322   -2.7457 H   0  0  0  0  0 15  0  0  0  0  0  0
    5.9124    1.2097    1.0102 N   0  0  0  0  0 15  0  0  0  0  0  0
    6.8224    0.9802    2.1314 C   0  0  0  0  0 15  0  0  0  0  0  0
    7.8384   -0.0661    1.7387 C   0  0  0  0  0 15  0  0  0  0  0  0
    9.0144    0.1228    2.0103 O   0  0  0  0  0 15  0  0  0  0  0  0
    6.0794    0.5422    3.4243 C   0  0  0  0  0 15  0  0  0  0  0  0
    5.1404    1.6600    3.9591 C   0  0  0  0  0 15  0  0  0  0  0  0
    4.3734    1.2428    5.1903 C   0  0  0  0  0 15  0  0  0  0  0  0
    4.5964    0.1142    5.7029 O   0  0  0  0  0 15  0  0  0  0  0  0
    3.5304    2.0527    5.6582 O   0  0  0  0  0 15  0  0  0  0  0  0
    7.3564    1.9191    2.3538 H   0  0  0  0  0 15  0  0  0  0  0  0
    4.9414    0.9941    1.1153 H   0  0  0  0  0 15  0  0  0  0  0  0
    6.8234    0.3074    4.2028 H   0  0  0  0  0 15  0  0  0  0  0  0
    5.4984   -0.3681    3.2160 H   0  0  0  0  0 15  0  0  0  0  0  0
    4.4054    1.9491    3.1932 H   0  0  0  0  0 15  0  0  0  0  0  0
    5.7384    2.5475    4.2114 H   0  0  0  0  0 15  0  0  0  0  0  0
    7.3905   -1.2043    1.0166 N   0  0  0  0  0 15  0  0  0  0  0  0
    8.3405   -2.2108    0.5576 C   0  0  0  0  0 15  0  0  0  0  0  0
    9.3245   -1.5618   -0.3870 C   0  0  0  0  0 15  0  0  0  0  0  0
   10.5165   -1.7575   -0.2100 O   0  0  0  0  0 15  0  0  0  0  0  0
    7.6455   -3.4315   -0.1027 C   0  0  0  0  0 15  0  0  0  0  0  0
    6.7315   -4.1521    0.8637 C   0  0  0  0  0 15  0  0  0  0  0  0
    7.1225   -4.6366    2.0212 N   0  0  0  0  0 15  0  0  0  0  0  0
    5.4205   -4.4072    0.6845 C   0  0  0  0  0 15  0  0  0  0  0  0
    6.1215   -5.1887    2.6297 C   0  0  0  0  0 15  0  0  0  0  0  0
    5.0975   -5.0893    1.9103 N   0  0  0  0  0 15  0  0  0  0  0  0
    8.8995   -2.5620    1.4401 H   0  0  0  0  0 15  0  0  0  0  0  0
    6.4135   -1.3637    0.8819 H   0  0  0  0  0 15  0  0  0  0  0  0
    8.4105   -4.1447   -0.4491 H   0  0  0  0  0 15  0  0  0  0  0  0
    7.0705   -3.0953   -0.9810 H   0  0  0  0  0 15  0  0  0  0  0  0
    8.0815   -4.5888    2.4011 H   0  0  0  0  0 15  0  0  0  0  0  0
    4.7585   -4.1725   -0.1458 H   0  0  0  0  0 15  0  0  0  0  0  0
    6.1485   -5.6673    3.6092 H   0  0  0  0  0 15  0  0  0  0  0  0
    8.8686   -0.7928   -1.3621 N   0  0  0  0  0 15  0  0  0  0  0  0
   10.1156   -0.3668   -1.9915 C   0  0  0  0  0 15  0  0  0  0  0  0
   10.4436    1.0624   -1.6292 C   0  0  0  0  0 15  0  0  0  0  0  0
    9.6986    1.7493   -0.8774 O   0  0  0  0  0 15  0  0  0  0  0  0
    9.9976   -0.4815   -3.5414 C   0  0  0  0  0 15  0  0  0  0  0  0
    9.6636   -1.8720   -4.1020 C   0  0  0  0  0 15  0  0  0  0  0  0
    8.3256   -2.2525   -4.2523 C   0  0  0  0  0 15  0  0  0  0  0  0
   10.6776   -2.7824   -4.4072 C   0  0  0  0  0 15  0  0  0  0  0  0
    8.0056   -3.5372   -4.6808 C   0  0  0  0  0 15  0  0  0  0  0  0
   10.3576   -4.0614   -4.8501 C   0  0  0  0  0 15  0  0  0  0  0  0
    9.0216   -4.4421   -4.9823 C   0  0  0  0  0 15  0  0  0  0  0  0
    8.2916   -0.1342   -0.7287 H   0  0  0  0  0 15  0  0  0  0  0  0
   10.9386   -1.0109   -1.6264 H   0  0  0  0  0 15  0  0  0  0  0  0
    9.2436    0.2461   -3.9103 H   0  0  0  0  0 15  0  0  0  0  0  0
   10.9406   -0.1328   -4.0078 H   0  0  0  0  0 15  0  0  0  0  0  0
    7.5306   -1.5664   -3.9895 H   0  0  0  0  0 15  0  0  0  0  0  0
   11.7146   -2.5010   -4.2868 H   0  0  0  0  0 15  0  0  0  0  0  0
    6.9706   -3.8308   -4.7651 H   0  0  0  0  0 15  0  0  0  0  0  0
   11.1446   -4.7680   -5.0758 H   0  0  0  0  0 15  0  0  0  0  0  0
    8.7716   -5.4381   -5.3120 H   0  0  0  0  0 15  0  0  0  0  0  0
   10.3467    1.4787   -0.5451 N   0  0  0  0  0 15  0  0  0  0  0  0
   11.7627    1.5829   -0.2040 C   0  0  0  0  0 15  0  0  0  0  0  0
   11.9627    1.5453    1.2932 C   0  0  0  0  0 15  0  0  0  0  0  0
   11.0187    1.4423    2.0725 O   0  0  0  0  0 15  0  0  0  0  0  0
   12.3317    2.8930   -0.8200 C   0  0  0  0  0 15  0  0  0  0  0  0
   13.8797    3.0286   -0.7901 C   0  0  0  0  0 15  0  0  0  0  0  0
   14.3547    4.3656   -1.3849 C   0  0  0  0  0 15  0  0  0  0  0  0
   15.8457    4.4317   -1.3476 N   0  0  0  0  0 15  0  0  0  0  0  0
   16.5807    5.4515   -1.7775 C   0  0  0  0  0 15  0  0  0  0  0  0
   16.0767    6.5402   -2.2855 N   0  0  0  0  0 15  0  0  0  0  0  0
   17.8697    5.3613   -1.6890 N   0  0  0  0  0 15  0  0  0  0  0  0
   10.0207    1.4856   -1.5180 H   0  0  0  0  0 15  0  0  0  0  0  0
   12.2837    0.7063   -0.6323 H   0  0  0  0  0 15  0  0  0  0  0  0
   11.9897    2.9776   -1.8717 H   0  0  0  0  0 15  0  0  0  0  0  0
   11.8637    3.7596   -0.3059 H   0  0  0  0  0 15  0  0  0  0  0  0
   14.2507    2.9401    0.2529 H   0  0  0  0  0 15  0  0  0  0  0  0
   14.3317    2.1778   -1.3418 H   0  0  0  0  0 15  0  0  0  0  0  0
   13.9757    4.4616   -2.4269 H   0  0  0  0  0 15  0  0  0  0  0  0
   13.9057    5.2035   -0.8088 H   0  0  0  0  0 15  0  0  0  0  0  0
   16.3967    3.6508   -0.9759 H   0  0  0  0  0 15  0  0  0  0  0  0
   16.7097    7.2799   -2.5931 H   0  0  0  0  0 15  0  0  0  0  0  0
   15.0547    6.5494   -2.3255 H   0  0  0  0  0 15  0  0  0  0  0  0
   18.2457    4.4997   -1.2900 H   0  0  0  0  0 15  0  0  0  0  0  0
   18.4187    6.1547   -2.0273 H   0  0  0  0  0 15  0  0  0  0  0  0
   11.8248    0.2810    1.5507 N   0  0  0  0  0 15  0  0  0  0  0  0
   13.0708   -0.3276    2.0074 C   0  0  0  0  0 15  0  0  0  0  0  0
   13.4258   -1.5304    1.1660 C   0  0  0  0  0 15  0  0  0  0  0  0
   12.7188   -1.9022    0.2295 O   0  0  0  0  0 15  0  0  0  0  0  0
   12.9128   -0.7547    3.4934 C   0  0  0  0  0 15  0  0  0  0  0  0
   12.7418    0.4053    4.4787 C   0  0  0  0  0 15  0  0  0  0  0  0
   11.5118    0.8909    4.9738 C   0  0  0  0  0 15  0  0  0  0  0  0
   13.7098    1.2437    4.9904 C   0  0  0  0  0 15  0  0  0  0  0  0
   11.6918    2.0197    5.7972 N   0  0  0  0  0 15  0  0  0  0  0  0
   13.0628    2.2203    5.7888 C   0  0  0  0  0 15  0  0  0  0  0  0
   15.1178    1.2764    4.8126 C   0  0  0  0  0 15  0  0  0  0  0  0
   13.8208    3.2271    6.4285 C   0  0  0  0  0 15  0  0  0  0  0  0
   15.8468    2.2716    5.4603 C   0  0  0  0  0 15  0  0  0  0  0  0
   15.2088    3.2356    6.2569 C   0  0  0  0  0 15  0  0  0  0  0  0
   11.3078   -0.0849    0.7774 H   0  0  0  0  0 15  0  0  0  0  0  0
   13.8918    0.4063    1.9041 H   0  0  0  0  0 15  0  0  0  0  0  0
   12.0628   -1.4578    3.6000 H   0  0  0  0  0 15  0  0  0  0  0  0
   13.7948   -1.3410    3.8184 H   0  0  0  0  0 15  0  0  0  0  0  0
   10.5498    0.4693    4.7127 H   0  0  0  0  0 15  0  0  0  0  0  0
   10.9738    2.5879    6.2558 H   0  0  0  0  0 15  0  0  0  0  0  0
   15.6158    0.5449    4.1927 H   0  0  0  0  0 15  0  0  0  0  0  0
   13.3338    3.9678    7.0398 H   0  0  0  0  0 15  0  0  0  0  0  0
   16.9198    2.3044    5.3422 H   0  0  0  0  0 15  0  0  0  0  0  0
   15.7998    3.9931    6.7492 H   0  0  0  0  0 15  0  0  0  0  0  0
   13.3029   -1.5760    0.0084 N   0  0  0  0  0 15  0  0  0  0  0  0
   14.5509   -1.9055   -0.6734 C   0  0  0  0  0 15  0  0  0  0  0  0
   14.8719   -0.8833   -1.7385 C   0  0  0  0  0 15  0  0  0  0  0  0
   14.1419    0.0781   -1.9574 O   0  0  0  0  0 15  0  0  0  0  0  0
   12.7219   -0.7033   -0.2517 H   0  0  0  0  0 15  0  0  0  0  0  0
   15.3839   -1.9483    0.0513 H   0  0  0  0  0 15  0  0  0  0  0  0
   14.4799   -2.9056   -1.1394 H   0  0  0  0  0 15  0  0  0  0  0  0
   14.7810    0.2645   -1.5536 N   0  0  0  0  0 15  0  0  0  0  0  0
   15.7280    1.3272   -1.8882 C   0  0  0  0  0 15  0  0  0  0  0  0
   16.6980    1.4867   -0.7406 C   0  0  0  0  0 15  0  0  0  0  0  0
   17.8830    1.6294   -0.9927 O   0  0  0  0  0 15  0  0  0  0  0  0
   15.0230    2.6809   -2.1731 C   0  0  0  0  0 15  0  0  0  0  0  0
   14.1360    2.6028   -3.4478 C   0  0  0  0  0 15  0  0  0  0  0  0
   13.2710    3.8789   -3.6292 C   0  0  0  0  0 15  0  0  0  0  0  0
   12.3100    3.7463   -4.8406 C   0  0  0  0  0 15  0  0  0  0  0  0
   11.4470    4.9409   -4.9882 N   0  0  0  0  0 15  0  0  0  0  0  0
   16.2870    1.0348   -2.7946 H   0  0  0  0  0 15  0  0  0  0  0  0
   13.8240    0.4998   -1.3835 H   0  0  0  0  0 15  0  0  0  0  0  0
   15.7820    3.4686   -2.3182 H   0  0  0  0  0 15  0  0  0  0  0  0
   14.4120    2.9551   -1.2990 H   0  0  0  0  0 15  0  0  0  0  0  0
   13.4640    1.7317   -3.3870 H   0  0  0  0  0 15  0  0  0  0  0  0
   14.7760    2.4639   -4.3370 H   0  0  0  0  0 15  0  0  0  0  0  0
   13.9300    4.7511   -3.7730 H   0  0  0  0  0 15  0  0  0  0  0  0
   12.6690    4.0466   -2.7221 H   0  0  0  0  0 15  0  0  0  0  0  0
   11.6740    2.8580   -4.6968 H   0  0  0  0  0 15  0  0  0  0  0  0
   12.8990    3.5937   -5.7622 H   0  0  0  0  0 15  0  0  0  0  0  0
   10.8450    5.1126   -4.1104 H   0  0  0  0  0 15  0  0  0  0  0  0
   10.7620    4.8276   -5.8179 H   0  0  0  0  0 15  0  0  0  0  0  0
   12.0300    5.8286   -5.1759 H   0  0  0  0  0 15  0  0  0  0  0  0
   16.2591    1.4844    0.5294 N   0  0  0  0  0 15  0  0  0  0  0  0
   17.6701    1.5002    1.1113 C   0  0  0  0  0 15  0  0  0  0  0  0
   18.0211    0.2703    1.9433 C   0  0  0  0  0 15  0  0  0  0  0  0
   17.1461   -0.6225    2.0725 O   0  0  0  0  0 15  0  0  0  0  0  0
   17.7411    2.7183    2.0222 C   0  0  0  0  0 15  0  0  0  0  0  0
   16.3001    2.7628    2.5563 C   0  0  0  0  0 15  0  0  0  0  0  0
   15.4471    2.4354    1.3260 C   0  0  0  0  0 15  0  0  0  0  0  0
   18.3981    1.5555    0.3146 H   0  0  0  0  0 15  0  0  0  0  0  0
   18.4191    2.5038    2.8651 H   0  0  0  0  0 15  0  0  0  0  0  0
   17.9311    3.6133    1.4164 H   0  0  0  0  0 15  0  0  0  0  0  0
   16.0321    1.9100    3.1992 H   0  0  0  0  0 15  0  0  0  0  0  0
   16.1451    3.7772    2.9472 H   0  0  0  0  0 15  0  0  0  0  0  0
   14.5091    1.9471    1.6420 H   0  0  0  0  0 15  0  0  0  0  0  0
   15.2921    3.3528    0.7377 H   0  0  0  0  0 15  0  0  0  0  0  0
   17.7372   -0.7783    1.3704 N   0  0  0  0  0 15  0  0  0  0  0  0
   18.9832   -1.5389    1.3208 C   0  0  0  0  0 15  0  0  0  0  0  0
   19.3162   -1.9396   -0.0965 C   0  0  0  0  0 15  0  0  0  0  0  0
   18.5912   -1.6357   -1.0524 O   0  0  0  0  0 15  0  0  0  0  0  0
   18.8742   -2.8085    2.2538 C   0  0  0  0  0 15  0  0  0  0  0  0
   18.7272   -2.4708    3.7586 C   0  0  0  0  0 15  0  0  0  0  0  0
   20.0462   -3.8274    2.1725 C   0  0  0  0  0 15  0  0  0  0  0  0
   17.1652   -0.5583    0.4811 H   0  0  0  0  0 15  0  0  0  0  0  0
   19.8072   -0.8934    1.6769 H   0  0  0  0  0 15  0  0  0  0  0  0
   17.9572   -3.3593    1.9515 H   0  0  0  0  0 15  0  0  0  0  0  0
   19.6292   -1.9796    4.1667 H   0  0  0  0  0 15  0  0  0  0  0  0
   17.8722   -1.7986    3.9476 H   0  0  0  0  0 15  0  0  0  0  0  0
   18.5432   -3.3780    4.3657 H   0  0  0  0  0 15  0  0  0  0  0  0
   21.0192   -3.3713    2.4389 H   0  0  0  0  0 15  0  0  0  0  0  0
   19.8952   -4.6930    2.8469 H   0  0  0  0  0 15  0  0  0  0  0  0
   20.1562   -4.2652    1.1633 H   0  0  0  0  0 15  0  0  0  0  0  0
   19.2153   -1.2150   -1.0038 N   0  0  0  0  0 15  0  0  0  0  0  0
   20.4633   -1.0310   -1.7383 C   0  0  0  0  0 15  0  0  0  0  0  0
   20.7843    0.4363   -1.9006 C   0  0  0  0  0 15  0  0  0  0  0  0
   20.0543    1.3147   -1.4524 O   0  0  0  0  0 15  0  0  0  0  0  0
   18.6343   -0.3785   -0.6440 H   0  0  0  0  0 15  0  0  0  0  0  0
   21.2963   -1.5283   -1.2095 H   0  0  0  0  0 15  0  0  0  0  0  0
   20.3923   -1.4999   -2.7370 H   0  0  0  0  0 15  0  0  0  0  0  0
   20.6934    1.1989   -1.0230 N   0  0  0  0  0 15  0  0  0  0  0  0
   21.6404    2.2290   -0.5987 C   0  0  0  0  0 15  0  0  0  0  0  0
   22.6104    1.6159    0.3845 C   0  0  0  0  0 15  0  0  0  0  0  0
   23.7954    1.8870    0.2825 O   0  0  0  0  0 15  0  0  0  0  0  0
   20.9354    3.4506    0.0504 C   0  0  0  0  0 15  0  0  0  0  0  0
   20.0484    4.2078   -0.9781 C   0  0  0  0  0 15  0  0  0  0  0  0
   19.1834    5.3036   -0.2993 C   0  0  0  0  0 15  0  0  0  0  0  0
   18.2224    5.9783   -1.3142 C   0  0  0  0  0 15  0  0  0  0  0  0
   17.3594    6.9898   -0.6617 N   0  0  0  0  0 15  0  0  0  0  0  0
   22.1994    2.5855   -1.4817 H   0  0  0  0  0 15  0  0  0  0  0  0
   19.7364    1.2704   -0.7416 H   0  0  0  0  0 15  0  0  0  0  0  0
   21.6944    4.1483    0.4440 H   0  0  0  0  0 15  0  0  0  0  0  0
   20.3244    3.1008    0.8971 H   0  0  0  0  0 15  0  0  0  0  0  0
   19.3764    3.5002   -1.4897 H   0  0  0  0  0 15  0  0  0  0  0  0
   20.6884    4.6711   -1.7496 H   0  0  0  0  0 15  0  0  0  0  0  0
   19.8424    6.0652    0.1493 H   0  0  0  0  0 15  0  0  0  0  0  0
   18.5814    4.8508    0.5044 H   0  0  0  0  0 15  0  0  0  0  0  0
   17.5864    5.2042   -1.7732 H   0  0  0  0  0 15  0  0  0  0  0  0
   18.8114    6.4518   -2.1193 H   0  0  0  0  0 15  0  0  0  0  0  0
   16.7574    6.5589    0.1221 H   0  0  0  0  0 15  0  0  0  0  0  0
   16.6744    7.4346   -1.3712 H   0  0  0  0  0 15  0  0  0  0  0  0
   17.9424    7.7914   -0.2368 H   0  0  0  0  0 15  0  0  0  0  0  0
   22.1715    0.8000    1.3578 N   0  0  0  0  0 15  0  0  0  0  0  0
   23.1185    0.2038    2.2990 C   0  0  0  0  0 15  0  0  0  0  0  0
   24.0885   -0.6584    1.5249 C   0  0  0  0  0 15  0  0  0  0  0  0
   25.2735   -0.6048    1.8096 O   0  0  0  0  0 15  0  0  0  0  0  0
   22.4135   -0.6469    3.3898 C   0  0  0  0  0 15  0  0  0  0  0  0
   21.5265    0.2351    4.3136 C   0  0  0  0  0 15  0  0  0  0  0  0
   20.6615   -0.6231    5.2753 C   0  0  0  0  0 15  0  0  0  0  0  0
   19.7005    0.2597    6.1155 C   0  0  0  0  0 15  0  0  0  0  0  0
   18.8375   -0.5580    6.9988 N   0  0  0  0  0 15  0  0  0  0  0  0
   23.6775    1.0119    2.8030 H   0  0  0  0  0 15  0  0  0  0  0  0
   21.2145    0.5105    1.3796 H   0  0  0  0  0 15  0  0  0  0  0  0
   23.1725   -1.1552    4.0089 H   0  0  0  0  0 15  0  0  0  0  0  0
   21.8025   -1.4202    2.8988 H   0  0  0  0  0 15  0  0  0  0  0  0
   20.8545    0.8614    3.7052 H   0  0  0  0  0 15  0  0  0  0  0  0
   22.1665    0.9148    4.9034 H   0  0  0  0  0 15  0  0  0  0  0  0
   21.3205   -1.1968    5.9478 H   0  0  0  0  0 15  0  0  0  0  0  0
   20.0595   -1.3364    4.6903 H   0  0  0  0  0 15  0  0  0  0  0  0
   19.0645    0.8457    5.4326 H   0  0  0  0  0 15  0  0  0  0  0  0
   20.2895    0.9707    6.7213 H   0  0  0  0  0 15  0  0  0  0  0  0
   18.2355   -1.2554    6.4388 H   0  0  0  0  0 15  0  0  0  0  0  0
   18.1525    0.0638    7.5597 H   0  0  0  0  0 15  0  0  0  0  0  0
   19.4205   -1.1152    7.7148 H   0  0  0  0  0 15  0  0  0  0  0  0
   23.6496   -1.4758    0.5530 N   0  0  0  0  0 15  0  0  0  0  0  0
   25.0656   -1.5818    0.2124 C   0  0  0  0  0 15  0  0  0  0  0  0
   25.2656   -1.5521   -1.2850 C   0  0  0  0  0 15  0  0  0  0  0  0
   24.3216   -1.4533   -2.0648 O   0  0  0  0  0 15  0  0  0  0  0  0
   25.6346   -2.8886    0.8353 C   0  0  0  0  0 15  0  0  0  0  0  0
   27.1826   -3.0244    0.8062 C   0  0  0  0  0 15  0  0  0  0  0  0
   27.6576   -4.3582    1.4080 C   0  0  0  0  0 15  0  0  0  0  0  0
   29.1486   -4.4244    1.3710 N   0  0  0  0  0 15  0  0  0  0  0  0
   29.8836   -5.4420    1.8064 C   0  0  0  0  0 15  0  0  0  0  0  0
   29.3796   -6.5279    2.3202 N   0  0  0  0  0 15  0  0  0  0  0  0
   31.1726   -5.3522    1.7174 N   0  0  0  0  0 15  0  0  0  0  0  0
   23.3236   -1.4775    1.5259 H   0  0  0  0  0 15  0  0  0  0  0  0
   25.5866   -0.7029    0.6361 H   0  0  0  0  0 15  0  0  0  0  0  0
   25.2926   -2.9676    1.8875 H   0  0  0  0  0 15  0  0  0  0  0  0
   25.1666   -3.7579    0.3258 H   0  0  0  0  0 15  0  0  0  0  0  0
   27.5536   -2.9414   -0.2373 H   0  0  0  0  0 15  0  0  0  0  0  0
   27.6346   -2.1707    1.3533 H   0  0  0  0  0 15  0  0  0  0  0  0
   27.2786   -4.4487    2.4506 H   0  0  0  0  0 15  0  0  0  0  0  0
   27.2086   -5.1992    0.8363 H   0  0  0  0  0 15  0  0  0  0  0  0
   29.6996   -3.6456    0.9952 H   0  0  0  0  0 15  0  0  0  0  0  0
   30.0126   -7.2661    2.6317 H   0  0  0  0  0 15  0  0  0  0  0  0
   28.3576   -6.5370    2.3602 H   0  0  0  0  0 15  0  0  0  0  0  0
   31.5486   -4.4928    1.3138 H   0  0  0  0  0 15  0  0  0  0  0  0
   31.7216   -6.1439    2.0599 H   0  0  0  0  0 15  0  0  0  0  0  0
   25.1277   -0.2892   -1.5492 N   0  0  0  0  0 15  0  0  0  0  0  0
   26.5437    0.0645   -1.5947 C   0  0  0  0  0 15  0  0  0  0  0  0
   26.7437    1.5342   -1.3063 C   0  0  0  0  0 15  0  0  0  0  0  0
   25.7997    2.2852   -1.0740 O   0  0  0  0  0 15  0  0  0  0  0  0
   27.1127   -0.3228   -2.9896 C   0  0  0  0  0 15  0  0  0  0  0  0
   28.6607   -0.2706   -3.1183 C   0  0  0  0  0 15  0  0  0  0  0  0
   29.1357   -0.6325   -4.5361 C   0  0  0  0  0 15  0  0  0  0  0  0
   30.6267   -0.5846   -4.5950 N   0  0  0  0  0 15  0  0  0  0  0  0
   31.3617   -0.8373   -5.6725 C   0  0  0  0  0 15  0  0  0  0  0  0
   30.8577   -1.1554   -6.8310 N   0  0  0  0  0 15  0  0  0  0  0  0
   32.6507   -0.7652   -5.5687 N   0  0  0  0  0 15  0  0  0  0  0  0
   24.8017   -1.2471   -1.7193 H   0  0  0  0  0 15  0  0  0  0  0  0
   27.0647   -0.5048   -0.8024 H   0  0  0  0  0 15  0  0  0  0  0  0
   26.7707   -1.3454   -3.2495 H   0  0  0  0  0 15  0  0  0  0  0  0
   26.6447    0.3294   -3.7576 H   0  0  0  0  0 15  0  0  0  0  0  0
   29.0317    0.7428   -2.8560 H   0  0  0  0  0 15  0  0  0  0  0  0
   29.1127   -0.9572   -2.3721 H   0  0  0  0  0 15  0  0  0  0  0  0
   28.7567   -1.6437   -4.8057 H   0  0  0  0  0 15  0  0  0  0  0  0
   28.6867    0.0761   -5.2655 H   0  0  0  0  0 15  0  0  0  0  0  0
   31.1777   -0.3492   -3.7628 H   0  0  0  0  0 15  0  0  0  0  0  0
   31.4907   -1.3345   -7.6119 H   0  0  0  0  0 15  0  0  0  0  0  0
   29.8357   -1.1933   -6.8468 H   0  0  0  0  0 15  0  0  0  0  0  0
   33.0267   -0.5164   -4.6524 H   0  0  0  0  0 15  0  0  0  0  0  0
   33.1997   -0.9655   -6.4077 H   0  0  0  0  0 15  0  0  0  0  0  0
   26.6058    1.5759   -0.0167 N   0  0  0  0  0 15  0  0  0  0  0  0
   28.0168    1.7920    0.5238 C   0  0  0  0  0 15  0  0  0  0  0  0
   28.3678    0.9258    1.7298 C   0  0  0  0  0 15  0  0  0  0  0  0
   27.4928    0.1328    2.1599 O   0  0  0  0  0 15  0  0  0  0  0  0
   28.0878    3.2500    0.9571 C   0  0  0  0  0 15  0  0  0  0  0  0
   26.6468    3.4765    1.4428 C   0  0  0  0  0 15  0  0  0  0  0  0
   25.7938    2.7437    0.4018 C   0  0  0  0  0 15  0  0  0  0  0  0
   28.7448    1.5683   -0.2428 H   0  0  0  0  0 15  0  0  0  0  0  0
   28.7658    3.3403    1.8222 H   0  0  0  0  0 15  0  0  0  0  0  0
   28.2778    3.8802    0.0791 H   0  0  0  0  0 15  0  0  0  0  0  0
   26.3788    2.8987    2.3411 H   0  0  0  0  0 15  0  0  0  0  0  0
   26.4918    4.5635    1.4588 H   0  0  0  0  0 15  0  0  0  0  0  0
   24.8558    2.3949    0.8671 H   0  0  0  0  0 15  0  0  0  0  0  0
   25.6388    3.4010   -0.4675 H   0  0  0  0  0 15  0  0  0  0  0  0
   28.0839   -0.2563    1.5550 N   0  0  0  0  0 15  0  0  0  0  0  0
   29.3299   -0.9871    1.7716 C   0  0  0  0  0 15  0  0  0  0  0  0
   29.6629   -1.8533    0.5803 C   0  0  0  0  0 15  0  0  0  0  0  0
   28.9379   -1.8987   -0.4217 O   0  0  0  0  0 15  0  0  0  0  0  0
   29.2209   -1.8555    3.0861 C   0  0  0  0  0 15  0  0  0  0  0  0
   29.0739   -1.0182    4.3813 C   0  0  0  0  0 15  0  0  0  0  0  0
   30.3929   -2.8397    3.3623 C   0  0  0  0  0 15  0  0  0  0  0  0
   27.5119   -0.3574    0.6445 H   0  0  0  0  0 15  0  0  0  0  0  0
   30.1539   -0.2582    1.8824 H   0  0  0  0  0 15  0  0  0  0  0  0
   28.3039   -2.4770    2.9930 H   0  0  0  0  0 15  0  0  0  0  0  0
   29.9759   -0.4162    4.5942 H   0  0  0  0  0 15  0  0  0  0  0  0
   28.2189   -0.3222    4.3260 H   0  0  0  0  0 15  0  0  0  0  0  0
   28.8899   -1.6594    5.2647 H   0  0  0  0  0 15  0  0  0  0  0  0
   31.3659   -2.3196    3.4544 H   0  0  0  0  0 15  0  0  0  0  0  0
   30.2419   -3.4186    4.2944 H   0  0  0  0  0 15  0  0  0  0  0  0
   30.5029   -3.5995    2.5668 H   0  0  0  0  0 15  0  0  0  0  0  0
   29.5620   -1.4872   -0.5215 N   0  0  0  0  0 15  0  0  0  0  0  0
   30.5090   -1.6387   -1.6253 C   0  0  0  0  0 15  0  0  0  0  0  0
   31.4790   -0.4806   -1.5900 C   0  0  0  0  0 15  0  0  0  0  0  0
   32.6640   -0.7051   -1.7729 O   0  0  0  0  0 15  0  0  0  0  0  0
   29.8040   -1.6923   -3.0076 C   0  0  0  0  0 15  0  0  0  0  0  0
   28.9170   -2.9621   -3.1446 C   0  0  0  0  0 15  0  0  0  0  0  0
   28.0520   -2.9267   -4.4330 C   0  0  0  0  0 15  0  0  0  0  0  0
   27.0910   -4.1432   -4.5056 C   0  0  0  0  0 15  0  0  0  0  0  0
   26.2280   -4.0881   -5.7081 N   0  0  0  0  0 15  0  0  0  0  0  0
   31.0680   -2.5812   -1.4892 H   0  0  0  0  0 15  0  0  0  0  0  0
   28.6050   -1.2800   -0.7249 H   0  0  0  0  0 15  0  0  0  0  0  0
   30.5630   -1.7031   -3.8085 H   0  0  0  0  0 15  0  0  0  0  0  0
   29.1930   -0.7846   -3.1312 H   0  0  0  0  0 15  0  0  0  0  0  0
   28.2450   -3.0483   -2.2756 H   0  0  0  0  0 15  0  0  0  0  0  0
   29.5570   -3.8619   -3.1569 H   0  0  0  0  0 15  0  0  0  0  0  0
   28.7110   -2.9221   -5.3170 H   0  0  0  0  0 15  0  0  0  0  0  0
   27.4500   -2.0043   -4.4461 H   0  0  0  0  0 15  0  0  0  0  0  0
   26.4550   -4.1505   -3.6058 H   0  0  0  0  0 15  0  0  0  0  0  0
   27.6800   -5.0773   -4.5099 H   0  0  0  0  0 15  0  0  0  0  0  0
   25.6260   -3.1939   -5.7300 H   0  0  0  0  0 15  0  0  0  0  0  0
   25.5430   -4.9251   -5.7356 H   0  0  0  0  0 15  0  0  0  0  0  0
   26.8110   -4.1242   -6.6146 H   0  0  0  0  0 15  0  0  0  0  0  0
   31.0401    0.7711   -1.3745 N   0  0  0  0  0 15  0  0  0  0  0  0
   32.2861    1.5319   -1.3289 C   0  0  0  0  0 15  0  0  0  0  0  0
   32.6191    1.9401    0.0863 C   0  0  0  0  0 15  0  0  0  0  0  0
   31.8941    1.6412    1.0437 O   0  0  0  0  0 15  0  0  0  0  0  0
   32.1771    2.7965   -2.2687 C   0  0  0  0  0 15  0  0  0  0  0  0
   32.0301    2.4508   -3.7717 C   0  0  0  0  0 15  0  0  0  0  0  0
   33.3491    3.8158   -2.1928 C   0  0  0  0  0 15  0  0  0  0  0  0
   30.4681    0.5557   -0.4841 H   0  0  0  0  0 15  0  0  0  0  0  0
   33.1101    0.8845   -1.6816 H   0  0  0  0  0 15  0  0  0  0  0  0
   31.2601    3.3489   -1.9693 H   0  0  0  0  0 15  0  0  0  0  0  0
   32.9321    1.9574   -4.1771 H   0  0  0  0  0 15  0  0  0  0  0  0
   31.1751    1.7777   -3.9570 H   0  0  0  0  0 15  0  0  0  0  0  0
   31.8461    3.3548   -4.3836 H   0  0  0  0  0 15  0  0  0  0  0  0
   34.3221    3.3583   -2.4567 H   0  0  0  0  0 15  0  0  0  0  0  0
   33.1981    4.6779   -2.8717 H   0  0  0  0  0 15  0  0  0  0  0  0
   33.4591    4.2590   -1.1859 H   0  0  0  0  0 15  0  0  0  0  0  0
   32.5182    1.2203    0.9973 N   0  0  0  0  0 15  0  0  0  0  0  0
   33.7482    1.0669    1.7692 C   0  0  0  0  0 15  0  0  0  0  0  0
   34.1562   -0.3858    1.8522 C   0  0  0  0  0 15  0  0  0  0  0  0
   33.4992   -1.2793    1.3183 O   0  0  0  0  0 15  0  0  0  0  0  0
   33.5612    1.5980    3.2203 C   0  0  0  0  0 15  0  0  0  0  0  0
   33.2252    3.0836    3.3729 C   0  0  0  0  0 15  0  0  0  0  0  0
   34.2222    4.0583    3.2495 C   0  0  0  0  0 15  0  0  0  0  0  0
   31.9072    3.4773    3.6248 C   0  0  0  0  0 15  0  0  0  0  0  0
   33.9012    5.4066    3.3759 C   0  0  0  0  0 15  0  0  0  0  0  0
   31.5882    4.8270    3.7476 C   0  0  0  0  0 15  0  0  0  0  0  0
   32.5862    5.7898    3.6232 C   0  0  0  0  0 15  0  0  0  0  0  0
   32.2742    7.1150    3.7419 O   0  0  0  0  0 15  0  0  0  0  0  0
   32.0062    0.3748    0.5626 H   0  0  0  0  0 15  0  0  0  0  0  0
   34.5602    1.6199    1.2629 H   0  0  0  0  0 15  0  0  0  0  0  0
   32.7902    0.9890    3.7384 H   0  0  0  0  0 15  0  0  0  0  0  0
   34.4792    1.4018    3.8092 H   0  0  0  0  0 15  0  0  0  0  0  0
   35.2452    3.7677    3.0540 H   0  0  0  0  0 15  0  0  0  0  0  0
   31.1242    2.7332    3.7124 H   0  0  0  0  0 15  0  0  0  0  0  0
   34.6682    6.1579    3.2780 H   0  0  0  0  0 15  0  0  0  0  0  0
   30.5652    5.1145    3.9381 H   0  0  0  0  0 15  0  0  0  0  0  0
   31.3332    7.1902    3.9109 H   0  0  0  0  0 15  0  0  0  0  0  0
   33.9963   -1.1934    1.0293 N   0  0  0  0  0 15  0  0  0  0  0  0
   35.4073   -1.7073    0.7556 C   0  0  0  0  0 15  0  0  0  0  0  0
   35.7583   -1.8233   -0.7247 C   0  0  0  0  0 15  0  0  0  0  0  0
   34.8833   -1.4947   -1.5648 O   0  0  0  0  0 15  0  0  0  0  0  0
   35.4783   -3.1008    1.3650 C   0  0  0  0  0 15  0  0  0  0  0  0
   34.0373   -3.5872    1.1399 C   0  0  0  0  0 15  0  0  0  0  0  0
   33.1843   -2.3558    1.4628 C   0  0  0  0  0 15  0  0  0  0  0  0
   36.1353   -1.0418    1.1972 H   0  0  0  0  0 15  0  0  0  0  0  0
   36.1563   -3.7279    0.7622 H   0  0  0  0  0 15  0  0  0  0  0  0
   35.6683   -3.0161    2.4424 H   0  0  0  0  0 15  0  0  0  0  0  0
   33.7693   -3.7251    0.0808 H   0  0  0  0  0 15  0  0  0  0  0  0
   33.8823   -4.4282    1.8289 H   0  0  0  0  0 15  0  0  0  0  0  0
   32.2463   -2.3893    0.8822 H   0  0  0  0  0 15  0  0  0  0  0  0
   33.0293   -2.2973    2.5510 H   0  0  0  0  0 15  0  0  0  0  0  0
   35.4744   -0.8072   -1.3536 N   0  0  0  0  0 15  0  0  0  0  0  0
   36.7514   -0.3111   -1.9311 C   0  0  0  0  0 15  0  0  0  0  0  0
   37.1314    1.1994   -1.7372 C   0  0  0  0  0 15  0  0  0  0  0  0
   36.4794    1.9992   -1.1066 O   0  0  0  0  0 15  0  0  0  0  0  0
   36.6894   -0.7232   -3.4142 C   0  0  0  0  0 15  0  0  0  0  0  0
   38.0374   -0.7131   -4.1857 C   0  0  0  0  0 15  0  0  0  0  0  0
   39.0614   -0.6648   -3.4994 O   0  0  0  0  0 15  0  0  0  0  0  0
   37.9204   -0.7720   -5.4102 O   0  0  0  0  0 15  0  0  0  0  0  0
   35.0144   -0.0815   -0.8230 H   0  0  0  0  0 15  0  0  0  0  0  0
   37.5604   -0.8910   -1.4443 H   0  0  0  0  0 15  0  0  0  0  0  0
   36.3324   -1.7643   -3.4927 H   0  0  0  0  0 15  0  0  0  0  0  0
   35.9554   -0.1182   -3.9742 H   0  0  0  0  0 15  0  0  0  0  0  0
   36.9525    1.4729   -0.5608 N   0  0  0  0  0 15  0  0  0  0  0  0
   38.2005    2.0206   -0.0380 C   0  0  0  0  0 15  0  0  0  0  0  0
   38.5215    1.4371    1.3180 C   0  0  0  0  0 15  0  0  0  0  0  0
   37.7915    0.6136    1.8604 O   0  0  0  0  0 15  0  0  0  0  0  0
   36.3715    0.7469   -0.0111 H   0  0  0  0  0 15  0  0  0  0  0  0
   39.0335    1.8065   -0.7316 H   0  0  0  0  0 15  0  0  0  0  0  0
   38.1295    3.1206    0.0474 H   0  0  0  0  0 15  0  0  0  0  0  0
   38.4306    0.2974    1.5477 N   0  0  0  0  0 15  0  0  0  0  0  0
   39.3936   -0.5674    2.2207 C   0  0  0  0  0 15  0  0  0  0  0  0
   40.3936   -1.0641    1.2056 C   0  0  0  0  0 15  0  0  0  0  0  0
   41.5836   -0.9607    1.4531 O   0  0  0  0  0 15  0  0  0  0  0  0
   38.7156   -1.7852    2.9042 C   0  0  0  0  0 15  0  0  0  0  0  0
   39.9086    0.0206    2.9989 H   0  0  0  0  0 15  0  0  0  0  0  0
   37.4616    0.0482    1.5623 H   0  0  0  0  0 15  0  0  0  0  0  0
   38.1966   -2.4130    2.1666 H   0  0  0  0  0 15  0  0  0  0  0  0
   37.9816   -1.4367    3.6483 H   0  0  0  0  0 15  0  0  0  0  0  0
   39.4716   -2.3996    3.4177 H   0  0  0  0  0 15  0  0  0  0  0  0
   39.9087   -1.5758    0.0251 N   0  0  0  0  0 15  0  0  0  0  0  0
   40.8187   -2.1343   -0.9739 C   0  0  0  0  0 15  0  0  0  0  0  0
   41.8347   -1.0856   -1.3598 C   0  0  0  0  0 15  0  0  0  0  0  0
   43.0107   -1.4059   -1.4421 O   0  0  0  0  0 15  0  0  0  0  0  0
   40.0757   -2.6470   -2.2390 C   0  0  0  0  0 15  0  0  0  0  0  0
   39.1367   -3.8428   -1.9139 C   0  0  0  0  0 15  0  0  0  0  0  0
   38.3697   -4.3309   -3.1187 C   0  0  0  0  0 15  0  0  0  0  0  0
   38.5927   -3.8111   -4.2440 O   0  0  0  0  0 15  0  0  0  0  0  0
   37.5267   -5.2498   -2.9441 O   0  0  0  0  0 15  0  0  0  0  0  0
   41.3527   -2.9906   -0.5290 H   0  0  0  0  0 15  0  0  0  0  0  0
   38.9377   -1.4812   -0.1953 H   0  0  0  0  0 15  0  0  0  0  0  0
   40.8197   -2.9777   -2.9818 H   0  0  0  0  0 15  0  0  0  0  0  0
   39.4947   -1.8216   -2.6758 H   0  0  0  0  0 15  0  0  0  0  0  0
   38.4017   -3.5614   -1.1451 H   0  0  0  0  0 15  0  0  0  0  0  0
   39.7347   -4.6797   -1.5253 H   0  0  0  0  0 15  0  0  0  0  0  0
   41.3868    0.2480   -1.5564 N   0  0  0  0  0 15  0  0  0  0  0  0
   42.6638    0.9990   -1.6817 C   0  0  0  0  0 15  0  0  0  0  0  0
   43.0438    2.0341   -0.5646 C   0  0  0  0  0 15  0  0  0  0  0  0
   42.3918    2.2438    0.4321 O   0  0  0  0  0 15  0  0  0  0  0  0
   42.6018    1.6333   -3.0842 C   0  0  0  0  0 15  0  0  0  0  0  0
   43.9498    2.1356   -3.6698 C   0  0  0  0  0 15  0  0  0  0  0  0
   44.9738    1.7328   -3.1121 O   0  0  0  0  0 15  0  0  0  0  0  0
   43.8328    2.8753   -4.6475 O   0  0  0  0  0 15  0  0  0  0  0  0
   40.9268    0.4649   -0.6839 H   0  0  0  0  0 15  0  0  0  0  0  0
   43.4728    0.2419   -1.6797 H   0  0  0  0  0 15  0  0  0  0  0  0
   42.2448    0.8846   -3.8117 H   0  0  0  0  0 15  0  0  0  0  0  0
   41.8678    2.4567   -3.1262 H   0  0  0  0  0 15  0  0  0  0  0  0
   42.8649    1.4899    0.5136 N   0  0  0  0  0 15  0  0  0  0  0  0
   43.7969    1.6084    1.6329 C   0  0  0  0  0 15  0  0  0  0  0  0
   44.8099    0.4917    1.5520 C   0  0  0  0  0 15  0  0  0  0  0  0
   45.9989    0.7632    1.6136 O   0  0  0  0  0 15  0  0  0  0  0  0
   43.0989    1.5373    3.0203 C   0  0  0  0  0 15  0  0  0  0  0  0
   42.2719    2.8072    3.3544 C   0  0  0  0  0 15  0  0  0  0  0  0
   41.3309    2.6684    4.5352 C   0  0  0  0  0 15  0  0  0  0  0  0
   40.3569    3.4075    4.5593 O   0  0  0  0  0 15  0  0  0  0  0  0
   41.5589    1.7754    5.5268 N   0  0  0  0  0 15  0  0  0  0  0  0
   44.3239    2.5737    1.5357 H   0  0  0  0  0 15  0  0  0  0  0  0
   41.8849    1.4592    0.7013 H   0  0  0  0  0 15  0  0  0  0  0  0
   43.8769    1.4212    3.7893 H   0  0  0  0  0 15  0  0  0  0  0  0
   42.4469    0.6511    3.0574 H   0  0  0  0  0 15  0  0  0  0  0  0
   41.6669    3.0677    2.4756 H   0  0  0  0  0 15  0  0  0  0  0  0
   42.9549    3.6493    3.5455 H   0  0  0  0  0 15  0  0  0  0  0  0
   42.3529    1.1672    5.5353 H   0  0  0  0  0 15  0  0  0  0  0  0
   40.9099    1.7186    6.2874 H   0  0  0  0  0 15  0  0  0  0  0  0
   44.3430   -0.7638    1.3786 N   0  0  0  0  0 15  0  0  0  0  0  0
   45.2730   -1.8910    1.3698 C   0  0  0  0  0 15  0  0  0  0  0  0
   46.2540   -1.6844    0.2372 C   0  0  0  0  0 15  0  0  0  0  0  0
   47.4390   -1.8918    0.4387 O   0  0  0  0  0 15  0  0  0  0  0  0
   44.5690   -3.2650    1.1839 C   0  0  0  0  0 15  0  0  0  0  0  0
   43.5230   -3.6174    2.2875 C   0  0  0  0  0 15  0  0  0  0  0  0
   42.8490   -4.9776    1.9529 C   0  0  0  0  0 15  0  0  0  0  0  0
   44.1490   -3.6766    3.7097 C   0  0  0  0  0 15  0  0  0  0  0  0
   45.8430   -1.9010    2.3131 H   0  0  0  0  0 15  0  0  0  0  0  0
   43.3890   -0.9132    1.1134 H   0  0  0  0  0 15  0  0  0  0  0  0
   45.3420   -4.0500    1.1641 H   0  0  0  0  0 15  0  0  0  0  0  0
   44.0660   -3.2595    0.2052 H   0  0  0  0  0 15  0  0  0  0  0  0
   42.7250   -2.8555    2.2991 H   0  0  0  0  0 15  0  0  0  0  0  0
   42.3730   -4.9377    0.9592 H   0  0  0  0  0 15  0  0  0  0  0  0
   42.0730   -5.2231    2.6919 H   0  0  0  0  0 15  0  0  0  0  0  0
   43.5970   -5.7866    1.9490 H   0  0  0  0  0 15  0  0  0  0  0  0
   45.0110   -4.3631    3.7190 H   0  0  0  0  0 15  0  0  0  0  0  0
   43.4080   -4.0372    4.4400 H   0  0  0  0  0 15  0  0  0  0  0  0
   44.4780   -2.6813    4.0402 H   0  0  0  0  0 15  0  0  0  0  0  0
   45.8211   -1.2256   -0.9908 N   0  0  0  0  0 15  0  0  0  0  0  0
   46.7841   -0.9989   -2.0629 C   0  0  0  0  0 15  0  0  0  0  0  0
   47.7841    0.0355   -1.6076 C   0  0  0  0  0 15  0  0  0  0  0  0
   48.9741   -0.2032   -1.7301 O   0  0  0  0  0 15  0  0  0  0  0  0
   46.1061   -0.5092   -3.3708 C   0  0  0  0  0 15  0  0  0  0  0  0
   47.2991   -1.9501   -2.2784 H   0  0  0  0  0 15  0  0  0  0  0  0
   44.8521   -1.0446   -1.1627 H   0  0  0  0  0 15  0  0  0  0  0  0
   45.5871    0.4463   -3.2121 H   0  0  0  0  0 15  0  0  0  0  0  0
   45.3721   -1.2555   -3.7146 H   0  0  0  0  0 15  0  0  0  0  0  0
   46.8621   -0.3709   -4.1595 H   0  0  0  0  0 15  0  0  0  0  0  0
   47.2992    1.1880   -1.0356 N   0  0  0  0  0 15  0  0  0  0  0  0
   48.2092    2.2591   -0.6325 C   0  0  0  0  0 15  0  0  0  0  0  0
   49.2252    1.7067    0.3389 C   0  0  0  0  0 15  0  0  0  0  0  0
   50.4012    2.0045    0.1951 O   0  0  0  0  0 15  0  0  0  0  0  0
   47.4662    3.4670    0.0035 C   0  0  0  0  0 15  0  0  0  0  0  0
   46.5272    4.1710   -1.0162 C   0  0  0  0  0 15  0  0  0  0  0  0
   45.7602    5.3212   -0.4105 C   0  0  0  0  0 15  0  0  0  0  0  0
   45.9832    5.6498    0.7847 O   0  0  0  0  0 15  0  0  0  0  0  0
   44.9172    5.9107   -1.1367 O   0  0  0  0  0 15  0  0  0  0  0  0
   48.7432    2.6265   -1.5248 H   0  0  0  0  0 15  0  0  0  0  0  0
   46.3282    1.2578   -0.8062 H   0  0  0  0  0 15  0  0  0  0  0  0
   48.2102    4.1988    0.3578 H   0  0  0  0  0 15  0  0  0  0  0  0
   46.8852    3.1180    0.8697 H   0  0  0  0  0 15  0  0  0  0  0  0
   45.7922    3.4601   -1.4222 H   0  0  0  0  0 15  0  0  0  0  0  0
   47.1252    4.5599   -1.8530 H   0  0  0  0  0 15  0  0  0  0  0  0
   48.7773    0.8144    1.3493 N   0  0  0  0  0 15  0  0  0  0  0  0
   49.7403    0.2358    2.2798 C   0  0  0  0  0 15  0  0  0  0  0  0
   50.7403   -0.5814    1.4992 C   0  0  0  0  0 15  0  0  0  0  0  0
   51.9303   -0.3988    1.6957 O   0  0  0  0  0 15  0  0  0  0  0  0
   49.0623   -0.6704    3.3424 C   0  0  0  0  0 15  0  0  0  0  0  0
   50.2553    1.0566    2.8067 H   0  0  0  0  0 15  0  0  0  0  0  0
   47.8083    0.5856    1.4491 H   0  0  0  0  0 15  0  0  0  0  0  0
   48.5433   -1.5147    2.8676 H   0  0  0  0  0 15  0  0  0  0  0  0
   48.3283   -0.0861    3.9201 H   0  0  0  0  0 15  0  0  0  0  0  0
   49.8183   -1.0694    4.0368 H   0  0  0  0  0 15  0  0  0  0  0  0
   50.2554   -1.4699    0.5686 N   0  0  0  0  0 15  0  0  0  0  0  0
   51.5024   -2.0244    0.0488 C   0  0  0  0  0 15  0  0  0  0  0  0
   51.8304   -1.4417   -1.3056 C   0  0  0  0  0 15  0  0  0  0  0  0
   51.0854   -0.5912   -1.8656 O   0  0  0  0  0 15  0  0  0  0  0  0
   51.3844   -3.5731   -0.0818 C   0  0  0  0  0 15  0  0  0  0  0  0
   51.0504   -4.3455    1.2031 C   0  0  0  0  0 15  0  0  0  0  0  0
   49.7124   -4.5538    1.5552 C   0  0  0  0  0 15  0  0  0  0  0  0
   52.0644   -4.7902    2.0541 C   0  0  0  0  0 15  0  0  0  0  0  0
   49.3924   -5.1791    2.7565 C   0  0  0  0  0 15  0  0  0  0  0  0
   51.7444   -5.4288    3.2475 C   0  0  0  0  0 15  0  0  0  0  0  0
   50.4084   -5.6193    3.6026 C   0  0  0  0  0 15  0  0  0  0  0  0
   49.6784   -0.7408    0.0179 H   0  0  0  0  0 15  0  0  0  0  0  0
   52.3254   -1.7652    0.7424 H   0  0  0  0  0 15  0  0  0  0  0  0
   50.6304   -3.8228   -0.8585 H   0  0  0  0  0 15  0  0  0  0  0  0
   52.3274   -3.9788   -0.4995 H   0  0  0  0  0 15  0  0  0  0  0  0
   48.9174   -4.1863    0.9190 H   0  0  0  0  0 15  0  0  0  0  0  0
   53.1014   -4.6270    1.7952 H   0  0  0  0  0 15  0  0  0  0  0  0
   48.3574   -5.3086    3.0332 H   0  0  0  0  0 15  0  0  0  0  0  0
   52.5314   -5.7629    3.9097 H   0  0  0  0  0 15  0  0  0  0  0  0
   50.1584   -6.1016    4.5344 H   0  0  0  0  0 15  0  0  0  0  0  0
   51.7335   -0.3056   -1.5461 N   0  0  0  0  0 15  0  0  0  0  0  0
   53.1445    0.1861   -1.8577 C   0  0  0  0  0 15  0  0  0  0  0  0
   53.4955    1.5306   -1.2275 C   0  0  0  0  0 15  0  0  0  0  0  0
   52.6205    2.0989   -0.5269 O   0  0  0  0  0 15  0  0  0  0  0  0
   53.2155    0.3444   -3.3704 C   0  0  0  0  0 15  0  0  0  0  0  0
   51.7745    0.7804   -3.6822 C   0  0  0  0  0 15  0  0  0  0  0  0
   50.9215   -0.1086   -2.7709 C   0  0  0  0  0 15  0  0  0  0  0  0
   53.8725   -0.5265   -1.4971 H   0  0  0  0  0 15  0  0  0  0  0  0
   53.8935    1.1783   -3.6180 H   0  0  0  0  0 15  0  0  0  0  0  0
   53.4055   -0.6342   -3.8288 H   0  0  0  0  0 15  0  0  0  0  0  0
   51.5065    1.7695   -3.2790 H   0  0  0  0  0 15  0  0  0  0  0  0
   51.6195    0.5966   -4.7537 H   0  0  0  0  0 15  0  0  0  0  0  0
   49.9835    0.4129   -2.5133 H   0  0  0  0  0 15  0  0  0  0  0  0
   50.7665   -1.0837   -3.2575 H   0  0  0  0  0 15  0  0  0  0  0  0
   53.2116    1.5756   -0.0334 N   0  0  0  0  0 15  0  0  0  0  0  0
   54.1416    2.1351    0.9453 C   0  0  0  0  0 15  0  0  0  0  0  0
   55.1226    1.0523    1.3364 C   0  0  0  0  0 15  0  0  0  0  0  0
   56.3076    1.3308    1.4143 O   0  0  0  0  0 15  0  0  0  0  0  0
   53.4376    2.6657    2.2262 C   0  0  0  0  0 15  0  0  0  0  0  0
   52.3916    3.7968    1.9756 C   0  0  0  0  0 15  0  0  0  0  0  0
   51.7176    4.1918    3.3195 C   0  0  0  0  0 15  0  0  0  0  0  0
   53.0176    5.0557    1.3113 C   0  0  0  0  0 15  0  0  0  0  0  0
   54.7116    2.9554    0.4793 H   0  0  0  0  0 15  0  0  0  0  0  0
   52.2576    1.4217    0.2291 H   0  0  0  0  0 15  0  0  0  0  0  0
   54.2106    3.0434    2.9147 H   0  0  0  0  0 15  0  0  0  0  0  0
   52.9346    1.8171    2.7138 H   0  0  0  0  0 15  0  0  0  0  0  0
   51.5936    3.4235    1.3113 H   0  0  0  0  0 15  0  0  0  0  0  0
   51.2416    3.3130    3.7849 H   0  0  0  0  0 15  0  0  0  0  0  0
   50.9416    4.9540    3.1599 H   0  0  0  0  0 15  0  0  0  0  0  0
   52.4656    4.5954    4.0206 H   0  0  0  0  0 15  0  0  0  0  0  0
   53.8796    5.4090    1.8999 H   0  0  0  0  0 15  0  0  0  0  0  0
   52.2766    5.8682    1.2556 H   0  0  0  0  0 15  0  0  0  0  0  0
   53.3466    4.8406    0.2849 H   0  0  0  0  0 15  0  0  0  0  0  0
   54.6897   -0.2398    1.5577 N   0  0  0  0  0 15  0  0  0  0  0  0
   55.5997   -1.3183    1.9406 C   0  0  0  0  0 15  0  0  0  0  0  0
   56.6157   -1.5227    0.8419 C   0  0  0  0  0 15  0  0  0  0  0  0
   57.7917   -1.6576    1.1439 O   0  0  0  0  0 15  0  0  0  0  0  0
   54.8567   -2.6516    2.2337 C   0  0  0  0  0 15  0  0  0  0  0  0
   53.9177   -2.5317    3.4670 C   0  0  0  0  0 15  0  0  0  0  0  0
   53.1507   -3.8014    3.7461 C   0  0  0  0  0 15  0  0  0  0  0  0
   53.3737   -4.8234    3.0447 O   0  0  0  0  0 15  0  0  0  0  0  0
   52.3077   -3.7834    4.6812 O   0  0  0  0  0 15  0  0  0  0  0  0
   56.1337   -1.0235    2.8593 H   0  0  0  0  0 15  0  0  0  0  0  0
   53.7187   -0.4411    1.4274 H   0  0  0  0  0 15  0  0  0  0  0  0
   55.6007   -3.4393    2.4350 H   0  0  0  0  0 15  0  0  0  0  0  0
   54.2757   -2.9436    1.3467 H   0  0  0  0  0 15  0  0  0  0  0  0
   53.1827   -1.7266    3.3187 H   0  0  0  0  0 15  0  0  0  0  0  0
   54.5157   -2.2891    4.3573 H   0  0  0  0  0 15  0  0  0  0  0  0
   56.1678   -1.4927   -0.5057 N   0  0  0  0  0 15  0  0  0  0  0  0
   57.4148   -1.5851   -1.2602 C   0  0  0  0  0 15  0  0  0  0  0  0
   57.7428   -0.2697   -1.9262 C   0  0  0  0  0 15  0  0  0  0  0  0
   56.9978    0.7420   -1.8109 O   0  0  0  0  0 15  0  0  0  0  0  0
   57.2968   -2.6901   -2.3531 C   0  0  0  0  0 15  0  0  0  0  0  0
   56.9628   -4.1066   -1.8619 C   0  0  0  0  0 15  0  0  0  0  0  0
   55.6248   -4.4921   -1.7252 C   0  0  0  0  0 15  0  0  0  0  0  0
   57.9768   -4.9934   -1.4938 C   0  0  0  0  0 15  0  0  0  0  0  0
   55.3048   -5.7421   -1.2039 C   0  0  0  0  0 15  0  0  0  0  0  0
   57.6568   -6.2485   -0.9871 C   0  0  0  0  0 15  0  0  0  0  0  0
   56.3208   -6.6224   -0.8367 C   0  0  0  0  0 15  0  0  0  0  0  0
   55.5908   -0.5800   -0.4611 H   0  0  0  0  0 15  0  0  0  0  0  0
   58.2378   -1.8308   -0.5617 H   0  0  0  0  0 15  0  0  0  0  0  0
   56.5428   -2.3840   -3.1093 H   0  0  0  0  0 15  0  0  0  0  0  0
   58.2398   -2.7337   -2.9337 H   0  0  0  0  0 15  0  0  0  0  0  0
   54.8298   -3.8023   -1.9779 H   0  0  0  0  0 15  0  0  0  0  0  0
   59.0138   -4.7021   -1.5879 H   0  0  0  0  0 15  0  0  0  0  0  0
   54.2698   -6.0188   -1.0746 H   0  0  0  0  0 15  0  0  0  0  0  0
   58.4438   -6.9294   -0.6930 H   0  0  0  0  0 15  0  0  0  0  0  0
   56.0708   -7.5898   -0.4306 H   0  0  0  0  0 15  0  0  0  0  0  0
   57.6848    0.6510   -1.4780 O   0  0  0  0  0 15  0  0  0  0  0  0
   58.3758    1.3045   -1.4319 H   0  0  0  0  0 15  0  0  0  0  0  0
M  END
$$$$
