drugbank_target|P06401 Progesterone receptor (DB00294; DB00304; DB00351; DB00367; DB00378; DB00396; DB00421; DB00431; DB00588; DB00603; DB00648; DB00717; DB00764; DB00823; DB00834; DB00957; DB01395; DB01406; DB01428; DB01431; DB02746; DB02998; DB04787; DB05253; DB06680; DB06713; DB06730; DB06789; DB08867; DB08906; DB09123; DB09124; DB09389; DB11064; DB11219; DB11619; DB12941; DB13857; DB13867; DB14512; DB14583)
 OpenBabel12092119343D

  0  0  0     0  0            999 V3000
M  V30 BEGIN CTAB
M  V30 COUNTS 13892 14071 0 0 0
M  V30 BEGIN ATOM
M  V30 1 H -0.908 1.98254 -0.117106 0
M  V30 2 N 0 1.576 0 0
M  V30 3 C 0.933 2.03868 1.02534 0
M  V30 4 C 1.911 0.928543 1.3348 0
M  V30 5 O 3.095 1.19667 1.45644 0
M  V30 6 C 0.222 2.43627 2.35294 0
M  V30 7 C -0.732 3.65373 2.2001 0
M  V30 8 S 0.101 5.13292 1.52614 0
M  V30 9 C 1.257 5.56322 2.86805 0
M  V30 10 H 1.49 2.90518 0.631377 0
M  V30 11 H -0.977 1.52953 0.210867 0
M  V30 12 H 0.981 2.67203 3.11629 0
M  V30 13 H -0.358 1.57376 2.7183 0
M  V30 14 H -1.165 3.90944 3.18086 0
M  V30 15 H -1.563 3.418 1.51819 0
M  V30 16 H 0.729 5.58782 3.83104 0
M  V30 17 H 1.672 6.56266 2.65933 0
M  V30 18 H 2.08 4.83886 2.90714 0
M  V30 19 N 1.4781 -0.272755 1.55222 0
M  V30 20 C 2.7061 -1.02255 1.79865 0
M  V30 21 C 3.1211 -1.79924 0.572088 0
M  V30 22 O 2.4781 -1.76638 -0.458842 0
M  V30 23 C 2.5291 -1.98094 3.02392 0
M  V30 24 O 2.2501 -1.23572 4.20311 0
M  V30 25 C 3.7511 -2.84884 3.39641 0
M  V30 26 H 0.9711 -0.302057 0.599168 0
M  V30 27 H 3.5151 -0.303465 2.02236 0
M  V30 28 H 1.6701 -2.65465 2.82147 0
M  V30 29 H 2.0841 -1.88172 4.89583 0
M  V30 30 H 3.5581 -3.47927 4.28545 0
M  V30 31 H 4.0351 -3.54665 2.59055 0
M  V30 32 H 4.6411 -2.23003 3.62146 0
M  V30 33 N 2.9562 -1.48159 -0.537278 0
M  V30 34 C 3.8662 -1.64807 -1.6696 0
M  V30 35 C 4.8822 -0.530651 -1.65711 0
M  V30 36 O 6.0582 -0.800784 -1.84796 0
M  V30 37 C 3.1232 -1.67708 -3.03438 0
M  V30 38 C 2.1842 -2.91025 -3.156 0
M  V30 39 C 1.4172 -2.93778 -4.45567 0
M  V30 40 O 1.6402 -2.05153 -5.3223 0
M  V30 41 O 0.5742 -3.85868 -4.61941 0
M  V30 42 H 4.4002 -2.6066 -1.55853 0
M  V30 43 H 1.9852 -1.31475 -0.709549 0
M  V30 44 H 3.8672 -1.7218 -3.84619 0
M  V30 45 H 2.5422 -0.750278 -3.14885 0
M  V30 46 H 1.4492 -2.92089 -2.33741 0
M  V30 47 H 2.7822 -3.83065 -3.09066 0
M  V30 48 N 4.4343 0.785586 -1.36625 0
M  V30 49 C 5.3643 1.91259 -1.33949 0
M  V30 50 C 6.3453 1.68795 -0.210325 0
M  V30 51 O 7.5303 1.89854 -0.408561 0
M  V30 52 C 4.6603 3.28339 -1.13186 0
M  V30 53 C 3.6143 3.65335 -2.22967 0
M  V30 54 C 2.9403 5.00806 -1.87342 0
M  V30 55 C 4.2403 3.7352 -3.65075 0
M  V30 56 H 5.9343 1.93755 -2.28253 0
M  V30 57 H 3.4803 0.930788 -1.09874 0
M  V30 58 H 5.4333 4.06804 -1.09948 0
M  V30 59 H 4.1573 3.2624 -0.153332 0
M  V30 60 H 2.8163 2.89169 -2.25337 0
M  V30 61 H 2.4643 4.95233 -0.880545 0
M  V30 62 H 2.1643 5.26529 -2.60846 0
M  V30 63 H 3.6883 5.81687 -1.85667 0
M  V30 64 H 5.1023 4.42168 -3.64911 0
M  V30 65 H 3.4993 4.10731 -4.37516 0
M  V30 66 H 4.5693 2.74527 -3.99703 0
M  V30 67 N 5.9124 1.20967 1.01018 0
M  V30 68 C 6.8594 0.964281 2.09691 0
M  V30 69 C 7.8294 -0.107853 1.65749 0
M  V30 70 O 9.0144 0.0381987 1.90762 0
M  V30 71 C 6.1544 0.52943 3.41015 0
M  V30 72 C 5.2674 1.67043 3.98398 0
M  V30 73 C 4.4024 1.18525 5.17808 0
M  V30 74 C 3.4414 2.29892 5.67288 0
M  V30 75 N 2.5784 1.82546 6.77954 0
M  V30 76 H 7.4184 1.89463 2.30017 0
M  V30 77 H 4.9554 0.944289 1.1279 0
M  V30 78 H 6.9134 0.258588 4.16398 0
M  V30 79 H 5.5434 -0.363919 3.20742 0
M  V30 80 H 4.5954 2.05603 3.20049 0
M  V30 81 H 5.9074 2.50877 4.31117 0
M  V30 82 H 5.0614 0.870762 6.00419 0
M  V30 83 H 3.8004 0.316887 4.86669 0
M  V30 84 H 2.8054 2.6215 4.83278 0
M  V30 85 H 4.0304 3.17216 6.00459 0
M  V30 86 H 1.9764 0.980454 6.48632 0
M  V30 87 H 1.8934 2.59956 7.09901 0
M  V30 88 H 3.1614 1.54115 7.64113 0
M  V30 89 N 7.3905 -1.2043 1.01659 0
M  V30 90 C 8.3535 -2.21433 0.591616 0
M  V30 91 C 9.3535 -1.57203 -0.338226 0
M  V30 92 O 10.5435 -1.73737 -0.126918 0
M  V30 93 C 7.6755 -3.40628 -0.136058 0
M  V30 94 H 8.8685 -2.60545 1.48514 0
M  V30 95 H 6.4215 -1.33893 0.806379 0
M  V30 96 H 7.1565 -3.07019 -1.04449 0
M  V30 97 H 6.9415 -3.88475 0.531917 0
M  V30 98 H 8.4315 -4.15475 -0.420735 0
M  V30 99 N 8.8686 -0.792821 -1.36206 0
M  V30 100 C 9.8156 -0.191653 -2.30003 0
M  V30 101 C 10.7856 0.666453 -1.52143 0
M  V30 102 O 11.9706 0.61442 -1.80636 0
M  V30 103 C 9.1106 0.664848 -3.38635 0
M  V30 104 C 8.2236 -0.212175 -4.31479 0
M  V30 105 C 7.3586 0.651022 -5.27196 0
M  V30 106 C 6.3976 -0.227247 -6.11678 0
M  V30 107 N 5.5346 0.595127 -6.99573 0
M  V30 108 H 10.3746 -0.996978 -2.80828 0
M  V30 109 H 7.9116 -0.503206 -1.38225 0
M  V30 110 H 9.8696 1.17645 -4.00269 0
M  V30 111 H 8.4996 1.43557 -2.89122 0
M  V30 112 H 7.5516 -0.841777 -3.70969 0
M  V30 113 H 8.8636 -0.888751 -4.90818 0
M  V30 114 H 8.0176 1.2283 -5.94136 0
M  V30 115 H 6.7566 1.36121 -4.68319 0
M  V30 116 H 5.7616 -0.816904 -5.43697 0
M  V30 117 H 6.9866 -0.93509 -6.72631 0
M  V30 118 H 4.9326 1.28955 -6.432 0
M  V30 119 H 4.8496 -0.0236952 -7.55996 0
M  V30 120 H 6.1176 1.15613 -7.70879 0
M  V30 121 N 10.3467 1.47872 -0.545128 0
M  V30 122 C 11.5947 2.02093 -0.016553 0
M  V30 123 C 11.9157 1.42305 1.3332 0
M  V30 124 O 11.1857 0.593853 1.86682 0
M  V30 125 H 9.7657 0.746993 -0.00313038 0
M  V30 126 H 12.4277 1.81414 -0.712397 0
M  V30 127 H 11.5237 3.11996 0.0805422 0
M  V30 128 N 11.8248 0.280983 1.55075 0
M  V30 129 C 13.2358 -0.215629 1.85451 0
M  V30 130 C 13.5868 -1.54991 1.203 0
M  V30 131 O 12.7118 -2.10699 0.493435 0
M  V30 132 C 13.3068 -0.398026 3.36454 0
M  V30 133 C 11.8658 -0.838866 3.66933 0
M  V30 134 C 11.0128 0.064458 2.77225 0
M  V30 135 H 13.9638 0.502601 1.50531 0
M  V30 136 H 13.9848 -1.23569 3.59876 0
M  V30 137 H 13.4968 0.573241 3.83843 0
M  V30 138 H 11.5978 -1.8214 3.25048 0
M  V30 139 H 11.7108 -0.672123 4.74362 0
M  V30 140 H 10.0748 -0.452863 2.50642 0
M  V30 141 H 10.8578 1.03172 3.2743 0
M  V30 142 N 13.3029 -1.57598 0.00835791 0
M  V30 143 C 14.7189 -1.55764 -0.347822 0
M  V30 144 C 14.9189 -1.01186 -1.74252 0
M  V30 145 O 13.9749 -0.649371 -2.44007 0
M  V30 146 C 15.2879 -2.99927 -0.215407 0
M  V30 147 C 16.8359 -3.11656 -0.289725 0
M  V30 148 C 17.3109 -4.57621 -0.18634 0
M  V30 149 N 18.8019 -4.62557 -0.243978 0
M  V30 150 C 19.5369 -5.73094 -0.18745 0
M  V30 151 N 19.0329 -6.92753 -0.0810331 0
M  V30 152 N 20.8259 -5.61588 -0.239925 0
M  V30 153 H 12.9769 -1.91411 0.92062 0
M  V30 154 H 15.2399 -0.879562 0.353659 0
M  V30 155 H 14.9459 -3.43729 0.744512 0
M  V30 156 H 14.8199 -3.63865 -0.994097 0
M  V30 157 H 17.2069 -2.67779 -1.24009 0
M  V30 158 H 17.2879 -2.5048 0.51898 0
M  V30 159 H 16.9319 -5.02174 0.760519 0
M  V30 160 H 16.8619 -5.16752 -1.01364 0
M  V30 161 H 19.3529 -3.76481 -0.327217 0
M  V30 162 H 19.6659 -7.72787 -0.0440241 0
M  V30 163 H 18.0109 -6.94984 -0.0465419 0
M  V30 164 H 21.2019 -4.66996 -0.321317 0
M  V30 165 H 21.3749 -6.47714 -0.192407 0
M  V30 166 N 14.781 0.264519 -1.55364 0
M  V30 167 C 15.744 1.31046 -1.88042 0
M  V30 168 C 16.744 1.41943 -0.755569 0
M  V30 169 O 17.934 1.40947 -1.02369 0
M  V30 170 C 15.066 2.69067 -2.09323 0
M  V30 171 H 16.259 1.03297 -2.81549 0
M  V30 172 H 13.812 0.502989 -1.47986 0
M  V30 173 H 14.547 3.01982 -1.18226 0
M  V30 174 H 14.332 2.62542 -2.91229 0
M  V30 175 H 15.822 3.44623 -2.35848 0
M  V30 176 N 16.2591 1.48442 0.529413 0
M  V30 177 C 17.6701 1.5002 1.11134 0
M  V30 178 C 18.0211 0.27031 1.94329 0
M  V30 179 O 17.1461 -0.622507 2.07253 0
M  V30 180 C 17.7411 2.71834 2.02217 0
M  V30 181 C 16.3001 2.76283 2.55627 0
M  V30 182 C 15.4471 2.43542 1.326 0
M  V30 183 H 18.3981 1.5555 0.314641 0
M  V30 184 H 18.4191 2.50384 2.8651 0
M  V30 185 H 17.9311 3.61331 1.41639 0
M  V30 186 H 16.0321 1.90995 3.19924 0
M  V30 187 H 16.1451 3.77725 2.94721 0
M  V30 188 H 14.5091 1.94709 1.64196 0
M  V30 189 H 15.2921 3.3528 0.737734 0
M  V30 190 N 17.7372 -0.778329 1.37039 0
M  V30 191 C 18.6872 -1.88142 1.28789 0
M  V30 192 C 19.6712 -1.59923 0.177063 0
M  V30 193 O 20.8632 -1.72165 0.410873 0
M  V30 194 C 17.9922 -3.25518 1.09055 0
M  V30 195 C 17.0782 -3.5971 2.24654 0
M  V30 196 N 17.4692 -3.65131 3.50018 0
M  V30 197 C 15.7672 -3.89837 2.16663 0
M  V30 198 C 16.4682 -3.95882 4.26207 0
M  V30 199 N 15.4442 -4.11441 3.55271 0
M  V30 200 H 19.2462 -1.90575 2.23737 0
M  V30 201 H 16.7602 -0.974435 1.29917 0
M  V30 202 H 18.7572 -4.04423 1.0123 0
M  V30 203 H 17.4172 -3.24353 0.15018 0
M  V30 204 H 18.4282 -3.475 3.84011 0
M  V30 205 H 15.1052 -3.96533 1.30645 0
M  V30 206 H 16.4952 -4.06907 5.34674 0
M  V30 207 N 19.2153 -1.21501 -1.00376 0
M  V30 208 C 20.4613 -1.03452 -1.74429 0
M  V30 209 C 20.7943 0.430764 -1.89362 0
M  V30 210 O 20.0693 1.31962 -1.42886 0
M  V30 211 C 20.3523 -1.73375 -3.15615 0
M  V30 212 C 20.2053 -3.27431 -3.08397 0
M  V30 213 C 21.5243 -1.47732 -4.14564 0
M  V30 214 H 18.6433 -0.377226 -0.633143 0
M  V30 215 H 21.2853 -1.49693 -1.17013 0
M  V30 216 H 19.4353 -1.34064 -3.64636 0
M  V30 217 H 21.1073 -3.76119 -2.67081 0
M  V30 218 H 19.3503 -3.5767 -2.45468 0
M  V30 219 H 20.0213 -3.71524 -4.08258 0
M  V30 220 H 22.4973 -1.8186 -3.74254 0
M  V30 221 H 21.3733 -1.99169 -5.11491 0
M  V30 222 H 21.6343 -0.407589 -4.40217 0
M  V30 223 N 20.6934 1.19889 -1.02296 0
M  V30 224 C 21.6564 2.21116 -0.603351 0
M  V30 225 C 22.6564 1.5738 0.329884 0
M  V30 226 O 23.8464 1.73802 0.117702 0
M  V30 227 C 20.9784 3.40696 0.117992 0
M  V30 228 H 22.1714 2.59754 -1.49893 0
M  V30 229 H 19.7244 1.33463 -0.813468 0
M  V30 230 H 20.4594 3.07569 1.0282 0
M  V30 231 H 20.2444 3.88188 -0.552511 0
M  V30 232 H 21.7344 4.15692 0.398696 0
M  V30 233 N 22.1715 0.800033 1.35784 0
M  V30 234 C 23.4195 0.376597 1.9856 0
M  V30 235 C 23.7405 -1.05812 1.63795 0
M  V30 236 O 23.0105 -1.73103 0.917171 0
M  V30 237 H 21.5905 0.136261 0.734467 0
M  V30 238 H 24.2525 1.02442 1.65806 0
M  V30 239 H 23.3485 0.477002 3.08433 0
M  V30 240 N 23.6496 -1.47581 0.552962 0
M  V30 241 C 24.8976 -2.02082 0.0272703 0
M  V30 242 C 25.2186 -1.4301 -1.32563 0
M  V30 243 O 24.4886 -0.603745 -1.86365 0
M  V30 244 H 23.0686 -0.746966 0.00709182 0
M  V30 245 H 25.7306 -1.81033 0.722008 0
M  V30 246 H 24.8266 -3.12034 -0.0639951 0
M  V30 247 N 25.1277 -0.289203 -1.54924 0
M  V30 248 C 26.5387 0.205791 -1.85562 0
M  V30 249 C 26.8897 1.54351 -1.2112 0
M  V30 250 O 26.0147 2.10435 -0.504601 0
M  V30 251 C 26.6097 0.380177 -3.3666 0
M  V30 252 C 25.1687 0.819395 -3.67373 0
M  V30 253 C 24.3157 -0.079159 -2.77187 0
M  V30 254 H 27.2667 -0.510577 -1.50262 0
M  V30 255 H 27.2877 1.21659 -3.60526 0
M  V30 256 H 26.7997 -0.593589 -3.83534 0
M  V30 257 H 24.9007 1.80413 -3.26009 0
M  V30 258 H 25.0137 0.646957 -4.74712 0
M  V30 259 H 23.3777 0.439565 -2.50878 0
M  V30 260 H 24.1607 -1.04906 -3.26878 0
M  V30 261 N 26.6058 1.57591 -0.0167156 0
M  V30 262 C 28.0168 1.79201 0.523834 0
M  V30 263 C 28.3678 0.925796 1.72984 0
M  V30 264 O 27.4928 0.132792 2.15992 0
M  V30 265 C 28.0878 3.25 0.957091 0
M  V30 266 C 26.6468 3.47648 1.44283 0
M  V30 267 C 25.7938 2.74374 0.401757 0
M  V30 268 H 28.7448 1.56831 -0.242816 0
M  V30 269 H 28.7658 3.34031 1.82219 0
M  V30 270 H 28.2778 3.88019 0.0791415 0
M  V30 271 H 26.3788 2.89866 2.34113 0
M  V30 272 H 26.4918 4.56352 1.45877 0
M  V30 273 H 24.8558 2.39485 0.867121 0
M  V30 274 H 25.6388 3.40102 -0.467513 0
M  V30 275 N 28.0839 -0.256276 1.55502 0
M  V30 276 C 29.3089 -1.00766 1.81276 0
M  V30 277 C 29.7339 -1.78524 0.59252 0
M  V30 278 O 29.0919 -1.75413 -0.45827 0
M  V30 279 C 29.1399 -1.92869 3.04687 0
M  V30 280 O 28.2439 -3.019 2.80945 0
M  V30 281 H 27.5849 -0.287224 0.598664 0
M  V30 282 H 30.1149 -0.280109 2.02674 0
M  V30 283 H 30.1249 -2.34511 3.33869 0
M  V30 284 H 28.7999 -1.35689 3.93143 0
M  V30 285 H 27.3769 -2.64454 2.62904 0
M  V30 286 N 29.562 -1.4872 -0.521534 0
M  V30 287 C 30.973 -1.50607 -1.10337 0
M  V30 288 C 31.324 -0.280612 -1.94183 0
M  V30 289 O 30.449 0.611507 -2.0758 0
M  V30 290 C 31.044 -2.72903 -2.00772 0
M  V30 291 C 29.603 -2.77634 -2.54158 0
M  V30 292 C 28.75 -2.44241 -1.31307 0
M  V30 293 H 31.701 -1.55714 -0.306388 0
M  V30 294 H 31.722 -2.519 -2.85178 0
M  V30 295 H 31.234 -3.62077 -1.39721 0
M  V30 296 H 29.335 -1.92689 -3.18907 0
M  V30 297 H 29.448 -3.79283 -2.92714 0
M  V30 298 H 27.812 -1.95577 -1.63161 0
M  V30 299 H 28.595 -3.35666 -0.719943 0
M  V30 300 N 31.0401 0.771051 -1.3745 0
M  V30 301 C 31.9501 1.91538 -1.35464 0
M  V30 302 C 32.9661 1.72134 -0.254123 0
M  V30 303 O 34.1421 1.95358 -0.489626 0
M  V30 304 C 31.2071 3.26671 -1.16134 0
M  V30 305 C 30.2681 3.58723 -2.35831 0
M  V30 306 C 29.5011 4.87409 -2.17413 0
M  V30 307 O 29.7241 5.58506 -1.15876 0
M  V30 308 O 28.6581 5.18539 -3.05615 0
M  V30 309 H 32.4841 1.96165 -2.31847 0
M  V30 310 H 30.0691 0.9139 -1.18187 0
M  V30 311 H 31.9511 4.07499 -1.07345 0
M  V30 312 H 30.6261 3.22894 -0.228251 0
M  V30 313 H 29.5331 2.78127 -2.50192 0
M  V30 314 H 30.8661 3.67243 -3.27709 0
M  V30 315 N 32.5182 1.22032 0.997298 0
M  V30 316 C 33.7642 1.04376 1.73878 0
M  V30 317 C 34.0972 -0.420716 1.89588 0
M  V30 318 O 33.3722 -1.31202 1.43583 0
M  V30 319 C 33.6552 1.75047 3.14691 0
M  V30 320 C 33.5082 3.29062 3.06656 0
M  V30 321 C 34.8272 1.49928 4.13775 0
M  V30 322 H 31.9462 0.380578 0.631133 0
M  V30 323 H 34.5882 1.50312 1.16217 0
M  V30 324 H 32.7382 1.35996 3.63919 0
M  V30 325 H 34.4102 3.7753 2.65083 0
M  V30 326 H 32.6532 3.58967 2.43568 0
M  V30 327 H 33.3242 3.73683 4.06282 0
M  V30 328 H 35.8002 1.83842 3.73285 0
M  V30 329 H 34.6762 2.01878 5.10428 0
M  V30 330 H 34.9372 0.430929 4.39995 0
M  V30 331 N 33.9963 -1.19345 1.0293 0
M  V30 332 C 35.2443 -1.88665 0.724574 0
M  V30 333 C 35.5653 -1.80036 -0.749144 0
M  V30 334 O 34.8353 -1.2111 -1.53978 0
M  V30 335 H 33.4153 -0.698406 0.265025 0
M  V30 336 H 36.0773 -1.44885 1.30362 0
M  V30 337 H 35.1733 -2.94987 1.01926 0
M  V30 338 N 35.4744 -0.807222 -1.35358 0
M  V30 339 C 36.6994 -0.399309 -2.0352 0
M  V30 340 C 37.1244 0.981986 -1.60433 0
M  V30 341 O 36.4824 1.63601 -0.781299 0
M  V30 342 C 36.5304 -0.491552 -3.57234 0
M  V30 343 O 35.6344 0.494754 -4.09421 0
M  V30 344 H 34.9754 -0.166682 -0.642739 0
M  V30 345 H 37.5054 -1.09328 -1.72941 0
M  V30 346 H 37.5154 -0.361588 -4.06395 0
M  V30 347 H 36.1904 -1.49907 -3.87944 0
M  V30 348 H 34.7674 0.324977 -3.71481 0
M  V30 349 N 36.9525 1.47285 -0.560781 0
M  V30 350 C 38.3635 1.86258 -0.128343 0
M  V30 351 C 38.7145 1.46699 1.30284 0
M  V30 352 O 37.8395 0.871698 1.98067 0
M  V30 353 C 38.4345 3.38044 -0.22614 0
M  V30 354 C 36.9935 3.76096 0.151283 0
M  V30 355 C 36.1405 2.71335 -0.572084 0
M  V30 356 H 39.0915 1.38752 -0.770297 0
M  V30 357 H 39.1125 3.76441 0.554322 0
M  V30 358 H 38.6245 3.66806 -1.26788 0
M  V30 359 H 36.7255 3.52951 1.19399 0
M  V30 360 H 36.8385 4.78641 -0.209765 0
M  V30 361 H 35.2025 2.54696 -0.0147653 0
M  V30 362 H 35.9855 3.02938 -1.61504 0
M  V30 363 N 38.4306 0.297415 1.54768 0
M  V30 364 C 39.3606 -0.573494 2.26348 0
M  V30 365 C 40.3416 -1.14085 1.26169 0
M  V30 366 O 41.5266 -1.17086 1.54934 0
M  V30 367 C 38.6566 -1.74716 3.00153 0
M  V30 368 C 37.6106 -1.31032 4.07449 0
M  V30 369 C 36.9366 -2.56887 4.68949 0
M  V30 370 C 38.2366 -0.444183 5.20408 0
M  V30 371 H 39.9306 0.0235131 2.99391 0
M  V30 372 H 37.4766 0.0127488 1.43994 0
M  V30 373 H 39.4296 -2.3625 3.48947 0
M  V30 374 H 38.1536 -2.37035 2.24682 0
M  V30 375 H 36.8126 -0.718066 3.59499 0
M  V30 376 H 36.4606 -3.17512 3.90122 0
M  V30 377 H 36.1606 -2.2836 5.41411 0
M  V30 378 H 37.6846 -3.19229 5.20505 0
M  V30 379 H 39.0986 -0.9651 5.65118 0
M  V30 380 H 37.4956 -0.252846 5.99567 0
M  V30 381 H 38.5656 0.531609 4.81977 0
M  V30 382 N 39.9087 -1.5758 0.0250728 0
M  V30 383 C 40.8387 -2.13007 -0.956575 0
M  V30 384 C 41.8197 -1.0452 -1.342 0
M  V30 385 O 43.0047 -1.32332 -1.42133 0
M  V30 386 C 40.1347 -2.65386 -2.24026 0
M  V30 387 C 39.0887 -3.78623 -1.99571 0
M  V30 388 C 38.4147 -4.17414 -3.3417 0
M  V30 389 C 39.7147 -5.04867 -1.33814 0
M  V30 390 H 41.4087 -2.9528 -0.494991 0
M  V30 391 H 38.9547 -1.42042 -0.236651 0
M  V30 392 H 40.9077 -3.02794 -2.93076 0
M  V30 393 H 39.6317 -1.80268 -2.72343 0
M  V30 394 H 38.2907 -3.41646 -1.32941 0
M  V30 395 H 37.9387 -3.29284 -3.80238 0
M  V30 396 H 37.6387 -4.93719 -3.18615 0
M  V30 397 H 39.1627 -4.57402 -4.04495 0
M  V30 398 H 40.5767 -5.39888 -1.92857 0
M  V30 399 H 38.9737 -5.86144 -1.28669 0
M  V30 400 H 40.0437 -4.83904 -0.310561 0
M  V30 401 N 41.3868 0.248026 -1.55636 0
M  V30 402 C 42.6268 0.983592 -1.79178 0
M  V30 403 C 42.9908 1.82567 -0.594414 0
M  V30 404 O 44.1918 2.59292 -0.708583 0
M  V30 405 C 42.4628 1.82228 -3.07454 0
M  V30 406 S 44.0218 2.61709 -3.52213 0
M  V30 407 H 40.8398 0.330866 -0.629324 0
M  V30 408 H 43.4418 0.251562 -1.93875 0
M  V30 409 H 42.1458 1.19333 -3.92668 0
M  V30 410 H 41.6768 2.59708 -2.95492 0
M  V30 411 H 43.6918 3.84655 -3.13457 0
M  V30 412 N 42.8649 1.48995 0.513639 0
M  V30 413 C 44.2809 1.35478 0.843682 0
M  V30 414 C 44.4809 0.378213 1.97919 0
M  V30 415 O 43.5369 -0.194689 2.51748 0
M  V30 416 C 44.8499 2.75901 1.1958 0
M  V30 417 C 46.3979 2.84509 1.30474 0
M  V30 418 C 46.8729 4.25671 1.69021 0
M  V30 419 N 48.3639 4.28422 1.76094 0
M  V30 420 C 49.0989 5.34601 2.07338 0
M  V30 421 N 48.5949 6.5104 2.36894 0
M  V30 422 N 50.3879 5.22007 2.08483 0
M  V30 423 H 42.5389 2.11092 -0.235328 0
M  V30 424 H 44.8019 0.947039 -0.0426669 0
M  V30 425 H 44.5079 3.49001 0.434913 0
M  V30 426 H 44.3819 3.10467 2.1422 0
M  V30 427 H 46.7689 2.11655 2.05637 0
M  V30 428 H 46.8499 2.53542 0.339155 0
M  V30 429 H 46.4939 4.99048 0.944135 0
M  V30 430 H 46.4239 4.54094 2.66658 0
M  V30 431 H 48.9149 3.44441 1.55464 0
M  V30 432 H 49.2279 7.2779 2.59887 0
M  V30 433 H 47.5729 6.54287 2.34378 0
M  V30 434 H 50.7639 4.30051 1.84861 0
M  V30 435 H 50.9369 6.04854 2.325 0
M  V30 436 N 44.343 -0.763751 1.37857 0
M  V30 437 C 45.754 -1.3405 1.29952 0
M  V30 438 C 46.105 -1.96138 -0.0492898 0
M  V30 439 O 45.23 -1.94372 -0.951239 0
M  V30 440 C 45.825 -2.43729 2.35333 0
M  V30 441 C 44.384 -2.97151 2.31037 0
M  V30 442 C 43.531 -1.70438 2.18738 0
M  V30 443 H 46.482 -0.563396 1.48363 0
M  V30 444 H 46.503 -3.23412 2.00462 0
M  V30 445 H 46.015 -1.9851 3.33489 0
M  V30 446 H 44.116 -3.46724 1.3643 0
M  V30 447 H 44.229 -3.52221 3.24772 0
M  V30 448 H 42.593 -1.93673 1.65418 0
M  V30 449 H 43.376 -1.27312 3.18821 0
M  V30 450 N 45.8211 -1.22559 -0.990812 0
M  V30 451 C 46.7841 -0.998863 -2.0629 0
M  V30 452 C 47.7841 0.0354834 -1.60761 0
M  V30 453 O 48.9741 -0.203231 -1.7301 0
M  V30 454 C 46.1061 -0.509203 -3.37076 0
M  V30 455 H 47.2991 -1.95014 -2.27837 0
M  V30 456 H 44.8521 -1.04456 -1.16269 0
M  V30 457 H 45.5871 0.446335 -3.21214 0
M  V30 458 H 45.3721 -1.25547 -3.71457 0
M  V30 459 H 46.8621 -0.370888 -4.1595 0
M  V30 460 N 47.2992 1.18797 -1.03562 0
M  V30 461 C 48.2622 2.20464 -0.626769 0
M  V30 462 C 49.2622 1.57721 0.313173 0
M  V30 463 O 50.4522 1.73917 0.0992615 0
M  V30 464 C 47.5842 3.40802 0.0818498 0
M  V30 465 H 48.7772 2.58149 -1.5264 0
M  V30 466 H 46.3302 1.32593 -0.827578 0
M  V30 467 H 47.0652 3.08642 0.995518 0
M  V30 468 H 46.8502 3.8758 -0.593652 0
M  V30 469 H 48.3402 4.16092 0.354584 0
M  V30 470 N 48.7773 0.814389 1.34928 0
M  V30 471 C 50.0253 0.397636 1.9815 0
M  V30 472 C 50.3463 -1.04069 1.64908 0
M  V30 473 O 49.6163 -1.72121 0.93548 0
M  V30 474 H 48.1963 0.144043 0.732981 0
M  V30 475 H 50.8583 1.04195 1.6471 0
M  V30 476 H 49.9543 0.509688 3.0791 0
M  V30 477 N 50.2554 -1.46986 0.568584 0
M  V30 478 C 51.6664 -1.86188 0.138219 0
M  V30 479 C 52.0174 -1.47388 -1.29504 0
M  V30 480 O 51.1424 -0.88219 -1.97602 0
M  V30 481 C 51.7374 -3.3792 0.244065 0
M  V30 482 C 50.2964 -3.76171 -0.131335 0
M  V30 483 C 49.4434 -2.71027 0.586465 0
M  V30 484 H 52.3944 -1.38342 0.777645 0
M  V30 485 H 52.4154 -3.76729 -0.534351 0
M  V30 486 H 51.9274 -3.66128 1.28731 0
M  V30 487 H 50.0284 -3.5358 -1.17526 0
M  V30 488 H 50.1414 -4.78523 0.235146 0
M  V30 489 H 48.5054 -2.54684 0.0282722 0
M  V30 490 H 49.2884 -3.02077 1.63109 0
M  V30 491 N 51.7335 -0.305618 -1.54608 0
M  V30 492 C 52.9805 0.302298 -2.00231 0
M  V30 493 C 53.3085 1.5354 -1.19398 0
M  V30 494 O 52.5635 1.93973 -0.259423 0
M  V30 495 C 52.8625 0.698983 -3.50498 0
M  V30 496 C 52.5285 -0.432903 -4.48817 0
M  V30 497 C 51.1905 -0.743622 -4.75419 0
M  V30 498 C 53.5425 -1.19409 -5.07337 0
M  V30 499 C 50.8705 -1.81857 -5.57804 0
M  V30 500 C 53.2225 -2.25899 -5.90891 0
M  V30 501 C 51.8865 -2.57572 -6.15803 0
M  V30 502 H 51.1565 0.110619 -0.732697 0
M  V30 503 H 53.8035 -0.425674 -1.86709 0
M  V30 504 H 52.1085 1.50711 -3.61654 0
M  V30 505 H 53.8055 1.1806 -3.83227 0
M  V30 506 H 50.3955 -0.18063 -4.28219 0
M  V30 507 H 54.5795 -0.967295 -4.86782 0
M  V30 508 H 49.8355 -2.06864 -5.75341 0
M  V30 509 H 54.0095 -2.85335 -6.35261 0
M  V30 510 H 51.6365 -3.40998 -6.7943 0
M  V30 511 N 53.2116 1.57565 -0.0334293 0
M  V30 512 C 54.6226 1.79746 0.504798 0
M  V30 513 C 54.9736 0.944091 1.71992 0
M  V30 514 O 54.0986 0.155694 2.15839 0
M  V30 515 C 54.6936 3.25997 0.922567 0
M  V30 516 C 53.2526 3.49159 1.40588 0
M  V30 517 C 52.3996 2.74785 0.372633 0
M  V30 518 H 55.3506 1.56565 -0.259436 0
M  V30 519 H 55.3716 3.35945 1.78666 0
M  V30 520 H 54.8836 3.88081 0.0379825 0
M  V30 521 H 52.9846 2.92332 2.31025 0
M  V30 522 H 53.0976 4.57873 1.41028 0
M  V30 523 H 51.4616 2.40391 0.841672 0
M  V30 524 H 52.2446 3.39587 -0.503559 0
M  V30 525 N 54.6897 -0.239769 1.55765 0
M  V30 526 C 55.9377 -0.964892 1.77579 0
M  V30 527 C 56.2587 -1.85582 0.598699 0
M  V30 528 O 55.5287 -1.92075 -0.385226 0
M  V30 529 H 54.1087 -0.359265 0.654933 0
M  V30 530 H 56.7707 -0.256001 1.93211 0
M  V30 531 H 55.8667 -1.58243 2.69009 0
M  V30 532 N 56.1678 -1.49265 -0.50573 0
M  V30 533 C 57.3928 -1.62478 -1.28902 0
M  V30 534 C 57.8178 -0.294332 -1.85783 0
M  V30 535 O 57.1758 0.737412 -1.65626 0
M  V30 536 C 57.2238 -2.69268 -2.39848 0
M  V30 537 O 56.3278 -2.28113 -3.43567 0
M  V30 538 H 55.6688 -0.54399 -0.380751 0
M  V30 539 H 58.1988 -1.95421 -0.605952 0
M  V30 540 H 58.2088 -2.91291 -2.85681 0
M  V30 541 H 56.8838 -3.65846 -1.97812 0
M  V30 542 H 55.4608 -2.16401 -3.03685 0
M  V30 543 N 57.6459 0.756429 -1.3826 0
M  V30 544 C 58.5779 1.87971 -1.31147 0
M  V30 545 C 59.5909 1.61248 -0.224239 0
M  V30 546 O 60.7799 1.71881 -0.481581 0
M  V30 547 C 57.8799 3.23545 -1.00857 0
M  V30 548 C 57.0529 3.77794 -2.20432 0
M  V30 549 C 56.1119 4.91877 -1.86931 0
M  V30 550 O 55.1379 5.06659 -2.59395 0
M  V30 551 N 56.3399 5.74643 -0.822568 0
M  V30 552 H 59.1049 1.94585 -2.2794 0
M  V30 553 H 56.6659 0.936234 -1.32084 0
M  V30 554 H 58.6579 3.97403 -0.765021 0
M  V30 555 H 57.2279 3.12335 -0.128687 0
M  V30 556 H 56.4479 2.95534 -2.6087 0
M  V30 557 H 57.7359 4.10771 -3.00241 0
M  V30 558 H 57.1339 5.65266 -0.221575 0
M  V30 559 H 55.6909 6.48661 -0.638899 0
M  V30 560 N 59.124 1.23083 0.984299 0
M  V30 561 C 60.352 1.08714 1.76037 0
M  V30 562 C 60.767 -0.361691 1.85303 0
M  V30 563 O 60.124 -1.25034 1.32939 0
M  V30 564 C 60.175 1.70206 3.18923 0
M  V30 565 O 59.896 3.09423 3.10144 0
M  V30 566 C 61.397 1.61227 4.12941 0
M  V30 567 H 58.617 0.380664 0.552572 0
M  V30 568 H 61.161 1.62853 1.23689 0
M  V30 569 H 59.316 1.20109 3.6831 0
M  V30 570 H 59.73 3.39188 4.00065 0
M  V30 571 H 61.204 2.08962 5.10919 0
M  V30 572 H 61.681 0.570375 4.35481 0
M  V30 573 H 62.287 2.10671 3.69456 0
M  V30 574 N 60.6021 -1.18246 1.0419 0
M  V30 575 C 61.8271 -1.92736 0.765996 0
M  V30 576 C 62.2521 -1.75728 -0.67091 0
M  V30 577 O 61.6101 -1.06825 -1.46486 0
M  V30 578 C 61.6581 -3.42148 1.13875 0
M  V30 579 O 60.7621 -4.11548 0.264954 0
M  V30 580 H 60.1031 -0.601238 0.281797 0
M  V30 581 H 62.6331 -1.49942 1.39207 0
M  V30 582 H 62.6431 -3.92858 1.1012 0
M  V30 583 H 61.3181 -3.53848 2.18551 0
M  V30 584 H 59.8951 -3.71137 0.362226 0
M  V30 585 N 62.0802 -0.821533 -1.34494 0
M  V30 586 C 63.3572 -0.33159 -1.92769 0
M  V30 587 C 63.7372 1.18088 -1.74981 0
M  V30 588 O 63.0852 1.98733 -1.12772 0
M  V30 589 C 63.2952 -0.759398 -3.40638 0
M  V30 590 C 64.6432 -0.757433 -4.1779 0
M  V30 591 O 65.6672 -0.70189 -3.49216 0
M  V30 592 O 64.5262 -0.829361 -5.4017 0
M  V30 593 H 61.6202 -0.0902502 -0.822061 0
M  V30 594 H 64.1662 -0.906231 -1.43477 0
M  V30 595 H 62.9382 -1.8012 -3.47379 0
M  V30 596 H 62.5612 -0.160378 -3.97276 0
M  V30 597 N 63.5583 1.46682 -0.576371 0
M  V30 598 C 64.7863 2.06798 -0.0649635 0
M  V30 599 C 65.2013 1.42612 1.23723 0
M  V30 600 O 64.5583 0.529203 1.74659 0
M  V30 601 C 64.6093 3.6132 0.114202 0
M  V30 602 O 64.3303 4.23104 -1.13644 0
M  V30 603 C 65.8313 4.38349 0.66069 0
M  V30 604 H 63.0513 0.668778 -0.0545616 0
M  V30 605 H 65.5953 1.88404 -0.795237 0
M  V30 606 H 63.7503 3.79162 0.794673 0
M  V30 607 H 64.1643 5.15894 -0.946253 0
M  V30 608 H 65.6383 5.47081 0.73526 0
M  V30 609 H 66.1153 4.05953 1.67627 0
M  V30 610 H 66.7213 4.25297 0.0152951 0
M  V30 611 N 65.0364 0.313813 1.54444 0
M  V30 612 C 65.9664 -0.549454 2.26943 0
M  V30 613 C 66.9474 -1.12741 1.27372 0
M  V30 614 O 68.1324 -1.15436 1.56167 0
M  V30 615 C 65.2624 -1.71523 3.01989 0
M  V30 616 C 64.2164 -1.26703 4.08816 0
M  V30 617 C 63.5424 -2.51898 4.71647 0
M  V30 618 C 64.8424 -0.388962 5.2085 0
M  V30 619 H 66.5364 0.0552661 2.99349 0
M  V30 620 H 64.0824 0.0280207 1.43973 0
M  V30 621 H 66.0354 -2.32535 3.51433 0
M  V30 622 H 64.7594 -2.34639 2.27183 0
M  V30 623 H 63.4184 -0.679896 3.6024 0
M  V30 624 H 63.0664 -3.13356 3.93468 0
M  V30 625 H 62.7664 -2.22605 5.43802 0
M  V30 626 H 64.2904 -3.1369 5.23861 0
M  V30 627 H 65.7044 -0.905107 5.6611 0
M  V30 628 H 64.1014 -0.18924 5.99802 0
M  V30 629 H 65.1714 0.582699 4.81386 0
M  V30 630 N 66.5145 -1.57545 0.0417849 0
M  V30 631 C 67.9255 -1.80011 -0.495259 0
M  V30 632 C 68.2765 -0.953199 -1.71489 0
M  V30 633 O 67.4015 -0.167138 -2.15754 0
M  V30 634 C 67.9965 -3.26482 -0.905265 0
M  V30 635 C 66.5555 -3.499 -1.38734 0
M  V30 636 C 65.7025 -2.74979 -0.358056 0
M  V30 637 H 68.6535 -1.56425 0.267736 0
M  V30 638 H 68.6745 -3.36887 -1.76882 0
M  V30 639 H 68.1865 -3.88096 -0.017401 0
M  V30 640 H 66.2875 -2.93553 -2.29471 0
M  V30 641 H 66.4005 -4.58615 -1.38598 0
M  V30 642 H 64.7645 -2.40834 -0.828912 0
M  V30 643 H 65.5475 -3.39315 0.521561 0
M  V30 644 N 67.9926 0.231505 -1.5589 0
M  V30 645 C 68.9026 1.308 -1.94752 0
M  V30 646 C 69.9186 1.51826 -0.849989 0
M  V30 647 O 71.0946 1.6515 -1.15271 0
M  V30 648 C 68.1596 2.63968 -2.24771 0
M  V30 649 C 67.2206 2.51331 -3.48039 0
M  V30 650 C 66.4536 3.78148 -3.76616 0
M  V30 651 O 66.6766 4.80722 -3.07022 0
M  V30 652 O 65.6106 3.75857 -4.70123 0
M  V30 653 H 69.4366 1.0083 -2.86474 0
M  V30 654 H 67.0216 0.433547 -1.42971 0
M  V30 655 H 68.9036 3.42633 -2.45318 0
M  V30 656 H 67.5786 2.9364 -1.36225 0
M  V30 657 H 66.4856 1.709 -3.32782 0
M  V30 658 H 67.8186 2.26601 -4.36936 0
M  V30 659 N 69.4707 1.49531 0.497807 0
M  V30 660 C 70.7167 1.59415 1.25358 0
M  V30 661 C 71.0497 0.281422 1.9215 0
M  V30 662 O 70.3247 -0.715249 1.80871 0
M  V30 663 C 70.6077 2.75566 2.3181 0
M  V30 664 C 70.4607 4.16642 1.69498 0
M  V30 665 C 71.7797 2.87347 3.33346 0
M  V30 666 H 68.8987 0.580244 0.454408 0
M  V30 667 H 71.5407 1.81827 0.551262 0
M  V30 668 H 69.6907 2.56587 2.91711 0
M  V30 669 H 71.3627 4.47145 1.13399 0
M  V30 670 H 69.6057 4.22141 0.998978 0
M  V30 671 H 70.2767 4.93792 2.46725 0
M  V30 672 H 72.7527 3.04634 2.83438 0
M  V30 673 H 71.6287 3.70289 4.05188 0
M  V30 674 H 71.8897 1.96834 3.95865 0
M  V30 675 N 70.9488 -0.749086 1.3866 0
M  V30 676 C 72.1738 -1.54344 1.38538 0
M  V30 677 C 72.5988 -1.88088 -0.0216655 0
M  V30 678 O 71.9568 -1.50899 -1.00494 0
M  V30 679 C 72.0048 -2.8164 2.25192 0
M  V30 680 O 71.1088 -3.7698 1.67212 0
M  V30 681 H 70.4498 -0.466654 0.472367 0
M  V30 682 H 72.9798 -0.925355 1.82478 0
M  V30 683 H 72.9898 -3.30519 2.3921 0
M  V30 684 H 71.6648 -2.56411 3.27454 0
M  V30 685 H 70.2418 -3.35699 1.6236 0
M  V30 686 N 72.4269 -1.23603 -0.977757 0
M  V30 687 C 73.3899 -1.02069 -2.05218 0
M  V30 688 C 74.3899 0.0184305 -1.60789 0
M  V30 689 O 75.5799 -0.221569 -1.72785 0
M  V30 690 C 72.7119 -0.544926 -3.36517 0
M  V30 691 H 73.9049 -1.9742 -2.25755 0
M  V30 692 H 71.4579 -1.05684 -1.15155 0
M  V30 693 H 72.1929 0.412241 -3.21669 0
M  V30 694 H 71.9779 -1.2948 -3.70105 0
M  V30 695 H 73.4679 -0.414985 -4.15533 0
M  V30 696 N 73.905 1.17692 -1.04816 0
M  V30 697 C 75.154 1.87192 -0.751132 0
M  V30 698 C 75.467 1.8169 0.724441 0
M  V30 699 O 76.673 2.46625 1.13527 0
M  V30 700 C 75.129 3.35857 -1.29338 0
M  V30 701 C 74.737 3.4987 -2.79812 0
M  V30 702 C 76.481 4.10709 -1.07322 0
M  V30 703 C 74.388 4.92536 -3.27356 0
M  V30 704 H 73.318 0.701162 -0.277288 0
M  V30 705 H 75.969 1.32932 -1.26496 0
M  V30 706 H 74.351 3.89631 -0.707376 0
M  V30 707 H 75.525 3.06332 -3.44235 0
M  V30 708 H 73.84 2.88433 -3.00325 0
M  V30 709 H 76.437 5.15952 -1.4035 0
M  V30 710 H 76.78 4.16299 -0.0108001 0
M  V30 711 H 77.313 3.6313 -1.62423 0
M  V30 712 H 74.052 4.92119 -4.33012 0
M  V30 713 H 73.572 5.3676 -2.67673 0
M  V30 714 H 75.251 5.61288 -3.21815 0
M  V30 715 N 75.3831 0.828654 1.34056 0
M  V30 716 C 76.7941 0.477534 1.8049 0
M  V30 717 C 77.1451 -1.00258 1.6865 0
M  V30 718 O 76.2701 -1.78057 1.22982 0
M  V30 719 C 76.8651 0.860018 3.27703 0
M  V30 720 C 75.4241 0.561185 3.72193 0
M  V30 721 C 74.5711 1.07385 2.55663 0
M  V30 722 H 77.5221 1.0183 1.21722 0
M  V30 723 H 77.5431 0.166038 3.80138 0
M  V30 724 H 77.0551 1.93731 3.36288 0
M  V30 725 H 75.1561 -0.506465 3.69142 0
M  V30 726 H 75.2691 1.10926 4.66082 0
M  V30 727 H 73.6331 0.495149 2.49841 0
M  V30 728 H 74.4161 2.15771 2.67016 0
M  V30 729 N 76.8612 -1.46375 0.584142 0
M  V30 730 C 78.1102 -2.01585 0.0679741 0
M  V30 731 C 78.4232 -1.46109 -1.30045 0
M  V30 732 O 79.6292 -1.93148 -1.90804 0
M  V30 733 C 78.0852 -3.5983 0.0709207 0
M  V30 734 C 77.6932 -4.24303 1.43775 0
M  V30 735 C 79.4372 -4.22693 -0.391228 0
M  V30 736 C 77.3442 -5.74631 1.39834 0
M  V30 737 H 76.2742 -0.753689 0.0216421 0
M  V30 738 H 78.9252 -1.68093 0.736001 0
M  V30 739 H 77.3072 -3.90405 -0.663299 0
M  V30 740 H 78.4812 -4.05335 2.19181 0
M  V30 741 H 76.7962 -3.73539 1.84004 0
M  V30 742 H 79.3932 -5.3289 -0.439524 0
M  V30 743 H 79.7362 -3.91728 -1.40906 0
M  V30 744 H 80.2692 -3.96749 0.288974 0
M  V30 745 H 77.0082 -6.10258 2.39303 0
M  V30 746 H 76.5282 -5.95858 0.686505 0
M  V30 747 H 78.2072 -6.37375 1.11187 0
M  V30 748 N 78.3393 -0.321999 -1.54275 0
M  V30 749 C 79.5643 0.285791 -2.05422 0
M  V30 750 C 79.9893 1.45124 -1.19669 0
M  V30 751 O 79.3473 1.80132 -0.205441 0
M  V30 752 C 79.3953 0.69956 -3.53749 0
M  V30 753 O 78.4993 1.8021 -3.70942 0
M  V30 754 H 77.8403 0.0518962 -0.661969 0
M  V30 755 H 80.3703 -0.469954 -1.9913 0
M  V30 756 H 80.3803 0.982649 -3.9599 0
M  V30 757 H 79.0553 -0.152864 -4.15619 0
M  V30 758 H 77.6323 1.51794 -3.40607 0
M  V30 759 N 79.8174 1.5752 -0.0501392 0
M  V30 760 C 80.7474 2.14502 0.922566 0
M  V30 761 C 81.7284 1.06642 1.3252 0
M  V30 762 O 82.9134 1.34577 1.4001 0
M  V30 763 C 80.0434 2.68916 2.19776 0
M  V30 764 C 78.9974 3.8175 1.93523 0
M  V30 765 C 78.3234 4.22677 3.27487 0
M  V30 766 C 79.6234 5.06932 1.25765 0
M  V30 767 H 81.3174 2.9603 0.447952 0
M  V30 768 H 78.8634 1.42401 0.214024 0
M  V30 769 H 80.8164 3.07419 2.88222 0
M  V30 770 H 79.5404 1.84578 2.69441 0
M  V30 771 H 78.1994 3.43718 1.27489 0
M  V30 772 H 77.8474 3.35291 3.74952 0
M  V30 773 H 77.5474 4.98725 3.1072 0
M  V30 774 H 79.0714 4.63779 3.97166 0
M  V30 775 H 80.4854 5.42888 1.84244 0
M  V30 776 H 78.8824 5.88116 1.19328 0
M  V30 777 H 79.9524 4.84337 0.233536 0
M  V30 778 N 81.2955 -0.223234 1.56011 0
M  V30 779 C 82.5725 -0.972108 1.69733 0
M  V30 780 C 82.9525 -2.02485 0.59691 0
M  V30 781 O 82.3005 -2.25037 -0.396324 0
M  V30 782 C 82.5105 -1.58407 3.10979 0
M  V30 783 C 83.8585 -2.07696 3.70334 0
M  V30 784 O 84.8825 -1.68304 3.1393 0
M  V30 785 O 83.7415 -2.80096 4.69264 0
M  V30 786 H 80.8355 -0.453993 0.691245 0
M  V30 787 H 83.3815 -0.215149 1.68331 0
M  V30 788 H 82.1535 -0.823831 3.82529 0
M  V30 789 H 81.7765 -2.40661 3.16493 0
M  V30 790 N 82.7736 -1.49793 -0.48987 0
M  V30 791 C 84.0216 -1.59525 -1.24081 0
M  V30 792 C 84.3426 -0.288953 -1.92847 0
M  V30 793 O 83.6126 0.692436 -1.83254 0
M  V30 794 H 82.1926 -0.587796 -0.460983 0
M  V30 795 H 84.8546 -1.86477 -0.566778 0
M  V30 796 H 83.9506 -2.39696 -1.99881 0
M  V30 797 N 84.2517 0.741722 -1.39055 0
M  V30 798 C 85.1817 1.869 -1.39966 0
M  V30 799 C 86.1627 1.6804 -0.26392 0
M  V30 800 O 87.3477 1.88458 -0.468755 0
M  V30 801 C 84.4777 3.24572 -1.23574 0
M  V30 802 C 83.4317 3.58056 -2.34477 0
M  V30 803 C 82.7577 4.94593 -2.0318 0
M  V30 804 C 84.0577 3.61716 -3.76774 0
M  V30 805 H 85.7517 1.86395 -2.34302 0
M  V30 806 H 83.2977 0.895361 -1.1278 0
M  V30 807 H 85.2507 4.031 -1.22834 0
M  V30 808 H 83.9747 3.25587 -0.257045 0
M  V30 809 H 82.6337 2.81854 -2.34423 0
M  V30 810 H 82.2817 4.92181 -1.03765 0
M  V30 811 H 81.9817 5.17964 -2.77465 0
M  V30 812 H 83.5057 5.75486 -2.04079 0
M  V30 813 H 84.9197 4.30335 -3.78794 0
M  V30 814 H 83.3167 3.96603 -4.50362 0
M  V30 815 H 84.3867 2.61672 -4.08235 0
M  V30 816 N 85.7298 1.2412 0.971189 0
M  V30 817 C 86.6598 1.05508 2.08304 0
M  V30 818 C 87.6408 -0.0308864 1.70072 0
M  V30 819 O 88.8258 0.135521 1.93727 0
M  V30 820 C 85.9558 0.655365 3.4106 0
M  V30 821 C 84.9098 1.68971 3.93234 0
M  V30 822 C 84.2358 1.14516 5.22293 0
M  V30 823 C 85.5358 3.08487 4.21465 0
M  V30 824 H 87.2298 1.98507 2.24132 0
M  V30 825 H 84.7758 0.955821 1.07704 0
M  V30 826 H 86.7288 0.51217 4.18276 0
M  V30 827 H 85.4528 -0.31032 3.25122 0
M  V30 828 H 84.1118 1.82106 3.18171 0
M  V30 829 H 83.7598 0.170189 5.02712 0
M  V30 830 H 83.4598 1.83635 5.58168 0
M  V30 831 H 84.9838 1.01401 6.02121 0
M  V30 832 H 86.3978 2.98601 4.89398 0
M  V30 833 H 84.7948 3.74926 4.68562 0
M  V30 834 H 85.8648 3.56787 3.28376 0
M  V30 835 N 87.2079 -1.17134 1.05439 0
M  V30 836 C 88.4549 -1.87456 0.765942 0
M  V30 837 C 88.7829 -1.81189 -0.707153 0
M  V30 838 O 88.0379 -1.21633 -1.5331 0
M  V30 839 C 88.3369 -3.36833 1.19491 0
M  V30 840 C 88.0029 -3.63301 2.67063 0
M  V30 841 C 86.6649 -3.70234 3.07376 0
M  V30 842 C 89.0169 -3.74575 3.62413 0
M  V30 843 C 86.3449 -3.85933 4.41896 0
M  V30 844 C 88.6969 -3.91793 4.9667 0
M  V30 845 C 87.3609 -3.96966 5.36633 0
M  V30 846 H 86.6309 -0.685948 0.280278 0
M  V30 847 H 89.2779 -1.38556 1.32192 0
M  V30 848 H 87.5829 -3.87807 0.557969 0
M  V30 849 H 89.2799 -3.89611 0.948893 0
M  V30 850 H 85.8699 -3.58532 2.34846 0
M  V30 851 H 90.0539 -3.68537 3.32406 0
M  V30 852 H 85.3099 -3.88187 4.72357 0
M  V30 853 H 89.4839 -3.99458 5.70444 0
M  V30 854 H 87.1109 -4.08883 6.40874 0
M  V30 855 N 88.686 -0.835752 -1.33615 0
M  V30 856 C 90.097 -0.487099 -1.80234 0
M  V30 857 C 90.448 0.993627 -1.69179 0
M  V30 858 O 89.573 1.77403 -1.23924 0
M  V30 859 C 90.168 -0.877385 -3.27242 0
M  V30 860 C 88.727 -0.580915 -3.7189 0
M  V30 861 C 87.874 -1.0874 -2.5509 0
M  V30 862 H 90.825 -1.02474 -1.2118 0
M  V30 863 H 90.846 -0.186195 -3.80044 0
M  V30 864 H 90.358 -1.95512 -3.35256 0
M  V30 865 H 88.459 0.486881 -3.69405 0
M  V30 866 H 88.572 -1.13396 -4.65487 0
M  V30 867 H 86.936 -0.508392 -2.49575 0
M  V30 868 H 87.719 -2.17184 -2.65868 0
M  V30 869 N 90.1641 1.46063 -0.591896 0
M  V30 870 C 91.5801 1.57561 -0.254288 0
M  V30 871 C 91.7801 1.58565 1.24336 0
M  V30 872 O 90.8361 1.50753 2.02558 0
M  V30 873 C 92.1491 2.86549 -0.911611 0
M  V30 874 C 93.6971 3.00197 -0.886059 0
M  V30 875 C 94.1721 4.31933 -1.5231 0
M  V30 876 N 95.6631 4.38654 -1.48786 0
M  V30 877 C 96.3981 5.39222 -1.95006 0
M  V30 878 N 95.8941 6.46414 -2.49241 0
M  V30 879 N 97.6871 5.3048 -1.85868 0
M  V30 880 H 89.8381 1.43655 -1.56451 0
M  V30 881 H 92.1011 0.68583 -0.654478 0
M  V30 882 H 91.8071 2.91651 -1.96551 0
M  V30 883 H 91.6811 3.74794 -0.425368 0
M  V30 884 H 94.0681 2.9467 0.159246 0
M  V30 885 H 94.1491 2.13403 -1.41041 0
M  V30 886 H 93.7931 4.38217 -2.56765 0
M  V30 887 H 93.7231 5.17516 -0.973891 0
M  V30 888 H 96.2141 3.61793 -1.09151 0
M  V30 889 H 96.5271 7.19376 -2.82344 0
M  V30 890 H 94.8721 6.47208 -2.53272 0
M  V30 891 H 98.0631 4.45643 -1.43248 0
M  V30 892 H 98.2361 6.08711 -2.22204 0
M  V30 893 N 91.6422 0.330177 1.54103 0
M  V30 894 C 93.0532 -0.15652 1.86043 0
M  V30 895 C 93.4042 -1.51086 1.2517 0
M  V30 896 O 92.5292 -2.09023 0.560217 0
M  V30 897 C 93.1242 -0.290784 3.3755 0
M  V30 898 C 91.6832 -0.721705 3.69416 0
M  V30 899 C 90.8302 0.152622 2.7688 0
M  V30 900 H 93.7812 0.550237 1.48856 0
M  V30 901 H 93.8022 -1.12058 3.63625 0
M  V30 902 H 93.3142 0.695068 3.81825 0
M  V30 903 H 91.4152 -1.71706 3.30678 0
M  V30 904 H 91.5282 -0.520869 4.7626 0
M  V30 905 H 89.8922 -0.372894 2.51956 0
M  V30 906 H 90.6752 1.13536 3.23982 0
M  V30 907 N 93.1203 -1.57491 0.0584922 0
M  V30 908 C 94.3603 -1.94851 -0.617458 0
M  V30 909 C 94.7243 -0.937165 -1.67575 0
M  V30 910 O 95.9253 -1.19795 -2.40629 0
M  V30 911 C 94.1963 -3.36955 -1.19147 0
M  V30 912 S 95.7553 -3.96277 -1.8844 0
M  V30 913 H 92.5733 -0.681539 -0.202547 0
M  V30 914 H 95.1753 -1.95073 0.129176 0
M  V30 915 H 93.8793 -4.08355 -0.409215 0
M  V30 916 H 93.4103 -3.40245 -1.97476 0
M  V30 917 H 95.4253 -3.82099 -3.16568 0
M  V30 918 N 94.5984 0.214957 -1.56127 0
M  V30 919 C 95.5304 1.29004 -1.89448 0
M  V30 920 C 96.5434 1.42716 -0.783326 0
M  V30 921 O 97.7324 1.43496 -1.06166 0
M  V30 922 C 94.8324 2.66482 -2.09381 0
M  V30 923 C 94.0054 2.74633 -3.40434 0
M  V30 924 C 93.0644 3.9317 -3.49719 0
M  V30 925 O 92.0904 3.812 -4.227 0
M  V30 926 N 93.2924 5.07765 -2.81346 0
M  V30 927 H 96.0574 1.00743 -2.82261 0
M  V30 928 H 93.6184 0.40497 -1.56753 0
M  V30 929 H 95.6104 3.44173 -2.12901 0
M  V30 930 H 94.1804 2.87314 -1.23163 0
M  V30 931 H 93.4004 1.83368 -3.48955 0
M  V30 932 H 94.6884 2.77054 -4.26754 0
M  V30 933 H 94.0864 5.20386 -2.21843 0
M  V30 934 H 92.6434 5.83474 -2.90519 0
M  V30 935 N 96.0765 1.50051 0.48192 0
M  V30 936 C 97.3245 1.60181 1.23234 0
M  V30 937 C 97.6455 0.299176 1.92691 0
M  V30 938 O 96.9155 -0.682708 1.83619 0
M  V30 939 H 95.4955 0.590232 0.457859 0
M  V30 940 H 98.1575 1.86775 0.556881 0
M  V30 941 H 97.2535 2.40753 1.98607 0
M  V30 942 N 97.5546 -0.734337 1.39446 0
M  V30 943 C 98.4866 -1.85861 1.34121 0
M  V30 944 C 99.4996 -1.60871 0.249864 0
M  V30 945 O 100.689 -1.71093 0.508865 0
M  V30 946 C 97.7886 -3.21899 1.05991 0
M  V30 947 C 96.9616 -3.74239 2.26415 0
M  V30 948 C 96.0206 -4.88841 1.94733 0
M  V30 949 O 95.0466 -5.02468 2.67422 0
M  V30 950 N 96.2486 -5.73261 0.913884 0
M  V30 951 H 99.0136 -1.90934 2.31007 0
M  V30 952 H 96.5746 -0.915102 1.33557 0
M  V30 953 H 98.5666 -3.96136 0.828147 0
M  V30 954 H 97.1366 -3.12091 0.178361 0
M  V30 955 H 96.3566 -2.91347 2.65539 0
M  V30 956 H 97.6446 -4.05942 3.06738 0
M  V30 957 H 97.0426 -5.64842 0.311476 0
M  V30 958 H 95.5996 -6.47563 0.742015 0
M  V30 959 N 99.0327 -1.24633 -0.964593 0
M  V30 960 C 100.31 -0.995809 -1.68354 0
M  V30 961 C 100.69 0.480964 -2.05548 0
M  V30 962 O 100.038 1.45599 -1.76105 0
M  V30 963 C 100.248 -1.92177 -2.91323 0
M  V30 964 C 101.596 -2.19446 -3.63495 0
M  V30 965 O 102.62 -1.89855 -3.01386 0
M  V30 966 O 101.479 -2.69714 -4.75307 0
M  V30 967 H 98.5727 -0.376854 -0.736146 0
M  V30 968 H 101.119 -1.35745 -1.0184 0
M  V30 969 H 99.8907 -2.91938 -2.60553 0
M  V30 970 H 99.5137 -1.56349 -3.65569 0
M  V30 971 N 100.511 1.16574 -1.06058 0
M  V30 972 C 101.922 1.68662 -0.800632 0
M  V30 973 C 102.273 1.84184 0.67608 0
M  V30 974 O 101.398 1.53568 1.52466 0
M  V30 975 C 101.993 3.06356 -1.44676 0
M  V30 976 C 100.552 3.55575 -1.23465 0
M  V30 977 C 99.6988 2.31616 -1.52477 0
M  V30 978 H 102.65 1.00969 -1.22438 0
M  V30 979 H 102.671 3.70636 -0.860788 0
M  V30 980 H 102.183 2.95027 -2.52152 0
M  V30 981 H 100.284 3.72167 -0.179527 0
M  V30 982 H 100.397 4.37812 -1.94571 0
M  V30 983 H 98.7608 2.36512 -0.945209 0
M  V30 984 H 99.5438 2.22887 -2.61106 0
M  V30 985 N 101.989 0.842826 1.3317 0
M  V30 986 C 103.214 0.453129 2.02389 0
M  V30 987 C 103.639 -0.939105 1.6298 0
M  V30 988 O 102.997 -1.61472 0.8244 0
M  V30 989 C 103.045 0.586094 3.55805 0
M  V30 990 O 102.149 -0.386029 4.10589 0
M  V30 991 H 101.49 0.183664 0.638094 0
M  V30 992 H 104.02 1.13875 1.69981 0
M  V30 993 H 104.03 0.469209 4.05293 0
M  V30 994 H 102.705 1.6014 3.83833 0
M  V30 995 H 101.282 -0.226371 3.72212 0
M  V30 996 N 103.467 -1.45747 0.599634 0
M  V30 997 C 104.744 -1.95585 0.0240846 0
M  V30 998 C 105.124 -1.54217 -1.44154 0
M  V30 999 O 104.472 -0.800903 -2.14004 0
M  V30 1000 C 104.682 -3.48344 0.21385 0
M  V30 1001 C 106.03 -4.24504 0.0904902 0
M  V30 1002 O 107.054 -3.55911 0.143558 0
M  V30 1003 O 105.913 -5.46491 -0.0310766 0
M  V30 1004 H 103.007 -0.82602 -0.0402478 0
M  V30 1005 H 105.553 -1.55951 0.669139 0
M  V30 1006 H 104.325 -3.71397 1.23206 0
M  V30 1007 H 103.948 -3.9485 -0.466842 0
M  V30 1008 N 104.945 -0.338344 -1.53925 0
M  V30 1009 C 105.855 0.529421 -2.28548 0
M  V30 1010 C 106.871 1.11645 -1.3346 0
M  V30 1011 O 108.047 1.13325 -1.66492 0
M  V30 1012 C 105.112 1.66713 -3.03987 0
M  V30 1013 C 104.173 1.11041 -4.14691 0
M  V30 1014 C 103.406 2.19389 -4.86522 0
M  V30 1015 O 103.629 3.40013 -4.57982 0
M  V30 1016 O 102.563 1.83976 -5.73094 0
M  V30 1017 H 106.389 -0.0770399 -3.03602 0
M  V30 1018 H 103.974 -0.103555 -1.49041 0
M  V30 1019 H 105.856 2.32918 -3.5118 0
M  V30 1020 H 104.531 2.25949 -2.31794 0
M  V30 1021 H 103.438 0.413024 -3.71813 0
M  V30 1022 H 104.771 0.562975 -4.8897 0
M  V30 1023 N 106.423 1.57458 -0.0668435 0
M  V30 1024 C 107.37 2.12439 0.902122 0
M  V30 1025 C 108.34 1.03565 1.2986 0
M  V30 1026 O 109.525 1.312 1.38532 0
M  V30 1027 C 106.665 2.6865 2.16614 0
M  V30 1028 C 105.778 3.91663 1.82274 0
M  V30 1029 C 104.913 4.36134 3.0325 0
M  V30 1030 C 103.952 5.51808 2.64904 0
M  V30 1031 N 103.089 5.9126 3.78624 0
M  V30 1032 H 107.929 2.94934 0.426382 0
M  V30 1033 H 105.466 1.4575 0.198819 0
M  V30 1034 H 107.424 2.99346 2.90599 0
M  V30 1035 H 106.054 1.88928 2.61737 0
M  V30 1036 H 105.106 3.6746 0.983719 0
M  V30 1037 H 106.418 4.75693 1.50059 0
M  V30 1038 H 105.572 4.68465 3.85519 0
M  V30 1039 H 104.311 3.50948 3.38655 0
M  V30 1040 H 103.316 5.19133 1.81055 0
M  V30 1041 H 104.541 6.38722 2.30675 0
M  V30 1042 H 102.487 5.09024 4.138 0
M  V30 1043 H 102.404 6.70018 3.5016 0
M  V30 1044 H 103.672 6.28212 4.61486 0
M  V30 1045 N 107.901 -0.206675 1.56239 0
M  V30 1046 C 109.129 -0.945345 1.8404 0
M  V30 1047 C 109.544 -1.77336 0.647885 0
M  V30 1048 O 108.901 -1.78425 -0.383511 0
M  V30 1049 C 108.952 -1.8509 3.10522 0
M  V30 1050 O 108.673 -1.05634 4.25174 0
M  V30 1051 C 110.174 -2.70222 3.51418 0
M  V30 1052 H 107.394 -0.276372 0.61144 0
M  V30 1053 H 109.938 -0.217417 2.03341 0
M  V30 1054 H 108.093 -2.53259 2.93153 0
M  V30 1055 H 108.507 -1.67238 4.97124 0
M  V30 1056 H 109.981 -3.29438 4.42916 0
M  V30 1057 H 110.458 -3.43358 2.73864 0
M  V30 1058 H 111.064 -2.07443 3.71278 0
M  V30 1059 N 109.379 -1.50304 -0.473955 0
M  V30 1060 C 110.311 -1.65109 -1.58971 0
M  V30 1061 C 111.324 -0.532676 -1.53839 0
M  V30 1062 O 112.513 -0.805751 -1.59279 0
M  V30 1063 C 109.613 -1.61684 -2.97845 0
M  V30 1064 C 108.786 -2.8951 -3.27876 0
M  V30 1065 C 107.845 -2.78768 -4.4629 0
M  V30 1066 O 106.871 -3.52722 -4.46739 0
M  V30 1067 N 108.073 -1.9213 -5.47783 0
M  V30 1068 H 110.838 -2.61347 -1.46689 0
M  V30 1069 H 108.399 -1.47732 -0.662324 0
M  V30 1070 H 110.391 -1.52114 -3.75024 0
M  V30 1071 H 108.961 -0.731925 -3.03911 0
M  V30 1072 H 108.181 -3.13228 -2.39336 0
M  V30 1073 H 109.469 -3.74199 -3.4475 0
M  V30 1074 H 108.867 -1.31353 -5.50239 0
M  V30 1075 H 107.424 -1.88466 -6.23958 0
M  V30 1076 N 110.857 0.726932 -1.39834 0
M  V30 1077 C 112.134 1.47902 -1.28001 0
M  V30 1078 C 112.514 2.1083 0.106789 0
M  V30 1079 O 111.862 1.99242 1.11869 0
M  V30 1080 C 112.072 2.52392 -2.41038 0
M  V30 1081 C 113.42 3.18546 -2.80737 0
M  V30 1082 O 114.444 2.62708 -2.40547 0
M  V30 1083 O 113.303 4.19604 -3.50135 0
M  V30 1084 H 110.397 0.657163 -0.502062 0
M  V30 1085 H 112.943 0.760071 -1.51727 0
M  V30 1086 H 111.715 2.04329 -3.33715 0
M  V30 1087 H 111.338 3.31837 -2.19021 0
M  V30 1088 N 112.336 1.25143 0.95797 0
M  V30 1089 C 113.268 1.01023 2.05735 0
M  V30 1090 C 114.281 -0.0236902 1.62783 0
M  V30 1091 O 115.47 0.21448 1.77207 0
M  V30 1092 C 112.57 0.504595 3.35122 0
M  V30 1093 C 111.743 1.6039 4.06932 0
M  V30 1094 C 110.802 1.09922 5.14591 0
M  V30 1095 O 109.828 1.79293 5.40225 0
M  V30 1096 N 111.03 -0.0612545 5.80468 0
M  V30 1097 H 113.795 1.95683 2.26998 0
M  V30 1098 H 111.356 1.16303 1.12629 0
M  V30 1099 H 113.348 0.151516 4.04416 0
M  V30 1100 H 111.918 -0.347989 3.10657 0
M  V30 1101 H 111.138 2.12872 3.31782 0
M  V30 1102 H 112.426 2.34252 4.51667 0
M  V30 1103 H 111.824 -0.640985 5.62057 0
M  V30 1104 H 110.381 -0.355395 6.5083 0
M  V30 1105 N 113.814 -1.1601 1.06675 0
M  V30 1106 C 114.746 -2.20115 0.638921 0
M  V30 1107 C 115.759 -1.59916 -0.305057 0
M  V30 1108 O 116.948 -1.78245 -0.0954446 0
M  V30 1109 C 114.048 -3.38798 -0.0830083 0
M  V30 1110 C 113.221 -4.2855 0.875426 0
M  V30 1111 C 112.28 -5.25849 0.192042 0
M  V30 1112 O 111.306 -5.63102 0.830921 0
M  V30 1113 N 112.508 -5.70648 -1.06493 0
M  V30 1114 H 115.273 -2.57439 1.53444 0
M  V30 1115 H 112.834 -1.31057 0.950557 0
M  V30 1116 H 114.826 -4.00936 -0.550685 0
M  V30 1117 H 113.396 -2.99947 -0.880386 0
M  V30 1118 H 112.616 -3.63617 1.52238 0
M  V30 1119 H 113.904 -4.85393 1.52548 0
M  V30 1120 H 113.302 -5.42482 -1.60405 0
M  V30 1121 H 111.859 -6.34859 -1.47641 0
M  V30 1122 N 115.292 -0.849877 -1.32721 0
M  V30 1123 C 116.517 -0.463856 -2.02146 0
M  V30 1124 C 116.942 0.930449 -1.63476 0
M  V30 1125 O 116.3 1.61033 -0.832952 0
M  V30 1126 C 116.348 -0.604955 -3.55489 0
M  V30 1127 O 115.452 0.36425 -4.10788 0
M  V30 1128 H 114.793 -0.187046 -0.637111 0
M  V30 1129 H 117.323 -1.14775 -1.69375 0
M  V30 1130 H 117.333 -0.490696 -4.05038 0
M  V30 1131 H 116.008 -1.62174 -3.82978 0
M  V30 1132 H 114.585 0.206628 -3.72327 0
M  V30 1133 N 116.77 1.45427 -0.607355 0
M  V30 1134 C 117.7 2.3329 0.0989352 0
M  V30 1135 C 118.681 1.46816 0.859007 0
M  V30 1136 O 119.866 1.75588 0.829604 0
M  V30 1137 C 116.996 3.29518 1.09705 0
M  V30 1138 C 115.95 4.25626 0.450206 0
M  V30 1139 C 115.276 5.11542 1.55655 0
M  V30 1140 C 116.576 5.18505 -0.628455 0
M  V30 1141 H 118.27 2.92595 -0.634716 0
M  V30 1142 H 115.816 1.40696 -0.306681 0
M  V30 1143 H 117.769 3.89855 1.59971 0
M  V30 1144 H 116.493 2.68372 1.86129 0
M  V30 1145 H 115.152 3.66586 -0.0315886 0
M  V30 1146 H 114.8 4.46765 2.31107 0
M  V30 1147 H 114.5 5.76647 1.12925 0
M  V30 1148 H 116.024 5.74748 2.06148 0
M  V30 1149 H 117.438 5.72916 -0.209877 0
M  V30 1150 H 115.835 5.92085 -0.977489 0
M  V30 1151 H 116.905 4.60948 -1.50514 0
M  V30 1152 N 118.248 0.346503 1.53744 0
M  V30 1153 C 119.473 -0.253074 2.0585 0
M  V30 1154 C 119.898 -1.43202 1.21962 0
M  V30 1155 O 119.256 -1.79783 0.234073 0
M  V30 1156 C 119.304 -0.643193 3.54817 0
M  V30 1157 O 118.408 -1.74286 3.73762 0
M  V30 1158 H 117.749 -0.0413583 0.662711 0
M  V30 1159 H 120.279 0.501574 1.98357 0
M  V30 1160 H 120.289 -0.919526 3.97503 0
M  V30 1161 H 118.964 0.218966 4.15323 0
M  V30 1162 H 117.541 -1.46356 3.42979 0
M  V30 1163 N 119.726 -1.57421 0.075193 0
M  V30 1164 C 121.003 -1.85029 -0.634329 0
M  V30 1165 C 121.383 -0.968305 -1.87582 0
M  V30 1166 O 120.731 -0.0354749 -2.28472 0
M  V30 1167 C 120.941 -3.35286 -0.968742 0
M  V30 1168 C 122.289 -4.02875 -1.34077 0
M  V30 1169 O 123.313 -3.40051 -1.06037 0
M  V30 1170 O 122.172 -5.13691 -1.86506 0
M  V30 1171 H 119.266 -0.7645 -0.315387 0
M  V30 1172 H 121.812 -1.69366 0.106382 0
M  V30 1173 H 120.584 -3.91203 -0.0871376 0
M  V30 1174 H 120.207 -3.56223 -1.7661 0
M  V30 1175 N 121.204 0.198386 -1.56346 0
M  V30 1176 C 122.45 0.920648 -1.80698 0
M  V30 1177 C 122.783 1.83045 -0.648697 0
M  V30 1178 O 122.058 1.91308 0.350925 0
M  V30 1179 C 122.341 1.73971 -3.15287 0
M  V30 1180 C 122.194 0.85485 -4.41602 0
M  V30 1181 C 123.513 2.71296 -3.46535 0
M  V30 1182 H 120.632 0.333261 -0.657348 0
M  V30 1183 H 123.274 0.188198 -1.89066 0
M  V30 1184 H 121.424 2.36416 -3.08285 0
M  V30 1185 H 123.096 0.245362 -4.60647 0
M  V30 1186 H 121.339 0.161398 -4.335 0
M  V30 1187 H 122.01 1.46286 -5.32264 0
M  V30 1188 H 124.486 2.18983 -3.53816 0
M  V30 1189 H 123.362 3.2569 -4.41834 0
M  V30 1190 H 123.623 3.5018 -2.69864 0
M  V30 1191 N 122.682 1.50554 0.465978 0
M  V30 1192 C 123.592 1.72585 1.58907 0
M  V30 1193 C 124.608 0.60911 1.6299 0
M  V30 1194 O 125.784 0.88804 1.80765 0
M  V30 1195 C 122.849 1.81995 2.95091 0
M  V30 1196 C 121.91 3.05751 3.01355 0
M  V30 1197 C 121.143 3.14702 4.31043 0
M  V30 1198 O 121.366 2.30313 5.21835 0
M  V30 1199 O 120.3 4.07468 4.43005 0
M  V30 1200 H 124.126 2.67799 1.43239 0
M  V30 1201 H 121.711 1.34711 0.646013 0
M  V30 1202 H 123.593 1.90335 3.75966 0
M  V30 1203 H 122.268 0.899659 3.10947 0
M  V30 1204 H 121.175 3.02908 2.19539 0
M  V30 1205 H 122.508 3.97375 2.90437 0
M  V30 1206 N 124.16 -0.719506 1.40217 0
M  V30 1207 C 125.408 -1.47641 1.3801 0
M  V30 1208 C 125.729 -1.94992 -0.018145 0
M  V30 1209 O 124.999 -1.70073 -0.972207 0
M  V30 1210 H 123.579 -0.547744 0.507923 0
M  V30 1211 H 126.241 -0.853187 1.75233 0
M  V30 1212 H 125.337 -2.35112 2.05253 0
M  V30 1213 N 125.638 -1.25649 -0.95132 0
M  V30 1214 C 126.601 -1.06399 -2.03007 0
M  V30 1215 C 127.601 -0.0156794 -1.60792 0
M  V30 1216 O 128.791 -0.25817 -1.72276 0
M  V30 1217 C 125.923 -0.616184 -3.35285 0
M  V30 1218 H 127.116 -2.02164 -2.21517 0
M  V30 1219 H 124.669 -1.08103 -1.12887 0
M  V30 1220 H 125.404 0.343917 -3.22471 0
M  V30 1221 H 125.189 -1.37301 -3.67275 0
M  V30 1222 H 126.679 -0.503032 -4.14559 0
M  V30 1223 N 127.117 1.15442 -1.07289 0
M  V30 1224 C 128.347 1.89821 -0.815576 0
M  V30 1225 C 128.755 1.7823 0.634867 0
M  V30 1226 O 128.098 1.13152 1.44715 0
M  V30 1227 C 128.16 3.40817 -1.14385 0
M  V30 1228 C 127.824 3.76193 -2.59476 0
M  V30 1229 C 128.821 3.77269 -3.57721 0
M  V30 1230 C 126.506 4.0652 -2.95037 0
M  V30 1231 C 128.5 4.08176 -4.89562 0
M  V30 1232 C 126.187 4.37092 -4.27076 0
M  V30 1233 C 127.185 4.37902 -5.24148 0
M  V30 1234 O 126.873 4.67741 -6.53815 0
M  V30 1235 H 126.605 0.608465 -0.294528 0
M  V30 1236 H 129.159 1.472 -1.43252 0
M  V30 1237 H 127.389 3.83835 -0.469865 0
M  V30 1238 H 129.078 3.96485 -0.869179 0
M  V30 1239 H 129.844 3.5394 -3.3159 0
M  V30 1240 H 125.723 4.05049 -2.20128 0
M  V30 1241 H 129.267 4.08723 -5.65324 0
M  V30 1242 H 125.164 4.59889 -4.5296 0
M  V30 1243 H 125.932 4.85509 -6.58957 0
M  V30 1244 N 128.595 0.856903 1.32268 0
M  V30 1245 C 129.82 0.474569 2.01897 0
M  V30 1246 C 130.245 -0.921766 1.63967 0
M  V30 1247 O 129.603 -1.60589 0.84148 0
M  V30 1248 C 129.651 0.623799 3.55164 0
M  V30 1249 O 128.755 -0.342459 4.10976 0
M  V30 1250 H 128.096 0.190422 0.63611 0
M  V30 1251 H 130.626 1.15672 1.68764 0
M  V30 1252 H 130.636 0.512169 4.04773 0
M  V30 1253 H 129.311 1.64202 3.82113 0
M  V30 1254 H 127.888 -0.18688 3.72431 0
M  V30 1255 N 130.073 -1.45103 0.615059 0
M  V30 1256 C 131.489 -1.57137 0.279322 0
M  V30 1257 C 131.689 -1.60523 -1.21797 0
M  V30 1258 O 130.745 -1.53956 -2.00134 0
M  V30 1259 C 132.058 -2.85062 0.957083 0
M  V30 1260 C 133.606 -2.98749 0.933706 0
M  V30 1261 C 134.081 -4.29455 1.59162 0
M  V30 1262 N 135.572 -4.36231 1.55746 0
M  V30 1263 C 136.307 -5.36051 2.0356 0
M  V30 1264 N 135.803 -6.42367 2.59494 0
M  V30 1265 N 137.596 -5.27456 1.94284 0
M  V30 1266 H 129.747 -1.41148 1.58717 0
M  V30 1267 H 132.01 -0.675331 0.665306 0
M  V30 1268 H 131.716 -2.88488 2.01166 0
M  V30 1269 H 131.59 -3.7407 0.48494 0
M  V30 1270 H 133.977 -2.94886 -0.112347 0
M  V30 1271 H 134.058 -2.11132 1.44419 0
M  V30 1272 H 133.702 -4.34077 2.63704 0
M  V30 1273 H 133.632 -5.15901 1.0561 0
M  V30 1274 H 136.123 -3.60011 1.14893 0
M  V30 1275 H 136.436 -7.14793 2.93752 0
M  V30 1276 H 134.781 -6.43097 2.63537 0
M  V30 1277 H 137.972 -4.43308 1.5032 0
M  V30 1278 H 138.145 -6.05099 2.3186 0
M  V30 1279 N 131.551 -0.354651 -1.53558 0
M  V30 1280 C 132.514 0.484566 -2.24019 0
M  V30 1281 C 133.514 1.01861 -1.24422 0
M  V30 1282 O 134.704 0.906097 -1.4878 0
M  V30 1283 C 131.836 1.67615 -2.96847 0
M  V30 1284 H 133.029 -0.131843 -2.9961 0
M  V30 1285 H 130.582 -0.106165 -1.55939 0
M  V30 1286 H 131.317 2.33095 -2.25471 0
M  V30 1287 H 131.102 1.30029 -3.69912 0
M  V30 1288 H 132.592 2.27114 -3.50441 0
M  V30 1289 N 133.029 1.57378 -0.0835403 0
M  V30 1290 C 133.939 2.16897 0.894021 0
M  V30 1291 C 134.955 1.13528 1.31861 0
M  V30 1292 O 136.131 1.45848 1.3889 0
M  V30 1293 C 133.196 2.72831 2.13925 0
M  V30 1294 C 132.257 3.91115 1.76997 0
M  V30 1295 C 131.49 4.44371 2.95584 0
M  V30 1296 O 131.713 3.96596 4.09961 0
M  V30 1297 O 130.647 5.35549 2.74719 0
M  V30 1298 H 134.473 3.00814 0.417679 0
M  V30 1299 H 132.058 1.48741 0.140181 0
M  V30 1300 H 133.94 3.0863 2.86924 0
M  V30 1301 H 132.615 1.91967 2.60635 0
M  V30 1302 H 131.522 3.60148 1.01214 0
M  V30 1303 H 132.855 4.73307 1.3506 0
M  V30 1304 N 134.507 -0.190092 1.56449 0
M  V30 1305 C 135.47 -1.21925 1.9408 0
M  V30 1306 C 136.47 -1.38176 0.822431 0
M  V30 1307 O 137.66 -1.35903 1.08977 0
M  V30 1308 C 134.792 -2.58773 2.21922 0
M  V30 1309 H 135.985 -0.897464 2.86157 0
M  V30 1310 H 133.538 -0.43181 1.50217 0
M  V30 1311 H 134.273 -2.95998 1.32499 0
M  V30 1312 H 134.058 -2.48348 3.03424 0
M  V30 1313 H 135.548 -3.32978 2.52022 0
M  V30 1314 N 135.985 -1.50799 -0.457987 0
M  V30 1315 C 137.213 -1.66218 -1.23203 0
M  V30 1316 C 137.628 -0.350894 -1.85511 0
M  V30 1317 O 136.985 0.668546 -1.69814 0
M  V30 1318 C 137.036 -2.76291 -2.33121 0
M  V30 1319 O 136.757 -4.02338 -1.73366 0
M  V30 1320 C 138.258 -3.028 -3.2377 0
M  V30 1321 H 135.478 -0.558361 -0.372121 0
M  V30 1322 H 138.022 -1.97099 -0.545179 0
M  V30 1323 H 136.177 -2.48068 -2.97558 0
M  V30 1324 H 136.591 -4.63312 -2.4585 0
M  V30 1325 H 138.065 -3.8345 -3.97077 0
M  V30 1326 H 138.542 -2.14385 -3.83322 0
M  V30 1327 H 139.148 -3.32604 -2.65056 0
M  V30 1328 N 137.463 0.71206 -1.40597 0
M  V30 1329 C 138.879 1.02058 -1.22704 0
M  V30 1330 C 139.079 2.01228 -0.104729 0
M  V30 1331 O 138.135 2.4674 0.53624 0
M  V30 1332 C 139.448 1.56094 -2.57012 0
M  V30 1333 C 140.996 1.6806 -2.64054 0
M  V30 1334 C 141.471 2.25501 -3.9864 0
M  V30 1335 N 142.962 2.32882 -4.004 0
M  V30 1336 C 143.697 2.78317 -5.01325 0
M  V30 1337 N 143.193 3.23478 -6.12645 0
M  V30 1338 N 144.986 2.77733 -4.88693 0
M  V30 1339 H 137.137 0.0547896 -2.12329 0
M  V30 1340 H 139.4 0.0869027 -0.944008 0
M  V30 1341 H 139.106 0.906865 -3.39807 0
M  V30 1342 H 138.98 2.54564 -2.78347 0
M  V30 1343 H 141.367 2.32583 -1.81629 0
M  V30 1344 H 141.448 0.681802 -2.46546 0
M  V30 1345 H 141.092 1.61598 -4.81506 0
M  V30 1346 H 141.022 3.26102 -4.13479 0
M  V30 1347 H 143.513 2.00991 -3.20017 0
M  V30 1348 H 143.826 3.56725 -6.85542 0
M  V30 1349 H 142.171 3.21429 -6.16205 0
M  V30 1350 H 145.362 2.4179 -4.00818 0
M  V30 1351 H 145.535 3.12826 -5.67489 0
M  V30 1352 N 138.941 1.26152 0.944643 0
M  V30 1353 C 140.189 1.11271 1.6871 0
M  V30 1354 C 140.51 -0.345166 1.91921 0
M  V30 1355 O 139.78 -1.24387 1.51343 0
M  V30 1356 H 138.36 0.408783 0.625224 0
M  V30 1357 H 141.022 1.58427 1.1352 0
M  V30 1358 H 140.118 1.62879 2.66227 0
M  V30 1359 N 140.419 -1.14872 1.07899 0
M  V30 1360 C 141.382 -2.17986 0.708161 0
M  V30 1361 C 142.382 -1.58775 -0.25442 0
M  V30 1362 O 143.572 -1.74166 -0.034645 0
M  V30 1363 C 140.704 -3.40871 0.0446929 0
M  V30 1364 H 141.897 -2.52306 1.62116 0
M  V30 1365 H 139.45 -1.2943 0.876218 0
M  V30 1366 H 140.185 -3.12124 -0.880281 0
M  V30 1367 H 139.97 -3.8511 0.737091 0
M  V30 1368 H 141.46 -4.17121 -0.19991 0
M  V30 1369 N 141.898 -0.863906 -1.31812 0
M  V30 1370 C 143.146 -0.470904 -1.96537 0
M  V30 1371 C 143.467 0.978771 -1.68657 0
M  V30 1372 O 142.737 1.6853 -0.998717 0
M  V30 1373 H 141.317 -0.171148 -0.72713 0
M  V30 1374 H 143.979 -1.10236 -1.60729 0
M  V30 1375 H 143.075 -0.623616 -3.05806 0
M  V30 1376 N 143.376 1.44774 -0.622745 0
M  V30 1377 C 144.624 2.01721 -0.123655 0
M  V30 1378 C 144.945 1.49172 1.25589 0
M  V30 1379 O 144.215 0.691974 1.83272 0
M  V30 1380 H 142.795 0.745777 -0.0427225 0
M  V30 1381 H 145.457 1.77382 -0.807559 0
M  V30 1382 H 144.553 3.11984 -0.0849534 0
M  V30 1383 N 144.854 0.36279 1.53368 0
M  V30 1384 C 146.079 -0.231226 2.06107 0
M  V30 1385 C 146.504 -1.419 1.23474 0
M  V30 1386 O 145.862 -1.79524 0.253128 0
M  V30 1387 C 145.91 -0.605523 3.5548 0
M  V30 1388 O 145.014 -1.70312 3.7559 0
M  V30 1389 H 144.355 -0.034327 0.663112 0
M  V30 1390 H 146.885 0.522584 1.97814 0
M  V30 1391 H 146.895 -0.877314 3.98456 0
M  V30 1392 H 145.57 0.263004 4.15068 0
M  V30 1393 H 144.147 -1.4271 3.44512 0
M  V30 1394 N 146.332 -1.57332 0.0918853 0
M  V30 1395 C 147.557 -1.98995 -0.584442 0
M  V30 1396 C 147.982 -0.970528 -1.61128 0
M  V30 1397 O 147.34 0.0613904 -1.81196 0
M  V30 1398 C 147.388 -3.39636 -1.21161 0
M  V30 1399 O 146.492 -3.40447 -2.32744 0
M  V30 1400 H 145.833 -0.647165 -0.148572 0
M  V30 1401 H 148.363 -2.03873 0.172347 0
M  V30 1402 H 148.373 -3.7726 -1.55367 0
M  V30 1403 H 147.048 -4.13356 -0.459313 0
M  V30 1404 H 145.625 -3.14614 -2.0018 0
M  V30 1405 N 147.81 0.181792 -1.56548 0
M  V30 1406 C 149.035 0.920019 -1.85877 0
M  V30 1407 C 149.46 1.75494 -0.677021 0
M  V30 1408 O 148.818 1.77399 0.374056 0
M  V30 1409 C 148.866 1.78112 -3.13542 0
M  V30 1410 O 147.97 2.88152 -2.95029 0
M  V30 1411 H 147.311 0.258334 -0.611686 0
M  V30 1412 H 149.841 0.183092 -2.03779 0
M  V30 1413 H 149.851 2.18314 -3.44678 0
M  V30 1414 H 148.526 1.16777 -3.99169 0
M  V30 1415 H 147.103 2.51609 -2.75222 0
M  V30 1416 N 149.288 1.51039 0.449983 0
M  V30 1417 C 150.513 1.6715 1.22783 0
M  V30 1418 C 150.938 0.363081 1.84563 0
M  V30 1419 O 150.296 -0.675433 1.68249 0
M  V30 1420 C 150.344 2.77985 2.29689 0
M  V30 1421 O 149.448 2.40707 3.34864 0
M  V30 1422 H 148.789 0.557746 0.360299 0
M  V30 1423 H 151.319 1.97535 0.533005 0
M  V30 1424 H 151.329 3.01693 2.74673 0
M  V30 1425 H 150.004 3.72935 1.84098 0
M  V30 1426 H 148.581 2.27523 2.95445 0
M  V30 1427 N 150.766 -0.704594 1.40972 0
M  V30 1428 C 152.177 -1.28418 1.3552 0
M  V30 1429 C 152.528 -1.96171 0.0339434 0
M  V30 1430 O 151.653 -1.98231 -0.867944 0
M  V30 1431 C 152.248 -2.33528 2.45459 0
M  V30 1432 C 150.807 -2.87085 2.43433 0
M  V30 1433 C 149.954 -1.61007 2.2577 0
M  V30 1434 H 152.905 -0.499963 1.50619 0
M  V30 1435 H 152.926 -3.14619 2.13998 0
M  V30 1436 H 152.438 -1.84187 3.41609 0
M  V30 1437 H 150.539 -3.40626 1.51013 0
M  V30 1438 H 150.652 -3.3813 3.39419 0
M  V30 1439 H 149.016 -1.86482 1.73483 0
M  V30 1440 H 149.799 -1.13675 3.23933 0
M  V30 1441 N 152.244 -1.26651 -0.937939 0
M  V30 1442 C 153.655 -1.1125 -1.49934 0
M  V30 1443 C 154.006 0.306077 -1.93798 0
M  V30 1444 O 153.131 1.19792 -1.80219 0
M  V30 1445 C 153.726 -2.01339 -2.72485 0
M  V30 1446 C 152.285 -1.90074 -3.24883 0
M  V30 1447 C 151.432 -1.94498 -1.97651 0
M  V30 1448 H 154.383 -1.39693 -0.753091 0
M  V30 1449 H 154.404 -1.56319 -3.46907 0
M  V30 1450 H 153.916 -3.04577 -2.40529 0
M  V30 1451 H 152.017 -0.897827 -3.61621 0
M  V30 1452 H 152.13 -2.75778 -3.9177 0
M  V30 1453 H 150.494 -1.38591 -2.13693 0
M  V30 1454 H 151.277 -2.99372 -1.68022 0
M  V30 1455 N 153.722 1.14298 -1.08507 0
M  V30 1456 C 154.632 2.23027 -0.727753 0
M  V30 1457 C 155.648 1.71952 0.26619 0
M  V30 1458 O 156.824 2.011 0.109882 0
M  V30 1459 C 153.889 3.46403 -0.143541 0
M  V30 1460 C 152.95 4.12413 -1.19223 0
M  V30 1461 C 152.183 5.29899 -0.635798 0
M  V30 1462 O 152.406 5.67796 0.544393 0
M  V30 1463 O 151.34 5.85717 -1.38634 0
M  V30 1464 H 155.166 2.55945 -1.63481 0
M  V30 1465 H 152.751 1.22248 -0.858817 0
M  V30 1466 H 154.633 4.21018 0.179404 0
M  V30 1467 H 153.308 3.15206 0.736659 0
M  V30 1468 H 152.215 3.39667 -1.56772 0
M  V30 1469 H 153.548 4.47718 -2.04474 0
M  V30 1470 N 155.201 0.870884 1.31352 0
M  V30 1471 C 156.148 0.325425 2.28494 0
M  V30 1472 C 157.118 -0.576615 1.5577 0
M  V30 1473 O 158.303 -0.508059 1.83911 0
M  V30 1474 C 155.443 -0.466283 3.41935 0
M  V30 1475 C 154.556 0.463378 4.29508 0
M  V30 1476 C 153.691 -0.342544 5.30094 0
M  V30 1477 C 152.73 0.583486 6.09313 0
M  V30 1478 N 151.867 -0.186244 7.01853 0
M  V30 1479 H 156.707 1.15901 2.74538 0
M  V30 1480 H 154.244 0.58294 1.35056 0
M  V30 1481 H 156.202 -0.941085 4.06447 0
M  V30 1482 H 154.832 -1.26456 2.97 0
M  V30 1483 H 153.884 1.05663 3.65431 0
M  V30 1484 H 155.196 1.1734 4.84802 0
M  V30 1485 H 154.35 -0.879816 6.00287 0
M  V30 1486 H 153.089 -1.08585 4.75458 0
M  V30 1487 H 152.094 1.13251 5.3801 0
M  V30 1488 H 153.319 1.32566 6.66035 0
M  V30 1489 H 151.265 -0.912348 6.49625 0
M  V30 1490 H 151.182 0.464422 7.54572 0
M  V30 1491 H 152.45 -0.704716 7.76308 0
M  V30 1492 N 156.679 -1.44442 0.630414 0
M  V30 1493 C 157.956 -1.9549 0.0655657 0
M  V30 1494 C 158.336 -1.5724 -1.40851 0
M  V30 1495 O 157.684 -0.846116 -2.12257 0
M  V30 1496 C 157.894 -3.47812 0.287691 0
M  V30 1497 C 159.242 -4.24216 0.180513 0
M  V30 1498 O 160.266 -3.55526 0.219019 0
M  V30 1499 O 159.125 -5.46434 0.0848493 0
M  V30 1500 H 156.219 -0.826688 -0.0227177 0
M  V30 1501 H 158.765 -1.54496 0.702068 0
M  V30 1502 H 157.537 -3.687 1.31056 0
M  V30 1503 H 157.16 -3.95751 -0.382984 0
M  V30 1504 N 158.157 -0.370918 -1.53173 0
M  V30 1505 C 159.382 0.220293 -2.06227 0
M  V30 1506 C 159.807 1.41243 -1.24225 0
M  V30 1507 O 159.165 1.79387 -0.262645 0
M  V30 1508 C 159.213 0.586663 -3.55796 0
M  V30 1509 O 158.317 1.68317 -3.76488 0
M  V30 1510 H 157.658 0.0308099 -0.663285 0
M  V30 1511 H 160.188 -0.533068 -1.97534 0
M  V30 1512 H 160.198 0.85617 -3.98916 0
M  V30 1513 H 158.873 -0.285013 -4.14922 0
M  V30 1514 H 157.45 1.40881 -3.45264 0
M  V30 1515 N 159.635 1.57281 -0.100228 0
M  V30 1516 C 160.883 1.94153 0.561157 0
M  V30 1517 C 161.204 0.983157 1.68401 0
M  V30 1518 O 160.474 0.0361132 1.95867 0
M  V30 1519 H 159.054 0.716791 0.210283 0
M  V30 1520 H 161.716 1.94202 -0.164765 0
M  V30 1521 H 160.812 2.96709 0.968008 0
M  V30 1522 N 161.113 -0.173488 1.56642 0
M  V30 1523 C 162.043 -1.2171 1.99271 0
M  V30 1524 C 163.024 -1.46289 0.867959 0
M  V30 1525 O 164.209 -1.5766 1.13388 0
M  V30 1526 C 161.339 -2.55651 2.35074 0
M  V30 1527 C 160.293 -2.45645 3.50489 0
M  V30 1528 C 159.619 -3.84056 3.72028 0
M  V30 1529 C 160.919 -1.96302 4.84007 0
M  V30 1530 H 162.613 -0.86275 2.867 0
M  V30 1531 H 160.159 -0.413571 1.37933 0
M  V30 1532 H 162.112 -3.2886 2.63494 0
M  V30 1533 H 160.836 -2.92869 1.44552 0
M  V30 1534 H 159.495 -1.7489 3.22194 0
M  V30 1535 H 159.143 -4.18664 2.788 0
M  V30 1536 H 158.843 -3.7823 4.49684 0
M  V30 1537 H 160.367 -4.58854 4.02846 0
M  V30 1538 H 161.781 -2.59284 5.11317 0
M  V30 1539 H 160.178 -2.01429 5.65284 0
M  V30 1540 H 161.248 -0.917226 4.76146 0
M  V30 1541 N 162.591 -1.51276 -0.441967 0
M  V30 1542 C 163.521 -1.752 -1.54361 0
M  V30 1543 C 164.502 -0.601682 -1.59103 0
M  V30 1544 O 165.687 -0.843913 -1.74905 0
M  V30 1545 C 162.817 -1.87282 -2.92477 0
M  V30 1546 C 161.771 -3.02687 -3.02596 0
M  V30 1547 C 161.097 -2.99947 -4.42647 0
M  V30 1548 C 162.397 -4.4273 -2.77106 0
M  V30 1549 H 164.091 -2.67442 -1.34592 0
M  V30 1550 H 161.637 -1.28694 -0.646048 0
M  V30 1551 H 163.59 -2.02602 -3.695 0
M  V30 1552 H 162.314 -0.916844 -3.13467 0
M  V30 1553 H 160.973 -2.87065 -2.28012 0
M  V30 1554 H 160.621 -2.02136 -4.60597 0
M  V30 1555 H 160.321 -3.77439 -4.50348 0
M  V30 1556 H 161.845 -3.17354 -5.2165 0
M  V30 1557 H 163.259 -4.58727 -3.43864 0
M  V30 1558 H 161.656 -5.21893 -2.96222 0
M  V30 1559 H 162.726 -4.53087 -1.72744 0
M  V30 1560 N 164.069 0.697108 -1.41344 0
M  V30 1561 C 165.346 1.45154 -1.31109 0
M  V30 1562 C 165.726 2.11009 0.0620449 0
M  V30 1563 O 165.074 2.01571 1.07618 0
M  V30 1564 C 165.284 2.47223 -2.46337 0
M  V30 1565 C 166.632 3.1252 -2.87431 0
M  V30 1566 O 167.656 2.57547 -2.46065 0
M  V30 1567 O 166.515 4.12083 -3.58957 0
M  V30 1568 H 163.609 0.646365 -0.515889 0
M  V30 1569 H 166.155 0.727716 -1.53305 0
M  V30 1570 H 164.927 1.97204 -3.37974 0
M  V30 1571 H 164.55 3.27116 -2.2601 0
M  V30 1572 N 165.547 1.27147 0.931209 0
M  V30 1573 C 166.772 1.16191 1.71797 0
M  V30 1574 C 167.197 -0.278004 1.86034 0
M  V30 1575 O 166.555 -1.20137 1.35782 0
M  V30 1576 C 166.603 1.84673 3.09723 0
M  V30 1577 O 165.707 1.14231 3.96264 0
M  V30 1578 H 165.048 0.404303 0.526721 0
M  V30 1579 H 167.578 1.68152 1.1656 0
M  V30 1580 H 167.588 1.91893 3.60057 0
M  V30 1581 H 166.263 2.89421 2.98677 0
M  V30 1582 H 164.84 1.15056 3.54706 0
M  V30 1583 N 167.025 -1.13721 1.09112 0
M  V30 1584 C 168.271 -1.85198 0.826414 0
M  V30 1585 C 168.604 -1.83129 -0.646319 0
M  V30 1586 O 167.879 -1.2671 -1.47563 0
M  V30 1587 C 168.162 -3.33507 1.35812 0
M  V30 1588 C 168.015 -3.44108 2.89672 0
M  V30 1589 C 169.334 -4.28838 0.989256 0
M  V30 1590 H 166.453 -0.67243 0.301675 0
M  V30 1591 H 169.095 -1.33499 1.35197 0
M  V30 1592 H 167.245 -3.77666 0.911082 0
M  V30 1593 H 168.917 -3.08684 3.428 0
M  V30 1594 H 167.16 -2.85087 3.26967 0
M  V30 1595 H 167.831 -4.48388 3.21951 0
M  V30 1596 H 170.307 -3.92734 1.37475 0
M  V30 1597 H 169.183 -5.31051 1.38838 0
M  V30 1598 H 169.444 -4.4198 -0.102924 0
M  V30 1599 N 168.503 -0.877838 -1.30888 0
M  V30 1600 C 169.433 -0.35534 -2.3078 0
M  V30 1601 C 170.414 0.557994 -1.60687 0
M  V30 1602 O 171.599 0.473355 -1.88343 0
M  V30 1603 C 168.729 0.437221 -3.44537 0
M  V30 1604 C 167.683 -0.383715 -4.26276 0
M  V30 1605 C 167.009 0.535014 -5.32017 0
M  V30 1606 C 168.309 -1.62201 -4.96476 0
M  V30 1607 H 170.003 -1.19007 -2.74732 0
M  V30 1608 H 167.549 -0.573698 -1.32078 0
M  V30 1609 H 169.502 0.813334 -4.13477 0
M  V30 1610 H 168.226 1.30553 -2.99372 0
M  V30 1611 H 166.885 -0.741874 -3.59015 0
M  V30 1612 H 166.533 1.40083 -4.831 0
M  V30 1613 H 166.233 -0.0104211 -5.87599 0
M  V30 1614 H 167.757 0.907799 -6.03814 0
M  V30 1615 H 169.171 -1.31689 -5.5797 0
M  V30 1616 H 167.568 -2.10711 -5.61891 0
M  V30 1617 H 168.638 -2.37044 -4.23011 0
M  V30 1618 N 169.982 1.44106 -0.638065 0
M  V30 1619 C 171.259 1.95453 -0.0759321 0
M  V30 1620 C 171.639 1.57984 1.40015 0
M  V30 1621 O 170.987 0.857361 2.11806 0
M  V30 1622 C 171.197 3.47655 -0.306132 0
M  V30 1623 C 172.545 4.24114 -0.203008 0
M  V30 1624 O 173.569 3.55405 -0.237871 0
M  V30 1625 O 172.428 5.46381 -0.113827 0
M  V30 1626 H 169.522 0.826797 0.0183332 0
M  V30 1627 H 172.068 1.54122 -0.710251 0
M  V30 1628 H 170.84 3.68 -1.3301 0
M  V30 1629 H 170.463 3.95949 0.361991 0
M  V30 1630 N 171.46 0.379036 1.52974 0
M  V30 1631 C 172.688 -0.20679 2.05864 0
M  V30 1632 C 173.103 -1.41356 1.25155 0
M  V30 1633 O 172.46 -1.8009 0.295588 0
M  V30 1634 C 172.511 -0.587045 3.56702 0
M  V30 1635 O 172.232 0.571776 4.34353 0
M  V30 1636 C 173.733 -1.22983 4.25899 0
M  V30 1637 H 170.953 -0.0336123 0.670158 0
M  V30 1638 H 173.497 0.541298 1.97206 0
M  V30 1639 H 171.652 -1.28504 3.65466 0
M  V30 1640 H 172.066 0.261544 5.23847 0
M  V30 1641 H 173.54 -1.44635 5.32715 0
M  V30 1642 H 174.017 -2.19416 3.80465 0
M  V30 1643 H 174.623 -0.572892 4.21424 0
M  V30 1644 N 172.938 -1.57226 0.108567 0
M  V30 1645 C 173.868 -2.17778 -0.84232 0
M  V30 1646 C 174.849 -1.11487 -1.2847 0
M  V30 1647 O 176.034 -1.39681 -1.34918 0
M  V30 1648 C 173.164 -2.76888 -2.09644 0
M  V30 1649 C 172.118 -3.88669 -1.79221 0
M  V30 1650 C 171.444 -4.34541 -3.11574 0
M  V30 1651 C 172.744 -5.11251 -1.06864 0
M  V30 1652 H 174.438 -2.97489 -0.337774 0
M  V30 1653 H 171.984 -1.43097 -0.161025 0
M  V30 1654 H 173.937 -3.17904 -2.76614 0
M  V30 1655 H 172.661 -1.94451 -2.62405 0
M  V30 1656 H 171.32 -3.48213 -1.14644 0
M  V30 1657 H 170.968 -3.48977 -3.62249 0
M  V30 1658 H 170.668 -5.09914 -2.91996 0
M  V30 1659 H 172.192 -4.782 -3.7968 0
M  V30 1660 H 173.606 -5.49352 -1.63968 0
M  V30 1661 H 172.003 -5.9214 -0.974178 0
M  V30 1662 H 173.073 -4.8487 -0.0536168 0
M  V30 1663 N 174.416 0.165178 -1.56732 0
M  V30 1664 C 175.346 1.20651 -1.99914 0
M  V30 1665 C 176.327 1.45827 -0.875705 0
M  V30 1666 O 177.512 1.57057 -1.14223 0
M  V30 1667 C 174.642 2.54401 -2.36427 0
M  V30 1668 C 173.596 2.43782 -3.51787 0
M  V30 1669 C 172.922 3.82078 -3.7406 0
M  V30 1670 C 174.222 1.93732 -4.85041 0
M  V30 1671 H 175.916 0.847534 -2.87154 0
M  V30 1672 H 173.462 0.40625 -1.38151 0
M  V30 1673 H 175.415 3.27458 -2.65234 0
M  V30 1674 H 174.139 2.92098 -1.46103 0
M  V30 1675 H 172.798 1.73178 -3.23117 0
M  V30 1676 H 172.446 4.17179 -2.81017 0
M  V30 1677 H 172.146 3.7584 -4.51684 0
M  V30 1678 H 173.67 4.56712 -4.05274 0
M  V30 1679 H 175.084 2.56569 -5.12684 0
M  V30 1680 H 173.481 1.98428 -5.66345 0
M  V30 1681 H 174.551 0.891962 -4.76626 0
M  V30 1682 N 175.894 1.51508 0.433938 0
M  V30 1683 C 176.857 1.72473 1.50949 0
M  V30 1684 C 177.857 0.594725 1.49398 0
M  V30 1685 O 179.047 0.862315 1.5136 0
M  V30 1686 C 176.179 1.78431 2.90474 0
M  V30 1687 H 177.372 2.68467 1.33662 0
M  V30 1688 H 174.925 1.41549 0.662836 0
M  V30 1689 H 175.66 0.842645 3.13161 0
M  V30 1690 H 175.445 2.60558 2.93005 0
M  V30 1691 H 176.935 1.96479 3.68491 0
M  V30 1692 N 177.372 -0.689602 1.41712 0
M  V30 1693 C 178.783 -1.26973 1.36875 0
M  V30 1694 C 179.134 -1.96124 0.054748 0
M  V30 1695 O 178.259 -1.99141 -0.84687 0
M  V30 1696 C 178.854 -2.30912 2.47922 0
M  V30 1697 C 177.413 -2.84486 2.46464 0
M  V30 1698 C 176.56 -1.58603 2.27465 0
M  V30 1699 H 179.511 -0.48396 1.51141 0
M  V30 1700 H 179.532 -3.12331 2.17323 0
M  V30 1701 H 179.044 -1.80554 3.43543 0
M  V30 1702 H 177.145 -3.39005 1.54617 0
M  V30 1703 H 177.258 -3.34511 3.42986 0
M  V30 1704 H 175.622 -1.84632 1.75451 0
M  V30 1705 H 176.405 -1.10233 3.25121 0
M  V30 1706 N 178.85 -1.27639 -0.924453 0
M  V30 1707 C 180.075 -1.17101 -1.71179 0
M  V30 1708 C 180.5 0.268134 -1.86179 0
M  V30 1709 O 179.858 1.19415 -1.36418 0
M  V30 1710 C 179.906 -1.86313 -3.08739 0
M  V30 1711 O 179.01 -1.16331 -3.95652 0
M  V30 1712 H 178.351 -0.407091 -0.524569 0
M  V30 1713 H 180.881 -1.68767 -1.15666 0
M  V30 1714 H 180.891 -1.938 -3.59034 0
M  V30 1715 H 179.566 -2.91001 -2.97138 0
M  V30 1716 H 178.143 -1.16935 -3.54091 0
M  V30 1717 N 180.328 1.1314 -1.09713 0
M  V30 1718 C 181.576 1.84119 -0.833338 0
M  V30 1719 C 181.897 1.84097 0.642904 0
M  V30 1720 O 181.167 1.29881 1.46655 0
M  V30 1721 H 179.747 0.681766 -0.305293 0
M  V30 1722 H 182.409 1.37038 -1.38588 0
M  V30 1723 H 181.505 2.88543 -1.18951 0
M  V30 1724 N 181.806 0.884767 1.30421 0
M  V30 1725 C 183.217 0.553656 1.78302 0
M  V30 1726 C 183.568 -0.930153 1.7275 0
M  V30 1727 O 182.693 -1.72681 1.30423 0
M  V30 1728 C 183.288 0.998234 3.2376 0
M  V30 1729 C 181.847 0.71854 3.69478 0
M  V30 1730 C 180.994 1.18132 2.50879 0
M  V30 1731 H 183.945 1.06901 1.17294 0
M  V30 1732 H 183.966 0.327118 3.79091 0
M  V30 1733 H 183.478 2.0782 3.27769 0
M  V30 1734 H 181.579 -0.349444 3.70958 0
M  V30 1735 H 181.692 1.30595 4.60958 0
M  V30 1736 H 180.056 0.600669 2.47516 0
M  V30 1737 H 180.839 2.26902 2.57624 0
M  V30 1738 N 183.284 -1.43765 0.645699 0
M  V30 1739 C 184.532 -2.01499 0.155731 0
M  V30 1740 C 184.853 -1.51151 -1.232 0
M  V30 1741 O 184.123 -0.721044 -1.82148 0
M  V30 1742 H 182.703 -0.745003 0.0545817 0
M  V30 1743 H 185.365 -1.76075 0.835677 0
M  V30 1744 H 184.461 -3.1181 0.134577 0
M  V30 1745 N 184.763 -0.387143 -1.52771 0
M  V30 1746 C 185.695 0.484089 -2.2403 0
M  V30 1747 C 186.708 1.02849 -1.26198 0
M  V30 1748 O 187.897 0.931186 -1.52286 0
M  V30 1749 C 184.997 1.68337 -2.94136 0
M  V30 1750 C 184.17 1.26672 -4.18656 0
M  V30 1751 C 183.229 2.33045 -4.7178 0
M  V30 1752 O 182.255 1.94541 -5.34923 0
M  V30 1753 N 183.457 3.64929 -4.5145 0
M  V30 1754 H 186.222 -0.126404 -2.99433 0
M  V30 1755 H 183.783 -0.213392 -1.60488 0
M  V30 1756 H 185.775 2.39019 -3.26577 0
M  V30 1757 H 184.345 2.20025 -2.22053 0
M  V30 1758 H 183.565 0.388878 -3.92277 0
M  V30 1759 H 184.853 0.964964 -4.99566 0
M  V30 1760 H 184.251 3.98974 -4.01044 0
M  V30 1761 H 182.808 4.31651 -4.88386 0
M  V30 1762 N 186.241 1.57166 -0.116904 0
M  V30 1763 C 187.466 1.999 0.55271 0
M  V30 1764 C 187.891 0.996039 1.59564 0
M  V30 1765 O 187.249 -0.032556 1.81271 0
M  V30 1766 C 187.297 3.4152 1.15742 0
M  V30 1767 O 186.401 3.44106 2.27299 0
M  V30 1768 H 185.742 0.649447 0.138258 0
M  V30 1769 H 188.272 2.03573 -0.204759 0
M  V30 1770 H 188.282 3.79684 1.49346 0
M  V30 1771 H 186.957 4.14034 0.393493 0
M  V30 1772 H 185.534 3.17759 1.9515 0
M  V30 1773 N 187.719 -0.156864 1.56817 0
M  V30 1774 C 188.651 -1.21883 1.94106 0
M  V30 1775 C 189.664 -1.3971 0.835754 0
M  V30 1776 O 190.853 -1.39457 1.11418 0
M  V30 1777 C 187.953 -2.58527 2.19127 0
M  V30 1778 C 187.126 -2.61809 3.50393 0
M  V30 1779 C 186.185 -3.7992 3.64071 0
M  V30 1780 O 185.211 -3.65249 4.36557 0
M  V30 1781 N 186.413 -4.96973 2.99997 0
M  V30 1782 H 189.178 -0.901974 2.85805 0
M  V30 1783 H 186.739 -0.346513 1.58148 0
M  V30 1784 H 188.731 -3.36034 2.25529 0
M  V30 1785 H 187.301 -2.82545 1.33742 0
M  V30 1786 H 186.521 -1.7029 3.5552 0
M  V30 1787 H 187.809 -2.61024 4.36742 0
M  V30 1788 H 187.207 -5.11794 2.41004 0
M  V30 1789 H 185.764 -5.7229 3.11974 0
M  V30 1790 N 189.197 -1.51736 -0.425897 0
M  V30 1791 C 190.608 -1.5732 -1.00536 0
M  V30 1792 C 190.959 -0.403537 -1.92005 0
M  V30 1793 O 190.084 0.478256 -2.11049 0
M  V30 1794 C 190.679 -2.85119 -1.8301 0
M  V30 1795 C 189.238 -2.93236 -2.35987 0
M  V30 1796 C 188.385 -2.52098 -1.15508 0
M  V30 1797 H 191.336 -1.57348 -0.206739 0
M  V30 1798 H 191.357 -2.69526 -2.68581 0
M  V30 1799 H 190.869 -3.7023 -1.16411 0
M  V30 1800 H 188.97 -2.12581 -3.06007 0
M  V30 1801 H 189.083 -3.9713 -2.68001 0
M  V30 1802 H 187.447 -2.05558 -1.50393 0
M  V30 1803 H 188.23 -3.39565 -0.505014 0
M  V30 1804 N 190.675 0.682077 -1.42076 0
M  V30 1805 C 191.9 1.47558 -1.45744 0
M  V30 1806 C 192.325 1.87977 -0.0680981 0
M  V30 1807 O 191.683 1.55522 0.9318 0
M  V30 1808 C 191.731 2.70575 -2.38373 0
M  V30 1809 O 190.835 3.68573 -1.85007 0
M  V30 1810 H 190.176 0.443585 -0.494093 0
M  V30 1811 H 192.706 0.837238 -1.86686 0
M  V30 1812 H 192.716 3.18729 -2.54707 0
M  V30 1813 H 191.391 2.40495 -3.39315 0
M  V30 1814 H 189.968 3.2757 -1.78192 0
M  V30 1815 N 192.153 1.28127 0.917671 0
M  V30 1816 C 193.564 1.13622 1.48145 0
M  V30 1817 C 193.915 -0.275207 1.9426 0
M  V30 1818 O 193.04 -1.1691 1.82102 0
M  V30 1819 C 193.635 2.05648 2.69248 0
M  V30 1820 C 192.194 1.95219 3.21818 0
M  V30 1821 C 191.341 1.97618 1.94532 0
M  V30 1822 H 194.292 1.40874 0.730772 0
M  V30 1823 H 194.313 1.61818 3.44377 0
M  V30 1824 H 193.825 3.08365 2.35653 0
M  V30 1825 H 191.926 0.955244 3.60147 0
M  V30 1826 H 192.039 2.81976 3.87333 0
M  V30 1827 H 190.403 1.41973 2.11461 0
M  V30 1828 H 191.186 3.02007 1.63238 0
M  V30 1829 N 193.631 -1.12557 1.10312 0
M  V30 1830 C 195.042 -1.65574 0.862678 0
M  V30 1831 C 195.393 -1.86566 -0.607256 0
M  V30 1832 O 194.518 -1.59121 -1.46662 0
M  V30 1833 C 195.113 -3.00776 1.55947 0
M  V30 1834 C 193.672 -3.50748 1.36576 0
M  V30 1835 C 192.819 -2.25797 1.60968 0
M  V30 1836 H 195.77 -0.963552 1.26101 0
M  V30 1837 H 195.791 -3.67185 0.997753 0
M  V30 1838 H 195.303 -2.85465 2.62928 0
M  V30 1839 H 193.404 -3.71245 0.317531 0
M  V30 1840 H 193.517 -4.30289 2.10686 0
M  V30 1841 H 191.881 -2.32841 1.03234 0
M  V30 1842 H 192.664 -2.13043 2.69198 0
M  V30 1843 N 195.109 -0.891671 -1.2995 0
M  V30 1844 C 196.072 -0.36828 -2.26222 0
M  V30 1845 C 197.072 0.493014 -1.53056 0
M  V30 1846 O 198.262 0.299213 -1.71611 0
M  V30 1847 C 195.394 0.47442 -3.37583 0
M  V30 1848 H 196.587 -1.21844 -2.74033 0
M  V30 1849 H 194.14 -0.669107 -1.41254 0
M  V30 1850 H 194.875 1.34489 -2.95099 0
M  V30 1851 H 194.66 -0.142615 -3.91841 0
M  V30 1852 H 196.15 0.83218 -4.09224 0
M  V30 1853 N 196.587 1.43421 -0.653314 0
M  V30 1854 C 197.827 2.03689 -0.170346 0
M  V30 1855 C 198.191 1.50427 1.19314 0
M  V30 1856 O 199.392 2.0234 1.76952 0
M  V30 1857 C 197.663 3.56946 -0.180183 0
M  V30 1858 S 199.222 4.38171 0.234925 0
M  V30 1859 H 196.04 0.707345 -0.0719976 0
M  V30 1860 H 198.642 1.75486 -0.86167 0
M  V30 1861 H 197.346 3.93212 -1.17526 0
M  V30 1862 H 196.877 3.89791 0.531675 0
M  V30 1863 H 198.892 4.73808 1.47378 0
M  V30 1864 N 198.065 0.39524 1.52563 0
M  V30 1865 C 198.975 -0.444232 2.30356 0
M  V30 1866 C 199.991 -1.06615 1.37511 0
M  V30 1867 O 201.167 -1.07067 1.70583 0
M  V30 1868 C 198.232 -1.55315 3.09964 0
M  V30 1869 C 197.293 -0.955734 4.18526 0
M  V30 1870 C 196.526 -2.01181 4.9433 0
M  V30 1871 O 196.749 -3.22781 4.70285 0
M  V30 1872 O 195.683 -1.62579 5.79527 0
M  V30 1873 H 199.509 0.189667 3.03107 0
M  V30 1874 H 197.094 0.1588 1.48554 0
M  V30 1875 H 198.976 -2.19724 3.59582 0
M  V30 1876 H 197.651 -2.17191 2.4002 0
M  V30 1877 H 196.558 -0.274743 3.7309 0
M  V30 1878 H 197.891 -0.381109 4.90722 0
M  V30 1879 N 199.544 -1.57102 0.125237 0
M  V30 1880 C 200.79 -1.95697 -0.532035 0
M  V30 1881 C 201.123 -1.009 -1.6593 0
M  V30 1882 O 200.398 -0.047347 -1.94442 0
M  V30 1883 C 200.681 -3.44181 -1.05884 0
M  V30 1884 C 200.534 -4.49752 0.0654392 0
M  V30 1885 C 201.853 -3.94655 -1.9477 0
M  V30 1886 H 198.972 -0.711571 -0.191925 0
M  V30 1887 H 201.614 -1.88923 0.20206 0
M  V30 1888 H 199.764 -3.50085 -1.68442 0
M  V30 1889 H 201.436 -4.55943 0.700982 0
M  V30 1890 H 199.679 -4.27653 0.727709 0
M  V30 1891 H 200.35 -5.50924 -0.344505 0
M  V30 1892 H 202.826 -3.91094 -1.42074 0
M  V30 1893 H 201.702 -4.99057 -2.28546 0
M  V30 1894 H 201.963 -3.35718 -2.87656 0
M  V30 1895 N 201.022 0.148545 -1.56898 0
M  V30 1896 C 202.25 0.876389 -1.87422 0
M  V30 1897 C 202.665 1.74809 -0.713256 0
M  V30 1898 O 202.022 1.79725 0.317025 0
M  V30 1899 C 202.073 1.73438 -3.17178 0
M  V30 1900 O 201.794 0.897809 -4.28802 0
M  V30 1901 C 203.295 2.56993 -3.61205 0
M  V30 1902 H 200.515 0.253489 -0.621277 0
M  V30 1903 H 203.059 0.141798 -2.04008 0
M  V30 1904 H 201.214 2.42205 -3.0235 0
M  V30 1905 H 201.628 1.48672 -5.02988 0
M  V30 1906 H 203.102 3.12773 -4.54838 0
M  V30 1907 H 203.579 3.32958 -2.86419 0
M  V30 1908 H 204.185 1.9352 -3.78722 0
M  V30 1909 N 202.5 1.5196 0.417844 0
M  V30 1910 C 203.725 1.69717 1.1921 0
M  V30 1911 C 204.15 0.402148 1.83751 0
M  V30 1912 O 203.508 -0.639593 1.69643 0
M  V30 1913 C 203.556 2.82794 2.2374 0
M  V30 1914 O 202.66 2.47756 3.29683 0
M  V30 1915 H 202.001 0.565263 0.348387 0
M  V30 1916 H 204.531 1.98621 0.490985 0
M  V30 1917 H 204.541 3.07452 2.68212 0
M  V30 1918 H 203.216 3.76756 1.76146 0
M  V30 1919 H 201.793 2.33739 2.90552 0
M  V30 1920 N 203.978 -0.674533 1.42435 0
M  V30 1921 C 205.203 -1.46784 1.46524 0
M  V30 1922 C 205.628 -1.87938 0.078066 0
M  V30 1923 O 204.986 -1.56014 -0.92354 0
M  V30 1924 C 205.034 -2.69307 2.39805 0
M  V30 1925 O 204.138 -3.67587 1.86959 0
M  V30 1926 H 203.479 -0.440959 0.496439 0
M  V30 1927 H 206.009 -0.827326 1.87127 0
M  V30 1928 H 206.019 -3.17374 2.56393 0
M  V30 1929 H 204.694 -2.38692 3.40586 0
M  V30 1930 H 203.271 -3.2662 1.79927 0
M  V30 1931 N 205.456 -1.28612 -0.910864 0
M  V30 1932 C 206.702 -1.17116 -1.66299 0
M  V30 1933 C 207.057 0.276917 -1.90397 0
M  V30 1934 O 206.35 1.19795 -1.49532 0
M  V30 1935 C 206.544 -1.90624 -3.0232 0
M  V30 1936 C 206.373 -3.42431 -2.91498 0
M  V30 1937 C 205.143 -4.11773 -2.92867 0
M  V30 1938 C 207.341 -4.38124 -2.69355 0
M  V30 1939 N 205.323 -5.50025 -2.72664 0
M  V30 1940 C 206.694 -5.63759 -2.58023 0
M  V30 1941 C 208.749 -4.28016 -2.54375 0
M  V30 1942 C 207.452 -6.80436 -2.33238 0
M  V30 1943 C 209.478 -5.44433 -2.30969 0
M  V30 1944 C 208.84 -6.69034 -2.20394 0
M  V30 1945 H 204.939 -0.483506 -0.61461 0
M  V30 1946 H 207.523 -1.62299 -1.0755 0
M  V30 1947 H 205.694 -1.4787 -3.5915 0
M  V30 1948 H 207.426 -1.71488 -3.66571 0
M  V30 1949 H 204.181 -3.63378 -3.03732 0
M  V30 1950 H 204.605 -6.22705 -2.65646 0
M  V30 1951 H 209.247 -3.32388 -2.613 0
M  V30 1952 H 206.965 -7.7613 -2.25051 0
M  V30 1953 H 210.551 -5.38504 -2.20238 0
M  V30 1954 H 209.431 -7.57595 -2.02531 0
M  V30 1955 N 206.934 1.1197 -1.10907 0
M  V30 1956 C 208.174 1.85224 -0.864378 0
M  V30 1957 C 208.538 1.82411 0.599178 0
M  V30 1958 O 209.739 2.51057 0.960416 0
M  V30 1959 C 208.01 3.2868 -1.40371 0
M  V30 1960 S 209.569 4.1925 -1.29518 0
M  V30 1961 H 206.387 0.63878 -0.312219 0
M  V30 1962 H 208.989 1.3485 -1.41548 0
M  V30 1963 H 207.693 3.28289 -2.46281 0
M  V30 1964 H 207.224 3.84121 -0.849402 0
M  V30 1965 H 209.239 4.95539 -0.256059 0
M  V30 1966 N 208.412 0.89855 1.29475 0
M  V30 1967 C 209.342 0.39201 2.30186 0
M  V30 1968 C 210.323 -0.532359 1.61555 0
M  V30 1969 O 211.508 -0.443331 1.89072 0
M  V30 1970 C 208.638 -0.382353 3.45189 0
M  V30 1971 C 207.592 0.451483 4.25612 0
M  V30 1972 C 206.918 -0.450307 5.328 0
M  V30 1973 C 208.218 1.70079 4.93832 0
M  V30 1974 H 209.912 1.23362 2.72804 0
M  V30 1975 H 207.458 0.594638 1.31149 0
M  V30 1976 H 209.411 -0.747451 4.14718 0
M  V30 1977 H 208.135 -1.25774 3.01411 0
M  V30 1978 H 206.794 0.798897 3.57789 0
M  V30 1979 H 206.442 -1.32379 4.85268 0
M  V30 1980 H 206.142 0.103902 5.87508 0
M  V30 1981 H 207.666 -0.811623 6.05182 0
M  V30 1982 H 209.08 1.40549 5.55805 0
M  V30 1983 H 207.477 2.19623 5.58467 0
M  V30 1984 H 208.547 2.43744 4.19186 0
M  V30 1985 N 209.89 -1.43072 0.660911 0
M  V30 1986 C 211.137 -2.01721 0.177445 0
M  V30 1987 C 211.465 -1.5218 -1.21126 0
M  V30 1988 O 210.72 -0.708659 -1.82419 0
M  V30 1989 C 211.019 -3.57103 0.145563 0
M  V30 1990 C 210.685 -4.26021 1.47705 0
M  V30 1991 C 209.347 -4.44563 1.84165 0
M  V30 1992 C 211.699 -4.64983 2.35458 0
M  V30 1993 C 209.027 -4.99334 3.0803 0
M  V30 1994 C 211.379 -5.21127 3.58622 0
M  V30 1995 C 210.043 -5.37884 3.95268 0
M  V30 1996 H 209.313 -0.73815 0.0649317 0
M  V30 1997 H 211.96 -1.71446 0.853144 0
M  V30 1998 H 210.265 -3.86965 -0.61361 0
M  V30 1999 H 211.962 -4.00248 -0.2455 0
M  V30 2000 H 208.552 -4.11939 1.18339 0
M  V30 2001 H 212.736 -4.50343 2.08579 0
M  V30 2002 H 207.992 -5.10493 3.36462 0
M  V30 2003 H 212.166 -5.50262 4.26831 0
M  V30 2004 H 209.793 -5.80089 4.91325 0
M  V30 2005 N 211.368 -0.403325 -1.52352 0
M  V30 2006 C 212.616 0.174003 -2.0135 0
M  V30 2007 C 212.937 1.46139 -1.29106 0
M  V30 2008 O 212.207 1.91448 -0.415253 0
M  V30 2009 H 210.787 0.0672911 -0.743963 0
M  V30 2010 H 213.449 -0.538235 -1.87321 0
M  V30 2011 H 212.545 0.374254 -3.09848 0
M  V30 2012 N 212.846 1.57033 -0.133567 0
M  V30 2013 C 214.257 1.82593 0.389464 0
M  V30 2014 C 214.608 1.05156 1.6564 0
M  V30 2015 O 213.733 0.292644 2.14412 0
M  V30 2016 C 214.328 3.31204 0.713377 0
M  V30 2017 C 212.887 3.57393 1.18098 0
M  V30 2018 C 212.034 2.76598 0.197126 0
M  V30 2019 H 214.985 1.54598 -0.358481 0
M  V30 2020 H 215.006 3.46627 1.56939 0
M  V30 2021 H 214.518 3.87537 -0.2089 0
M  V30 2022 H 212.619 3.06433 2.11966 0
M  V30 2023 H 212.732 4.65915 1.11624 0
M  V30 2024 H 211.096 2.45257 0.687088 0
M  V30 2025 H 211.879 3.35697 -0.718504 0
M  V30 2026 N 214.325 -0.140222 1.56975 0
M  V30 2027 C 215.235 -1.19223 2.02047 0
M  V30 2028 C 216.251 -1.46612 0.937062 0
M  V30 2029 O 217.427 -1.58148 1.24704 0
M  V30 2030 C 214.492 -2.50414 2.39778 0
M  V30 2031 C 213.553 -2.30612 3.621 0
M  V30 2032 C 212.786 -3.55547 3.98023 0
M  V30 2033 O 213.009 -4.62004 3.34528 0
M  V30 2034 O 211.943 -3.47808 4.91237 0
M  V30 2035 H 215.769 -0.839559 2.91865 0
M  V30 2036 H 213.354 -0.349453 1.45256 0
M  V30 2037 H 215.236 -3.27747 2.64877 0
M  V30 2038 H 213.911 -2.85198 1.53114 0
M  V30 2039 H 212.818 -1.51207 3.4218 0
M  V30 2040 H 214.151 -2.00741 4.49404 0
M  V30 2041 N 215.803 -1.52179 -0.40978 0
M  V30 2042 C 216.733 -1.78435 -1.5061 0
M  V30 2043 C 217.714 -0.635295 -1.57791 0
M  V30 2044 O 218.899 -0.880823 -1.73076 0
M  V30 2045 C 216.029 -1.93444 -2.88439 0
M  V30 2046 C 214.983 -3.09038 -2.96108 0
M  V30 2047 C 214.309 -3.09268 -4.36185 0
M  V30 2048 C 215.609 -4.48508 -2.67652 0
M  V30 2049 H 217.303 -2.70237 -1.28889 0
M  V30 2050 H 214.849 -1.30036 -0.618605 0
M  V30 2051 H 216.802 -2.10394 -3.65119 0
M  V30 2052 H 215.526 -0.983129 -3.11452 0
M  V30 2053 H 214.185 -2.91837 -2.21872 0
M  V30 2054 H 213.833 -2.11861 -4.56206 0
M  V30 2055 H 213.533 -3.86907 -4.42241 0
M  V30 2056 H 215.057 -3.28348 -5.14801 0
M  V30 2057 H 216.471 -4.65918 -3.34056 0
M  V30 2058 H 214.868 -5.28059 -2.85085 0
M  V30 2059 H 215.938 -4.56649 -1.63095 0
M  V30 2060 N 217.281 0.66697 -1.42791 0
M  V30 2061 C 218.692 1.2478 -1.38877 0
M  V30 2062 C 219.043 1.96012 -0.0859426 0
M  V30 2063 O 218.168 2.00463 0.815081 0
M  V30 2064 C 218.763 2.26938 -2.51564 0
M  V30 2065 C 217.322 2.80529 -2.50959 0
M  V30 2066 C 216.469 1.54965 -2.29959 0
M  V30 2067 H 219.42 0.459853 -1.51892 0
M  V30 2068 H 219.441 3.08834 -2.22265 0
M  V30 2069 H 218.953 1.75065 -3.46372 0
M  V30 2070 H 217.054 3.36502 -1.59991 0
M  V30 2071 H 217.167 3.29012 -3.48265 0
M  V30 2072 H 215.531 1.81817 -1.78366 0
M  V30 2073 H 216.314 1.05047 -3.26833 0
M  V30 2074 N 218.759 1.29093 0.90403 0
M  V30 2075 C 219.669 1.15727 2.0407 0
M  V30 2076 C 220.685 0.0815308 1.73809 0
M  V30 2077 O 221.861 0.292749 1.99261 0
M  V30 2078 C 218.926 0.830424 3.36608 0
M  V30 2079 C 217.987 1.98955 3.80415 0
M  V30 2080 C 217.22 1.6782 5.06628 0
M  V30 2081 O 217.443 0.597105 5.67266 0
M  V30 2082 O 216.377 2.52486 5.46383 0
M  V30 2083 H 220.203 2.11171 2.18267 0
M  V30 2084 H 217.788 1.08504 1.027 0
M  V30 2085 H 219.67 0.662521 4.16159 0
M  V30 2086 H 218.345 -0.0942678 3.23563 0
M  V30 2087 H 217.252 2.21267 3.01648 0
M  V30 2088 H 218.585 2.89529 3.98037 0
M  V30 2089 N 220.237 -1.11381 1.11499 0
M  V30 2090 C 221.514 -1.7955 0.775965 0
M  V30 2091 C 221.894 -1.97859 -0.73588 0
M  V30 2092 O 221.242 -1.56376 -1.66609 0
M  V30 2093 C 221.452 -3.13196 1.53977 0
M  V30 2094 C 222.8 -3.88227 1.71944 0
M  V30 2095 O 223.824 -3.22887 1.50407 0
M  V30 2096 O 222.683 -5.05477 2.07738 0
M  V30 2097 H 219.777 -0.777728 0.28119 0
M  V30 2098 H 222.323 -1.18118 1.21845 0
M  V30 2099 H 221.095 -2.95229 2.56818 0
M  V30 2100 H 220.718 -3.82342 1.09088 0
M  V30 2101 N 221.715 -0.905404 -1.28997 0
M  V30 2102 C 223.126 -0.581953 -1.77398 0
M  V30 2103 C 223.477 0.902552 -1.74208 0
M  V30 2104 O 222.602 1.70584 -1.33154 0
M  V30 2105 C 223.197 -1.04961 -3.22131 0
M  V30 2106 C 221.756 -0.777229 -3.68288 0
M  V30 2107 C 220.903 -1.22109 -2.48967 0
M  V30 2108 H 223.854 -1.08754 -1.15578 0
M  V30 2109 H 223.875 -0.387387 -3.78523 0
M  V30 2110 H 223.387 -2.13008 -3.24421 0
M  V30 2111 H 221.488 0.290383 -3.71467 0
M  V30 2112 H 221.601 -1.37911 -4.58822 0
M  V30 2113 H 219.965 -0.639971 -2.46529 0
M  V30 2114 H 220.748 -2.30972 -2.53982 0
M  V30 2115 N 223.193 1.4272 -0.668489 0
M  V30 2116 C 224.604 1.84793 -0.266151 0
M  V30 2117 C 224.955 1.55959 1.19043 0
M  V30 2118 O 224.08 1.01622 1.91055 0
M  V30 2119 C 224.675 3.35436 -0.476271 0
M  V30 2120 C 223.234 3.76182 -0.128113 0
M  V30 2121 C 222.381 2.66344 -0.771777 0
M  V30 2122 H 225.332 1.32656 -0.871098 0
M  V30 2123 H 225.353 3.79515 0.273561 0
M  V30 2124 H 224.865 3.5639 -1.53647 0
M  V30 2125 H 222.966 3.60836 0.928891 0
M  V30 2126 H 223.079 4.75766 -0.564231 0
M  V30 2127 H 221.443 2.53885 -0.203652 0
M  V30 2128 H 222.226 2.90123 -1.83531 0
M  V30 2129 N 224.671 0.411399 1.52136 0
M  V30 2130 C 225.634 -0.401089 2.25663 0
M  V30 2131 C 226.634 -0.971732 1.28117 0
M  V30 2132 O 227.824 -0.850254 1.52041 0
M  V30 2133 C 224.956 -1.56483 3.02863 0
M  V30 2134 H 226.149 0.24295 2.98914 0
M  V30 2135 H 223.702 0.163968 1.55438 0
M  V30 2136 H 224.437 -2.24567 2.33967 0
M  V30 2137 H 224.222 -1.16211 3.74483 0
M  V30 2138 H 225.712 -2.13951 3.58629 0
M  V30 2139 N 226.149 -1.5696 0.141893 0
M  V30 2140 C 227.112 -2.15316 -0.785587 0
M  V30 2141 C 228.112 -1.09366 -1.1788 0
M  V30 2142 O 229.302 -1.35031 -1.10056 0
M  V30 2143 C 226.434 -2.71211 -2.06537 0
M  V30 2144 H 227.627 -2.98608 -0.278041 0
M  V30 2145 H 225.18 -1.5593 -0.107519 0
M  V30 2146 H 225.915 -1.91571 -2.6167 0
M  V30 2147 H 225.7 -3.4872 -1.79268 0
M  V30 2148 H 227.19 -3.16189 -2.72789 0
M  V30 2149 N 227.627 0.131896 -1.57047 0
M  V30 2150 C 229.038 0.690407 -1.73465 0
M  V30 2151 C 229.389 1.8094 -0.758629 0
M  V30 2152 O 228.514 2.16282 0.0713813 0
M  V30 2153 C 229.109 1.25916 -3.14532 0
M  V30 2154 C 227.668 1.76409 -3.32501 0
M  V30 2155 C 226.815 0.658579 -2.69366 0
M  V30 2156 H 229.766 -0.0939144 -1.58422 0
M  V30 2157 H 229.787 2.12892 -3.15369 0
M  V30 2158 H 229.299 0.444515 -3.85546 0
M  V30 2159 H 227.4 2.60391 -2.66509 0
M  V30 2160 H 227.513 1.88241 -4.4057 0
M  V30 2161 H 225.877 1.08899 -2.30246 0
M  V30 2162 H 226.66 -0.14487 -3.42994 0
M  V30 2163 N 229.106 1.52395 0.401703 0
M  V30 2164 C 230.069 1.75636 1.47257 0
M  V30 2165 C 231.069 0.62628 1.48103 0
M  V30 2166 O 232.259 0.894227 1.49497 0
M  V30 2167 C 229.391 1.84553 2.86624 0
M  V30 2168 H 230.584 2.71241 1.27938 0
M  V30 2169 H 228.137 1.42923 0.632662 0
M  V30 2170 H 228.872 0.908882 3.11303 0
M  V30 2171 H 228.657 2.66715 2.87412 0
M  V30 2172 H 230.147 2.04251 3.64241 0
M  V30 2173 N 230.584 -0.659388 1.43143 0
M  V30 2174 C 231.812 -1.44723 1.47861 0
M  V30 2175 C 232.227 -1.88563 0.0945886 0
M  V30 2176 O 231.584 -1.59108 -0.893915 0
M  V30 2177 C 231.635 -2.68627 2.41913 0
M  V30 2178 O 231.356 -2.26623 3.74932 0
M  V30 2179 C 232.857 -3.62045 2.55809 0
M  V30 2180 H 230.077 -0.444801 0.502387 0
M  V30 2181 H 232.621 -0.808916 1.87821 0
M  V30 2182 H 230.776 -3.28613 2.05164 0
M  V30 2183 H 231.19 -3.06745 4.2545 0
M  V30 2184 H 232.664 -4.45666 3.25708 0
M  V30 2185 H 233.141 -4.08981 1.60099 0
M  V30 2186 H 233.747 -3.07944 2.93344 0
M  V30 2187 N 232.062 -1.29571 -0.897171 0
M  V30 2188 C 232.994 -1.10724 -2.00681 0
M  V30 2189 C 234.007 -0.0540026 -1.6271 0
M  V30 2190 O 235.196 -0.298783 -1.75982 0
M  V30 2191 C 232.296 -0.663912 -3.32333 0
M  V30 2192 C 231.469 -1.79622 -3.98816 0
M  V30 2193 C 230.528 -1.34349 -5.0876 0
M  V30 2194 O 229.554 -2.04864 -5.31055 0
M  V30 2195 N 230.756 -0.215764 -5.80099 0
M  V30 2196 H 233.521 -2.06291 -2.17403 0
M  V30 2197 H 231.082 -1.21544 -1.06951 0
M  V30 2198 H 233.074 -0.344295 -4.03233 0
M  V30 2199 H 231.644 0.199375 -3.11964 0
M  V30 2200 H 230.864 -2.28459 -3.21248 0
M  V30 2201 H 232.152 -2.55535 -4.39976 0
M  V30 2202 H 231.55 0.372091 -5.64475 0
M  V30 2203 H 230.107 0.0444707 -6.51785 0
M  V30 2204 N 233.54 1.10788 -1.12088 0
M  V30 2205 C 234.956 1.34691 -0.856186 0
M  V30 2206 C 235.156 1.94791 0.515615 0
M  V30 2207 O 234.212 2.18524 1.26505 0
M  V30 2208 C 235.525 2.27208 -1.9697 0
M  V30 2209 C 237.073 2.40755 -2.00016 0
M  V30 2210 C 237.548 3.36598 -3.1059 0
M  V30 2211 N 239.039 3.44164 -3.10008 0
M  V30 2212 C 239.774 4.18284 -3.92206 0
M  V30 2213 N 239.27 4.95322 -4.84384 0
M  V30 2214 N 241.063 4.13865 -3.80357 0
M  V30 2215 H 233.214 0.70144 -2.00483 0
M  V30 2216 H 235.477 0.371405 -0.872217 0
M  V30 2217 H 235.183 1.90251 -2.958 0
M  V30 2218 H 235.057 3.27485 -1.87172 0
M  V30 2219 H 237.444 2.76982 -1.01808 0
M  V30 2220 H 237.525 1.40305 -2.13888 0
M  V30 2221 H 237.169 3.01096 -4.09028 0
M  V30 2222 H 237.099 4.36918 -2.93956 0
M  V30 2223 H 239.59 2.8922 -2.43228 0
M  V30 2224 H 239.903 5.49267 -5.43623 0
M  V30 2225 H 238.248 4.94459 -4.884 0
M  V30 2226 H 241.439 3.52773 -3.07683 0
M  V30 2227 H 241.612 4.71372 -4.44649 0
M  V30 2228 N 235.018 0.912232 1.28515 0
M  V30 2229 C 236.264 0.545405 1.95328 0
M  V30 2230 C 236.597 -0.908313 1.71649 0
M  V30 2231 O 235.872 -1.64575 1.03659 0
M  V30 2232 C 236.155 0.853483 3.4984 0
M  V30 2233 C 236.008 2.35982 3.82926 0
M  V30 2234 C 237.327 0.348589 4.38717 0
M  V30 2235 H 234.446 0.199626 0.709449 0
M  V30 2236 H 237.088 1.1412 1.5191 0
M  V30 2237 H 235.238 0.34643 3.86952 0
M  V30 2238 H 236.91 2.93738 3.55691 0
M  V30 2239 H 235.153 2.81543 3.30024 0
M  V30 2240 H 235.824 2.52593 4.90816 0
M  V30 2241 H 238.3 0.78294 4.08668 0
M  V30 2242 H 237.176 0.593242 5.45685 0
M  V30 2243 H 237.437 -0.751049 4.35674 0
M  V30 2244 N 236.496 -1.42363 0.676048 0
M  V30 2245 C 237.426 -2.33497 0.0124832 0
M  V30 2246 C 238.407 -1.50748 -0.787981 0
M  V30 2247 O 239.592 -1.79346 -0.744884 0
M  V30 2248 C 236.722 -3.34377 -0.938582 0
M  V30 2249 C 235.676 -4.27289 -0.246622 0
M  V30 2250 C 235.002 -5.18386 -1.31071 0
M  V30 2251 C 236.302 -5.14916 0.875125 0
M  V30 2252 H 237.996 -2.89233 0.773593 0
M  V30 2253 H 235.542 -1.39073 0.37346 0
M  V30 2254 H 237.495 -3.97044 -1.41188 0
M  V30 2255 H 236.219 -2.76947 -1.73113 0
M  V30 2256 H 234.878 -3.66018 0.206456 0
M  V30 2257 H 234.526 -4.57282 -2.09528 0
M  V30 2258 H 234.226 -5.81378 -0.852839 0
M  V30 2259 H 235.75 -5.83929 -1.78492 0
M  V30 2260 H 237.164 -5.71262 0.482983 0
M  V30 2261 H 235.561 -5.86747 1.25887 0
M  V30 2262 H 236.631 -4.53242 1.72335 0
M  V30 2263 N 237.974 -0.419461 -1.51915 0
M  V30 2264 C 239.199 0.154572 -2.06823 0
M  V30 2265 C 239.624 1.3722 -1.28656 0
M  V30 2266 O 238.982 1.78461 -0.319583 0
M  V30 2267 C 239.03 0.473172 -3.57482 0
M  V30 2268 O 238.134 1.56255 -3.81652 0
M  V30 2269 H 237.475 0.0096924 -0.663929 0
M  V30 2270 H 240.005 -0.595642 -1.95738 0
M  V30 2271 H 240.015 0.728825 -4.01438 0
M  V30 2272 H 238.69 -0.416873 -4.13805 0
M  V30 2273 H 237.267 1.29825 -3.49571 0
M  V30 2274 N 239.452 1.56882 -0.150215 0
M  V30 2275 C 240.863 1.82995 0.370076 0
M  V30 2276 C 241.214 1.06907 1.64515 0
M  V30 2277 O 240.339 0.315369 2.1409 0
M  V30 2278 C 240.934 3.31942 0.678208 0
M  V30 2279 C 239.493 3.58625 1.14301 0
M  V30 2280 C 238.64 2.76792 0.167778 0
M  V30 2281 H 241.591 1.54209 -0.374858 0
M  V30 2282 H 241.612 3.48272 1.53254 0
M  V30 2283 H 241.124 3.87294 -0.249991 0
M  V30 2284 H 239.225 3.08664 2.08704 0
M  V30 2285 H 239.338 4.67073 1.06676 0
M  V30 2286 H 237.702 2.45972 0.661037 0
M  V30 2287 H 238.485 3.34916 -0.754069 0
M  V30 2288 N 240.93 -0.123565 1.57115 0
M  V30 2289 C 241.86 -1.15309 2.03042 0
M  V30 2290 C 242.841 -1.43454 0.914061 0
M  V30 2291 O 244.026 -1.53973 1.18347 0
M  V30 2292 C 241.156 -2.48043 2.43089 0
M  V30 2293 C 240.11 -2.3437 3.58127 0
M  V30 2294 C 239.436 -3.72026 3.84059 0
M  V30 2295 C 240.736 -1.80804 4.90007 0
M  V30 2296 H 242.43 -0.771102 2.893 0
M  V30 2297 H 239.976 -0.369479 1.39179 0
M  V30 2298 H 241.929 -3.20311 2.73823 0
M  V30 2299 H 240.653 -2.88122 1.53796 0
M  V30 2300 H 239.312 -1.64551 3.27595 0
M  V30 2301 H 238.96 -4.09582 2.91979 0
M  V30 2302 H 238.66 -3.63732 4.6149 0
M  V30 2303 H 240.184 -4.45806 4.1724 0
M  V30 2304 H 241.598 -2.42886 5.19307 0
M  V30 2305 H 239.995 -1.83343 5.71407 0
M  V30 2306 H 241.065 -0.76528 4.78823 0
M  V30 2307 N 242.408 -1.52605 -0.393616 0
M  V30 2308 C 243.341 -1.71798 -1.50202 0
M  V30 2309 C 244.319 -0.565743 -1.52441 0
M  V30 2310 O 245.503 -0.794987 -1.70916 0
M  V30 2311 C 242.63 -1.7714 -2.88685 0
M  V30 2312 C 241.676 -2.98845 -3.04292 0
M  V30 2313 S 242.509 -4.58909 -2.75976 0
M  V30 2314 C 243.665 -4.6706 -4.1666 0
M  V30 2315 H 243.898 -2.65542 -1.33696 0
M  V30 2316 H 241.431 -1.42839 -0.586195 0
M  V30 2317 H 243.389 -1.80903 -3.68489 0
M  V30 2318 H 242.05 -0.844969 -3.02521 0
M  V30 2319 H 241.243 -2.99111 -4.05646 0
M  V30 2320 H 240.845 -2.9305 -2.32374 0
M  V30 2321 H 243.137 -4.45391 -5.10523 0
M  V30 2322 H 244.08 -5.6905 -4.21412 0
M  V30 2323 H 244.488 -3.95944 -4.02354 0
M  V30 2324 N 243.887 0.651787 -1.4349 0
M  V30 2325 C 245.112 1.44434 -1.48841 0
M  V30 2326 C 245.537 1.8779 -0.107955 0
M  V30 2327 O 244.895 1.57464 0.898602 0
M  V30 2328 C 244.943 2.65458 -2.44059 0
M  V30 2329 O 244.047 3.64566 -1.92784 0
M  V30 2330 H 243.388 0.433005 -0.503391 0
M  V30 2331 H 245.918 0.797451 -1.88419 0
M  V30 2332 H 245.928 3.13255 -2.6141 0
M  V30 2333 H 244.603 2.33244 -3.4434 0
M  V30 2334 H 243.18 3.23716 -1.851 0
M  V30 2335 N 245.365 1.30045 0.890287 0
M  V30 2336 C 246.781 1.08261 1.17268 0
M  V30 2337 C 246.981 -0.160063 2.00863 0
M  V30 2338 O 246.037 -0.855181 2.37577 0
M  V30 2339 C 247.35 2.34323 1.8845 0
M  V30 2340 C 248.898 2.39735 2.01237 0
M  V30 2341 C 249.373 3.65625 2.7583 0
M  V30 2342 N 250.864 3.66402 2.83379 0
M  V30 2343 C 251.599 4.60498 3.41657 0
M  V30 2344 N 251.095 5.64933 4.01026 0
M  V30 2345 N 252.888 4.48051 3.39421 0
M  V30 2346 H 245.039 2.09777 0.332762 0
M  V30 2347 H 247.302 0.92446 0.209948 0
M  V30 2348 H 247.008 3.2498 1.34465 0
M  V30 2349 H 246.882 2.4256 2.88867 0
M  V30 2350 H 249.269 1.4956 2.54393 0
M  V30 2351 H 249.35 2.35476 0.999232 0
M  V30 2352 H 248.994 4.56156 2.23347 0
M  V30 2353 H 248.924 3.67144 3.77509 0
M  V30 2354 H 251.415 2.90896 2.41222 0
M  V30 2355 H 251.728 6.32841 4.43545 0
M  V30 2356 H 250.073 5.68732 3.99461 0
M  V30 2357 H 253.264 3.65649 2.92264 0
M  V30 2358 H 253.437 5.21565 3.84544 0
M  V30 2359 N 246.843 -1.10192 1.12674 0
M  V30 2360 C 248.068 -1.86523 0.906853 0
M  V30 2361 C 248.493 -1.80221 -0.538711 0
M  V30 2362 O 247.851 -1.17396 -1.38158 0
M  V30 2363 C 247.899 -3.32758 1.3894 0
M  V30 2364 O 247.003 -4.08449 0.5695 0
M  V30 2365 H 246.344 -0.578678 0.325619 0
M  V30 2366 H 248.874 -1.39203 1.49946 0
M  V30 2367 H 248.884 -3.83608 1.38958 0
M  V30 2368 H 247.559 -3.36661 2.44197 0
M  V30 2369 H 246.136 -3.67427 0.636528 0
M  V30 2370 N 248.321 -0.919034 -1.28029 0
M  V30 2371 C 249.569 -0.553838 -1.94363 0
M  V30 2372 C 249.89 0.906357 -1.72656 0
M  V30 2373 O 249.16 1.64143 -1.0693 0
M  V30 2374 H 247.74 -0.201834 -0.719216 0
M  V30 2375 H 250.402 -1.16954 -1.55909 0
M  V30 2376 H 249.498 -0.752758 -3.02886 0
M  V30 2377 N 249.799 1.42003 -0.683588 0
M  V30 2378 C 251.039 2.03282 -0.213513 0
M  V30 2379 C 251.403 1.52924 1.16097 0
M  V30 2380 O 252.604 2.06048 1.7262 0
M  V30 2381 C 250.875 3.56483 -0.255856 0
M  V30 2382 S 252.434 4.3857 0.14193 0
M  V30 2383 H 249.252 0.705659 -0.0869853 0
M  V30 2384 H 251.854 1.73619 -0.8987 0
M  V30 2385 H 250.558 3.90631 -1.25841 0
M  V30 2386 H 250.089 3.90831 0.448875 0
M  V30 2387 H 252.104 4.76828 1.37295 0
M  V30 2388 N 251.277 0.427512 1.51691 0
M  V30 2389 C 252.224 -0.388867 2.275 0
M  V30 2390 C 253.194 -1.02532 1.30677 0
M  V30 2391 O 254.379 -1.0461 1.59566 0
M  V30 2392 C 251.519 -1.48954 3.11298 0
M  V30 2393 C 250.632 -0.872194 4.23104 0
M  V30 2394 C 249.767 -1.94709 4.94228 0
M  V30 2395 C 248.806 -1.30766 5.97969 0
M  V30 2396 N 247.943 -2.32349 6.62539 0
M  V30 2397 H 252.783 0.263997 2.96828 0
M  V30 2398 H 250.32 0.142033 1.46413 0
M  V30 2399 H 252.278 -2.13887 3.58201 0
M  V30 2400 H 250.908 -2.11217 2.44105 0
M  V30 2401 H 249.96 -0.111419 3.80237 0
M  V30 2402 H 251.272 -0.365264 4.97461 0
M  V30 2403 H 250.426 -2.67327 5.44629 0
M  V30 2404 H 249.165 -2.48773 4.1948 0
M  V30 2405 H 248.17 -0.566902 5.4687 0
M  V30 2406 H 249.395 -0.774483 6.74669 0
M  V30 2407 H 247.341 -2.85511 5.90609 0
M  V30 2408 H 247.258 -1.8652 7.3263 0
M  V30 2409 H 248.526 -3.04481 7.17574 0
M  V30 2410 N 252.755 -1.56801 0.158532 0
M  V30 2411 C 254.001 -1.96781 -0.490405 0
M  V30 2412 C 254.334 -1.04397 -1.63753 0
M  V30 2413 O 253.609 -0.0885805 -1.94298 0
M  V30 2414 C 253.892 -3.4635 -0.985594 0
M  V30 2415 C 253.745 -4.49512 0.160824 0
M  V30 2416 C 255.064 -3.98697 -1.86355 0
M  V30 2417 H 252.183 -0.715482 -0.176788 0
M  V30 2418 H 254.825 -1.88451 0.242088 0
M  V30 2419 H 252.975 -3.53579 -1.60978 0
M  V30 2420 H 254.647 -4.54353 0.797537 0
M  V30 2421 H 252.89 -4.26013 0.818256 0
M  V30 2422 H 253.561 -5.51531 -0.227569 0
M  V30 2423 H 256.037 -3.94019 -1.33746 0
M  V30 2424 H 254.913 -5.03792 -2.17909 0
M  V30 2425 H 255.174 -3.41744 -2.8047 0
M  V30 2426 N 254.233 0.115231 -1.57178 0
M  V30 2427 C 255.481 0.820727 -1.84685 0
M  V30 2428 C 255.802 1.80237 -0.744279 0
M  V30 2429 O 255.072 1.94529 0.231375 0
M  V30 2430 H 253.652 0.306084 -0.681411 0
M  V30 2431 H 256.314 0.101656 -1.94635 0
M  V30 2432 H 255.41 1.36366 -2.80733 0
M  V30 2433 N 255.711 1.52812 0.385517 0
M  V30 2434 C 256.988 1.5861 1.14465 0
M  V30 2435 C 257.368 0.381402 2.07626 0
M  V30 2436 O 256.716 -0.629999 2.19643 0
M  V30 2437 C 256.926 2.92664 1.90128 0
M  V30 2438 C 258.274 3.46526 2.45367 0
M  V30 2439 O 259.298 2.94562 2.0028 0
M  V30 2440 O 258.157 4.37323 3.27736 0
M  V30 2441 H 255.251 0.639855 0.523941 0
M  V30 2442 H 257.797 1.65149 0.390389 0
M  V30 2443 H 256.569 3.71788 1.22022 0
M  V30 2444 H 256.192 2.89527 2.72507 0
M  V30 2445 N 257.189 -0.644168 1.43834 0
M  V30 2446 C 258.414 -1.43642 1.49605 0
M  V30 2447 C 258.839 -1.8773 0.117913 0
M  V30 2448 O 258.197 -1.57938 -0.890239 0
M  V30 2449 C 258.245 -2.6416 2.45463 0
M  V30 2450 O 257.349 -3.63538 1.94714 0
M  V30 2451 H 256.69 -0.430329 0.50568 0
M  V30 2452 H 259.22 -0.787448 1.8884 0
M  V30 2453 H 259.23 -3.11864 2.63068 0
M  V30 2454 H 257.905 -2.31414 3.45572 0
M  V30 2455 H 256.482 -3.2273 1.86814 0
M  V30 2456 N 258.668 -1.30515 -0.883378 0
M  V30 2457 C 259.893 -1.22487 -1.67367 0
M  V30 2458 C 260.318 0.208767 -1.86938 0
M  V30 2459 O 259.676 1.15015 -1.40148 0
M  V30 2460 C 259.724 -1.96041 -3.02655 0
M  V30 2461 O 258.828 -1.28859 -3.91751 0
M  V30 2462 H 258.169 -0.423573 -0.511353 0
M  V30 2463 H 260.699 -1.72362 -1.10239 0
M  V30 2464 H 260.709 -2.05124 -3.52687 0
M  V30 2465 H 259.384 -3.00307 -2.8773 0
M  V30 2466 H 257.961 -1.28141 -3.50192 0
M  V30 2467 N 260.146 1.09593 -1.13257 0
M  V30 2468 C 261.394 1.81375 -0.891492 0
M  V30 2469 C 261.715 1.86049 0.584009 0
M  V30 2470 O 260.985 1.34481 1.42449 0
M  V30 2471 H 259.565 0.671708 -0.326828 0
M  V30 2472 H 262.227 1.3256 -1.42877 0
M  V30 2473 H 261.323 2.84612 -1.28071 0
M  V30 2474 N 261.624 0.925811 1.2754 0
M  V30 2475 C 262.852 0.581509 1.9856 0
M  V30 2476 C 263.267 -0.840041 1.69082 0
M  V30 2477 O 262.624 -1.55805 0.950312 0
M  V30 2478 C 262.675 0.795589 3.52637 0
M  V30 2479 O 262.396 2.16121 3.81082 0
M  V30 2480 C 263.897 0.459744 4.4091 0
M  V30 2481 H 261.117 0.220538 0.633722 0
M  V30 2482 H 263.661 1.24232 1.6244 0
M  V30 2483 H 261.816 0.18161 3.86974 0
M  V30 2484 H 262.23 2.2098 4.75676 0
M  V30 2485 H 263.704 0.660244 5.48037 0
M  V30 2486 H 264.181 -0.604625 4.35018 0
M  V30 2487 H 264.787 1.05178 4.12089 0
M  V30 2488 N 263.102 -1.41638 0.69111 0
M  V30 2489 C 264.065 -2.29178 0.0319786 0
M  V30 2490 C 265.065 -1.44153 -0.712496 0
M  V30 2491 O 266.255 -1.65354 -0.548053 0
M  V30 2492 C 263.387 -3.26952 -0.965161 0
M  V30 2493 H 264.58 -2.88959 0.802681 0
M  V30 2494 H 262.133 -1.4955 0.454356 0
M  V30 2495 H 262.868 -2.72142 -1.76378 0
M  V30 2496 H 262.653 -3.89685 -0.434522 0
M  V30 2497 H 264.143 -3.92561 -1.42428 0
M  V30 2498 N 264.58 -0.43555 -1.51462 0
M  V30 2499 C 265.543 0.365137 -2.26273 0
M  V30 2500 C 266.543 0.951227 -1.29647 0
M  V30 2501 O 267.733 0.825958 -1.53374 0
M  V30 2502 C 264.865 1.51645 -3.05314 0
M  V30 2503 H 266.058 -0.290474 -2.9849 0
M  V30 2504 H 263.611 -0.188676 -1.55157 0
M  V30 2505 H 264.346 2.20816 -2.3751 0
M  V30 2506 H 264.131 1.10238 -3.76284 0
M  V30 2507 H 265.621 2.08218 -3.61987 0
M  V30 2508 N 266.058 1.56714 -0.166846 0
M  V30 2509 C 267.021 2.16539 0.751232 0
M  V30 2510 C 268.021 1.11228 1.16125 0
M  V30 2511 O 269.211 1.36765 1.07894 0
M  V30 2512 C 266.343 2.74462 2.02196 0
M  V30 2513 H 267.536 2.99013 0.230499 0
M  V30 2514 H 265.089 1.56081 0.0826982 0
M  V30 2515 H 265.824 1.95709 2.58589 0
M  V30 2516 H 265.609 3.51527 1.73698 0
M  V30 2517 H 267.099 3.20489 2.67725 0
M  V30 2518 N 267.536 -0.106894 1.57237 0
M  V30 2519 C 268.486 -1.1366 1.9765 0
M  V30 2520 C 269.47 -1.36416 0.853203 0
M  V30 2521 O 270.662 -1.37305 1.11697 0
M  V30 2522 C 267.791 -2.46 2.39455 0
M  V30 2523 C 266.877 -2.26668 3.58445 0
M  V30 2524 N 267.268 -1.77176 4.73754 0
M  V30 2525 C 265.566 -2.57279 3.64312 0
M  V30 2526 C 266.267 -1.71836 5.5574 0
M  V30 2527 N 265.243 -2.16623 4.98573 0
M  V30 2528 H 269.045 -0.74669 2.84256 0
M  V30 2529 H 266.559 -0.314483 1.59326 0
M  V30 2530 H 268.556 -3.2049 2.6663 0
M  V30 2531 H 267.216 -2.85738 1.54219 0
M  V30 2532 H 268.227 -1.46545 4.96734 0
M  V30 2533 H 264.904 -3.00622 2.89711 0
M  V30 2534 H 266.294 -1.34723 6.58255 0
M  V30 2535 N 269.014 -1.53014 -0.377408 0
M  V30 2536 C 269.961 -1.78616 -1.46168 0
M  V30 2537 C 270.931 -0.629917 -1.53692 0
M  V30 2538 O 272.116 -0.870861 -1.69766 0
M  V30 2539 C 269.256 -1.97123 -2.8326 0
M  V30 2540 C 268.369 -3.24831 -2.84796 0
M  V30 2541 C 267.504 -3.33591 -4.13389 0
M  V30 2542 C 266.543 -4.55377 -4.09021 0
M  V30 2543 N 265.68 -4.61355 -5.29241 0
M  V30 2544 H 270.52 -2.71142 -1.23637 0
M  V30 2545 H 268.057 -1.34326 -0.599577 0
M  V30 2546 H 270.015 -2.05839 -3.62886 0
M  V30 2547 H 268.645 -1.07946 -3.04216 0
M  V30 2548 H 267.697 -3.25128 -1.97474 0
M  V30 2549 H 269.009 -4.14523 -2.77439 0
M  V30 2550 H 268.163 -3.41554 -5.01424 0
M  V30 2551 H 266.902 -2.41894 -4.23484 0
M  V30 2552 H 265.907 -4.47527 -3.19373 0
M  V30 2553 H 267.132 -5.48402 -4.00539 0
M  V30 2554 H 265.078 -3.72554 -5.39944 0
M  V30 2555 H 264.995 -5.44935 -5.24006 0
M  V30 2556 H 266.263 -4.73586 -6.19141 0
M  V30 2557 N 270.492 0.636531 -1.44174 0
M  V30 2558 C 271.738 1.39826 -1.4689 0
M  V30 2559 C 272.071 1.93947 -0.0990585 0
M  V30 2560 O 271.346 1.73325 0.882544 0
M  V30 2561 C 271.629 2.56751 -2.5249 0
M  V30 2562 C 271.482 2.08014 -3.98811 0
M  V30 2563 C 272.801 3.58946 -2.54649 0
M  V30 2564 H 269.92 0.507075 -0.53483 0
M  V30 2565 H 272.562 0.720188 -1.75822 0
M  V30 2566 H 270.712 3.14597 -2.2795 0
M  V30 2567 H 272.384 1.5504 -4.34466 0
M  V30 2568 H 270.627 1.39242 -4.10846 0
M  V30 2569 H 271.298 2.92169 -4.68339 0
M  V30 2570 H 273.774 3.1089 -2.76563 0
M  V30 2571 H 272.65 4.38286 -3.3045 0
M  V30 2572 H 272.911 4.12655 -1.58646 0
M  V30 2573 N 271.97 1.30982 0.876444 0
M  V30 2574 C 272.9 1.20668 1.99903 0
M  V30 2575 C 273.881 0.095354 1.69833 0
M  V30 2576 O 275.066 0.27885 1.92188 0
M  V30 2577 C 272.196 0.90655 3.3526 0
M  V30 2578 C 271.15 1.97675 3.79617 0
M  V30 2579 C 270.476 1.52943 5.1236 0
M  V30 2580 C 271.776 3.389 3.97422 0
M  V30 2581 H 273.47 2.14586 2.0879 0
M  V30 2582 H 271.016 1.03308 1.00317 0
M  V30 2583 H 272.969 0.821025 4.13324 0
M  V30 2584 H 271.693 -0.0682969 3.26529 0
M  V30 2585 H 270.352 2.05205 3.03787 0
M  V30 2586 H 270 0.54262 5.00065 0
M  V30 2587 H 269.7 2.24532 5.43009 0
M  V30 2588 H 271.224 1.45786 5.92941 0
M  V30 2589 H 272.638 3.34081 4.659 0
M  V30 2590 H 271.035 4.0865 4.3946 0
M  V30 2591 H 272.105 3.80163 3.01006 0
M  V30 2592 N 273.449 -1.08991 1.13837 0
M  V30 2593 C 274.86 -1.62746 0.914917 0
M  V30 2594 C 275.211 -1.88403 -0.547594 0
M  V30 2595 O 274.336 -1.63706 -1.41525 0
M  V30 2596 C 274.931 -2.95662 1.65437 0
M  V30 2597 C 273.49 -3.46225 1.47666 0
M  V30 2598 C 272.637 -2.20562 1.6807 0
M  V30 2599 H 275.588 -0.922946 1.29102 0
M  V30 2600 H 275.609 -3.63825 1.11407 0
M  V30 2601 H 275.121 -2.76956 2.71877 0
M  V30 2602 H 273.222 -3.70046 0.435478 0
M  V30 2603 H 273.335 -4.23368 2.24268 0
M  V30 2604 H 271.699 -2.29439 1.10589 0
M  V30 2605 H 272.482 -2.0437 2.7584 0
M  V30 2606 N 274.927 -0.932562 -1.27047 0
M  V30 2607 C 276.343 -0.633544 -1.46487 0
M  V30 2608 C 276.543 0.815746 -1.84249 0
M  V30 2609 O 275.599 1.59319 -1.95892 0
M  V30 2610 C 276.912 -1.58758 -2.55375 0
M  V30 2611 C 278.46 -1.59634 -2.69232 0
M  V30 2612 C 278.935 -2.53747 -3.81283 0
M  V30 2613 N 280.426 -2.51982 -3.88664 0
M  V30 2614 C 281.161 -3.21491 -4.74796 0
M  V30 2615 N 280.657 -4.00395 -5.65381 0
M  V30 2616 N 282.45 -3.10485 -4.68568 0
M  V30 2617 H 274.601 -1.86946 -1.00821 0
M  V30 2618 H 276.864 -0.802897 -0.504044 0
M  V30 2619 H 276.57 -2.62172 -2.34432 0
M  V30 2620 H 276.444 -1.33301 -3.52861 0
M  V30 2621 H 278.831 -0.569488 -2.89553 0
M  V30 2622 H 278.912 -1.89142 -1.72218 0
M  V30 2623 H 278.556 -3.56545 -3.61715 0
M  V30 2624 H 278.486 -2.21532 -4.77735 0
M  V30 2625 H 280.977 -1.94681 -3.23895 0
M  V30 2626 H 281.29 -4.50406 -6.27976 0
M  V30 2627 H 279.635 -4.04498 -5.65161 0
M  V30 2628 H 282.826 -2.48331 -3.96799 0
M  V30 2629 H 282.999 -3.64925 -5.35475 0
M  V30 2630 N 276.405 1.4127 -0.698611 0
M  V30 2631 C 277.653 2.00782 -0.230409 0
M  V30 2632 C 277.974 1.5562 1.17505 0
M  V30 2633 O 277.244 0.78815 1.79346 0
M  V30 2634 H 275.824 0.742464 -0.0821944 0
M  V30 2635 H 278.486 1.72852 -0.90045 0
M  V30 2636 H 277.582 3.11095 -0.25021 0
M  V30 2637 N 277.883 0.443576 1.51229 0
M  V30 2638 C 278.813 -0.355142 2.30783 0
M  V30 2639 C 279.794 -1.0154 1.36468 0
M  V30 2640 O 280.979 -1.01785 1.65389 0
M  V30 2641 C 278.109 -1.45312 3.15439 0
M  V30 2642 C 277.063 -0.916002 4.18083 0
M  V30 2643 C 276.389 -2.1102 4.91299 0
M  V30 2644 C 277.689 0.0538602 5.22272 0
M  V30 2645 H 279.383 0.308767 2.97804 0
M  V30 2646 H 276.929 0.149937 1.43217 0
M  V30 2647 H 278.882 -2.01914 3.69876 0
M  V30 2648 H 277.606 -2.14541 2.46252 0
M  V30 2649 H 276.265 -0.372145 3.64706 0
M  V30 2650 H 275.913 -2.78882 4.18609 0
M  V30 2651 H 275.613 -1.75717 5.60712 0
M  V30 2652 H 277.137 -2.68164 5.48562 0
M  V30 2653 H 278.551 -0.422069 5.71744 0
M  V30 2654 H 276.948 0.319776 5.99247 0
M  V30 2655 H 278.018 0.98858 4.74716 0
M  V30 2656 N 279.361 -1.56624 0.175154 0
M  V30 2657 C 280.586 -2.01813 -0.478137 0
M  V30 2658 C 281.011 -1.05457 -1.55757 0
M  V30 2659 O 280.369 -0.0347439 -1.81267 0
M  V30 2660 C 280.417 -3.45581 -1.02987 0
M  V30 2661 O 279.521 -3.52305 -2.14371 0
M  V30 2662 H 278.862 -0.65413 -0.114059 0
M  V30 2663 H 281.392 -2.02673 0.280173 0
M  V30 2664 H 281.402 -3.84965 -1.35151 0
M  V30 2665 H 280.077 -4.1521 -0.239556 0
M  V30 2666 H 278.654 -3.24783 -1.83222 0
M  V30 2667 N 280.839 0.0985539 -1.57292 0
M  V30 2668 C 282.25 0.653457 -1.74891 0
M  V30 2669 C 282.601 1.7929 -0.796838 0
M  V30 2670 O 281.726 2.16385 0.0254886 0
M  V30 2671 C 282.321 1.19216 -3.17133 0
M  V30 2672 C 280.88 1.69316 -3.36168 0
M  V30 2673 C 280.027 0.601294 -2.70702 0
M  V30 2674 H 282.978 -0.127497 -1.58187 0
M  V30 2675 H 282.999 2.06154 -3.19814 0
M  V30 2676 H 282.511 0.362635 -3.86402 0
M  V30 2677 H 280.612 2.5468 -2.71972 0
M  V30 2678 H 280.725 1.78853 -4.44464 0
M  V30 2679 H 279.089 1.0399 -2.32504 0
M  V30 2680 H 279.872 -0.217592 -3.4261 0
M  V30 2681 N 282.317 1.53212 0.369288 0
M  V30 2682 C 283.28 1.7872 1.43498 0
M  V30 2683 C 284.28 0.657554 1.46741 0
M  V30 2684 O 285.47 0.925736 1.47566 0
M  V30 2685 C 282.602 1.90591 2.82645 0
M  V30 2686 H 283.795 2.73894 1.22156 0
M  V30 2687 H 281.348 1.44233 0.602203 0
M  V30 2688 H 282.083 0.974709 3.09306 0
M  V30 2689 H 281.868 2.72751 2.8169 0
M  V30 2690 H 283.358 2.11931 3.59826 0
M  V30 2691 N 283.795 -0.628877 1.44509 0
M  V30 2692 C 285.211 -0.947305 1.28446 0
M  V30 2693 C 285.411 -2.00275 0.221872 0
M  V30 2694 O 284.467 -2.49447 -0.391471 0
M  V30 2695 C 285.78 -1.40843 2.65676 0
M  V30 2696 C 287.328 -1.52379 2.73404 0
M  V30 2697 C 287.803 -2.01875 4.11109 0
M  V30 2698 N 289.294 -2.09142 4.13296 0
M  V30 2699 C 290.029 -2.48615 5.16699 0
M  V30 2700 N 289.525 -2.87209 6.30462 0
M  V30 2701 N 291.318 -2.48768 5.04054 0
M  V30 2702 H 283.469 0.0690977 2.12288 0
M  V30 2703 H 285.732 -0.0317164 0.947469 0
M  V30 2704 H 285.438 -0.707206 3.44516 0
M  V30 2705 H 285.312 -2.37902 2.92716 0
M  V30 2706 H 287.699 -2.21598 1.9488 0
M  V30 2707 H 287.78 -0.536898 2.50102 0
M  V30 2708 H 287.424 -1.3325 4.90109 0
M  V30 2709 H 287.354 -3.0144 4.31789 0
M  V30 2710 H 289.845 -1.81991 3.31191 0
M  V30 2711 H 290.158 -3.16149 7.05174 0
M  V30 2712 H 288.503 -2.84955 6.33897 0
M  V30 2713 H 291.694 -2.18009 4.14234 0
M  V30 2714 H 291.867 -2.79207 5.84763 0
M  V30 2715 N 285.273 -1.31445 -0.869486 0
M  V30 2716 C 286.205 -1.14955 -1.98287 0
M  V30 2717 C 287.218 -0.0885037 -1.62559 0
M  V30 2718 O 288.407 -0.336044 -1.75308 0
M  V30 2719 C 285.507 -0.734255 -3.3085 0
M  V30 2720 C 284.68 -1.88042 -3.94917 0
M  V30 2721 C 283.739 -1.4511 -5.05796 0
M  V30 2722 O 282.765 -2.16082 -5.2659 0
M  V30 2723 N 283.967 -0.338763 -5.79511 0
M  V30 2724 H 286.732 -2.10856 -2.12979 0
M  V30 2725 H 284.293 -1.23786 -1.04349 0
M  V30 2726 H 286.285 -0.42975 -4.02412 0
M  V30 2727 H 284.855 0.133158 -3.12316 0
M  V30 2728 H 284.075 -2.35222 -3.1633 0
M  V30 2729 H 285.363 -2.6481 -4.34457 0
M  V30 2730 H 284.761 0.252274 -5.65137 0
M  V30 2731 H 283.318 -0.0937925 -6.51733 0
M  V30 2732 N 286.751 1.08385 -1.14413 0
M  V30 2733 C 287.681 2.17321 -0.854044 0
M  V30 2734 C 288.662 1.69024 0.191049 0
M  V30 2735 O 289.847 1.94141 0.0476779 0
M  V30 2736 C 286.977 3.45719 -0.330983 0
M  V30 2737 C 285.931 4.07409 -1.31155 0
M  V30 2738 C 285.257 5.30762 -0.64778 0
M  V30 2739 C 286.557 4.48665 -2.67388 0
M  V30 2740 H 288.251 2.41845 -1.76498 0
M  V30 2741 H 285.797 1.16233 -0.850051 0
M  V30 2742 H 287.75 4.21241 -0.115645 0
M  V30 2743 H 286.474 3.2075 0.615381 0
M  V30 2744 H 285.133 3.33919 -1.51306 0
M  V30 2745 H 284.781 5.02078 0.304398 0
M  V30 2746 H 284.481 5.72992 -1.30207 0
M  V30 2747 H 286.005 6.08998 -0.441972 0
M  V30 2748 H 287.419 5.15364 -2.51143 0
M  V30 2749 H 285.816 5.01814 -3.29093 0
M  V30 2750 H 286.886 3.60543 -3.24248 0
M  V30 2751 N 288.23 0.939286 1.26551 0
M  V30 2752 C 289.16 0.465044 2.28822 0
M  V30 2753 C 290.141 -0.480692 1.63167 0
M  V30 2754 O 291.326 -0.382955 1.90387 0
M  V30 2755 C 288.456 -0.27234 3.46231 0
M  V30 2756 C 287.41 0.58666 4.2396 0
M  V30 2757 C 286.736 -0.280573 5.33963 0
M  V30 2758 C 288.036 1.85704 4.88171 0
M  V30 2759 H 289.73 1.31979 2.68741 0
M  V30 2760 H 287.276 0.636061 1.29191 0
M  V30 2761 H 289.229 -0.615133 4.16886 0
M  V30 2762 H 287.953 -1.16121 3.0526 0
M  V30 2763 H 286.612 0.91232 3.55067 0
M  V30 2764 H 286.26 -1.16874 4.89234 0
M  V30 2765 H 285.96 0.29076 5.8688 0
M  V30 2766 H 287.484 -0.618678 6.07458 0
M  V30 2767 H 288.898 1.58161 5.51052 0
M  V30 2768 H 287.295 2.37279 5.51197 0
M  V30 2769 H 288.365 2.56957 4.11219 0
M  V30 2770 N 289.708 -1.40897 0.706093 0
M  V30 2771 C 290.638 -2.33418 0.0620085 0
M  V30 2772 C 291.619 -1.52385 -0.755827 0
M  V30 2773 O 292.804 -1.80886 -0.706674 0
M  V30 2774 C 289.934 -3.36293 -0.867445 0
M  V30 2775 C 288.888 -4.27716 -0.155932 0
M  V30 2776 C 288.214 -5.2105 -1.20046 0
M  V30 2777 C 289.514 -5.12944 0.984149 0
M  V30 2778 H 291.208 -2.87527 0.83477 0
M  V30 2779 H 288.754 -1.38249 0.402875 0
M  V30 2780 H 290.707 -3.99949 -1.32735 0
M  V30 2781 H 289.431 -2.80556 -1.67199 0
M  V30 2782 H 288.09 -3.65498 0.284047 0
M  V30 2783 H 287.738 -4.61624 -1.99781 0
M  V30 2784 H 287.438 -5.83056 -0.729328 0
M  V30 2785 H 288.962 -5.87584 -1.66066 0
M  V30 2786 H 290.376 -5.70109 0.604048 0
M  V30 2787 H 288.773 -5.83945 1.38304 0
M  V30 2788 H 289.843 -4.49485 1.81911 0
M  V30 2789 N 291.186 -0.45159 -1.50991 0
M  V30 2790 C 292.597 0.00818571 -1.86698 0
M  V30 2791 C 292.948 1.40661 -1.3678 0
M  V30 2792 O 292.073 2.0391 -0.724546 0
M  V30 2793 C 292.668 0.0216303 -3.38793 0
M  V30 2794 C 291.227 0.425865 -3.73983 0
M  V30 2795 C 290.374 -0.372163 -2.74791 0
M  V30 2796 H 293.325 -0.666785 -1.44013 0
M  V30 2797 H 293.346 0.828078 -3.7138 0
M  V30 2798 H 292.858 -0.996288 -3.75094 0
M  V30 2799 H 290.959 1.44886 -3.43277 0
M  V30 2800 H 291.072 0.140761 -4.78893 0
M  V30 2801 H 289.436 0.171498 -2.54122 0
M  V30 2802 H 290.219 -1.38922 -3.13935 0
M  V30 2803 N 292.664 1.56529 -0.183458 0
M  V30 2804 C 293.627 2.17324 0.728223 0
M  V30 2805 C 294.627 1.12453 1.14939 0
M  V30 2806 O 295.817 1.37902 1.06437 0
M  V30 2807 C 292.949 2.76591 1.99274 0
M  V30 2808 H 294.142 2.99241 0.198772 0
M  V30 2809 H 291.695 1.5616 0.0661391 0
M  V30 2810 H 292.43 1.98441 2.56499 0
M  V30 2811 H 292.215 3.5335 1.69959 0
M  V30 2812 H 293.705 3.23311 2.6431 0
M  V30 2813 N 294.142 -0.090211 1.57342 0
M  V30 2814 C 295.367 -0.810082 1.90925 0
M  V30 2815 C 295.792 -1.71248 0.778187 0
M  V30 2816 O 295.15 -1.79278 -0.269991 0
M  V30 2817 C 295.198 -1.59529 3.23393 0
M  V30 2818 O 294.302 -2.70461 3.11327 0
M  V30 2819 H 293.643 -0.222231 0.625707 0
M  V30 2820 H 296.173 -0.0639716 2.045 0
M  V30 2821 H 296.183 -1.97847 3.5682 0
M  V30 2822 H 294.858 -0.933055 4.05299 0
M  V30 2823 H 293.435 -2.35135 2.89423 0
M  V30 2824 N 295.62 -1.53406 -0.361157 0
M  V30 2825 C 296.53 -1.83122 -1.4664 0
M  V30 2826 C 297.546 -0.719943 -1.58407 0
M  V30 2827 O 298.722 -1.01046 -1.74218 0
M  V30 2828 C 295.787 -2.01891 -2.81853 0
M  V30 2829 C 294.848 -3.25784 -2.79577 0
M  V30 2830 C 294.081 -3.43648 -4.0834 0
M  V30 2831 O 294.304 -2.65714 -5.0473 0
M  V30 2832 O 293.238 -4.37018 -4.13883 0
M  V30 2833 H 297.064 -2.7703 -1.24451 0
M  V30 2834 H 294.649 -1.38841 -0.551678 0
M  V30 2835 H 296.531 -2.15782 -3.61962 0
M  V30 2836 H 295.206 -1.11173 -3.0401 0
M  V30 2837 H 294.113 -3.17312 -1.98151 0
M  V30 2838 H 295.446 -4.16439 -2.62373 0
M  V30 2839 N 297.098 0.621204 -1.44841 0
M  V30 2840 C 298.323 1.41244 -1.51871 0
M  V30 2841 C 298.748 1.87519 -0.147764 0
M  V30 2842 O 298.106 1.59334 0.865 0
M  V30 2843 C 298.154 2.60221 -2.49634 0
M  V30 2844 O 297.258 3.60395 -2.00473 0
M  V30 2845 H 296.599 0.42223 -0.512463 0
M  V30 2846 H 299.129 0.757305 -1.90069 0
M  V30 2847 H 299.139 3.0764 -2.67996 0
M  V30 2848 H 297.814 2.25887 -3.4921 0
M  V30 2849 H 296.391 3.19717 -1.91925 0
M  V30 2850 N 298.576 1.31904 0.862503 0
M  V30 2851 C 299.987 1.19803 1.43193 0
M  V30 2852 C 300.338 -0.192567 1.95253 0
M  V30 2853 O 299.463 -1.09081 1.86896 0
M  V30 2854 C 300.058 2.16883 2.60283 0
M  V30 2855 C 298.617 2.08692 3.13248 0
M  V30 2856 C 297.764 2.05691 1.85975 0
M  V30 2857 H 300.715 1.43846 0.670365 0
M  V30 2858 H 300.736 1.76278 3.37204 0
M  V30 2859 H 300.248 3.18083 2.22363 0
M  V30 2860 H 298.349 1.10713 3.55771 0
M  V30 2861 H 298.462 2.9815 3.75025 0
M  V30 2862 H 296.826 1.50814 2.05249 0
M  V30 2863 H 297.609 3.08659 1.50282 0
M  V30 2864 N 300.054 -1.07777 1.14986 0
M  V30 2865 C 301.004 -2.13082 0.811181 0
M  V30 2866 C 301.988 -1.59619 -0.202597 0
M  V30 2867 O 303.18 -1.77 -0.00398275 0
M  V30 2868 C 300.309 -3.42009 0.297439 0
M  V30 2869 C 299.395 -4.02337 1.34112 0
M  V30 2870 N 299.786 -4.36982 2.54716 0
M  V30 2871 C 298.084 -4.29752 1.19285 0
M  V30 2872 C 298.785 -4.84729 3.21578 0
M  V30 2873 N 297.761 -4.83233 2.48972 0
M  V30 2874 H 301.563 -2.37696 1.72853 0
M  V30 2875 H 299.077 -1.25173 1.03468 0
M  V30 2876 H 301.074 -4.16884 0.0364777 0
M  V30 2877 H 299.734 -3.18841 -0.614022 0
M  V30 2878 H 300.745 -4.27807 2.91894 0
M  V30 2879 H 297.422 -4.16106 0.340926 0
M  V30 2880 H 298.812 -5.20863 4.24442 0
M  V30 2881 N 301.532 -0.945985 -1.26051 0
M  V30 2882 C 302.778 -0.606539 -1.94146 0
M  V30 2883 C 303.133 0.84586 -1.72809 0
M  V30 2884 O 302.426 1.59781 -1.05738 0
M  V30 2885 C 302.62 -0.890475 -3.46129 0
M  V30 2886 C 302.449 -2.36892 -3.82246 0
M  V30 2887 C 301.219 -3.02494 -4.04753 0
M  V30 2888 C 303.417 -3.34772 -3.90425 0
M  V30 2889 N 301.399 -4.40302 -4.27794 0
M  V30 2890 C 302.77 -4.57855 -4.18054 0
M  V30 2891 C 304.825 -3.2973 -3.73072 0
M  V30 2892 C 303.528 -5.76522 -4.30134 0
M  V30 2893 C 305.554 -4.47727 -3.86386 0
M  V30 2894 C 304.916 -5.69593 -4.14419 0
M  V30 2895 H 301.015 -0.272407 -0.73302 0
M  V30 2896 H 303.599 -1.21638 -1.52027 0
M  V30 2897 H 301.77 -0.309638 -3.87164 0
M  V30 2898 H 303.502 -0.51181 -4.01451 0
M  V30 2899 H 300.257 -2.53095 -4.003 0
M  V30 2900 H 300.681 -5.11646 -4.43337 0
M  V30 2901 H 305.323 -2.36565 -3.50424 0
M  V30 2902 H 303.041 -6.70136 -4.51601 0
M  V30 2903 H 306.627 -4.45363 -3.74356 0
M  V30 2904 H 305.507 -6.59375 -4.24493 0
M  V30 2905 N 303.011 1.40521 -0.713556 0
M  V30 2906 C 304.236 2.05759 -0.26035 0
M  V30 2907 C 304.661 1.53403 1.08854 0
M  V30 2908 O 304.019 0.668535 1.68524 0
M  V30 2909 C 304.067 3.59745 -0.248122 0
M  V30 2910 O 303.171 4.05123 0.77131 0
M  V30 2911 H 302.512 0.652564 -0.122703 0
M  V30 2912 H 305.042 1.79958 -0.973467 0
M  V30 2913 H 305.052 4.07911 -0.0851129 0
M  V30 2914 H 303.727 3.97218 -1.2325 0
M  V30 2915 H 302.304 3.68422 0.57619 0
M  V30 2916 N 304.489 0.459591 1.5075 0
M  V30 2917 C 305.737 -0.0991532 2.01857 0
M  V30 2918 C 306.058 -1.41247 1.34441 0
M  V30 2919 O 305.328 -1.89775 0.486022 0
M  V30 2920 H 303.908 -0.039633 0.745948 0
M  V30 2921 H 306.57 0.607387 1.85194 0
M  V30 2922 H 305.666 -0.258998 3.11023 0
M  V30 2923 N 305.967 -1.56429 0.191757 0
M  V30 2924 C 306.93 -2.17707 -0.716688 0
M  V30 2925 C 307.93 -1.13061 -1.14341 0
M  V30 2926 O 309.12 -1.38464 -1.05704 0
M  V30 2927 C 306.252 -2.77644 -1.97804 0
M  V30 2928 H 307.445 -2.99342 -0.1829 0
M  V30 2929 H 304.998 -1.56193 -0.0578566 0
M  V30 2930 H 305.733 -1.99799 -2.55443 0
M  V30 2931 H 305.518 -3.54246 -1.68083 0
M  V30 2932 H 307.008 -3.24708 -2.62592 0
M  V30 2933 N 307.445 0.0818655 -1.57387 0
M  V30 2934 C 308.856 0.634871 -1.75574 0
M  V30 2935 C 309.207 1.78435 -0.815809 0
M  V30 2936 O 308.332 2.164 0.0025366 0
M  V30 2937 C 308.927 1.15845 -3.18379 0
M  V30 2938 C 307.486 1.65741 -3.37945 0
M  V30 2939 C 306.633 0.572549 -2.71325 0
M  V30 2940 H 309.584 -0.144268 -1.58043 0
M  V30 2941 H 309.605 2.02751 -3.21982 0
M  V30 2942 H 309.117 0.321631 -3.86765 0
M  V30 2943 H 307.218 2.51781 -2.74658 0
M  V30 2944 H 307.331 1.74129 -4.46336 0
M  V30 2945 H 305.695 1.01518 -2.33594 0
M  V30 2946 H 306.478 -0.253918 -3.4236 0
M  V30 2947 N 308.923 1.53595 0.353017 0
M  V30 2948 C 310.169 1.70638 1.09593 0
M  V30 2949 C 310.502 0.463286 1.88593 0
M  V30 2950 O 309.777 -0.539597 1.86865 0
M  V30 2951 C 310.06 2.96406 2.04489 0
M  V30 2952 C 309.913 4.30901 1.29014 0
M  V30 2953 C 311.232 3.17812 3.0444 0
M  V30 2954 H 308.351 0.620913 0.397034 0
M  V30 2955 H 310.993 1.86254 0.375446 0
M  V30 2956 H 309.143 2.83223 2.65927 0
M  V30 2957 H 310.815 4.55917 0.702638 0
M  V30 2958 H 309.058 4.29741 0.592071 0
M  V30 2959 H 309.729 5.1506 1.98537 0
M  V30 2960 H 312.205 3.30263 2.53112 0
M  V30 2961 H 311.081 4.07223 3.6805 0
M  V30 2962 H 311.342 2.33669 3.75301 0
M  V30 2963 N 310.401 -0.613514 1.45168 0
M  V30 2964 C 311.348 -1.72456 1.53387 0
M  V30 2965 C 312.318 -1.6169 0.380191 0
M  V30 2966 O 313.503 -1.81356 0.592836 0
M  V30 2967 C 310.643 -3.10753 1.50088 0
M  V30 2968 C 309.756 -3.32368 2.75963 0
M  V30 2969 C 308.891 -4.60737 2.64376 0
M  V30 2970 C 307.93 -4.7559 3.85332 0
M  V30 2971 N 307.067 -5.95253 3.72315 0
M  V30 2972 H 311.907 -1.64768 2.48305 0
M  V30 2973 H 309.444 -0.803503 1.23216 0
M  V30 2974 H 311.402 -3.90758 1.46164 0
M  V30 2975 H 310.032 -3.17413 0.587243 0
M  V30 2976 H 309.084 -2.4618 2.89999 0
M  V30 2977 H 310.396 -3.39218 3.65695 0
M  V30 2978 H 309.55 -5.48928 2.58385 0
M  V30 2979 H 308.289 -4.56275 1.72233 0
M  V30 2980 H 307.294 -3.85824 3.91688 0
M  V30 2981 H 308.519 -4.81854 4.78533 0
M  V30 2982 H 306.465 -5.91847 2.82937 0
M  V30 2983 H 306.382 -6.03236 4.55677 0
M  V30 2984 H 307.65 -6.85958 3.70246 0
M  V30 2985 N 311.879 -1.3236 -0.855495 0
M  V30 2986 C 313.29 -1.2056 -1.42556 0
M  V30 2987 C 313.641 0.182209 -1.95352 0
M  V30 2988 O 312.766 1.08088 -1.87472 0
M  V30 2989 C 313.361 -2.1826 -2.59129 0
M  V30 2990 C 311.92 -2.10351 -3.12137 0
M  V30 2991 C 311.067 -2.06674 -1.84882 0
M  V30 2992 H 314.018 -1.442 -0.662727 0
M  V30 2993 H 314.039 -1.78064 -3.36264 0
M  V30 2994 H 313.551 -3.19257 -2.20673 0
M  V30 2995 H 311.652 -1.12599 -3.55179 0
M  V30 2996 H 311.765 -3.00135 -3.73438 0
M  V30 2997 H 310.129 -1.51901 -2.04446 0
M  V30 2998 H 310.912 -3.09451 -1.48643 0
M  V30 2999 N 313.357 1.07166 -1.15556 0
M  V30 3000 C 314.582 1.84053 -0.955988 0
M  V30 3001 C 315.007 1.81586 0.490739 0
M  V30 3002 O 314.365 1.21018 1.34997 0
M  V30 3003 C 314.413 3.28957 -1.47714 0
M  V30 3004 O 313.517 4.06795 -0.677593 0
M  V30 3005 H 312.858 0.569842 -0.340847 0
M  V30 3006 H 315.388 1.35178 -1.53584 0
M  V30 3007 H 315.398 3.79788 -1.4908 0
M  V30 3008 H 314.073 3.30068 -2.53037 0
M  V30 3009 H 312.65 3.6561 -0.733721 0
M  V30 3010 N 314.835 0.952656 1.25548 0
M  V30 3011 C 316.246 0.647392 1.75116 0
M  V30 3012 C 316.597 -0.837274 1.77438 0
M  V30 3013 O 315.722 -1.65525 1.39393 0
M  V30 3014 C 316.317 1.16845 3.18014 0
M  V30 3015 C 314.876 0.913382 3.6515 0
M  V30 3016 C 314.023 1.31265 2.44264 0
M  V30 3017 H 316.974 1.12968 1.11462 0
M  V30 3018 H 316.995 0.527606 3.76824 0
M  V30 3019 H 316.507 2.24902 3.16292 0
M  V30 3020 H 314.608 -0.152316 3.72289 0
M  V30 3021 H 314.721 1.54845 4.53387 0
M  V30 3022 H 313.085 0.731028 2.43984 0
M  V30 3023 H 313.868 2.40239 2.45234 0
M  V30 3024 N 316.313 -1.40141 0.720998 0
M  V30 3025 C 317.245 -2.29177 0.0324669 0
M  V30 3026 C 318.258 -1.46105 -0.718126 0
M  V30 3027 O 319.447 -1.69335 -0.564608 0
M  V30 3028 C 316.547 -3.24473 -0.978292 0
M  V30 3029 C 315.72 -4.36423 -0.292115 0
M  V30 3030 C 314.779 -5.12122 -1.20901 0
M  V30 3031 O 313.805 -5.64981 -0.691766 0
M  V30 3032 N 315.007 -5.21992 -2.53978 0
M  V30 3033 H 317.772 -2.88909 0.796984 0
M  V30 3034 H 315.333 -1.51569 0.569068 0
M  V30 3035 H 317.325 -3.71987 -1.59398 0
M  V30 3036 H 315.895 -2.65871 -1.64413 0
M  V30 3037 H 315.115 -3.90967 0.503847 0
M  V30 3038 H 316.403 -5.08467 0.183971 0
M  V30 3039 H 315.801 -4.8054 -2.98493 0
M  V30 3040 H 314.358 -5.72995 -3.10677 0
M  V30 3041 N 317.792 -0.46758 -1.50504 0
M  V30 3042 C 318.755 0.317059 -2.26996 0
M  V30 3043 C 319.755 0.923513 -1.31635 0
M  V30 3044 O 320.945 0.793239 -1.55091 0
M  V30 3045 C 318.077 1.45134 -3.08462 0
M  V30 3046 H 319.27 -0.353723 -2.97807 0
M  V30 3047 H 316.823 -0.221545 -1.54722 0
M  V30 3048 H 317.558 2.15728 -2.4214 0
M  V30 3049 H 317.343 1.02232 -3.78538 0
M  V30 3050 H 318.833 2.00493 -3.66323 0
M  V30 3051 N 319.27 1.56325 -0.20005 0
M  V30 3052 C 320.233 2.18084 0.705132 0
M  V30 3053 C 321.233 1.13666 1.1374 0
M  V30 3054 O 322.423 1.39023 1.04968 0
M  V30 3055 C 319.555 2.78689 1.96329 0
M  V30 3056 H 320.748 2.99435 0.167023 0
M  V30 3057 H 318.301 1.56221 0.0495725 0
M  V30 3058 H 319.036 2.0115 2.5438 0
M  V30 3059 H 318.821 3.55133 1.66202 0
M  V30 3060 H 320.311 3.26096 2.60866 0
M  V30 3061 N 320.748 -0.0735177 1.57428 0
M  V30 3062 C 321.711 -1.07192 2.02589 0
M  V30 3063 C 322.711 -1.31695 0.922661 0
M  V30 3064 O 323.901 -1.27445 1.18758 0
M  V30 3065 C 321.033 -2.41599 2.40506 0
M  V30 3066 H 322.226 -0.682727 2.92025 0
M  V30 3067 H 319.779 -0.319193 1.53006 0
M  V30 3068 H 320.514 -2.85354 1.5409 0
M  V30 3069 H 320.299 -2.25156 3.21009 0
M  V30 3070 H 321.789 -3.13367 2.76027 0
M  V30 3071 N 322.226 -1.5378 -0.344866 0
M  V30 3072 C 323.472 -1.71216 -1.08687 0
M  V30 3073 C 323.805 -0.473281 -1.88345 0
M  V30 3074 O 323.08 0.52968 -1.87149 0
M  V30 3075 C 323.363 -2.97486 -2.02914 0
M  V30 3076 C 323.216 -4.31579 -1.26727 0
M  V30 3077 C 324.535 -3.19422 -3.0275 0
M  V30 3078 H 321.654 -0.62301 -0.393735 0
M  V30 3079 H 324.296 -1.8645 -0.365563 0
M  V30 3080 H 322.446 -2.84629 -2.64421 0
M  V30 3081 H 324.118 -4.56284 -0.67845 0
M  V30 3082 H 322.361 -4.30049 -0.569273 0
M  V30 3083 H 323.032 -5.16106 -1.95803 0
M  V30 3084 H 325.508 -3.316 -2.51357 0
M  V30 3085 H 324.384 -4.09169 -3.65885 0
M  V30 3086 H 324.645 -2.35656 -3.74057 0
M  V30 3087 N 323.704 0.605807 -1.45491 0
M  V30 3088 C 324.614 1.74466 -1.56839 0
M  V30 3089 C 325.63 1.68006 -0.452772 0
M  V30 3090 O 326.806 1.8833 -0.713708 0
M  V30 3091 C 323.871 3.10931 -1.53371 0
M  V30 3092 C 322.932 3.28832 -2.75986 0
M  V30 3093 C 322.165 4.58787 -2.72673 0
M  V30 3094 O 322.388 5.4122 -1.80102 0
M  V30 3095 O 321.322 4.79438 -3.63899 0
M  V30 3096 H 325.148 1.67843 -2.53106 0
M  V30 3097 H 322.733 0.770108 -1.28022 0
M  V30 3098 H 324.615 3.92233 -1.54051 0
M  V30 3099 H 323.29 3.18042 -0.602572 0
M  V30 3100 H 322.197 2.47112 -2.80867 0
M  V30 3101 H 323.53 3.26599 -3.68231 0
M  V30 3102 N 325.182 1.32811 0.848464 0
M  V30 3103 C 326.428 1.23907 1.60546 0
M  V30 3104 C 326.761 -0.197161 1.93197 0
M  V30 3105 O 326.036 -1.13596 1.5788 0
M  V30 3106 C 326.319 2.10489 2.92175 0
M  V30 3107 C 326.172 3.62522 2.66266 0
M  V30 3108 C 327.491 1.97075 3.93509 0
M  V30 3109 H 324.61 0.451459 0.58254 0
M  V30 3110 H 327.252 1.62818 0.979296 0
M  V30 3111 H 325.402 1.77434 3.45614 0
M  V30 3112 H 327.074 4.05821 2.19334 0
M  V30 3113 H 325.317 3.84879 2.00126 0
M  V30 3114 H 325.988 4.18437 3.6002 0
M  V30 3115 H 328.464 2.26045 3.49346 0
M  V30 3116 H 327.34 2.59923 4.83457 0
M  V30 3117 H 327.601 0.940186 4.31987 0
M  V30 3118 N 326.66 -1.06551 1.16123 0
M  V30 3119 C 327.57 -2.17484 0.879662 0
M  V30 3120 C 328.586 -1.73377 -0.147104 0
M  V30 3121 O 329.762 -2.01379 0.0289128 0
M  V30 3122 C 326.827 -3.44591 0.381829 0
M  V30 3123 C 325.888 -4.0322 1.4735 0
M  V30 3124 C 325.121 -5.24261 0.999324 0
M  V30 3125 O 325.344 -5.70198 -0.151957 0
M  V30 3126 O 324.278 -5.74775 1.78653 0
M  V30 3127 H 328.104 -2.44075 1.80724 0
M  V30 3128 H 325.689 -1.16042 0.940992 0
M  V30 3129 H 327.571 -4.21254 0.111053 0
M  V30 3130 H 326.246 -3.19532 -0.51777 0
M  V30 3131 H 325.153 -3.2806 1.79798 0
M  V30 3132 H 326.486 -4.32568 2.34831 0
M  V30 3133 N 328.138 -0.959301 -1.25041 0
M  V30 3134 C 329.048 -0.489994 -2.29426 0
M  V30 3135 C 330.064 0.444944 -1.68215 0
M  V30 3136 O 331.24 0.320046 -1.98841 0
M  V30 3137 C 328.305 0.220309 -3.45999 0
M  V30 3138 C 327.366 -0.753418 -4.22637 0
M  V30 3139 C 326.599 -0.076918 -5.33645 0
M  V30 3140 O 326.822 1.13649 -5.58963 0
M  V30 3141 O 325.756 -0.764824 -5.97021 0
M  V30 3142 H 329.582 -1.35755 -2.71669 0
M  V30 3143 H 327.167 -0.725961 -1.30576 0
M  V30 3144 H 329.049 0.619677 -4.16819 0
M  V30 3145 H 327.724 1.06296 -3.0575 0
M  V30 3146 H 326.631 -1.20308 -3.54227 0
M  V30 3147 H 327.964 -1.56423 -4.66683 0
M  V30 3148 N 329.616 1.39756 -0.72842 0
M  V30 3149 C 330.526 2.34444 -0.0855374 0
M  V30 3150 C 331.542 1.57976 0.729356 0
M  V30 3151 O 332.718 1.90301 0.659346 0
M  V30 3152 C 329.783 3.36965 0.815798 0
M  V30 3153 C 328.844 4.29299 -0.0105996 0
M  V30 3154 C 328.077 5.26923 0.84781 0
M  V30 3155 O 328.3 5.30859 2.08673 0
M  V30 3156 O 327.234 6.01249 0.279969 0
M  V30 3157 H 331.06 2.91065 -0.866892 0
M  V30 3158 H 328.645 1.4117 -0.48902 0
M  V30 3159 H 330.527 3.99804 1.33171 0
M  V30 3160 H 329.202 2.82739 1.57608 0
M  V30 3161 H 328.109 3.69703 -0.571877 0
M  V30 3162 H 329.442 4.86712 -0.73295 0
M  V30 3163 N 331.094 0.475555 1.50254 0
M  V30 3164 C 332.371 -0.139685 1.95101 0
M  V30 3165 C 332.751 -1.56555 1.41611 0
M  V30 3166 O 332.099 -2.19956 0.618993 0
M  V30 3167 C 332.309 -0.0784298 3.48912 0
M  V30 3168 C 333.657 -0.265095 4.23772 0
M  V30 3169 O 334.681 -0.154808 3.55863 0
M  V30 3170 O 333.54 -0.488327 5.44314 0
M  V30 3171 H 330.634 -0.109236 0.819754 0
M  V30 3172 H 333.18 0.536276 1.61004 0
M  V30 3173 H 331.952 0.916918 3.80405 0
M  V30 3174 H 331.575 -0.795655 3.89558 0
M  V30 3175 N 332.573 -1.56217 0.208337 0
M  V30 3176 C 333.821 -1.97558 -0.426076 0
M  V30 3177 C 334.142 -1.09683 -1.61229 0
M  V30 3178 O 333.412 -0.170956 -1.95153 0
M  V30 3179 H 331.992 -0.729575 -0.160405 0
M  V30 3180 H 334.654 -1.92606 0.298155 0
M  V30 3181 H 333.75 -3.02672 -0.761312 0
M  V30 3182 N 334.051 0.0651679 -1.57465 0
M  V30 3183 C 335.276 0.779605 -1.9219 0
M  V30 3184 C 335.701 1.69988 -0.805333 0
M  V30 3185 O 335.059 1.79685 0.241435 0
M  V30 3186 C 335.107 1.54364 -3.2589 0
M  V30 3187 O 334.211 2.65474 -3.1559 0
M  V30 3188 H 333.552 0.212249 -0.629163 0
M  V30 3189 H 336.082 0.0314294 -2.04576 0
M  V30 3190 H 336.092 1.92146 -3.59922 0
M  V30 3191 H 334.767 0.868457 -4.06732 0
M  V30 3192 H 333.344 2.30501 -2.93128 0
M  V30 3193 N 335.529 1.53961 0.336706 0
M  V30 3194 C 336.439 1.85432 1.43708 0
M  V30 3195 C 337.455 0.745053 1.57242 0
M  V30 3196 O 338.631 1.03804 1.72588 0
M  V30 3197 C 335.696 2.06349 2.78605 0
M  V30 3198 C 334.757 3.30191 2.74358 0
M  V30 3199 C 333.99 3.50101 4.02822 0
M  V30 3200 O 334.213 2.7371 5.00439 0
M  V30 3201 O 333.147 4.43547 4.06878 0
M  V30 3202 H 336.973 2.78975 1.20028 0
M  V30 3203 H 334.558 1.39701 0.52952 0
M  V30 3204 H 336.44 2.21513 3.58483 0
M  V30 3205 H 335.115 1.15995 3.02203 0
M  V30 3206 H 334.022 3.20425 1.93078 0
M  V30 3207 H 335.355 4.2056 2.55715 0
M  V30 3208 N 337.007 -0.598083 1.45811 0
M  V30 3209 C 338.232 -1.3881 1.54099 0
M  V30 3210 C 338.657 -1.8726 0.177578 0
M  V30 3211 O 338.015 -1.6069 -0.839541 0
M  V30 3212 C 338.063 -2.56217 2.53743 0
M  V30 3213 O 337.167 -3.5716 2.06182 0
M  V30 3214 H 336.508 -0.414024 0.519115 0
M  V30 3215 H 339.038 -0.726971 1.91249 0
M  V30 3216 H 339.048 -3.03337 2.72856 0
M  V30 3217 H 337.723 -2.20303 3.5276 0
M  V30 3218 H 336.3 -3.16624 1.96987 0
M  V30 3219 N 338.485 -1.33259 -0.841409 0
M  V30 3220 C 339.395 -1.25332 -1.98316 0
M  V30 3221 C 340.411 -0.164364 -1.73222 0
M  V30 3222 O 341.587 -0.387486 -1.97637 0
M  V30 3223 C 338.652 -0.990078 -3.32262 0
M  V30 3224 C 337.713 -2.16879 -3.70489 0
M  V30 3225 C 336.946 -1.91801 -4.98044 0
M  V30 3226 O 337.169 -0.867075 -5.63771 0
M  V30 3227 O 336.103 -2.78267 -5.33714 0
M  V30 3228 H 339.929 -2.21344 -2.07944 0
M  V30 3229 H 337.514 -1.1328 -0.974058 0
M  V30 3230 H 339.396 -0.860321 -4.12524 0
M  V30 3231 H 338.071 -0.0602155 -3.23644 0
M  V30 3232 H 336.978 -2.35407 -2.90748 0
M  V30 3233 H 338.311 -3.0819 -3.8377 0
M  V30 3234 N 339.963 1.05934 -1.16686 0
M  V30 3235 C 340.873 2.17014 -0.891183 0
M  V30 3236 C 341.889 1.73453 0.137907 0
M  V30 3237 O 343.065 2.01361 -0.039592 0
M  V30 3238 C 340.13 3.44384 -0.400099 0
M  V30 3239 C 339.191 4.02433 -1.49486 0
M  V30 3240 C 338.424 5.23723 -1.02711 0
M  V30 3241 O 338.647 5.7027 0.121716 0
M  V30 3242 O 337.581 5.7382 -1.81699 0
M  V30 3243 H 341.407 2.43113 -1.82015 0
M  V30 3244 H 338.992 1.15541 -0.947132 0
M  V30 3245 H 340.874 4.21189 -0.133392 0
M  V30 3246 H 339.549 3.19802 0.500817 0
M  V30 3247 H 338.456 3.27102 -1.81535 0
M  V30 3248 H 339.789 4.31317 -2.37121 0
M  V30 3249 N 341.441 0.965919 1.2453 0
M  V30 3250 C 342.666 0.643971 1.97149 0
M  V30 3251 C 343.091 -0.779487 1.71189 0
M  V30 3252 O 342.449 -1.5288 0.974553 0
M  V30 3253 C 342.497 0.922557 3.48599 0
M  V30 3254 O 341.601 0.00707672 4.12399 0
M  V30 3255 H 340.942 0.243647 0.617683 0
M  V30 3256 H 343.472 1.29558 1.58353 0
M  V30 3257 H 343.482 0.853373 3.98976 0
M  V30 3258 H 342.157 1.95996 3.66822 0
M  V30 3259 H 340.734 0.12943 3.72675 0
M  V30 3260 N 342.919 -1.39368 0.735821 0
M  V30 3261 C 343.882 -2.2896 0.104874 0
M  V30 3262 C 344.882 -1.46347 -0.666274 0
M  V30 3263 O 346.072 -1.67014 -0.49517 0
M  V30 3264 C 343.204 -3.29857 -0.860656 0
M  V30 3265 H 344.397 -2.86259 0.894205 0
M  V30 3266 H 341.95 -1.48029 0.501704 0
M  V30 3267 H 342.685 -2.77615 -1.67631 0
M  V30 3268 H 342.47 -3.9087 -0.310327 0
M  V30 3269 H 343.96 -3.96893 -1.29867 0
M  V30 3270 N 344.397 -0.483516 -1.5 0
M  V30 3271 C 345.645 0.067027 -2.01989 0
M  V30 3272 C 345.966 1.3909 -1.36671 0
M  V30 3273 O 345.236 1.88978 -0.516152 0
M  V30 3274 H 343.816 0.0277606 -0.746484 0
M  V30 3275 H 346.478 -0.636773 -1.84204 0
M  V30 3276 H 345.574 0.209484 -3.11396 0
M  V30 3277 N 345.875 1.56104 -0.216619 0
M  V30 3278 C 347.286 1.844 0.292128 0
M  V30 3279 C 347.637 1.13788 1.59833 0
M  V30 3280 O 346.762 0.405888 2.12559 0
M  V30 3281 C 347.357 3.3452 0.53681 0
M  V30 3282 C 345.916 3.63151 0.989876 0
M  V30 3283 C 345.063 2.77255 0.0502302 0
M  V30 3284 H 348.014 1.52481 -0.439926 0
M  V30 3285 H 348.035 3.54459 1.38345 0
M  V30 3286 H 347.547 3.85885 -0.414031 0
M  V30 3287 H 345.648 3.17238 1.95425 0
M  V30 3288 H 345.761 4.71177 0.867698 0
M  V30 3289 H 344.125 2.48555 0.556117 0
M  V30 3290 H 344.908 3.31416 -0.89544 0
M  V30 3291 N 347.353 -0.0568162 1.57498 0
M  V30 3292 C 348.283 -1.06593 2.0775 0
M  V30 3293 C 349.264 -1.39448 0.974082 0
M  V30 3294 O 350.449 -1.48815 1.24771 0
M  V30 3295 C 347.579 -2.37509 2.5339 0
M  V30 3296 C 346.533 -2.1897 3.67745 0
M  V30 3297 C 345.859 -3.55402 3.99492 0
M  V30 3298 C 347.159 -1.59859 4.97235 0
M  V30 3299 H 348.853 -0.647706 2.9231 0
M  V30 3300 H 346.399 -0.310116 1.40621 0
M  V30 3301 H 348.352 -3.08409 2.87162 0
M  V30 3302 H 347.076 -2.8134 1.65878 0
M  V30 3303 H 345.735 -1.50508 3.3428 0
M  V30 3304 H 345.383 -3.9683 3.09088 0
M  V30 3305 H 345.083 -3.43831 4.76502 0
M  V30 3306 H 346.607 -4.27708 4.35773 0
M  V30 3307 H 348.021 -2.20642 5.29141 0
M  V30 3308 H 346.418 -1.58942 5.78669 0
M  V30 3309 H 347.488 -0.561506 4.81638 0
M  V30 3310 N 348.832 -1.54138 -0.328536 0
M  V30 3311 C 349.762 -1.86167 -1.40939 0
M  V30 3312 C 350.743 -0.718044 -1.54202 0
M  V30 3313 O 351.928 -0.971328 -1.68163 0
M  V30 3314 C 349.058 -2.08461 -2.77779 0
M  V30 3315 C 348.012 -3.24299 -2.7931 0
M  V30 3316 C 347.338 -3.31955 -4.19178 0
M  V30 3317 C 348.638 -4.62065 -2.43502 0
M  V30 3318 H 350.332 -2.76689 -1.14383 0
M  V30 3319 H 347.878 -1.33132 -0.548806 0
M  V30 3320 H 349.831 -2.29453 -3.53454 0
M  V30 3321 H 348.555 -1.14684 -3.05802 0
M  V30 3322 H 347.214 -3.03187 -2.0609 0
M  V30 3323 H 346.862 -2.35745 -4.44335 0
M  V30 3324 H 346.562 -4.09805 -4.2111 0
M  V30 3325 H 348.086 -3.55175 -4.96672 0
M  V30 3326 H 349.5 -4.8297 -3.08889 0
M  V30 3327 H 347.897 -5.42429 -2.56693 0
M  V30 3328 H 348.967 -4.64652 -1.38659 0
M  V30 3329 N 350.31 0.590341 -1.46126 0
M  V30 3330 C 351.257 1.69994 -1.56111 0
M  V30 3331 C 352.227 1.61065 -0.405867 0
M  V30 3332 O 353.412 1.8039 -0.621613 0
M  V30 3333 C 350.552 3.08326 -1.55013 0
M  V30 3334 C 349.665 3.27936 -2.81215 0
M  V30 3335 C 348.8 4.56473 -2.71673 0
M  V30 3336 C 347.839 4.694 -3.92849 0
M  V30 3337 N 346.976 5.89254 -3.81738 0
M  V30 3338 H 351.816 1.60797 -2.50895 0
M  V30 3339 H 349.353 0.783799 -1.24479 0
M  V30 3340 H 351.311 3.88383 -1.52362 0
M  V30 3341 H 349.941 3.16439 -0.637667 0
M  V30 3342 H 348.993 2.41536 -2.93879 0
M  V30 3343 H 350.305 3.33357 -3.71045 0
M  V30 3344 H 349.459 5.44748 -2.67085 0
M  V30 3345 H 348.198 4.53477 -1.7947 0
M  V30 3346 H 347.203 3.79544 -3.97777 0
M  V30 3347 H 348.428 4.7418 -4.86138 0
M  V30 3348 H 346.374 5.87271 -2.92317 0
M  V30 3349 H 346.291 5.95911 -4.65217 0
M  V30 3350 H 347.559 6.79981 -3.81112 0
M  V30 3351 N 351.788 1.33704 0.83433 0
M  V30 3352 C 353.036 1.25169 1.58673 0
M  V30 3353 C 353.357 -0.18127 1.94156 0
M  V30 3354 O 352.627 -1.11113 1.6134 0
M  V30 3355 H 351.207 0.4603 0.58833 0
M  V30 3356 H 353.869 1.67478 0.996847 0
M  V30 3357 H 352.965 1.84856 2.51465 0
M  V30 3358 N 353.266 -1.05314 1.17247 0
M  V30 3359 C 354.213 -2.13031 0.888058 0
M  V30 3360 C 355.183 -1.65253 -0.167537 0
M  V30 3361 O 356.368 -1.90775 -0.0305974 0
M  V30 3362 C 353.508 -3.42702 0.406147 0
M  V30 3363 C 352.621 -4.04161 1.52572 0
M  V30 3364 C 351.756 -5.21744 0.997808 0
M  V30 3365 C 350.795 -5.75207 2.09291 0
M  V30 3366 N 349.932 -6.84094 1.57986 0
M  V30 3367 H 354.772 -2.36698 1.81048 0
M  V30 3368 H 352.309 -1.16121 0.903013 0
M  V30 3369 H 354.267 -4.17059 0.108305 0
M  V30 3370 H 352.897 -3.19222 -0.479313 0
M  V30 3371 H 351.949 -3.27253 1.93931 0
M  V30 3372 H 353.261 -4.39881 2.35172 0
M  V30 3373 H 352.415 -6.03168 0.653739 0
M  V30 3374 H 351.154 -4.87495 0.141232 0
M  V30 3375 H 350.159 -4.92414 2.44557 0
M  V30 3376 H 351.384 -6.11505 2.95362 0
M  V30 3377 H 349.33 -6.51745 0.74598 0
M  V30 3378 H 349.247 -7.18811 2.34195 0
M  V30 3379 H 350.515 -7.69172 1.26468 0
M  V30 3380 N 354.744 -0.972509 -1.24016 0
M  V30 3381 C 356.155 -0.67517 -1.74064 0
M  V30 3382 C 356.506 0.808939 -1.78747 0
M  V30 3383 O 355.631 1.63286 -1.42009 0
M  V30 3384 C 356.226 -1.21889 -3.16115 0
M  V30 3385 C 354.785 -0.971358 -3.6365 0
M  V30 3386 C 353.932 -1.35134 -2.42145 0
M  V30 3387 H 356.883 -1.14727 -1.09651 0
M  V30 3388 H 356.904 -0.587489 -3.75937 0
M  V30 3389 H 356.416 -2.29906 -3.12674 0
M  V30 3390 H 354.517 0.0930686 -3.72484 0
M  V30 3391 H 354.63 -1.62039 -4.50866 0
M  V30 3392 H 352.994 -0.769751 -2.4279 0
M  V30 3393 H 353.777 -2.4411 -2.41381 0
M  V30 3394 N 356.222 1.38976 -0.743202 0
M  V30 3395 C 357.638 1.53984 -0.419664 0
M  V30 3396 C 357.838 1.70837 1.0685 0
M  V30 3397 O 356.894 1.7135 1.8546 0
M  V30 3398 C 358.207 2.75287 -1.20985 0
M  V30 3399 C 359.755 2.89129 -1.19889 0
M  V30 3400 C 360.23 4.13381 -1.97181 0
M  V30 3401 N 361.721 4.20437 -1.94389 0
M  V30 3402 C 362.456 5.15547 -2.50996 0
M  V30 3403 N 361.952 6.16395 -3.16274 0
M  V30 3404 N 363.745 5.07822 -2.40984 0
M  V30 3405 H 355.896 1.26285 -1.7078 0
M  V30 3406 H 358.159 0.612689 -0.723406 0
M  V30 3407 H 357.865 2.69204 -2.26323 0
M  V30 3408 H 357.739 3.68184 -0.819759 0
M  V30 3409 H 360.126 2.947 -0.153606 0
M  V30 3410 H 360.207 1.97272 -1.62841 0
M  V30 3411 H 359.851 4.08572 -3.01714 0
M  V30 3412 H 359.781 5.04298 -1.51629 0
M  V30 3413 H 362.272 3.48205 -1.46839 0
M  V30 3414 H 362.585 6.85443 -3.56915 0
M  V30 3415 H 360.93 6.16758 -3.20367 0
M  V30 3416 H 364.121 4.27973 -1.89622 0
M  V30 3417 H 364.294 5.81767 -2.85397 0
M  V30 3418 N 357.7 0.491464 1.49741 0
M  V30 3419 C 358.663 -0.280906 2.27472 0
M  V30 3420 C 359.663 -0.902454 1.33088 0
M  V30 3421 O 360.853 -0.768465 1.56334 0
M  V30 3422 C 357.985 -1.40209 3.10732 0
M  V30 3423 H 359.178 0.401056 2.97206 0
M  V30 3424 H 356.731 0.246131 1.5435 0
M  V30 3425 H 357.466 -2.11849 2.45541 0
M  V30 3426 H 357.251 -0.961969 3.80117 0
M  V30 3427 H 358.741 -1.9464 3.69466 0
M  V30 3428 N 359.178 -1.55987 0.224894 0
M  V30 3429 C 360.108 -2.23426 -0.678457 0
M  V30 3430 C 361.089 -1.20709 -1.19847 0
M  V30 3431 O 362.274 -1.49304 -1.24186 0
M  V30 3432 C 359.404 -2.91676 -1.88527 0
M  V30 3433 C 358.358 -4.00893 -1.49896 0
M  V30 3434 C 357.684 -4.56455 -2.78483 0
M  V30 3435 C 358.984 -5.17769 -0.686461 0
M  V30 3436 H 360.678 -2.99175 -0.116173 0
M  V30 3437 H 358.224 -1.43897 -0.054436 0
M  V30 3438 H 360.177 -3.37547 -2.5227 0
M  V30 3439 H 358.901 -2.1338 -2.47258 0
M  V30 3440 H 357.56 -3.55758 -0.884985 0
M  V30 3441 H 357.208 -3.74886 -3.35365 0
M  V30 3442 H 356.908 -5.30169 -2.53368 0
M  V30 3443 H 358.432 -5.05047 -3.43162 0
M  V30 3444 H 359.846 -5.60001 -1.22767 0
M  V30 3445 H 358.243 -5.97735 -0.532259 0
M  V30 3446 H 359.313 -4.83932 0.306196 0
M  V30 3447 N 360.656 0.0484629 -1.57525 0
M  V30 3448 C 361.904 0.741657 -1.88 0
M  V30 3449 C 362.225 1.76918 -0.820054 0
M  V30 3450 O 361.495 1.95335 0.148661 0
M  V30 3451 H 360.075 0.276908 -0.69378 0
M  V30 3452 H 362.737 0.019013 -1.94891 0
M  V30 3453 H 361.833 1.24336 -2.86264 0
M  V30 3454 N 362.134 1.5431 0.320358 0
M  V30 3455 C 363.382 1.72327 1.05583 0
M  V30 3456 C 363.703 0.50149 1.88441 0
M  V30 3457 O 362.973 -0.48448 1.89815 0
M  V30 3458 H 361.553 0.635387 0.3928 0
M  V30 3459 H 364.215 1.91621 0.356019 0
M  V30 3460 H 363.311 2.60426 1.72003 0
M  V30 3461 N 363.613 -0.582584 1.46437 0
M  V30 3462 C 364.576 -1.67366 1.56592 0
M  V30 3463 C 365.576 -1.54575 0.443072 0
M  V30 3464 O 366.766 -1.59191 0.707381 0
M  V30 3465 C 363.898 -3.06791 1.48634 0
M  V30 3466 H 365.091 -1.5972 2.5383 0
M  V30 3467 H 362.644 -0.800432 1.34249 0
M  V30 3468 H 363.379 -3.19993 0.526763 0
M  V30 3469 H 363.164 -3.17484 2.30101 0
M  V30 3470 H 364.654 -3.86218 1.58826 0
M  V30 3471 N 365.091 -1.34144 -0.827227 0
M  V30 3472 C 366.054 -1.25264 -1.91942 0
M  V30 3473 C 367.054 -0.168866 -1.59911 0
M  V30 3474 O 368.244 -0.421198 -1.69031 0
M  V30 3475 C 365.376 -0.932952 -3.27885 0
M  V30 3476 H 366.569 -2.22357 -2.0124 0
M  V30 3477 H 364.122 -1.1837 -1.0207 0
M  V30 3478 H 364.857 0.0349917 -3.24281 0
M  V30 3479 H 364.642 -1.71682 -3.52516 0
M  V30 3480 H 366.132 -0.895874 -4.07877 0
M  V30 3481 N 366.569 1.04691 -1.17803 0
M  V30 3482 C 367.532 2.10724 -0.901545 0
M  V30 3483 C 368.532 1.6042 0.110437 0
M  V30 3484 O 369.722 1.7377 -0.122303 0
M  V30 3485 C 366.854 3.39084 -0.351409 0
M  V30 3486 H 368.047 2.36686 -1.84174 0
M  V30 3487 H 365.6 1.21015 -0.98919 0
M  V30 3488 H 366.335 3.18782 0.59569 0
M  V30 3489 H 366.12 3.76909 -1.08083 0
M  V30 3490 H 367.61 4.17227 -0.176451 0
M  V30 3491 N 368.047 0.979072 1.23499 0
M  V30 3492 C 369.295 0.645941 1.91499 0
M  V30 3493 C 369.616 -0.822948 1.76784 0
M  V30 3494 O 368.886 -1.58854 1.14639 0
M  V30 3495 H 367.466 0.235919 0.708767 0
M  V30 3496 H 370.128 1.2426 1.50152 0
M  V30 3497 H 369.224 0.896411 2.9895 0
M  V30 3498 N 369.525 -1.3858 0.750561 0
M  V30 3499 C 370.773 -1.99789 0.30477 0
M  V30 3500 C 371.094 -1.59874 -1.11649 0
M  V30 3501 O 370.364 -0.85417 -1.76297 0
M  V30 3502 H 368.944 -0.738902 0.109694 0
M  V30 3503 H 371.606 -1.69391 0.963983 0
M  V30 3504 H 370.702 -3.09952 0.365499 0
M  V30 3505 N 371.003 -0.499398 -1.49478 0
M  V30 3506 C 372.251 0.0455996 -2.02049 0
M  V30 3507 C 372.572 1.37633 -1.38138 0
M  V30 3508 O 371.842 1.8842 -0.536166 0
M  V30 3509 H 370.422 0.0198416 -0.746736 0
M  V30 3510 H 373.084 -0.656274 -1.83519 0
M  V30 3511 H 372.18 0.176445 -3.11601 0
M  V30 3512 N 372.481 1.55866 -0.233164 0
M  V30 3513 C 373.444 2.1953 0.658715 0
M  V30 3514 C 374.444 1.16053 1.11303 0
M  V30 3515 O 375.634 1.41218 1.01996 0
M  V30 3516 C 372.766 2.82791 1.90373 0
M  V30 3517 H 373.959 2.99721 0.10347 0
M  V30 3518 H 371.512 1.56291 0.0164245 0
M  V30 3519 H 372.247 2.06501 2.50056 0
M  V30 3520 H 372.032 3.58578 1.58632 0
M  V30 3521 H 373.522 3.31556 2.53891 0
M  V30 3522 N 373.959 -0.0401083 1.57549 0
M  V30 3523 C 374.922 -1.02871 2.04817 0
M  V30 3524 C 375.922 -1.29708 0.950388 0
M  V30 3525 O 377.112 -1.24897 1.21435 0
M  V30 3526 C 374.244 -2.36443 2.45576 0
M  V30 3527 H 375.437 -0.620631 2.93408 0
M  V30 3528 H 372.99 -0.286667 1.53649 0
M  V30 3529 H 373.725 -2.82021 1.60108 0
M  V30 3530 H 373.51 -2.18296 3.25713 0
M  V30 3531 H 375 -3.07441 2.82612 0
M  V30 3532 N 375.437 -1.54477 -0.31217 0
M  V30 3533 C 376.4 -1.83923 -1.36766 0
M  V30 3534 C 377.4 -0.711563 -1.44199 0
M  V30 3535 O 378.59 -0.979866 -1.44029 0
M  V30 3536 C 375.722 -2.0095 -2.75376 0
M  V30 3537 H 376.915 -2.78239 -1.11906 0
M  V30 3538 H 374.468 -1.46369 -0.548257 0
M  V30 3539 H 375.203 -1.08883 -3.05475 0
M  V30 3540 H 374.988 -2.83018 -2.71373 0
M  V30 3541 H 376.478 -2.2514 -3.51713 0
M  V30 3542 N 376.915 0.57481 -1.46744 0
M  V30 3543 C 378.161 1.3347 -1.52688 0
M  V30 3544 C 378.494 1.93353 -0.181229 0
M  V30 3545 O 377.769 1.76912 0.808237 0
M  V30 3546 C 378.052 2.45811 -2.63152 0
M  V30 3547 C 377.905 1.90912 -4.07275 0
M  V30 3548 C 379.224 3.47822 -2.69644 0
M  V30 3549 H 376.343 0.483935 -0.555856 0
M  V30 3550 H 378.985 0.644968 -1.78718 0
M  V30 3551 H 377.135 3.04646 -2.41088 0
M  V30 3552 H 378.807 1.36473 -4.4065 0
M  V30 3553 H 377.05 1.21691 -4.16382 0
M  V30 3554 H 377.721 2.72042 -4.80309 0
M  V30 3555 H 380.197 2.9888 -2.895 0
M  V30 3556 H 379.073 4.23876 -3.48742 0
M  V30 3557 H 379.334 4.05555 -1.76005 0
M  V30 3558 N 378.394 1.34581 0.820102 0
M  V30 3559 C 379.805 1.24298 1.39309 0
M  V30 3560 C 380.156 -0.130351 1.95767 0
M  V30 3561 O 379.281 -1.0308 1.90272 0
M  V30 3562 C 379.876 2.25054 2.53251 0
M  V30 3563 C 378.435 2.18552 3.0645 0
M  V30 3564 C 377.582 2.11503 1.79337 0
M  V30 3565 H 380.533 1.45906 0.624262 0
M  V30 3566 H 380.554 1.86917 3.31425 0
M  V30 3567 H 380.066 3.24996 2.1213 0
M  V30 3568 H 378.167 1.21976 3.52069 0
M  V30 3569 H 378.28 3.0993 3.65349 0
M  V30 3570 H 376.644 1.57268 2.00347 0
M  V30 3571 H 377.427 3.13284 1.40386 0
M  V30 3572 N 379.872 -1.04064 1.18357 0
M  V30 3573 C 381.283 -1.58719 0.98312 0
M  V30 3574 C 381.634 -1.90556 -0.467193 0
M  V30 3575 O 380.759 -1.69561 -1.34454 0
M  V30 3576 C 381.354 -2.88379 1.77828 0
M  V30 3577 C 379.913 -3.3965 1.62218 0
M  V30 3578 C 379.06 -2.13235 1.77274 0
M  V30 3579 H 382.011 -0.867359 1.32901 0
M  V30 3580 H 382.032 -3.58773 1.26737 0
M  V30 3581 H 381.544 -2.65176 2.83379 0
M  V30 3582 H 379.645 -3.67866 0.592036 0
M  V30 3583 H 379.758 -4.13475 2.42023 0
M  V30 3584 H 378.122 -2.24542 1.20221 0
M  V30 3585 H 378.905 -1.92487 2.8426 0
M  V30 3586 N 381.35 -0.985608 -1.22978 0
M  V30 3587 C 382.598 -0.656087 -1.91154 0
M  V30 3588 C 382.919 0.813561 -1.77218 0
M  V30 3589 O 382.189 1.58244 -1.1548 0
M  V30 3590 H 380.769 -0.239674 -0.707506 0
M  V30 3591 H 383.431 -1.25054 -1.49491 0
M  V30 3592 H 382.527 -0.912253 -2.9847 0
M  V30 3593 N 382.828 1.3818 -0.7579 0
M  V30 3594 C 383.791 2.28764 -0.141286 0
M  V30 3595 C 384.791 1.47388 0.642907 0
M  V30 3596 O 385.981 1.67781 0.468536 0
M  V30 3597 C 383.113 3.31184 0.808069 0
M  V30 3598 H 384.306 2.848 -0.939633 0
M  V30 3599 H 381.859 1.47212 -0.525191 0
M  V30 3600 H 382.594 2.80247 1.63193 0
M  V30 3601 H 382.379 3.91314 0.248104 0
M  V30 3602 H 383.869 3.98909 1.23536 0
M  V30 3603 N 384.306 0.507319 1.49211 0
M  V30 3604 C 385.269 -0.256763 2.27757 0
M  V30 3605 C 386.269 -0.888287 1.34038 0
M  V30 3606 O 387.459 -0.751841 1.5714 0
M  V30 3607 C 384.591 -1.36905 3.12202 0
M  V30 3608 H 385.784 0.432557 2.96764 0
M  V30 3609 H 383.337 0.262488 1.5408 0
M  V30 3610 H 384.072 -2.09233 2.47775 0
M  V30 3611 H 383.857 -0.921599 3.81115 0
M  V30 3612 H 385.347 -1.9071 3.7151 0
M  V30 3613 N 385.784 -1.5574 0.241426 0
M  V30 3614 C 386.747 -2.19877 -0.647063 0
M  V30 3615 C 387.747 -1.16642 -1.10686 0
M  V30 3616 O 388.937 -1.41757 -1.01245 0
M  V30 3617 C 386.069 -2.83797 -1.88871 0
M  V30 3618 H 387.262 -2.99772 -0.087574 0
M  V30 3619 H 384.815 -1.56298 -0.00813574 0
M  V30 3620 H 385.55 -2.07824 -2.48957 0
M  V30 3621 H 385.335 -3.59414 -1.56728 0
M  V30 3622 H 386.825 -3.32898 -2.52129 0
M  V30 3623 N 387.262 0.0317525 -1.57568 0
M  V30 3624 C 388.51 0.721676 -1.88776 0
M  V30 3625 C 388.831 1.76039 -0.838772 0
M  V30 3626 O 388.101 1.95482 0.127935 0
M  V30 3627 H 386.681 0.269534 -0.696678 0
M  V30 3628 H 389.343 -0.00165879 -1.949 0
M  V30 3629 H 388.439 1.21293 -2.87566 0
M  V30 3630 N 388.74 1.54641 0.303973 0
M  V30 3631 C 389.988 1.73437 1.0375 0
M  V30 3632 C 390.309 0.521449 1.87899 0
M  V30 3633 O 389.579 -0.46432 1.90318 0
M  V30 3634 H 388.159 0.639518 0.386039 0
M  V30 3635 H 390.821 1.91988 0.335675 0
M  V30 3636 H 389.917 2.62235 1.69231 0
M  V30 3637 N 390.218 -0.567019 1.47046 0
M  V30 3638 C 391.464 -1.32658 1.53394 0
M  V30 3639 C 391.797 -1.93254 0.19148 0
M  V30 3640 O 391.072 -1.77338 -0.798844 0
M  V30 3641 C 391.355 -2.44412 2.64452 0
M  V30 3642 C 391.208 -1.88749 4.08282 0
M  V30 3643 C 392.527 -3.46387 2.71485 0
M  V30 3644 H 389.646 -0.48098 0.558415 0
M  V30 3645 H 392.288 -0.635481 1.79058 0
M  V30 3646 H 390.438 -3.03363 2.427 0
M  V30 3647 H 392.11 -1.34134 4.41368 0
M  V30 3648 H 390.353 -1.19481 4.17021 0
M  V30 3649 H 391.024 -2.69491 4.81745 0
M  V30 3650 H 393.5 -2.9734 2.91081 0
M  V30 3651 H 392.376 -4.2202 3.50985 0
M  V30 3652 H 392.637 -4.04616 1.78153 0
M  V30 3653 N 391.696 -1.35014 -0.812953 0
M  V30 3654 C 392.659 -1.27292 -1.90602 0
M  V30 3655 C 393.659 -0.185817 -1.59723 0
M  V30 3656 O 394.849 -0.439102 -1.68575 0
M  V30 3657 C 391.981 -0.967676 -3.26877 0
M  V30 3658 H 393.174 -2.24479 -1.9887 0
M  V30 3659 H 390.727 -1.19446 -1.00808 0
M  V30 3660 H 391.462 0.0005954 -3.243 0
M  V30 3661 H 391.247 -1.75412 -3.50675 0
M  V30 3662 H 392.737 -0.939085 -4.06904 0
M  V30 3663 N 393.175 1.03435 -1.18907 0
M  V30 3664 C 394.105 2.13503 -0.945448 0
M  V30 3665 C 395.086 1.69682 0.119189 0
M  V30 3666 O 396.271 1.94169 -0.034707 0
M  V30 3667 C 393.401 3.44004 -0.477316 0
M  V30 3668 C 392.355 4.0148 -1.48316 0
M  V30 3669 C 391.681 5.27537 -0.872311 0
M  V30 3670 C 392.981 4.36921 -2.86177 0
M  V30 3671 H 394.675 2.34141 -1.86597 0
M  V30 3672 H 392.221 1.12523 -0.898584 0
M  V30 3673 H 394.174 4.20372 -0.294204 0
M  V30 3674 H 392.898 3.23072 0.478786 0
M  V30 3675 H 391.557 3.27201 -1.65332 0
M  V30 3676 H 391.205 5.02917 0.0911752 0
M  V30 3677 H 390.905 5.66954 -1.54393 0
M  V30 3678 H 392.429 6.06576 -0.699871 0
M  V30 3679 H 393.843 5.04248 -2.72776 0
M  V30 3680 H 392.24 4.87405 -3.50081 0
M  V30 3681 H 393.31 3.46466 -3.39248 0
M  V30 3682 N 394.653 0.992116 1.22453 0
M  V30 3683 C 395.899 0.668523 1.91464 0
M  V30 3684 C 396.232 -0.797313 1.77078 0
M  V30 3685 O 395.507 -1.5765 1.13916 0
M  V30 3686 C 395.79 1.07424 3.43703 0
M  V30 3687 C 395.643 2.59857 3.67143 0
M  V30 3688 C 396.962 0.626891 4.35612 0
M  V30 3689 H 394.081 0.244341 0.695318 0
M  V30 3690 H 396.723 1.2355 1.44345 0
M  V30 3691 H 394.873 0.591816 3.83966 0
M  V30 3692 H 396.545 3.15764 3.3629 0
M  V30 3693 H 394.788 3.01961 3.11451 0
M  V30 3694 H 395.459 2.83296 4.73759 0
M  V30 3695 H 397.935 1.04125 4.02861 0
M  V30 3696 H 396.811 0.939076 5.40807 0
M  V30 3697 H 397.072 -0.472457 4.39568 0
M  V30 3698 N 396.131 -1.37776 0.765217 0
M  V30 3699 C 397.542 -1.82521 0.392819 0
M  V30 3700 C 397.893 -1.63789 -1.08017 0
M  V30 3701 O 397.018 -1.14542 -1.83601 0
M  V30 3702 C 397.613 -3.31358 0.706214 0
M  V30 3703 C 396.172 -3.74406 0.386952 0
M  V30 3704 C 395.319 -2.60394 0.953422 0
M  V30 3705 H 398.27 -1.2634 0.960412 0
M  V30 3706 H 398.291 -3.80498 -0.0114706 0
M  V30 3707 H 397.803 -3.44959 1.77833 0
M  V30 3708 H 395.904 -3.66377 -0.678112 0
M  V30 3709 H 396.017 -4.70749 0.890636 0
M  V30 3710 H 394.381 -2.51878 0.378064 0
M  V30 3711 H 395.164 -2.76791 2.03081 0
M  V30 3712 N 397.609 -0.515225 -1.4894 0
M  V30 3713 C 398.556 0.255567 -2.29381 0
M  V30 3714 C 399.526 0.947387 -1.36432 0
M  V30 3715 O 400.711 0.951288 -1.65394 0
M  V30 3716 C 397.851 1.30551 -3.19453 0
M  V30 3717 C 396.964 0.624029 -4.27469 0
M  V30 3718 C 396.099 1.65563 -5.0474 0
M  V30 3719 C 395.138 0.956802 -6.04576 0
M  V30 3720 N 394.275 1.93326 -6.74959 0
M  V30 3721 H 399.115 -0.436607 -2.94784 0
M  V30 3722 H 396.652 -0.227154 -1.45336 0
M  V30 3723 H 398.61 1.92639 -3.70062 0
M  V30 3724 H 397.24 1.96626 -2.56004 0
M  V30 3725 H 396.292 -0.110459 -3.8024 0
M  V30 3726 H 397.604 0.0746092 -4.98744 0
M  V30 3727 H 396.758 2.35119 -5.59289 0
M  V30 3728 H 395.497 2.23893 -4.3327 0
M  V30 3729 H 394.502 0.247097 -5.49244 0
M  V30 3730 H 395.727 0.379814 -6.78037 0
M  V30 3731 H 393.673 2.50591 -6.06251 0
M  V30 3732 H 393.59 1.43489 -7.42258 0
M  V30 3733 H 394.858 2.62126 -7.34105 0
M  V30 3734 N 399.087 1.5561 -0.249682 0
M  V30 3735 C 399.997 2.25143 0.659375 0
M  V30 3736 C 401.013 1.2685 1.19101 0
M  V30 3737 O 402.189 1.59732 1.22669 0
M  V30 3738 C 399.254 2.93945 1.8384 0
M  V30 3739 C 398.315 4.07655 1.34596 0
M  V30 3740 C 397.548 4.73167 2.46878 0
M  V30 3741 O 397.771 4.37768 3.65671 0
M  V30 3742 O 396.705 5.61623 2.16478 0
M  V30 3743 H 400.531 3.03545 0.0968698 0
M  V30 3744 H 398.116 1.49389 -0.018074 0
M  V30 3745 H 399.998 3.37271 2.52638 0
M  V30 3746 H 398.673 2.18481 2.38847 0
M  V30 3747 H 397.58 3.68839 0.625174 0
M  V30 3748 H 398.913 4.84946 0.841941 0
M  V30 3749 N 400.565 -0.0233959 1.57583 0
M  V30 3750 C 401.842 -0.748794 1.807 0
M  V30 3751 C 402.222 -1.9327 0.849106 0
M  V30 3752 O 401.57 -2.28247 -0.107468 0
M  V30 3753 C 401.78 -1.17651 3.28571 0
M  V30 3754 C 403.128 -1.59008 3.93702 0
M  V30 3755 O 404.152 -1.27094 3.32755 0
M  V30 3756 O 403.011 -2.18264 5.01022 0
M  V30 3757 H 400.105 -0.362578 0.743281 0
M  V30 3758 H 402.651 0.000261958 1.697 0
M  V30 3759 H 401.423 -0.331603 3.89892 0
M  V30 3760 H 401.046 -1.98541 3.44481 0
M  V30 3761 N 402.043 -1.548 -0.295768 0
M  V30 3762 C 403.268 -1.78653 -1.05346 0
M  V30 3763 C 403.693 -0.546894 -1.79974 0
M  V30 3764 O 403.051 0.502763 -1.7419 0
M  V30 3765 C 403.099 -2.99679 -2.00561 0
M  V30 3766 O 402.203 -2.7317 -3.08953 0
M  V30 3767 H 401.544 -0.59116 -0.302367 0
M  V30 3768 H 404.074 -2.01895 -0.331598 0
M  V30 3769 H 404.084 -3.27793 -2.42932 0
M  V30 3770 H 402.759 -3.89562 -1.4565 0
M  V30 3771 H 401.336 -2.56089 -2.71059 0
M  V30 3772 N 403.521 0.559213 -1.47345 0
M  V30 3773 C 404.937 0.884943 -1.32819 0
M  V30 3774 C 405.137 1.98988 -0.317173 0
M  V30 3775 O 404.193 2.51031 0.272011 0
M  V30 3776 C 405.506 1.28007 -2.72093 0
M  V30 3777 C 407.054 1.39161 -2.80363 0
M  V30 3778 C 407.529 1.82031 -4.20272 0
M  V30 3779 N 409.02 1.89185 -4.22804 0
M  V30 3780 C 409.755 2.2368 -5.27973 0
M  V30 3781 N 409.251 2.56802 -6.43447 0
M  V30 3782 N 411.044 2.24436 -5.15349 0
M  V30 3783 H 403.195 -0.170304 -2.11716 0
M  V30 3784 H 405.458 -0.0135247 -0.947904 0
M  V30 3785 H 405.164 0.542027 -3.47498 0
M  V30 3786 H 405.038 2.23665 -3.03733 0
M  V30 3787 H 407.425 2.12048 -2.05231 0
M  V30 3788 H 407.506 0.41696 -2.52379 0
M  V30 3789 H 407.15 1.09715 -4.95908 0
M  V30 3790 H 407.08 2.80495 -4.45679 0
M  V30 3791 H 409.571 1.65982 -3.39497 0
M  V30 3792 H 409.884 2.82144 -7.19454 0
M  V30 3793 H 408.229 2.54387 -6.46771 0
M  V30 3794 H 411.42 1.97998 -4.24163 0
M  V30 3795 H 411.593 2.50989 -5.97418 0
M  V30 3796 N 404.999 1.35443 0.805782 0
M  V30 3797 C 406.246 1.28761 1.56291 0
M  V30 3798 C 406.574 -0.137747 1.94012 0
M  V30 3799 O 405.829 -1.1032 1.61642 0
M  V30 3800 C 406.128 2.14045 2.86216 0
M  V30 3801 C 405.794 3.62826 2.67709 0
M  V30 3802 C 404.456 4.0338 2.6237 0
M  V30 3803 C 406.808 4.57227 2.50186 0
M  V30 3804 C 404.136 5.36501 2.37451 0
M  V30 3805 C 406.488 5.90547 2.26797 0
M  V30 3806 C 405.152 6.30245 2.1988 0
M  V30 3807 H 404.422 0.471171 0.571908 0
M  V30 3808 H 407.069 1.67347 0.930974 0
M  V30 3809 H 405.374 1.68342 3.53791 0
M  V30 3810 H 407.071 2.0621 3.43917 0
M  V30 3811 H 403.661 3.30644 2.72713 0
M  V30 3812 H 407.845 4.2678 2.53323 0
M  V30 3813 H 403.101 5.66259 2.30567 0
M  V30 3814 H 407.275 6.63274 2.12228 0
M  V30 3815 H 404.902 7.33328 2.00333 0
M  V30 3816 N 406.477 -1.02803 1.19454 0
M  V30 3817 C 407.702 -1.80378 1.02364 0
M  V30 3818 C 408.127 -1.83282 -0.423007 0
M  V30 3819 O 407.485 -1.25945 -1.30413 0
M  V30 3820 C 407.533 -3.23248 1.59821 0
M  V30 3821 O 406.637 -4.04 0.828105 0
M  V30 3822 H 405.978 -0.556799 0.361761 0
M  V30 3823 H 408.508 -1.29385 1.58495 0
M  V30 3824 H 408.518 -3.73994 1.63073 0
M  V30 3825 H 407.193 -3.2045 2.65113 0
M  V30 3826 H 405.77 -3.62635 0.86891 0
M  V30 3827 N 407.956 -0.998596 -1.21925 0
M  V30 3828 C 408.919 -0.558679 -2.22287 0
M  V30 3829 C 409.919 0.361525 -1.56683 0
M  V30 3830 O 411.109 0.152695 -1.73529 0
M  V30 3831 C 408.241 0.18661 -3.40389 0
M  V30 3832 H 409.434 -1.4463 -2.62721 0
M  V30 3833 H 406.987 -0.786413 -1.35075 0
M  V30 3834 H 407.722 1.08996 -3.05435 0
M  V30 3835 H 407.507 -0.474188 -3.89222 0
M  V30 3836 H 408.997 0.482367 -4.14805 0
M  V30 3837 N 409.434 1.37368 -0.772513 0
M  V30 3838 C 410.845 1.8231 -0.402493 0
M  V30 3839 C 411.196 1.6436 1.07146 0
M  V30 3840 O 410.321 1.15514 1.82991 0
M  V30 3841 C 410.916 3.30979 -0.723776 0
M  V30 3842 C 409.475 3.74195 -0.406802 0
M  V30 3843 C 408.622 2.59885 -0.967218 0
M  V30 3844 H 411.573 1.25829 -0.967099 0
M  V30 3845 H 411.594 3.80499 -0.00870832 0
M  V30 3846 H 411.106 3.44011 -1.7966 0
M  V30 3847 H 409.207 3.66732 0.658673 0
M  V30 3848 H 409.32 4.7027 -0.915588 0
M  V30 3849 H 407.684 2.51674 -0.391416 0
M  V30 3850 H 408.467 2.7571 -2.04546 0
M  V30 3851 N 410.912 0.523116 1.48665 0
M  V30 3852 C 412.328 0.180511 1.58576 0
M  V30 3853 C 412.528 -1.31597 1.52592 0
M  V30 3854 O 411.584 -2.0937 1.4114 0
M  V30 3855 C 412.897 0.776949 2.90489 0
M  V30 3856 C 414.445 0.745058 3.04003 0
M  V30 3857 C 414.92 1.31995 4.38567 0
M  V30 3858 N 416.411 1.28162 4.45117 0
M  V30 3859 C 417.146 1.6964 5.47731 0
M  V30 3860 N 416.642 2.18816 6.57337 0
M  V30 3861 N 418.435 1.6092 5.38573 0
M  V30 3862 H 410.586 1.4958 1.50797 0
M  V30 3863 H 412.849 0.621772 0.715614 0
M  V30 3864 H 412.555 1.82732 3.00503 0
M  V30 3865 H 412.429 0.25007 3.7637 0
M  V30 3866 H 414.816 -0.296532 2.93606 0
M  V30 3867 H 414.897 1.30933 2.1975 0
M  V30 3868 H 414.541 2.36043 4.49718 0
M  V30 3869 H 414.471 0.731418 5.21496 0
M  V30 3870 H 416.962 0.92155 3.66491 0
M  V30 3871 H 417.275 2.48478 7.31764 0
M  V30 3872 H 415.62 2.22805 6.58318 0
M  V30 3873 H 418.811 1.22304 4.5184 0
M  V30 3874 H 418.984 1.93567 6.18414 0
M  V30 3875 N 412.39 -1.55475 0.257931 0
M  V30 3876 C 413.636 -1.99502 -0.364266 0
M  V30 3877 C 413.969 -1.146 -1.56782 0
M  V30 3878 O 413.244 -0.211968 -1.93342 0
M  V30 3879 C 413.527 -3.51917 -0.763333 0
M  V30 3880 C 413.38 -4.4758 0.446371 0
M  V30 3881 C 414.699 -4.09742 -1.60623 0
M  V30 3882 H 411.818 -0.725277 -0.130929 0
M  V30 3883 H 414.46 -1.8653 0.361446 0
M  V30 3884 H 412.61 -3.63101 -1.38166 0
M  V30 3885 H 414.282 -4.48362 1.08487 0
M  V30 3886 H 412.525 -4.19947 1.08753 0
M  V30 3887 H 413.196 -5.51862 0.123645 0
M  V30 3888 H 415.672 -4.01727 -1.08418 0
M  V30 3889 H 414.548 -5.16631 -1.85429 0
M  V30 3890 H 414.809 -3.58889 -2.58169 0
M  V30 3891 N 413.868 0.0150385 -1.57593 0
M  V30 3892 C 414.831 0.995996 -2.06428 0
M  V30 3893 C 415.831 1.2818 -0.970903 0
M  V30 3894 O 417.021 1.22949 -1.23406 0
M  V30 3895 C 414.153 2.32506 -2.49307 0
M  V30 3896 H 415.346 0.573873 -2.94358 0
M  V30 3897 H 412.899 0.262186 -1.54085 0
M  V30 3898 H 413.634 2.79438 -1.64575 0
M  V30 3899 H 413.419 2.13087 -3.29145 0
M  V30 3900 H 414.909 3.02906 -2.87468 0
M  V30 3901 N 415.346 1.54954 0.287554 0
M  V30 3902 C 416.276 1.89839 1.35954 0
M  V30 3903 C 417.257 0.758675 1.52244 0
M  V30 3904 O 418.442 1.01557 1.65529 0
M  V30 3905 C 415.572 2.15753 2.72154 0
M  V30 3906 C 414.526 3.3159 2.70614 0
M  V30 3907 C 413.852 3.42952 4.10229 0
M  V30 3908 C 415.152 4.68359 2.31165 0
M  V30 3909 H 416.846 2.79625 1.07007 0
M  V30 3910 H 414.392 1.3454 0.513316 0
M  V30 3911 H 416.345 2.38743 3.47246 0
M  V30 3912 H 415.069 1.22752 3.02654 0
M  V30 3913 H 413.728 3.08545 1.97979 0
M  V30 3914 H 413.376 2.47443 4.37928 0
M  V30 3915 H 413.076 4.20826 4.10097 0
M  V30 3916 H 414.6 3.68218 4.87081 0
M  V30 3917 H 416.014 4.9099 2.95976 0
M  V30 3918 H 414.411 5.49044 2.42221 0
M  V30 3919 H 415.481 4.68165 1.26291 0
M  V30 3920 N 416.824 -0.551391 1.4764 0
M  V30 3921 C 418.07 -1.31024 1.54792 0
M  V30 3922 C 418.403 -1.9304 0.211967 0
M  V30 3923 O 417.678 -1.78175 -0.77999 0
M  V30 3924 C 417.961 -2.41593 2.67029 0
M  V30 3925 C 417.814 -1.84408 4.10261 0
M  V30 3926 C 419.133 -3.43488 2.75143 0
M  V30 3927 H 416.252 -0.475031 0.563485 0
M  V30 3928 H 418.894 -0.616454 1.79722 0
M  V30 3929 H 417.044 -3.00772 2.45904 0
M  V30 3930 H 418.716 -1.29445 4.42766 0
M  V30 3931 H 416.959 -1.15051 4.18265 0
M  V30 3932 H 417.63 -2.64367 4.84576 0
M  V30 3933 H 420.106 -2.94236 2.94218 0
M  V30 3934 H 418.982 -4.18274 3.55441 0
M  V30 3935 H 419.243 -4.02703 1.82435 0
M  V30 3936 N 418.302 -1.35869 -0.798587 0
M  V30 3937 C 419.212 -1.31578 -1.94228 0
M  V30 3938 C 420.228 -0.21939 -1.72611 0
M  V30 3939 O 421.404 -0.450167 -1.96305 0
M  V30 3940 C 418.469 -1.09528 -3.28944 0
M  V30 3941 C 417.53 -2.28556 -3.63402 0
M  V30 3942 C 416.763 -2.07549 -4.9169 0
M  V30 3943 O 416.986 -1.046 -5.60727 0
M  V30 3944 O 415.92 -2.95106 -5.24591 0
M  V30 3945 H 419.746 -2.27847 -2.00796 0
M  V30 3946 H 417.331 -1.16322 -0.937526 0
M  V30 3947 H 419.213 -0.991127 -4.09579 0
M  V30 3948 H 417.888 -0.16315 -3.23289 0
M  V30 3949 H 416.795 -2.44538 -2.83112 0
M  V30 3950 H 418.128 -3.20244 -3.73771 0
M  V30 3951 N 419.78 1.02168 -1.19998 0
M  V30 3952 C 420.712 2.10705 -0.901994 0
M  V30 3953 C 421.725 1.6244 0.108216 0
M  V30 3954 O 422.914 1.78082 -0.12214 0
M  V30 3955 C 420.014 3.37291 -0.329834 0
M  V30 3956 C 419.187 4.14714 -1.39035 0
M  V30 3957 C 418.246 5.19606 -0.830432 0
M  V30 3958 O 417.272 5.48809 -1.50989 0
M  V30 3959 N 418.474 5.79366 0.362696 0
M  V30 3960 H 421.239 2.36856 -1.83628 0
M  V30 3961 H 418.8 1.18518 -1.10296 0
M  V30 3962 H 420.792 4.04657 0.0587633 0
M  V30 3963 H 419.362 3.0843 0.508891 0
M  V30 3964 H 418.582 3.42392 -1.9535 0
M  V30 3965 H 419.87 4.63226 -2.10474 0
M  V30 3966 H 419.268 5.57968 0.932081 0
M  V30 3967 H 417.825 6.48106 0.69299 0
M  V30 3968 N 421.258 1.00505 1.21394 0
M  V30 3969 C 422.535 0.603277 1.86064 0
M  V30 3970 C 422.915 -0.919095 1.90042 0
M  V30 3971 O 422.263 -1.80607 1.39977 0
M  V30 3972 C 422.473 1.23772 3.26315 0
M  V30 3973 C 423.821 1.34586 4.02705 0
M  V30 3974 O 424.845 1.19304 3.35626 0
M  V30 3975 O 423.704 1.59169 5.22807 0
M  V30 3976 H 420.798 0.206634 0.800769 0
M  V30 3977 H 423.344 1.1017 1.29076 0
M  V30 3978 H 422.116 2.27848 3.18121 0
M  V30 3979 H 421.739 0.725648 3.90922 0
M  V30 3980 N 422.737 -1.36956 0.779787 0
M  V30 3981 C 423.7 -2.2851 0.177662 0
M  V30 3982 C 424.7 -1.48393 -0.619377 0
M  V30 3983 O 425.89 -1.68505 -0.441785 0
M  V30 3984 C 423.022 -3.32428 -0.755279 0
M  V30 3985 H 424.215 -2.83269 0.984823 0
M  V30 3986 H 421.768 -1.46358 0.548544 0
M  V30 3987 H 422.503 -2.82808 -1.58714 0
M  V30 3988 H 422.288 -3.91659 -0.185817 0
M  V30 3989 H 423.778 -4.00824 -1.17174 0
M  V30 3990 N 424.215 -0.530993 -1.48385 0
M  V30 3991 C 425.626 -0.0907905 -1.86479 0
M  V30 3992 C 425.977 1.33213 -1.44044 0
M  V30 3993 O 425.102 1.99783 -0.831615 0
M  V30 3994 C 425.697 -0.157987 -3.38431 0
M  V30 3995 C 424.256 0.227026 -3.75715 0
M  V30 3996 C 423.403 -0.5173 -2.72432 0
M  V30 3997 H 426.354 -0.742186 -1.40276 0
M  V30 3998 H 426.375 0.630053 -3.75247 0
M  V30 3999 H 425.887 -1.19372 -3.69286 0
M  V30 4000 H 423.988 1.26486 -3.50474 0
M  V30 4001 H 424.101 -0.113288 -4.78966 0
M  V30 4002 H 422.465 0.0365527 -2.54674 0
M  V30 4003 H 423.248 -1.55368 -3.0613 0
M  V30 4004 N 425.693 1.55336 -0.266172 0
M  V30 4005 C 426.626 2.18256 0.666296 0
M  V30 4006 C 427.604 1.14064 1.1588 0
M  V30 4007 O 428.788 1.42546 1.23341 0
M  V30 4008 C 425.915 2.79867 1.90768 0
M  V30 4009 C 424.961 3.97283 1.55141 0
M  V30 4010 S 425.794 5.31694 0.637313 0
M  V30 4011 C 426.95 5.96769 1.88727 0
M  V30 4012 H 427.183 2.97008 0.131647 0
M  V30 4013 H 424.716 1.54317 -0.0504869 0
M  V30 4014 H 426.674 3.15996 2.62025 0
M  V30 4015 H 425.335 2.01025 2.41346 0
M  V30 4016 H 424.528 4.3905 2.4749 0
M  V30 4017 H 424.13 3.6253 0.919113 0
M  V30 4018 H 426.422 6.15458 2.83227 0
M  V30 4019 H 427.365 6.91752 1.51276 0
M  V30 4020 H 427.773 5.26034 2.04814 0
M  V30 4021 N 427.171 -0.0066808 1.57599 0
M  V30 4022 C 428.134 -0.985035 2.06953 0
M  V30 4023 C 429.134 -1.27663 0.977687 0
M  V30 4024 O 430.324 -1.22293 1.24057 0
M  V30 4025 C 427.456 -2.3118 2.50536 0
M  V30 4026 H 428.649 -0.558255 2.94658 0
M  V30 4027 H 426.202 -0.254011 1.54222 0
M  V30 4028 H 426.937 -2.78561 1.66054 0
M  V30 4029 H 426.722 -2.11338 3.3027 0
M  V30 4030 H 428.212 -3.01377 2.8907 0
M  V30 4031 N 428.649 -1.55105 -0.279332 0
M  V30 4032 C 430.06 -1.66186 -0.850832 0
M  V30 4033 C 430.411 -0.584707 -1.87285 0
M  V30 4034 O 429.536 0.274919 -2.14647 0
M  V30 4035 C 430.131 -3.01264 -1.55001 0
M  V30 4036 C 428.69 -3.14394 -2.06963 0
M  V30 4037 C 427.837 -2.61959 -0.909536 0
M  V30 4038 H 430.788 -1.58602 -0.0558235 0
M  V30 4039 H 430.809 -2.93899 -2.41669 0
M  V30 4040 H 430.321 -3.7964 -0.805931 0
M  V30 4041 H 428.422 -2.4078 -2.84352 0
M  V30 4042 H 428.535 -4.20867 -2.28928 0
M  V30 4043 H 426.899 -2.18957 -1.30116 0
M  V30 4044 H 427.682 -3.42833 -0.179062 0
M  V30 4045 N 430.127 0.543554 -1.4793 0
M  V30 4046 C 431.375 1.29752 -1.54948 0
M  V30 4047 C 431.696 1.93764 -0.219242 0
M  V30 4048 O 430.966 1.80639 0.75805 0
M  V30 4049 H 429.546 0.481874 -0.570795 0
M  V30 4050 H 432.208 0.633636 -1.84312 0
M  V30 4051 H 431.304 2.08392 -2.32334 0
M  V30 4052 N 431.605 1.3629 0.791371 0
M  V30 4053 C 433.021 1.16661 1.08914 0
M  V30 4054 C 433.221 -0.0106266 2.01497 0
M  V30 4055 O 432.277 -0.676596 2.43266 0
M  V30 4056 C 433.59 2.47656 1.70549 0
M  V30 4057 C 435.138 2.54002 1.82899 0
M  V30 4058 C 435.613 3.85078 2.47949 0
M  V30 4059 N 437.104 3.86413 2.5542 0
M  V30 4060 C 437.839 4.84572 3.06557 0
M  V30 4061 N 437.335 5.93124 3.58016 0
M  V30 4062 N 439.128 4.71994 3.05251 0
M  V30 4063 H 431.279 2.11668 0.176238 0
M  V30 4064 H 433.542 0.937486 0.140796 0
M  V30 4065 H 433.248 3.34059 1.09989 0
M  V30 4066 H 433.122 2.63319 2.70079 0
M  V30 4067 H 435.509 1.68018 2.42598 0
M  V30 4068 H 435.59 2.42239 0.821808 0
M  V30 4069 H 435.234 4.71467 1.88895 0
M  V30 4070 H 435.164 3.94135 3.49235 0
M  V30 4071 H 437.655 3.07988 2.18979 0
M  V30 4072 H 437.968 6.63999 3.95381 0
M  V30 4073 H 436.313 5.96796 3.56173 0
M  V30 4074 H 439.504 3.86321 2.64336 0
M  V30 4075 H 439.677 5.48653 3.44796 0
M  V30 4076 N 433.083 -1.0153 1.20538 0
M  V30 4077 C 434.308 -1.79283 1.04271 0
M  V30 4078 C 434.733 -1.8372 -0.403544 0
M  V30 4079 O 434.091 -1.27321 -1.2907 0
M  V30 4080 C 434.139 -3.21535 1.63241 0
M  V30 4081 O 433.243 -4.03099 0.870908 0
M  V30 4082 H 432.584 -0.55293 0.367647 0
M  V30 4083 H 435.114 -1.27696 1.59859 0
M  V30 4084 H 435.124 -3.72243 1.6703 0
M  V30 4085 H 433.799 -3.1762 2.68497 0
M  V30 4086 H 432.376 -3.61693 0.907323 0
M  V30 4087 N 434.561 -1.01147 -1.20859 0
M  V30 4088 C 435.972 -0.730205 -1.71828 0
M  V30 4089 C 436.323 0.751662 -1.8123 0
M  V30 4090 O 435.448 1.58686 -1.47132 0
M  V30 4091 C 436.043 -1.31885 -3.12077 0
M  V30 4092 C 434.602 -1.08656 -3.60376 0
M  V30 4093 C 433.749 -1.42769 -2.37723 0
M  V30 4094 H 436.7 -1.18158 -1.05945 0
M  V30 4095 H 436.721 -0.706793 -3.73878 0
M  V30 4096 H 436.233 -2.39737 -3.05201 0
M  V30 4097 H 434.334 -0.0254814 -3.72591 0
M  V30 4098 H 434.447 -1.76301 -4.45483 0
M  V30 4099 H 432.811 -0.846603 -2.40218 0
M  V30 4100 H 433.594 -2.51666 -2.33493 0
M  V30 4101 N 436.039 1.36541 -0.78704 0
M  V30 4102 C 436.969 2.32659 -0.197992 0
M  V30 4103 C 437.95 1.56533 0.665697 0
M  V30 4104 O 439.135 1.84698 0.60001 0
M  V30 4105 C 436.265 3.40778 0.669901 0
M  V30 4106 C 435.219 4.27897 -0.0937039 0
M  V30 4107 C 434.545 5.27163 0.894629 0
M  V30 4108 C 435.845 5.06334 -1.28154 0
M  V30 4109 H 437.539 2.82171 -1.00099 0
M  V30 4110 H 435.085 1.35665 -0.482793 0
M  V30 4111 H 437.038 4.07008 1.09191 0
M  V30 4112 H 435.762 2.89827 1.50558 0
M  V30 4113 H 434.421 3.6322 -0.49666 0
M  V30 4114 H 434.069 4.72486 1.72527 0
M  V30 4115 H 433.769 5.86317 0.388149 0
M  V30 4116 H 435.293 5.96266 1.31525 0
M  V30 4117 H 436.707 5.65617 -0.93541 0
M  V30 4118 H 435.104 5.74888 -1.72115 0
M  V30 4119 H 436.174 4.38114 -2.07807 0
M  V30 4120 N 437.518 0.538854 1.48102 0
M  V30 4121 C 438.481 -0.208395 2.28251 0
M  V30 4122 C 439.481 -0.859656 1.35892 0
M  V30 4123 O 440.671 -0.71834 1.58699 0
M  V30 4124 C 437.803 -1.30252 3.15035 0
M  V30 4125 H 438.996 0.495407 2.9578 0
M  V30 4126 H 436.549 0.295112 1.53489 0
M  V30 4127 H 437.284 -2.0393 2.52157 0
M  V30 4128 H 437.069 -0.840551 3.82985 0
M  V30 4129 H 438.559 -1.82787 3.75471 0
M  V30 4130 N 438.996 -1.55193 0.274407 0
M  V30 4131 C 440.224 -2.03987 -0.345943 0
M  V30 4132 C 440.639 -1.15279 -1.4952 0
M  V30 4133 O 439.996 -0.172759 -1.8168 0
M  V30 4134 C 440.047 -3.51898 -0.827631 0
M  V30 4135 O 439.768 -4.37231 0.275855 0
M  V30 4136 C 441.269 -4.16577 -1.51587 0
M  V30 4137 H 438.489 -0.666335 -0.0789892 0
M  V30 4138 H 441.033 -2.00423 0.406294 0
M  V30 4139 H 439.188 -3.55909 -1.52996 0
M  V30 4140 H 439.602 -5.24415 -0.0943638 0
M  V30 4141 H 441.076 -5.21678 -1.80433 0
M  V30 4142 H 441.553 -3.64707 -2.44716 0
M  V30 4143 H 442.159 -4.16568 -0.857409 0
M  V30 4144 N 440.474 -0.00167713 -1.576 0
M  V30 4145 C 441.702 0.693759 -1.94922 0
M  V30 4146 C 442.117 1.67215 -0.876626 0
M  V30 4147 O 441.474 1.81929 0.144279 0
M  V30 4148 C 441.525 1.42416 -3.32265 0
M  V30 4149 O 441.246 0.485014 -4.35407 0
M  V30 4150 C 442.747 2.21395 -3.84056 0
M  V30 4151 H 439.967 0.193118 -0.642609 0
M  V30 4152 H 442.511 -0.0532952 -2.04431 0
M  V30 4153 H 440.666 2.12284 -3.24059 0
M  V30 4154 H 441.08 1.00053 -5.14868 0
M  V30 4155 H 442.554 2.67996 -4.82578 0
M  V30 4156 H 443.031 3.04142 -3.16851 0
M  V30 4157 H 443.637 1.56542 -3.95443 0
M  V30 4158 N 441.952 1.55251 0.271103 0
M  V30 4159 C 443.198 1.76207 1.00394 0
M  V30 4160 C 443.531 0.562604 1.85872 0
M  V30 4161 O 442.806 -0.439785 1.89463 0
M  V30 4162 C 443.089 3.06828 1.8849 0
M  V30 4163 C 442.942 4.37134 1.05992 0
M  V30 4164 C 444.261 3.33503 2.87165 0
M  V30 4165 H 441.38 0.641086 0.363562 0
M  V30 4166 H 444.022 1.87982 0.276189 0
M  V30 4167 H 442.172 2.96921 2.5054 0
M  V30 4168 H 443.844 4.59001 0.459978 0
M  V30 4169 H 442.087 4.32275 0.363443 0
M  V30 4170 H 442.758 5.2486 1.70955 0
M  V30 4171 H 445.234 3.43215 2.3525 0
M  V30 4172 H 444.11 4.2616 3.45946 0
M  V30 4173 H 444.371 2.53235 3.62387 0
M  V30 4174 N 443.43 -0.535701 1.48216 0
M  V30 4175 C 444.363 -1.65726 1.56876 0
M  V30 4176 C 445.341 -1.57094 0.419542 0
M  V30 4177 O 446.525 -1.77648 0.630352 0
M  V30 4178 C 443.652 -3.04096 1.49142 0
M  V30 4179 C 442.698 -3.31105 2.68834 0
M  V30 4180 S 443.531 -3.18001 4.30854 0
M  V30 4181 C 444.687 -4.58828 4.25709 0
M  V30 4182 H 444.92 -1.58129 2.51759 0
M  V30 4183 H 442.453 -0.718218 1.36678 0
M  V30 4184 H 444.411 -3.839 1.45366 0
M  V30 4185 H 443.072 -3.09139 0.556067 0
M  V30 4186 H 442.265 -4.32033 2.59545 0
M  V30 4187 H 441.867 -2.58961 2.69843 0
M  V30 4188 H 444.159 -5.5023 3.95289 0
M  V30 4189 H 445.102 -4.73172 5.26796 0
M  V30 4190 H 445.51 -4.37883 3.56257 0
M  V30 4191 N 444.908 -1.36708 -0.784132 0
M  V30 4192 C 446.185 -1.21776 -1.53069 0
M  V30 4193 C 446.565 0.193876 -2.10208 0
M  V30 4194 O 445.913 1.20012 -1.94446 0
M  V30 4195 C 446.123 -2.30395 -2.62143 0
M  V30 4196 C 447.471 -2.67325 -3.29882 0
M  V30 4197 O 448.495 -2.29478 -2.7243 0
M  V30 4198 O 447.354 -3.32485 -4.33724 0
M  V30 4199 H 444.448 -0.474459 -0.677361 0
M  V30 4200 H 446.994 -1.48454 -0.82216 0
M  V30 4201 H 445.766 -3.2498 -2.17953 0
M  V30 4202 H 445.389 -2.05112 -3.40609 0
M  V30 4203 N 446.386 1.0089 -1.21074 0
M  V30 4204 C 447.633 1.74607 -1.0256 0
M  V30 4205 C 447.961 1.89426 0.44136 0
M  V30 4206 O 447.216 1.42266 1.34384 0
M  V30 4207 C 447.515 3.16335 -1.66334 0
M  V30 4208 C 447.181 3.21474 -3.16173 0
M  V30 4209 C 445.843 3.22583 -3.57062 0
M  V30 4210 C 448.195 3.19025 -4.12156 0
M  V30 4211 C 445.523 3.18925 -4.92446 0
M  V30 4212 C 447.875 3.16909 -5.47496 0
M  V30 4213 C 446.539 3.16326 -5.87787 0
M  V30 4214 H 445.809 0.638933 -0.375294 0
M  V30 4215 H 448.456 1.18274 -1.50611 0
M  V30 4216 H 446.761 3.75876 -1.10566 0
M  V30 4217 H 448.458 3.72083 -1.49516 0
M  V30 4218 H 445.048 3.2135 -2.83605 0
M  V30 4219 H 449.232 3.17332 -3.81595 0
M  V30 4220 H 444.488 3.16809 -5.22917 0
M  V30 4221 H 448.662 3.13968 -6.21609 0
M  V30 4222 H 446.289 3.13246 -6.92662 0
M  V30 4223 N 447.864 1.01787 1.20321 0
M  V30 4224 C 449.113 0.703249 1.89043 0
M  V30 4225 C 449.426 -0.770445 1.79787 0
M  V30 4226 O 450.632 -1.19767 2.43656 0
M  V30 4227 C 449.088 1.20749 3.3904 0
M  V30 4228 C 448.696 2.70817 3.56878 0
M  V30 4229 C 450.44 0.968352 4.13308 0
M  V30 4230 C 448.347 3.14716 5.00708 0
M  V30 4231 H 447.277 0.259354 0.707991 0
M  V30 4232 H 449.928 1.23072 1.36108 0
M  V30 4233 H 448.31 0.607989 3.91305 0
M  V30 4234 H 449.484 3.36327 3.14993 0
M  V30 4235 H 447.799 2.92888 2.95983 0
M  V30 4236 H 450.396 1.27173 5.19356 0
M  V30 4237 H 450.739 -0.095149 4.16191 0
M  V30 4238 H 451.272 1.53129 3.67146 0
M  V30 4239 H 448.011 4.20347 5.02979 0
M  V30 4240 H 447.531 2.53927 5.43398 0
M  V30 4241 H 449.21 3.07426 5.69296 0
M  V30 4242 N 449.342 -1.36122 0.79427 0
M  V30 4243 C 450.292 -2.27373 0.169017 0
M  V30 4244 C 451.276 -1.4719 -0.649913 0
M  V30 4245 O 452.468 -1.69518 -0.50919 0
M  V30 4246 C 449.597 -3.36264 -0.691455 0
M  V30 4247 C 448.683 -4.2388 0.13653 0
M  V30 4248 N 449.074 -4.91519 1.19345 0
M  V30 4249 C 447.372 -4.45921 -0.0838499 0
M  V30 4250 C 448.073 -5.56369 1.6979 0
M  V30 4251 N 447.049 -5.34204 1.00634 0
M  V30 4252 H 450.851 -2.77154 0.977897 0
M  V30 4253 H 448.365 -1.49504 0.634208 0
M  V30 4254 H 450.362 -4.00572 -1.15534 0
M  V30 4255 H 449.022 -2.88037 -1.49883 0
M  V30 4256 H 450.033 -4.9334 1.57594 0
M  V30 4257 H 446.71 -4.08518 -0.861341 0
M  V30 4258 H 448.1 -6.20368 2.58055 0
M  V30 4259 N 450.82 -0.546701 -1.47814 0
M  V30 4260 C 452.066 -0.0187684 -2.02791 0
M  V30 4261 C 452.399 1.32338 -1.42128 0
M  V30 4262 O 451.674 1.85867 -0.573023 0
M  V30 4263 C 451.957 0.0854985 -3.59998 0
M  V30 4264 C 451.81 -1.283 -4.31114 0
M  V30 4265 C 453.129 0.80412 -4.32691 0
M  V30 4266 H 450.248 -0.0082946 -0.736953 0
M  V30 4267 H 452.89 -0.706962 -1.76358 0
M  V30 4268 H 451.04 0.671609 -3.82651 0
M  V30 4269 H 452.712 -1.91151 -4.19832 0
M  V30 4270 H 450.955 -1.86049 -3.91878 0
M  V30 4271 H 451.626 -1.16287 -5.39612 0
M  V30 4272 H 454.102 0.306576 -4.14969 0
M  V30 4273 H 452.978 0.846011 -5.42341 0
M  V30 4274 H 453.239 1.85802 -4.01161 0
M  V30 4275 N 452.299 1.55045 -0.282633 0
M  V30 4276 C 453.71 1.85473 0.213655 0
M  V30 4277 C 454.061 1.20465 1.54863 0
M  V30 4278 O 453.186 0.495676 2.10647 0
M  V30 4279 C 453.781 3.36496 0.394445 0
M  V30 4280 C 452.34 3.67022 0.834961 0
M  V30 4281 C 451.487 2.77218 -0.0674081 0
M  V30 4282 H 454.438 1.50478 -0.504202 0
M  V30 4283 H 454.459 3.60007 1.23186 0
M  V30 4284 H 453.971 3.83782 -0.577326 0
M  V30 4285 H 452.072 3.25241 1.81794 0
M  V30 4286 H 452.185 4.74433 0.667075 0
M  V30 4287 H 450.549 2.5069 0.450196 0
M  V30 4288 H 451.332 3.2732 -1.0352 0
M  V30 4289 N 453.777 0.010035 1.57597 0
M  V30 4290 C 455.026 -0.671945 1.90178 0
M  V30 4291 C 455.339 -1.74376 0.886131 0
M  V30 4292 O 456.545 -2.48107 1.10252 0
M  V30 4293 C 455.001 -1.24636 3.3763 0
M  V30 4294 C 454.609 -0.208838 4.47513 0
M  V30 4295 C 456.353 -1.90595 3.79307 0
M  V30 4296 C 454.26 -0.793814 5.86048 0
M  V30 4297 H 453.19 -0.25474 0.709665 0
M  V30 4298 H 455.841 0.0722206 1.83358 0
M  V30 4299 H 454.223 -2.04152 3.3932 0
M  V30 4300 H 455.397 0.562463 4.57354 0
M  V30 4301 H 453.712 0.350889 4.14919 0
M  V30 4302 H 456.309 -2.35284 4.80151 0
M  V30 4303 H 456.652 -2.74074 3.13352 0
M  V30 4304 H 457.185 -1.17798 3.79958 0
M  V30 4305 H 453.924 0.00240855 6.555 0
M  V30 4306 H 453.444 -1.53404 5.79851 0
M  V30 4307 H 455.123 -1.2894 6.34022 0
M  V30 4308 N 455.255 -1.55392 -0.262866 0
M  V30 4309 C 456.185 -1.91978 -1.32917 0
M  V30 4310 C 457.166 -0.7828 -1.51017 0
M  V30 4311 O 458.351 -1.04178 -1.63892 0
M  V30 4312 C 455.481 -2.20055 -2.68687 0
M  V30 4313 C 454.435 -3.35854 -2.65304 0
M  V30 4314 C 453.761 -3.49435 -4.04721 0
M  V30 4315 C 455.061 -4.71977 -2.23685 0
M  V30 4316 H 456.755 -2.81292 -1.02544 0
M  V30 4317 H 454.301 -1.3534 -0.491846 0
M  V30 4318 H 456.254 -2.44237 -3.43404 0
M  V30 4319 H 454.978 -1.27551 -3.00663 0
M  V30 4320 H 453.637 -3.11655 -1.93045 0
M  V30 4321 H 453.285 -2.54379 -4.33936 0
M  V30 4322 H 452.985 -4.27297 -4.0335 0
M  V30 4323 H 454.509 -3.7592 -4.81161 0
M  V30 4324 H 455.923 -4.95637 -2.88127 0
M  V30 4325 H 454.32 -5.52828 -2.33456 0
M  V30 4326 H 455.39 -4.70115 -1.18827 0
M  V30 4327 N 456.733 0.527833 -1.48498 0
M  V30 4328 C 458.144 1.10975 -1.50138 0
M  V30 4329 C 458.495 1.943 -0.272378 0
M  V30 4330 O 457.62 2.07319 0.620301 0
M  V30 4331 C 458.215 2.01927 -2.72049 0
M  V30 4332 C 456.774 2.55332 -2.76554 0
M  V30 4333 C 455.921 1.32341 -2.43683 0
M  V30 4334 H 458.872 0.312986 -1.55583 0
M  V30 4335 H 458.893 2.86244 -2.50689 0
M  V30 4336 H 458.405 1.41254 -3.61481 0
M  V30 4337 H 456.506 3.19721 -1.91336 0
M  V30 4338 H 456.619 2.94319 -3.78038 0
M  V30 4339 H 454.983 1.63989 -1.94884 0
M  V30 4340 H 455.766 0.734165 -3.35358 0
M  V30 4341 N 458.211 1.37122 0.776871 0
M  V30 4342 C 459.141 1.35164 1.90402 0
M  V30 4343 C 460.122 0.221069 1.68657 0
M  V30 4344 O 461.307 0.420642 1.8959 0
M  V30 4345 C 458.437 1.15274 3.27611 0
M  V30 4346 C 457.391 2.25289 3.63908 0
M  V30 4347 C 456.717 1.90527 4.99603 0
M  V30 4348 C 458.017 3.67446 3.71188 0
M  V30 4349 H 459.711 2.29482 1.92297 0
M  V30 4350 H 457.257 1.10465 0.923773 0
M  V30 4351 H 459.21 1.12536 4.06096 0
M  V30 4352 H 457.934 0.174102 3.26136 0
M  V30 4353 H 456.593 2.27174 2.87728 0
M  V30 4354 H 456.241 0.91206 4.94662 0
M  V30 4355 H 455.941 2.64193 5.24858 0
M  V30 4356 H 457.465 1.89367 5.80493 0
M  V30 4357 H 458.879 3.67719 4.39836 0
M  V30 4358 H 457.276 4.40123 4.07936 0
M  V30 4359 H 458.346 4.01443 2.71977 0
M  V30 4360 N 459.689 -1.00246 1.21608 0
M  V30 4361 C 460.637 -2.11193 0.97469 0
M  V30 4362 C 461.631 -1.69216 -0.0789303 0
M  V30 4363 O 462.837 -1.79853 0.0726806 0
M  V30 4364 H 459.212 -0.690455 0.297953 0
M  V30 4365 H 461.183 -2.2873 1.91638 0
M  V30 4366 C 459.932 -3.43182 0.558717 0
M  V30 4367 H 459.255 -3.75918 1.3611 0
M  V30 4368 H 460.695 -4.21823 0.429154 0
M  V30 4369 C 459.154 -3.28882 -0.730648 0
M  V30 4370 O 459.684 -3.59835 -1.78554 0
M  V30 4371 N 457.89 -2.8209 -0.698131 0
M  V30 4372 H 457.437 -2.57099 0.16061 0
M  V30 4373 H 457.395 -2.72903 -1.56113 0
M  V30 4374 N 461.167 -1.02423 -1.1978 0
M  V30 4375 C 462.117 -0.571689 -2.20716 0
M  V30 4376 C 463.101 0.377077 -1.56419 0
M  V30 4377 O 464.293 0.198801 -1.7588 0
M  V30 4378 C 461.422 0.0808555 -3.43205 0
M  V30 4379 C 460.508 -0.890073 -4.14655 0
M  V30 4380 N 460.899 -2.05065 -4.62366 0
M  V30 4381 C 459.197 -0.71252 -4.40272 0
M  V30 4382 C 459.898 -2.66264 -5.17183 0
M  V30 4383 N 458.874 -1.94264 -5.07703 0
M  V30 4384 H 462.676 -1.45636 -2.55279 0
M  V30 4385 H 460.19 -0.890596 -1.35802 0
M  V30 4386 H 462.187 0.422654 -4.14752 0
M  V30 4387 H 460.847 0.961274 -3.10144 0
M  V30 4388 H 461.858 -2.43026 -4.57339 0
M  V30 4389 H 458.535 0.119199 -4.1733 0
M  V30 4390 H 459.925 -3.64526 -5.64421 0
M  V30 4391 N 462.645 1.35699 -0.801477 0
M  V30 4392 C 463.608 2.28199 -0.213994 0
M  V30 4393 C 464.608 1.49359 0.595691 0
M  V30 4394 O 465.798 1.69186 0.414921 0
M  V30 4395 C 462.93 3.33587 0.702297 0
M  V30 4396 H 464.123 2.81666 -1.02976 0
M  V30 4397 H 461.676 1.45467 -0.571759 0
M  V30 4398 H 462.411 2.85297 1.54195 0
M  V30 4399 H 462.196 3.91906 0.123484 0
M  V30 4400 H 463.686 4.02638 1.10783 0
M  V30 4401 N 464.123 0.554532 1.47522 0
M  V30 4402 C 465.053 -0.182974 2.32782 0
M  V30 4403 C 466.034 -0.911377 1.43624 0
M  V30 4404 O 467.219 -0.892366 1.72483 0
M  V30 4405 C 464.349 -1.21513 3.25349 0
M  V30 4406 C 463.303 -0.603355 4.23726 0
M  V30 4407 C 462.629 -1.73995 5.05598 0
M  V30 4408 C 463.929 0.441121 5.20434 0
M  V30 4409 H 465.623 0.52882 2.94693 0
M  V30 4410 H 463.169 0.255759 1.41711 0
M  V30 4411 H 465.122 -1.73922 3.83835 0
M  V30 4412 H 463.846 -1.95683 2.61487 0
M  V30 4413 H 462.505 -0.10059 3.66462 0
M  V30 4414 H 462.153 -2.47063 4.38143 0
M  V30 4415 H 461.853 -1.3364 5.72201 0
M  V30 4416 H 463.377 -2.26735 5.66942 0
M  V30 4417 H 464.791 0.00319931 5.733 0
M  V30 4418 H 463.188 0.763402 5.95224 0
M  V30 4419 H 464.258 1.33799 4.66075 0
M  V30 4420 N 465.601 -1.54893 0.290851 0
M  V30 4421 C 466.531 -2.26103 -0.583084 0
M  V30 4422 C 467.512 -1.25684 -1.14619 0
M  V30 4423 O 468.697 -1.54436 -1.17741 0
M  V30 4424 C 465.827 -2.99409 -1.75987 0
M  V30 4425 C 464.781 -4.0689 -1.32758 0
M  V30 4426 C 464.107 -4.67856 -2.58872 0
M  V30 4427 C 465.407 -5.20215 -0.46624 0
M  V30 4428 H 467.101 -2.99398 0.0108214 0
M  V30 4429 H 464.647 -1.43998 0.00664468 0
M  V30 4430 H 466.6 -3.47943 -2.37727 0
M  V30 4431 H 465.324 -2.23675 -2.37985 0
M  V30 4432 H 463.983 -3.59191 -0.733299 0
M  V30 4433 H 463.631 -3.88772 -3.19163 0
M  V30 4434 H 463.331 -5.40438 -2.30653 0
M  V30 4435 H 464.855 -5.19147 -3.21433 0
M  V30 4436 H 466.269 -5.64704 -0.989047 0
M  V30 4437 H 464.666 -5.99455 -0.27826 0
M  V30 4438 H 465.736 -4.82198 0.511173 0
M  V30 4439 N 467.08 -0.0183926 -1.57589 0
M  V30 4440 C 468.043 0.951986 -2.08494 0
M  V30 4441 C 469.043 1.26092 -0.997874 0
M  V30 4442 O 470.233 1.20304 -1.25987 0
M  V30 4443 C 467.365 2.27165 -2.54182 0
M  V30 4444 H 468.558 0.511307 -2.95509 0
M  V30 4445 H 466.111 0.229444 -1.54607 0
M  V30 4446 H 466.846 2.75884 -1.70465 0
M  V30 4447 H 466.631 2.06057 -3.33591 0
M  V30 4448 H 468.121 2.9674 -2.93828 0
M  V30 4449 N 468.558 1.5553 0.254621 0
M  V30 4450 C 469.521 1.88872 1.29846 0
M  V30 4451 C 470.521 0.764591 1.41459 0
M  V30 4452 O 471.711 1.03265 1.40293 0
M  V30 4453 C 468.843 2.11032 2.67728 0
M  V30 4454 H 470.036 2.82201 1.01502 0
M  V30 4455 H 467.589 1.48303 0.493556 0
M  V30 4456 H 468.324 1.20146 3.01223 0
M  V30 4457 H 468.109 2.92895 2.60682 0
M  V30 4458 H 469.599 2.38038 3.43115 0
M  V30 4459 N 470.036 -0.519951 1.48776 0
M  V30 4460 C 471.452 -0.849418 1.35119 0
M  V30 4461 C 471.652 -1.98077 0.36982 0
M  V30 4462 O 470.708 -2.51664 -0.205359 0
M  V30 4463 C 472.021 -1.20748 2.75391 0
M  V30 4464 C 473.569 -1.31679 2.83954 0
M  V30 4465 C 474.044 -1.70824 4.24951 0
M  V30 4466 N 475.535 -1.77908 4.27672 0
M  V30 4467 C 476.27 -2.09603 5.33717 0
M  V30 4468 N 475.766 -2.39652 6.5003 0
M  V30 4469 N 477.559 -2.10694 5.21119 0
M  V30 4470 H 469.71 0.226377 2.1119 0
M  V30 4471 H 471.973 0.0386519 0.947212 0
M  V30 4472 H 471.679 -0.449703 3.48813 0
M  V30 4473 H 471.553 -2.15534 3.09556 0
M  V30 4474 H 473.94 -2.06532 2.10781 0
M  V30 4475 H 474.021 -0.3499 2.53396 0
M  V30 4476 H 473.665 -0.965282 4.98643 0
M  V30 4477 H 473.595 -2.6858 4.52959 0
M  V30 4478 H 476.086 -1.56923 3.43779 0
M  V30 4479 H 476.399 -2.6297 7.26682 0
M  V30 4480 H 474.744 -2.37149 6.53288 0
M  V30 4481 H 477.935 -1.86682 4.29264 0
M  V30 4482 H 478.108 -2.35062 6.03863 0
M  V30 4483 N 471.514 -1.37532 -0.769588 0
M  V30 4484 C 472.742 -1.36059 -1.55871 0
M  V30 4485 C 473.157 0.053544 -1.88724 0
M  V30 4486 O 472.514 1.01591 -1.5161 0
M  V30 4487 C 472.565 -2.20107 -2.86767 0
M  V30 4488 O 472.286 -3.56009 -2.55321 0
M  V30 4489 C 473.787 -2.26636 -3.80987 0
M  V30 4490 H 471.007 -0.465967 -0.482821 0
M  V30 4491 H 473.551 -1.80901 -0.953686 0
M  V30 4492 H 471.706 -1.78768 -3.43687 0
M  V30 4493 H 472.12 -4.0009 -3.39158 0
M  V30 4494 H 473.594 -2.89763 -4.69831 0
M  V30 4495 H 474.071 -1.2754 -4.20274 0
M  V30 4496 H 474.677 -2.68296 -3.29996 0
M  V30 4497 N 472.992 0.995999 -1.22138 0
M  V30 4498 C 474.408 1.25917 -0.980667 0
M  V30 4499 C 474.608 1.98819 0.327604 0
M  V30 4500 O 473.664 2.29587 1.05101 0
M  V30 4501 C 474.977 2.07399 -2.17729 0
M  V30 4502 C 476.525 2.20594 -2.22052 0
M  V30 4503 C 477 3.05462 -3.41258 0
M  V30 4504 N 478.491 3.13049 -3.41401 0
M  V30 4505 C 479.226 3.78997 -4.30289 0
M  V30 4506 N 478.722 4.46899 -5.2939 0
M  V30 4507 N 480.515 3.75728 -4.18073 0
M  V30 4508 H 472.666 0.507158 -2.06256 0
M  V30 4509 H 474.929 0.28658 -0.903646 0
M  V30 4510 H 474.635 1.61191 -3.12586 0
M  V30 4511 H 474.509 3.08154 -2.17534 0
M  V30 4512 H 476.896 2.66017 -1.27745 0
M  V30 4513 H 476.977 1.1928 -2.26287 0
M  V30 4514 H 476.621 2.60739 -4.35864 0
M  V30 4515 H 476.551 4.06911 -3.34262 0
M  V30 4516 H 479.042 2.64721 -2.69688 0
M  V30 4517 H 479.355 4.94952 -5.935 0
M  V30 4518 H 477.7 4.45657 -5.33306 0
M  V30 4519 H 480.891 3.2184 -3.39907 0
M  V30 4520 H 481.064 4.26845 -4.87553 0
M  V30 4521 N 474.47 1.03057 1.19235 0
M  V30 4522 C 475.402 0.570932 2.21975 0
M  V30 4523 C 476.415 -0.354088 1.58903 0
M  V30 4524 O 477.604 -0.150211 1.77867 0
M  V30 4525 C 474.704 -0.187152 3.38383 0
M  V30 4526 C 473.877 0.743231 4.31039 0
M  V30 4527 C 472.936 0.0302493 5.26191 0
M  V30 4528 O 471.962 0.657371 5.65391 0
M  V30 4529 N 473.164 -1.23991 5.67104 0
M  V30 4530 H 475.929 1.45456 2.62036 0
M  V30 4531 H 473.49 0.909807 1.33918 0
M  V30 4532 H 475.482 -0.673715 3.99053 0
M  V30 4533 H 474.052 -0.972205 2.97098 0
M  V30 4534 H 473.272 1.40985 3.68126 0
M  V30 4535 H 474.56 1.3755 4.89854 0
M  V30 4536 H 473.958 -1.77011 5.37293 0
M  V30 4537 H 472.515 -1.67093 6.30018 0
M  V30 4538 N 475.948 -1.35272 0.808662 0
M  V30 4539 C 476.878 -2.32315 0.234981 0
M  V30 4540 C 477.859 -1.57572 -0.64071 0
M  V30 4541 O 479.044 -1.8563 -0.570551 0
M  V30 4542 C 476.174 -3.41801 -0.615601 0
M  V30 4543 C 475.128 -4.27694 0.161767 0
M  V30 4544 C 474.454 -5.28519 -0.810649 0
M  V30 4545 C 475.754 -5.04231 1.36193 0
M  V30 4546 H 477.448 -2.80543 1.04575 0
M  V30 4547 H 474.994 -1.3488 0.504315 0
M  V30 4548 H 476.947 -4.08693 -1.02702 0
M  V30 4549 H 475.671 -2.92186 -1.45928 0
M  V30 4550 H 474.33 -3.62384 0.554382 0
M  V30 4551 H 473.978 -4.75171 -1.64988 0
M  V30 4552 H 473.678 -5.8686 -0.294822 0
M  V30 4553 H 475.202 -5.98283 -1.22023 0
M  V30 4554 H 476.616 -5.64058 1.02528 0
M  V30 4555 H 475.013 -5.72077 1.81239 0
M  V30 4556 H 476.083 -4.34753 2.14751 0
M  V30 4557 N 477.426 -0.562348 -1.47226 0
M  V30 4558 C 478.356 0.170627 -2.32876 0
M  V30 4559 C 479.337 0.903748 -1.44106 0
M  V30 4560 O 480.522 0.883206 -1.72954 0
M  V30 4561 C 477.652 1.19786 -3.25989 0
M  V30 4562 C 476.606 0.580875 -4.2404 0
M  V30 4563 C 475.932 1.71311 -5.06514 0
M  V30 4564 C 477.232 -0.468714 -5.20193 0
M  V30 4565 H 478.926 -0.544441 -2.94408 0
M  V30 4566 H 476.472 -0.263271 -1.41573 0
M  V30 4567 H 478.425 1.71884 -3.84752 0
M  V30 4568 H 477.149 1.94294 -2.62521 0
M  V30 4569 H 475.808 0.0811538 -3.6651 0
M  V30 4570 H 475.456 2.44736 -4.39447 0
M  V30 4571 H 475.156 1.30604 -5.72902 0
M  V30 4572 H 476.68 2.23725 -5.68137 0
M  V30 4573 H 478.094 -0.0336028 -5.7329 0
M  V30 4574 H 476.491 -0.794957 -5.94811 0
M  V30 4575 H 477.561 -1.36269 -4.65359 0
M  V30 4576 N 478.904 1.54736 -0.299062 0
M  V30 4577 C 479.814 2.27127 0.587413 0
M  V30 4578 C 480.83 1.30575 1.15005 0
M  V30 4579 O 482.006 1.63554 1.17525 0
M  V30 4580 C 479.071 2.99645 1.74395 0
M  V30 4581 C 478.132 4.11731 1.21559 0
M  V30 4582 C 477.365 4.80781 2.317 0
M  V30 4583 O 477.588 4.4918 3.51558 0
M  V30 4584 O 476.522 5.68226 1.98501 0
M  V30 4585 H 480.348 3.037 0.000250109 0
M  V30 4586 H 477.933 1.49256 -0.0655919 0
M  V30 4587 H 479.815 3.45138 2.4178 0
M  V30 4588 H 478.49 2.25969 2.31775 0
M  V30 4589 H 477.397 3.70641 0.507514 0
M  V30 4590 H 478.73 4.87379 0.687233 0
M  V30 4591 N 480.382 0.0267497 1.57577 0
M  V30 4592 C 481.659 -0.690926 1.82991 0
M  V30 4593 C 482.039 -1.90471 0.910164 0
M  V30 4594 O 481.387 -2.28474 -0.0347985 0
M  V30 4595 C 481.597 -1.07139 3.32148 0
M  V30 4596 C 482.945 -1.46402 3.98562 0
M  V30 4597 O 483.969 -1.16443 3.36629 0
M  V30 4598 O 482.828 -2.02214 5.07712 0
M  V30 4599 H 479.922 -0.338747 0.75444 0
M  V30 4600 H 482.468 0.0542506 1.69613 0
M  V30 4601 H 481.24 -0.207394 3.9075 0
M  V30 4602 H 480.863 -1.87481 3.50623 0
M  V30 4603 N 481.861 -1.55662 -0.24637 0
M  V30 4604 C 482.771 -1.93495 -1.32653 0
M  V30 4605 C 483.787 -0.835462 -1.5263 0
M  V30 4606 O 484.963 -1.1369 -1.66242 0
M  V30 4607 C 482.028 -2.22242 -2.66101 0
M  V30 4608 C 481.089 -3.45625 -2.54641 0
M  V30 4609 C 480.322 -3.72991 -3.81724 0
M  V30 4610 O 480.545 -3.02421 -4.8363 0
M  V30 4611 O 479.479 -4.66515 -3.80325 0
M  V30 4612 H 483.305 -2.85498 -1.03559 0
M  V30 4613 H 480.89 -1.42551 -0.44717 0
M  V30 4614 H 482.772 -2.42037 -3.44958 0
M  V30 4615 H 481.447 -1.33417 -2.94926 0
M  V30 4616 H 480.354 -3.31136 -1.74067 0
M  V30 4617 H 481.687 -4.34754 -2.3076 0
M  V30 4618 N 483.339 0.512053 -1.4905 0
M  V30 4619 C 484.564 1.2959 -1.6193 0
M  V30 4620 C 484.989 1.85906 -0.286454 0
M  V30 4621 O 484.347 1.65312 0.744426 0
M  V30 4622 C 484.395 2.40987 -2.68249 0
M  V30 4623 O 483.499 3.44531 -2.26654 0
M  V30 4624 H 482.84 0.383053 -0.542371 0
M  V30 4625 H 485.37 0.614231 -1.95162 0
M  V30 4626 H 485.38 2.86913 -2.90078 0
M  V30 4627 H 484.055 1.99361 -3.65004 0
M  V30 4628 H 482.632 3.046 -2.15112 0
M  V30 4629 N 484.817 1.37938 0.762283 0
M  V30 4630 C 486.047 1.36685 1.54922 0
M  V30 4631 C 486.455 -0.0474099 1.89141 0
M  V30 4632 O 485.798 -1.02213 1.52638 0
M  V30 4633 C 485.86 2.14963 2.88152 0
M  V30 4634 C 485.524 3.6385 2.76518 0
M  V30 4635 C 486.521 4.57531 2.46904 0
M  V30 4636 C 484.206 4.07095 2.94243 0
M  V30 4637 C 486.2 5.92436 2.35156 0
M  V30 4638 C 483.887 5.42083 2.82116 0
M  V30 4639 C 484.885 6.34567 2.52614 0
M  V30 4640 O 484.573 7.67073 2.40529 0
M  V30 4641 H 484.305 0.469586 0.486276 0
M  V30 4642 H 486.859 1.82012 0.951876 0
M  V30 4643 H 485.089 1.6434 3.50042 0
M  V30 4644 H 486.778 2.06224 3.49609 0
M  V30 4645 H 487.544 4.25428 2.32886 0
M  V30 4646 H 483.423 3.35462 3.16206 0
M  V30 4647 H 486.967 6.64591 2.12049 0
M  V30 4648 H 482.864 5.73785 2.95704 0
M  V30 4649 H 483.632 7.77499 2.55807 0
M  V30 4650 N 486.295 -0.989507 1.22664 0
M  V30 4651 C 487.572 -1.70326 0.961688 0
M  V30 4652 C 487.952 -2.04537 -0.522279 0
M  V30 4653 O 487.3 -1.73136 -1.49118 0
M  V30 4654 C 487.51 -2.95135 1.86269 0
M  V30 4655 C 488.858 -3.67842 2.12078 0
M  V30 4656 O 489.882 -3.0515 1.83745 0
M  V30 4657 O 488.741 -4.80644 2.60083 0
M  V30 4658 H 485.835 -0.743589 0.361946 0
M  V30 4659 H 488.381 -1.04555 1.33665 0
M  V30 4660 H 487.153 -2.66382 2.8663 0
M  V30 4661 H 486.776 -3.68645 1.48952 0
M  V30 4662 N 487.773 -1.03688 -1.18687 0
M  V30 4663 C 489.021 -0.736572 -1.88199 0
M  V30 4664 C 489.342 0.737665 -1.80509 0
M  V30 4665 O 488.612 1.53204 -1.22088 0
M  V30 4666 H 487.192 -0.269466 -0.696704 0
M  V30 4667 H 489.854 -1.31282 -1.44052 0
M  V30 4668 H 488.95 -1.03802 -2.94332 0
M  V30 4669 N 489.251 1.34841 -0.815825 0
M  V30 4670 C 490.499 1.98107 -0.399744 0
M  V30 4671 C 490.82 1.65019 1.03894 0
M  V30 4672 O 490.09 0.937311 1.72021 0
M  V30 4673 H 488.67 0.732827 -0.144823 0
M  V30 4674 H 491.332 1.64599 -1.0437 0
M  V30 4675 H 490.428 3.07856 -0.512965 0
M  V30 4676 N 490.729 0.570148 1.46925 0
M  V30 4677 C 491.692 -0.159933 2.28641 0
M  V30 4678 C 492.692 -0.830638 1.37685 0
M  V30 4679 O 493.882 -0.684516 1.60187 0
M  V30 4680 C 491.014 -1.2354 3.17727 0
M  V30 4681 H 492.207 0.558035 2.94662 0
M  V30 4682 H 489.76 0.327603 1.52828 0
M  V30 4683 H 490.495 -1.98535 2.56426 0
M  V30 4684 H 490.28 -0.759125 3.84681 0
M  V30 4685 H 491.77 -1.74782 3.79264 0
M  V30 4686 N 492.207 -1.54576 0.307264 0
M  V30 4687 C 493.455 -1.99867 -0.299574 0
M  V30 4688 C 493.776 -1.19714 -1.53927 0
M  V30 4689 O 493.046 -0.29472 -1.9367 0
M  V30 4690 H 491.626 -0.738299 -0.113683 0
M  V30 4691 H 494.288 -1.9032 0.420042 0
M  V30 4692 H 493.384 -3.06901 -0.567283 0
M  V30 4693 N 493.685 -0.035106 -1.57561 0
M  V30 4694 C 494.648 0.929819 -2.09492 0
M  V30 4695 C 495.648 1.25026 -1.01119 0
M  V30 4696 O 496.838 1.18961 -1.27255 0
M  V30 4697 C 493.97 2.24457 -2.56577 0
M  V30 4698 H 495.163 0.479935 -2.96035 0
M  V30 4699 H 492.716 0.213033 -1.54841 0
M  V30 4700 H 493.451 2.74061 -1.73382 0
M  V30 4701 H 493.236 2.02508 -3.35757 0
M  V30 4702 H 494.726 2.93607 -2.96959 0
M  V30 4703 N 495.163 1.55791 0.238111 0
M  V30 4704 C 496.126 1.90239 1.27835 0
M  V30 4705 C 497.126 0.779552 1.4064 0
M  V30 4706 O 498.316 1.04747 1.3919 0
M  V30 4707 C 495.448 2.13859 2.65475 0
M  V30 4708 H 496.641 2.83262 0.985034 0
M  V30 4709 H 494.194 1.48818 0.477799 0
M  V30 4710 H 494.929 1.23334 2.99932 0
M  V30 4711 H 494.714 2.95643 2.57561 0
M  V30 4712 H 496.204 2.41664 3.40571 0
M  V30 4713 N 496.642 -0.504142 1.49319 0
M  V30 4714 C 497.867 -1.28729 1.62615 0
M  V30 4715 C 498.292 -1.85752 0.296309 0
M  V30 4716 O 497.65 -1.65704 -0.735649 0
M  V30 4717 C 497.698 -2.39561 2.69524 0
M  V30 4718 O 496.802 -3.43324 2.28478 0
M  V30 4719 H 496.143 -0.380172 0.544395 0
M  V30 4720 H 498.673 -0.603872 1.95485 0
M  V30 4721 H 498.683 -2.8537 2.91595 0
M  V30 4722 H 497.358 -1.97423 3.66056 0
M  V30 4723 H 495.935 -3.03455 2.16725 0
M  V30 4724 N 498.12 -1.38341 -0.754957 0
M  V30 4725 C 499.083 -1.35262 -1.85032 0
M  V30 4726 C 500.083 -0.253393 -1.58791 0
M  V30 4727 O 501.273 -0.510205 -1.66561 0
M  V30 4728 C 498.405 -1.10544 -3.22479 0
M  V30 4729 H 499.598 -2.32712 -1.8917 0
M  V30 4730 H 497.151 -1.23614 -0.956515 0
M  V30 4731 H 497.886 -0.136952 -3.24011 0
M  V30 4732 H 497.671 -1.90127 -3.4292 0
M  V30 4733 H 499.161 -1.11082 -4.02555 0
M  V30 4734 N 499.598 0.982988 -1.23187 0
M  V30 4735 C 500.845 1.72392 -1.06241 0
M  V30 4736 C 501.173 1.9032 0.40108 0
M  V30 4737 O 500.428 1.45084 1.31336 0
M  V30 4738 C 500.727 3.12736 -1.73006 0
M  V30 4739 C 500.393 3.14695 -3.22921 0
M  V30 4740 C 499.055 3.14937 -3.63824 0
M  V30 4741 C 501.407 3.10211 -4.1883 0
M  V30 4742 C 498.735 3.08408 -4.99101 0
M  V30 4743 C 501.087 3.05224 -5.54095 0
M  V30 4744 C 499.751 3.03787 -5.94365 0
M  V30 4745 H 499.021 0.630829 -0.388762 0
M  V30 4746 H 501.668 1.15053 -1.53085 0
M  V30 4747 H 499.973 3.73446 -1.18514 0
M  V30 4748 H 501.67 3.68828 -1.57374 0
M  V30 4749 H 498.26 3.15262 -2.90358 0
M  V30 4750 H 502.444 3.09166 -3.8824 0
M  V30 4751 H 497.7 3.05646 -5.29519 0
M  V30 4752 H 501.874 3.00712 -6.28128 0
M  V30 4753 H 499.501 2.98483 -6.99151 0
M  V30 4754 N 501.076 1.04316 1.18135 0
M  V30 4755 C 502.039 0.640794 2.2006 0
M  V30 4756 C 503.039 -0.303124 1.57917 0
M  V30 4757 O 504.229 -0.0881855 1.73977 0
M  V30 4758 C 501.361 -0.060148 3.40847 0
M  V30 4759 H 502.554 1.54281 2.57172 0
M  V30 4760 H 500.107 0.836004 1.32063 0
M  V30 4761 H 500.842 -0.975845 3.0927 0
M  V30 4762 H 500.627 0.618319 3.87194 0
M  V30 4763 H 502.117 -0.328082 4.16309 0
M  V30 4764 N 502.554 -1.34406 0.822964 0
M  V30 4765 C 503.965 -1.8069 0.469879 0
M  V30 4766 C 504.316 -1.68223 -1.00972 0
M  V30 4767 O 503.441 -1.22226 -1.78577 0
M  V30 4768 C 504.036 -3.28064 0.846118 0
M  V30 4769 C 502.595 -3.72428 0.545402 0
M  V30 4770 C 501.742 -2.56116 1.06301 0
M  V30 4771 H 504.693 -1.22153 1.01313 0
M  V30 4772 H 504.714 -3.80205 0.149922 0
M  V30 4773 H 504.226 -3.37107 1.92304 0
M  V30 4774 H 502.327 -3.68924 -0.522109 0
M  V30 4775 H 502.44 -4.66548 1.0895 0
M  V30 4776 H 500.804 -2.50048 0.484554 0
M  V30 4777 H 501.587 -2.67928 2.14638 0
M  V30 4778 N 504.032 -0.577932 -1.46621 0
M  V30 4779 C 505.443 -0.150071 -1.86096 0
M  V30 4780 C 505.794 1.28563 -1.48209 0
M  V30 4781 O 504.919 1.97036 -0.894754 0
M  V30 4782 C 505.514 -0.265576 -3.37758 0
M  V30 4783 C 504.073 0.10738 -3.76247 0
M  V30 4784 C 503.22 -0.603711 -2.70649 0
M  V30 4785 H 506.171 -0.786438 -1.37844 0
M  V30 4786 H 506.192 0.510352 -3.77062 0
M  V30 4787 H 505.704 -1.3106 -3.65301 0
M  V30 4788 H 503.805 1.15272 -3.54321 0
M  V30 4789 H 503.918 -0.26561 -4.78363 0
M  V30 4790 H 502.282 -0.0444884 -2.54661 0
M  V30 4791 H 503.065 -1.65029 -3.01032 0
M  V30 4792 N 505.51 1.54411 -0.315457 0
M  V30 4793 C 506.926 1.59556 0.037464 0
M  V30 4794 C 507.126 1.33217 1.5118 0
M  V30 4795 O 506.182 1.11264 2.26664 0
M  V30 4796 C 507.495 2.98372 -0.373477 0
M  V30 4797 C 509.043 3.11324 -0.323452 0
M  V30 4798 C 509.518 4.52472 -0.709433 0
M  V30 4799 N 511.009 4.58437 -0.662524 0
M  V30 4800 C 511.744 5.65751 -0.933474 0
M  V30 4801 N 511.24 6.81039 -1.27114 0
M  V30 4802 N 513.033 5.55489 -0.859573 0
M  V30 4803 H 505.184 1.6979 -1.27614 0
M  V30 4804 H 507.447 0.793732 -0.518356 0
M  V30 4805 H 507.153 3.22618 -1.40037 0
M  V30 4806 H 507.027 3.76264 0.265615 0
M  V30 4807 H 509.414 2.86818 0.694223 0
M  V30 4808 H 509.495 2.35555 -0.997367 0
M  V30 4809 H 509.139 4.7771 -1.72498 0
M  V30 4810 H 509.069 5.26598 -0.0132923 0
M  V30 4811 H 511.56 3.75636 -0.413065 0
M  V30 4812 H 511.873 7.58816 -1.46348 0
M  V30 4813 H 510.218 6.82555 -1.30932 0
M  V30 4814 H 513.409 4.64299 -0.595324 0
M  V30 4815 H 513.582 6.39036 -1.0741 0
M  V30 4816 N 506.988 0.0434614 1.5754 0
M  V30 4817 C 508.213 -0.645358 1.97104 0
M  V30 4818 C 508.638 -1.64037 0.920521 0
M  V30 4819 O 507.996 -1.80922 -0.11708 0
M  V30 4820 C 508.044 -1.31547 3.35749 0
M  V30 4821 O 507.148 -2.43103 3.33129 0
M  V30 4822 H 506.489 -0.168403 0.64229 0
M  V30 4823 H 509.019 0.109573 2.04306 0
M  V30 4824 H 509.029 -1.66895 3.72304 0
M  V30 4825 H 507.704 -0.586205 4.11748 0
M  V30 4826 H 506.281 -2.0976 3.0831 0
M  V30 4827 N 508.466 -1.55915 -0.229846 0
M  V30 4828 C 509.691 -1.8296 -0.976743 0
M  V30 4829 C 510.116 -0.622735 -1.77493 0
M  V30 4830 O 509.474 0.428431 -1.76165 0
M  V30 4831 C 509.522 -3.07916 -1.8767 0
M  V30 4832 O 508.626 -2.86028 -2.97088 0
M  V30 4833 H 507.967 -0.603453 -0.277021 0
M  V30 4834 H 510.497 -2.0312 -0.245669 0
M  V30 4835 H 510.507 -3.37802 -2.2881 0
M  V30 4836 H 509.182 -3.95389 -1.28996 0
M  V30 4837 H 507.759 -2.67355 -2.59954 0
M  V30 4838 N 509.944 0.496216 -1.49584 0
M  V30 4839 C 511.355 1.07765 -1.52459 0
M  V30 4840 C 511.706 1.93679 -0.31353 0
M  V30 4841 O 510.831 2.08588 0.576186 0
M  V30 4842 C 511.426 1.96111 -2.76271 0
M  V30 4843 C 509.985 2.49409 -2.81908 0
M  V30 4844 C 509.132 1.27142 -2.46435 0
M  V30 4845 H 512.083 0.279914 -1.56212 0
M  V30 4846 H 512.104 2.80862 -2.56704 0
M  V30 4847 H 511.616 1.33555 -3.64396 0
M  V30 4848 H 509.717 3.1559 -1.98074 0
M  V30 4849 H 509.83 2.86234 -3.84196 0
M  V30 4850 H 508.194 1.59818 -1.98319 0
M  V30 4851 H 508.977 0.662866 -3.3684 0
M  V30 4852 N 511.423 1.38739 0.74761 0
M  V30 4853 C 512.663 1.36695 1.51966 0
M  V30 4854 C 513.027 -0.0411889 1.91956 0
M  V30 4855 O 514.228 -0.186543 2.68152 0
M  V30 4856 C 512.499 2.30119 2.73459 0
M  V30 4857 S 514.058 2.4615 3.63257 0
M  V30 4858 H 510.876 0.484929 0.519966 0
M  V30 4859 H 513.478 1.7472 0.877104 0
M  V30 4860 H 512.182 3.31312 2.422 0
M  V30 4861 H 511.713 1.93265 3.42655 0
M  V30 4862 H 513.728 1.69001 4.66533 0
M  V30 4863 N 512.901 -0.976442 1.23707 0
M  V30 4864 C 513.864 -2.0511 1.02287 0
M  V30 4865 C 514.864 -1.60791 -0.0167195 0
M  V30 4866 O 516.054 -1.72761 0.223408 0
M  V30 4867 C 513.186 -3.36458 0.548507 0
M  V30 4868 H 514.379 -2.25545 1.9766 0
M  V30 4869 H 511.932 -1.15042 1.05806 0
M  V30 4870 H 512.667 -3.21713 -0.408818 0
M  V30 4871 H 512.452 -3.69967 1.29874 0
M  V30 4872 H 513.942 -4.15489 0.419406 0
M  V30 4873 N 514.379 -1.04941 -1.1758 0
M  V30 4874 C 515.604 -0.778253 -1.92245 0
M  V30 4875 C 516.029 0.659707 -1.76152 0
M  V30 4876 O 515.387 1.45803 -1.07755 0
M  V30 4877 C 515.435 -1.16051 -3.41416 0
M  V30 4878 O 514.539 -0.291153 -4.11371 0
M  V30 4879 H 513.88 -0.285619 -0.599431 0
M  V30 4880 H 516.41 -1.40159 -1.49052 0
M  V30 4881 H 516.42 -1.12619 -3.92149 0
M  V30 4882 H 515.095 -2.208 -3.52449 0
M  V30 4883 H 513.672 -0.385851 -3.70898 0
M  V30 4884 N 515.857 1.33968 -0.830081 0
M  V30 4885 C 517.082 2.02813 -0.433796 0
M  V30 4886 C 517.507 1.62076 0.954614 0
M  V30 4887 O 516.865 0.808955 1.62252 0
M  V30 4888 C 516.913 3.56348 -0.552115 0
M  V30 4889 O 516.017 4.10202 0.425191 0
M  V30 4890 H 515.358 0.639817 -0.177567 0
M  V30 4891 H 517.888 1.7106 -1.12248 0
M  V30 4892 H 517.898 4.05722 -0.430513 0
M  V30 4893 H 516.573 3.85344 -1.56471 0
M  V30 4894 H 515.15 3.71979 0.261878 0
M  V30 4895 N 517.335 0.585699 1.46312 0
M  V30 4896 C 518.563 0.0781299 2.06752 0
M  V30 4897 C 518.978 -1.22812 1.43396 0
M  V30 4898 O 518.335 -1.74318 0.540314 0
M  V30 4899 C 518.386 -0.0911927 3.61385 0
M  V30 4900 O 518.107 1.16336 4.22371 0
M  V30 4901 C 519.608 -0.632765 4.38761 0
M  V30 4902 H 516.828 0.0588188 0.668417 0
M  V30 4903 H 519.372 0.807218 1.87894 0
M  V30 4904 H 517.527 -0.770514 3.7966 0
M  V30 4905 H 517.941 0.979082 5.15281 0
M  V30 4906 H 519.415 -0.70041 5.47538 0
M  V30 4907 H 519.892 -1.65039 4.07012 0
M  V30 4908 H 520.498 0.0117856 4.25298 0
M  V30 4909 N 518.813 -1.54241 0.323641 0
M  V30 4910 C 520.224 -1.85975 -0.164405 0
M  V30 4911 C 520.575 -1.24529 -1.51615 0
M  V30 4912 O 519.7 -0.551351 -2.09258 0
M  V30 4913 C 520.295 -3.37424 -0.305091 0
M  V30 4914 C 518.854 -3.69107 -0.737358 0
M  V30 4915 C 518.001 -2.76942 0.140884 0
M  V30 4916 H 520.952 -1.49088 0.543922 0
M  V30 4917 H 520.973 -3.63147 -1.13598 0
M  V30 4918 H 520.485 -3.82116 0.678876 0
M  V30 4919 H 518.586 -3.29947 -1.73107 0
M  V30 4920 H 518.699 -4.76035 -0.541053 0
M  V30 4921 H 517.063 -2.51795 -0.383572 0
M  V30 4922 H 517.846 -3.24461 1.12162 0
M  V30 4923 N 520.291 -0.0518155 -1.57515 0
M  V30 4924 C 521.537 0.622745 -1.93002 0
M  V30 4925 C 521.87 1.70456 -0.930499 0
M  V30 4926 O 521.145 1.94452 0.0434086 0
M  V30 4927 C 521.428 1.21824 -3.38867 0
M  V30 4928 C 521.281 0.144434 -4.49568 0
M  V30 4929 C 522.6 2.12968 -3.8514 0
M  V30 4930 H 519.719 0.22491 -0.701844 0
M  V30 4931 H 522.361 -0.113711 -1.89659 0
M  V30 4932 H 520.511 1.8459 -3.41846 0
M  V30 4933 H 522.183 -0.48753 -4.58717 0
M  V30 4934 H 520.426 -0.527424 -4.30582 0
M  V30 4935 H 521.097 0.601127 -5.48717 0
M  V30 4936 H 523.573 1.60163 -3.8404 0
M  V30 4937 H 522.449 2.51578 -4.87852 0
M  V30 4938 H 522.71 3.03004 -3.21934 0
M  V30 4939 N 521.769 1.56035 0.221574 0
M  V30 4940 C 522.732 1.91584 1.2581 0
M  V30 4941 C 523.732 0.794425 1.39805 0
M  V30 4942 O 524.922 1.06217 1.38071 0
M  V30 4943 C 522.054 2.16663 2.63192 0
M  V30 4944 H 523.247 2.8429 0.954935 0
M  V30 4945 H 520.8 1.49316 0.461988 0
M  V30 4946 H 521.535 1.26508 2.98607 0
M  V30 4947 H 521.32 2.98358 2.5441 0
M  V30 4948 H 522.81 2.45262 3.37988 0
M  V30 4949 N 523.247 -0.488276 1.49845 0
M  V30 4950 C 524.493 -1.24341 1.6021 0
M  V30 4951 C 524.826 -1.91967 0.293651 0
M  V30 4952 O 524.101 -1.81323 -0.703718 0
M  V30 4953 C 524.384 -2.3005 2.77036 0
M  V30 4954 C 524.237 -1.66842 4.17713 0
M  V30 4955 C 525.556 -3.31509 2.89464 0
M  V30 4956 H 522.675 -0.450704 0.583125 0
M  V30 4957 H 525.317 -0.539673 1.82174 0
M  V30 4958 H 523.467 -2.90071 2.58439 0
M  V30 4959 H 525.139 -1.1055 4.47858 0
M  V30 4960 H 523.382 -0.972079 4.22768 0
M  V30 4961 H 524.053 -2.43576 4.95353 0
M  V30 4962 H 526.529 -2.81493 3.06433 0
M  V30 4963 H 525.405 -4.02822 3.72861 0
M  V30 4964 H 525.666 -3.94603 1.99351 0
M  V30 4965 N 524.725 -1.39134 -0.740242 0
M  V30 4966 C 525.973 -1.35803 -1.49673 0
M  V30 4967 C 526.294 0.0470897 -1.94943 0
M  V30 4968 O 525.564 0.997347 -1.68611 0
M  V30 4969 H 524.144 -0.499736 -0.555224 0
M  V30 4970 H 526.806 -1.73947 -0.879107 0
M  V30 4971 H 525.902 -2.0174 -2.38133 0
M  V30 4972 N 526.204 0.969867 -1.24223 0
M  V30 4973 C 527.481 1.68774 -0.988664 0
M  V30 4974 C 527.861 2.05342 0.489673 0
M  V30 4975 O 527.209 1.75486 1.46345 0
M  V30 4976 C 527.419 2.92135 -1.90941 0
M  V30 4977 C 528.767 3.64422 -2.17903 0
M  V30 4978 O 529.791 3.02188 -1.88576 0
M  V30 4979 O 528.65 4.76446 -2.67697 0
M  V30 4980 H 525.744 0.737736 -0.37373 0
M  V30 4981 H 528.29 1.02415 -1.35312 0
M  V30 4982 H 527.062 2.61788 -2.90831 0
M  V30 4983 H 526.685 3.66228 -1.54798 0
M  V30 4984 N 527.682 1.05563 1.17022 0
M  V30 4985 C 528.929 0.767937 1.87374 0
M  V30 4986 C 529.257 -0.705224 1.81265 0
M  V30 4987 O 528.512 -1.5318 1.21796 0
M  V30 4988 C 528.811 1.19849 3.36706 0
M  V30 4989 C 528.477 2.6745 3.63017 0
M  V30 4990 C 527.139 3.0777 3.69907 0
M  V30 4991 C 529.491 3.62811 3.74189 0
M  V30 4992 C 526.819 4.42307 3.85463 0
M  V30 4993 C 529.171 4.97087 3.91264 0
M  V30 4994 C 527.835 5.37055 3.96394 0
M  V30 4995 H 527.105 0.281008 0.68565 0
M  V30 4996 H 529.752 1.32339 1.38415 0
M  V30 4997 H 528.057 0.562096 3.87747 0
M  V30 4998 H 529.754 0.953038 3.8951 0
M  V30 4999 H 526.344 2.35228 3.58282 0
M  V30 5000 H 530.528 3.32798 3.68183 0
M  V30 5001 H 525.784 4.72769 3.87684 0
M  V30 5002 H 529.958 5.70869 3.9885 0
M  V30 5003 H 527.585 6.41308 4.082 0
M  V30 5004 N 529.16 -1.33526 0.837174 0
M  V30 5005 C 530.571 -1.80182 0.489017 0
M  V30 5006 C 530.922 -1.69285 -0.991826 0
M  V30 5007 O 530.047 -1.24113 -1.77271 0
M  V30 5008 C 530.642 -3.27149 0.880866 0
M  V30 5009 C 529.201 -3.71828 0.584872 0
M  V30 5010 C 528.348 -2.54974 1.09011 0
M  V30 5011 H 531.299 -1.21071 1.02603 0
M  V30 5012 H 531.32 -3.80024 0.190239 0
M  V30 5013 H 530.832 -3.35048 1.95869 0
M  V30 5014 H 528.933 -3.69457 -0.48295 0
M  V30 5015 H 529.046 -4.65366 1.13892 0
M  V30 5016 H 527.41 -2.4952 0.511047 0
M  V30 5017 H 528.193 -2.65637 2.17467 0
M  V30 5018 N 530.638 -0.59345 -1.46 0
M  V30 5019 C 531.915 -0.0157933 -1.95594 0
M  V30 5020 C 532.295 1.44807 -1.53604 0
M  V30 5021 O 531.643 2.14342 -0.791824 0
M  V30 5022 C 531.853 -0.199081 -3.48432 0
M  V30 5023 C 533.201 -0.0724943 -4.24538 0
M  V30 5024 O 534.225 -0.128469 -3.55968 0
M  V30 5025 O 533.084 0.0542426 -5.46473 0
M  V30 5026 H 530.178 0.043749 -0.825842 0
M  V30 5027 H 532.724 -0.662522 -1.56233 0
M  V30 5028 H 531.496 -1.21631 -3.71916 0
M  V30 5029 H 531.119 0.483576 -3.94648 0
M  V30 5030 N 532.116 1.54067 -0.331816 0
M  V30 5031 C 533.356 2.02625 0.26876 0
M  V30 5032 C 533.72 1.21462 1.48697 0
M  V30 5033 O 534.921 1.59863 2.16096 0
M  V30 5034 C 533.192 3.52554 0.586577 0
M  V30 5035 S 534.751 4.23035 1.16563 0
M  V30 5036 H 531.569 0.706395 0.0807862 0
M  V30 5037 H 534.171 1.89844 -0.466856 0
M  V30 5038 H 532.875 4.09242 -0.308046 0
M  V30 5039 H 532.406 3.69432 1.35217 0
M  V30 5040 H 534.421 4.31382 2.45203 0
M  V30 5041 N 533.594 0.0601682 1.57485 0
M  V30 5042 C 534.557 -0.896373 2.10945 0
M  V30 5043 C 535.557 -1.23402 1.03095 0
M  V30 5044 O 536.747 -1.16921 1.29132 0
M  V30 5045 C 533.879 -2.20346 2.60116 0
M  V30 5046 H 535.072 -0.432778 2.96761 0
M  V30 5047 H 532.625 -0.188372 1.55161 0
M  V30 5048 H 533.36 -2.71268 1.7772 0
M  V30 5049 H 533.145 -1.9714 3.38937 0
M  V30 5050 H 534.635 -2.88846 3.01592 0
M  V30 5051 N 535.072 -1.5615 -0.213296 0
M  V30 5052 C 536.302 -1.83372 -0.951757 0
M  V30 5053 C 536.71 -0.638158 -1.78113 0
M  V30 5054 O 536.053 0.402609 -1.79234 0
M  V30 5055 C 536.115 -3.04444 -1.91192 0
M  V30 5056 C 535.779 -4.39107 -1.26627 0
M  V30 5057 C 536.776 -5.15794 -0.652087 0
M  V30 5058 C 534.461 -4.85834 -1.27556 0
M  V30 5059 C 536.455 -6.37376 -0.055814 0
M  V30 5060 C 534.142 -6.07356 -0.675451 0
M  V30 5061 C 535.14 -6.82967 -0.0666367 0
M  V30 5062 O 534.828 -8.0219 0.524119 0
M  V30 5063 H 534.56 -0.613398 -0.284111 0
M  V30 5064 H 537.114 -2.04096 -0.231112 0
M  V30 5065 H 535.344 -2.79559 -2.67178 0
M  V30 5066 H 537.033 -3.18466 -2.51662 0
M  V30 5067 H 537.799 -4.80796 -0.637172 0
M  V30 5068 H 533.678 -4.26949 -1.73883 0
M  V30 5069 H 537.222 -6.96334 0.420004 0
M  V30 5070 H 533.119 -6.41825 -0.687806 0
M  V30 5071 H 533.887 -8.17426 0.419243 0
M  V30 5072 N 536.55 0.480323 -1.50102 0
M  V30 5073 C 537.961 1.06142 -1.53593 0
M  V30 5074 C 538.312 1.93335 -0.334055 0
M  V30 5075 O 537.437 2.09188 0.55403 0
M  V30 5076 C 538.032 1.9317 -2.78336 0
M  V30 5077 C 536.591 2.46405 -2.84538 0
M  V30 5078 C 535.738 1.24521 -2.4777 0
M  V30 5079 H 538.689 0.26333 -1.565 0
M  V30 5080 H 538.71 2.78123 -2.59669 0
M  V30 5081 H 538.222 1.29683 -3.65792 0
M  V30 5082 H 536.323 3.13472 -2.01411 0
M  V30 5083 H 536.436 2.82143 -3.87211 0
M  V30 5084 H 534.8 1.57706 -2.00003 0
M  V30 5085 H 535.583 0.627102 -3.37524 0
M  V30 5086 N 538.028 1.39524 0.732853 0
M  V30 5087 C 539.439 1.32905 1.31122 0
M  V30 5088 C 539.79 -0.00558708 1.96199 0
M  V30 5089 O 538.915 -0.907706 1.96443 0
M  V30 5090 C 539.51 2.40704 2.38426 0
M  V30 5091 C 538.069 2.37599 2.91931 0
M  V30 5092 C 537.216 2.2248 1.65523 0
M  V30 5093 H 540.167 1.49581 0.530207 0
M  V30 5094 H 540.188 2.07616 3.18867 0
M  V30 5095 H 539.7 3.37829 1.91033 0
M  V30 5096 H 537.801 1.44119 3.43599 0
M  V30 5097 H 537.914 3.32538 3.44899 0
M  V30 5098 H 536.278 1.69691 1.8994 0
M  V30 5099 H 537.061 3.21577 1.20178 0
M  V30 5100 N 539.506 -0.963266 1.24736 0
M  V30 5101 C 540.783 -1.68248 0.9976 0
M  V30 5102 C 541.163 -2.05599 -0.478776 0
M  V30 5103 O 540.511 -1.7626 -1.45412 0
M  V30 5104 C 540.721 -2.91118 1.92487 0
M  V30 5105 C 542.069 -3.63261 2.19833 0
M  V30 5106 O 543.093 -3.01184 1.90176 0
M  V30 5107 O 541.952 -4.75019 2.7022 0
M  V30 5108 H 539.046 -0.735744 0.377637 0
M  V30 5109 H 541.592 -1.01696 1.35853 0
M  V30 5110 H 540.364 -2.60242 2.92215 0
M  V30 5111 H 539.987 -3.65402 1.56738 0
M  V30 5112 N 540.985 -1.06182 -1.16461 0
M  V30 5113 C 541.948 -0.675723 -2.19013 0
M  V30 5114 C 542.948 0.277963 -1.58379 0
M  V30 5115 O 544.138 0.0604962 -1.74095 0
M  V30 5116 C 541.27 0.00591459 -3.40899 0
M  V30 5117 H 542.463 -1.58353 -2.54685 0
M  V30 5118 H 540.016 -0.856908 -1.30716 0
M  V30 5119 H 540.751 0.92652 -3.10783 0
M  V30 5120 H 540.536 -0.67984 -3.86161 0
M  V30 5121 H 542.026 0.26181 -4.16778 0
M  V30 5122 N 542.463 1.3308 -0.844243 0
M  V30 5123 C 543.373 2.32876 -0.283922 0
M  V30 5124 C 544.389 1.63589 0.592846 0
M  V30 5125 O 545.565 1.95205 0.495693 0
M  V30 5126 C 542.63 3.42667 0.527283 0
M  V30 5127 C 541.691 4.27664 -0.374394 0
M  V30 5128 C 540.924 5.32212 0.39819 0
M  V30 5129 O 541.147 5.46635 1.62932 0
M  V30 5130 O 540.081 6.01458 -0.2306 0
M  V30 5131 H 543.907 2.82671 -1.11045 0
M  V30 5132 H 541.492 1.36518 -0.606903 0
M  V30 5133 H 543.374 4.09652 0.988078 0
M  V30 5134 H 542.049 2.95079 1.33078 0
M  V30 5135 H 540.956 3.63526 -0.883144 0
M  V30 5136 H 542.289 4.78749 -1.1428 0
M  V30 5137 N 543.941 0.601185 1.45683 0
M  V30 5138 C 545.352 0.179659 1.85834 0
M  V30 5139 C 545.703 -1.26189 1.50236 0
M  V30 5140 O 544.828 -1.95587 0.925987 0
M  V30 5141 C 545.423 0.319277 3.37292 0
M  V30 5142 C 543.982 -0.0475092 3.7637 0
M  V30 5143 C 543.129 0.646692 2.69654 0
M  V30 5144 H 546.08 0.808268 1.36575 0
M  V30 5145 H 546.101 -0.4503 3.77826 0
M  V30 5146 H 545.613 1.36855 3.6317 0
M  V30 5147 H 543.714 -1.0962 3.5611 0
M  V30 5148 H 543.827 0.34168 4.7788 0
M  V30 5149 H 542.191 0.0849971 2.54558 0
M  V30 5150 H 542.974 1.69797 2.98369 0
M  V30 5151 N 545.419 -1.53889 0.339982 0
M  V30 5152 C 546.366 -2.24902 -0.518452 0
M  V30 5153 C 547.336 -1.24593 -1.09844 0
M  V30 5154 O 548.521 -1.53317 -1.13572 0
M  V30 5155 C 545.661 -3.02262 -1.66529 0
M  V30 5156 C 544.774 -4.17418 -1.11295 0
M  V30 5157 C 543.909 -4.82273 -2.2268 0
M  V30 5158 C 542.948 -5.89503 -1.6478 0
M  V30 5159 N 542.085 -6.48153 -2.69893 0
M  V30 5160 H 546.925 -2.97853 0.0936579 0
M  V30 5161 H 544.462 -1.46986 0.0579924 0
M  V30 5162 H 546.42 -3.45371 -2.3404 0
M  V30 5163 H 545.05 -2.31614 -2.24844 0
M  V30 5164 H 544.102 -3.78976 -0.328886 0
M  V30 5165 H 545.414 -4.94554 -0.649414 0
M  V30 5166 H 544.568 -5.28435 -2.98063 0
M  V30 5167 H 543.307 -4.04552 -2.72376 0
M  V30 5168 H 542.312 -5.42728 -0.879004 0
M  V30 5169 H 543.537 -6.6913 -1.1594 0
M  V30 5170 H 541.483 -5.73298 -3.1885 0
M  V30 5171 H 541.4 -7.20752 -2.28151 0
M  V30 5172 H 542.668 -6.98968 -3.45056 0
M  V30 5173 N 546.897 -0.0685191 -1.57451 0
M  V30 5174 C 548.174 0.642167 -1.84758 0
M  V30 5175 C 548.554 1.87991 -0.960344 0
M  V30 5176 O 547.902 2.28485 -0.0257894 0
M  V30 5177 C 548.112 0.982946 -3.34872 0
M  V30 5178 C 549.46 1.35784 -4.02303 0
M  V30 5179 O 550.484 1.07477 -3.39598 0
M  V30 5180 O 549.343 1.88681 -5.12895 0
M  V30 5181 H 546.437 0.318625 -0.763156 0
M  V30 5182 H 548.983 -0.0992015 -1.6941 0
M  V30 5183 H 547.755 0.10372 -3.91163 0
M  V30 5184 H 547.378 1.78119 -3.55471 0
M  V30 5185 N 548.375 1.56261 0.205012 0
M  V30 5186 C 549.652 1.70856 0.952233 0
M  V30 5187 C 550.032 0.620501 2.01775 0
M  V30 5188 O 549.38 -0.370035 2.25484 0
M  V30 5189 C 549.59 3.12807 1.54767 0
M  V30 5190 C 550.938 3.72733 2.0336 0
M  V30 5191 O 551.962 3.15873 1.64629 0
M  V30 5192 O 550.821 4.72501 2.746 0
M  V30 5193 H 547.915 0.696496 0.445895 0
M  V30 5194 H 550.461 1.6857 0.195489 0
M  V30 5195 H 549.233 3.83465 0.779132 0
M  V30 5196 H 548.856 3.1928 2.36951 0
M  V30 5197 N 549.853 -0.472356 1.50355 0
M  V30 5198 C 550.816 -1.5529 1.68576 0
M  V30 5199 C 551.816 -1.50863 0.556511 0
M  V30 5200 O 553.006 -1.53505 0.823516 0
M  V30 5201 C 550.138 -2.94921 1.70981 0
M  V30 5202 H 551.331 -1.40451 2.64978 0
M  V30 5203 H 548.884 -0.698645 1.39816 0
M  V30 5204 H 549.619 -3.15204 0.762675 0
M  V30 5205 H 549.404 -2.99541 2.53017 0
M  V30 5206 H 550.894 -3.73372 1.87037 0
M  V30 5207 N 551.331 -1.39911 -0.725443 0
M  V30 5208 C 552.561 -1.40744 -1.51244 0
M  V30 5209 C 552.969 -0.00275403 -1.892 0
M  V30 5210 O 552.312 0.981299 -1.55294 0
M  V30 5211 C 552.374 -2.22527 -2.82351 0
M  V30 5212 C 552.038 -3.71053 -2.66774 0
M  V30 5213 C 553.035 -4.63916 -2.34686 0
M  V30 5214 C 550.72 -4.14753 -2.83347 0
M  V30 5215 C 552.714 -5.98463 -2.19366 0
M  V30 5216 C 550.401 -5.49372 -2.67644 0
M  V30 5217 C 551.399 -6.41042 -2.357 0
M  V30 5218 O 551.087 -7.73181 -2.20107 0
M  V30 5219 H 550.819 -0.482314 -0.473655 0
M  V30 5220 H 553.373 -1.84472 -0.903284 0
M  V30 5221 H 551.603 -1.73563 -3.45562 0
M  V30 5222 H 553.292 -2.15421 -3.44018 0
M  V30 5223 H 554.058 -4.31453 -2.21525 0
M  V30 5224 H 549.937 -3.43728 -3.072 0
M  V30 5225 H 553.481 -6.69979 -1.94354 0
M  V30 5226 H 549.378 -5.81424 -2.80387 0
M  V30 5227 H 550.146 -7.84008 -2.35103 0
M  V30 5228 N 552.809 0.956637 -1.25245 0
M  V30 5229 C 554.22 1.51569 -1.09012 0
M  V30 5230 C 554.571 1.93322 0.334813 0
M  V30 5231 O 553.696 1.78421 1.22454 0
M  V30 5232 C 554.291 2.75444 -1.97271 0
M  V30 5233 C 552.85 3.27669 -1.8523 0
M  V30 5234 C 551.997 2.00517 -1.91542 0
M  V30 5235 H 554.948 0.773746 -1.3856 0
M  V30 5236 H 554.969 3.4919 -1.51151 0
M  V30 5237 H 554.481 2.45024 -3.00973 0
M  V30 5238 H 552.582 3.62914 -0.844045 0
M  V30 5239 H 552.695 3.9582 -2.69932 0
M  V30 5240 H 551.059 2.15727 -1.35404 0
M  V30 5241 H 551.842 1.72448 -2.96844 0
M  V30 5242 N 554.287 1.06798 1.15896 0
M  V30 5243 C 555.217 0.704677 2.22613 0
M  V30 5244 C 556.198 -0.305252 1.67339 0
M  V30 5245 O 557.383 -0.179247 1.93371 0
M  V30 5246 C 554.513 0.0957325 3.47168 0
M  V30 5247 C 553.467 1.0322 4.15367 0
M  V30 5248 C 552.793 0.286293 5.33933 0
M  V30 5249 C 554.093 2.36341 4.65768 0
M  V30 5250 H 555.787 1.59688 2.53259 0
M  V30 5251 H 553.333 0.769257 1.21731 0
M  V30 5252 H 555.286 -0.170333 4.21056 0
M  V30 5253 H 554.01 -0.831516 3.15838 0
M  V30 5254 H 552.669 1.28309 3.43413 0
M  V30 5255 H 552.317 -0.644237 4.98857 0
M  V30 5256 H 552.017 0.910436 5.80504 0
M  V30 5257 H 553.541 0.0278938 6.10594 0
M  V30 5258 H 554.955 2.1561 5.31211 0
M  V30 5259 H 553.352 2.94299 5.2298 0
M  V30 5260 H 554.422 2.99047 3.81705 0
M  V30 5261 N 555.766 -1.3263 0.851289 0
M  V30 5262 C 556.996 -2.01271 0.466222 0
M  V30 5263 C 557.404 -1.64156 -0.940714 0
M  V30 5264 O 556.747 -0.857109 -1.62479 0
M  V30 5265 C 556.809 -3.55695 0.521672 0
M  V30 5266 C 556.473 -4.16227 1.88691 0
M  V30 5267 C 557.47 -4.34699 2.85189 0
M  V30 5268 C 555.155 -4.52377 2.18313 0
M  V30 5269 C 557.149 -4.88484 4.09465 0
M  V30 5270 C 554.836 -5.05868 3.42843 0
M  V30 5271 C 555.834 -5.23869 4.38235 0
M  V30 5272 O 555.522 -5.76218 5.6056 0
M  V30 5273 H 555.254 -0.651034 0.18202 0
M  V30 5274 H 557.808 -1.7026 1.14894 0
M  V30 5275 H 556.038 -3.86086 -0.217888 0
M  V30 5276 H 557.727 -4.05613 0.152682 0
M  V30 5277 H 558.493 -4.07107 2.63607 0
M  V30 5278 H 554.372 -4.37652 1.44851 0
M  V30 5279 H 557.916 -5.02451 4.83931 0
M  V30 5280 H 553.813 -5.32891 3.64277 0
M  V30 5281 H 554.581 -5.94616 5.62471 0
M  V30 5282 N 557.244 -0.608902 -1.45362 0
M  V30 5283 C 558.469 -0.10921 -2.07112 0
M  V30 5284 C 558.894 1.19779 -1.45033 0
M  V30 5285 O 558.252 1.72961 -0.543527 0
M  V30 5286 C 558.3 0.0155745 -3.60597 0
M  V30 5287 O 557.404 1.06546 -3.98399 0
M  V30 5288 H 556.745 -0.0746619 -0.659789 0
M  V30 5289 H 559.275 -0.839283 -1.86594 0
M  V30 5290 H 559.285 0.213364 -4.07442 0
M  V30 5291 H 557.96 -0.938765 -4.05167 0
M  V30 5292 H 556.537 0.844024 -3.63223 0
M  V30 5293 N 558.722 1.53707 -0.348139 0
M  V30 5294 C 559.999 1.93247 0.302475 0
M  V30 5295 C 560.379 1.28012 1.67857 0
M  V30 5296 O 559.727 0.43274 2.24365 0
M  V30 5297 C 559.937 3.47031 0.370159 0
M  V30 5298 C 561.285 4.20066 0.61882 0
M  V30 5299 O 562.309 3.53319 0.452087 0
M  V30 5300 O 561.168 5.38318 0.94215 0
M  V30 5301 H 558.262 0.807736 0.177458 0
M  V30 5302 H 560.808 1.64927 -0.399651 0
M  V30 5303 H 559.58 3.86745 -0.59534 0
M  V30 5304 H 559.203 3.81532 1.11888 0
M  V30 5305 N 560.2 0.0768682 1.57412 0
M  V30 5306 C 561.447 -0.591085 1.93681 0
M  V30 5307 C 561.775 -1.69311 0.957286 0
M  V30 5308 O 561.03 -1.95682 -0.0262428 0
M  V30 5309 C 561.329 -1.20268 3.36557 0
M  V30 5310 C 560.995 -0.226286 4.50332 0
M  V30 5311 C 559.657 0.0423142 4.81181 0
M  V30 5312 C 562.009 0.441415 5.19327 0
M  V30 5313 C 559.337 0.985616 5.78362 0
M  V30 5314 C 561.689 1.37307 6.17519 0
M  V30 5315 C 560.353 1.65009 6.46783 0
M  V30 5316 H 559.623 -0.216293 0.70873 0
M  V30 5317 H 562.27 0.148824 1.90921 0
M  V30 5318 H 560.575 -2.01844 3.35807 0
M  V30 5319 H 562.272 -1.72688 3.61911 0
M  V30 5320 H 558.862 -0.445821 4.26275 0
M  V30 5321 H 563.046 0.247023 4.95685 0
M  V30 5322 H 558.302 1.20743 5.99359 0
M  V30 5323 H 562.476 1.89637 6.70083 0
M  V30 5324 H 560.103 2.38263 7.21897 0
M  V30 5325 N 561.678 -1.56367 -0.196722 0
M  V30 5326 C 562.61 -1.90941 -1.26784 0
M  V30 5327 C 563.623 -0.799928 -1.41792 0
M  V30 5328 O 564.812 -1.07833 -1.42247 0
M  V30 5329 C 561.912 -2.12477 -2.6402 0
M  V30 5330 C 561.085 -3.43616 -2.70641 0
M  V30 5331 C 560.144 -3.54284 -3.89062 0
M  V30 5332 O 559.17 -4.2712 -3.76241 0
M  V30 5333 N 560.372 -2.87252 -5.04447 0
M  V30 5334 H 563.137 -2.83417 -0.974417 0
M  V30 5335 H 560.698 -1.57215 -0.386649 0
M  V30 5336 H 562.69 -2.16904 -3.41665 0
M  V30 5337 H 561.26 -1.26508 -2.85857 0
M  V30 5338 H 560.48 -3.51072 -1.79283 0
M  V30 5339 H 561.768 -4.29958 -2.72054 0
M  V30 5340 H 561.166 -2.27901 -5.17762 0
M  V30 5341 H 559.723 -2.97308 -5.80044 0
M  V30 5342 N 563.156 0.464375 -1.50603 0
M  V30 5343 C 564.567 1.04507 -1.5471 0
M  V30 5344 C 564.918 1.9297 -0.354542 0
M  V30 5345 O 564.043 2.09763 0.531812 0
M  V30 5346 C 564.638 1.90207 -2.80369 0
M  V30 5347 C 563.197 2.43373 -2.87135 0
M  V30 5348 C 562.344 1.21886 -2.49076 0
M  V30 5349 H 565.295 0.246716 -1.56771 0
M  V30 5350 H 565.316 2.75353 -2.62604 0
M  V30 5351 H 564.828 1.25796 -3.67147 0
M  V30 5352 H 562.929 3.11318 -2.04724 0
M  V30 5353 H 563.042 2.7802 -3.90181 0
M  V30 5354 H 561.406 1.55575 -2.01664 0
M  V30 5355 H 562.189 0.591268 -3.3817 0
M  V30 5356 N 564.634 1.40294 0.718013 0
M  V30 5357 C 566.045 1.34289 1.29705 0
M  V30 5358 C 566.396 0.0152228 1.96194 0
M  V30 5359 O 565.521 -0.88682 1.97394 0
M  V30 5360 C 566.116 2.43219 2.3586 0
M  V30 5361 C 564.675 2.40682 2.89394 0
M  V30 5362 C 563.822 2.24223 1.63154 0
M  V30 5363 H 566.773 1.50135 0.514312 0
M  V30 5364 H 566.794 2.10986 3.16647 0
M  V30 5365 H 566.306 3.39836 1.87439 0
M  V30 5366 H 564.407 1.47756 3.42051 0
M  V30 5367 H 564.52 3.36177 3.41353 0
M  V30 5368 H 562.884 1.71696 1.88129 0
M  V30 5369 H 563.667 3.22834 1.16761 0
M  V30 5370 N 566.112 -0.949982 1.2575 0
M  V30 5371 C 567.075 -2.02894 1.06615 0
M  V30 5372 C 568.075 -1.60791 0.0173905 0
M  V30 5373 O 569.265 -1.72249 0.260003 0
M  V30 5374 C 566.397 -3.35219 0.619751 0
M  V30 5375 H 567.59 -2.21302 2.02399 0
M  V30 5376 H 565.143 -1.12772 1.08223 0
M  V30 5377 H 565.878 -3.22508 -0.340486 0
M  V30 5378 H 565.663 -3.67129 1.37692 0
M  V30 5379 H 567.153 -4.14505 0.507443 0
M  V30 5380 N 567.59 -1.07411 -1.15328 0
M  V30 5381 C 568.52 -0.716472 -2.22236 0
M  V30 5382 C 569.501 0.296373 -1.67498 0
M  V30 5383 O 570.686 0.168989 -1.93463 0
M  V30 5384 C 567.816 -0.114142 -3.47112 0
M  V30 5385 C 566.77 -1.05421 -4.14814 0
M  V30 5386 C 566.096 -0.314604 -5.33774 0
M  V30 5387 C 567.396 -2.38808 -4.64508 0
M  V30 5388 H 569.09 -1.61029 -2.52408 0
M  V30 5389 H 566.636 -0.775702 -1.21321 0
M  V30 5390 H 568.589 0.148001 -4.2114 0
M  V30 5391 H 567.313 0.814755 -3.16274 0
M  V30 5392 H 565.972 -1.30128 -3.42728 0
M  V30 5393 H 565.62 0.617772 -4.99192 0
M  V30 5394 H 565.32 -0.941209 -5.80013 0
M  V30 5395 H 566.844 -0.0602747 -6.1057 0
M  V30 5396 H 568.258 -2.18424 -5.3006 0
M  V30 5397 H 566.655 -2.97069 -5.21412 0
M  V30 5398 H 567.725 -3.01067 -3.80114 0
M  V30 5399 N 569.068 1.32177 -0.85831 0
M  V30 5400 C 570.015 2.28794 -0.303607 0
M  V30 5401 C 570.985 1.55213 0.591453 0
M  V30 5402 O 572.17 1.83418 0.525585 0
M  V30 5403 C 569.31 3.41475 0.49889 0
M  V30 5404 C 568.423 4.2993 -0.422373 0
M  V30 5405 C 567.558 5.29743 0.393111 0
M  V30 5406 C 566.597 6.09842 -0.525317 0
M  V30 5407 N 565.734 7.01643 0.253208 0
M  V30 5408 H 570.574 2.75631 -1.13276 0
M  V30 5409 H 568.111 1.35606 -0.570026 0
M  V30 5410 H 570.069 4.05531 0.979826 0
M  V30 5411 H 568.699 2.95779 1.29284 0
M  V30 5412 H 567.751 3.66422 -1.02171 0
M  V30 5413 H 569.063 4.85899 -1.12709 0
M  V30 5414 H 568.217 5.9942 0.937056 0
M  V30 5415 H 566.956 4.744 1.13117 0
M  V30 5416 H 565.961 5.39066 -1.08112 0
M  V30 5417 H 567.186 6.6727 -1.26205 0
M  V30 5418 H 565.132 6.48725 0.974295 0
M  V30 5419 H 565.049 7.54981 -0.392398 0
M  V30 5420 H 566.317 7.756 0.778761 0
M  V30 5421 N 570.547 0.616602 1.45037 0
M  V30 5422 C 571.796 0.112861 2.01384 0
M  V30 5423 C 572.109 -1.26758 1.48969 0
M  V30 5424 O 573.315 -1.86454 1.9735 0
M  V30 5425 C 571.771 0.151057 3.59583 0
M  V30 5426 C 571.379 1.53191 4.20995 0
M  V30 5427 C 573.123 -0.296974 4.2346 0
M  V30 5428 C 571.03 1.526 5.71373 0
M  V30 5429 H 569.96 0.0384254 0.75302 0
M  V30 5430 H 572.611 0.773262 1.66412 0
M  V30 5431 H 570.993 -0.57617 3.91786 0
M  V30 5432 H 572.167 2.28156 4.00352 0
M  V30 5433 H 570.482 1.92279 3.69348 0
M  V30 5434 H 573.079 -0.320712 5.33737 0
M  V30 5435 H 573.422 -1.32145 3.9477 0
M  V30 5436 H 573.955 0.377279 3.96007 0
M  V30 5437 H 570.694 2.52837 6.04776 0
M  V30 5438 H 570.214 0.819064 5.94181 0
M  V30 5439 H 571.893 1.25357 6.3474 0
M  V30 5440 N 572.025 -1.5352 0.356285 0
M  V30 5441 C 572.972 -2.25439 -0.494569 0
M  V30 5442 C 573.942 -1.25752 -1.08516 0
M  V30 5443 O 575.127 -1.54513 -1.1194 0
M  V30 5444 C 572.267 -3.04011 -1.63313 0
M  V30 5445 C 571.38 -4.18574 -1.06862 0
M  V30 5446 C 570.515 -4.84607 -2.17552 0
M  V30 5447 C 569.554 -5.91218 -1.58518 0
M  V30 5448 N 568.691 -6.50979 -2.63003 0
M  V30 5449 H 573.531 -2.97737 0.125244 0
M  V30 5450 H 571.068 -1.46916 0.0735789 0
M  V30 5451 H 573.026 -3.47834 -2.30363 0
M  V30 5452 H 571.656 -2.33986 -2.22374 0
M  V30 5453 H 570.708 -3.79303 -0.288672 0
M  V30 5454 H 572.02 -4.95215 -0.596924 0
M  V30 5455 H 571.174 -5.31566 -2.92442 0
M  V30 5456 H 569.913 -4.07418 -2.6807 0
M  V30 5457 H 568.918 -5.4363 -0.821391 0
M  V30 5458 H 570.143 -6.70322 -1.08836 0
M  V30 5459 H 568.089 -5.76648 -3.12751 0
M  V30 5460 H 568.006 -7.23131 -2.20493 0
M  V30 5461 H 569.274 -7.02589 -3.37623 0
M  V30 5462 N 573.503 -0.0852151 -1.57369 0
M  V30 5463 C 574.413 0.891712 -2.16992 0
M  V30 5464 C 575.429 1.3174 -1.13669 0
M  V30 5465 O 576.605 1.38735 -1.45995 0
M  V30 5466 C 573.67 2.13635 -2.73059 0
M  V30 5467 C 572.731 1.7658 -3.91303 0
M  V30 5468 C 571.964 2.95111 -4.44686 0
M  V30 5469 O 572.187 4.09539 -3.97032 0
M  V30 5470 O 571.121 2.74149 -5.35841 0
M  V30 5471 H 574.947 0.414477 -3.00858 0
M  V30 5472 H 572.532 0.138598 -1.48756 0
M  V30 5473 H 574.414 2.86595 -3.08935 0
M  V30 5474 H 573.089 2.6043 -1.92244 0
M  V30 5475 H 571.996 1.00831 -3.60255 0
M  V30 5476 H 573.329 1.34557 -4.7345 0
M  V30 5477 N 574.981 1.5647 0.188427 0
M  V30 5478 C 575.891 1.98285 1.2538 0
M  V30 5479 C 576.907 0.891535 1.49424 0
M  V30 5480 O 578.083 1.19782 1.61908 0
M  V30 5481 C 575.148 2.31965 2.57669 0
M  V30 5482 C 574.209 3.54838 2.41638 0
M  V30 5483 C 573.442 3.86901 3.67618 0
M  V30 5484 O 573.665 3.20163 4.72072 0
M  V30 5485 O 572.599 4.80309 3.62749 0
M  V30 5486 H 576.425 2.89145 0.928912 0
M  V30 5487 H 574.01 1.44112 0.393955 0
M  V30 5488 H 575.892 2.54673 3.35737 0
M  V30 5489 H 574.567 1.44271 2.89771 0
M  V30 5490 H 573.474 3.37369 1.61658 0
M  V30 5491 H 574.807 4.43019 2.14465 0
M  V30 5492 N 576.459 -0.456382 1.50847 0
M  V30 5493 C 577.369 -1.57805 1.73594 0
M  V30 5494 C 578.385 -1.62599 0.619476 0
M  V30 5495 O 579.561 -1.80195 0.899532 0
M  V30 5496 C 576.626 -2.93926 1.8387 0
M  V30 5497 C 575.687 -2.99402 3.07663 0
M  V30 5498 C 574.92 -4.29031 3.1744 0
M  V30 5499 O 575.143 -5.20358 2.33631 0
M  V30 5500 O 574.077 -4.40401 4.10281 0
M  V30 5501 H 577.903 -1.41531 2.68705 0
M  V30 5502 H 575.488 -0.637422 1.3512 0
M  V30 5503 H 577.37 -3.74747 1.92725 0
M  V30 5504 H 576.045 -3.10368 0.91944 0
M  V30 5505 H 574.952 -2.17606 3.043 0
M  V30 5506 H 576.285 -2.87901 3.99216 0
M  V30 5507 N 577.937 -1.40673 -0.710563 0
M  V30 5508 C 578.847 -1.43663 -1.85467 0
M  V30 5509 C 579.863 -0.328721 -1.70867 0
M  V30 5510 O 581.039 -0.574098 -1.93044 0
M  V30 5511 C 578.104 -1.30226 -3.21313 0
M  V30 5512 C 577.165 -2.51204 -3.48131 0
M  V30 5513 C 576.398 -2.38398 -4.77495 0
M  V30 5514 O 576.621 -1.40048 -5.5294 0
M  V30 5515 O 575.555 -3.2787 -5.04762 0
M  V30 5516 H 579.381 -2.40156 -1.859 0
M  V30 5517 H 576.966 -1.22049 -0.861652 0
M  V30 5518 H 578.848 -1.2496 -4.02446 0
M  V30 5519 H 577.523 -0.368419 -3.21597 0
M  V30 5520 H 576.43 -2.62048 -2.66987 0
M  V30 5521 H 577.763 -3.43366 -3.52648 0
M  V30 5522 N 579.415 0.9433 -1.26252 0
M  V30 5523 C 580.663 1.68592 -1.11451 0
M  V30 5524 C 580.984 1.91957 0.343123 0
M  V30 5525 O 580.254 1.51475 1.24226 0
M  V30 5526 H 578.834 0.624789 -0.409448 0
M  V30 5527 H 581.496 1.13351 -1.58548 0
M  V30 5528 H 580.592 2.66054 -1.63162 0
M  V30 5529 N 580.893 1.08022 1.14757 0
M  V30 5530 C 581.856 0.71048 2.1791 0
M  V30 5531 C 582.856 -0.252731 1.58801 0
M  V30 5532 O 584.046 -0.0327915 1.74169 0
M  V30 5533 C 581.178 0.0483203 3.40866 0
M  V30 5534 H 582.371 1.62384 2.52134 0
M  V30 5535 H 579.924 0.877595 1.29337 0
M  V30 5536 H 580.659 -0.876959 3.12218 0
M  V30 5537 H 580.444 0.741189 3.85031 0
M  V30 5538 H 581.934 -0.195471 4.17142 0
M  V30 5539 N 582.371 -1.3172 0.865308 0
M  V30 5540 C 583.281 -2.32394 0.320935 0
M  V30 5541 C 584.297 -1.64511 -0.566746 0
M  V30 5542 O 585.473 -1.95969 -0.464575 0
M  V30 5543 C 582.538 -3.43462 -0.472701 0
M  V30 5544 C 581.599 -4.27015 0.442385 0
M  V30 5545 C 580.832 -5.32779 -0.313469 0
M  V30 5546 O 581.055 -5.49158 -1.54214 0
M  V30 5547 O 579.989 -6.01015 0.326257 0
M  V30 5548 H 583.815 -2.80868 1.15528 0
M  V30 5549 H 581.4 -1.35535 0.628545 0
M  V30 5550 H 583.282 -4.11172 -0.922781 0
M  V30 5551 H 581.957 -2.97159 -1.28367 0
M  V30 5552 H 580.864 -3.62075 0.940866 0
M  V30 5553 H 582.197 -4.76871 1.21882 0
M  V30 5554 N 583.85 -0.624285 -1.44708 0
M  V30 5555 C 584.812 0.0749638 -2.29077 0
M  V30 5556 C 585.812 0.778965 -1.40673 0
M  V30 5557 O 587.003 0.624591 -1.62618 0
M  V30 5558 C 584.135 1.11663 -3.22094 0
M  V30 5559 H 585.327 -0.667013 -2.92388 0
M  V30 5560 H 582.88 -0.384098 -1.51507 0
M  V30 5561 H 583.615 1.88881 -2.63618 0
M  V30 5562 H 583.401 0.61583 -3.87234 0
M  V30 5563 H 584.891 1.60585 -3.8549 0
M  V30 5564 N 585.328 1.53329 -0.364422 0
M  V30 5565 C 586.553 2.06132 0.229033 0
M  V30 5566 C 586.978 1.23625 1.41769 0
M  V30 5567 O 586.336 0.255038 1.79497 0
M  V30 5568 C 586.384 3.55544 0.60174 0
M  V30 5569 O 585.488 3.75771 1.69912 0
M  V30 5570 H 584.829 0.663148 0.0336213 0
M  V30 5571 H 587.359 1.97758 -0.524689 0
M  V30 5572 H 587.369 3.98549 0.873073 0
M  V30 5573 H 586.044 4.15039 -0.267421 0
M  V30 5574 H 584.621 3.44663 1.42343 0
M  V30 5575 N 586.806 0.0935595 1.57322 0
M  V30 5576 C 587.769 -0.851426 2.12799 0
M  V30 5577 C 588.769 -1.21187 1.0569 0
M  V30 5578 O 589.959 -1.14156 1.31583 0
M  V30 5579 C 587.091 -2.14779 2.64731 0
M  V30 5580 H 588.284 -0.369733 2.97612 0
M  V30 5581 H 585.837 -0.155417 1.55525 0
M  V30 5582 H 586.572 -2.67437 1.83434 0
M  V30 5583 H 586.357 -1.89907 3.43042 0
M  V30 5584 H 587.847 -2.82383 3.07651 0
M  V30 5585 N 588.284 -1.56567 -0.180126 0
M  V30 5586 C 589.7 -1.50488 -0.531559 0
M  V30 5587 C 589.9 -0.796267 -1.851 0
M  V30 5588 O 588.956 -0.352978 -2.50021 0
M  V30 5589 C 590.269 -2.95201 -0.572456 0
M  V30 5590 C 591.817 -3.05957 -0.660264 0
M  V30 5591 C 592.292 -4.5211 -0.732135 0
M  V30 5592 N 593.783 -4.56322 -0.795262 0
M  V30 5593 C 594.518 -5.66742 -0.871296 0
M  V30 5594 N 594.014 -6.86815 -0.908708 0
M  V30 5595 N 595.807 -5.54691 -0.909639 0
M  V30 5596 H 587.958 -2.01045 0.685165 0
M  V30 5597 H 590.221 -0.915536 0.245962 0
M  V30 5598 H 589.927 -3.50165 0.328208 0
M  V30 5599 H 589.801 -3.49369 -1.422 0
M  V30 5600 H 592.188 -2.51032 -1.55136 0
M  V30 5601 H 592.269 -2.54888 0.215783 0
M  V30 5602 H 591.913 -5.07664 0.154664 0
M  V30 5603 H 591.843 -5.00926 -1.6242 0
M  V30 5604 H 594.334 -3.69868 -0.77499 0
M  V30 5605 H 594.647 -7.66718 -0.967654 0
M  V30 5606 H 592.992 -6.89443 -0.877132 0
M  V30 5607 H 596.183 -4.59804 -0.877353 0
M  V30 5608 H 596.356 -6.40768 -0.965434 0
M  V30 5609 N 589.762 0.448376 -1.51087 0
M  V30 5610 C 590.987 1.22605 -1.6728 0
M  V30 5611 C 591.412 1.84524 -0.365045 0
M  V30 5612 O 590.77 1.6832 0.673642 0
M  V30 5613 C 590.818 2.29393 -2.78229 0
M  V30 5614 O 589.922 3.34608 -2.41063 0
M  V30 5615 H 589.263 0.359705 -0.558129 0
M  V30 5616 H 591.793 0.530903 -1.97592 0
M  V30 5617 H 591.803 2.74352 -3.01986 0
M  V30 5618 H 590.478 1.83701 -3.73131 0
M  V30 5619 H 589.055 2.95202 -2.27838 0
M  V30 5620 N 591.24 1.41047 0.703093 0
M  V30 5621 C 592.651 1.35657 1.28274 0
M  V30 5622 C 593.002 0.0360309 1.96167 0
M  V30 5623 O 592.127 -0.865833 1.98324 0
M  V30 5624 C 592.722 2.45707 2.33267 0
M  V30 5625 C 591.281 2.43738 2.86825 0
M  V30 5626 C 590.428 2.25941 1.60767 0
M  V30 5627 H 593.379 1.50672 0.49836 0
M  V30 5628 H 593.4 2.14333 3.14391 0
M  V30 5629 H 592.912 3.41805 1.83824 0
M  V30 5630 H 591.013 1.51375 3.40465 0
M  V30 5631 H 591.126 3.39779 3.37768 0
M  V30 5632 H 589.49 1.73681 1.86298 0
M  V30 5633 H 590.273 3.24054 1.1333 0
M  V30 5634 N 592.718 -0.936591 1.26751 0
M  V30 5635 C 594.134 -1.21095 1.03963 0
M  V30 5636 C 594.334 -2.00156 -0.232372 0
M  V30 5637 O 593.39 -2.3434 -0.940274 0
M  V30 5638 C 594.703 -1.96775 2.27377 0
M  V30 5639 C 596.251 -2.09749 2.32324 0
M  V30 5640 C 596.726 -2.88832 3.55443 0
M  V30 5641 N 598.217 -2.96404 3.55948 0
M  V30 5642 C 598.952 -3.58036 4.47881 0
M  V30 5643 N 598.448 -4.21132 5.50109 0
M  V30 5644 N 600.241 -3.55353 4.35523 0
M  V30 5645 H 592.392 -0.408173 2.08441 0
M  V30 5646 H 594.655 -0.243139 0.91629 0
M  V30 5647 H 594.361 -1.46094 3.19921 0
M  V30 5648 H 594.235 -2.97424 2.31989 0
M  V30 5649 H 596.622 -2.5962 1.40291 0
M  V30 5650 H 596.703 -1.08347 2.31721 0
M  V30 5651 H 596.347 -2.39647 4.47808 0
M  V30 5652 H 596.277 -3.90499 3.53296 0
M  V30 5653 H 598.768 -2.51552 2.82011 0
M  V30 5654 H 599.081 -4.66071 6.16439 0
M  V30 5655 H 597.426 -4.19705 5.53961 0
M  V30 5656 H 600.617 -3.05256 3.54875 0
M  V30 5657 H 600.79 -4.03097 5.07363 0
M  V30 5658 N 594.196 -1.08629 -1.14182 0
M  V30 5659 C 595.421 -0.83902 -1.89671 0
M  V30 5660 C 595.846 0.603332 -1.78161 0
M  V30 5661 O 595.204 1.42301 -1.12339 0
M  V30 5662 C 595.252 -1.26854 -3.37551 0
M  V30 5663 O 594.356 -0.42188 -4.10236 0
M  V30 5664 H 593.697 -0.304545 -0.590041 0
M  V30 5665 H 596.227 -1.4483 -1.44518 0
M  V30 5666 H 596.237 -1.25038 -3.88368 0
M  V30 5667 H 594.912 -2.31901 -3.45246 0
M  V30 5668 H 593.489 -0.503654 -3.69483 0
M  V30 5669 N 595.674 1.31259 -0.872281 0
M  V30 5670 C 596.904 2.00504 -0.498183 0
M  V30 5671 C 597.312 1.65632 0.914479 0
M  V30 5672 O 596.655 0.882849 1.61095 0
M  V30 5673 C 596.717 3.5482 -0.578194 0
M  V30 5674 C 596.381 4.13172 -1.95289 0
M  V30 5675 C 597.378 4.30107 -2.92069 0
M  V30 5676 C 595.063 4.48846 -2.25483 0
M  V30 5677 C 597.057 4.81908 -4.17185 0
M  V30 5678 C 594.744 5.00349 -3.50847 0
M  V30 5679 C 595.742 5.16831 -4.46514 0
M  V30 5680 O 595.43 5.67228 -5.69656 0
M  V30 5681 H 595.162 0.648055 -0.192354 0
M  V30 5682 H 597.716 1.6841 -1.17589 0
M  V30 5683 H 595.946 3.86383 0.156438 0
M  V30 5684 H 597.635 4.05318 -0.217192 0
M  V30 5685 H 598.401 4.02862 -2.7005 0
M  V30 5686 H 594.28 4.35292 -1.51795 0
M  V30 5687 H 597.824 4.94688 -4.91863 0
M  V30 5688 H 593.721 5.27028 -3.72708 0
M  V30 5689 H 594.489 5.85592 -5.7186 0
M  V30 5690 N 597.152 0.631951 1.44375 0
M  V30 5691 C 598.082 -0.0593243 2.33425 0
M  V30 5692 C 599.063 -0.833964 1.48253 0
M  V30 5693 O 600.248 -0.799682 1.76971 0
M  V30 5694 C 597.378 -1.04096 3.31333 0
M  V30 5695 C 596.332 -0.377899 4.26328 0
M  V30 5696 C 595.658 -1.4695 5.14111 0
M  V30 5697 C 596.958 0.716371 5.17364 0
M  V30 5698 H 598.652 0.684287 2.91475 0
M  V30 5699 H 596.198 0.330518 1.40156 0
M  V30 5700 H 598.151 -1.53331 3.92514 0
M  V30 5701 H 596.875 -1.81547 2.71493 0
M  V30 5702 H 595.534 0.0938054 3.6648 0
M  V30 5703 H 595.182 -2.2349 4.50623 0
M  V30 5704 H 594.882 -1.03121 5.78481 0
M  V30 5705 H 596.406 -1.96363 5.78164 0
M  V30 5706 H 597.82 0.307089 5.72477 0
M  V30 5707 H 596.217 1.07784 5.90341 0
M  V30 5708 H 597.287 1.58316 4.58327 0
M  V30 5709 N 598.631 -1.53133 0.372548 0
M  V30 5710 C 599.877 -2.01654 -0.215277 0
M  V30 5711 C 600.21 -1.25914 -1.47849 0
M  V30 5712 O 599.485 -0.3548 -1.91237 0
M  V30 5713 C 599.768 -3.56609 -0.500187 0
M  V30 5714 C 599.621 -4.43036 0.777145 0
M  V30 5715 C 600.94 -4.20528 -1.29786 0
M  V30 5716 H 598.059 -0.732991 -0.0767686 0
M  V30 5717 H 600.701 -1.83335 0.498814 0
M  V30 5718 H 598.851 -3.7235 -1.10852 0
M  V30 5719 H 600.523 -4.39079 1.41447 0
M  V30 5720 H 598.766 -4.10723 1.39604 0
M  V30 5721 H 599.437 -5.49424 0.532662 0
M  V30 5722 H 601.913 -4.08663 -0.783198 0
M  V30 5723 H 600.789 -5.28962 -1.46596 0
M  V30 5724 H 601.05 -3.77051 -2.30836 0
M  V30 5725 N 600.109 -0.101901 -1.5727 0
M  V30 5726 C 601.072 0.840129 -2.13247 0
M  V30 5727 C 602.072 1.20625 -1.06331 0
M  V30 5728 O 603.262 1.13456 -1.32186 0
M  V30 5729 C 600.394 2.13372 -2.65867 0
M  V30 5730 H 601.587 0.353945 -2.97804 0
M  V30 5731 H 599.14 0.147167 -1.55606 0
M  V30 5732 H 599.875 2.66461 -1.84849 0
M  V30 5733 H 599.66 1.88085 -3.44044 0
M  V30 5734 H 601.15 2.80748 -3.09145 0
M  V30 5735 N 601.587 1.56661 0.17182 0
M  V30 5736 C 602.835 1.81606 0.886774 0
M  V30 5737 C 603.156 0.678818 1.82803 0
M  V30 5738 O 602.426 -0.301354 1.93568 0
M  V30 5739 H 601.006 0.669934 0.330451 0
M  V30 5740 H 603.668 1.94142 0.171757 0
M  V30 5741 H 602.764 2.75634 1.46398 0
M  V30 5742 N 603.065 -0.440357 1.51323 0
M  V30 5743 C 604.028 -1.51679 1.71832 0
M  V30 5744 C 605.028 -1.49648 0.588386 0
M  V30 5745 O 606.218 -1.51724 0.855891 0
M  V30 5746 C 603.35 -2.91228 1.77199 0
M  V30 5747 H 604.543 -1.34799 2.67898 0
M  V30 5748 H 602.096 -0.66883 1.41267 0
M  V30 5749 H 602.831 -3.13516 0.829363 0
M  V30 5750 H 602.616 -2.94107 2.59314 0
M  V30 5751 H 604.106 -3.69321 1.94915 0
M  V30 5752 N 604.543 -1.41418 -0.695603 0
M  V30 5753 C 605.491 -1.43467 -1.83084 0
M  V30 5754 C 606.485 -0.312719 -1.66489 0
M  V30 5755 O 607.691 -0.484744 -1.7335 0
M  V30 5756 H 604.066 -0.448891 -0.603325 0
M  V30 5757 H 606.037 -2.39144 -1.78473 0
M  V30 5758 C 604.786 -1.3337 -3.21104 0
M  V30 5759 H 604.109 -2.18989 -3.3449 0
M  V30 5760 H 605.549 -1.38865 -4.00615 0
M  V30 5761 C 604.008 -0.0460484 -3.36869 0
M  V30 5762 O 604.538 0.909258 -3.91274 0
M  V30 5763 N 602.744 0.0300222 -2.90584 0
M  V30 5764 H 602.291 -0.748129 -2.46497 0
M  V30 5765 H 602.249 0.890991 -3.01511 0
M  V30 5766 N 606.021 0.929856 -1.27246 0
M  V30 5767 C 607.432 1.49223 -1.12203 0
M  V30 5768 C 607.783 1.93989 0.293731 0
M  V30 5769 O 606.908 1.80978 1.18642 0
M  V30 5770 C 607.503 2.71198 -2.0307 0
M  V30 5771 C 606.062 3.23666 -1.92139 0
M  V30 5772 C 605.209 1.96409 -1.95752 0
M  V30 5773 H 608.16 0.744181 -1.4017 0
M  V30 5774 H 608.181 3.45905 -1.58524 0
M  V30 5775 H 607.693 2.38585 -3.06102 0
M  V30 5776 H 605.794 3.61042 -0.920834 0
M  V30 5777 H 605.907 3.90006 -2.78267 0
M  V30 5778 H 604.271 2.12806 -1.39949 0
M  V30 5779 H 605.054 1.66113 -3.00436 0
M  V30 5780 N 607.499 1.09233 1.13605 0
M  V30 5781 C 608.462 0.733553 2.17144 0
M  V30 5782 C 609.462 -0.235873 1.59061 0
M  V30 5783 O 610.652 -0.0143167 1.74194 0
M  V30 5784 C 607.784 0.084471 3.40795 0
M  V30 5785 H 608.977 1.65049 2.50397 0
M  V30 5786 H 606.53 0.891264 1.28399 0
M  V30 5787 H 607.265 -0.843795 3.1313 0
M  V30 5788 H 607.05 0.781985 3.84223 0
M  V30 5789 H 608.54 -0.151216 4.17326 0
M  V30 5790 N 608.977 -1.30795 0.87923 0
M  V30 5791 C 609.94 -2.26563 0.346676 0
M  V30 5792 C 610.94 -1.52578 -0.507597 0
M  V30 5793 O 612.13 -1.71318 -0.315575 0
M  V30 5794 C 609.262 -3.37115 -0.506611 0
M  V30 5795 H 610.455 -2.75183 1.19223 0
M  V30 5796 H 608.008 -1.41886 0.655598 0
M  V30 5797 H 608.743 -2.93802 -1.37299 0
M  V30 5798 H 608.528 -3.91959 0.105218 0
M  V30 5799 H 610.018 -4.08412 -0.871192 0
M  V30 5800 N 610.455 -0.639598 -1.44038 0
M  V30 5801 C 611.702 -0.14748 -2.01962 0
M  V30 5802 C 612.03 1.23372 -1.50365 0
M  V30 5803 O 611.285 1.8345 -0.681501 0
M  V30 5804 C 611.584 -0.0925348 -3.5728 0
M  V30 5805 C 611.25 -1.41365 -4.28167 0
M  V30 5806 C 609.912 -1.77545 -4.47248 0
M  V30 5807 C 612.264 -2.2853 -4.68427 0
M  V30 5808 C 609.592 -3.00583 -5.03852 0
M  V30 5809 C 611.944 -3.50846 -5.26393 0
M  V30 5810 C 610.608 -3.8724 -5.43692 0
M  V30 5811 H 609.878 -0.0539666 -0.739032 0
M  V30 5812 H 612.525 -0.827599 -1.72694 0
M  V30 5813 H 610.83 0.670987 -3.86012 0
M  V30 5814 H 612.527 0.304891 -3.99839 0
M  V30 5815 H 609.117 -1.1221 -4.13651 0
M  V30 5816 H 613.301 -2.0187 -4.5339 0
M  V30 5817 H 608.557 -3.28846 -5.15432 0
M  V30 5818 H 612.731 -4.18616 -5.56537 0
M  V30 5819 H 610.358 -4.8266 -5.87319 0
M  V30 5820 N 611.933 1.52934 -0.380664 0
M  V30 5821 C 613.344 1.86457 0.0952684 0
M  V30 5822 C 613.695 1.3007 1.46889 0
M  V30 5823 O 612.82 0.628636 2.07068 0
M  V30 5824 C 613.415 3.38323 0.179648 0
M  V30 5825 C 611.974 3.71589 0.599858 0
M  V30 5826 C 611.121 2.76228 -0.243572 0
M  V30 5827 H 614.072 1.46966 -0.59888 0
M  V30 5828 H 614.093 3.67113 1.00042 0
M  V30 5829 H 613.605 3.79333 -0.820228 0
M  V30 5830 H 611.706 3.36144 1.60742 0
M  V30 5831 H 611.819 4.77715 0.364003 0
M  V30 5832 H 610.183 2.53045 0.289855 0
M  V30 5833 H 610.966 3.20074 -1.24127 0
M  V30 5834 N 613.412 0.11024 1.57214 0
M  V30 5835 C 614.689 -0.592956 1.86396 0
M  V30 5836 C 615.069 -1.85379 1.00985 0
M  V30 5837 O 614.417 -2.28337 0.0863592 0
M  V30 5838 C 614.627 -0.893816 3.3736 0
M  V30 5839 C 615.975 -1.25069 4.05762 0
M  V30 5840 O 616.999 -0.984356 3.42329 0
M  V30 5841 O 615.858 -1.75017 5.17718 0
M  V30 5842 H 612.952 -0.29828 0.771335 0
M  V30 5843 H 615.498 0.144083 1.69087 0
M  V30 5844 H 614.27 2.6031e-05 3.913 0
M  V30 5845 H 613.893 -1.68631 3.60068 0
M  V30 5846 N 614.89 -1.56749 -0.16351 0
M  V30 5847 C 616.137 -1.82434 -0.878866 0
M  V30 5848 C 616.465 -0.688557 -1.81904 0
M  V30 5849 O 615.72 0.323644 -1.93005 0
M  V30 5850 C 616.019 -3.14342 -1.70071 0
M  V30 5851 C 615.685 -4.41647 -0.908775 0
M  V30 5852 C 614.347 -4.76224 -0.690236 0
M  V30 5853 C 616.699 -5.19998 -0.353815 0
M  V30 5854 C 614.027 -5.86624 0.0942374 0
M  V30 5855 C 616.379 -6.3122 0.41761 0
M  V30 5856 C 615.043 -6.64358 0.646879 0
M  V30 5857 H 614.313 -0.667574 -0.3216 0
M  V30 5858 H 616.96 -1.90963 -0.14337 0
M  V30 5859 H 615.265 -3.0119 -2.50583 0
M  V30 5860 H 616.962 -3.31426 -2.25738 0
M  V30 5861 H 613.552 -4.1453 -1.08916 0
M  V30 5862 H 617.736 -4.93673 -0.509975 0
M  V30 5863 H 612.992 -6.10751 0.281529 0
M  V30 5864 H 617.166 -6.91133 0.854849 0
M  V30 5865 H 614.793 -7.49742 1.25662 0
M  V30 5866 N 616.368 0.432326 -1.51554 0
M  V30 5867 C 617.779 1.01202 -1.56892 0
M  V30 5868 C 618.13 1.92175 -0.395394 0
M  V30 5869 O 617.255 2.10844 0.487198 0
M  V30 5870 C 617.85 1.84217 -2.8434 0
M  V30 5871 C 616.409 2.37228 -2.92233 0
M  V30 5872 C 615.556 1.16576 -2.51606 0
M  V30 5873 H 618.507 0.213407 -1.57259 0
M  V30 5874 H 618.528 2.69721 -2.68385 0
M  V30 5875 H 618.04 1.17979 -3.69733 0
M  V30 5876 H 616.141 3.06905 -2.11282 0
M  V30 5877 H 616.254 2.69682 -3.95991 0
M  V30 5878 H 614.618 1.51263 -2.04919 0
M  V30 5879 H 615.401 0.519404 -3.39348 0
M  V30 5880 N 617.846 1.41785 0.688094 0
M  V30 5881 C 618.776 1.47 1.8142 0
M  V30 5882 C 619.757 0.327881 1.6691 0
M  V30 5883 O 620.942 0.540362 1.86531 0
M  V30 5884 C 618.072 1.35876 3.19617 0
M  V30 5885 C 617.026 2.47976 3.48844 0
M  V30 5886 C 616.352 2.21915 4.86475 0
M  V30 5887 C 617.652 3.90309 3.47068 0
M  V30 5888 H 619.346 2.41247 1.77314 0
M  V30 5889 H 616.892 1.16116 0.851651 0
M  V30 5890 H 618.845 1.38134 3.98117 0
M  V30 5891 H 617.569 0.38116 3.24368 0
M  V30 5892 H 616.228 2.45013 2.72698 0
M  V30 5893 H 615.876 1.2248 4.8786 0
M  V30 5894 H 615.576 2.97037 5.06994 0
M  V30 5895 H 617.1 2.25901 5.67275 0
M  V30 5896 H 618.514 3.94947 4.1556 0
M  V30 5897 H 616.911 4.65175 3.7912 0
M  V30 5898 H 617.981 4.17927 2.45896 0
M  V30 5899 N 619.324 -0.923095 1.27737 0
M  V30 5900 C 620.572 -1.66797 1.14119 0
M  V30 5901 C 620.893 -1.92479 -0.312541 0
M  V30 5902 O 620.163 -1.53432 -1.218 0
M  V30 5903 H 618.743 -0.618196 0.419336 0
M  V30 5904 H 621.405 -1.10815 1.60331 0
M  V30 5905 H 620.501 -2.63424 1.67374 0
M  V30 5906 N 620.802 -1.09834 -1.13024 0
M  V30 5907 C 622.213 -0.855651 -1.65938 0
M  V30 5908 C 622.564 0.615159 -1.86307 0
M  V30 5909 O 621.689 1.47335 -1.58497 0
M  V30 5910 C 622.284 -1.5467 -3.01434 0
M  V30 5911 C 620.843 -1.35088 -3.51323 0
M  V30 5912 C 619.99 -1.6001 -2.26478 0
M  V30 5913 H 622.941 -1.25691 -0.968889 0
M  V30 5914 H 622.962 -0.982179 -3.67605 0
M  V30 5915 H 622.474 -2.61715 -2.86578 0
M  V30 5916 H 620.575 -0.30179 -3.71376 0
M  V30 5917 H 620.688 -2.0886 -4.31178 0
M  V30 5918 H 619.052 -1.02246 -2.33276 0
M  V30 5919 H 619.835 -2.68293 -2.14182 0
M  V30 5920 N 622.28 1.30327 -0.886154 0
M  V30 5921 C 623.691 1.78243 -0.555554 0
M  V30 5922 C 624.042 1.72849 0.928314 0
M  V30 5923 O 623.167 1.30607 1.72542 0
M  V30 5924 C 623.762 3.23654 -1.00168 0
M  V30 5925 C 622.321 3.69401 -0.722471 0
M  V30 5926 C 621.468 2.50753 -1.18399 0
M  V30 5927 H 624.419 1.1718 -1.07026 0
M  V30 5928 H 624.44 3.79056 -0.331152 0
M  V30 5929 H 623.952 3.27548 -2.08169 0
M  V30 5930 H 622.053 3.70995 0.345496 0
M  V30 5931 H 622.166 4.60818 -1.31085 0
M  V30 5932 H 620.53 2.47452 -0.603303 0
M  V30 5933 H 621.313 2.57383 -2.27176 0
M  V30 5934 N 623.758 0.647228 1.43697 0
M  V30 5935 C 625.169 0.238689 1.85168 0
M  V30 5936 C 625.52 -1.21345 1.54175 0
M  V30 5937 O 624.645 -1.92542 0.987743 0
M  V30 5938 C 625.24 0.426422 3.36106 0
M  V30 5939 C 623.799 0.0722541 3.76331 0
M  V30 5940 C 622.946 0.732153 2.6746 0
M  V30 5941 H 625.897 0.851309 1.33934 0
M  V30 5942 H 625.918 -0.32987 3.79067 0
M  V30 5943 H 625.43 1.48339 3.58632 0
M  V30 5944 H 623.531 -0.982355 3.59417 0
M  V30 5945 H 623.644 0.493541 4.76551 0
M  V30 5946 H 622.008 0.16594 2.54159 0
M  V30 5947 H 622.791 1.79204 2.92816 0
M  V30 5948 N 625.236 -1.5273 0.388769 0
M  V30 5949 C 626.647 -1.86505 -0.0853788 0
M  V30 5950 C 626.998 -1.30847 -1.46197 0
M  V30 5951 O 626.123 -0.639609 -2.06732 0
M  V30 5952 C 626.718 -3.38414 -0.161703 0
M  V30 5953 C 625.277 -3.71902 -0.580144 0
M  V30 5954 C 624.424 -2.76095 0.258218 0
M  V30 5955 H 627.375 -1.46647 0.606665 0
M  V30 5956 H 627.396 -3.67638 -0.980936 0
M  V30 5957 H 626.908 -3.78893 0.840333 0
M  V30 5958 H 625.009 -3.36992 -1.58957 0
M  V30 5959 H 625.122 -4.77902 -0.338663 0
M  V30 5960 H 623.486 -2.53195 -0.276432 0
M  V30 5961 H 624.269 -3.19411 1.25822 0
M  V30 5962 N 626.714 -0.118576 -1.57153 0
M  V30 5963 C 627.644 0.828436 -2.1831 0
M  V30 5964 C 628.625 1.27758 -1.12303 0
M  V30 5965 O 629.81 1.34026 -1.40537 0
M  V30 5966 C 626.94 2.07876 -2.78217 0
M  V30 5967 C 625.894 1.76742 -3.89803 0
M  V30 5968 C 625.22 3.08801 -4.36516 0
M  V30 5969 C 626.52 1.03606 -5.11921 0
M  V30 5970 H 628.214 0.318824 -2.97698 0
M  V30 5971 H 625.76 0.151911 -1.43196 0
M  V30 5972 H 627.713 2.74584 -3.19659 0
M  V30 5973 H 626.437 2.61161 -1.96118 0
M  V30 5974 H 625.096 1.12424 -3.48936 0
M  V30 5975 H 624.744 3.6002 -3.51276 0
M  V30 5976 H 624.444 2.88743 -5.11763 0
M  V30 5977 H 625.968 3.76627 -4.80608 0
M  V30 5978 H 627.382 1.60467 -5.50385 0
M  V30 5979 H 625.779 0.936454 -5.92748 0
M  V30 5980 H 626.849 0.0227421 -4.84895 0
M  V30 5981 N 628.193 1.56834 0.155195 0
M  V30 5982 C 629.604 1.72421 0.716082 0
M  V30 5983 C 629.955 0.731685 1.82046 0
M  V30 5984 O 629.08 -0.103481 2.16152 0
M  V30 5985 C 629.675 3.12629 1.30571 0
M  V30 5986 C 628.234 3.29846 1.81325 0
M  V30 5987 C 627.381 2.68359 0.698494 0
M  V30 5988 H 630.332 1.58544 -0.0703861 0
M  V30 5989 H 630.353 3.12174 2.1755 0
M  V30 5990 H 629.865 3.84844 0.501701 0
M  V30 5991 H 627.966 2.62614 2.64319 0
M  V30 5992 H 628.079 4.37727 1.9476 0
M  V30 5993 H 626.443 2.28604 1.12305 0
M  V30 5994 H 627.226 3.43171 -0.0939366 0
M  V30 5995 N 629.671 -0.424282 1.51781 0
M  V30 5996 C 631.082 -1.00368 1.57427 0
M  V30 5997 C 631.433 -1.91962 0.40558 0
M  V30 5998 O 630.558 -2.111 -0.47601 0
M  V30 5999 C 631.153 -1.82707 2.85313 0
M  V30 6000 C 629.712 -2.35675 2.93487 0
M  V30 6001 C 628.859 -1.1524 2.5222 0
M  V30 6002 H 631.81 -0.205064 1.5737 0
M  V30 6003 H 631.831 -2.68294 2.69812 0
M  V30 6004 H 631.343 -1.16017 3.70353 0
M  V30 6005 H 629.444 -3.05781 2.12906 0
M  V30 6006 H 629.557 -2.67578 3.97415 0
M  V30 6007 H 627.921 -1.50174 2.05718 0
M  V30 6008 H 628.704 -0.5014 3.39619 0
M  V30 6009 N 631.149 -1.42148 -0.680565 0
M  V30 6010 C 632.565 -1.24947 -0.992995 0
M  V30 6011 C 632.765 -0.149527 -2.00944 0
M  V30 6012 O 631.821 0.481145 -2.47873 0
M  V30 6013 C 633.134 -2.60426 -1.5033 0
M  V30 6014 C 634.682 -2.67733 -1.62137 0
M  V30 6015 C 635.157 -4.03564 -2.16565 0
M  V30 6016 N 636.648 -4.05488 -2.23905 0
M  V30 6017 C 637.383 -5.07401 -2.67081 0
M  V30 6018 N 636.879 -6.19698 -3.09751 0
M  V30 6019 N 638.672 -4.94758 -2.66778 0
M  V30 6020 H 630.823 -2.12399 -0.0074788 0
M  V30 6021 H 633.086 -0.94571 -0.0658529 0
M  V30 6022 H 632.792 -3.41743 -0.830947 0
M  V30 6023 H 632.666 -2.83949 -2.483 0
M  V30 6024 H 635.053 -1.86765 -2.2848 0
M  V30 6025 H 635.134 -2.48004 -0.626713 0
M  V30 6026 H 634.778 -4.84987 -1.50833 0
M  V30 6027 H 634.708 -4.20641 -3.1681 0
M  V30 6028 H 637.199 -3.24415 -1.93812 0
M  V30 6029 H 637.512 -6.93318 -3.41365 0
M  V30 6030 H 635.857 -6.23212 -3.07623 0
M  V30 6031 H 639.048 -4.06105 -2.32801 0
M  V30 6032 H 639.221 -5.74317 -3.00107 0
M  V30 6033 N 632.627 0.916307 -1.28225 0
M  V30 6034 C 633.59 1.99996 -1.11957 0
M  V30 6035 C 634.59 1.60688 -0.0600152 0
M  V30 6036 O 635.78 1.71499 -0.30558 0
M  V30 6037 C 632.912 3.33458 -0.708411 0
M  V30 6038 H 634.105 2.15858 -2.08196 0
M  V30 6039 H 631.658 1.09863 -1.11175 0
M  V30 6040 H 632.393 3.23297 0.254859 0
M  V30 6041 H 632.178 3.63349 -1.47377 0
M  V30 6042 H 633.668 4.13014 -0.617164 0
M  V30 6043 N 634.105 1.10431 1.1244 0
M  V30 6044 C 635.333 0.868872 1.87772 0
M  V30 6045 C 635.748 -0.580645 1.7965 0
M  V30 6046 O 635.105 -1.40031 1.17036 0
M  V30 6047 C 635.156 1.30855 3.36986 0
M  V30 6048 O 634.877 2.70123 3.44914 0
M  V30 6049 C 636.378 1.107 4.29256 0
M  V30 6050 H 633.598 0.311868 0.59412 0
M  V30 6051 H 636.142 1.46897 1.42273 0
M  V30 6052 H 634.297 0.752126 3.80029 0
M  V30 6053 H 634.711 2.88923 4.37748 0
M  V30 6054 H 636.185 1.46378 5.32238 0
M  V30 6055 H 636.662 0.0456228 4.39176 0
M  V30 6056 H 637.268 1.64988 3.91994 0
M  V30 6057 N 635.583 -1.29855 0.893053 0
M  V30 6058 C 636.994 -1.77946 0.564998 0
M  V30 6059 C 637.345 -1.73339 -0.919134 0
M  V30 6060 O 636.47 -1.3152 -1.71847 0
M  V30 6061 C 637.065 -3.23118 1.01883 0
M  V30 6062 C 635.624 -3.69013 0.742051 0
M  V30 6063 C 634.771 -2.50121 1.19727 0
M  V30 6064 H 637.722 -1.16611 1.07646 0
M  V30 6065 H 637.743 -3.78875 0.351249 0
M  V30 6066 H 637.255 -3.26439 2.09903 0
M  V30 6067 H 635.356 -3.71173 -0.325816 0
M  V30 6068 H 635.469 -4.60117 1.33527 0
M  V30 6069 H 633.833 -2.47128 0.616418 0
M  V30 6070 H 634.616 -2.56174 2.28538 0
M  V30 6071 N 637.061 -0.65484 -1.43351 0
M  V30 6072 C 638.286 -0.175046 -2.0666 0
M  V30 6073 C 638.711 1.15104 -1.4877 0
M  V30 6074 O 638.069 1.71144 -0.598279 0
M  V30 6075 C 638.117 -0.0991544 -3.60464 0
M  V30 6076 O 637.221 0.938169 -4.01587 0
M  V30 6077 H 636.562 -0.0956148 -0.65708 0
M  V30 6078 H 639.092 -0.898222 -1.83829 0
M  V30 6079 H 639.102 0.083632 -4.07914 0
M  V30 6080 H 637.777 -1.06719 -4.01975 0
M  V30 6081 H 636.354 0.72804 -3.65724 0
M  V30 6082 N 638.539 1.52521 -0.396863 0
M  V30 6083 C 639.955 1.5953 -0.0471659 0
M  V30 6084 C 640.155 1.41044 1.43906 0
M  V30 6085 O 639.211 1.23122 2.20448 0
M  V30 6086 C 640.524 2.95972 -0.531113 0
M  V30 6087 C 642.072 3.09172 -0.488024 0
M  V30 6088 C 642.547 4.48075 -0.948281 0
M  V30 6089 N 644.038 4.54281 -0.9046 0
M  V30 6090 C 644.773 5.60007 -1.23205 0
M  V30 6091 N 644.269 6.73343 -1.63036 0
M  V30 6092 N 646.062 5.50151 -1.15282 0
M  V30 6093 H 638.213 1.62786 -1.36435 0
M  V30 6094 H 640.476 0.76514 -0.559701 0
M  V30 6095 H 640.182 3.14741 -1.56942 0
M  V30 6096 H 640.056 3.77143 0.0657922 0
M  V30 6097 H 642.443 2.90095 0.541211 0
M  V30 6098 H 642.524 2.29937 -1.12083 0
M  V30 6099 H 642.168 4.67894 -1.97578 0
M  V30 6100 H 642.098 5.25788 -0.292412 0
M  V30 6101 H 644.589 3.72918 -0.6116 0
M  V30 6102 H 644.902 7.49992 -1.86365 0
M  V30 6103 H 643.247 6.74655 -1.66929 0
M  V30 6104 H 646.438 4.6049 -0.840602 0
M  V30 6105 H 646.611 6.32444 -1.41133 0
M  V30 6106 N 640.017 0.126909 1.57088 0
M  V30 6107 C 641.428 -0.397201 1.82426 0
M  V30 6108 C 641.779 -1.66084 1.04453 0
M  V30 6109 O 640.904 -2.14534 0.283552 0
M  V30 6110 C 641.499 -0.727411 3.30899 0
M  V30 6111 C 640.058 -1.19612 3.56889 0
M  V30 6112 C 639.205 -0.20885 2.76512 0
M  V30 6113 H 642.156 0.351924 1.54749 0
M  V30 6114 H 642.177 -1.58407 3.45959 0
M  V30 6115 H 641.689 0.19247 3.87622 0
M  V30 6116 H 639.79 -2.13263 3.05532 0
M  V30 6117 H 639.903 -1.13598 4.65438 0
M  V30 6118 H 638.267 -0.697479 2.44964 0
M  V30 6119 H 639.05 0.704267 3.35998 0
M  V30 6120 N 641.495 -1.56914 -0.146875 0
M  V30 6121 C 642.743 -1.82994 -0.85777 0
M  V30 6122 C 643.064 -0.707814 -1.817 0
M  V30 6123 O 642.334 0.270521 -1.94023 0
M  V30 6124 H 640.914 -0.675106 -0.319751 0
M  V30 6125 H 643.576 -1.9439 -0.140849 0
M  V30 6126 H 642.672 -2.77928 -1.41994 0
M  V30 6127 N 642.974 0.416227 -1.52004 0
M  V30 6128 C 643.884 1.53147 -1.77717 0
M  V30 6129 C 644.9 1.609 -0.662368 0
M  V30 6130 O 646.076 1.77747 -0.946991 0
M  V30 6131 C 643.141 2.88948 -1.91598 0
M  V30 6132 C 642.202 2.9114 -3.15493 0
M  V30 6133 C 641.435 4.20464 -3.28703 0
M  V30 6134 O 641.658 5.13981 -2.47345 0
M  V30 6135 O 640.592 4.29368 -4.21813 0
M  V30 6136 H 644.418 1.34357 -2.72363 0
M  V30 6137 H 642.003 0.601373 -1.36762 0
M  V30 6138 H 643.885 3.69505 -2.02593 0
M  V30 6139 H 642.56 3.07821 -1.00141 0
M  V30 6140 H 641.467 2.09461 -3.09962 0
M  V30 6141 H 642.8 2.77216 -4.06709 0
M  V30 6142 N 644.452 1.42507 0.673017 0
M  V30 6143 C 645.415 1.4582 1.76831 0
M  V30 6144 C 646.415 0.345542 1.57043 0
M  V30 6145 O 647.605 0.606447 1.63303 0
M  V30 6146 C 644.737 1.29158 3.15485 0
M  V30 6147 H 645.93 2.43345 1.7528 0
M  V30 6148 H 643.483 1.28981 0.882817 0
M  V30 6149 H 644.218 0.325626 3.22661 0
M  V30 6150 H 644.003 2.09797 3.31252 0
M  V30 6151 H 645.493 1.34363 3.95394 0
M  V30 6152 N 645.93 -0.909495 1.28709 0
M  V30 6153 C 646.893 -1.99399 1.13016 0
M  V30 6154 C 647.893 -1.60654 0.068536 0
M  V30 6155 O 649.083 -1.71334 0.314671 0
M  V30 6156 C 646.215 -3.33078 0.726085 0
M  V30 6157 H 647.408 -2.14751 2.09338 0
M  V30 6158 H 644.961 -1.09272 1.11756 0
M  V30 6159 H 645.696 -3.23428 -0.23771 0
M  V30 6160 H 645.481 -3.62562 1.49302 0
M  V30 6161 H 646.971 -4.12681 0.639058 0
M  V30 6162 N 647.408 -1.11026 -1.11852 0
M  V30 6163 C 648.654 -0.857729 -1.83768 0
M  V30 6164 C 648.987 0.615143 -1.842 0
M  V30 6165 O 648.262 1.45391 -1.29196 0
M  V30 6166 C 648.545 -1.41453 -3.31154 0
M  V30 6167 C 648.398 -2.95471 -3.39142 0
M  V30 6168 C 649.717 -1.0619 -4.27097 0
M  V30 6169 H 646.836 -0.313044 -0.667212 0
M  V30 6170 H 649.478 -1.37443 -1.31185 0
M  V30 6171 H 647.628 -0.975052 -3.76065 0
M  V30 6172 H 649.3 -3.4799 -3.02821 0
M  V30 6173 H 647.543 -3.31759 -2.79497 0
M  V30 6174 H 648.214 -3.29515 -4.42859 0
M  V30 6175 H 650.69 -1.44122 -3.90344 0
M  V30 6176 H 649.566 -1.47832 -5.28618 0
M  V30 6177 H 649.827 0.0278912 -4.42091 0
M  V30 6178 N 648.886 1.2938 -0.899927 0
M  V30 6179 C 650.114 1.99691 -0.541386 0
M  V30 6180 C 650.529 1.67355 0.873936 0
M  V30 6181 O 649.886 0.918728 1.57688 0
M  V30 6182 C 649.937 3.54168 -0.72438 0
M  V30 6183 O 649.658 3.85359 -2.08399 0
M  V30 6184 C 651.159 4.41746 -0.370819 0
M  V30 6185 H 648.379 0.638037 -0.207726 0
M  V30 6186 H 650.923 1.6491 -1.20934 0
M  V30 6187 H 649.078 3.87261 -0.103607 0
M  V30 6188 H 649.492 4.80032 -2.11352 0
M  V30 6189 H 650.966 5.49256 -0.549693 0
M  V30 6190 H 651.443 4.33712 0.692148 0
M  V30 6191 H 652.049 4.14125 -0.968543 0
M  V30 6192 N 650.364 0.662433 1.43002 0
M  V30 6193 C 651.327 -0.0142016 2.29196 0
M  V30 6194 C 652.327 -0.741394 1.42688 0
M  V30 6195 O 653.517 -0.581257 1.64216 0
M  V30 6196 C 650.649 -1.03084 3.24941 0
M  V30 6197 H 651.842 0.7443 2.90517 0
M  V30 6198 H 649.395 0.424133 1.50435 0
M  V30 6199 H 650.13 -1.81826 2.68533 0
M  V30 6200 H 649.915 -0.512946 3.8873 0
M  V30 6201 H 651.405 -1.50308 3.89612 0
M  V30 6202 N 651.842 -1.52309 0.404946 0
M  V30 6203 C 652.805 -2.25491 -0.410651 0
M  V30 6204 C 653.805 -1.27704 -0.977154 0
M  V30 6205 O 654.995 -1.51679 -0.856691 0
M  V30 6206 C 652.127 -3.02197 -1.57765 0
M  V30 6207 H 653.32 -2.99015 0.230277 0
M  V30 6208 H 650.873 -1.55506 0.157377 0
M  V30 6209 H 651.608 -2.33013 -2.25556 0
M  V30 6210 H 651.393 -3.73987 -1.17797 0
M  V30 6211 H 652.883 -3.57719 -2.15469 0
M  V30 6212 N 653.32 -0.135238 -1.57019 0
M  V30 6213 C 654.731 0.387521 -1.82634 0
M  V30 6214 C 655.082 1.65528 -1.05332 0
M  V30 6215 O 654.207 2.14381 -0.294926 0
M  V30 6216 C 654.802 0.709852 -3.3128 0
M  V30 6217 C 653.361 1.17718 -3.57518 0
M  V30 6218 C 652.508 0.194183 -2.76619 0
M  V30 6219 H 655.459 -0.360126 -1.5456 0
M  V30 6220 H 655.48 1.5657 -3.46794 0
M  V30 6221 H 654.992 -0.213024 -3.87515 0
M  V30 6222 H 653.093 2.1164 -3.06658 0
M  V30 6223 H 653.206 1.11128 -4.66034 0
M  V30 6224 H 651.57 0.684478 -2.4533 0
M  V30 6225 H 652.353 -0.722076 -3.3562 0
M  V30 6226 N 654.798 1.5699 0.138552 0
M  V30 6227 C 655.761 1.97984 1.15478 0
M  V30 6228 C 656.761 0.867416 1.35398 0
M  V30 6229 O 657.951 1.13387 1.32246 0
M  V30 6230 C 655.083 2.3031 2.51337 0
M  V30 6231 H 656.276 2.88953 0.802896 0
M  V30 6232 H 653.829 1.51555 0.382189 0
M  V30 6233 H 654.564 1.42159 2.91481 0
M  V30 6234 H 654.349 3.11425 2.38237 0
M  V30 6235 H 655.839 2.62834 3.24512 0
M  V30 6236 N 656.276 -0.40816 1.52223 0
M  V30 6237 C 657.501 -1.18127 1.70472 0
M  V30 6238 C 657.926 -1.83491 0.41384 0
M  V30 6239 O 657.284 -1.70047 -0.628778 0
M  V30 6240 C 657.332 -2.21935 2.84213 0
M  V30 6241 O 656.436 -3.28099 2.4985 0
M  V30 6242 H 655.777 -0.344781 0.56747 0
M  V30 6243 H 658.307 -0.478328 1.9893 0
M  V30 6244 H 658.317 -2.66248 3.09153 0
M  V30 6245 H 656.992 -1.73744 3.7787 0
M  V30 6246 H 655.569 -2.89058 2.35584 0
M  V30 6247 N 657.755 -1.42862 -0.66545 0
M  V30 6248 C 658.718 -1.46756 -1.76055 0
M  V30 6249 C 659.718 -0.353866 -1.56858 0
M  V30 6250 O 660.908 -0.615099 -1.62979 0
M  V30 6251 C 658.04 -1.30829 -3.14796 0
M  V30 6252 H 659.233 -2.44271 -1.73987 0
M  V30 6253 H 656.786 -1.29447 -0.875965 0
M  V30 6254 H 657.521 -0.342733 -3.22484 0
M  V30 6255 H 657.306 -2.11551 -3.30134 0
M  V30 6256 H 658.796 -1.36458 -3.94676 0
M  V30 6257 N 659.233 0.902656 -1.29189 0
M  V30 6258 C 660.458 1.69167 -1.19989 0
M  V30 6259 C 660.883 1.86607 0.236495 0
M  V30 6260 O 660.241 1.38425 1.17082 0
M  V30 6261 C 660.289 3.05532 -1.91527 0
M  V30 6262 O 659.393 3.93621 -1.2303 0
M  V30 6263 H 658.734 0.517584 -0.415936 0
M  V30 6264 H 661.264 1.12785 -1.70706 0
M  V30 6265 H 661.274 3.55693 -1.99866 0
M  V30 6266 H 659.949 2.92156 -2.96003 0
M  V30 6267 H 658.526 3.52055 -1.22928 0
M  V30 6268 N 660.711 1.11618 1.11262 0
M  V30 6269 C 661.957 0.867463 1.83311 0
M  V30 6270 C 662.29 -0.605366 1.84524 0
M  V30 6271 O 661.565 -1.44704 1.29965 0
M  V30 6272 C 661.848 1.43207 3.30399 0
M  V30 6273 C 661.701 2.97265 3.3757 0
M  V30 6274 C 663.02 1.08454 4.26528 0
M  V30 6275 H 660.139 0.316578 0.665543 0
M  V30 6276 H 662.781 1.38137 1.30454 0
M  V30 6277 H 660.931 0.994982 3.75543 0
M  V30 6278 H 662.603 3.49591 3.00971 0
M  V30 6279 H 660.846 3.33237 2.77733 0
M  V30 6280 H 661.517 3.31859 4.41105 0
M  V30 6281 H 663.993 1.4619 3.89574 0
M  V30 6282 H 662.869 1.50633 5.27826 0
M  V30 6283 H 663.13 -0.00444568 4.421 0
M  V30 6284 N 662.189 -1.289 0.906776 0
M  V30 6285 C 663.414 -1.99939 0.551303 0
M  V30 6286 C 663.839 -1.67366 -0.858496 0
M  V30 6287 O 663.197 -0.902176 -1.57259 0
M  V30 6288 C 663.245 -3.52523 0.758937 0
M  V30 6289 O 662.349 -4.11983 -0.185308 0
M  V30 6290 H 661.69 -0.628376 0.214568 0
M  V30 6291 H 664.22 -1.64225 1.2203 0
M  V30 6292 H 664.23 -4.02522 0.666329 0
M  V30 6293 H 662.905 -3.75566 1.78671 0
M  V30 6294 H 661.482 -3.72873 -0.0445577 0
M  V30 6295 N 663.667 -0.670007 -1.42649 0
M  V30 6296 C 664.892 -0.196955 -2.06463 0
M  V30 6297 C 665.317 1.1352 -1.49983 0
M  V30 6298 O 664.675 1.705 -0.616397 0
M  V30 6299 C 664.723 -0.137381 -3.60338 0
M  V30 6300 O 663.827 0.895523 -4.02559 0
M  V30 6301 H 663.168 -0.102579 -0.656029 0
M  V30 6302 H 665.698 -0.917669 -1.82866 0
M  V30 6303 H 665.708 0.0403625 -4.0798 0
M  V30 6304 H 664.383 -1.10977 -4.0082 0
M  V30 6305 H 662.96 0.689209 -3.66476 0
M  V30 6306 N 665.145 1.52092 -0.413018 0
M  V30 6307 C 666.108 2.25706 0.398687 0
M  V30 6308 C 667.108 1.28221 0.970368 0
M  V30 6309 O 668.298 1.52131 0.848635 0
M  V30 6310 C 665.43 3.03029 1.5616 0
M  V30 6311 H 666.623 2.98888 -0.246131 0
M  V30 6312 H 664.176 1.5542 -0.165622 0
M  V30 6313 H 664.911 2.34205 2.24317 0
M  V30 6314 H 664.696 3.74606 1.15812 0
M  V30 6315 H 666.186 3.58857 2.13569 0
M  V30 6316 N 666.623 0.143563 1.56945 0
M  V30 6317 C 667.848 -0.518701 2.00809 0
M  V30 6318 C 668.273 -1.5785 1.02298 0
M  V30 6319 O 667.631 -1.813 -0.0017839 0
M  V30 6320 C 667.679 -1.09929 3.43436 0
M  V30 6321 O 666.783 -2.21425 3.47915 0
M  V30 6322 H 666.124 -0.127215 0.6517 0
M  V30 6323 H 668.654 0.239283 2.03196 0
M  V30 6324 H 668.664 -1.4288 3.82164 0
M  V30 6325 H 667.339 -0.323162 4.14643 0
M  V30 6326 H 665.916 -1.89728 3.21026 0
M  V30 6327 N 668.101 -1.57061 -0.130224 0
M  V30 6328 C 669.326 -1.88802 -0.858409 0
M  V30 6329 C 669.751 -0.734353 -1.73173 0
M  V30 6330 O 669.109 0.315529 -1.78533 0
M  V30 6331 C 669.157 -3.19228 -1.67708 0
M  V30 6332 O 668.261 -3.04343 -2.78297 0
M  V30 6333 H 667.602 -0.619849 -0.238083 0
M  V30 6334 H 670.132 -2.04271 -0.115995 0
M  V30 6335 H 670.142 -3.51669 -2.06864 0
M  V30 6336 H 668.817 -4.02793 -1.0359 0
M  V30 6337 H 667.394 -2.83346 -2.42425 0
M  V30 6338 N 669.579 0.400081 -1.52437 0
M  V30 6339 C 670.804 1.17221 -1.71096 0
M  V30 6340 C 671.229 1.83269 -0.423565 0
M  V30 6341 O 670.587 1.70378 0.619751 0
M  V30 6342 C 670.635 2.20425 -2.85386 0
M  V30 6343 O 669.739 3.26769 -2.51586 0
M  V30 6344 H 669.08 0.341766 -0.569291 0
M  V30 6345 H 671.61 0.467772 -1.99181 0
M  V30 6346 H 671.62 2.64605 -3.10561 0
M  V30 6347 H 670.295 1.71737 -3.78786 0
M  V30 6348 H 668.872 2.87804 -2.37114 0
M  V30 6349 N 671.057 1.43213 0.657864 0
M  V30 6350 C 672.305 1.44298 1.41501 0
M  V30 6351 C 672.626 0.0666478 1.94886 0
M  V30 6352 O 671.896 -0.897345 1.74139 0
M  V30 6353 H 670.476 0.531257 0.525143 0
M  V30 6354 H 673.138 1.78777 0.776195 0
M  V30 6355 H 672.234 2.1528 2.25966 0
M  V30 6356 N 672.536 -0.895792 1.29666 0
M  V30 6357 C 673.761 -1.68528 1.20885 0
M  V30 6358 C 674.186 -1.8673 -0.226595 0
M  V30 6359 O 673.544 -1.39044 -1.16347 0
M  V30 6360 C 673.592 -3.04512 1.93144 0
M  V30 6361 O 672.696 -3.92963 1.25115 0
M  V30 6362 H 672.037 -0.515371 0.418675 0
M  V30 6363 H 674.567 -1.11878 1.71302 0
M  V30 6364 H 674.577 -3.54628 2.0175 0
M  V30 6365 H 673.252 -2.90582 2.97548 0
M  V30 6366 H 671.829 -3.51399 1.24794 0
M  V30 6367 N 674.014 -1.12206 -1.10668 0
M  V30 6368 C 675.242 -0.898635 -1.86366 0
M  V30 6369 C 675.657 0.551991 -1.80551 0
M  V30 6370 O 675.014 1.38152 -1.19249 0
M  V30 6371 C 675.065 -1.36199 -3.34861 0
M  V30 6372 O 674.786 -2.75576 -3.40573 0
M  V30 6373 C 676.287 -1.17515 -4.2744 0
M  V30 6374 H 673.507 -0.321281 -0.589084 0
M  V30 6375 H 676.051 -1.49142 -1.39918 0
M  V30 6376 H 674.206 -0.81249 -3.78784 0
M  V30 6377 H 674.62 -2.95851 -4.33096 0
M  V30 6378 H 676.094 -1.54827 -5.29842 0
M  V30 6379 H 676.571 -0.115486 -4.39048 0
M  V30 6380 H 677.177 -1.71203 -3.89319 0
M  V30 6381 N 675.492 1.28418 -0.913599 0
M  V30 6382 C 676.422 2.29713 -0.418847 0
M  V30 6383 C 677.403 1.62165 0.513469 0
M  V30 6384 O 678.588 1.89576 0.421235 0
M  V30 6385 C 675.718 3.45612 0.342042 0
M  V30 6386 C 674.672 4.25056 -0.501123 0
M  V30 6387 C 673.998 5.3329 0.388097 0
M  V30 6388 C 675.298 4.91814 -1.75831 0
M  V30 6389 H 676.992 2.71346 -1.26538 0
M  V30 6390 H 674.538 1.30446 -0.609903 0
M  V30 6391 H 676.491 4.15562 0.699 0
M  V30 6392 H 675.215 3.02858 1.22248 0
M  V30 6393 H 673.874 3.56833 -0.840598 0
M  V30 6394 H 673.522 4.8678 1.26707 0
M  V30 6395 H 673.222 5.87347 -0.172459 0
M  V30 6396 H 674.746 6.06088 0.74094 0
M  V30 6397 H 676.16 5.54126 -1.47026 0
M  V30 6398 H 674.557 5.55866 -2.26126 0
M  V30 6399 H 675.627 4.16313 -2.4862 0
M  V30 6400 N 676.97 0.677563 1.42291 0
M  V30 6401 C 677.88 0.000962654 2.346 0
M  V30 6402 C 678.896 -0.785833 1.55244 0
M  V30 6403 O 680.072 -0.727523 1.87801 0
M  V30 6404 C 677.137 -0.936746 3.33805 0
M  V30 6405 C 676.198 -0.144173 4.29058 0
M  V30 6406 C 675.431 -1.03722 5.23524 0
M  V30 6407 O 675.654 -2.27675 5.22992 0
M  V30 6408 O 674.588 -0.496542 5.99848 0
M  V30 6409 H 678.414 0.761397 2.94001 0
M  V30 6410 H 675.999 0.43781 1.42841 0
M  V30 6411 H 677.881 -1.47497 3.94744 0
M  V30 6412 H 676.556 -1.67698 2.76874 0
M  V30 6413 H 675.463 0.438224 3.71524 0
M  V30 6414 H 676.796 0.55701 4.89038 0
M  V30 6415 N 678.448 -1.51871 0.421078 0
M  V30 6416 C 679.688 -2.03848 -0.150167 0
M  V30 6417 C 680.052 -1.29925 -1.41363 0
M  V30 6418 O 681.253 -1.7219 -2.06408 0
M  V30 6419 C 679.524 -3.55374 -0.38003 0
M  V30 6420 S 681.083 -4.29111 -0.917011 0
M  V30 6421 H 677.901 -0.709904 -0.0394639 0
M  V30 6422 H 680.503 -1.86799 0.576746 0
M  V30 6423 H 679.207 -4.0675 0.546122 0
M  V30 6424 H 678.738 -3.76687 -1.13448 0
M  V30 6425 H 680.753 -4.44944 -2.19635 0
M  V30 6426 N 679.926 -0.151884 -1.56866 0
M  V30 6427 C 681.175 0.497992 -1.95456 0
M  V30 6428 C 681.488 1.6569 -1.03953 0
M  V30 6429 O 682.694 2.37173 -1.32142 0
M  V30 6430 C 681.15 0.93732 -3.4748 0
M  V30 6431 C 680.758 -0.194921 -4.47576 0
M  V30 6432 C 682.502 1.55671 -3.94926 0
M  V30 6433 C 680.409 0.26295 -5.90815 0
M  V30 6434 H 679.339 0.189811 -0.729717 0
M  V30 6435 H 681.99 -0.237011 -1.81963 0
M  V30 6436 H 680.372 1.72773 -3.56322 0
M  V30 6437 H 681.546 -0.971951 -4.50433 0
M  V30 6438 H 679.861 -0.72303 -4.10075 0
M  V30 6439 H 682.458 1.91099 -4.99385 0
M  V30 6440 H 682.801 2.44748 -3.36755 0
M  V30 6441 H 683.334 0.831109 -3.89021 0
M  V30 6442 H 680.073 -0.592568 -6.52816 0
M  V30 6443 H 679.593 1.00575 -5.91308 0
M  V30 6444 H 681.272 0.713333 -6.43056 0
M  V30 6445 N 681.404 1.57128 0.121893 0
M  V30 6446 C 682.334 2.03165 1.15092 0
M  V30 6447 C 683.315 0.915587 1.43356 0
M  V30 6448 O 684.5 1.1851 1.53847 0
M  V30 6449 C 681.63 2.43352 2.47784 0
M  V30 6450 C 680.584 3.58376 2.33989 0
M  V30 6451 C 679.91 3.84454 3.71617 0
M  V30 6452 C 681.21 4.90199 1.80283 0
M  V30 6453 H 682.904 2.89382 0.768023 0
M  V30 6454 H 680.45 1.39218 0.367998 0
M  V30 6455 H 682.403 2.74163 3.20019 0
M  V30 6456 H 681.127 1.54103 2.87958 0
M  V30 6457 H 679.786 3.2777 1.64202 0
M  V30 6458 H 679.434 2.92414 4.09271 0
M  V30 6459 H 679.134 4.61877 3.6324 0
M  V30 6460 H 680.658 4.17714 4.45362 0
M  V30 6461 H 682.072 5.19565 2.42333 0
M  V30 6462 H 680.469 5.71601 1.82735 0
M  V30 6463 H 681.539 4.78904 0.760184 0
M  V30 6464 N 682.882 -0.391992 1.52647 0
M  V30 6465 C 684.112 -1.15692 1.71169 0
M  V30 6466 C 684.52 -1.84285 0.428444 0
M  V30 6467 O 683.863 -1.73393 -0.606669 0
M  V30 6468 C 683.925 -2.25033 2.80357 0
M  V30 6469 C 683.589 -1.76433 4.21569 0
M  V30 6470 C 684.586 -1.2427 5.0483 0
M  V30 6471 C 682.271 -1.82746 4.67877 0
M  V30 6472 C 684.265 -0.790657 6.32477 0
M  V30 6473 C 681.952 -1.37153 5.9551 0
M  V30 6474 C 682.95 -0.853997 6.7764 0
M  V30 6475 O 682.638 -0.404708 8.02881 0
M  V30 6476 H 682.37 -0.35297 0.576531 0
M  V30 6477 H 684.924 -0.464994 2.00067 0
M  V30 6478 H 683.154 -2.97641 2.46874 0
M  V30 6479 H 684.843 -2.86718 2.87311 0
M  V30 6480 H 685.609 -1.18752 4.70237 0
M  V30 6481 H 681.488 -2.21971 4.04042 0
M  V30 6482 H 685.032 -0.386024 6.96531 0
M  V30 6483 H 680.929 -1.42356 6.29607 0
M  V30 6484 H 681.697 -0.526459 8.16805 0
M  V30 6485 N 684.36 -1.4356 -0.65026 0
M  V30 6486 C 685.307 -1.48948 -1.76304 0
M  V30 6487 C 686.277 -0.338919 -1.62605 0
M  V30 6488 O 687.462 -0.54649 -1.82806 0
M  V30 6489 C 684.602 -1.42131 -3.14472 0
M  V30 6490 C 683.715 -2.67415 -3.39284 0
M  V30 6491 C 682.85 -2.52565 -4.67316 0
M  V30 6492 C 681.889 -3.73103 -4.85243 0
M  V30 6493 N 681.026 -3.57046 -6.04535 0
M  V30 6494 H 685.866 -2.44032 -1.71034 0
M  V30 6495 H 683.403 -1.21131 -0.834601 0
M  V30 6496 H 685.361 -1.36172 -3.94351 0
M  V30 6497 H 683.991 -0.506273 -3.18805 0
M  V30 6498 H 683.043 -2.8364 -2.53481 0
M  V30 6499 H 684.355 -3.56943 -3.48415 0
M  V30 6500 H 683.509 -2.44331 -5.55326 0
M  V30 6501 H 682.248 -1.60566 -4.60511 0
M  V30 6502 H 681.253 -3.81743 -3.95667 0
M  V30 6503 H 682.478 -4.66115 -4.93876 0
M  V30 6504 H 680.424 -2.67783 -5.98856 0
M  V30 6505 H 680.341 -4.40178 -6.14638 0
M  V30 6506 H 681.609 -3.52669 -6.95158 0
M  V30 6507 N 685.838 0.888903 -1.30139 0
M  V30 6508 C 686.801 1.97576 -1.16174 0
M  V30 6509 C 687.801 1.60525 -0.094086 0
M  V30 6510 O 688.991 1.70812 -0.341889 0
M  V30 6511 C 686.123 3.3188 -0.778983 0
M  V30 6512 H 687.316 2.11393 -2.12728 0
M  V30 6513 H 684.869 1.0748 -1.1348 0
M  V30 6514 H 685.604 3.23765 0.186225 0
M  V30 6515 H 685.389 3.60141 -1.55051 0
M  V30 6516 H 686.879 4.11612 -0.704631 0
M  V30 6517 N 687.317 1.12792 1.10072 0
M  V30 6518 C 688.227 0.812369 2.20086 0
M  V30 6519 C 689.243 -0.200349 1.72843 0
M  V30 6520 O 690.419 -0.0330262 2.01373 0
M  V30 6521 C 687.484 0.275685 3.45602 0
M  V30 6522 C 686.545 1.34881 4.07561 0
M  V30 6523 C 685.778 0.837639 5.27086 0
M  V30 6524 O 686.001 -0.327224 5.69461 0
M  V30 6525 O 684.935 1.60894 5.79997 0
M  V30 6526 H 688.761 1.73133 2.49517 0
M  V30 6527 H 686.346 0.904863 1.18881 0
M  V30 6528 H 688.228 -0.0185375 4.21396 0
M  V30 6529 H 686.903 -0.615783 3.17789 0
M  V30 6530 H 685.81 1.69625 3.33434 0
M  V30 6531 H 687.143 2.21418 4.39585 0
M  V30 6532 N 688.795 -1.27931 0.920396 0
M  V30 6533 C 690.043 -1.94304 0.555906 0
M  V30 6534 C 690.364 -1.72753 -0.904519 0
M  V30 6535 O 689.634 -1.07104 -1.64029 0
M  V30 6536 H 688.214 -0.719001 0.202599 0
M  V30 6537 H 690.876 -1.55785 1.1712 0
M  V30 6538 H 689.972 -3.02806 0.755981 0
M  V30 6539 N 690.273 -0.685099 -1.4193 0
M  V30 6540 C 691.236 -0.0222632 -2.29189 0
M  V30 6541 C 692.236 0.7186 -1.4385 0
M  V30 6542 O 693.426 0.555058 -1.6512 0
M  V30 6543 C 690.558 0.979013 -3.2654 0
M  V30 6544 H 691.751 -0.790424 -2.89296 0
M  V30 6545 H 689.304 -0.448012 -1.49742 0
M  V30 6546 H 690.039 1.77531 -2.71392 0
M  V30 6547 H 689.824 0.451037 -3.89497 0
M  V30 6548 H 691.314 1.44091 -3.91954 0
M  V30 6549 N 691.751 1.51645 -0.429126 0
M  V30 6550 C 693.162 1.86665 0.0359003 0
M  V30 6551 C 693.513 1.34677 1.42676 0
M  V30 6552 O 692.638 0.694195 2.04963 0
M  V30 6553 C 693.233 3.38724 0.0719221 0
M  V30 6554 C 691.792 3.7331 0.481336 0
M  V30 6555 C 690.939 2.75313 -0.331329 0
M  V30 6556 H 693.89 1.44987 -0.645333 0
M  V30 6557 H 693.911 3.7011 0.883118 0
M  V30 6558 H 693.423 3.76532 -0.940495 0
M  V30 6559 H 691.524 3.41088 1.49966 0
M  V30 6560 H 691.637 4.78631 0.211837 0
M  V30 6561 H 690.001 2.53839 0.209204 0
M  V30 6562 H 690.784 3.15963 -1.34247 0
M  V30 6563 N 693.229 0.160201 1.56784 0
M  V30 6564 C 694.64 -0.358417 1.83227 0
M  V30 6565 C 694.991 -1.63831 1.07952 0
M  V30 6566 O 694.116 -2.13885 0.328995 0
M  V30 6567 C 694.711 -0.657058 3.32368 0
M  V30 6568 C 693.27 -1.12015 3.59346 0
M  V30 6569 C 692.417 -0.15015 2.76893 0
M  V30 6570 H 695.368 0.384669 1.53967 0
M  V30 6571 H 695.389 -1.51033 3.49241 0
M  V30 6572 H 694.901 0.274647 3.87127 0
M  V30 6573 H 693.002 -2.06734 3.09987 0
M  V30 6574 H 693.115 -1.037 4.67743 0
M  V30 6575 H 691.479 -0.645361 2.46388 0
M  V30 6576 H 692.262 0.775379 3.34429 0
M  V30 6577 N 694.707 -1.5719 -0.113559 0
M  V30 6578 C 695.639 -1.97393 -1.16484 0
M  V30 6579 C 696.652 -0.873964 -1.37352 0
M  V30 6580 O 697.841 -1.15222 -1.36331 0
M  V30 6581 C 694.941 -2.26174 -2.52386 0
M  V30 6582 C 694.114 -3.57479 -2.52046 0
M  V30 6583 C 693.173 -3.74409 -3.69735 0
M  V30 6584 O 692.199 -4.46463 -3.53071 0
M  V30 6585 N 693.401 -3.13588 -4.88511 0
M  V30 6586 H 696.166 -2.88184 -0.822814 0
M  V30 6587 H 693.727 -1.59044 -0.302769 0
M  V30 6588 H 695.719 -2.3471 -3.29687 0
M  V30 6589 H 694.289 -1.41483 -2.7875 0
M  V30 6590 H 693.509 -3.60081 -1.60421 0
M  V30 6591 H 694.797 -4.43775 -2.48881 0
M  V30 6592 H 694.195 -2.55026 -5.04953 0
M  V30 6593 H 692.752 -3.27637 -5.63469 0
M  V30 6594 N 696.185 0.383891 -1.52853 0
M  V30 6595 C 697.117 1.48889 -1.74255 0
M  V30 6596 C 698.13 1.50405 -0.623063 0
M  V30 6597 O 699.319 1.54215 -0.898887 0
M  V30 6598 C 696.419 2.87721 -1.79081 0
M  V30 6599 C 695.592 3.10111 -3.08464 0
M  V30 6600 C 694.651 4.28954 -3.0477 0
M  V30 6601 O 693.677 4.25012 -3.78621 0
M  V30 6602 N 694.879 5.35411 -2.24311 0
M  V30 6603 H 697.644 1.30915 -2.69595 0
M  V30 6604 H 695.205 0.573454 -1.51404 0
M  V30 6605 H 697.197 3.65333 -1.7411 0
M  V30 6606 H 695.767 2.99029 -0.911052 0
M  V30 6607 H 694.987 2.20319 -3.26884 0
M  V30 6608 H 696.275 3.21928 -3.94005 0
M  V30 6609 H 695.673 5.41471 -1.63787 0
M  V30 6610 H 694.23 6.1167 -2.25175 0
M  V30 6611 N 697.663 1.43903 0.642637 0
M  V30 6612 C 698.911 1.45791 1.39962 0
M  V30 6613 C 699.232 0.0873144 1.94804 0
M  V30 6614 O 698.502 -0.878825 1.75081 0
M  V30 6615 H 697.082 0.536797 0.519479 0
M  V30 6616 H 699.744 1.7959 0.757189 0
M  V30 6617 H 698.84 2.17665 2.2367 0
M  V30 6618 N 699.141 -0.881989 1.30609 0
M  V30 6619 C 700.552 -1.44956 1.17664 0
M  V30 6620 C 700.903 -1.94945 -0.221531 0
M  V30 6621 O 700.028 -1.85257 -1.11844 0
M  V30 6622 C 700.623 -2.63474 2.12995 0
M  V30 6623 C 699.182 -3.16312 2.04019 0
M  V30 6624 C 698.329 -1.89008 2.02907 0
M  V30 6625 H 701.28 -0.691645 1.42835 0
M  V30 6626 H 701.301 -3.39783 1.71253 0
M  V30 6627 H 700.813 -2.2706 3.14746 0
M  V30 6628 H 698.914 -3.57376 1.0542 0
M  V30 6629 H 699.027 -3.79409 2.9255 0
M  V30 6630 H 697.391 -2.07465 1.47751 0
M  V30 6631 H 698.174 -1.54848 3.06394 0
M  V30 6632 N 700.619 -1.13374 -1.09472 0
M  V30 6633 C 701.866 -0.89519 -1.81639 0
M  V30 6634 C 702.194 0.57868 -1.85692 0
M  V30 6635 O 701.449 1.44426 -1.32059 0
M  V30 6636 C 701.748 -1.42759 -3.2765 0
M  V30 6637 C 701.414 -2.91822 -3.43731 0
M  V30 6638 C 700.076 -3.32521 -3.47827 0
M  V30 6639 C 702.428 -3.87727 -3.48307 0
M  V30 6640 C 699.756 -4.6781 -3.54078 0
M  V30 6641 C 702.108 -5.22859 -3.56091 0
M  V30 6642 C 700.772 -5.63086 -3.58456 0
M  V30 6643 H 700.042 -0.327573 -0.664663 0
M  V30 6644 H 702.689 -1.4156 -1.28969 0
M  V30 6645 H 700.994 -0.827871 -3.82954 0
M  V30 6646 H 702.691 -1.2191 -3.8202 0
M  V30 6647 H 699.281 -2.5935 -3.41226 0
M  V30 6648 H 703.465 -3.57371 -3.44383 0
M  V30 6649 H 698.721 -4.98353 -3.54195 0
M  V30 6650 H 702.895 -5.96989 -3.58577 0
M  V30 6651 H 700.522 -6.67905 -3.63052 0
M  V30 6652 N 702.098 1.27442 -0.927168 0
M  V30 6653 C 703.061 2.2512 -0.430525 0
M  V30 6654 C 704.061 1.54357 0.450619 0
M  V30 6655 O 705.251 1.72371 0.251774 0
M  V30 6656 C 702.383 3.38763 0.381144 0
M  V30 6657 H 703.576 2.70569 -1.29354 0
M  V30 6658 H 701.129 1.39355 -0.707806 0
M  V30 6659 H 701.864 2.98695 1.263 0
M  V30 6660 H 701.649 3.91298 -0.250618 0
M  V30 6661 H 703.139 4.11364 0.719012 0
M  V30 6662 N 703.576 0.692616 1.41565 0
M  V30 6663 C 704.987 0.297478 1.84315 0
M  V30 6664 C 705.338 -1.16379 1.57957 0
M  V30 6665 O 704.463 -1.89303 1.0485 0
M  V30 6666 C 705.058 0.533136 3.34579 0
M  V30 6667 C 703.617 0.191944 3.7591 0
M  V30 6668 C 702.764 0.816873 2.64995 0
M  V30 6669 H 705.715 0.893488 1.31158 0
M  V30 6670 H 705.736 -0.209105 3.79925 0
M  V30 6671 H 705.248 1.59674 3.53731 0
M  V30 6672 H 703.349 -0.867512 3.6236 0
M  V30 6673 H 703.462 0.644902 4.7474 0
M  V30 6674 H 701.826 0.246715 2.53502 0
M  V30 6675 H 702.609 1.88429 2.86966 0
M  V30 6676 N 705.054 -1.51416 0.437162 0
M  V30 6677 C 706.465 -1.86682 -0.0260005 0
M  V30 6678 C 706.816 -1.35432 -1.4196 0
M  V30 6679 O 705.941 -0.705055 -2.04592 0
M  V30 6680 C 706.536 -3.38757 -0.0539577 0
M  V30 6681 C 705.095 -3.7356 -0.461532 0
M  V30 6682 C 704.242 -2.75134 0.345924 0
M  V30 6683 H 707.193 -1.44642 0.653013 0
M  V30 6684 H 707.214 -3.70573 -0.863478 0
M  V30 6685 H 706.726 -3.76028 0.96045 0
M  V30 6686 H 704.827 -3.41878 -1.48155 0
M  V30 6687 H 704.94 -4.78737 -0.186451 0
M  V30 6688 H 703.304 -2.53947 -0.195739 0
M  V30 6689 H 704.087 -3.15247 1.35921 0
M  V30 6690 N 706.532 -0.168513 -1.56696 0
M  V30 6691 C 707.943 0.348694 -1.83415 0
M  V30 6692 C 708.294 1.63257 -1.0882 0
M  V30 6693 O 707.419 2.13707 -0.340333 0
M  V30 6694 C 708.014 0.639423 -3.32711 0
M  V30 6695 C 706.573 1.10108 -3.59935 0
M  V30 6696 C 705.72 0.135464 -2.76969 0
M  V30 6697 H 708.671 -0.392829 -1.53761 0
M  V30 6698 H 708.692 1.49179 -3.50037 0
M  V30 6699 H 708.204 -0.295173 -3.86976 0
M  V30 6700 H 706.305 2.05088 -3.11079 0
M  V30 6701 H 706.418 1.01218 -4.68286 0
M  V30 6702 H 704.782 0.632286 -2.46727 0
M  V30 6703 H 705.565 -0.793104 -3.34013 0
M  V30 6704 N 708.01 1.57248 0.105221 0
M  V30 6705 C 709.25 1.87393 0.816283 0
M  V30 6706 C 709.614 0.758249 1.76393 0
M  V30 6707 O 710.815 0.941835 2.5176 0
M  V30 6708 C 709.086 3.22775 1.53463 0
M  V30 6709 S 710.645 3.74588 2.28537 0
M  V30 6710 H 707.463 0.656847 0.272164 0
M  V30 6711 H 710.065 1.9536 0.073909 0
M  V30 6712 H 708.769 4.01905 0.830674 0
M  V30 6713 H 708.3 3.17921 2.3171 0
M  V30 6714 H 710.315 3.47193 3.54502 0
M  V30 6715 N 709.488 -0.375779 1.53054 0
M  V30 6716 C 710.435 -1.45978 1.78771 0
M  V30 6717 C 711.405 -1.53625 0.631552 0
M  V30 6718 O 712.59 -1.69674 0.872667 0
M  V30 6719 C 709.73 -2.8305 1.97425 0
M  V30 6720 C 708.843 -2.84451 3.25134 0
M  V30 6721 C 707.978 -4.13034 3.34031 0
M  V30 6722 C 707.017 -4.08536 4.55812 0
M  V30 6723 N 706.154 -5.2875 4.61918 0
M  V30 6724 H 710.994 -1.23349 2.71273 0
M  V30 6725 H 708.531 -0.598147 1.3439 0
M  V30 6726 H 710.489 -3.62666 2.06225 0
M  V30 6727 H 709.119 -3.04101 1.0827 0
M  V30 6728 H 708.171 -1.97127 3.25338 0
M  V30 6729 H 709.483 -2.76998 4.14818 0
M  V30 6730 H 708.637 -5.0106 3.42087 0
M  V30 6731 H 707.376 -4.23226 2.42345 0
M  V30 6732 H 706.381 -3.18897 4.47867 0
M  V30 6733 H 707.606 -3.99955 5.48828 0
M  V30 6734 H 705.552 -5.39547 3.73129 0
M  V30 6735 H 705.469 -5.23426 5.45492 0
M  V30 6736 H 706.737 -6.18637 4.74245 0
M  V30 6737 N 710.966 -1.44241 -0.634997 0
M  V30 6738 C 711.929 -1.50457 -1.72903 0
M  V30 6739 C 712.929 -0.387058 -1.56072 0
M  V30 6740 O 714.119 -0.649531 -1.61638 0
M  V30 6741 C 711.251 -1.37477 -3.1195 0
M  V30 6742 H 712.444 -2.47907 -1.68767 0
M  V30 6743 H 709.997 -1.31276 -0.84831 0
M  V30 6744 H 710.732 -0.41106 -3.21684 0
M  V30 6745 H 710.517 -2.18506 -3.25573 0
M  V30 6746 H 712.007 -1.44799 -3.91692 0
M  V30 6747 N 712.444 0.87505 -1.31075 0
M  V30 6748 C 713.855 1.4433 -1.18431 0
M  V30 6749 C 714.206 1.9506 0.211189 0
M  V30 6750 O 713.331 1.85847 1.10859 0
M  V30 6751 C 713.926 2.62341 -2.14389 0
M  V30 6752 C 712.485 3.15225 -2.05694 0
M  V30 6753 C 711.632 1.87929 -2.03907 0
M  V30 6754 H 714.583 0.684061 -1.432 0
M  V30 6755 H 714.604 3.3887 -1.73053 0
M  V30 6756 H 714.116 2.25388 -3.15946 0
M  V30 6757 H 712.217 3.56812 -1.07314 0
M  V30 6758 H 712.33 3.77853 -2.94558 0
M  V30 6759 H 710.694 2.06679 -1.48849 0
M  V30 6760 H 711.477 1.53221 -3.07211 0
M  V30 6761 N 713.922 1.13953 1.08869 0
M  V30 6762 C 715.17 0.903023 1.80803 0
M  V30 6763 C 715.491 -0.572151 1.86417 0
M  V30 6764 O 714.761 -1.41589 1.35386 0
M  V30 6765 H 713.341 0.331099 0.669614 0
M  V30 6766 H 716.003 1.43719 1.31647 0
M  V30 6767 H 715.099 1.29881 2.83791 0
M  V30 6768 N 715.4 -1.26948 0.933913 0
M  V30 6769 C 716.363 -2.24889 0.442457 0
M  V30 6770 C 717.363 -1.54594 -0.442426 0
M  V30 6771 O 718.553 -1.72502 -0.242629 0
M  V30 6772 C 715.685 -3.3896 -0.363173 0
M  V30 6773 H 716.878 -2.69879 1.30787 0
M  V30 6774 H 714.431 -1.38978 0.715187 0
M  V30 6775 H 715.166 -2.99361 -1.24714 0
M  V30 6776 H 714.951 -3.9116 0.271366 0
M  V30 6777 H 716.441 -4.11739 -0.697186 0
M  V30 6778 N 716.879 -0.700114 -1.41195 0
M  V30 6779 C 718.104 -0.240704 -2.05998 0
M  V30 6780 C 718.529 1.10313 -1.52357 0
M  V30 6781 O 717.887 1.69154 -0.652424 0
M  V30 6782 C 717.935 -0.213783 -3.59966 0
M  V30 6783 O 717.039 0.809933 -4.04368 0
M  V30 6784 H 716.38 -0.116471 -0.653705 0
M  V30 6785 H 718.91 -0.956251 -1.80878 0
M  V30 6786 H 718.92 -0.0461852 -4.07974 0
M  V30 6787 H 717.595 -1.19454 -3.98376 0
M  V30 6788 H 716.172 0.611319 -3.67855 0
M  V30 6789 N 718.357 1.51182 -0.445186 0
M  V30 6790 C 719.605 2.01753 0.11841 0
M  V30 6791 C 719.926 1.33087 1.42523 0
M  V30 6792 O 719.196 0.467891 1.9023 0
M  V30 6793 H 717.776 0.745536 0.0467492 0
M  V30 6794 H 720.438 1.85765 -0.589688 0
M  V30 6795 H 719.534 3.10762 0.288665 0
M  V30 6796 N 719.835 0.176821 1.56605 0
M  V30 6797 C 721.075 -0.469104 1.98944 0
M  V30 6798 C 721.439 -1.60048 1.06059 0
M  V30 6799 O 722.64 -2.30934 1.3756 0
M  V30 6800 C 720.911 -0.934571 3.44965 0
M  V30 6801 S 722.47 -1.58091 4.09332 0
M  V30 6802 H 719.288 -0.150695 0.694847 0
M  V30 6803 H 721.89 0.27558 1.93548 0
M  V30 6804 H 720.594 -0.100814 4.10276 0
M  V30 6805 H 720.125 -1.71316 3.54139 0
M  V30 6806 H 722.14 -2.86922 4.04834 0
M  V30 6807 N 721.313 -1.57302 -0.09688 0
M  V30 6808 C 722.243 -2.0497 -1.11846 0
M  V30 6809 C 723.224 -0.938278 -1.41882 0
M  V30 6810 O 724.409 -1.20943 -1.51942 0
M  V30 6811 C 721.539 -2.47264 -2.43881 0
M  V30 6812 C 720.493 -3.62053 -2.28257 0
M  V30 6813 C 719.819 -3.90318 -3.65453 0
M  V30 6814 C 721.119 -4.93005 -1.72461 0
M  V30 6815 H 722.813 -2.90567 -0.721888 0
M  V30 6816 H 720.359 -1.39786 -0.345803 0
M  V30 6817 H 722.312 -2.7922 -3.15617 0
M  V30 6818 H 721.036 -1.58664 -2.8547 0
M  V30 6819 H 719.695 -3.30341 -1.58967 0
M  V30 6820 H 719.343 -2.98889 -4.04567 0
M  V30 6821 H 719.043 -4.67597 -3.55846 0
M  V30 6822 H 720.567 -4.24747 -4.3866 0
M  V30 6823 H 721.981 -5.23354 -2.34036 0
M  V30 6824 H 720.378 -5.74436 -1.73618 0
M  V30 6825 H 721.448 -4.80053 -0.683898 0
M  V30 6826 N 722.791 0.367657 -1.53252 0
M  V30 6827 C 723.721 1.45632 -1.8252 0
M  V30 6828 C 724.702 1.55979 -0.678568 0
M  V30 6829 O 725.887 1.70581 -0.928217 0
M  V30 6830 C 723.017 2.82994 -2.01325 0
M  V30 6831 C 721.971 2.87473 -3.17086 0
M  V30 6832 C 721.297 4.2749 -3.21179 0
M  V30 6833 C 722.597 2.55182 -4.55719 0
M  V30 6834 H 724.291 1.21387 -2.73689 0
M  V30 6835 H 721.837 0.58251 -1.31692 0
M  V30 6836 H 723.79 3.59179 -2.20383 0
M  V30 6837 H 722.514 3.08622 -1.06864 0
M  V30 6838 H 721.173 2.13739 -2.97844 0
M  V30 6839 H 720.821 4.5019 -2.24361 0
M  V30 6840 H 720.521 4.31403 -3.98955 0
M  V30 6841 H 722.045 5.0555 -3.42419 0
M  V30 6842 H 723.459 3.21081 -4.74953 0
M  V30 6843 H 721.856 2.70414 -5.3572 0
M  V30 6844 H 722.926 1.5044 -4.60973 0
M  V30 6845 N 724.269 1.44576 0.627338 0
M  V30 6846 C 725.68 1.42266 1.20902 0
M  V30 6847 C 726.031 0.139964 1.957 0
M  V30 6848 O 725.156 -0.759489 2.02634 0
M  V30 6849 C 725.751 2.57727 2.19914 0
M  V30 6850 C 724.31 2.58599 2.73502 0
M  V30 6851 C 723.457 2.34145 1.48564 0
M  V30 6852 H 726.408 1.53102 0.417791 0
M  V30 6853 H 726.429 2.30697 3.02588 0
M  V30 6854 H 725.941 3.51068 1.65447 0
M  V30 6855 H 724.042 1.6921 3.31962 0
M  V30 6856 H 724.155 3.57205 3.19282 0
M  V30 6857 H 722.519 1.83313 1.76829 0
M  V30 6858 H 723.302 3.29606 0.959935 0
M  V30 6859 N 725.747 -0.868086 1.31537 0
M  V30 6860 C 727.163 -1.15414 1.10235 0
M  V30 6861 C 727.363 -2.01106 -0.125947 0
M  V30 6862 O 726.419 -2.38994 -0.814734 0
M  V30 6863 C 727.732 -1.84445 2.37488 0
M  V30 6864 C 729.28 -1.97139 2.43116 0
M  V30 6865 C 729.755 -2.69585 3.70254 0
M  V30 6866 N 731.246 -2.77119 3.71159 0
M  V30 6867 C 731.981 -3.33791 4.6623 0
M  V30 6868 N 731.477 -3.9138 5.71659 0
M  V30 6869 N 733.27 -3.31767 4.53747 0
M  V30 6870 H 725.421 -0.297109 2.10312 0
M  V30 6871 H 727.684 -0.194227 0.92789 0
M  V30 6872 H 727.39 -1.2893 3.27215 0
M  V30 6873 H 727.264 -2.84709 2.47428 0
M  V30 6874 H 729.651 -2.51818 1.53856 0
M  V30 6875 H 729.732 -0.95912 2.37138 0
M  V30 6876 H 729.376 -2.15572 4.59881 0
M  V30 6877 H 729.306 -3.71223 3.73499 0
M  V30 6878 H 731.797 -2.3625 2.94948 0
M  V30 6879 H 732.11 -4.3274 6.40278 0
M  V30 6880 H 730.455 -3.8975 5.7543 0
M  V30 6881 H 733.646 -2.86016 3.70557 0
M  V30 6882 H 733.819 -3.75636 5.28017 0
M  V30 6883 N 727.225 -1.14528 -1.08264 0
M  V30 6884 C 728.502 -0.825185 -1.77342 0
M  V30 6885 C 728.882 0.681037 -1.99813 0
M  V30 6886 O 728.23 1.62234 -1.60912 0
M  V30 6887 C 728.44 -1.62556 -3.08831 0
M  V30 6888 C 729.788 -1.82585 -3.83338 0
M  V30 6889 O 730.812 -1.59254 -3.18617 0
M  V30 6890 O 729.671 -2.21598 -4.99556 0
M  V30 6891 H 726.765 -0.302531 -0.769678 0
M  V30 6892 H 729.311 -1.25056 -1.14713 0
M  V30 6893 H 728.083 -2.64862 -2.88035 0
M  V30 6894 H 727.706 -1.1959 -3.79189 0
M  V30 6895 N 728.703 1.26451 -0.940633 0
M  V30 6896 C 729.951 1.93395 -0.586748 0
M  V30 6897 C 730.272 1.7417 0.876921 0
M  V30 6898 O 729.542 1.097 1.62304 0
M  V30 6899 H 728.122 0.715687 -0.214012 0
M  V30 6900 H 730.784 1.53902 -1.19584 0
M  V30 6901 H 729.88 3.01565 -0.804059 0
M  V30 6902 N 730.181 0.707592 1.40822 0
M  V30 6903 C 731.111 0.0644925 2.33411 0
M  V30 6904 C 732.092 -0.754205 1.52466 0
M  V30 6905 O 733.277 -0.704749 1.80961 0
M  V30 6906 C 730.407 -0.863865 3.36385 0
M  V30 6907 C 729.361 -0.15138 4.27732 0
M  V30 6908 C 728.687 -1.19491 5.21177 0
M  V30 6909 C 729.987 0.989607 5.12839 0
M  V30 6910 H 731.681 0.837829 2.87438 0
M  V30 6911 H 729.227 0.404346 1.38207 0
M  V30 6912 H 731.18 -1.32309 4.0009 0
M  V30 6913 H 729.904 -1.66901 2.80734 0
M  V30 6914 H 728.563 0.287937 3.65467 0
M  V30 6915 H 728.211 -1.9929 4.61836 0
M  V30 6916 H 727.911 -0.723123 5.83134 0
M  V30 6917 H 729.435 -1.6544 5.8776 0
M  V30 6918 H 730.849 0.610114 5.70044 0
M  V30 6919 H 729.246 1.38926 5.83798 0
M  V30 6920 H 730.316 1.82389 4.49291 0
M  V30 6921 N 731.66 -1.50943 0.453197 0
M  V30 6922 C 733.071 -1.86699 -0.00619892 0
M  V30 6923 C 733.422 -1.3693 -1.40515 0
M  V30 6924 O 732.547 -0.726715 -2.03833 0
M  V30 6925 C 733.142 -3.38795 -0.018025 0
M  V30 6926 C 731.701 -3.74028 -0.421885 0
M  V30 6927 C 730.848 -2.74752 0.375087 0
M  V30 6928 H 733.799 -1.43942 0.668317 0
M  V30 6929 H 733.82 -3.71468 -0.824125 0
M  V30 6930 H 733.332 -3.74988 1.00028 0
M  V30 6931 H 731.433 -3.43431 -1.44521 0
M  V30 6932 H 731.546 -4.78908 -0.135664 0
M  V30 6933 H 729.91 -2.5414 -0.168794 0
M  V30 6934 H 730.693 -3.13787 1.39256 0
M  V30 6935 N 733.138 -0.185124 -1.56509 0
M  V30 6936 C 734.363 0.465278 -2.02114 0
M  V30 6937 C 734.788 1.55083 -1.06447 0
M  V30 6938 O 734.146 1.81241 -0.0462852 0
M  V30 6939 C 734.194 1.00784 -3.46229 0
M  V30 6940 O 733.298 2.12123 -3.53663 0
M  V30 6941 H 732.639 0.109891 -0.654843 0
M  V30 6942 H 735.169 -0.293072 -2.0249 0
M  V30 6943 H 735.179 1.32697 -3.85818 0
M  V30 6944 H 733.854 0.213113 -4.15354 0
M  V30 6945 H 732.431 1.8115 -3.25943 0
M  V30 6946 N 734.616 1.57351 0.0885366 0
M  V30 6947 C 735.844 1.90631 0.804196 0
M  V30 6948 C 736.259 0.779474 1.71958 0
M  V30 6949 O 735.616 -0.248179 1.80805 0
M  V30 6950 C 735.667 3.23568 1.61202 0
M  V30 6951 O 735.388 4.31917 0.733447 0
M  V30 6952 C 736.889 3.70753 2.43016 0
M  V30 6953 H 734.109 0.630501 0.229585 0
M  V30 6954 H 736.653 2.044 0.0638092 0
M  V30 6955 H 734.808 3.11377 2.30485 0
M  V30 6956 H 735.222 5.08297 1.29361 0
M  V30 6957 H 736.696 4.66447 2.9518 0
M  V30 6958 H 737.173 2.98922 3.2178 0
M  V30 6959 H 737.779 3.85834 1.7892 0
M  V30 6960 N 736.094 -0.359525 1.53444 0
M  V30 6961 C 737.319 -1.12644 1.74144 0
M  V30 6962 C 737.744 -1.82082 0.472007 0
M  V30 6963 O 737.102 -1.71962 -0.57436 0
M  V30 6964 C 737.15 -2.12781 2.9113 0
M  V30 6965 O 736.254 -3.19984 2.60162 0
M  V30 6966 H 735.595 -0.326553 0.578152 0
M  V30 6967 H 738.125 -0.414798 2.00351 0
M  V30 6968 H 738.135 -2.56278 3.17467 0
M  V30 6969 H 736.81 -1.61634 3.83207 0
M  V30 6970 H 735.387 -2.81417 2.44661 0
M  V30 6971 N 737.572 -1.44907 -0.619662 0
M  V30 6972 C 738.535 -1.52282 -1.71297 0
M  V30 6973 C 739.535 -0.40359 -1.55653 0
M  V30 6974 O 740.725 -0.666638 -1.6094 0
M  V30 6975 C 737.857 -1.40778 -3.10474 0
M  V30 6976 H 739.05 -2.49683 -1.66128 0
M  V30 6977 H 736.603 -1.32168 -0.834339 0
M  V30 6978 H 737.338 -0.445156 -3.2123 0
M  V30 6979 H 737.123 -2.21947 -3.23237 0
M  V30 6980 H 738.613 -1.48946 -3.90135 0
M  V30 6981 N 739.05 0.861098 -1.31996 0
M  V30 6982 C 740.275 1.65264 -1.2531 0
M  V30 6983 C 740.7 1.87265 0.177007 0
M  V30 6984 O 740.058 1.4208 1.12619 0
M  V30 6985 C 740.106 2.99284 -2.0115 0
M  V30 6986 O 739.21 3.89508 -1.3549 0
M  V30 6987 H 738.551 0.50409 -0.432192 0
M  V30 6988 H 741.081 1.07297 -1.74208 0
M  V30 6989 H 741.091 3.49154 -2.11081 0
M  V30 6990 H 739.766 2.82591 -3.05148 0
M  V30 6991 H 738.343 3.47966 -1.34066 0
M  V30 6992 N 740.528 1.15101 1.07655 0
M  V30 6993 C 741.491 0.847625 2.12951 0
M  V30 6994 C 742.491 -0.151227 1.60087 0
M  V30 6995 O 743.681 0.0780399 1.74025 0
M  V30 6996 C 740.813 0.265 3.39868 0
M  V30 6997 H 742.006 1.7809 2.41296 0
M  V30 6998 H 739.559 0.958072 1.23494 0
M  V30 6999 H 740.294 -0.676625 3.17163 0
M  V30 7000 H 740.079 0.984554 3.79538 0
M  V30 7001 H 741.569 0.0702121 4.17541 0
M  V30 7002 N 742.006 -1.2595 0.947325 0
M  V30 7003 C 742.969 -2.24407 0.466285 0
M  V30 7004 C 743.969 -1.55054 -0.426005 0
M  V30 7005 O 745.159 -1.7275 -0.224319 0
M  V30 7006 C 742.291 -3.39326 -0.327201 0
M  V30 7007 H 743.484 -2.68477 1.33642 0
M  V30 7008 H 741.037 -1.38211 0.729887 0
M  V30 7009 H 741.772 -3.00667 -1.21532 0
M  V30 7010 H 741.557 -3.9085 0.312839 0
M  V30 7011 H 743.047 -4.12455 -0.653477 0
M  V30 7012 N 743.484 -0.715051 -1.40445 0
M  V30 7013 C 744.447 -0.0708726 -2.2909 0
M  V30 7014 C 745.447 0.687926 -1.45342 0
M  V30 7015 O 746.637 0.519908 -1.66261 0
M  V30 7016 C 743.769 0.909528 -3.28543 0
M  V30 7017 H 744.962 -0.851611 -2.87555 0
M  V30 7018 H 742.515 -0.479674 -1.48758 0
M  V30 7019 H 743.25 1.71734 -2.75096 0
M  V30 7020 H 743.035 0.368318 -3.90366 0
M  V30 7021 H 744.525 1.35744 -3.94922 0
M  V30 7022 N 744.962 1.50701 -0.461195 0
M  V30 7023 C 745.925 2.2686 0.326679 0
M  V30 7024 C 746.925 1.31243 0.929085 0
M  V30 7025 O 748.115 1.54754 0.799807 0
M  V30 7026 C 745.247 3.07844 1.46441 0
M  V30 7027 H 746.44 2.97954 -0.341095 0
M  V30 7028 H 743.993 1.54814 -0.214984 0
M  V30 7029 H 744.728 2.41223 2.16753 0
M  V30 7030 H 744.513 3.78101 1.03836 0
M  V30 7031 H 746.003 3.65469 2.02044 0
M  V30 7032 N 746.441 0.193421 1.56409 0
M  V30 7033 C 747.689 -0.444908 1.97142 0
M  V30 7034 C 748.01 -1.62268 1.08139 0
M  V30 7035 O 747.28 -1.95307 0.152326 0
M  V30 7036 H 745.86 -0.16736 0.728011 0
M  V30 7037 H 748.522 0.279763 1.92882 0
M  V30 7038 H 747.618 -0.790159 3.01932 0
M  V30 7039 N 747.919 -1.57396 -0.0801906 0
M  V30 7040 C 748.882 -2.02133 -1.0805 0
M  V30 7041 C 749.882 -0.91707 -1.32085 0
M  V30 7042 O 751.072 -1.18217 -1.27947 0
M  V30 7043 C 748.204 -2.39479 -2.42616 0
M  V30 7044 H 749.397 -2.91733 -0.6951 0
M  V30 7045 H 746.95 -1.52869 -0.325677 0
M  V30 7046 H 747.685 -1.52879 -2.86004 0
M  V30 7047 H 747.47 -3.20052 -2.26515 0
M  V30 7048 H 748.96 -2.74697 -3.14534 0
M  V30 7049 N 749.397 0.351382 -1.53633 0
M  V30 7050 C 750.36 1.41403 -1.80383 0
M  V30 7051 C 751.36 1.45963 -0.674635 0
M  V30 7052 O 752.55 1.46476 -0.942895 0
M  V30 7053 C 749.682 2.80401 -1.93876 0
M  V30 7054 H 750.875 1.18951 -2.75301 0
M  V30 7055 H 748.428 0.58533 -1.44926 0
M  V30 7056 H 749.163 3.08147 -1.01074 0
M  V30 7057 H 748.948 2.78488 -2.7602 0
M  V30 7058 H 750.438 3.57329 -2.16116 0
M  V30 7059 N 750.875 1.45233 0.611969 0
M  V30 7060 C 752.286 1.4354 1.19387 0
M  V30 7061 C 752.637 0.160713 1.95541 0
M  V30 7062 O 751.762 -0.737954 2.03429 0
M  V30 7063 C 752.357 2.60045 2.17169 0
M  V30 7064 C 750.916 2.61486 2.70744 0
M  V30 7065 C 750.063 2.35708 1.46072 0
M  V30 7066 H 753.014 1.53536 0.401529 0
M  V30 7067 H 753.035 2.33893 3.00124 0
M  V30 7068 H 752.547 3.52803 1.61714 0
M  V30 7069 H 750.648 1.72721 3.30149 0
M  V30 7070 H 750.761 3.60572 3.15476 0
M  V30 7071 H 749.125 1.85178 1.74875 0
M  V30 7072 H 749.908 3.30606 0.924922 0
M  V30 7073 N 752.353 -0.854086 1.3245 0
M  V30 7074 C 753.316 -1.94427 1.21371 0
M  V30 7075 C 754.316 -1.60219 0.136613 0
M  V30 7076 O 755.506 -1.69846 0.387057 0
M  V30 7077 C 752.638 -3.29698 0.866701 0
M  V30 7078 H 753.831 -2.05679 2.18257 0
M  V30 7079 H 751.384 -1.04434 1.1629 0
M  V30 7080 H 752.119 -3.24145 -0.100319 0
M  V30 7081 H 751.904 -3.55903 1.64545 0
M  V30 7082 H 753.394 -4.09599 0.813515 0
M  V30 7083 N 753.831 -1.1567 -1.07043 0
M  V30 7084 C 754.761 -0.879348 -2.16309 0
M  V30 7085 C 755.742 0.171311 -1.69235 0
M  V30 7086 O 756.927 0.0250175 -1.94184 0
M  V30 7087 C 754.057 -0.371307 -3.45309 0
M  V30 7088 C 753.011 -1.359 -4.05851 0
M  V30 7089 C 752.337 -0.709678 -5.29969 0
M  V30 7090 C 753.637 -2.72606 -4.45514 0
M  V30 7091 H 755.331 -1.79308 -2.39768 0
M  V30 7092 H 752.877 -0.863558 -1.15233 0
M  V30 7093 H 754.83 -0.164798 -4.21078 0
M  V30 7094 H 753.554 0.577906 -3.21446 0
M  V30 7095 H 752.213 -1.55193 -3.32131 0
M  V30 7096 H 751.861 0.245782 -5.02399 0
M  V30 7097 H 751.561 -1.36886 -5.71433 0
M  V30 7098 H 753.085 -0.513015 -6.08441 0
M  V30 7099 H 754.499 -2.57141 -5.12398 0
M  V30 7100 H 752.896 -3.34927 -4.97939 0
M  V30 7101 H 753.966 -3.28434 -3.56734 0
M  V30 7102 N 755.309 1.25446 -0.953992 0
M  V30 7103 C 756.539 1.96929 -0.624688 0
M  V30 7104 C 756.947 1.71112 0.807292 0
M  V30 7105 O 756.29 0.983512 1.55154 0
M  V30 7106 C 756.352 3.50425 -0.802676 0
M  V30 7107 C 756.016 3.99916 -2.21169 0
M  V30 7108 C 757.013 4.10662 -3.18831 0
M  V30 7109 C 754.698 4.33598 -2.53571 0
M  V30 7110 C 756.692 4.54401 -4.46988 0
M  V30 7111 C 754.379 4.77024 -3.81958 0
M  V30 7112 C 755.377 4.87388 -4.78478 0
M  V30 7113 O 755.065 5.29851 -6.04577 0
M  V30 7114 H 754.797 0.634511 -0.233179 0
M  V30 7115 H 757.351 1.60591 -1.28061 0
M  V30 7116 H 755.581 3.86596 -0.0896044 0
M  V30 7117 H 757.27 4.03117 -0.47452 0
M  V30 7118 H 758.036 3.84872 -2.95124 0
M  V30 7119 H 753.915 4.24757 -1.79171 0
M  V30 7120 H 757.459 4.62406 -5.22328 0
M  V30 7121 H 753.356 5.02258 -4.05471 0
M  V30 7122 H 754.124 5.48039 -6.07944 0
M  V30 7123 N 756.787 0.722489 1.40064 0
M  V30 7124 C 758.198 0.336507 1.83642 0
M  V30 7125 C 758.549 -1.13002 1.6039 0
M  V30 7126 O 757.674 -1.87036 1.08842 0
M  V30 7127 C 758.269 0.603985 3.33373 0
M  V30 7128 C 756.828 0.271637 3.75419 0
M  V30 7129 C 755.975 0.872898 2.63203 0
M  V30 7130 H 758.926 0.921108 1.29233 0
M  V30 7131 H 758.947 -0.128471 3.80283 0
M  V30 7132 H 758.459 1.67141 3.50265 0
M  V30 7133 H 756.56 -0.790455 3.64119 0
M  V30 7134 H 756.673 0.745457 4.73265 0
M  V30 7135 H 755.037 0.300431 2.52922 0
M  V30 7136 H 755.82 1.94473 2.82905 0
M  V30 7137 N 758.265 -1.50454 0.469181 0
M  V30 7138 C 759.228 -2.2703 -0.314643 0
M  V30 7139 C 760.228 -1.31734 -0.922111 0
M  V30 7140 O 761.418 -1.55176 -0.791588 0
M  V30 7141 C 758.55 -3.08616 -1.44806 0
M  V30 7142 H 759.743 -2.97769 0.356892 0
M  V30 7143 H 757.296 -1.54698 0.223191 0
M  V30 7144 H 758.031 -2.42369 -2.1547 0
M  V30 7145 H 757.816 -3.78647 -1.01829 0
M  V30 7146 H 759.306 -3.66536 -2.00103 0
M  V30 7147 N 759.743 -0.201713 -1.56304 0
M  V30 7148 C 760.673 0.71155 -2.22394 0
M  V30 7149 C 761.654 1.21625 -1.18917 0
M  V30 7150 O 762.839 1.26388 -1.47444 0
M  V30 7151 C 759.969 1.92837 -2.88845 0
M  V30 7152 C 758.923 1.55831 -3.98623 0
M  V30 7153 C 758.249 2.85228 -4.52271 0
M  V30 7154 C 759.549 0.763249 -5.16693 0
M  V30 7155 H 761.243 0.160573 -2.98969 0
M  V30 7156 H 758.789 0.0757916 -1.438 0
M  V30 7157 H 760.742 2.57253 -3.33764 0
M  V30 7158 H 759.466 2.50398 -2.09686 0
M  V30 7159 H 758.125 0.9377 -3.54405 0
M  V30 7160 H 757.773 3.40893 -3.69866 0
M  V30 7161 H 757.473 2.6121 -5.26349 0
M  V30 7162 H 758.997 3.50622 -4.99897 0
M  V30 7163 H 760.411 1.31066 -5.58117 0
M  V30 7164 H 758.808 0.620935 -5.96879 0
M  V30 7165 H 759.878 -0.234322 -4.84334 0
M  V30 7166 N 761.222 1.57436 0.0718424 0
M  V30 7167 C 762.47 1.86878 0.769484 0
M  V30 7168 C 762.791 0.7937 1.78116 0
M  V30 7169 O 762.061 -0.177642 1.95093 0
M  V30 7170 H 760.641 0.689593 0.287177 0
M  V30 7171 H 763.303 1.94841 0.0479427 0
M  V30 7172 H 762.399 2.84387 1.28572 0
M  V30 7173 N 762.7 -0.34323 1.53817 0
M  V30 7174 C 763.63 -1.42709 1.84814 0
M  V30 7175 C 764.611 -1.5488 0.703297 0
M  V30 7176 O 765.796 -1.69082 0.955237 0
M  V30 7177 C 762.926 -2.79756 2.05801 0
M  V30 7178 C 761.88 -2.82392 3.21619 0
M  V30 7179 C 761.206 -4.22326 3.2794 0
M  V30 7180 C 762.506 -2.479 4.59721 0
M  V30 7181 H 764.2 -1.17018 2.75585 0
M  V30 7182 H 761.746 -0.561485 1.32602 0
M  V30 7183 H 763.699 -3.55627 2.26069 0
M  V30 7184 H 762.423 -3.06883 1.11761 0
M  V30 7185 H 761.082 -2.08974 3.01207 0
M  V30 7186 H 760.73 -4.46564 2.31494 0
M  V30 7187 H 760.43 -4.25001 4.05768 0
M  V30 7188 H 761.954 -5.00039 3.50419 0
M  V30 7189 H 763.368 -3.13484 4.80001 0
M  V30 7190 H 761.765 -2.61857 5.39954 0
M  V30 7191 H 762.835 -1.43087 4.63308 0
M  V30 7192 N 764.178 -1.45556 -0.604258 0
M  V30 7193 C 765.126 -1.5482 -1.7359 0
M  V30 7194 C 766.12 -0.417966 -1.64163 0
M  V30 7195 O 767.326 -0.594007 -1.69916 0
M  V30 7196 H 763.701 -0.486352 -0.573556 0
M  V30 7197 H 765.672 -2.5001 -1.62903 0
M  V30 7198 C 764.421 -1.53521 -3.11972 0
M  V30 7199 H 763.744 -2.39818 -3.19886 0
M  V30 7200 H 765.184 -1.64061 -3.90973 0
M  V30 7201 C 763.643 -0.260191 -3.35894 0
M  V30 7202 O 764.173 0.658582 -3.96265 0
M  V30 7203 N 762.379 -0.154839 -2.90187 0
M  V30 7204 H 761.926 -0.903378 -2.4124 0
M  V30 7205 H 761.884 0.697437 -3.06567 0
M  V30 7206 N 765.656 0.84705 -1.32902 0
M  V30 7207 C 766.904 1.5986 -1.2365 0
M  V30 7208 C 767.225 1.93974 0.199789 0
M  V30 7209 O 766.495 1.60273 1.12648 0
M  V30 7210 H 765.075 0.592696 -0.454665 0
M  V30 7211 H 767.737 1.01278 -1.66519 0
M  V30 7212 H 766.833 2.53218 -1.82448 0
M  V30 7213 N 767.134 1.16236 1.06428 0
M  V30 7214 C 768.064 0.890807 2.1584 0
M  V30 7215 C 769.045 -0.162333 1.69324 0
M  V30 7216 O 770.23 -0.0147191 1.94194 0
M  V30 7217 C 767.36 0.389615 3.45108 0
M  V30 7218 C 766.314 1.38051 4.05125 0
M  V30 7219 C 765.64 0.737773 5.29586 0
M  V30 7220 C 766.94 2.74965 4.44062 0
M  V30 7221 H 768.634 1.80577 2.38814 0
M  V30 7222 H 766.18 0.869657 1.14774 0
M  V30 7223 H 768.133 0.187127 4.20984 0
M  V30 7224 H 766.857 -0.560851 3.21748 0
M  V30 7225 H 765.516 1.56952 3.31303 0
M  V30 7226 H 765.164 -0.219135 5.02522 0
M  V30 7227 H 764.864 1.39914 5.70699 0
M  V30 7228 H 766.388 0.545275 6.0816 0
M  V30 7229 H 767.802 2.59855 5.11027 0
M  V30 7230 H 766.199 3.37563 4.96156 0
M  V30 7231 H 767.269 3.30321 3.54987 0
M  V30 7232 N 768.612 -1.24939 0.960631 0
M  V30 7233 C 770.023 -1.74701 0.658529 0
M  V30 7234 C 770.374 -1.77967 -0.825959 0
M  V30 7235 O 769.499 -1.40444 -1.64634 0
M  V30 7236 C 770.094 -3.17263 1.18867 0
M  V30 7237 C 768.653 -3.64561 0.936614 0
M  V30 7238 C 767.8 -2.43423 1.32817 0
M  V30 7239 H 770.751 -1.10741 1.13676 0
M  V30 7240 H 770.772 -3.76481 0.551589 0
M  V30 7241 H 770.284 -3.14854 2.26912 0
M  V30 7242 H 768.385 -3.72378 -0.128608 0
M  V30 7243 H 768.498 -4.52392 1.57729 0
M  V30 7244 H 766.862 -2.43513 0.746548 0
M  V30 7245 H 767.645 -2.437 2.41796 0
M  V30 7246 N 770.09 -0.729906 -1.39679 0
M  V30 7247 C 771.022 -0.0470588 -2.29152 0
M  V30 7248 C 772.035 0.708808 -1.4656 0
M  V30 7249 O 773.224 0.553815 -1.69691 0
M  V30 7250 C 770.324 0.957612 -3.25089 0
M  V30 7251 C 769.497 0.264321 -4.36601 0
M  V30 7252 C 768.556 1.17638 -5.12882 0
M  V30 7253 O 767.582 0.655777 -5.6541 0
M  V30 7254 N 768.784 2.50649 -5.23598 0
M  V30 7255 H 771.549 -0.815364 -2.88395 0
M  V30 7256 H 769.11 -0.578707 -1.51204 0
M  V30 7257 H 771.102 1.57026 -3.72995 0
M  V30 7258 H 769.672 1.62716 -2.66912 0
M  V30 7259 H 768.892 -0.528732 -3.90638 0
M  V30 7260 H 770.18 -0.216344 -5.0834 0
M  V30 7261 H 769.578 2.95427 -4.82431 0
M  V30 7262 H 768.135 3.07022 -5.74961 0
M  V30 7263 N 771.568 1.50203 -0.477153 0
M  V30 7264 C 772.498 2.31517 0.303646 0
M  V30 7265 C 773.479 1.38696 0.984753 0
M  V30 7266 O 774.664 1.67615 0.980758 0
M  V30 7267 C 771.794 3.18598 1.38249 0
M  V30 7268 C 770.748 4.2002 0.822645 0
M  V30 7269 C 770.074 4.95878 2.00024 0
M  V30 7270 C 771.374 5.22023 -0.170185 0
M  V30 7271 H 773.068 2.97042 -0.375027 0
M  V30 7272 H 770.614 1.42848 -0.181802 0
M  V30 7273 H 772.567 3.74282 1.93625 0
M  V30 7274 H 771.291 2.5097 2.09002 0
M  V30 7275 H 769.95 3.65445 0.290813 0
M  V30 7276 H 769.598 4.24717 2.69489 0
M  V30 7277 H 769.298 5.64487 1.63183 0
M  V30 7278 H 770.822 5.54399 2.55878 0
M  V30 7279 H 772.236 5.72543 0.294606 0
M  V30 7280 H 770.633 5.98386 -0.453181 0
M  V30 7281 H 771.703 4.72396 -1.09408 0
M  V30 7282 N 773.046 0.209999 1.56195 0
M  V30 7283 C 774.294 -0.423974 1.97603 0
M  V30 7284 C 774.615 -1.61112 1.09854 0
M  V30 7285 O 773.885 -1.95134 0.173032 0
M  V30 7286 H 772.465 -0.159629 0.729745 0
M  V30 7287 H 775.127 0.300205 1.92574 0
M  V30 7288 H 774.223 -0.75809 3.02753 0
M  V30 7289 N 774.524 -1.57472 -0.0634922 0
M  V30 7290 C 775.754 -1.91608 -0.772645 0
M  V30 7291 C 776.162 -0.805019 -1.71219 0
M  V30 7292 O 775.505 0.229941 -1.82255 0
M  V30 7293 C 775.567 -3.21281 -1.61304 0
M  V30 7294 C 775.231 -4.49177 -0.841973 0
M  V30 7295 C 776.228 -5.19661 -0.157494 0
M  V30 7296 C 773.913 -4.9578 -0.80669 0
M  V30 7297 C 775.907 -6.35006 0.551948 0
M  V30 7298 C 773.594 -6.11028 -0.0934812 0
M  V30 7299 C 774.592 -6.80493 0.58463 0
M  V30 7300 O 774.28 -7.93542 1.28633 0
M  V30 7301 H 774.012 -0.637685 -0.224352 0
M  V30 7302 H 776.566 -2.05369 -0.0355279 0
M  V30 7303 H 774.796 -3.03752 -2.39315 0
M  V30 7304 H 776.485 -3.41003 -2.20162 0
M  V30 7305 H 777.251 -4.84681 -0.176006 0
M  V30 7306 H 773.13 -4.41579 -1.32397 0
M  V30 7307 H 776.674 -6.89161 1.0818 0
M  V30 7308 H 772.571 -6.45459 -0.0729258 0
M  V30 7309 H 773.339 -8.09708 1.19646 0
M  V30 7310 N 776.003 0.335068 -1.53997 0
M  V30 7311 C 776.935 1.4327 -1.78903 0
M  V30 7312 C 777.948 1.48347 -0.670598 0
M  V30 7313 O 779.137 1.51277 -0.947494 0
M  V30 7314 C 776.237 2.81878 -1.88144 0
M  V30 7315 C 775.41 3.00141 -3.18174 0
M  V30 7316 C 774.469 4.19041 -3.18263 0
M  V30 7317 O 773.495 4.12751 -3.9195 0
M  V30 7318 N 774.697 5.28004 -2.41231 0
M  V30 7319 H 777.462 1.22272 -2.73623 0
M  V30 7320 H 775.023 0.524996 -1.53152 0
M  V30 7321 H 777.015 3.59609 -1.85644 0
M  V30 7322 H 775.585 2.9598 -1.00572 0
M  V30 7323 H 774.805 2.09808 -3.33728 0
M  V30 7324 H 776.093 3.0923 -4.04047 0
M  V30 7325 H 775.491 5.35986 -1.8093 0
M  V30 7326 H 774.048 6.04196 -2.44521 0
M  V30 7327 N 777.481 1.45874 0.596531 0
M  V30 7328 C 778.444 1.54988 1.68853 0
M  V30 7329 C 779.444 0.428302 1.54991 0
M  V30 7330 O 780.634 0.692158 1.59859 0
M  V30 7331 C 777.766 1.457 3.08195 0
M  V30 7332 H 778.959 2.52294 1.62135 0
M  V30 7333 H 776.512 1.33479 0.813206 0
M  V30 7334 H 777.247 0.496204 3.20481 0
M  V30 7335 H 777.032 2.27061 3.19665 0
M  V30 7336 H 778.522 1.55133 3.87716 0
M  V30 7337 N 778.959 -0.83999 1.33349 0
M  V30 7338 C 779.922 -1.93128 1.23426 0
M  V30 7339 C 780.922 -1.60065 0.153599 0
M  V30 7340 O 782.112 -1.69425 0.405049 0
M  V30 7341 C 779.244 -3.28761 0.901622 0
M  V30 7342 H 780.437 -2.03352 2.20427 0
M  V30 7343 H 777.99 -1.03194 1.17391 0
M  V30 7344 H 778.725 -3.24233 -0.0659337 0
M  V30 7345 H 778.51 -3.54138 1.68311 0
M  V30 7346 H 780 -4.08714 0.856913 0
M  V30 7347 N 780.437 -1.16799 -1.0581 0
M  V30 7348 C 781.683 -0.953935 -1.78963 0
M  V30 7349 C 782.016 0.516638 -1.87202 0
M  V30 7350 O 781.291 1.38338 -1.36721 0
M  V30 7351 C 781.574 -1.58808 -3.23191 0
M  V30 7352 C 781.427 -3.13032 -3.23003 0
M  V30 7353 C 782.746 -1.2868 -4.20867 0
M  V30 7354 H 779.865 -0.347972 -0.64968 0
M  V30 7355 H 782.507 -1.44204 -1.23715 0
M  V30 7356 H 780.657 -1.17303 -3.70368 0
M  V30 7357 H 782.329 -3.63553 -2.83949 0
M  V30 7358 H 780.572 -3.46108 -2.61518 0
M  V30 7359 H 781.243 -3.52527 -4.24769 0
M  V30 7360 H 783.719 -1.6461 -3.82155 0
M  V30 7361 H 782.595 -1.75645 -5.20038 0
M  V30 7362 H 782.856 -0.206491 -4.41618 0
M  V30 7363 N 781.915 1.24427 -0.967243 0
M  V30 7364 C 782.845 2.2773 -0.515899 0
M  V30 7365 C 783.826 1.64197 0.444227 0
M  V30 7366 O 785.011 1.91193 0.340451 0
M  V30 7367 C 782.141 3.46751 0.195149 0
M  V30 7368 C 781.095 4.22548 -0.680953 0
M  V30 7369 C 780.421 5.34456 0.161561 0
M  V30 7370 C 781.721 4.83914 -1.96532 0
M  V30 7371 H 783.415 2.65735 -1.37933 0
M  V30 7372 H 780.961 1.27742 -0.664681 0
M  V30 7373 H 782.914 4.18153 0.522117 0
M  V30 7374 H 781.638 3.07771 1.09292 0
M  V30 7375 H 780.297 3.52946 -0.991186 0
M  V30 7376 H 779.945 4.91716 1.05947 0
M  V30 7377 H 779.645 5.86087 -0.421418 0
M  V30 7378 H 781.169 6.08685 0.483211 0
M  V30 7379 H 782.583 5.47392 -1.70396 0
M  V30 7380 H 780.98 5.45775 -2.49499 0
M  V30 7381 H 782.05 4.05393 -2.66053 0
M  V30 7382 N 783.393 0.737304 1.3929 0
M  V30 7383 C 784.34 0.0988364 2.30588 0
M  V30 7384 C 785.31 -0.727206 1.49335 0
M  V30 7385 O 786.495 -0.686694 1.78014 0
M  V30 7386 C 783.635 -0.800734 3.35682 0
M  V30 7387 C 782.748 0.0381731 4.31983 0
M  V30 7388 C 781.883 -0.862884 5.24145 0
M  V30 7389 C 780.922 -0.0193639 6.12097 0
M  V30 7390 N 780.059 -0.87648 6.96608 0
M  V30 7391 H 784.899 0.883031 2.84617 0
M  V30 7392 H 782.436 0.447111 1.4014 0
M  V30 7393 H 784.394 -1.33676 3.95205 0
M  V30 7394 H 783.024 -1.55088 2.83103 0
M  V30 7395 H 782.076 0.691641 3.74059 0
M  V30 7396 H 783.388 0.690294 4.94 0
M  V30 7397 H 782.542 -1.46667 5.88705 0
M  V30 7398 H 781.281 -1.54878 4.62454 0
M  V30 7399 H 780.286 0.597202 5.46547 0
M  V30 7400 H 781.511 0.663348 6.75852 0
M  V30 7401 H 779.457 -1.54762 6.37483 0
M  V30 7402 H 779.374 -0.280892 7.55478 0
M  V30 7403 H 780.642 -1.46575 7.65595 0
M  V30 7404 N 784.871 -1.49948 0.485112 0
M  V30 7405 C 785.781 -2.32587 -0.306697 0
M  V30 7406 C 786.797 -1.43598 -0.982632 0
M  V30 7407 O 787.973 -1.76638 -0.967519 0
M  V30 7408 C 785.038 -3.18638 -1.3664 0
M  V30 7409 C 784.099 -4.23462 -0.705589 0
M  V30 7410 C 783.332 -5.05401 -1.7148 0
M  V30 7411 O 783.555 -4.88618 -2.94293 0
M  V30 7412 O 782.489 -5.88157 -1.27889 0
M  V30 7413 H 786.315 -3.01447 0.369272 0
M  V30 7414 H 783.9 -1.47349 0.246709 0
M  V30 7415 H 785.782 -3.71992 -1.9799 0
M  V30 7416 H 784.457 -2.52491 -2.02559 0
M  V30 7417 H 783.364 -3.74063 -0.0527733 0
M  V30 7418 H 784.697 -4.92119 -0.0891187 0
M  V30 7419 N 786.349 -0.21828 -1.56081 0
M  V30 7420 C 787.597 0.413488 -1.97825 0
M  V30 7421 C 787.918 1.60527 -1.10707 0
M  V30 7422 O 787.188 1.9504 -0.183378 0
M  V30 7423 H 785.768 0.155757 -0.730581 0
M  V30 7424 H 788.43 -0.310413 -1.92412 0
M  V30 7425 H 787.526 0.742024 -3.03151 0
M  V30 7426 N 787.827 1.57504 0.0551401 0
M  V30 7427 C 788.757 2.07864 1.06372 0
M  V30 7428 C 789.738 0.975565 1.39344 0
M  V30 7429 O 790.923 1.24929 1.48682 0
M  V30 7430 C 788.053 2.53643 2.3724 0
M  V30 7431 C 787.007 3.67978 2.18578 0
M  V30 7432 C 786.333 3.9987 3.54976 0
M  V30 7433 C 787.633 4.97405 1.59329 0
M  V30 7434 H 789.327 2.92379 0.644595 0
M  V30 7435 H 786.873 1.40654 0.308619 0
M  V30 7436 H 788.826 2.8749 3.08103 0
M  V30 7437 H 787.55 1.66177 2.81163 0
M  V30 7438 H 786.209 3.3444 1.50152 0
M  V30 7439 H 785.857 3.0951 3.965 0
M  V30 7440 H 785.557 4.76867 3.43324 0
M  V30 7441 H 787.081 4.36228 4.27244 0
M  V30 7442 H 788.495 5.29375 2.20078 0
M  V30 7443 H 786.892 5.78837 1.58327 0
M  V30 7444 H 787.962 4.81697 0.55638 0
M  V30 7445 N 789.305 -0.326896 1.54172 0
M  V30 7446 C 790.716 -0.901533 1.63491 0
M  V30 7447 C 791.067 -1.88994 0.52684 0
M  V30 7448 O 790.192 -2.137 -0.340794 0
M  V30 7449 C 790.787 -1.64192 2.96355 0
M  V30 7450 C 789.346 -2.16533 3.07881 0
M  V30 7451 C 788.493 -0.98966 2.59039 0
M  V30 7452 H 791.444 -0.104568 1.58355 0
M  V30 7453 H 791.465 -2.50592 2.86328 0
M  V30 7454 H 790.977 -0.922291 3.76982 0
M  V30 7455 H 789.078 -2.91622 2.31922 0
M  V30 7456 H 789.191 -2.41762 4.13628 0
M  V30 7457 H 787.555 -1.36787 2.14852 0
M  V30 7458 H 788.338 -0.284401 3.4212 0
M  V30 7459 N 790.784 -1.46188 -0.588786 0
M  V30 7460 C 791.716 -1.52319 -1.71265 0
M  V30 7461 C 792.729 -0.412096 -1.57498 0
M  V30 7462 O 793.918 -0.680146 -1.65034 0
M  V30 7463 C 791.018 -1.38164 -3.09458 0
M  V30 7464 C 790.191 -2.63284 -3.49286 0
M  V30 7465 C 789.25 -2.43415 -4.66514 0
M  V30 7466 O 788.276 -3.17113 -4.72682 0
M  V30 7467 N 789.478 -1.49187 -5.61002 0
M  V30 7468 H 792.243 -2.49219 -1.66463 0
M  V30 7469 H 789.804 -1.42167 -0.774601 0
M  V30 7470 H 791.796 -1.22653 -3.85666 0
M  V30 7471 H 790.366 -0.494678 -3.08661 0
M  V30 7472 H 789.586 -2.93779 -2.62845 0
M  V30 7473 H 790.874 -3.46413 -3.7266 0
M  V30 7474 H 790.272 -0.884027 -5.5875 0
M  V30 7475 H 788.829 -1.39642 -6.36666 0
M  V30 7476 N 792.262 0.832906 -1.33792 0
M  V30 7477 C 793.508 1.59089 -1.25772 0
M  V30 7478 C 793.841 1.93414 0.174601 0
M  V30 7479 O 793.116 1.59195 1.11746 0
M  V30 7480 C 793.399 2.89699 -2.13885 0
M  V30 7481 C 793.252 2.62017 -3.65605 0
M  V30 7482 C 794.571 3.91182 -2.01654 0
M  V30 7483 H 791.69 0.577232 -0.458227 0
M  V30 7484 H 794.332 0.960227 -1.6395 0
M  V30 7485 H 792.482 3.4352 -1.81456 0
M  V30 7486 H 794.154 2.14582 -4.08353 0
M  V30 7487 H 792.397 1.95621 -3.87189 0
M  V30 7488 H 793.068 3.55112 -4.2261 0
M  V30 7489 H 795.544 3.46684 -2.30107 0
M  V30 7490 H 794.42 4.80391 -2.65548 0
M  V30 7491 H 794.681 4.30861 -0.990536 0
M  V30 7492 N 793.74 1.17359 1.05189 0
M  V30 7493 C 794.97 0.985099 1.81602 0
M  V30 7494 C 795.378 -0.469872 1.83273 0
M  V30 7495 O 794.721 -1.33806 1.25864 0
M  V30 7496 C 794.783 1.44956 3.2898 0
M  V30 7497 C 794.447 2.92666 3.50993 0
M  V30 7498 C 795.444 3.906 3.43115 0
M  V30 7499 C 793.129 3.30841 3.77954 0
M  V30 7500 C 795.123 5.24709 3.61883 0
M  V30 7501 C 792.81 4.65116 3.96371 0
M  V30 7502 C 793.808 5.61859 3.88335 0
M  V30 7503 O 793.496 6.93704 4.06238 0
M  V30 7504 H 793.228 0.348731 0.579105 0
M  V30 7505 H 795.782 1.56066 1.33539 0
M  V30 7506 H 794.012 0.817559 3.77959 0
M  V30 7507 H 795.701 1.22674 3.86919 0
M  V30 7508 H 796.467 3.62453 3.22262 0
M  V30 7509 H 792.346 2.5611 3.83313 0
M  V30 7510 H 795.89 6.00205 3.55527 0
M  V30 7511 H 791.787 4.92969 4.16715 0
M  V30 7512 H 792.555 7.00443 4.23463 0
M  V30 7513 N 795.218 -1.23913 0.973828 0
M  V30 7514 C 796.629 -1.73992 0.677021 0
M  V30 7515 C 796.98 -1.78833 -0.807036 0
M  V30 7516 O 796.105 -1.42183 -1.63135 0
M  V30 7517 C 796.7 -3.15985 1.22226 0
M  V30 7518 C 795.259 -3.63547 0.975228 0
M  V30 7519 C 794.406 -2.42001 1.35392 0
M  V30 7520 H 797.357 -1.09529 1.14844 0
M  V30 7521 H 797.378 -3.75875 0.591489 0
M  V30 7522 H 796.89 -3.12429 2.30238 0
M  V30 7523 H 794.991 -3.72493 -0.0891047 0
M  V30 7524 H 795.104 -4.50693 1.62518 0
M  V30 7525 H 793.468 -2.42708 0.772334 0
M  V30 7526 H 794.251 -2.41122 2.44367 0
M  V30 7527 N 796.696 -0.74468 -1.38897 0
M  V30 7528 C 798.107 -0.36568 -1.83084 0
M  V30 7529 C 798.458 1.10436 -1.62168 0
M  V30 7530 O 797.583 1.85281 -1.11804 0
M  V30 7531 C 798.178 -0.656946 -3.3237 0
M  V30 7532 C 796.737 -0.331329 -3.74939 0
M  V30 7533 C 795.884 -0.914661 -2.61781 0
M  V30 7534 H 798.835 -0.941551 -1.27752 0
M  V30 7535 H 798.856 0.0679546 -3.80439 0
M  V30 7536 H 798.368 -1.72693 -3.47561 0
M  V30 7537 H 796.469 0.732426 -3.6533 0
M  V30 7538 H 796.582 -0.820655 -4.72019 0
M  V30 7539 H 794.946 -0.34063 -2.52412 0
M  V30 7540 H 795.729 -1.98949 -2.79775 0
M  V30 7541 N 798.174 1.49689 -0.493057 0
M  V30 7542 C 799.404 2.06536 0.0512397 0
M  V30 7543 C 799.812 1.35459 1.32089 0
M  V30 7544 O 799.155 0.424145 1.78736 0
M  V30 7545 C 799.217 3.57452 0.383231 0
M  V30 7546 C 798.881 4.50163 -0.787555 0
M  V30 7547 C 799.878 4.92151 -1.67582 0
M  V30 7548 C 797.563 4.92565 -0.984109 0
M  V30 7549 C 799.557 5.7527 -2.74487 0
M  V30 7550 C 797.244 5.75463 -2.05634 0
M  V30 7551 C 798.242 6.16719 -2.93507 0
M  V30 7552 O 797.93 6.97961 -3.98881 0
M  V30 7553 H 797.662 0.675862 -0.0136516 0
M  V30 7554 H 800.216 1.9356 -0.687298 0
M  V30 7555 H 798.446 3.68408 1.17526 0
M  V30 7556 H 800.135 3.96572 0.8652 0
M  V30 7557 H 800.901 4.60043 -1.53575 0
M  V30 7558 H 796.78 4.5996 -0.309541 0
M  V30 7559 H 800.324 6.07392 -3.43104 0
M  V30 7560 H 796.221 6.06983 -2.19639 0
M  V30 7561 H 796.989 7.16253 -3.96137 0
M  V30 7562 N 799.652 0.226554 1.55963 0
M  V30 7563 C 800.582 -0.676079 2.23498 0
M  V30 7564 C 801.563 -1.19718 1.20837 0
M  V30 7565 O 802.748 -1.24027 1.49436 0
M  V30 7566 C 799.878 -1.88217 2.91876 0
M  V30 7567 C 798.832 -1.4947 4.01052 0
M  V30 7568 C 798.158 -2.77997 4.56751 0
M  V30 7569 C 799.458 -0.680951 5.17842 0
M  V30 7570 H 801.152 -0.112989 2.99187 0
M  V30 7571 H 798.698 -0.0529046 1.43903 0
M  V30 7572 H 800.651 -2.51911 3.37815 0
M  V30 7573 H 799.375 -2.47031 2.13643 0
M  V30 7574 H 798.034 -0.881199 3.55852 0
M  V30 7575 H 797.682 -3.34966 3.75243 0
M  V30 7576 H 797.382 -2.52803 5.30438 0
M  V30 7577 H 798.906 -3.42625 5.05411 0
M  V30 7578 H 800.32 -1.22171 5.60131 0
M  V30 7579 H 798.717 -0.525898 5.97791 0
M  V30 7580 H 799.787 0.311346 4.83899 0
M  V30 7581 N 801.13 -1.57531 -0.0467866 0
M  V30 7582 C 802.078 -2.06455 -1.0714 0
M  V30 7583 C 803.072 -0.974744 -1.38546 0
M  V30 7584 O 804.278 -1.15974 -1.37659 0
M  V30 7585 H 800.653 -0.658607 -0.362962 0
M  V30 7586 H 802.624 -2.91613 -0.632813 0
M  V30 7587 C 801.373 -2.54481 -2.36927 0
M  V30 7588 H 800.696 -3.37946 -2.13617 0
M  V30 7589 H 802.136 -2.92442 -3.07007 0
M  V30 7590 C 800.595 -1.43836 -3.04652 0
M  V30 7591 O 801.125 -0.794531 -3.93764 0
M  V30 7592 N 799.331 -1.17727 -2.65686 0
M  V30 7593 H 798.878 -1.70265 -1.93307 0
M  V30 7594 H 798.836 -0.439051 -3.11319 0
M  V30 7595 N 802.608 0.318715 -1.54344 0
M  V30 7596 C 803.838 1.07394 -1.76494 0
M  V30 7597 C 804.246 1.82031 -0.515881 0
M  V30 7598 O 803.589 1.7609 0.52325 0
M  V30 7599 C 803.651 2.11401 -2.90775 0
M  V30 7600 C 803.315 1.56118 -4.29507 0
M  V30 7601 C 804.312 1.00043 -5.10184 0
M  V30 7602 C 801.997 1.60215 -4.76063 0
M  V30 7603 C 803.991 0.487993 -6.35529 0
M  V30 7604 C 801.678 1.08584 -6.01376 0
M  V30 7605 C 802.676 0.529714 -6.80943 0
M  V30 7606 O 802.364 0.0211823 -8.03897 0
M  V30 7607 H 802.096 0.325061 -0.592715 0
M  V30 7608 H 804.65 0.36901 -2.02058 0
M  V30 7609 H 802.88 2.85524 -2.60793 0
M  V30 7610 H 804.569 2.72683 -3.00664 0
M  V30 7611 H 805.335 0.961811 -4.75367 0
M  V30 7612 H 801.214 2.02441 -4.14172 0
M  V30 7613 H 804.758 0.0532608 -6.9758 0
M  V30 7614 H 800.655 1.12155 -6.35682 0
M  V30 7615 H 801.423 0.136151 -8.18387 0
M  V30 7616 N 804.086 1.46499 0.581025 0
M  V30 7617 C 805.016 1.60052 1.70017 0
M  V30 7618 C 805.997 0.450788 1.64018 0
M  V30 7619 O 807.182 0.677237 1.82009 0
M  V30 7620 C 804.312 1.5921 3.08658 0
M  V30 7621 C 803.266 2.73169 3.29488 0
M  V30 7622 C 802.592 2.57389 4.68674 0
M  V30 7623 C 803.892 4.14978 3.1716 0
M  V30 7624 H 805.586 2.53735 1.5893 0
M  V30 7625 H 803.132 1.22113 0.763173 0
M  V30 7626 H 805.085 1.67285 3.86773 0
M  V30 7627 H 803.809 0.620718 3.20647 0
M  V30 7628 H 802.468 2.64566 2.53773 0
M  V30 7629 H 802.116 1.58331 4.77431 0
M  V30 7630 H 801.816 3.33826 4.83564 0
M  V30 7631 H 803.34 2.67358 5.48956 0
M  V30 7632 H 804.754 4.24684 3.85119 0
M  V30 7633 H 803.151 4.92016 3.4357 0
M  V30 7634 H 804.221 4.35016 2.14218 0
M  V30 7635 N 805.565 -0.825799 1.34232 0
M  V30 7636 C 806.981 -1.11848 1.13851 0
M  V30 7637 C 807.181 -2.01405 -0.0619031 0
M  V30 7638 O 806.237 -2.41465 -0.738287 0
M  V30 7639 C 807.55 -1.76797 2.43235 0
M  V30 7640 C 809.098 -1.89304 2.49265 0
M  V30 7641 C 809.573 -2.57669 3.78643 0
M  V30 7642 N 811.064 -2.65171 3.79788 0
M  V30 7643 C 811.799 -3.1879 4.76614 0
M  V30 7644 N 811.295 -3.72995 5.83821 0
M  V30 7645 N 813.088 -3.17164 4.64073 0
M  V30 7646 H 805.239 -0.230049 2.11151 0
M  V30 7647 H 807.502 -0.164609 0.9336 0
M  V30 7648 H 807.208 -1.18455 3.31152 0
M  V30 7649 H 807.082 -2.76693 2.56361 0
M  V30 7650 H 809.469 -2.46796 1.6179 0
M  V30 7651 H 809.55 -0.883191 2.4007 0
M  V30 7652 H 809.194 -2.00833 4.66507 0
M  V30 7653 H 809.124 -3.59152 3.8512 0
M  V30 7654 H 811.615 -2.26746 3.02315 0
M  V30 7655 H 811.928 -4.12151 6.53721 0
M  V30 7656 H 810.273 -3.71246 5.87538 0
M  V30 7657 H 813.464 -2.74082 3.79469 0
M  V30 7658 H 813.637 -3.58647 5.397 0
M  V30 7659 N 807.043 -1.17915 -1.04565 0
M  V30 7660 C 808.454 -0.976383 -1.59134 0
M  V30 7661 C 808.805 0.475267 -1.90357 0
M  V30 7662 O 807.93 1.35172 -1.6899 0
M  V30 7663 C 808.525 -1.76604 -2.89131 0
M  V30 7664 C 807.084 -1.60777 -3.40335 0
M  V30 7665 C 806.231 -1.76369 -2.13985 0
M  V30 7666 H 809.182 -1.32532 -0.872985 0
M  V30 7667 H 809.203 -1.25215 -3.59307 0
M  V30 7668 H 808.715 -2.82252 -2.66375 0
M  V30 7669 H 806.816 -0.576436 -3.68114 0
M  V30 7670 H 806.929 -2.40268 -4.14497 0
M  V30 7671 H 805.293 -1.19268 -2.25049 0
M  V30 7672 H 806.076 -2.83441 -1.9369 0
M  V30 7673 N 808.521 1.23394 -0.980386 0
M  V30 7674 C 809.798 1.87242 -0.565667 0
M  V30 7675 C 810.178 1.88151 0.957197 0
M  V30 7676 O 809.526 1.36309 1.8339 0
M  V30 7677 C 809.736 3.28743 -1.17172 0
M  V30 7678 C 811.084 4.05335 -1.26446 0
M  V30 7679 O 812.108 3.37962 -1.12517 0
M  V30 7680 O 810.967 5.25908 -1.48604 0
M  V30 7681 H 808.061 0.80477 -0.190459 0
M  V30 7682 H 810.607 1.3127 -1.07547 0
M  V30 7683 H 809.379 3.22647 -2.21392 0
M  V30 7684 H 809.002 3.92305 -0.646739 0
M  V30 7685 N 809.999 0.752036 1.385 0
M  V30 7686 C 811.224 0.316993 2.04963 0
M  V30 7687 C 811.649 -1.04582 1.56346 0
M  V30 7688 O 811.007 -1.66616 0.714755 0
M  V30 7689 C 811.055 0.347235 3.58924 0
M  V30 7690 O 810.159 -0.659296 4.07096 0
M  V30 7691 H 809.5 0.140652 0.648932 0
M  V30 7692 H 812.03 1.02272 1.77205 0
M  V30 7693 H 812.04 0.19757 4.07521 0
M  V30 7694 H 810.715 1.34157 3.93668 0
M  V30 7695 H 809.292 -0.474371 3.6987 0
M  V30 7696 N 811.477 -1.49425 0.500989 0
M  V30 7697 C 812.387 -2.32899 -0.282011 0
M  V30 7698 C 813.403 -1.44632 -0.967346 0
M  V30 7699 O 814.579 -1.77654 -0.94873 0
M  V30 7700 C 811.644 -3.20069 -1.33253 0
M  V30 7701 C 810.705 -4.24186 -0.660636 0
M  V30 7702 C 809.938 -5.07191 -1.6611 0
M  V30 7703 O 810.161 -4.91712 -2.89094 0
M  V30 7704 O 809.095 -5.8948 -1.21643 0
M  V30 7705 H 812.921 -3.01038 0.401224 0
M  V30 7706 H 810.506 -1.47079 0.262323 0
M  V30 7707 H 812.388 -3.74071 -1.94033 0
M  V30 7708 H 811.063 -2.54625 -1.9987 0
M  V30 7709 H 809.97 -3.74098 -0.0130959 0
M  V30 7710 H 811.303 -4.92186 -0.0369179 0
M  V30 7711 N 812.955 -0.234822 -1.55841 0
M  V30 7712 C 813.918 0.656378 -2.196 0
M  V30 7713 C 814.918 1.11179 -1.16171 0
M  V30 7714 O 816.108 1.01845 -1.41326 0
M  V30 7715 C 813.24 1.90072 -2.82993 0
M  V30 7716 H 814.433 0.100281 -2.99732 0
M  V30 7717 H 811.986 0.0147613 -1.56293 0
M  V30 7718 H 812.721 2.49836 -2.06767 0
M  V30 7719 H 812.506 1.5825 -3.58747 0
M  V30 7720 H 813.996 2.53538 -3.31826 0
M  V30 7721 N 814.433 1.57553 0.0384317 0
M  V30 7722 C 815.658 1.93485 0.746872 0
M  V30 7723 C 816.083 0.834069 1.68597 0
M  V30 7724 O 815.441 -0.210902 1.80069 0
M  V30 7725 C 815.489 3.28463 1.4881 0
M  V30 7726 O 814.593 3.20051 2.60079 0
M  V30 7727 H 813.934 0.632675 0.201539 0
M  V30 7728 H 816.464 2.046 -0.00329815 0
M  V30 7729 H 816.474 3.63132 1.86009 0
M  V30 7730 H 815.149 4.08147 0.799297 0
M  V30 7731 H 813.726 2.96998 2.25492 0
M  V30 7732 N 815.911 -0.310526 1.54511 0
M  V30 7733 C 816.843 -1.40405 1.8116 0
M  V30 7734 C 817.856 -1.47261 0.694114 0
M  V30 7735 O 819.045 -1.49751 0.971441 0
M  V30 7736 C 816.145 -2.78849 1.92604 0
M  V30 7737 C 815.318 -2.95041 3.22908 0
M  V30 7738 C 814.377 -4.13925 3.24889 0
M  V30 7739 O 813.403 -4.06463 3.98467 0
M  V30 7740 N 814.605 -5.24099 2.496 0
M  V30 7741 H 817.37 -1.17903 2.75534 0
M  V30 7742 H 814.931 -0.500564 1.53967 0
M  V30 7743 H 816.923 -3.5661 1.91342 0
M  V30 7744 H 815.493 -2.94342 1.05268 0
M  V30 7745 H 814.713 -2.04472 3.37023 0
M  V30 7746 H 816.001 -3.02763 4.08916 0
M  V30 7747 H 815.399 -5.33039 1.89435 0
M  V30 7748 H 813.956 -6.0023 2.54102 0
M  V30 7749 N 817.389 -1.46805 -0.573248 0
M  V30 7750 C 818.614 -1.56433 -1.36175 0
M  V30 7751 C 819.039 -0.209336 -1.86932 0
M  V30 7752 O 818.397 0.812146 -1.62092 0
M  V30 7753 C 818.445 -2.58055 -2.51873 0
M  V30 7754 O 817.549 -2.12214 -3.53609 0
M  V30 7755 H 816.89 -0.526068 -0.405153 0
M  V30 7756 H 819.42 -1.92456 -0.694405 0
M  V30 7757 H 819.43 -2.77966 -2.98662 0
M  V30 7758 H 818.105 -3.56448 -2.14284 0
M  V30 7759 H 816.682 -2.02333 -3.13234 0
M  V30 7760 N 818.867 0.818669 -1.34668 0
M  V30 7761 C 820.278 1.39177 -1.24446 0
M  V30 7762 C 820.629 1.9578 0.128268 0
M  V30 7763 O 819.754 1.90382 1.02877 0
M  V30 7764 C 820.349 2.53012 -2.25323 0
M  V30 7765 C 818.908 3.06218 -2.18878 0
M  V30 7766 C 818.055 1.79112 -2.11694 0
M  V30 7767 H 821.006 0.622709 -1.45973 0
M  V30 7768 H 821.027 3.31226 -1.8727 0
M  V30 7769 H 820.539 2.11784 -3.25221 0
M  V30 7770 H 818.64 3.51939 -1.22351 0
M  V30 7771 H 818.753 3.65019 -3.10319 0
M  V30 7772 H 817.117 2.0018 -1.57481 0
M  V30 7773 H 817.9 1.40053 -3.13433 0
M  V30 7774 N 820.346 1.18468 1.03938 0
M  V30 7775 C 821.278 0.870615 2.12021 0
M  V30 7776 C 822.291 -0.132318 1.62261 0
M  V30 7777 O 823.48 0.0956901 1.78243 0
M  V30 7778 C 820.58 0.279727 3.37744 0
M  V30 7779 C 819.753 1.32863 4.16733 0
M  V30 7780 C 818.812 0.753204 5.20781 0
M  V30 7781 O 817.838 1.42825 5.5099 0
M  V30 7782 N 819.04 -0.448664 5.78764 0
M  V30 7783 H 821.805 1.80091 2.39556 0
M  V30 7784 H 819.366 1.08524 1.20142 0
M  V30 7785 H 821.358 -0.118829 4.04526 0
M  V30 7786 H 819.928 -0.554621 3.07641 0
M  V30 7787 H 819.148 1.90245 3.45254 0
M  V30 7788 H 820.436 2.03574 4.66299 0
M  V30 7789 H 819.834 -1.01481 5.56523 0
M  V30 7790 H 818.391 -0.789125 6.47005 0
M  V30 7791 N 821.824 -1.22873 0.986916 0
M  V30 7792 C 823.054 -1.95204 0.67668 0
M  V30 7793 C 823.462 -1.73193 -0.761641 0
M  V30 7794 O 822.805 -1.0243 -1.52492 0
M  V30 7795 C 822.867 -3.48173 0.895302 0
M  V30 7796 C 822.531 -3.93912 2.31695 0
M  V30 7797 C 823.528 -4.02064 3.29607 0
M  V30 7798 C 821.213 -4.26722 2.64978 0
M  V30 7799 C 823.207 -4.42391 4.58878 0
M  V30 7800 C 820.894 -4.66729 3.94471 0
M  V30 7801 C 821.892 -4.74531 4.91232 0
M  V30 7802 O 821.58 -5.13636 6.18412 0
M  V30 7803 H 821.312 -0.628105 0.24992 0
M  V30 7804 H 823.866 -1.5714 1.32274 0
M  V30 7805 H 822.096 -3.86223 0.192072 0
M  V30 7806 H 823.785 -4.01717 0.581233 0
M  V30 7807 H 824.551 -3.76912 3.05225 0
M  V30 7808 H 820.43 -4.19858 1.9037 0
M  V30 7809 H 823.974 -4.48395 5.34404 0
M  V30 7810 H 819.871 -4.91332 4.18645 0
M  V30 7811 H 820.639 -5.31728 6.2226 0
M  V30 7812 N 823.302 -0.75937 -1.38099 0
M  V30 7813 C 824.527 -0.327859 -2.04792 0
M  V30 7814 C 824.952 1.03752 -1.56899 0
M  V30 7815 O 824.31 1.66235 -0.723581 0
M  V30 7816 C 824.358 -0.366264 -3.58735 0
M  V30 7817 O 823.462 0.637697 -4.0744 0
M  V30 7818 H 822.803 -0.144092 -0.648177 0
M  V30 7819 H 825.333 -1.03211 -1.7666 0
M  V30 7820 H 825.343 -0.219179 -4.07411 0
M  V30 7821 H 824.018 -1.36243 -3.92951 0
M  V30 7822 H 822.595 0.454749 -3.70117 0
M  V30 7823 N 824.78 1.49157 -0.508906 0
M  V30 7824 C 826.027 2.02473 0.0327983 0
M  V30 7825 C 826.355 1.38792 1.36261 0
M  V30 7826 O 825.61 0.515576 1.88786 0
M  V30 7827 C 825.909 3.56687 0.225717 0
M  V30 7828 C 825.575 4.39046 -1.02708 0
M  V30 7829 C 824.237 4.61271 -1.37048 0
M  V30 7830 C 826.589 4.86902 -1.85946 0
M  V30 7831 C 823.917 5.28598 -2.54562 0
M  V30 7832 C 826.269 5.55521 -3.0262 0
M  V30 7833 C 824.933 5.7599 -3.3733 0
M  V30 7834 H 824.203 0.740903 0.0120017 0
M  V30 7835 H 826.85 1.79372 -0.670665 0
M  V30 7836 H 825.155 3.78511 1.01177 0
M  V30 7837 H 826.852 3.95541 0.659433 0
M  V30 7838 H 823.442 4.21994 -0.749615 0
M  V30 7839 H 827.626 4.69553 -1.6073 0
M  V30 7840 H 822.882 5.42646 -2.81682 0
M  V30 7841 H 827.056 5.91576 -3.67438 0
M  V30 7842 H 824.683 6.27934 -4.2849 0
M  V30 7843 N 826.258 0.243083 1.55714 0
M  V30 7844 C 827.168 -0.668913 2.24862 0
M  V30 7845 C 828.184 -1.19638 1.26344 0
M  V30 7846 O 829.36 -1.23345 1.5921 0
M  V30 7847 C 826.425 -1.85084 2.93163 0
M  V30 7848 C 825.486 -1.36323 4.07081 0
M  V30 7849 C 824.719 -2.48882 4.72116 0
M  V30 7850 O 824.942 -3.67523 4.36214 0
M  V30 7851 O 823.876 -2.18857 5.60701 0
M  V30 7852 H 827.702 -0.109737 3.03502 0
M  V30 7853 H 825.287 0.0117411 1.49395 0
M  V30 7854 H 827.169 -2.54065 3.36197 0
M  V30 7855 H 825.844 -2.39771 2.17466 0
M  V30 7856 H 824.751 -0.640804 3.68571 0
M  V30 7857 H 826.084 -0.86249 4.84584 0
M  V30 7858 N 827.736 -1.57571 -0.0300757 0
M  V30 7859 C 828.961 -1.93879 -0.736601 0
M  V30 7860 C 829.386 -0.842998 -1.68152 0
M  V30 7861 O 828.744 0.20135 -1.80178 0
M  V30 7862 C 828.792 -3.29247 -1.47066 0
M  V30 7863 O 827.896 -3.21426 -2.58378 0
M  V30 7864 H 827.237 -0.633735 -0.198181 0
M  V30 7865 H 829.767 -2.04595 0.0141485 0
M  V30 7866 H 829.777 -3.64113 -1.84081 0
M  V30 7867 H 828.452 -4.08565 -0.77764 0
M  V30 7868 H 827.029 -2.98189 -2.23914 0
M  V30 7869 N 829.214 0.302327 -1.54673 0
M  V30 7870 C 830.144 1.37759 -1.88533 0
M  V30 7871 C 831.125 1.52961 -0.744113 0
M  V30 7872 O 832.31 1.6649 -0.999731 0
M  V30 7873 C 829.44 2.74201 -2.13146 0
M  V30 7874 C 828.394 2.73765 -3.28993 0
M  V30 7875 C 827.72 4.13483 -3.39022 0
M  V30 7876 C 829.02 2.35624 -4.66132 0
M  V30 7877 H 830.714 1.0967 -2.78591 0
M  V30 7878 H 828.26 0.52613 -1.34044 0
M  V30 7879 H 830.213 3.49508 -2.35419 0
M  V30 7880 H 828.937 3.03812 -1.19858 0
M  V30 7881 H 827.596 2.00914 -3.06642 0
M  V30 7882 H 827.244 4.40269 -2.43253 0
M  V30 7883 H 826.944 4.14093 -4.16894 0
M  V30 7884 H 828.468 4.90572 -3.63553 0
M  V30 7885 H 829.882 3.00647 -4.88143 0
M  V30 7886 H 828.279 2.47449 -5.46707 0
M  V30 7887 H 829.349 1.30753 -4.66939 0
M  V30 7888 N 830.692 1.47107 0.565454 0
M  V30 7889 C 832.103 1.47266 1.1476 0
M  V30 7890 C 832.454 0.222841 1.9493 0
M  V30 7891 O 831.579 -0.672862 2.05673 0
M  V30 7892 C 832.174 2.66822 2.08785 0
M  V30 7893 C 830.733 2.69967 2.62288 0
M  V30 7894 C 829.88 2.40236 1.38499 0
M  V30 7895 H 832.831 1.54736 0.352479 0
M  V30 7896 H 832.852 2.43323 2.92531 0
M  V30 7897 H 832.364 3.5777 1.50408 0
M  V30 7898 H 830.465 1.83137 3.24487 0
M  V30 7899 H 830.578 3.70426 3.03845 0
M  V30 7900 H 828.942 1.90648 1.68895 0
M  V30 7901 H 829.725 3.33381 0.819274 0
M  V30 7902 N 832.17 -0.811516 1.35101 0
M  V30 7903 C 833.102 -1.93102 1.23468 0
M  V30 7904 C 834.115 -1.62021 0.159095 0
M  V30 7905 O 835.304 -1.73682 0.411945 0
M  V30 7906 C 832.404 -3.27345 0.877404 0
M  V30 7907 C 831.577 -3.86368 2.05033 0
M  V30 7908 C 830.636 -4.99009 1.66963 0
M  V30 7909 O 829.662 -5.16698 2.38772 0
M  V30 7910 N 830.864 -5.7749 0.590394 0
M  V30 7911 H 833.629 -2.0361 2.19916 0
M  V30 7912 H 831.19 -0.988687 1.28205 0
M  V30 7913 H 833.182 -4.00163 0.604298 0
M  V30 7914 H 831.752 -3.126 0.00275267 0
M  V30 7915 H 830.972 -3.05804 2.48752 0
M  V30 7916 H 832.26 -4.22533 2.83449 0
M  V30 7917 H 831.658 -5.657 -0.00633259 0
M  V30 7918 H 830.215 -6.50708 0.377055 0
M  V30 7919 N 833.648 -1.19017 -1.03309 0
M  V30 7920 C 834.595 -0.924088 -2.11493 0
M  V30 7921 C 835.565 0.139464 -1.65513 0
M  V30 7922 O 836.75 -0.00178761 -1.908 0
M  V30 7923 C 833.89 -0.464255 -3.41963 0
M  V30 7924 C 833.003 -1.5941 -4.01513 0
M  V30 7925 C 832.138 -1.08622 -5.19976 0
M  V30 7926 C 831.177 -2.19024 -5.71572 0
M  V30 7927 N 830.314 -1.69575 -6.81314 0
M  V30 7928 H 835.154 -1.85039 -2.33591 0
M  V30 7929 H 832.691 -0.922593 -1.14572 0
M  V30 7930 H 834.649 -0.179078 -4.16815 0
M  V30 7931 H 833.279 0.425062 -3.19989 0
M  V30 7932 H 832.331 -1.99458 -3.23915 0
M  V30 7933 H 833.643 -2.42604 -4.35826 0
M  V30 7934 H 832.797 -0.756022 -6.01971 0
M  V30 7935 H 831.536 -0.223955 -4.87186 0
M  V30 7936 H 830.541 -2.5288 -4.88193 0
M  V30 7937 H 831.766 -3.05699 -6.06403 0
M  V30 7938 H 829.712 -0.856494 -6.50385 0
M  V30 7939 H 829.629 -2.46361 -7.14732 0
M  V30 7940 H 830.897 -1.39505 -7.66915 0
M  V30 7941 N 835.127 1.22348 -0.993418 0
M  V30 7942 C 836.376 1.90422 -0.665019 0
M  V30 7943 C 836.689 1.78199 0.806512 0
M  V30 7944 O 837.895 2.41193 1.24652 0
M  V30 7945 C 836.351 3.41403 -1.13893 0
M  V30 7946 C 835.959 3.62262 -2.63572 0
M  V30 7947 C 837.703 4.15175 -0.884884 0
M  V30 7948 C 835.61 5.06947 -3.04564 0
M  V30 7949 H 834.54 0.713073 -0.245037 0
M  V30 7950 H 837.191 1.3856 -1.20305 0
M  V30 7951 H 835.573 3.9245 -0.529027 0
M  V30 7952 H 836.747 3.21705 -3.29913 0
M  V30 7953 H 835.062 3.01824 -2.86865 0
M  V30 7954 H 837.659 5.21813 -1.16684 0
M  V30 7955 H 838.002 4.15915 0.178982 0
M  V30 7956 H 838.535 3.70157 -1.45701 0
M  V30 7957 H 835.274 5.11346 -4.10128 0
M  V30 7958 H 834.794 5.48404 -2.42927 0
M  V30 7959 H 836.473 5.75374 -2.95894 0
M  V30 7960 N 836.605 0.766683 1.37694 0
M  V30 7961 C 837.845 0.333815 2.01656 0
M  V30 7962 C 838.209 -1.06813 1.59546 0
M  V30 7963 O 839.41 -1.60084 2.15932 0
M  V30 7964 C 837.681 0.467032 3.54335 0
M  V30 7965 S 839.24 0.118679 4.38639 0
M  V30 7966 H 836.058 0.128723 0.699251 0
M  V30 7967 H 838.66 1.00018 1.67978 0
M  V30 7968 H 837.364 1.48808 3.82471 0
M  V30 7969 H 836.895 -0.216066 3.92806 0
M  V30 7970 H 838.91 -1.08746 4.84137 0
M  V30 7971 N 838.083 -1.48885 0.516809 0
M  V30 7972 C 839.013 -2.32241 -0.242157 0
M  V30 7973 C 839.994 -1.41258 -0.947633 0
M  V30 7974 O 841.179 -1.70156 -0.935973 0
M  V30 7975 C 838.309 -3.22151 -1.29754 0
M  V30 7976 C 837.263 -4.22053 -0.710995 0
M  V30 7977 C 836.589 -5.01007 -1.86806 0
M  V30 7978 C 837.889 -5.21388 0.30853 0
M  V30 7979 H 839.583 -2.95943 0.453651 0
M  V30 7980 H 837.129 -1.42316 0.219612 0
M  V30 7981 H 839.082 -3.79284 -1.83634 0
M  V30 7982 H 837.806 -2.56423 -2.02274 0
M  V30 7983 H 836.465 -3.66087 -0.193819 0
M  V30 7984 H 836.113 -4.31713 -2.58133 0
M  V30 7985 H 835.813 -5.68615 -1.48159 0
M  V30 7986 H 837.337 -5.60989 -2.4109 0
M  V30 7987 H 838.751 -5.73122 -0.142703 0
M  V30 7988 H 837.148 -5.96975 0.611673 0
M  V30 7989 H 838.218 -4.69329 1.21894 0
M  V30 7990 N 839.561 -0.251338 -1.55583 0
M  V30 7991 C 840.81 0.372681 -1.98227 0
M  V30 7992 C 841.123 1.58743 -1.1428 0
M  V30 7993 O 842.329 2.28289 -1.46957 0
M  V30 7994 C 840.785 0.714439 -3.52738 0
M  V30 7995 C 840.393 -0.479168 -4.4543 0
M  V30 7996 C 842.137 1.3024 -4.04027 0
M  V30 7997 C 840.044 -0.113318 -5.91291 0
M  V30 7998 H 838.974 0.14302 -0.740312 0
M  V30 7999 H 841.625 -0.352253 -1.80087 0
M  V30 8000 H 840.007 1.49762 -3.66589 0
M  V30 8001 H 841.181 -1.25644 -4.4334 0
M  V30 8002 H 839.496 -0.982359 -4.04646 0
M  V30 8003 H 842.093 1.58953 -5.10527 0
M  V30 8004 H 842.436 2.22837 -3.51638 0
M  V30 8005 H 842.969 0.582024 -3.93519 0
M  V30 8006 H 839.708 -1.00654 -6.47726 0
M  V30 8007 H 839.228 0.627666 -5.96507 0
M  V30 8008 H 840.907 0.30293 -6.4629 0
M  V30 8009 N 841.039 1.57585 0.0217189 0
M  V30 8010 C 842.279 1.91457 0.715803 0
M  V30 8011 C 842.643 0.850685 1.72126 0
M  V30 8012 O 843.844 1.07396 2.46413 0
M  V30 8013 C 842.115 3.30456 1.36138 0
M  V30 8014 S 843.674 3.86176 2.0836 0
M  V30 8015 H 840.492 0.67035 0.236963 0
M  V30 8016 H 843.094 1.95477 -0.0297511 0
M  V30 8017 H 841.798 4.05744 0.616465 0
M  V30 8018 H 841.329 3.29757 2.14532 0
M  V30 8019 H 843.344 3.65496 3.356 0
M  V30 8020 N 842.517 -0.29412 1.54831 0
M  V30 8021 C 843.765 -1.02643 1.74094 0
M  V30 8022 C 844.086 -1.87563 0.533402 0
M  V30 8023 O 843.356 -1.9061 -0.452192 0
M  V30 8024 H 841.936 -0.381959 0.641963 0
M  V30 8025 H 844.598 -0.323444 1.92197 0
M  V30 8026 H 843.694 -1.67558 2.63307 0
M  V30 8027 N 843.995 -1.47404 -0.557645 0
M  V30 8028 C 845.272 -1.44488 -1.31843 0
M  V30 8029 C 845.652 -0.1416 -2.10625 0
M  V30 8030 O 845 0.876908 -2.11004 0
M  V30 8031 C 845.21 -2.69016 -2.22331 0
M  V30 8032 C 846.558 -3.16212 -2.83364 0
M  V30 8033 O 847.582 -2.69741 -2.32634 0
M  V30 8034 O 846.441 -3.96999 -3.75571 0
M  V30 8035 H 843.535 -0.57578 -0.593639 0
M  V30 8036 H 846.081 -1.59605 -0.576584 0
M  V30 8037 H 844.853 -3.55406 -1.63715 0
M  V30 8038 H 844.476 -2.56484 -3.03812 0
M  V30 8039 N 845.473 0.80434 -1.35529 0
M  V30 8040 C 846.383 1.94784 -1.30753 0
M  V30 8041 C 847.399 1.72703 -0.212071 0
M  V30 8042 O 848.575 1.96494 -0.441841 0
M  V30 8043 C 845.64 3.29406 -1.08133 0
M  V30 8044 C 844.701 3.64367 -2.27013 0
M  V30 8045 C 843.934 4.92566 -2.05463 0
M  V30 8046 O 844.157 5.61166 -1.02222 0
M  V30 8047 O 843.091 5.25838 -2.92879 0
M  V30 8048 H 846.917 2.01761 -2.26994 0
M  V30 8049 H 844.502 0.942448 -1.15924 0
M  V30 8050 H 846.384 4.09995 -0.973756 0
M  V30 8051 H 845.059 3.23355 -0.149444 0
M  V30 8052 H 843.966 2.84146 -2.43335 0
M  V30 8053 H 845.299 3.75125 -3.18656 0
M  V30 8054 N 846.951 1.19563 1.02676 0
M  V30 8055 C 847.914 0.937182 2.09164 0
M  V30 8056 C 848.914 -0.0831927 1.60585 0
M  V30 8057 O 850.104 0.15178 1.73538 0
M  V30 8058 C 847.236 0.408912 3.38439 0
M  V30 8059 H 848.429 1.88164 2.33526 0
M  V30 8060 H 845.982 1.00959 1.19319 0
M  V30 8061 H 846.717 -0.541497 3.19747 0
M  V30 8062 H 846.502 1.14464 3.7502 0
M  V30 8063 H 847.992 0.247242 4.16867 0
M  V30 8064 N 848.429 -1.21819 0.999893 0
M  V30 8065 C 849.654 -1.95298 0.698094 0
M  V30 8066 C 850.079 -1.73273 -0.731982 0
M  V30 8067 O 849.437 -1.01634 -1.50134 0
M  V30 8068 C 849.485 -3.45922 1.01834 0
M  V30 8069 O 848.589 -4.12223 0.120801 0
M  V30 8070 H 847.93 -0.610729 0.260588 0
M  V30 8071 H 850.46 -1.5472 1.33876 0
M  V30 8072 H 850.47 -3.96471 0.963074 0
M  V30 8073 H 849.145 -3.61278 2.06037 0
M  V30 8074 H 847.722 -3.72177 0.232153 0
M  V30 8075 N 849.908 -0.773975 -1.37286 0
M  V30 8076 C 851.156 -0.338636 -1.99243 0
M  V30 8077 C 851.477 1.08919 -1.61746 0
M  V30 8078 O 850.747 1.74822 -0.88397 0
M  V30 8079 H 849.327 -0.12222 -0.736934 0
M  V30 8080 H 851.989 -0.992595 -1.67731 0
M  V30 8081 H 851.085 -0.418055 -3.09287 0
M  V30 8082 N 851.386 1.48609 -0.524698 0
M  V30 8083 C 852.626 2.04398 0.00938367 0
M  V30 8084 C 852.99 1.39355 1.32077 0
M  V30 8085 O 854.191 1.86 1.94055 0
M  V30 8086 C 852.462 3.57148 0.134318 0
M  V30 8087 S 854.021 4.34409 0.619227 0
M  V30 8088 H 850.839 0.710936 -0.00953362 0
M  V30 8089 H 853.441 1.82382 -0.704058 0
M  V30 8090 H 852.145 4.02022 -0.825027 0
M  V30 8091 H 851.676 3.83607 0.872296 0
M  V30 8092 H 853.691 4.59017 1.88462 0
M  V30 8093 N 852.864 0.259585 1.55447 0
M  V30 8094 C 853.814 -0.648769 2.18575 0
M  V30 8095 C 854.798 -1.1299 1.14552 0
M  V30 8096 O 855.99 -1.07756 1.4042 0
M  V30 8097 C 853.119 -1.83963 2.89849 0
M  V30 8098 C 852.205 -1.37641 4.01143 0
M  V30 8099 N 852.596 -0.628269 5.01883 0
M  V30 8100 C 850.894 -1.66066 4.1393 0
M  V30 8101 C 851.595 -0.386746 5.80413 0
M  V30 8102 N 850.571 -0.954665 5.35151 0
M  V30 8103 H 854.373 -0.0691616 2.93819 0
M  V30 8104 H 851.887 0.0624525 1.6228 0
M  V30 8105 H 853.884 -2.50151 3.33512 0
M  V30 8106 H 852.544 -2.42334 2.16112 0
M  V30 8107 H 853.555 -0.277123 5.17158 0
M  V30 8108 H 850.232 -2.25484 3.51373 0
M  V30 8109 H 851.622 0.211382 6.71567 0
M  V30 8110 N 854.342 -1.57594 -0.0133615 0
M  V30 8111 C 855.572 -1.93969 -0.711295 0
M  V30 8112 C 855.98 -0.859084 -1.68572 0
M  V30 8113 O 855.323 0.171842 -1.82894 0
M  V30 8114 C 855.385 -3.2625 -1.51001 0
M  V30 8115 C 855.049 -4.51628 -0.698645 0
M  V30 8116 C 856.046 -5.19899 0.00791185 0
M  V30 8117 C 853.731 -4.98095 -0.648553 0
M  V30 8118 C 855.725 -6.32928 0.753691 0
M  V30 8119 C 853.412 -6.11017 0.10096 0
M  V30 8120 C 854.41 -6.78289 0.800828 0
M  V30 8121 O 854.098 -7.89048 1.53814 0
M  V30 8122 H 853.83 -0.6445 -0.203951 0
M  V30 8123 H 856.384 -2.05378 0.0298267 0
M  V30 8124 H 854.614 -3.11211 -2.29531 0
M  V30 8125 H 856.303 -3.47835 -2.09202 0
M  V30 8126 H 857.069 -4.84995 -0.0217192 0
M  V30 8127 H 852.948 -4.45568 -1.18282 0
M  V30 8128 H 856.492 -6.85371 1.3005 0
M  V30 8129 H 852.389 -6.45364 0.132459 0
M  V30 8130 H 853.157 -8.05492 1.45345 0
M  V30 8131 N 855.82 0.285905 -1.54985 0
M  V30 8132 C 857.068 1.01718 -1.74636 0
M  V30 8133 C 857.389 1.87277 -0.543342 0
M  V30 8134 O 856.659 1.90847 0.442078 0
M  V30 8135 H 855.239 0.378549 -0.643979 0
M  V30 8136 H 857.901 0.313247 -1.92366 0
M  V30 8137 H 856.997 1.66159 -2.64192 0
M  V30 8138 N 857.298 1.47698 0.54982 0
M  V30 8139 C 858.544 1.54931 1.30859 0
M  V30 8140 C 858.877 0.214021 1.93017 0
M  V30 8141 O 858.152 -0.778093 1.78258 0
M  V30 8142 C 858.435 2.67286 2.41309 0
M  V30 8143 C 858.288 4.10457 1.83971 0
M  V30 8144 C 859.607 2.75509 3.43195 0
M  V30 8145 H 856.726 0.56399 0.474431 0
M  V30 8146 H 859.368 1.79787 0.614541 0
M  V30 8147 H 857.518 2.46224 3.0051 0
M  V30 8148 H 859.19 4.42903 1.28974 0
M  V30 8149 H 857.433 4.18387 1.14606 0
M  V30 8150 H 858.104 4.84857 2.63851 0
M  V30 8151 H 860.58 2.94531 2.93923 0
M  V30 8152 H 859.456 3.55886 4.17895 0
M  V30 8153 H 859.717 1.82863 4.02509 0
M  V30 8154 N 858.776 -0.797141 1.35954 0
M  V30 8155 C 859.706 -1.92387 1.32323 0
M  V30 8156 C 860.687 -1.68967 0.196007 0
M  V30 8157 O 861.872 -1.90193 0.39245 0
M  V30 8158 C 859.002 -3.29286 1.10398 0
M  V30 8159 C 857.956 -3.67212 2.19862 0
M  V30 8160 C 857.282 -5.02377 1.8309 0
M  V30 8161 C 858.582 -3.76602 3.61896 0
M  V30 8162 H 860.276 -1.95683 2.26602 0
M  V30 8163 H 857.822 -0.94007 1.09081 0
M  V30 8164 H 859.775 -4.07721 1.06495 0
M  V30 8165 H 858.499 -3.26358 0.125668 0
M  V30 8166 H 857.158 -2.91069 2.22878 0
M  V30 8167 H 856.806 -4.95961 0.838527 0
M  V30 8168 H 856.506 -5.28722 2.56372 0
M  V30 8169 H 858.03 -5.8324 1.80729 0
M  V30 8170 H 859.444 -4.45246 3.6115 0
M  V30 8171 H 857.841 -4.14425 4.34018 0
M  V30 8172 H 858.911 -2.77906 3.97361 0
M  V30 8173 N 860.254 -1.20106 -1.0204 0
M  V30 8174 C 861.482 -1.0344 -1.79186 0
M  V30 8175 C 861.897 0.416542 -1.84148 0
M  V30 8176 O 861.254 1.28925 -1.29168 0
M  V30 8177 C 861.305 -1.60663 -3.23836 0
M  V30 8178 O 861.026 -3.00079 -3.19193 0
M  V30 8179 C 862.527 -1.48897 -4.17546 0
M  V30 8180 H 859.747 -0.364093 -0.563629 0
M  V30 8181 H 862.291 -1.5911 -1.28469 0
M  V30 8182 H 860.446 -1.09122 -3.71714 0
M  V30 8183 H 860.86 -3.27162 -4.09958 0
M  V30 8184 H 862.334 -1.93703 -5.16898 0
M  V30 8185 H 862.811 -0.440843 -4.36982 0
M  V30 8186 H 863.417 -1.9961 -3.75547 0
M  V30 8187 N 861.732 1.21287 -1.00634 0
M  V30 8188 C 862.972 1.92106 -0.698194 0
M  V30 8189 C 863.336 1.76437 0.757222 0
M  V30 8190 O 864.537 2.41641 1.17741 0
M  V30 8191 C 862.808 3.39748 -1.10932 0
M  V30 8192 S 864.367 4.29013 -0.921586 0
M  V30 8193 H 861.185 0.663755 -0.254853 0
M  V30 8194 H 863.787 1.46772 -1.29145 0
M  V30 8195 H 862.491 3.48669 -2.16467 0
M  V30 8196 H 862.022 3.90101 -0.508419 0
M  V30 8197 H 864.037 4.95871 0.180578 0
M  V30 8198 N 863.21 0.781244 1.36873 0
M  V30 8199 C 864.458 0.349198 1.9906 0
M  V30 8200 C 864.779 -1.0806 1.62321 0
M  V30 8201 O 864.049 -1.74351 0.893229 0
M  V30 8202 H 862.629 0.126126 0.736275 0
M  V30 8203 H 865.291 1.00148 1.67202 0
M  V30 8204 H 864.387 0.434451 3.09061 0
M  V30 8205 N 864.689 -1.48329 0.532571 0
M  V30 8206 C 865.914 -2.074 0.00147755 0
M  V30 8207 C 866.339 -1.38615 -1.27151 0
M  V30 8208 O 865.697 -0.452949 -1.75551 0
M  V30 8209 C 865.745 -3.60029 -0.202866 0
M  V30 8210 O 864.849 -3.92327 -1.27097 0
M  V30 8211 H 864.19 -0.662777 0.0402883 0
M  V30 8212 H 866.72 -1.90701 0.741224 0
M  V30 8213 H 866.73 -4.05783 -0.424722 0
M  V30 8214 H 865.405 -4.09496 0.727033 0
M  V30 8215 H 863.982 -3.58348 -1.03156 0
M  V30 8216 N 866.167 -0.267825 -1.55308 0
M  V30 8217 C 867.407 0.352316 -2.01341 0
M  V30 8218 C 867.771 1.53593 -1.1521 0
M  V30 8219 O 868.972 2.22521 -1.50791 0
M  V30 8220 C 867.243 0.731857 -3.49827 0
M  V30 8221 S 868.802 1.33956 -4.17853 0
M  V30 8222 H 865.62 0.109927 -0.702451 0
M  V30 8223 H 868.222 -0.387955 -1.91612 0
M  V30 8224 H 866.926 -0.138561 -4.10166 0
M  V30 8225 H 866.457 1.50378 -3.63525 0
M  V30 8226 H 868.472 2.62831 -4.20874 0
M  V30 8227 N 867.645 1.57599 0.00500368 0
M  V30 8228 C 868.592 2.08106 0.998025 0
M  V30 8229 C 869.562 0.975374 1.34446 0
M  V30 8230 O 870.747 1.24749 1.44369 0
M  V30 8231 C 867.887 2.58496 2.28635 0
M  V30 8232 C 867 3.82947 1.99939 0
M  V30 8233 C 866.135 4.21857 3.22816 0
M  V30 8234 C 865.174 5.39159 2.89783 0
M  V30 8235 N 864.311 5.73386 4.05183 0
M  V30 8236 H 869.151 2.92684 0.560385 0
M  V30 8237 H 866.688 1.44692 0.265053 0
M  V30 8238 H 868.646 2.85787 3.03943 0
M  V30 8239 H 867.276 1.768 2.70077 0
M  V30 8240 H 866.328 3.62594 1.1502 0
M  V30 8241 H 867.64 4.68358 1.71588 0
M  V30 8242 H 866.794 4.50404 4.06474 0
M  V30 8243 H 865.533 3.35145 3.54301 0
M  V30 8244 H 864.538 5.1034 2.04532 0
M  V30 8245 H 865.763 6.27543 2.59551 0
M  V30 8246 H 863.709 4.89632 4.36574 0
M  V30 8247 H 863.626 6.53359 3.80339 0
M  V30 8248 H 864.894 6.06522 4.89644 0
M  V30 8249 N 869.123 -0.277682 1.55134 0
M  V30 8250 C 870.369 -1.0114 1.7578 0
M  V30 8251 C 870.702 -1.86109 0.554719 0
M  V30 8252 O 869.977 -1.89275 -0.447813 0
M  V30 8253 C 870.26 -1.89789 3.06027 0
M  V30 8254 C 870.113 -1.07844 4.3668 0
M  V30 8255 C 871.432 -2.88577 3.32282 0
M  V30 8256 H 868.551 -0.366277 0.639539 0
M  V30 8257 H 871.193 -0.284155 1.87863 0
M  V30 8258 H 869.343 -2.51796 2.95856 0
M  V30 8259 H 871.015 -0.479432 4.58802 0
M  V30 8260 H 869.258 -0.381764 4.32117 0
M  V30 8261 H 869.929 -1.73179 5.24131 0
M  V30 8262 H 872.405 -2.36702 3.42215 0
M  V30 8263 H 871.281 -3.47749 4.2469 0
M  V30 8264 H 871.542 -3.63458 2.51696 0
M  V30 8265 N 870.601 -1.47988 -0.541979 0
M  V30 8266 C 871.848 -1.55393 -1.29843 0
M  V30 8267 C 872.176 -0.222668 -1.93221 0
M  V30 8268 O 871.431 0.785936 -1.79225 0
M  V30 8269 C 871.73 -2.63189 -2.41798 0
M  V30 8270 C 871.396 -4.05999 -1.96151 0
M  V30 8271 C 870.058 -4.44872 -1.83419 0
M  V30 8272 C 872.41 -4.95545 -1.61507 0
M  V30 8273 C 869.738 -5.71108 -1.34361 0
M  V30 8274 C 872.09 -6.22259 -1.13915 0
M  V30 8275 C 870.754 -6.59998 -0.997911 0
M  V30 8276 H 870.024 -0.568623 -0.47513 0
M  V30 8277 H 872.671 -1.81654 -0.606142 0
M  V30 8278 H 870.976 -2.30743 -3.16647 0
M  V30 8279 H 872.673 -2.66138 -2.99953 0
M  V30 8280 H 869.263 -3.75294 -2.07008 0
M  V30 8281 H 873.447 -4.662 -1.70209 0
M  V30 8282 H 868.703 -5.99083 -1.22103 0
M  V30 8283 H 872.877 -6.91048 -0.861755 0
M  V30 8284 H 870.504 -7.57704 -0.615561 0
M  V30 8285 N 872.079 0.78992 -1.36375 0
M  V30 8286 C 873.326 1.54777 -1.30576 0
M  V30 8287 C 873.654 1.94159 0.115095 0
M  V30 8288 O 872.909 1.62918 1.08426 0
M  V30 8289 C 873.208 2.83698 -2.17371 0
M  V30 8290 C 872.874 2.63457 -3.65925 0
M  V30 8291 C 871.536 2.57645 -4.06415 0
M  V30 8292 C 873.888 2.44833 -4.60115 0
M  V30 8293 C 871.216 2.31174 -5.39236 0
M  V30 8294 C 873.568 2.19889 -5.93154 0
M  V30 8295 C 872.232 2.1251 -6.32768 0
M  V30 8296 H 871.502 0.566371 -0.477813 0
M  V30 8297 H 874.149 0.91138 -1.68422 0
M  V30 8298 H 872.454 3.51802 -1.72459 0
M  V30 8299 H 874.151 3.41487 -2.10209 0
M  V30 8300 H 870.741 2.68836 -3.33804 0
M  V30 8301 H 874.925 2.48325 -4.29707 0
M  V30 8302 H 870.181 2.23942 -5.68911 0
M  V30 8303 H 874.355 2.04473 -6.65705 0
M  V30 8304 H 871.982 1.91761 -7.35616 0
M  V30 8305 N 873.557 1.20646 1.01402 0
M  V30 8306 C 874.504 0.957618 2.09996 0
M  V30 8307 C 875.474 -0.113115 1.65714 0
M  V30 8308 O 876.659 0.032142 1.90773 0
M  V30 8309 C 873.799 0.5186 3.41181 0
M  V30 8310 C 872.912 1.65777 3.98926 0
M  V30 8311 C 872.047 1.16881 5.18182 0
M  V30 8312 C 871.086 2.2809 5.68015 0
M  V30 8313 N 870.223 1.80392 6.7853 0
M  V30 8314 H 875.063 1.88732 2.30617 0
M  V30 8315 H 872.6 0.940703 1.13089 0
M  V30 8316 H 874.558 0.245367 4.16478 0
M  V30 8317 H 873.188 -0.3741 3.20625 0
M  V30 8318 H 872.24 2.04586 3.207 0
M  V30 8319 H 873.552 2.49507 4.31912 0
M  V30 8320 H 872.706 0.851694 6.00692 0
M  V30 8321 H 871.445 0.301434 4.86768 0
M  V30 8322 H 870.45 2.60614 4.84108 0
M  V30 8323 H 871.675 3.15308 6.01463 0
M  V30 8324 H 869.621 0.959856 6.4894 0
M  V30 8325 H 869.538 2.57701 7.10722 0
M  V30 8326 H 870.806 1.51688 7.64598 0
M  V30 8327 N 875.035 -1.20752 1.01276 0
M  V30 8328 C 876.451 -1.42084 0.726934 0
M  V30 8329 C 876.651 -1.89138 -0.694907 0
M  V30 8330 O 875.707 -2.05783 -1.4632 0
M  V30 8331 C 877.02 -2.44575 1.74938 0
M  V30 8332 C 878.568 -2.58347 1.76708 0
M  V30 8333 C 879.043 -3.64078 2.77869 0
M  V30 8334 N 880.534 -3.71558 2.76585 0
M  V30 8335 C 881.269 -4.53016 3.51517 0
M  V30 8336 N 880.765 -5.38309 4.36114 0
M  V30 8337 N 882.558 -4.47512 3.40132 0
M  V30 8338 H 874.709 -0.885228 1.93074 0
M  V30 8339 H 876.972 -0.451075 0.833808 0
M  V30 8340 H 876.678 -2.1699 2.76782 0
M  V30 8341 H 876.552 -3.43503 1.55838 0
M  V30 8342 H 878.939 -2.85265 0.755516 0
M  V30 8343 H 879.02 -1.59628 1.99882 0
M  V30 8344 H 878.664 -3.37905 3.79187 0
M  V30 8345 H 878.594 -4.62412 2.51958 0
M  V30 8346 H 881.085 -3.10629 2.15216 0
M  V30 8347 H 881.398 -5.9754 4.90068 0
M  V30 8348 H 879.743 -5.37824 4.40194 0
M  V30 8349 H 882.934 -3.79912 2.73467 0
M  V30 8350 H 883.107 -5.10759 3.98784 0
M  V30 8351 N 876.513 -0.788492 -1.36457 0
M  V30 8352 C 877.476 -0.192209 -2.28393 0
M  V30 8353 C 878.476 0.609916 -1.48784 0
M  V30 8354 O 879.666 0.431046 -1.68783 0
M  V30 8355 C 876.798 0.734096 -3.32902 0
M  V30 8356 H 877.991 -1.00284 -2.82636 0
M  V30 8357 H 875.544 -0.557852 -1.46006 0
M  V30 8358 H 876.279 1.5691 -2.83813 0
M  V30 8359 H 876.064 0.160875 -3.9177 0
M  V30 8360 H 877.554 1.1462 -4.01562 0
M  V30 8361 N 877.991 1.48044 -0.54043 0
M  V30 8362 C 878.924 2.26667 0.264083 0
M  V30 8363 C 879.902 1.32996 0.935456 0
M  V30 8364 O 881.086 1.62354 0.95778 0
M  V30 8365 C 878.213 3.09541 1.37485 0
M  V30 8366 C 877.259 4.18664 0.813792 0
M  V30 8367 S 878.092 5.34503 -0.326536 0
M  V30 8368 C 879.248 6.20939 0.786452 0
M  V30 8369 H 879.481 2.94554 -0.403129 0
M  V30 8370 H 877.014 1.5091 -0.326415 0
M  V30 8371 H 878.972 3.57863 2.01107 0
M  V30 8372 H 877.633 2.41048 2.01382 0
M  V30 8373 H 876.826 4.76316 1.6474 0
M  V30 8374 H 876.428 3.73136 0.254066 0
M  V30 8375 H 878.72 6.56273 1.68262 0
M  V30 8376 H 879.663 7.07667 0.247673 0
M  V30 8377 H 880.071 5.54236 1.07156 0
M  V30 8378 N 879.47 0.276058 1.55163 0
M  V30 8379 C 880.38 -0.621066 2.2623 0
M  V30 8380 C 881.396 -1.16931 1.28853 0
M  V30 8381 O 882.572 -1.1994 1.61791 0
M  V30 8382 C 879.637 -1.78824 2.97023 0
M  V30 8383 C 878.698 -1.27657 4.09881 0
M  V30 8384 C 877.931 -2.38812 4.77289 0
M  V30 8385 O 878.154 -3.58188 4.43912 0
M  V30 8386 O 877.088 -2.06915 5.65217 0
M  V30 8387 H 880.914 -0.0453346 3.03666 0
M  V30 8388 H 878.499 0.0434275 1.49337 0
M  V30 8389 H 880.381 -2.46877 3.41511 0
M  V30 8390 H 879.056 -2.35104 2.22503 0
M  V30 8391 H 877.963 -0.56248 3.69847 0
M  V30 8392 H 879.296 -0.759509 4.86305 0
M  V30 8393 N 880.948 -1.576 0.00335426 0
M  V30 8394 C 882.196 -1.90336 -0.679446 0
M  V30 8395 C 882.517 -0.877777 -1.74127 0
M  V30 8396 O 881.787 0.0843585 -1.95718 0
M  V30 8397 H 880.367 -0.702509 -0.253948 0
M  V30 8398 H 883.029 -1.94848 0.0450731 0
M  V30 8399 H 882.125 -2.90197 -1.14857 0
M  V30 8400 N 882.426 0.269451 -1.5528 0
M  V30 8401 C 883.358 1.35553 -1.84819 0
M  V30 8402 C 884.371 1.45369 -0.732914 0
M  V30 8403 O 885.56 1.47122 -1.0108 0
M  V30 8404 C 882.66 2.73645 -1.9993 0
M  V30 8405 C 881.833 2.86376 -3.30617 0
M  V30 8406 C 880.892 4.05165 -3.35749 0
M  V30 8407 O 879.918 3.95756 -4.09104 0
M  V30 8408 N 881.12 5.17297 -2.63408 0
M  V30 8409 H 883.885 1.10557 -2.78563 0
M  V30 8410 H 881.446 0.459566 -1.5524 0
M  V30 8411 H 883.438 3.51411 -2.00729 0
M  V30 8412 H 882.008 2.91448 -1.13035 0
M  V30 8413 H 881.228 1.95465 -3.42326 0
M  V30 8414 H 882.516 2.91815 -4.16799 0
M  V30 8415 H 881.914 5.2783 -2.03501 0
M  V30 8416 H 880.471 5.93281 -2.69927 0
M  V30 8417 N 883.904 1.48273 0.534124 0
M  V30 8418 C 884.854 1.58889 1.63519 0
M  V30 8419 C 885.838 0.44626 1.54588 0
M  V30 8420 O 887.03 0.697474 1.62679 0
M  V30 8421 C 884.159 1.62787 3.0225 0
M  V30 8422 C 883.245 2.82515 3.16301 0
M  V30 8423 N 883.636 4.06977 3.00338 0
M  V30 8424 C 881.934 2.7976 3.47347 0
M  V30 8425 C 882.635 4.87283 3.17694 0
M  V30 8426 N 881.611 4.20024 3.45081 0
M  V30 8427 H 885.413 2.52869 1.49781 0
M  V30 8428 H 882.927 1.44587 0.739479 0
M  V30 8429 H 884.924 1.68486 3.81337 0
M  V30 8430 H 883.584 0.699201 3.17082 0
M  V30 8431 H 884.595 4.37479 2.77186 0
M  V30 8432 H 881.272 1.96132 3.68563 0
M  V30 8433 H 882.662 5.96047 3.10126 0
M  V30 8434 N 885.382 -0.782676 1.36792 0
M  V30 8435 C 886.33 -1.91698 1.31737 0
M  V30 8436 C 887.324 -1.68118 0.207994 0
M  V30 8437 O 888.53 -1.76042 0.375393 0
M  V30 8438 H 884.905 -0.630215 0.410284 0
M  V30 8439 H 886.876 -1.93078 2.27516 0
M  V30 8440 C 885.625 -3.28816 1.13029 0
M  V30 8441 H 884.948 -3.4753 1.97643 0
M  V30 8442 H 886.388 -4.08515 1.13541 0
M  V30 8443 C 884.847 -3.36497 -0.1647 0
M  V30 8444 O 885.377 -3.84822 -1.15216 0
M  V30 8445 N 883.583 -2.89828 -0.211678 0
M  V30 8446 H 883.13 -2.50693 0.59252 0
M  V30 8447 H 883.088 -2.95349 -1.07779 0
M  V30 8448 N 886.86 -1.21182 -1.00761 0
M  V30 8449 C 888.09 -1.05182 -1.77821 0
M  V30 8450 C 888.498 0.401527 -1.8489 0
M  V30 8451 O 887.841 1.29042 -1.30743 0
M  V30 8452 C 887.903 -1.57066 -3.23374 0
M  V30 8453 C 887.567 -3.05491 -3.39889 0
M  V30 8454 C 888.564 -4.03065 -3.28381 0
M  V30 8455 C 886.249 -3.44641 -3.65415 0
M  V30 8456 C 888.243 -5.37778 -3.4216 0
M  V30 8457 C 885.93 -4.79507 -3.78836 0
M  V30 8458 C 886.928 -5.75884 -3.67214 0
M  V30 8459 O 886.616 -7.08304 -3.80212 0
M  V30 8460 H 886.348 -0.369983 -0.565763 0
M  V30 8461 H 888.902 -1.60914 -1.27655 0
M  V30 8462 H 887.132 -0.957273 -3.74664 0
M  V30 8463 H 888.821 -1.36949 -3.82099 0
M  V30 8464 H 889.587 -3.74163 -3.08588 0
M  V30 8465 H 885.466 -2.7016 -3.73544 0
M  V30 8466 H 889.01 -6.12987 -3.33005 0
M  V30 8467 H 884.907 -5.08096 -3.98132 0
M  V30 8468 H 885.675 -7.15677 -3.97175 0
M  V30 8469 N 888.338 1.20213 -1.01915 0
M  V30 8470 C 889.268 2.25336 -0.612023 0
M  V30 8471 C 890.249 1.65933 0.374186 0
M  V30 8472 O 891.434 1.92464 0.259053 0
M  V30 8473 C 888.564 3.47267 0.047904 0
M  V30 8474 C 887.518 4.1928 -0.859557 0
M  V30 8475 C 886.844 5.3466 -0.0652655 0
M  V30 8476 C 888.144 4.75143 -2.1688 0
M  V30 8477 H 889.838 2.59645 -1.49079 0
M  V30 8478 H 887.384 1.24808 -0.718263 0
M  V30 8479 H 889.337 4.19991 0.344294 0
M  V30 8480 H 888.061 3.12129 0.961404 0
M  V30 8481 H 886.72 3.48425 -1.13999 0
M  V30 8482 H 886.368 4.95767 0.849964 0
M  V30 8483 H 886.068 5.83772 -0.669618 0
M  V30 8484 H 887.592 6.10187 0.224612 0
M  V30 8485 H 889.006 5.39672 -1.9346 0
M  V30 8486 H 887.403 5.34702 -2.72422 0
M  V30 8487 H 888.473 3.93744 -2.83008 0
M  V30 8488 N 889.816 0.795718 1.36037 0
M  V30 8489 C 891.056 0.376514 2.00902 0
M  V30 8490 C 891.42 -1.03405 1.61776 0
M  V30 8491 O 892.621 -1.55468 2.19279 0
M  V30 8492 C 890.892 0.542086 3.53265 0
M  V30 8493 S 892.451 0.211694 4.38289 0
M  V30 8494 H 889.269 0.143527 0.696363 0
M  V30 8495 H 891.871 1.03559 1.65819 0
M  V30 8496 H 890.575 1.56888 3.79229 0
M  V30 8497 H 890.106 -0.132698 3.93176 0
M  V30 8498 H 892.121 -0.98452 4.86335 0
M  V30 8499 N 891.294 -1.47756 0.548274 0
M  V30 8500 C 892.257 -2.28379 -0.193857 0
M  V30 8501 C 893.257 -1.36436 -0.850986 0
M  V30 8502 O 894.447 -1.59154 -0.70822 0
M  V30 8503 C 891.579 -3.15858 -1.28243 0
M  V30 8504 H 892.772 -2.95458 0.514231 0
M  V30 8505 H 890.325 -1.53298 0.304879 0
M  V30 8506 H 891.06 -2.5345 -2.0232 0
M  V30 8507 H 890.845 -3.83512 -0.816148 0
M  V30 8508 H 892.335 -3.76627 -1.80393 0
M  V30 8509 N 892.772 -0.284283 -1.55015 0
M  V30 8510 C 894.02 0.329212 -1.99401 0
M  V30 8511 C 894.341 1.55687 -1.17416 0
M  V30 8512 O 893.611 1.94087 -0.265937 0
M  V30 8513 H 892.191 0.12463 -0.73653 0
M  V30 8514 H 894.853 -0.391743 -1.90922 0
M  V30 8515 H 893.949 0.61278 -3.06025 0
M  V30 8516 N 894.251 1.57596 -0.0117121 0
M  V30 8517 C 895.667 1.55837 0.344506 0
M  V30 8518 C 895.867 1.01557 1.74036 0
M  V30 8519 O 894.923 0.654563 2.43868 0
M  V30 8520 C 896.236 2.99973 0.209023 0
M  V30 8521 C 897.784 3.11717 0.283092 0
M  V30 8522 C 898.259 4.57659 0.176599 0
M  V30 8523 N 899.75 4.62608 0.234133 0
M  V30 8524 C 900.485 5.73132 0.175252 0
M  V30 8525 N 899.981 6.92768 0.0662888 0
M  V30 8526 N 901.774 5.61638 0.227972 0
M  V30 8527 H 893.925 1.91215 -0.924692 0
M  V30 8528 H 896.188 0.878807 -0.355531 0
M  V30 8529 H 895.894 3.4357 -0.751826 0
M  V30 8530 H 895.768 3.64075 0.98635 0
M  V30 8531 H 898.155 2.68043 1.23439 0
M  V30 8532 H 898.236 2.50369 -0.52431 0
M  V30 8533 H 897.88 5.02011 -0.771205 0
M  V30 8534 H 897.81 5.16967 1.00264 0
M  V30 8535 H 900.301 3.76549 0.319203 0
M  V30 8536 H 900.614 7.72795 0.0275765 0
M  V30 8537 H 898.959 6.94993 0.0317502 0
M  V30 8538 H 902.15 4.67063 0.311377 0
M  V30 8539 H 902.323 6.47754 0.178621 0
M  V30 8540 N 895.729 -0.261212 1.5542 0
M  V30 8541 C 896.677 -1.34298 1.89913 0
M  V30 8542 C 897.671 -1.50547 0.776665 0
M  V30 8543 O 898.877 -1.52191 0.961139 0
M  V30 8544 H 895.252 -0.4494 0.602946 0
M  V30 8545 H 897.223 -1.02464 2.80256 0
M  V30 8546 C 895.972 -2.69423 2.19788 0
M  V30 8547 H 895.295 -2.57715 3.05652 0
M  V30 8548 H 896.735 -3.44026 2.47835 0
M  V30 8549 C 895.194 -3.21423 1.00939 0
M  V30 8550 O 895.724 -4.00921 0.250034 0
M  V30 8551 N 893.93 -2.7926 0.803883 0
M  V30 8552 H 893.477 -2.14724 1.42308 0
M  V30 8553 H 893.435 -3.14398 0.0103257 0
M  V30 8554 N 897.207 -1.48554 -0.526253 0
M  V30 8555 C 898.484 -1.47252 -1.28748 0
M  V30 8556 C 898.864 -0.186245 -2.10277 0
M  V30 8557 O 898.212 0.831954 -2.12816 0
M  V30 8558 C 898.422 -2.73672 -2.16575 0
M  V30 8559 C 899.77 -3.22151 -2.76593 0
M  V30 8560 O 900.794 -2.74614 -2.2686 0
M  V30 8561 O 899.653 -4.04877 -3.67066 0
M  V30 8562 H 896.747 -0.588242 -0.581292 0
M  V30 8563 H 899.293 -1.60792 -0.5426 0
M  V30 8564 H 898.065 -3.58798 -1.56139 0
M  V30 8565 H 897.688 -2.6287 -2.98304 0
M  V30 8566 N 898.685 0.775411 -1.37205 0
M  V30 8567 C 899.925 1.54689 -1.33606 0
M  V30 8568 C 900.289 1.91834 0.0798549 0
M  V30 8569 O 901.49 2.67722 0.240531 0
M  V30 8570 C 899.761 2.7804 -2.24563 0
M  V30 8571 S 901.32 3.68143 -2.38781 0
M  V30 8572 H 898.138 0.529631 -0.474355 0
M  V30 8573 H 900.74 0.912128 -1.72918 0
M  V30 8574 H 899.444 2.48825 -3.26365 0
M  V30 8575 H 898.975 3.46479 -1.86322 0
M  V30 8576 H 900.99 4.69843 -1.59568 0
M  V30 8577 N 900.163 1.21714 1.00117 0
M  V30 8578 C 901.412 1.03087 1.73367 0
M  V30 8579 C 901.725 -0.435532 1.90689 0
M  V30 8580 O 902.931 -0.741291 2.61184 0
M  V30 8581 C 901.387 1.79593 3.11888 0
M  V30 8582 C 900.995 3.30428 3.02525 0
M  V30 8583 C 902.739 1.69386 3.89241 0
M  V30 8584 C 900.646 3.99408 4.3615 0
M  V30 8585 H 899.576 0.382117 0.650002 0
M  V30 8586 H 902.227 1.45486 1.11831 0
M  V30 8587 H 900.609 1.29988 3.74058 0
M  V30 8588 H 901.783 3.87364 2.49571 0
M  V30 8589 H 900.098 3.4122 2.38659 0
M  V30 8590 H 902.695 2.18251 4.8813 0
M  V30 8591 H 903.038 0.652773 4.1115 0
M  V30 8592 H 903.571 2.16489 3.33733 0
M  V30 8593 H 900.31 5.03735 4.19442 0
M  V30 8594 H 899.83 3.47261 4.8905 0
M  V30 8595 H 901.509 4.04537 5.04934 0
M  V30 8596 N 901.641 -1.19671 1.02551 0
M  V30 8597 C 902.887 -1.89548 0.721069 0
M  V30 8598 C 903.22 -1.79209 -0.748176 0
M  V30 8599 O 902.495 -1.1822 -1.54448 0
M  V30 8600 C 902.778 -3.4061 1.16861 0
M  V30 8601 C 902.631 -3.59838 2.69883 0
M  V30 8602 C 903.95 -4.33718 0.746782 0
M  V30 8603 H 901.069 -0.688315 0.263422 0
M  V30 8604 H 903.711 -1.40883 1.27483 0
M  V30 8605 H 901.861 -3.82188 0.697477 0
M  V30 8606 H 903.533 -3.27454 3.24917 0
M  V30 8607 H 901.776 -3.03005 3.10435 0
M  V30 8608 H 902.447 -4.65766 2.96253 0
M  V30 8609 H 904.923 -3.99837 1.15195 0
M  V30 8610 H 903.799 -5.38012 1.08786 0
M  V30 8611 H 904.06 -4.40704 -0.351057 0
M  V30 8612 N 903.119 -0.802921 -1.35613 0
M  V30 8613 C 904.396 -0.304993 -1.93208 0
M  V30 8614 C 904.776 1.20488 -1.73337 0
M  V30 8615 O 904.124 2.00268 -1.10022 0
M  V30 8616 C 904.334 -0.712383 -3.41652 0
M  V30 8617 C 905.682 -0.699785 -4.18794 0
M  V30 8618 O 906.706 -0.653698 -3.5015 0
M  V30 8619 O 905.565 -0.754842 -5.41262 0
M  V30 8620 H 902.659 -0.0789127 -0.823226 0
M  V30 8621 H 905.205 -0.886372 -1.44712 0
M  V30 8622 H 903.977 -1.75316 -3.49829 0
M  V30 8623 H 903.6 -0.105614 -3.9746 0
M  V30 8624 N 904.597 1.47463 -0.556102 0
M  V30 8625 C 905.544 2.29998 0.192213 0
M  V30 8626 C 906.514 1.38993 0.909403 0
M  V30 8627 O 907.699 1.67954 0.905316 0
M  V30 8628 C 904.839 3.22932 1.21692 0
M  V30 8629 C 903.952 4.29027 0.505908 0
M  V30 8630 C 903.087 5.09114 1.51581 0
M  V30 8631 C 902.126 6.06984 0.789714 0
M  V30 8632 N 901.263 6.80033 1.74639 0
M  V30 8633 H 906.103 2.93468 -0.517734 0
M  V30 8634 H 903.64 1.44654 -0.267147 0
M  V30 8635 H 905.598 3.75234 1.8236 0
M  V30 8636 H 904.228 2.61329 1.89491 0
M  V30 8637 H 903.28 3.7979 -0.215276 0
M  V30 8638 H 904.592 4.9876 -0.062958 0
M  V30 8639 H 903.746 5.6556 2.19606 0
M  V30 8640 H 902.485 4.3928 2.11859 0
M  V30 8641 H 901.49 5.49717 0.0955382 0
M  V30 8642 H 902.715 6.78827 0.192688 0
M  V30 8643 H 900.661 6.12931 2.33777 0
M  V30 8644 H 900.578 7.45933 1.22965 0
M  V30 8645 H 901.846 7.41054 2.41782 0
M  V30 8646 N 906.075 0.2925 1.54862 0
M  V30 8647 C 907.324 -0.319994 1.99146 0
M  V30 8648 C 907.637 -1.55658 1.18448 0
M  V30 8649 O 908.843 -2.24312 1.52959 0
M  V30 8650 C 907.299 -0.620665 3.54508 0
M  V30 8651 C 906.907 0.597098 4.44003 0
M  V30 8652 C 908.651 -1.19482 4.07338 0
M  V30 8653 C 906.558 0.270049 5.90783 0
M  V30 8654 H 905.488 -0.123342 0.743843 0
M  V30 8655 H 908.139 0.399876 1.7909 0
M  V30 8656 H 906.521 -1.3999 3.7043 0
M  V30 8657 H 907.695 1.37354 4.39853 0
M  V30 8658 H 906.01 1.0893 4.019 0
M  V30 8659 H 908.607 -1.45362 5.14562 0
M  V30 8660 H 908.95 -2.13435 3.57423 0
M  V30 8661 H 909.483 -0.477485 3.94924 0
M  V30 8662 H 906.222 1.17791 6.4483 0
M  V30 8663 H 905.742 -0.469292 5.97961 0
M  V30 8664 H 907.421 -0.131471 6.46866 0
M  V30 8665 N 907.553 -1.57587 0.0200696 0
M  V30 8666 C 908.969 -1.56018 -0.336237 0
M  V30 8667 C 909.169 -1.02478 -1.73495 0
M  V30 8668 O 908.225 -0.667487 -2.43518 0
M  V30 8669 C 909.538 -3.00079 -0.193112 0
M  V30 8670 C 911.086 -3.11863 -0.266557 0
M  V30 8671 C 911.561 -4.57747 -0.152326 0
M  V30 8672 N 913.052 -4.62726 -0.209596 0
M  V30 8673 C 913.787 -5.73217 -0.144855 0
M  V30 8674 N 913.283 -6.92794 -0.0295487 0
M  V30 8675 N 915.076 -5.61751 -0.198184 0
M  V30 8676 H 907.227 -1.90722 0.93482 0
M  V30 8677 H 909.49 -0.876909 0.360186 0
M  V30 8678 H 909.196 -3.43167 0.770036 0
M  V30 8679 H 909.07 -3.64593 -0.967029 0
M  V30 8680 H 911.457 -2.68693 -1.22016 0
M  V30 8681 H 911.538 -2.50087 0.53758 0
M  V30 8682 H 911.182 -5.01595 0.797817 0
M  V30 8683 H 911.112 -5.17491 -0.97521 0
M  V30 8684 H 913.603 -3.76713 -0.299229 0
M  V30 8685 H 913.916 -7.72799 0.0134071 0
M  V30 8686 H 912.261 -6.95 0.00510737 0
M  V30 8687 H 915.452 -4.67222 -0.286603 0
M  V30 8688 H 915.625 -6.47839 -0.144266 0
M  V30 8689 N 909.032 0.252966 -1.55557 0
M  V30 8690 C 910.448 0.60118 -1.47844 0
M  V30 8691 C 910.648 1.88612 -0.709055 0
M  V30 8692 O 909.704 2.51395 -0.235964 0
M  V30 8693 C 911.017 0.709539 -2.92209 0
M  V30 8694 C 912.565 0.802269 -3.02544 0
M  V30 8695 C 913.04 0.94224 -4.48203 0
M  V30 8696 N 914.531 1.00726 -4.52116 0
M  V30 8697 C 915.266 1.13472 -5.6206 0
M  V30 8698 N 914.762 1.22811 -6.81828 0
M  V30 8699 N 916.555 1.1674 -5.49844 0
M  V30 8700 H 908.706 -0.590635 -2.04023 0
M  V30 8701 H 910.969 -0.202986 -0.926013 0
M  V30 8702 H 910.675 -0.164505 -3.51315 0
M  V30 8703 H 910.549 1.58343 -3.42356 0
M  V30 8704 H 912.936 1.66677 -2.43522 0
M  V30 8705 H 913.017 -0.0966469 -2.55617 0
M  V30 8706 H 912.661 0.0823209 -5.07833 0
M  V30 8707 H 912.591 1.85611 -4.92805 0
M  V30 8708 H 915.082 0.946684 -3.6585 0
M  V30 8709 H 915.395 1.32426 -7.61369 0
M  V30 8710 H 913.74 1.19779 -6.84601 0
M  V30 8711 H 916.931 1.09089 -4.55211 0
M  V30 8712 H 917.104 1.26329 -6.35567 0
M  V30 8713 N 910.51 1.48831 0.518367 0
M  V30 8714 C 911.457 1.64216 1.62178 0
M  V30 8715 C 912.427 0.483942 1.58894 0
M  V30 8716 O 913.612 0.708857 1.77144 0
M  V30 8717 C 910.752 1.69867 3.00399 0
M  V30 8718 C 909.865 2.96875 3.1383 0
M  V30 8719 C 909 2.93613 4.42679 0
M  V30 8720 C 908.039 4.15276 4.4968 0
M  V30 8721 N 907.176 4.10024 5.69934 0
M  V30 8722 H 912.016 2.58439 1.48368 0
M  V30 8723 H 909.553 1.28154 0.722152 0
M  V30 8724 H 911.511 1.71124 3.8049 0
M  V30 8725 H 910.141 0.791249 3.12952 0
M  V30 8726 H 909.193 3.0531 2.26914 0
M  V30 8727 H 910.505 3.86863 3.14863 0
M  V30 8728 H 909.659 2.93337 5.31073 0
M  V30 8729 H 908.398 2.01375 4.44184 0
M  V30 8730 H 907.403 4.15816 3.59691 0
M  V30 8731 H 908.628 5.08687 4.49904 0
M  V30 8732 H 906.574 3.20613 5.72314 0
M  V30 8733 H 906.491 4.93728 5.72511 0
M  V30 8734 H 907.759 4.13824 6.60583 0
M  V30 8735 N 911.988 -0.768124 1.37614 0
M  V30 8736 C 912.936 -1.9029 1.33763 0
M  V30 8737 C 913.93 -1.67888 0.225814 0
M  V30 8738 O 915.136 -1.75634 0.394043 0
M  V30 8739 H 911.511 -0.625828 0.416945 0
M  V30 8740 H 913.482 -1.90654 2.29551 0
M  V30 8741 C 912.231 -3.27598 1.16511 0
M  V30 8742 H 911.554 -3.45414 2.01318 0
M  V30 8743 H 912.994 -4.07288 1.17867 0
M  V30 8744 C 911.453 -3.36653 -0.129001 0
M  V30 8745 O 911.983 -3.86023 -1.11128 0
M  V30 8746 N 910.189 -2.90036 -0.180926 0
M  V30 8747 H 909.736 -2.5005 0.619076 0
M  V30 8748 H 909.694 -2.96475 -1.04641 0
M  V30 8749 N 913.466 -1.22244 -0.994698 0
M  V30 8750 C 914.706 -1.05747 -1.7492 0
M  V30 8751 C 915.07 0.4007 -1.87772 0
M  V30 8752 O 916.271 0.686469 -2.59887 0
M  V30 8753 C 914.542 -1.7471 -3.11787 0
M  V30 8754 S 916.101 -1.73604 -4.02998 0
M  V30 8755 H 912.919 -0.378731 -0.601734 0
M  V30 8756 H 915.521 -1.55155 -1.18942 0
M  V30 8757 H 914.225 -2.79972 -3.00073 0
M  V30 8758 H 913.756 -1.25525 -3.72836 0
M  V30 8759 H 915.771 -0.784445 -4.8996 0
M  V30 8760 N 914.944 1.19125 -1.03184 0
M  V30 8761 C 916.355 1.70564 -0.759264 0
M  V30 8762 C 916.706 1.8248 0.720794 0
M  V30 8763 O 915.831 1.49804 1.56166 0
M  V30 8764 C 916.426 3.09793 -1.37163 0
M  V30 8765 C 914.985 3.5848 -1.14757 0
M  V30 8766 C 914.132 2.35265 -1.46784 0
M  V30 8767 H 917.083 1.03925 -1.19939 0
M  V30 8768 H 917.104 3.72624 -0.77015 0
M  V30 8769 H 916.616 3.01088 -2.44882 0
M  V30 8770 H 914.717 3.72494 -0.0887182 0
M  V30 8771 H 914.83 4.42426 -1.83836 0
M  V30 8772 H 913.194 2.38747 -0.887254 0
M  V30 8773 H 913.977 2.29188 -2.55593 0
M  V30 8774 N 916.422 0.810101 1.35185 0
M  V30 8775 C 917.385 0.22852 2.28058 0
M  V30 8776 C 918.385 -0.586168 1.49735 0
M  V30 8777 O 919.575 -0.40414 1.69447 0
M  V30 8778 C 916.707 -0.681041 3.34028 0
M  V30 8779 H 917.9 1.04768 2.81005 0
M  V30 8780 H 915.453 0.58101 1.451 0
M  V30 8781 H 916.188 -1.52375 2.86273 0
M  V30 8782 H 915.973 -0.0985276 3.91976 0
M  V30 8783 H 917.463 -1.08217 4.03335 0
M  V30 8784 N 917.9 -1.47166 0.563914 0
M  V30 8785 C 919.14 -2.04351 0.0448121 0
M  V30 8786 C 919.504 -1.42808 -1.28336 0
M  V30 8787 O 920.705 -1.91079 -1.89056 0
M  V30 8788 C 918.976 -3.57378 -0.0395795 0
M  V30 8789 S 920.535 -4.35898 -0.503833 0
M  V30 8790 H 917.353 -0.710433 0.0283795 0
M  V30 8791 H 919.955 -1.80451 0.752166 0
M  V30 8792 H 918.659 -3.99693 0.931326 0
M  V30 8793 H 918.19 -3.85785 -0.770282 0
M  V30 8794 H 920.205 -4.63852 -1.76225 0
M  V30 8795 N 919.378 -0.300708 -1.54705 0
M  V30 8796 C 920.794 0.0526874 -1.59513 0
M  V30 8797 C 920.994 1.52444 -1.31769 0
M  V30 8798 O 920.05 2.27716 -1.09096 0
M  V30 8799 C 921.363 -0.344989 -2.98714 0
M  V30 8800 C 922.911 -0.29373 -3.11619 0
M  V30 8801 C 923.386 -0.666225 -4.53129 0
M  V30 8802 N 924.877 -0.618749 -4.59049 0
M  V30 8803 C 925.612 -0.879447 -5.66616 0
M  V30 8804 N 925.108 -1.2061 -6.82221 0
M  V30 8805 N 926.901 -0.806528 -5.56284 0
M  V30 8806 H 919.052 -1.25988 -1.71 0
M  V30 8807 H 921.315 -0.510758 -0.798643 0
M  V30 8808 H 921.021 -1.36953 -3.2394 0
M  V30 8809 H 920.895 0.301507 -3.75993 0
M  V30 8810 H 923.282 0.72156 -2.86142 0
M  V30 8811 H 923.363 -0.974844 -2.36496 0
M  V30 8812 H 923.007 -1.67932 -4.79334 0
M  V30 8813 H 922.937 0.0369575 -5.26587 0
M  V30 8814 H 925.428 -0.377202 -3.76013 0
M  V30 8815 H 925.741 -1.391 -7.60178 0
M  V30 8816 H 924.086 -1.24413 -6.83774 0
M  V30 8817 H 927.277 -0.550993 -4.64846 0
M  V30 8818 H 927.45 -1.01307 -6.40032 0
M  V30 8819 N 920.856 1.57574 -0.0284266 0
M  V30 8820 C 921.786 2.1321 0.952039 0
M  V30 8821 C 922.767 1.04806 1.33977 0
M  V30 8822 O 923.952 1.32635 1.41851 0
M  V30 8823 C 921.082 2.65862 2.23461 0
M  V30 8824 C 920.036 3.79047 1.98765 0
M  V30 8825 C 919.362 4.18124 3.33281 0
M  V30 8826 C 920.662 5.05151 1.32739 0
M  V30 8827 H 922.356 2.95385 0.488705 0
M  V30 8828 H 919.902 1.42092 0.233628 0
M  V30 8829 H 921.855 3.03417 2.92431 0
M  V30 8830 H 920.579 1.80848 2.71959 0
M  V30 8831 H 919.238 3.41929 1.32213 0
M  V30 8832 H 918.886 3.30092 3.79537 0
M  V30 8833 H 918.586 4.94396 3.17563 0
M  V30 8834 H 920.11 4.58262 4.0352 0
M  V30 8835 H 921.524 5.40297 1.91708 0
M  V30 8836 H 919.921 5.86416 1.27421 0
M  V30 8837 H 920.991 4.83969 0.300261 0
M  V30 8838 N 922.334 -0.244713 1.55689 0
M  V30 8839 C 923.75 -0.593331 1.48161 0
M  V30 8840 C 923.95 -1.88234 0.719047 0
M  V30 8841 O 923.006 -2.51266 0.249292 0
M  V30 8842 C 924.319 -0.694032 2.92581 0
M  V30 8843 C 925.867 -0.786213 3.02965 0
M  V30 8844 C 926.342 -0.918457 4.48696 0
M  V30 8845 N 927.833 -0.983272 4.52643 0
M  V30 8846 C 928.568 -1.1049 5.62654 0
M  V30 8847 N 928.064 -1.19193 6.8247 0
M  V30 8848 N 929.857 -1.13823 5.50455 0
M  V30 8849 H 922.008 0.601446 2.03707 0
M  V30 8850 H 924.271 0.207894 0.924924 0
M  V30 8851 H 923.977 0.183133 3.51223 0
M  V30 8852 H 923.851 -1.56525 3.4319 0
M  V30 8853 H 926.238 -1.65383 2.44402 0
M  V30 8854 H 926.319 0.110202 2.55563 0
M  V30 8855 H 925.963 -0.0553881 5.0787 0
M  V30 8856 H 925.893 -1.82994 4.93782 0
M  V30 8857 H 928.384 -0.927269 3.66347 0
M  V30 8858 H 928.697 -1.28387 7.62061 0
M  V30 8859 H 927.042 -1.16147 6.85226 0
M  V30 8860 H 930.233 -1.06673 4.55783 0
M  V30 8861 H 930.406 -1.22957 6.36228 0
M  V30 8862 N 923.813 -1.49104 -0.510467 0
M  V30 8863 C 924.76 -1.65074 -1.61305 0
M  V30 8864 C 925.73 -0.492362 -1.58635 0
M  V30 8865 O 926.915 -0.718241 -1.76765 0
M  V30 8866 C 924.055 -1.71457 -2.99493 0
M  V30 8867 C 923.168 -2.98536 -3.12251 0
M  V30 8868 C 922.303 -2.95957 -4.41116 0
M  V30 8869 C 921.342 -4.17655 -4.47471 0
M  V30 8870 N 920.479 -4.13041 -5.67751 0
M  V30 8871 H 925.319 -2.59222 -1.46996 0
M  V30 8872 H 922.856 -1.28535 -0.715346 0
M  V30 8873 H 924.814 -1.7314 -3.79577 0
M  V30 8874 H 923.444 -0.807834 -3.12528 0
M  V30 8875 H 922.496 -3.06509 -2.25292 0
M  V30 8876 H 923.808 -3.88527 -3.12807 0
M  V30 8877 H 922.962 -2.96149 -5.2951 0
M  V30 8878 H 921.701 -2.03728 -4.4311 0
M  V30 8879 H 920.706 -4.17717 -3.57481 0
M  V30 8880 H 921.931 -5.11066 -4.472 0
M  V30 8881 H 919.877 -3.23643 -5.70606 0
M  V30 8882 H 919.794 -4.96757 -5.69884 0
M  V30 8883 H 921.062 -4.17322 -6.58379 0
M  V30 8884 N 925.291 0.760815 -1.38019 0
M  V30 8885 C 926.531 1.53264 -1.35239 0
M  V30 8886 C 926.895 1.91908 0.0595038 0
M  V30 8887 O 928.096 2.67962 0.212122 0
M  V30 8888 C 926.367 2.75643 -2.27499 0
M  V30 8889 S 927.926 3.6559 -2.42672 0
M  V30 8890 H 924.744 0.52457 -0.479945 0
M  V30 8891 H 927.346 0.893737 -1.73875 0
M  V30 8892 H 926.05 2.4535 -3.28986 0
M  V30 8893 H 925.581 3.44483 -1.89987 0
M  V30 8894 H 927.596 4.68124 -1.64542 0
M  V30 8895 N 926.769 1.22769 0.988202 0
M  V30 8896 C 928.009 1.06673 1.74356 0
M  V30 8897 C 928.373 -0.390737 1.87982 0
M  V30 8898 O 929.574 -0.672677 2.60247 0
M  V30 8899 C 927.845 1.76361 3.10856 0
M  V30 8900 S 929.404 1.75738 4.02071 0
M  V30 8901 H 926.222 0.381917 0.599717 0
M  V30 8902 H 928.824 1.55784 1.18117 0
M  V30 8903 H 927.528 2.81559 2.98584 0
M  V30 8904 H 927.059 1.27501 3.72165 0
M  V30 8905 H 929.074 0.810418 4.89537 0
M  V30 8906 N 928.247 -1.18576 1.03814 0
M  V30 8907 C 929.179 -2.21607 0.585055 0
M  V30 8908 C 930.192 -1.59125 -0.343963 0
M  V30 8909 O 931.381 -1.77959 -0.138882 0
M  V30 8910 C 928.481 -3.38495 -0.165602 0
M  V30 8911 C 927.654 -4.30557 0.770662 0
M  V30 8912 C 926.713 -5.26161 0.0637534 0
M  V30 8913 O 925.739 -5.64961 0.693359 0
M  V30 8914 N 926.941 -5.67882 -1.20377 0
M  V30 8915 H 929.706 -2.61104 1.47121 0
M  V30 8916 H 927.267 -1.33336 0.918316 0
M  V30 8917 H 929.259 -3.99474 -0.648292 0
M  V30 8918 H 927.829 -2.97711 -0.953268 0
M  V30 8919 H 927.049 -3.67221 1.43326 0
M  V30 8920 H 928.337 -4.88969 1.40667 0
M  V30 8921 H 927.735 -5.38409 -1.73586 0
M  V30 8922 H 926.292 -6.31069 -1.63079 0
M  V30 8923 N 929.725 -0.817259 -1.34754 0
M  V30 8924 C 930.688 -0.240611 -2.27934 0
M  V30 8925 C 931.688 0.578219 -1.50044 0
M  V30 8926 O 932.878 0.395148 -1.69659 0
M  V30 8927 C 930.01 0.663318 -3.34384 0
M  V30 8928 H 931.203 -1.06257 -2.80445 0
M  V30 8929 H 928.756 -0.588697 -1.4479 0
M  V30 8930 H 929.491 1.50855 -2.87077 0
M  V30 8931 H 929.276 0.0777388 -3.92023 0
M  V30 8932 H 930.766 1.06076 -4.03903 0
M  V30 8933 N 931.203 1.46865 -0.571711 0
M  V30 8934 C 932.451 2.0203 -0.0530022 0
M  V30 8935 C 932.772 1.44687 1.30731 0
M  V30 8936 O 932.042 0.627429 1.85581 0
M  V30 8937 H 930.622 0.746815 -0.0166035 0
M  V30 8938 H 933.284 1.80099 -0.745003 0
M  V30 8939 H 932.38 3.12091 0.0242538 0
M  V30 8940 N 932.681 0.308908 1.54543 0
M  V30 8941 C 933.614 -0.605854 2.20011 0
M  V30 8942 C 934.592 -1.1269 1.17216 0
M  V30 8943 O 935.776 -1.19363 1.45893 0
M  V30 8944 C 932.903 -1.82977 2.85021 0
M  V30 8945 C 931.949 -1.44126 4.0141 0
M  V30 8946 S 932.782 -0.490445 5.33249 0
M  V30 8947 C 933.938 -1.72198 6.01746 0
M  V30 8948 H 934.171 -0.0496911 2.97258 0
M  V30 8949 H 931.704 0.0930238 1.5412 0
M  V30 8950 H 933.662 -2.53211 3.23102 0
M  V30 8951 H 932.323 -2.35711 2.07604 0
M  V30 8952 H 931.516 -2.35288 4.45708 0
M  V30 8953 H 931.118 -0.818788 3.64927 0
M  V30 8954 H 933.41 -2.66147 6.23034 0
M  V30 8955 H 934.353 -1.32142 6.95661 0
M  V30 8956 H 934.761 -1.90229 5.31482 0
M  V30 8957 N 934.159 -1.57557 0.0367827 0
M  V30 8958 C 935.405 -1.92399 -0.641133 0
M  V30 8959 C 935.738 -0.914191 -1.71336 0
M  V30 8960 O 935.013 0.0619616 -1.94401 0
M  V30 8961 C 935.296 -3.37689 -1.25052 0
M  V30 8962 C 935.149 -4.4941 -0.187326 0
M  V30 8963 C 936.468 -3.8309 -2.16634 0
M  V30 8964 H 933.587 -0.699666 -0.231597 0
M  V30 8965 H 936.229 -1.89759 0.0956083 0
M  V30 8966 H 934.379 -3.40069 -1.87843 0
M  V30 8967 H 936.051 -4.59161 0.443736 0
M  V30 8968 H 934.294 -4.31065 0.486313 0
M  V30 8969 H 934.965 -5.48119 -0.653459 0
M  V30 8970 H 937.441 -3.82494 -1.63821 0
M  V30 8971 H 936.317 -4.85429 -2.56222 0
M  V30 8972 H 936.578 -3.19028 -3.06062 0
M  V30 8973 N 935.637 0.236453 -1.55816 0
M  V30 8974 C 936.567 1.29639 -1.94206 0
M  V30 8975 C 937.548 1.49667 -0.808319 0
M  V30 8976 O 938.733 1.621 -1.06945 0
M  V30 8977 C 935.863 2.64914 -2.24584 0
M  V30 8978 C 934.817 2.59565 -3.40308 0
M  V30 8979 C 934.143 3.98732 -3.56254 0
M  V30 8980 C 935.443 2.15642 -4.75706 0
M  V30 8981 H 937.137 0.977552 -2.82992 0
M  V30 8982 H 934.683 0.468804 -1.36155 0
M  V30 8983 H 936.636 3.39209 -2.50031 0
M  V30 8984 H 935.36 2.98455 -1.32636 0
M  V30 8985 H 934.019 1.87728 -3.14887 0
M  V30 8986 H 933.667 4.29556 -2.61707 0
M  V30 8987 H 933.367 3.96039 -4.34082 0
M  V30 8988 H 934.891 4.74711 -3.84033 0
M  V30 8989 H 936.305 2.79673 -5.00456 0
M  V30 8990 H 934.702 2.24039 -5.56711 0
M  V30 8991 H 935.772 1.10831 -4.72064 0
M  V30 8992 N 937.115 1.49373 0.502552 0
M  V30 8993 C 938.363 1.58467 1.25429 0
M  V30 8994 C 938.684 0.272593 1.93085 0
M  V30 8995 O 937.954 -0.707947 1.82661 0
M  V30 8996 H 936.534 0.583866 0.46595 0
M  V30 8997 H 939.196 1.8599 0.582568 0
M  V30 8998 H 938.292 2.37993 2.01906 0
M  V30 8999 N 938.594 -0.753485 1.38421 0
M  V30 9000 C 939.842 -1.50962 1.34368 0
M  V30 9001 C 940.163 -1.94889 -0.0656895 0
M  V30 9002 O 939.433 -1.67652 -1.01339 0
M  V30 9003 H 938.013 -0.559967 0.494415 0
M  V30 9004 H 940.675 -0.895665 1.73101 0
M  V30 9005 H 939.771 -2.40048 1.99458 0
M  V30 9006 N 940.072 -1.23292 -0.981677 0
M  V30 9007 C 941.488 -0.995295 -1.24764 0
M  V30 9008 C 941.688 0.304379 -1.99188 0
M  V30 9009 O 940.744 1.02414 -2.30798 0
M  V30 9010 C 942.057 -2.20135 -2.04844 0
M  V30 9011 C 943.605 -2.24612 -2.17988 0
M  V30 9012 C 944.08 -3.448 -3.01458 0
M  V30 9013 N 945.571 -3.45031 -3.09044 0
M  V30 9014 C 946.306 -4.34683 -3.7395 0
M  V30 9015 N 945.802 -5.34569 -4.4069 0
M  V30 9016 N 947.595 -4.22429 -3.70823 0
M  V30 9017 H 939.746 -2.06834 -0.483052 0
M  V30 9018 H 942.009 -0.906929 -0.276014 0
M  V30 9019 H 941.715 -3.14446 -1.57532 0
M  V30 9020 H 941.589 -2.21115 -3.05594 0
M  V30 9021 H 943.976 -1.30841 -2.64508 0
M  V30 9022 H 944.057 -2.27664 -1.16631 0
M  V30 9023 H 943.701 -4.38877 -2.55635 0
M  V30 9024 H 943.631 -3.38988 -4.02982 0
M  V30 9025 H 946.122 -2.72759 -2.61555 0
M  V30 9026 H 946.435 -5.99236 -4.87991 0
M  V30 9027 H 944.78 -5.3847 -4.39403 0
M  V30 9028 H 947.971 -3.43639 -3.17851 0
M  V30 9029 H 948.144 -4.92501 -4.21126 0
M  V30 9030 N 941.55 1.18024 -1.04442 0
M  V30 9031 C 942.497 2.21785 -0.638759 0
M  V30 9032 C 943.467 1.62255 0.355312 0
M  V30 9033 O 944.652 1.89176 0.24844 0
M  V30 9034 C 941.792 3.45098 -0.0118002 0
M  V30 9035 C 940.905 4.1895 -1.05379 0
M  V30 9036 C 940.04 5.2973 -0.394951 0
M  V30 9037 C 939.079 5.95359 -1.42178 0
M  V30 9038 N 938.216 6.97668 -0.787635 0
M  V30 9039 H 943.056 2.55839 -1.52808 0
M  V30 9040 H 940.593 1.25681 -0.764378 0
M  V30 9041 H 942.551 4.15564 0.369075 0
M  V30 9042 H 941.181 3.11652 0.84102 0
M  V30 9043 H 940.233 3.47274 -1.55258 0
M  V30 9044 H 941.545 4.63877 -1.83355 0
M  V30 9045 H 940.699 6.06687 0.0399244 0
M  V30 9046 H 939.438 4.85915 0.416867 0
M  V30 9047 H 938.443 5.17139 -1.86675 0
M  V30 9048 H 939.668 6.41255 -2.23536 0
M  V30 9049 H 937.614 6.56 0.00380893 0
M  V30 9050 H 937.531 7.40867 -1.50505 0
M  V30 9051 H 938.799 7.78586 -0.377282 0
M  V30 9052 N 943.028 0.824394 1.34319 0
M  V30 9053 C 944.275 0.413167 1.9824 0
M  V30 9054 C 944.603 -1.02412 1.65354 0
M  V30 9055 O 943.858 -1.72831 0.91803 0
M  V30 9056 C 944.157 0.564024 3.52921 0
M  V30 9057 C 943.823 1.96725 4.05722 0
M  V30 9058 C 942.485 2.35111 4.19853 0
M  V30 9059 C 944.837 2.88447 4.34106 0
M  V30 9060 C 942.165 3.64551 4.59695 0
M  V30 9061 C 944.517 4.17353 4.75394 0
M  V30 9062 C 943.181 4.55714 4.8773 0
M  V30 9063 H 942.451 0.151188 0.725412 0
M  V30 9064 H 945.098 1.04863 1.60238 0
M  V30 9065 H 943.403 -0.154816 3.91494 0
M  V30 9066 H 945.1 0.226347 4.00361 0
M  V30 9067 H 941.69 1.65908 3.95187 0
M  V30 9068 H 945.874 2.60034 4.22725 0
M  V30 9069 H 941.13 3.94097 4.67437 0
M  V30 9070 H 945.304 4.88512 4.96315 0
M  V30 9071 H 942.931 5.56064 5.1836 0
M  V30 9072 N 944.506 -1.46559 0.579492 0
M  V30 9073 C 945.453 -2.30275 -0.155598 0
M  V30 9074 C 946.423 -1.40422 -0.887175 0
M  V30 9075 O 947.608 -1.69373 -0.878481 0
M  V30 9076 C 944.748 -3.24827 -1.16539 0
M  V30 9077 C 943.861 -4.29778 -0.43759 0
M  V30 9078 C 942.996 -5.11461 -1.43462 0
M  V30 9079 C 942.035 -6.08164 -0.693048 0
M  V30 9080 N 941.172 -6.82726 -1.63799 0
M  V30 9081 H 946.012 -2.92607 0.564356 0
M  V30 9082 H 943.549 -1.44211 0.290126 0
M  V30 9083 H 945.507 -3.78088 -1.76368 0
M  V30 9084 H 944.137 -2.64311 -1.8531 0
M  V30 9085 H 943.189 -3.794 0.27567 0
M  V30 9086 H 944.501 -4.98597 0.142298 0
M  V30 9087 H 943.655 -5.68982 -2.1058 0
M  V30 9088 H 942.394 -4.42595 -2.04844 0
M  V30 9089 H 941.399 -5.49799 -0.00807093 0
M  V30 9090 H 942.624 -6.79047 -0.0846678 0
M  V30 9091 H 940.57 -6.16572 -2.23997 0
M  V30 9092 H 940.487 -7.47795 -1.11082 0
M  V30 9093 H 941.755 -7.44807 -2.29962 0
M  V30 9094 N 945.984 -0.3171 -1.54377 0
M  V30 9095 C 946.931 0.551782 -2.24107 0
M  V30 9096 C 947.901 1.11681 -1.22949 0
M  V30 9097 O 949.086 1.15836 -1.51614 0
M  V30 9098 C 946.226 1.70997 -2.99756 0
M  V30 9099 C 945.339 1.17479 -4.15719 0
M  V30 9100 C 944.474 2.29815 -4.78914 0
M  V30 9101 C 943.513 1.73513 -5.86992 0
M  V30 9102 N 942.65 2.79485 -6.44075 0
M  V30 9103 H 947.49 -0.049431 -2.97959 0
M  V30 9104 H 945.027 -0.0361658 -1.47056 0
M  V30 9105 H 946.985 2.39141 -3.41859 0
M  V30 9106 H 945.615 2.28257 -2.28251 0
M  V30 9107 H 944.667 0.385109 -3.78446 0
M  V30 9108 H 945.979 0.72276 -4.93536 0
M  V30 9109 H 945.133 3.05875 -5.23952 0
M  V30 9110 H 943.872 2.78352 -4.00464 0
M  V30 9111 H 942.877 0.959475 -5.41363 0
M  V30 9112 H 944.102 1.2586 -6.67335 0
M  V30 9113 H 942.048 3.27325 -5.68502 0
M  V30 9114 H 941.965 2.38825 -7.17286 0
M  V30 9115 H 943.233 3.55394 -6.93769 0
M  V30 9116 N 947.462 1.57535 -0.0451378 0
M  V30 9117 C 948.709 1.92451 0.629987 0
M  V30 9118 C 949.037 0.92298 1.71206 0
M  V30 9119 O 948.292 -0.0656626 1.9559 0
M  V30 9120 C 948.591 3.34065 1.27024 0
M  V30 9121 C 948.257 4.49785 0.316971 0
M  V30 9122 C 946.919 4.81169 0.0546406 0
M  V30 9123 C 949.271 5.20111 -0.336693 0
M  V30 9124 C 946.599 5.8023 -0.86889 0
M  V30 9125 C 948.951 6.2016 -1.24838 0
M  V30 9126 C 947.615 6.49976 -1.51944 0
M  V30 9127 H 946.885 0.704228 0.230529 0
M  V30 9128 H 949.532 1.91182 -0.110328 0
M  V30 9129 H 947.837 3.31672 2.08568 0
M  V30 9130 H 949.534 3.58359 1.79945 0
M  V30 9131 H 946.124 4.2529 0.531614 0
M  V30 9132 H 950.308 4.96082 -0.147105 0
M  V30 9133 H 945.564 6.0167 -1.08643 0
M  V30 9134 H 949.738 6.73767 -1.76098 0
M  V30 9135 H 947.365 7.26551 -2.2367 0
M  V30 9136 N 948.94 -0.228186 1.55939 0
M  V30 9137 C 949.888 -1.30239 1.92719 0
M  V30 9138 C 950.882 -1.48865 0.808424 0
M  V30 9139 O 952.088 -1.50118 0.993204 0
M  V30 9140 H 948.463 -0.436509 0.612343 0
M  V30 9141 H 950.434 -0.964965 2.82367 0
M  V30 9142 C 949.183 -2.647 2.25453 0
M  V30 9143 H 948.506 -2.51173 3.1105 0
M  V30 9144 H 949.946 -3.38691 2.55077 0
M  V30 9145 C 948.405 -3.1921 1.07734 0
M  V30 9146 O 948.935 -4.00301 0.335019 0
M  V30 9147 N 947.141 -2.77492 0.862938 0
M  V30 9148 H 946.688 -2.11657 1.4683 0
M  V30 9149 H 946.646 -3.14306 0.0770119 0
M  V30 9150 N 950.418 -1.49637 -0.494624 0
M  V30 9151 C 951.365 -1.66776 -1.59545 0
M  V30 9152 C 952.335 -0.509159 -1.58104 0
M  V30 9153 O 953.52 -0.736949 -1.75993 0
M  V30 9154 C 950.66 -1.74624 -2.97658 0
M  V30 9155 C 949.773 -3.01831 -3.09067 0
M  V30 9156 C 948.908 -3.00619 -4.37952 0
M  V30 9157 C 947.947 -4.22378 -4.43016 0
M  V30 9158 N 947.084 -4.1904 -5.63339 0
M  V30 9159 H 951.924 -2.60767 -1.44238 0
M  V30 9160 H 949.461 -1.29286 -0.701673 0
M  V30 9161 H 951.419 -1.77156 -3.77719 0
M  V30 9162 H 950.049 -0.840936 -3.11654 0
M  V30 9163 H 949.101 -3.08881 -2.22029 0
M  V30 9164 H 950.413 -3.91823 -3.08669 0
M  V30 9165 H 949.567 -3.01749 -5.26339 0
M  V30 9166 H 948.306 -2.08416 -4.40924 0
M  V30 9167 H 947.311 -4.21485 -3.5303 0
M  V30 9168 H 948.536 -5.15781 -4.41755 0
M  V30 9169 H 946.482 -3.29677 -5.67141 0
M  V30 9170 H 946.399 -5.02774 -5.64583 0
M  V30 9171 H 947.667 -4.24281 -6.53916 0
M  V30 9172 N 951.896 0.746133 -1.38819 0
M  V30 9173 C 953.142 1.50768 -1.35635 0
M  V30 9174 C 953.475 1.94132 0.0512435 0
M  V30 9175 O 952.75 1.65979 1.01396 0
M  V30 9176 C 953.033 2.7551 -2.31875 0
M  V30 9177 C 952.886 2.38236 -3.81528 0
M  V30 9178 C 954.205 3.77566 -2.26124 0
M  V30 9179 H 951.324 0.546922 -0.494009 0
M  V30 9180 H 953.966 0.854017 -1.69725 0
M  V30 9181 H 952.116 3.31285 -2.02935 0
M  V30 9182 H 953.788 1.88178 -4.21173 0
M  V30 9183 H 952.031 1.70601 -3.98846 0
M  V30 9184 H 952.702 3.27517 -4.44339 0
M  V30 9185 H 955.178 3.31349 -2.51689 0
M  V30 9186 H 954.054 4.62531 -2.95561 0
M  V30 9187 H 954.315 4.23689 -1.26254 0
M  V30 9188 N 953.375 1.23811 0.975125 0
M  V30 9189 C 954.791 1.0019 1.24234 0
M  V30 9190 C 954.991 -0.293811 1.99346 0
M  V30 9191 O 954.047 -1.01189 2.31337 0
M  V30 9192 C 955.36 2.21218 2.03674 0
M  V30 9193 C 956.908 2.25764 2.16793 0
M  V30 9194 C 957.383 3.46394 2.99626 0
M  V30 9195 N 958.874 3.46665 3.07209 0
M  V30 9196 C 959.609 4.3666 3.71639 0
M  V30 9197 N 959.105 5.36899 4.37849 0
M  V30 9198 N 960.898 4.2439 3.68578 0
M  V30 9199 H 953.049 2.07087 0.472076 0
M  V30 9200 H 955.312 0.90838 0.271201 0
M  V30 9201 H 955.018 3.15277 1.55862 0
M  V30 9202 H 954.892 2.22733 3.04417 0
M  V30 9203 H 957.279 1.32242 2.63811 0
M  V30 9204 H 957.36 2.28279 1.15422 0
M  V30 9205 H 957.004 4.40227 2.53304 0
M  V30 9206 H 956.934 3.41121 4.01178 0
M  V30 9207 H 959.425 2.74142 2.60105 0
M  V30 9208 H 959.738 6.01816 4.84807 0
M  V30 9209 H 958.083 5.40793 4.36541 0
M  V30 9210 H 961.274 3.4532 3.16025 0
M  V30 9211 H 961.447 4.94727 4.18508 0
M  V30 9212 N 954.853 -1.17469 1.05066 0
M  V30 9213 C 956.099 -1.87976 0.761113 0
M  V30 9214 C 956.432 -1.80756 -0.709995 0
M  V30 9215 O 955.707 -1.21469 -1.51906 0
M  V30 9216 C 955.99 -3.38055 1.2406 0
M  V30 9217 C 955.843 -3.54032 2.77455 0
M  V30 9218 C 957.162 -4.32036 0.838612 0
M  V30 9219 H 954.281 -0.682573 0.277963 0
M  V30 9220 H 956.923 -1.38147 1.30443 0
M  V30 9221 H 955.073 -3.80622 0.778388 0
M  V30 9222 H 956.745 -3.20489 3.3179 0
M  V30 9223 H 954.988 -2.96352 3.16793 0
M  V30 9224 H 955.659 -4.59377 3.06066 0
M  V30 9225 H 958.135 -3.97303 1.23651 0
M  V30 9226 H 957.011 -5.35583 1.20173 0
M  V30 9227 H 957.272 -4.41349 -0.257498 0
M  V30 9228 N 956.331 -0.831506 -1.3388 0
M  V30 9229 C 957.577 -0.424302 -1.98312 0
M  V30 9230 C 957.91 1.01211 -1.65741 0
M  V30 9231 O 957.185 1.70636 -0.933464 0
M  V30 9232 C 957.468 -0.636815 -3.54424 0
M  V30 9233 C 957.321 -2.11997 -3.96708 0
M  V30 9234 C 958.64 -0.0782411 -4.4003 0
M  V30 9235 H 955.759 -0.155637 -0.720379 0
M  V30 9236 H 958.401 -1.04566 -1.58638 0
M  V30 9237 H 956.551 -0.107907 -3.8835 0
M  V30 9238 H 958.223 -2.71317 -3.73075 0
M  V30 9239 H 956.466 -2.60723 -3.46707 0
M  V30 9240 H 957.137 -2.21944 -5.05416 0
M  V30 9241 H 959.613 -0.530243 -4.12708 0
M  V30 9242 H 958.489 -0.256676 -5.483 0
M  V30 9243 H 958.75 1.01745 -4.30233 0
M  V30 9244 N 957.809 1.4625 -0.587256 0
M  V30 9245 C 959.225 1.57641 -0.249284 0
M  V30 9246 C 959.425 1.58169 1.24839 0
M  V30 9247 O 958.481 1.50109 2.03036 0
M  V30 9248 C 959.794 2.86837 -0.902509 0
M  V30 9249 C 961.342 3.00476 -0.876524 0
M  V30 9250 C 961.817 4.32414 -1.50938 0
M  V30 9251 N 963.308 4.39124 -1.47392 0
M  V30 9252 C 964.043 5.39838 -1.93293 0
M  V30 9253 N 963.539 6.47202 -2.47188 0
M  V30 9254 N 965.332 5.31068 -1.84183 0
M  V30 9255 H 957.483 1.44151 -1.55994 0
M  V30 9256 H 959.746 0.687905 -0.652297 0
M  V30 9257 H 959.452 2.92274 -1.95624 0
M  V30 9258 H 959.326 3.74927 -0.413466 0
M  V30 9259 H 961.713 2.94618 0.168601 0
M  V30 9260 H 961.794 2.1385 -1.40363 0
M  V30 9261 H 961.438 4.3903 -2.55372 0
M  V30 9262 H 961.368 5.17823 -0.957455 0
M  V30 9263 H 963.859 3.62138 -1.08002 0
M  V30 9264 H 964.172 7.20269 -2.80058 0
M  V30 9265 H 962.517 6.48009 -2.51216 0
M  V30 9266 H 965.708 4.46095 -1.41833 0
M  V30 9267 H 965.881 6.09414 -2.2027 0
M  V30 9268 N 959.287 0.325282 1.54207 0
M  V30 9269 C 960.25 -0.527228 2.23054 0
M  V30 9270 C 961.25 -1.04217 1.22456 0
M  V30 9271 O 962.44 -0.934325 1.47024 0
M  V30 9272 C 959.572 -1.7325 2.93594 0
M  V30 9273 H 960.765 0.0746423 2.99807 0
M  V30 9274 H 958.318 0.0763872 1.56113 0
M  V30 9275 H 959.053 -2.37356 2.20981 0
M  V30 9276 H 958.838 -1.37065 3.67363 0
M  V30 9277 H 960.328 -2.3376 3.46043 0
M  V30 9278 N 960.765 -1.57509 0.0534917 0
M  V30 9279 C 961.695 -2.14698 -0.917999 0
M  V30 9280 C 962.676 -1.06924 -1.32292 0
M  V30 9281 O 963.861 -1.34875 -1.39723 0
M  V30 9282 C 960.991 -2.69383 -2.19203 0
M  V30 9283 C 959.945 -3.82161 -1.9271 0
M  V30 9284 C 959.271 -4.23373 -3.26587 0
M  V30 9285 C 960.571 -5.07199 -1.24686 0
M  V30 9286 H 962.265 -2.96125 -0.44165 0
M  V30 9287 H 959.811 -1.42446 -0.210993 0
M  V30 9288 H 961.764 -3.08031 -2.87567 0
M  V30 9289 H 960.488 -1.85151 -2.69048 0
M  V30 9290 H 959.147 -3.43989 -1.26757 0
M  V30 9291 H 958.795 -3.36089 -3.74237 0
M  V30 9292 H 958.495 -4.99385 -3.09658 0
M  V30 9293 H 960.019 -4.64623 -3.96178 0
M  V30 9294 H 961.433 -5.43279 -1.83088 0
M  V30 9295 H 959.83 -5.88369 -1.18076 0
M  V30 9296 H 960.9 -4.84386 -0.223227 0
M  V30 9297 N 962.243 0.219913 -1.56058 0
M  V30 9298 C 963.52 0.968493 -1.6994 0
M  V30 9299 C 963.9 2.02358 -0.601219 0
M  V30 9300 O 963.248 2.25121 0.391534 0
M  V30 9301 C 963.458 1.57745 -3.11316 0
M  V30 9302 C 964.806 2.06908 -3.70775 0
M  V30 9303 O 965.83 1.67636 -3.14288 0
M  V30 9304 O 964.689 2.79096 -4.69859 0
M  V30 9305 H 961.783 0.452521 -0.692209 0
M  V30 9306 H 964.329 0.211566 -1.68376 0
M  V30 9307 H 963.101 0.815687 -3.82704 0
M  V30 9308 H 962.724 2.39987 -3.17005 0
M  V30 9309 N 963.721 1.49897 0.486681 0
M  V30 9310 C 964.684 1.67086 1.56891 0
M  V30 9311 C 965.684 0.54209 1.51387 0
M  V30 9312 O 966.874 0.80883 1.54284 0
M  V30 9313 C 964.006 1.68159 2.96539 0
M  V30 9314 H 965.199 2.63626 1.42974 0
M  V30 9315 H 962.752 1.39143 0.711954 0
M  V30 9316 H 963.487 0.732562 3.15918 0
M  V30 9317 H 963.272 2.50147 3.01942 0
M  V30 9318 H 964.762 1.83466 3.7514 0
M  V30 9319 N 965.199 -0.738761 1.39212 0
M  V30 9320 C 966.445 -1.50046 1.36433 0
M  V30 9321 C 966.778 -1.94157 -0.0409474 0
M  V30 9322 O 966.053 -1.66515 -1.00514 0
M  V30 9323 C 966.336 -2.74277 2.33333 0
M  V30 9324 C 966.189 -2.36209 3.82786 0
M  V30 9325 C 967.508 -3.76361 2.28123 0
M  V30 9326 H 964.627 -0.544294 0.496903 0
M  V30 9327 H 967.269 -0.845005 1.70175 0
M  V30 9328 H 965.419 -3.30204 2.04689 0
M  V30 9329 H 967.091 -1.85942 4.22165 0
M  V30 9330 H 965.334 -1.68483 3.99745 0
M  V30 9331 H 966.005 -3.25156 4.46069 0
M  V30 9332 H 968.481 -3.30009 2.53443 0
M  V30 9333 H 967.357 -4.60957 2.9801 0
M  V30 9334 H 967.618 -4.23013 1.28499 0
M  V30 9335 N 966.677 -1.24326 -0.968545 0
M  V30 9336 C 967.64 -1.03591 -2.04454 0
M  V30 9337 C 968.64 0.0064809 -1.60799 0
M  V30 9338 O 969.83 -0.234404 -1.72616 0
M  V30 9339 C 966.962 -0.56992 -3.36102 0
M  V30 9340 H 968.155 -1.99092 -2.24282 0
M  V30 9341 H 965.708 -1.06537 -1.14366 0
M  V30 9342 H 966.443 0.388325 -3.21967 0
M  V30 9343 H 966.228 -1.32227 -3.69132 0
M  V30 9344 H 967.718 -0.445854 -4.15213 0
M  V30 9345 N 968.156 1.1691 -1.05688 0
M  V30 9346 C 969.086 2.23275 -0.683402 0
M  V30 9347 C 970.067 1.6704 0.321206 0
M  V30 9348 O 971.252 1.93191 0.197691 0
M  V30 9349 C 968.382 3.47244 -0.0626006 0
M  V30 9350 C 967.336 4.16333 -0.992513 0
M  V30 9351 C 966.662 5.34182 -0.23533 0
M  V30 9352 C 967.962 4.68002 -2.31886 0
M  V30 9353 H 969.656 2.54771 -1.57264 0
M  V30 9354 H 967.202 1.2246 -0.757606 0
M  V30 9355 H 969.155 4.20874 0.210503 0
M  V30 9356 H 967.879 3.1503 0.861616 0
M  V30 9357 H 966.538 3.44622 -1.25026 0
M  V30 9358 H 966.186 4.9822 0.69181 0
M  V30 9359 H 965.886 5.81346 -0.855002 0
M  V30 9360 H 967.41 6.10592 0.0303717 0
M  V30 9361 H 968.824 5.33244 -2.10531 0
M  V30 9362 H 967.221 5.25764 -2.89296 0
M  V30 9363 H 968.291 3.84541 -2.95391 0
M  V30 9364 N 969.634 0.838594 1.33437 0
M  V30 9365 C 971.045 0.490934 1.8013 0
M  V30 9366 C 971.396 -0.990024 1.6939 0
M  V30 9367 O 970.521 -1.77139 1.24302 0
M  V30 9368 C 971.116 0.884347 3.27055 0
M  V30 9369 C 969.675 0.588829 3.71766 0
M  V30 9370 C 968.822 1.09282 2.54858 0
M  V30 9371 H 971.773 1.02732 1.20962 0
M  V30 9372 H 971.794 0.194283 3.80004 0
M  V30 9373 H 971.306 1.96225 3.34839 0
M  V30 9374 H 969.407 -0.479018 3.69508 0
M  V30 9375 H 969.52 1.14387 4.65245 0
M  V30 9376 H 967.884 0.513702 2.49466 0
M  V30 9377 H 968.667 2.1775 2.65405 0
M  V30 9378 N 971.112 -1.45937 0.595003 0
M  V30 9379 C 972.044 -2.28575 -0.169137 0
M  V30 9380 C 973.057 -1.39226 -0.843792 0
M  V30 9381 O 974.246 -1.63716 -0.711291 0
M  V30 9382 C 971.346 -3.14616 -1.25976 0
M  V30 9383 C 970.519 -4.32166 -0.67466 0
M  V30 9384 C 969.578 -4.99511 -1.65456 0
M  V30 9385 O 968.604 -5.56712 -1.18578 0
M  V30 9386 N 969.806 -4.97643 -2.98885 0
M  V30 9387 H 972.571 -2.94797 0.539908 0
M  V30 9388 H 970.132 -1.55985 0.433614 0
M  V30 9389 H 972.124 -3.56534 -1.91483 0
M  V30 9390 H 970.694 -2.50387 -1.8715 0
M  V30 9391 H 969.914 -3.93882 0.158184 0
M  V30 9392 H 971.202 -5.08116 -0.263753 0
M  V30 9393 H 970.6 -4.52438 -3.39583 0
M  V30 9394 H 969.157 -5.43463 -3.59848 0
M  V30 9395 N 972.59 -0.333456 -1.54032 0
M  V30 9396 C 974.001 0.15256 -1.86076 0
M  V30 9397 C 974.352 1.50819 -1.25492 0
M  V30 9398 O 973.477 2.08903 -0.564665 0
M  V30 9399 C 974.072 0.283599 -3.37611 0
M  V30 9400 C 972.631 0.713841 -3.69569 0
M  V30 9401 C 971.778 -0.158515 -2.76847 0
M  V30 9402 H 974.729 -0.553404 -1.48738 0
M  V30 9403 H 974.75 1.11284 -3.63863 0
M  V30 9404 H 974.262 -0.703193 -3.81676 0
M  V30 9405 H 972.363 1.71002 -3.31042 0
M  V30 9406 H 972.476 0.510731 -4.7637 0
M  V30 9407 H 970.84 0.367531 -2.52034 0
M  V30 9408 H 971.623 -1.14226 -3.2374 0
M  V30 9409 N 974.068 1.57479 -0.061844 0
M  V30 9410 C 975.314 1.93395 0.610443 0
M  V30 9411 C 975.647 0.941334 1.6986 0
M  V30 9412 O 974.922 -0.0310262 1.94475 0
M  V30 9413 C 975.205 3.39636 1.19664 0
M  V30 9414 C 975.058 4.49651 0.115805 0
M  V30 9415 C 976.377 3.86488 2.10512 0
M  V30 9416 H 973.496 0.703262 0.220436 0
M  V30 9417 H 976.138 1.89583 -0.125785 0
M  V30 9418 H 974.288 3.43015 1.82409 0
M  V30 9419 H 975.96 4.58397 -0.516728 0
M  V30 9420 H 974.203 4.30237 -0.55483 0
M  V30 9421 H 974.874 5.49089 0.566176 0
M  V30 9422 H 977.35 3.85052 1.57715 0
M  V30 9423 H 976.226 4.89444 2.48466 0
M  V30 9424 H 976.487 3.23856 3.00948 0
M  V30 9425 N 975.546 -0.211634 1.56173 0
M  V30 9426 C 976.794 -0.932704 1.7929 0
M  V30 9427 C 977.115 -1.84472 0.632076 0
M  V30 9428 O 976.385 -1.92739 -0.350519 0
M  V30 9429 H 974.965 -0.347393 0.661307 0
M  V30 9430 H 977.627 -0.22111 1.93642 0
M  V30 9431 H 976.723 -1.53365 2.71819 0
M  V30 9432 N 977.024 -1.50153 -0.478725 0
M  V30 9433 C 978.27 -1.60998 -1.23318 0
M  V30 9434 C 978.603 -0.305868 -1.91776 0
M  V30 9435 O 977.878 0.692158 -1.81767 0
M  V30 9436 C 978.161 -2.78495 -2.28282 0
M  V30 9437 C 978.014 -4.18767 -1.64178 0
M  V30 9438 C 979.333 -2.91569 -3.2966 0
M  V30 9439 H 976.452 -0.585983 -0.446982 0
M  V30 9440 H 979.094 -1.82514 -0.528063 0
M  V30 9441 H 977.244 -2.60281 -2.8842 0
M  V30 9442 H 978.916 -4.48552 -1.07696 0
M  V30 9443 H 977.159 -4.23379 -0.94514 0
M  V30 9444 H 977.83 -4.96894 -2.40417 0
M  V30 9445 H 980.306 -3.08219 -2.79536 0
M  V30 9446 H 979.182 -3.75419 -4.0044 0
M  V30 9447 H 979.443 -2.01859 -3.93326 0
M  V30 9448 N 978.502 0.731368 -1.39602 0
M  V30 9449 C 979.913 1.30981 -1.33045 0
M  V30 9450 C 980.264 1.962 0.00349918 0
M  V30 9451 O 979.389 1.96539 0.905615 0
M  V30 9452 C 979.984 2.3817 -2.40958 0
M  V30 9453 C 978.543 2.91678 -2.3791 0
M  V30 9454 C 977.69 1.65286 -2.22656 0
M  V30 9455 H 980.641 0.528615 -1.49637 0
M  V30 9456 H 980.662 3.18645 -2.07955 0
M  V30 9457 H 980.174 1.90673 -3.38032 0
M  V30 9458 H 978.275 3.43446 -1.44485 0
M  V30 9459 H 978.388 3.44545 -3.32904 0
M  V30 9460 H 976.752 1.89759 -1.69893 0
M  V30 9461 H 977.535 1.19836 -3.21705 0
M  V30 9462 N 979.98 1.24838 0.961938 0
M  V30 9463 C 980.928 1.0436 2.07874 0
M  V30 9464 C 981.922 -0.0232531 1.69384 0
M  V30 9465 O 983.128 0.131773 1.79517 0
M  V30 9466 H 979.503 0.320492 0.680286 0
M  V30 9467 H 981.474 1.99055 2.22306 0
M  V30 9468 C 980.223 0.671246 3.41159 0
M  V30 9469 H 979.546 1.48395 3.7124 0
M  V30 9470 H 980.986 0.567608 4.20184 0
M  V30 9471 C 979.445 -0.622124 3.31106 0
M  V30 9472 O 979.975 -1.66627 3.65511 0
M  V30 9473 N 978.181 -0.605009 2.84232 0
M  V30 9474 H 977.728 0.245052 2.56432 0
M  V30 9475 H 977.686 -1.47056 2.77888 0
M  V30 9476 N 981.458 -1.16348 1.06306 0
M  V30 9477 C 982.368 -2.24375 0.685059 0
M  V30 9478 C 983.384 -1.71413 -0.298956 0
M  V30 9479 O 984.56 -2.00854 -0.148239 0
M  V30 9480 C 981.625 -3.46614 0.0774088 0
M  V30 9481 C 980.686 -4.14613 1.11331 0
M  V30 9482 C 979.919 -5.31016 0.534559 0
M  V30 9483 O 980.142 -5.66654 -0.65265 0
M  V30 9484 O 979.076 -5.88256 1.27431 0
M  V30 9485 H 982.902 -2.59018 1.58566 0
M  V30 9486 H 980.487 -1.23865 0.835332 0
M  V30 9487 H 982.369 -4.20599 -0.259716 0
M  V30 9488 H 981.044 -3.13743 -0.796677 0
M  V30 9489 H 979.951 -3.42597 1.50261 0
M  V30 9490 H 981.284 -4.51538 1.95893 0
M  V30 9491 N 982.937 -0.845659 -1.3299 0
M  V30 9492 C 984.162 -0.457435 -2.02293 0
M  V30 9493 C 984.587 0.935634 -1.63179 0
M  V30 9494 O 983.945 1.61297 -0.827835 0
M  V30 9495 C 983.993 -0.593665 -3.5568 0
M  V30 9496 O 983.097 0.37729 -4.10671 0
M  V30 9497 H 982.438 -0.185022 -0.637701 0
M  V30 9498 H 984.968 -1.14237 -1.69738 0
M  V30 9499 H 984.978 -0.477834 -4.05192 0
M  V30 9500 H 983.653 -1.60957 -3.83491 0
M  V30 9501 H 982.23 0.218448 -3.7226 0
M  V30 9502 N 984.415 1.45619 -0.602734 0
M  V30 9503 C 985.347 2.28662 0.157012 0
M  V30 9504 C 986.36 1.39672 0.836396 0
M  V30 9505 O 987.549 1.64091 0.702599 0
M  V30 9506 C 984.649 3.1528 1.24306 0
M  V30 9507 C 983.822 4.32517 0.651731 0
M  V30 9508 C 982.881 5.00381 1.62804 0
M  V30 9509 O 981.907 5.57333 1.15624 0
M  V30 9510 N 983.109 4.99221 2.96241 0
M  V30 9511 H 985.874 2.94506 -0.555535 0
M  V30 9512 H 983.435 1.55753 -0.441881 0
M  V30 9513 H 985.427 3.57544 1.8959 0
M  V30 9514 H 983.997 2.51376 1.85819 0
M  V30 9515 H 983.217 3.93793 -0.17907 0
M  V30 9516 H 984.505 5.08249 0.236802 0
M  V30 9517 H 983.903 4.54232 3.37179 0
M  V30 9518 H 982.46 5.45364 3.56961 0
M  V30 9519 N 985.893 0.34162 1.53853 0
M  V30 9520 C 986.856 -0.503541 2.236 0
M  V30 9521 C 987.856 -1.02912 1.23554 0
M  V30 9522 O 989.046 -0.918678 1.48007 0
M  V30 9523 C 986.178 -1.70126 2.95415 0
M  V30 9524 H 987.371 0.106437 2.99711 0
M  V30 9525 H 984.924 0.0929408 1.56023 0
M  V30 9526 H 985.659 -2.34999 2.23486 0
M  V30 9527 H 985.444 -1.33161 3.68796 0
M  V30 9528 H 986.934 -2.30077 3.48503 0
M  V30 9529 N 987.371 -1.57444 0.0701946 0
M  V30 9530 C 988.301 -2.15659 -0.895176 0
M  V30 9531 C 989.282 -1.08321 -1.31151 0
M  V30 9532 O 990.467 -1.36349 -1.38284 0
M  V30 9533 C 987.597 -2.71693 -2.16334 0
M  V30 9534 C 986.551 -3.84183 -1.88645 0
M  V30 9535 C 985.877 -4.26814 -3.22078 0
M  V30 9536 C 987.177 -5.08493 -1.19299 0
M  V30 9537 H 988.871 -2.96576 -0.410217 0
M  V30 9538 H 986.417 -1.42662 -0.195872 0
M  V30 9539 H 988.37 -3.11064 -2.84284 0
M  V30 9540 H 987.094 -1.87994 -2.67069 0
M  V30 9541 H 985.753 -3.45314 -1.23101 0
M  V30 9542 H 985.401 -3.40039 -3.70651 0
M  V30 9543 H 985.101 -5.02642 -3.04344 0
M  V30 9544 H 986.625 -4.68799 -3.91228 0
M  V30 9545 H 988.039 -5.4519 -1.77316 0
M  V30 9546 H 986.436 -5.89588 -1.11828 0
M  V30 9547 H 987.506 -4.84595 -0.171839 0
M  V30 9548 N 988.849 0.203349 -1.56283 0
M  V30 9549 C 990.074 0.945548 -1.84592 0
M  V30 9550 C 990.499 1.7641 -0.652772 0
M  V30 9551 O 989.857 1.76867 0.398468 0
M  V30 9552 C 989.905 1.82416 -3.11057 0
M  V30 9553 O 989.009 2.92191 -2.9103 0
M  V30 9554 H 988.35 0.266739 -0.608068 0
M  V30 9555 H 990.88 0.211158 -2.03507 0
M  V30 9556 H 990.89 2.23044 -3.41636 0
M  V30 9557 H 989.565 1.22267 -3.97522 0
M  V30 9558 H 988.142 2.55378 -2.71728 0
M  V30 9559 N 990.327 1.50405 0.470755 0
M  V30 9560 C 991.259 1.65447 1.58619 0
M  V30 9561 C 992.272 0.535949 1.53725 0
M  V30 9562 O 993.461 0.80914 1.59107 0
M  V30 9563 C 990.561 1.62318 2.975 0
M  V30 9564 C 989.734 2.90207 3.27259 0
M  V30 9565 C 988.793 2.79717 4.45696 0
M  V30 9566 O 987.819 3.53672 4.45987 0
M  V30 9567 N 989.021 1.93296 5.47373 0
M  V30 9568 H 991.786 2.61659 1.46132 0
M  V30 9569 H 989.347 1.47873 0.659178 0
M  V30 9570 H 991.339 1.52912 3.747 0
M  V30 9571 H 989.909 0.738392 3.03754 0
M  V30 9572 H 989.129 3.13737 2.38669 0
M  V30 9573 H 990.417 3.74931 3.43953 0
M  V30 9574 H 989.815 1.32524 5.49958 0
M  V30 9575 H 988.372 1.89793 6.23556 0
M  V30 9576 N 991.805 -0.723954 1.39988 0
M  V30 9577 C 993.221 -1.03095 1.21834 0
M  V30 9578 C 993.421 -2.01309 0.0876647 0
M  V30 9579 O 992.477 -2.46277 -0.55714 0
M  V30 9580 C 993.79 -1.58267 2.5568 0
M  V30 9581 C 995.338 -1.70293 2.6262 0
M  V30 9582 C 995.813 -2.28872 3.96713 0
M  V30 9583 N 997.304 -2.36269 3.98411 0
M  V30 9584 C 998.039 -2.82557 4.98948 0
M  V30 9585 N 997.535 -3.28661 6.0988 0
M  V30 9586 N 999.328 -2.81866 4.86321 0
M  V30 9587 H 991.479 -0.0727891 2.12275 0
M  V30 9588 H 993.742 -0.0949029 0.943238 0
M  V30 9589 H 993.448 -0.935642 3.39026 0
M  V30 9590 H 993.322 -2.56914 2.76179 0
M  V30 9591 H 995.709 -2.34115 1.7965 0
M  V30 9592 H 995.79 -0.70268 2.45959 0
M  V30 9593 H 995.434 -1.65675 4.80119 0
M  V30 9594 H 995.364 -3.29595 4.107 0
M  V30 9595 H 997.855 -2.03697 3.18302 0
M  V30 9596 H 998.168 -3.62524 6.82493 0
M  V30 9597 H 996.513 -3.26641 6.13458 0
M  V30 9598 H 999.704 -2.45179 3.98754 0
M  V30 9599 H 999.877 -3.17626 5.64817 0
M  V30 9600 N 993.283 -1.25346 -0.955304 0
M  V30 9601 C 994.53 -1.10055 -1.69983 0
M  V30 9602 C 994.858 0.358586 -1.91166 0
M  V30 9603 O 994.113 1.28071 -1.47974 0
M  V30 9604 C 994.412 -1.7993 -3.08804 0
M  V30 9605 C 994.078 -3.29851 -3.07424 0
M  V30 9606 C 992.74 -3.7075 -3.06754 0
M  V30 9607 C 995.092 -4.25636 -3.00805 0
M  V30 9608 C 992.42 -5.05847 -2.97214 0
M  V30 9609 C 994.772 -5.60756 -2.92806 0
M  V30 9610 C 993.436 -6.00984 -2.90472 0
M  V30 9611 H 992.706 -0.402718 -0.622012 0
M  V30 9612 H 995.353 -1.5561 -1.11614 0
M  V30 9613 H 993.658 -1.26803 -3.70713 0
M  V30 9614 H 995.355 -1.65551 -3.65231 0
M  V30 9615 H 991.945 -2.97308 -3.08716 0
M  V30 9616 H 996.129 -3.9503 -3.00441 0
M  V30 9617 H 991.385 -5.36196 -2.93775 0
M  V30 9618 H 995.559 -6.34671 -2.86645 0
M  V30 9619 H 993.186 -7.05626 -2.82835 0
M  V30 9620 N 994.761 1.15782 -1.06922 0
M  V30 9621 C 995.989 1.90355 -0.81072 0
M  V30 9622 C 996.404 1.77779 0.635614 0
M  V30 9623 O 995.761 1.12675 1.43564 0
M  V30 9624 C 995.812 3.4085 -1.2043 0
M  V30 9625 O 995.533 3.53057 -2.59388 0
M  V30 9626 C 997.034 4.32457 -0.974473 0
M  V30 9627 H 994.254 0.60343 -0.293451 0
M  V30 9628 H 996.798 1.46723 -1.42452 0
M  V30 9629 H 994.953 3.82162 -0.634909 0
M  V30 9630 H 995.367 4.46426 -2.75326 0
M  V30 9631 H 996.841 5.36488 -1.29942 0
M  V30 9632 H 997.318 4.39109 0.0894481 0
M  V30 9633 H 997.924 3.96882 -1.52856 0
M  V30 9634 N 996.239 0.8527 1.3254 0
M  V30 9635 C 997.486 0.455123 1.97319 0
M  V30 9636 C 997.814 -0.988814 1.67489 0
M  V30 9637 O 997.069 -1.70845 0.954483 0
M  V30 9638 C 997.368 0.638757 3.51646 0
M  V30 9639 C 997.034 2.05287 4.01458 0
M  V30 9640 C 995.696 2.43963 4.14771 0
M  V30 9641 C 998.048 2.9759 4.27889 0
M  V30 9642 C 995.376 3.7422 4.51859 0
M  V30 9643 C 997.728 4.27343 4.66434 0
M  V30 9644 C 996.392 4.65957 4.77954 0
M  V30 9645 H 995.662 0.166541 0.722042 0
M  V30 9646 H 998.309 1.08238 1.57977 0
M  V30 9647 H 996.614 -0.0717394 3.91734 0
M  V30 9648 H 998.311 0.311219 3.9979 0
M  V30 9649 H 994.901 1.74253 3.91579 0
M  V30 9650 H 999.085 2.68942 4.17114 0
M  V30 9651 H 994.341 4.03923 4.58973 0
M  V30 9652 H 998.515 4.9893 4.85841 0
M  V30 9653 H 996.142 5.66934 5.06449 0
M  V30 9654 N 997.718 -1.45297 0.610449 0
M  V30 9655 C 998.943 -2.07101 0.111414 0
M  V30 9656 C 999.368 -1.45161 -1.19625 0
M  V30 9657 O 998.726 -0.545368 -1.72903 0
M  V30 9658 C 998.774 -3.60598 -0.0117372 0
M  V30 9659 O 997.878 -3.98512 -1.06122 0
M  V30 9660 H 997.219 -0.659709 0.075364 0
M  V30 9661 H 999.749 -1.86504 0.841269 0
M  V30 9662 H 999.759 -4.07464 -0.209028 0
M  V30 9663 H 998.434 -4.05067 0.943076 0
M  V30 9664 H 997.011 -3.63312 -0.840158 0
M  V30 9665 N 999.196 -0.349774 -1.5367 0
M  V30 9666 C 1000.61 0.132815 -1.86227 0
M  V30 9667 C 1000.96 1.49479 -1.27084 0
M  V30 9668 O 1000.08 2.08292 -0.58679 0
M  V30 9669 C 1000.68 0.247775 -3.37893 0
M  V30 9670 C 999.237 0.674603 -3.70305 0
M  V30 9671 C 998.384 -0.187869 -2.76663 0
M  V30 9672 H 1001.33 -0.569148 -1.48143 0
M  V30 9673 H 1001.36 1.07418 -3.65023 0
M  V30 9674 H 1000.87 -0.743635 -3.80909 0
M  V30 9675 H 998.969 1.67481 -3.32837 0
M  V30 9676 H 999.082 0.460177 -4.76885 0
M  V30 9677 H 997.446 0.340779 -2.5241 0
M  V30 9678 H 998.229 -1.17653 -3.2251 0
M  V30 9679 N 1000.67 1.57404 -0.0785433 0
M  V30 9680 C 1001.92 1.93361 0.58786 0
M  V30 9681 C 1002.24 0.959856 1.6974 0
M  V30 9682 O 1001.51 0.0091173 1.95898 0
M  V30 9683 H 1000.09 0.713825 0.220141 0
M  V30 9684 H 1002.75 1.94411 -0.137986 0
M  V30 9685 H 1001.85 2.95346 1.00881 0
M  V30 9686 N 1002.15 -0.195058 1.56388 0
M  V30 9687 C 1003.08 -1.26581 1.91076 0
M  V30 9688 C 1004.1 -1.41707 0.801436 0
M  V30 9689 O 1005.29 -1.42132 1.07985 0
M  V30 9690 C 1002.39 -2.63794 2.12758 0
M  V30 9691 C 1001.56 -2.70275 3.43904 0
M  V30 9692 C 1000.62 -3.88685 3.54698 0
M  V30 9693 O 999.644 -3.75786 4.2752 0
M  V30 9694 N 1000.85 -5.04141 2.87789 0
M  V30 9695 H 1003.61 -0.971401 2.83521 0
M  V30 9696 H 1001.17 -0.384976 1.57256 0
M  V30 9697 H 1003.16 -3.41434 2.17267 0
M  V30 9698 H 1001.73 -2.85723 1.26812 0
M  V30 9699 H 1000.95 -1.78909 3.51262 0
M  V30 9700 H 1002.24 -2.71597 4.30247 0
M  V30 9701 H 1001.64 -5.17519 2.28452 0
M  V30 9702 H 1000.2 -5.79727 2.97925 0
M  V30 9703 N 1003.63 -1.50653 -0.462772 0
M  V30 9704 C 1004.91 -1.5258 -1.22387 0
M  V30 9705 C 1005.29 -0.275263 -2.09298 0
M  V30 9706 O 1004.63 0.740943 -2.16153 0
M  V30 9707 C 1004.84 -2.82611 -2.04773 0
M  V30 9708 C 1006.19 -3.33592 -2.62681 0
M  V30 9709 O 1007.22 -2.83989 -2.15008 0
M  V30 9710 O 1006.08 -4.20081 -3.49563 0
M  V30 9711 H 1003.17 -0.612367 -0.55582 0
M  V30 9712 H 1005.72 -1.62948 -0.473914 0
M  V30 9713 H 1004.49 -3.65098 -1.40781 0
M  V30 9714 H 1004.11 -2.75286 -2.86886 0
M  V30 9715 N 1005.11 0.71652 -1.4037 0
M  V30 9716 C 1006.36 1.47193 -1.37903 0
M  V30 9717 C 1006.67 1.95593 0.0159939 0
M  V30 9718 O 1007.88 2.71009 0.163282 0
M  V30 9719 C 1006.33 2.6606 -2.42363 0
M  V30 9720 C 1005.94 2.24533 -3.87671 0
M  V30 9721 C 1007.68 3.438 -2.49001 0
M  V30 9722 C 1005.59 3.40234 -4.8373 0
M  V30 9723 H 1004.52 0.552811 -0.512753 0
M  V30 9724 H 1007.17 0.779894 -1.66102 0
M  V30 9725 H 1005.55 3.37429 -2.07262 0
M  V30 9726 H 1006.73 1.6059 -4.31911 0
M  V30 9727 H 1005.04 1.59839 -3.845 0
M  V30 9728 H 1007.64 4.29893 -3.17956 0
M  V30 9729 H 1007.98 3.8755 -1.52023 0
M  V30 9730 H 1008.52 2.79474 -2.83088 0
M  V30 9731 H 1005.26 3.01517 -5.82037 0
M  V30 9732 H 1004.78 4.03095 -4.44156 0
M  V30 9733 H 1006.45 4.06312 -5.03507 0
M  V30 9734 N 1006.59 1.25851 0.948643 0
M  V30 9735 C 1007.52 1.02549 2.04979 0
M  V30 9736 C 1008.53 -0.0115923 1.62796 0
M  V30 9737 O 1009.72 0.227643 1.77042 0
M  V30 9738 C 1006.82 0.529486 3.34738 0
M  V30 9739 C 1005.99 1.6341 4.05729 0
M  V30 9740 C 1005.05 1.13743 5.1376 0
M  V30 9741 O 1004.08 1.83303 5.38877 0
M  V30 9742 N 1005.28 -0.0181151 5.80497 0
M  V30 9743 H 1008.05 1.97365 2.25537 0
M  V30 9744 H 1005.61 1.17137 1.11761 0
M  V30 9745 H 1007.6 0.181566 4.04293 0
M  V30 9746 H 1006.17 -0.324893 3.10907 0
M  V30 9747 H 1005.39 2.15331 3.30191 0
M  V30 9748 H 1006.68 2.37603 4.49914 0
M  V30 9749 H 1006.07 -0.599198 5.62518 0
M  V30 9750 H 1004.63 -0.307019 6.51077 0
M  V30 9751 N 1008.06 -1.15214 1.07534 0
M  V30 9752 C 1008.99 -2.2216 0.718837 0
M  V30 9753 C 1009.98 -1.6753 -0.29459 0
M  V30 9754 O 1011.16 -1.93481 -0.166931 0
M  V30 9755 C 1008.29 -3.471 0.117836 0
M  V30 9756 C 1007.24 -4.14701 1.05862 0
M  V30 9757 C 1006.57 -5.3374 0.320284 0
M  V30 9758 C 1007.87 -4.64254 2.39302 0
M  V30 9759 H 1009.56 -2.52237 1.61297 0
M  V30 9760 H 1007.11 -1.21239 0.776992 0
M  V30 9761 H 1009.06 -4.21156 -0.143519 0
M  V30 9762 H 1007.79 -3.16361 -0.811389 0
M  V30 9763 H 1006.45 -3.42589 1.30493 0
M  V30 9764 H 1006.09 -4.99257 -0.61246 0
M  V30 9765 H 1005.79 -5.79912 0.947381 0
M  V30 9766 H 1007.32 -6.10563 0.0667721 0
M  V30 9767 H 1008.73 -5.29827 2.18988 0
M  V30 9768 H 1007.13 -5.21095 2.97623 0
M  V30 9769 H 1008.2 -3.79793 3.01472 0
M  V30 9770 N 1009.54 -0.859717 -1.32086 0
M  V30 9771 C 1010.79 -0.461779 -1.96343 0
M  V30 9772 C 1011.1 0.988837 -1.68764 0
M  V30 9773 O 1012.31 1.49244 -2.268 0
M  V30 9774 C 1010.77 -0.77484 -3.5146 0
M  V30 9775 C 1010.37 -2.24153 -3.87891 0
M  V30 9776 C 1012.12 -0.444873 -4.22162 0
M  V30 9777 C 1010.03 -2.49754 -5.36075 0
M  V30 9778 H 1008.96 -0.168951 -0.734828 0
M  V30 9779 H 1011.61 -1.0512 -1.50406 0
M  V30 9780 H 1009.99 -0.114792 -3.95834 0
M  V30 9781 H 1011.16 -2.94378 -3.54511 0
M  V30 9782 H 1009.48 -2.53651 -3.30227 0
M  V30 9783 H 1012.07 -0.613508 -5.31169 0
M  V30 9784 H 1012.42 0.61391 -4.11749 0
M  V30 9785 H 1012.95 -1.06103 -3.83389 0
M  V30 9786 H 1009.69 -3.54276 -5.51515 0
M  V30 9787 H 1009.21 -1.84112 -5.70844 0
M  V30 9788 H 1010.89 -2.3396 -6.03218 0
M  V30 9789 N 1011.02 1.44971 -0.618145 0
M  V30 9790 C 1012.43 1.85611 -0.201334 0
M  V30 9791 C 1012.78 1.51698 1.24427 0
M  V30 9792 O 1011.91 0.94875 1.94493 0
M  V30 9793 C 1012.5 3.36897 -0.358619 0
M  V30 9794 C 1011.06 3.764 0.00358196 0
M  V30 9795 C 1010.21 2.68881 -0.678118 0
M  V30 9796 H 1013.16 1.35622 -0.824152 0
M  V30 9797 H 1013.18 3.78326 0.406176 0
M  V30 9798 H 1012.69 3.61548 -1.41084 0
M  V30 9799 H 1010.79 3.57365 1.05457 0
M  V30 9800 H 1010.91 4.77449 -0.397427 0
M  V30 9801 H 1009.27 2.54442 -0.114699 0
M  V30 9802 H 1010.05 2.96367 -1.73268 0
M  V30 9803 N 1012.5 0.357919 1.53482 0
M  V30 9804 C 1013.91 -0.122938 1.86295 0
M  V30 9805 C 1014.26 -1.48803 1.27875 0
M  V30 9806 O 1013.39 -2.07978 0.597828 0
M  V30 9807 C 1013.98 -0.229853 3.38019 0
M  V30 9808 C 1012.54 -0.654955 3.70658 0
M  V30 9809 C 1011.69 0.202539 2.76559 0
M  V30 9810 H 1014.64 0.576997 1.47839 0
M  V30 9811 H 1014.66 -1.05481 3.65587 0
M  V30 9812 H 1014.17 0.763825 3.80509 0
M  V30 9813 H 1012.27 -1.65714 3.33721 0
M  V30 9814 H 1012.38 -0.43488 4.77122 0
M  V30 9815 H 1010.75 -0.327388 2.52587 0
M  V30 9816 H 1011.53 1.19361 3.21882 0
M  V30 9817 N 1013.98 -1.5736 0.0868897 0
M  V30 9818 C 1014.91 -2.16596 -0.872252 0
M  V30 9819 C 1015.89 -1.09706 -1.29995 0
M  V30 9820 O 1017.07 -1.37808 -1.36831 0
M  V30 9821 C 1014.2 -2.73972 -2.1344 0
M  V30 9822 C 1013.16 -3.86163 -1.8456 0
M  V30 9823 C 1012.48 -4.30206 -3.17533 0
M  V30 9824 C 1013.78 -5.0973 -1.13899 0
M  V30 9825 H 1015.48 -2.96995 -0.378738 0
M  V30 9826 H 1013.02 -1.42861 -0.18073 0
M  V30 9827 H 1014.98 -3.14062 -2.80968 0
M  V30 9828 H 1013.7 -1.90817 -2.6506 0
M  V30 9829 H 1012.36 -3.466 -1.19432 0
M  V30 9830 H 1012.01 -3.43951 -3.67024 0
M  V30 9831 H 1011.71 -5.05841 -2.98996 0
M  V30 9832 H 1013.23 -4.72922 -3.86234 0
M  V30 9833 H 1014.64 -5.4704 -1.71523 0
M  V30 9834 H 1013.04 -5.90741 -1.05569 0
M  V30 9835 H 1014.11 -4.8475 -0.120432 0
M  V30 9836 N 1015.45 0.186762 -1.56489 0
M  V30 9837 C 1016.7 0.904077 -1.80303 0
M  V30 9838 C 1017.02 1.84073 -0.661538 0
M  V30 9839 O 1018.22 2.59928 -0.784197 0
M  V30 9840 C 1016.68 1.65806 -3.19432 0
M  V30 9841 C 1016.29 0.765807 -4.41406 0
M  V30 9842 C 1018.03 2.36451 -3.52549 0
M  V30 9843 C 1015.94 1.51913 -5.71556 0
M  V30 9844 H 1014.87 0.34133 -0.672317 0
M  V30 9845 H 1017.52 0.157218 -1.82825 0
M  V30 9846 H 1015.9 2.44911 -3.11183 0
M  V30 9847 H 1017.07 0.0128225 -4.60798 0
M  V30 9848 H 1015.39 0.169772 -4.16054 0
M  V30 9849 H 1017.99 2.93378 -4.47027 0
M  V30 9850 H 1018.33 3.11044 -2.7669 0
M  V30 9851 H 1018.86 1.64305 -3.62283 0
M  V30 9852 H 1015.6 0.815829 -6.50403 0
M  V30 9853 H 1015.12 2.24583 -5.56168 0
M  V30 9854 H 1016.8 2.07073 -6.12968 0
M  V30 9855 N 1016.93 1.50896 0.454776 0
M  V30 9856 C 1017.88 1.71497 1.57136 0
M  V30 9857 C 1018.87 0.58098 1.59126 0
M  V30 9858 O 1020.08 0.761916 1.63079 0
M  V30 9859 H 1016.46 0.54158 0.521724 0
M  V30 9860 H 1018.43 2.65129 1.36928 0
M  V30 9861 C 1017.18 1.84125 2.94947 0
M  V30 9862 H 1016.5 2.7078 2.9414 0
M  V30 9863 H 1017.94 2.02558 3.72487 0
M  V30 9864 C 1016.4 0.596752 3.31573 0
M  V30 9865 O 1016.93 -0.256632 4.00879 0
M  V30 9866 N 1015.13 0.445958 2.87158 0
M  V30 9867 H 1014.68 1.14146 2.30929 0
M  V30 9868 H 1014.64 -0.385519 3.12027 0
M  V30 9869 N 1018.41 -0.709066 1.40748 0
M  V30 9870 C 1019.34 -1.83583 1.4429 0
M  V30 9871 C 1020.32 -1.67378 0.303067 0
M  V30 9872 O 1021.51 -1.87312 0.512612 0
M  V30 9873 C 1018.64 -3.21599 1.31116 0
M  V30 9874 C 1017.59 -3.52486 2.4277 0
M  V30 9875 C 1016.92 -4.89716 2.14668 0
M  V30 9876 C 1018.22 -3.52824 3.85113 0
M  V30 9877 H 1019.91 -1.80876 2.38588 0
M  V30 9878 H 1017.46 -0.868795 1.14839 0
M  V30 9879 H 1019.41 -4.00123 1.32209 0
M  V30 9880 H 1018.13 -3.24898 0.332965 0
M  V30 9881 H 1016.79 -2.76305 2.40937 0
M  V30 9882 H 1016.44 -4.89625 1.15224 0
M  V30 9883 H 1016.14 -5.11347 2.89478 0
M  V30 9884 H 1017.66 -5.70566 2.17455 0
M  V30 9885 H 1019.08 -4.21377 3.88734 0
M  V30 9886 H 1017.48 -3.85984 4.59496 0
M  V30 9887 H 1018.55 -2.52073 4.14231 0
M  V30 9888 N 1019.89 -1.26353 -0.941956 0
M  V30 9889 C 1020.82 -1.10341 -2.05784 0
M  V30 9890 C 1021.8 -0.00881565 -1.70098 0
M  V30 9891 O 1022.99 -0.180699 -1.93357 0
M  V30 9892 C 1020.12 -0.734788 -3.39438 0
M  V30 9893 C 1019.07 -1.78103 -3.89183 0
M  V30 9894 C 1018.4 -1.26675 -5.19478 0
M  V30 9895 C 1019.7 -3.1824 -4.14151 0
M  V30 9896 H 1021.39 -2.03684 -2.19438 0
M  V30 9897 H 1018.94 -0.980698 -1.05443 0
M  V30 9898 H 1020.89 -0.609653 -4.16967 0
M  V30 9899 H 1019.61 0.234354 -3.25758 0
M  V30 9900 H 1018.27 -1.89482 -3.13835 0
M  V30 9901 H 1017.92 -0.287472 -5.02178 0
M  V30 9902 H 1017.62 -1.96612 -5.53731 0
M  V30 9903 H 1019.14 -1.15427 -5.99591 0
M  V30 9904 H 1020.56 -3.09942 -4.82296 0
M  V30 9905 H 1018.95 -3.8576 -4.59684 0
M  V30 9906 H 1020.02 -3.64354 -3.19959 0
M  V30 9907 N 1021.37 1.14642 -1.08144 0
M  V30 9908 C 1022.3 2.18656 -0.653066 0
M  V30 9909 C 1023.28 1.59137 0.333803 0
M  V30 9910 O 1024.46 1.86988 0.238305 0
M  V30 9911 C 1021.59 3.38677 0.0398337 0
M  V30 9912 C 1020.64 4.1675 -0.906755 0
M  V30 9913 S 1021.47 4.78103 -2.41201 0
M  V30 9914 C 1022.62 6.01483 -1.73115 0
M  V30 9915 H 1022.86 2.54654 -1.53423 0
M  V30 9916 H 1020.39 1.25731 -0.896162 0
M  V30 9917 H 1022.35 4.08206 0.43334 0
M  V30 9918 H 1021.01 3.01006 0.897457 0
M  V30 9919 H 1020.2 5.02649 -0.368795 0
M  V30 9920 H 1019.8 3.52809 -1.24103 0
M  V30 9921 H 1022.1 6.69353 -1.04752 0
M  V30 9922 H 1023.04 6.59863 -2.56878 0
M  V30 9923 H 1023.45 5.51474 -1.20566 0
M  V30 9924 N 1022.85 0.866709 1.31628 0
M  V30 9925 C 1024.07 0.48956 2.01539 0
M  V30 9926 C 1024.5 -0.909556 1.64647 0
M  V30 9927 O 1023.85 -1.59959 0.853391 0
M  V30 9928 C 1023.9 0.650176 3.5469 0
M  V30 9929 O 1023.01 -0.311908 4.11219 0
M  V30 9930 H 1022.35 0.195144 0.634677 0
M  V30 9931 H 1024.88 1.16923 1.679 0
M  V30 9932 H 1024.89 0.542236 4.04381 0
M  V30 9933 H 1023.56 1.67038 3.80882 0
M  V30 9934 H 1022.14 -0.159197 3.7256 0
M  V30 9935 N 1024.32 -1.44642 0.625825 0
M  V30 9936 C 1025.57 -2.01308 0.125682 0
M  V30 9937 C 1025.89 -1.49773 -1.25807 0
M  V30 9938 O 1027.09 -1.98533 -1.85194 0
M  V30 9939 C 1025.55 -3.59479 0.17395 0
M  V30 9940 C 1025.16 -4.20011 1.55868 0
M  V30 9941 C 1026.9 -4.2364 -0.270005 0
M  V30 9942 C 1024.81 -5.7039 1.56235 0
M  V30 9943 H 1023.74 -0.75276 0.0432194 0
M  V30 9944 H 1026.39 -1.65916 0.783842 0
M  V30 9945 H 1024.77 -3.92145 -0.551212 0
M  V30 9946 H 1025.94 -3.98891 2.307 0
M  V30 9947 H 1024.26 -3.68116 1.94627 0
M  V30 9948 H 1026.86 -5.33931 -0.28672 0
M  V30 9949 H 1027.2 -3.95603 -1.29629 0
M  V30 9950 H 1027.73 -3.95759 0.402487 0
M  V30 9951 H 1024.47 -6.03154 2.56683 0
M  V30 9952 H 1023.99 -5.93648 0.856881 0
M  V30 9953 H 1025.67 -6.33929 1.29396 0
M  V30 9954 N 1025.8 -0.366053 -1.5329 0
M  V30 9955 C 1026.71 0.488111 -2.29466 0
M  V30 9956 C 1027.73 1.09219 -1.35452 0
M  V30 9957 O 1028.9 1.10303 -1.68509 0
M  V30 9958 C 1025.97 1.61202 -3.06944 0
M  V30 9959 C 1025.03 1.03543 -4.16626 0
M  V30 9960 C 1024.26 2.10578 -4.904 0
M  V30 9961 O 1024.49 3.31697 -4.6404 0
M  V30 9962 O 1023.42 1.73609 -5.76319 0
M  V30 9963 H 1027.25 -0.131789 -3.03414 0
M  V30 9964 H 1024.83 -0.130421 -1.4883 0
M  V30 9965 H 1026.71 2.26546 -3.55324 0
M  V30 9966 H 1025.39 2.21732 -2.35832 0
M  V30 9967 H 1024.29 0.345892 -3.72498 0
M  V30 9968 H 1025.63 0.474687 -4.89906 0
M  V30 9969 N 1027.28 1.57312 -0.0952337 0
M  V30 9970 C 1028.69 1.81589 0.433875 0
M  V30 9971 C 1029.04 1.01086 1.68155 0
M  V30 9972 O 1028.17 0.240272 2.15062 0
M  V30 9973 C 1028.76 3.29366 0.793931 0
M  V30 9974 C 1027.32 3.54407 1.26778 0
M  V30 9975 C 1026.47 2.76035 0.264518 0
M  V30 9976 H 1029.42 1.55426 -0.320675 0
M  V30 9977 H 1029.44 3.42697 1.65345 0
M  V30 9978 H 1028.95 3.87932 -0.114334 0
M  V30 9979 H 1027.05 3.01173 2.19376 0
M  V30 9980 H 1027.17 4.63055 1.22952 0
M  V30 9981 H 1025.53 2.43509 0.746691 0
M  V30 9982 H 1026.31 3.37349 -0.636429 0
M  V30 9983 N 1028.76 -0.17846 1.56586 0
M  V30 9984 C 1030.03 -0.923096 1.72448 0
M  V30 9985 C 1030.41 -2.00692 0.654659 0
M  V30 9986 O 1029.76 -2.26079 -0.33171 0
M  V30 9987 C 1029.97 -1.49435 3.15389 0
M  V30 9988 C 1031.32 -1.97005 3.76131 0
M  V30 9989 O 1032.34 -1.59244 3.18622 0
M  V30 9990 O 1031.2 -2.66541 4.77094 0
M  V30 9991 H 1028.3 -0.434009 0.703964 0
M  V30 9992 H 1030.84 -0.16685 1.68878 0
M  V30 9993 H 1029.62 -0.713933 3.84732 0
M  V30 9994 H 1029.24 -2.31498 3.23256 0
M  V30 9995 N 1030.24 -1.51135 -0.446768 0
M  V30 9996 C 1031.48 -1.63578 -1.19875 0
M  V30 9997 C 1031.81 -0.346478 -1.91084 0
M  V30 9998 O 1031.09 0.653447 -1.83195 0
M  V30 9999 C 1031.37 -2.83275 -2.22323 0
M  V30 10000 C 1031.23 -4.22155 -1.55259 0
M  V30 10001 C 1032.54 -2.98496 -3.23401 0
M  V30 10002 H 1029.66 -0.595333 -0.434452 0
M  V30 10003 H 1032.31 -1.83593 -0.48923 0
M  V30 10004 H 1030.46 -2.6634 -2.82834 0
M  V30 10005 H 1032.13 -4.50736 -0.981571 0
M  V30 10006 H 1030.37 -4.25288 -0.855122 0
M  V30 10007 H 1031.04 -5.01882 -2.29823 0
M  V30 10008 H 1033.52 -3.14079 -2.72935 0
M  V30 10009 H 1032.39 -3.83828 -3.92386 0
M  V30 10010 H 1032.65 -2.10157 -3.88956 0
M  V30 10011 N 1031.71 0.701592 -1.41122 0
M  V30 10012 C 1032.96 1.45722 -1.39456 0
M  V30 10013 C 1033.28 1.95599 -0.00475228 0
M  V30 10014 O 1034.48 2.71166 0.134529 0
M  V30 10015 C 1032.94 2.63475 -2.45172 0
M  V30 10016 C 1032.55 2.20409 -3.90031 0
M  V30 10017 C 1034.29 3.4114 -2.52633 0
M  V30 10018 C 1032.2 3.35084 -4.87312 0
M  V30 10019 H 1031.13 0.547341 -0.518588 0
M  V30 10020 H 1033.78 0.762233 -1.6692 0
M  V30 10021 H 1032.16 3.35212 -2.10829 0
M  V30 10022 H 1033.33 1.56 -4.3359 0
M  V30 10023 H 1031.65 1.55752 -3.86174 0
M  V30 10024 H 1034.25 4.26496 -3.22498 0
M  V30 10025 H 1034.59 3.85915 -1.56125 0
M  V30 10026 H 1035.12 2.76456 -2.86037 0
M  V30 10027 H 1031.86 2.95327 -5.85203 0
M  V30 10028 H 1031.38 3.98362 -4.48406 0
M  V30 10029 H 1033.06 4.00949 -5.07788 0
M  V30 10030 N 1033.19 1.2685 0.935242 0
M  V30 10031 C 1034.42 1.15371 1.71386 0
M  V30 10032 C 1034.83 -0.293048 1.86917 0
M  V30 10033 O 1034.17 -1.212 1.38044 0
M  V30 10034 C 1034.23 1.75652 3.13666 0
M  V30 10035 C 1033.9 3.24788 3.215 0
M  V30 10036 C 1034.9 4.21525 3.04323 0
M  V30 10037 C 1032.58 3.65359 3.447 0
M  V30 10038 C 1034.57 5.56812 3.10224 0
M  V30 10039 C 1032.26 5.00778 3.50235 0
M  V30 10040 C 1033.26 5.96314 3.33014 0
M  V30 10041 O 1032.95 7.29266 3.38269 0
M  V30 10042 H 1032.68 0.40234 0.54323 0
M  V30 10043 H 1035.23 1.68083 1.18056 0
M  V30 10044 H 1033.46 1.17408 3.68446 0
M  V30 10045 H 1035.15 1.58994 3.73465 0
M  V30 10046 H 1035.92 3.91519 2.86249 0
M  V30 10047 H 1031.8 2.91479 3.57157 0
M  V30 10048 H 1035.34 6.3136 2.967 0
M  V30 10049 H 1031.24 5.30444 3.67831 0
M  V30 10050 H 1032.01 7.37616 3.54774 0
M  V30 10051 N 1034.67 -1.14067 1.0875 0
M  V30 10052 C 1035.63 -2.17453 0.724341 0
M  V30 10053 C 1036.63 -1.58959 -0.242614 0
M  V30 10054 O 1037.82 -1.74186 -0.0217008 0
M  V30 10055 C 1034.96 -3.40828 0.0700236 0
M  V30 10056 H 1036.15 -2.51094 1.63987 0
M  V30 10057 H 1033.7 -1.28775 0.885813 0
M  V30 10058 H 1034.44 -3.1277 -0.857061 0
M  V30 10059 H 1034.22 -3.84551 0.76569 0
M  V30 10060 H 1035.71 -4.17258 -0.168905 0
M  V30 10061 N 1036.15 -0.873678 -1.31166 0
M  V30 10062 C 1037.4 -0.485497 -1.96182 0
M  V30 10063 C 1037.72 0.96621 -1.69379 0
M  V30 10064 O 1036.99 1.67783 -1.01121 0
M  V30 10065 H 1035.57 -0.176547 -0.725838 0
M  V30 10066 H 1038.23 -1.11428 -1.59906 0
M  V30 10067 H 1037.33 -0.646325 -3.05334 0
M  V30 10068 N 1037.63 1.44308 -0.633487 0
M  V30 10069 C 1038.58 2.27814 0.0919619 0
M  V30 10070 C 1039.56 1.38798 0.813882 0
M  V30 10071 O 1040.75 1.62587 0.699601 0
M  V30 10072 C 1037.88 3.26158 1.07125 0
M  V30 10073 C 1036.97 4.22663 0.348831 0
M  V30 10074 N 1037.36 5.01938 -0.623854 0
M  V30 10075 C 1035.66 4.42041 0.592958 0
M  V30 10076 C 1036.36 5.72129 -1.05088 0
M  V30 10077 N 1035.33 5.42205 -0.389183 0
M  V30 10078 H 1039.14 2.86515 -0.654721 0
M  V30 10079 H 1036.65 1.55773 -0.459178 0
M  V30 10080 H 1038.65 3.84742 1.60559 0
M  V30 10081 H 1037.31 2.69019 1.81821 0
M  V30 10082 H 1038.32 5.08119 -1.00176 0
M  V30 10083 H 1034.99 3.95997 1.32261 0
M  V30 10084 H 1036.38 6.45797 -1.85461 0
M  V30 10085 N 1039.1 0.374177 1.53094 0
M  V30 10086 C 1040.38 -0.269632 1.93733 0
M  V30 10087 C 1040.76 -1.6566 1.30843 0
M  V30 10088 O 1040.11 -2.23598 0.470759 0
M  V30 10089 C 1040.32 -0.311204 3.4761 0
M  V30 10090 C 1041.67 -0.547432 4.21056 0
M  V30 10091 O 1042.69 -0.392053 3.54036 0
M  V30 10092 O 1041.55 -0.850645 5.39839 0
M  V30 10093 H 1038.64 -0.163723 0.810632 0
M  V30 10094 H 1041.19 0.427586 1.64225 0
M  V30 10095 H 1039.96 0.660897 3.85678 0
M  V30 10096 H 1039.59 -1.05397 3.83376 0
M  V30 10097 N 1040.58 -1.57259 0.103575 0
M  V30 10098 C 1041.53 -2.15727 -0.869739 0
M  V30 10099 C 1042.52 -1.10236 -1.28625 0
M  V30 10100 O 1043.73 -1.28567 -1.25979 0
M  V30 10101 H 1040.11 -0.690204 -0.298535 0
M  V30 10102 H 1042.08 -2.96317 -0.351984 0
M  V30 10103 C 1040.83 -2.75905 -2.11593 0
M  V30 10104 H 1040.15 -3.56768 -1.80434 0
M  V30 10105 H 1041.59 -3.20373 -2.77736 0
M  V30 10106 C 1040.05 -1.72218 -2.89556 0
M  V30 10107 O 1040.58 -1.16623 -3.84398 0
M  V30 10108 N 1038.78 -1.42514 -2.53255 0
M  V30 10109 H 1038.33 -1.87914 -1.76198 0
M  V30 10110 H 1038.29 -0.733782 -3.05717 0
M  V30 10111 N 1042.06 0.170153 -1.56679 0
M  V30 10112 C 1043.29 0.902134 -1.86197 0
M  V30 10113 C 1043.7 1.75775 -0.689098 0
M  V30 10114 O 1043.06 1.79271 0.341763 0
M  V30 10115 C 1043.11 1.77792 -3.14757 0
M  V30 10116 O 1042.83 0.956817 -4.27524 0
M  V30 10117 C 1044.33 2.61947 -3.57629 0
M  V30 10118 H 1041.55 0.262026 -0.617724 0
M  V30 10119 H 1044.1 0.169899 -2.03793 0
M  V30 10120 H 1042.25 2.46348 -2.98984 0
M  V30 10121 H 1042.67 1.5559 -5.00891 0
M  V30 10122 H 1044.14 3.19011 -4.50484 0
M  V30 10123 H 1044.62 3.36873 -2.81803 0
M  V30 10124 H 1045.22 1.98721 -3.76019 0
M  V30 10125 N 1043.54 1.5137 0.438746 0
M  V30 10126 C 1044.49 1.72582 1.53245 0
M  V30 10127 C 1045.46 0.567488 1.56105 0
M  V30 10128 O 1046.64 0.80176 1.73137 0
M  V30 10129 C 1043.78 1.85551 2.90972 0
M  V30 10130 C 1042.89 3.13094 2.97652 0
M  V30 10131 C 1042.03 3.16666 4.26493 0
M  V30 10132 C 1041.07 4.38529 4.27035 0
M  V30 10133 N 1040.2 4.39659 5.47398 0
M  V30 10134 H 1045.04 2.65941 1.3446 0
M  V30 10135 H 1042.58 1.31801 0.653206 0
M  V30 10136 H 1044.54 1.91053 3.70884 0
M  V30 10137 H 1043.17 0.956025 3.08318 0
M  V30 10138 H 1042.22 3.16909 2.10412 0
M  V30 10139 H 1043.53 4.03009 2.93914 0
M  V30 10140 H 1042.69 3.21075 5.14777 0
M  V30 10141 H 1041.43 2.24637 4.32885 0
M  V30 10142 H 1040.43 4.34297 3.37144 0
M  V30 10143 H 1041.66 5.31821 4.22307 0
M  V30 10144 H 1039.6 3.50499 5.54514 0
M  V30 10145 H 1039.52 5.23382 5.45534 0
M  V30 10146 H 1040.79 4.48259 6.37718 0
M  V30 10147 N 1045.02 -0.694098 1.41492 0
M  V30 10148 C 1046.43 -1.27407 1.36471 0
M  V30 10149 C 1046.78 -1.9614 0.0485209 0
M  V30 10150 O 1045.9 -1.98871 -0.853188 0
M  V30 10151 C 1046.5 -2.31698 2.47188 0
M  V30 10152 C 1045.06 -2.85268 2.45559 0
M  V30 10153 C 1044.2 -1.59325 2.2696 0
M  V30 10154 H 1047.16 -0.488756 1.50986 0
M  V30 10155 H 1047.18 -3.1302 2.1633 0
M  V30 10156 H 1046.69 -1.81644 3.42968 0
M  V30 10157 H 1044.79 -3.39494 1.5354 0
M  V30 10158 H 1044.9 -3.35598 3.41922 0
M  V30 10159 H 1043.27 -1.85188 1.74864 0
M  V30 10160 H 1044.05 -1.11265 3.24769 0
M  V30 10161 N 1046.49 -1.27344 -0.928501 0
M  V30 10162 C 1047.77 -1.04362 -1.65433 0
M  V30 10163 C 1048.15 0.421896 -2.06841 0
M  V30 10164 O 1047.5 1.40496 -1.80203 0
M  V30 10165 C 1047.71 -2.00442 -2.85699 0
M  V30 10166 C 1049.06 -2.29767 -3.57061 0
M  V30 10167 O 1050.08 -1.98409 -2.95825 0
M  V30 10168 O 1048.94 -2.83217 -4.67387 0
M  V30 10169 H 1046.03 -0.397783 -0.72505 0
M  V30 10170 H 1048.58 -1.38606 -0.979109 0
M  V30 10171 H 1047.35 -2.99281 -2.52085 0
M  V30 10172 H 1046.98 -1.66755 -3.60941 0
M  V30 10173 N 1047.97 1.13488 -1.09353 0
M  V30 10174 C 1049.2 1.88592 -0.850915 0
M  V30 10175 C 1049.62 1.79087 0.597761 0
M  V30 10176 O 1048.97 1.15695 1.41142 0
M  V30 10177 C 1049.02 3.38219 -1.27633 0
M  V30 10178 O 1048.74 3.47476 -2.66819 0
M  V30 10179 C 1050.25 4.30293 -1.06598 0
M  V30 10180 H 1047.47 0.597069 -0.306185 0
M  V30 10181 H 1050.01 1.43668 -1.45533 0
M  V30 10182 H 1048.16 3.80729 -0.715828 0
M  V30 10183 H 1048.58 4.40485 -2.84733 0
M  V30 10184 H 1050.05 5.33611 -1.41293 0
M  V30 10185 H 1050.53 4.392 -0.0037135 0
M  V30 10186 H 1051.14 3.9355 -1.6124 0
M  V30 10187 N 1049.45 0.880621 1.30701 0
M  V30 10188 C 1050.68 0.510909 2.01009 0
M  V30 10189 C 1051.1 -0.892041 1.65603 0
M  V30 10190 O 1050.46 -1.59045 0.870309 0
M  V30 10191 C 1050.51 0.687759 3.53981 0
M  V30 10192 O 1049.61 -0.268275 4.11526 0
M  V30 10193 H 1048.95 0.201864 0.632572 0
M  V30 10194 H 1051.48 1.18697 1.6665 0
M  V30 10195 H 1051.49 0.585095 4.03783 0
M  V30 10196 H 1050.17 1.71068 3.79089 0
M  V30 10197 H 1048.74 -0.119673 3.72708 0
M  V30 10198 N 1050.93 -1.4397 0.641131 0
M  V30 10199 C 1052.15 -2.06818 0.155318 0
M  V30 10200 C 1052.58 -1.47665 -1.16519 0
M  V30 10201 O 1051.94 -0.58192 -1.71707 0
M  V30 10202 C 1051.99 -3.60542 0.0647537 0
M  V30 10203 O 1051.09 -4.00674 -0.976447 0
M  V30 10204 H 1050.43 -0.657962 0.0893404 0
M  V30 10205 H 1052.96 -1.84678 0.88064 0
M  V30 10206 H 1052.97 -4.07816 -0.122552 0
M  V30 10207 H 1051.65 -4.02975 1.02878 0
M  V30 10208 H 1050.22 -3.65013 -0.762905 0
M  V30 10209 N 1052.41 -0.382291 -1.52893 0
M  V30 10210 C 1053.63 0.204961 -2.06385 0
M  V30 10211 C 1054.06 1.40316 -1.25271 0
M  V30 10212 O 1053.42 1.79187 -0.275969 0
M  V30 10213 C 1053.46 0.560205 -3.56222 0
M  V30 10214 O 1052.57 1.65515 -3.77728 0
M  V30 10215 H 1051.91 0.0258798 -0.663495 0
M  V30 10216 H 1054.44 -0.547733 -1.97132 0
M  V30 10217 H 1054.45 0.826501 -3.99541 0
M  V30 10218 H 1053.12 -0.31584 -4.14699 0
M  V30 10219 H 1051.7 1.38311 -3.46301 0
M  V30 10220 N 1053.89 1.57202 -0.111913 0
M  V30 10221 C 1054.82 2.17957 0.837683 0
M  V30 10222 C 1055.8 1.1176 1.28233 0
M  V30 10223 O 1056.98 1.39967 1.34621 0
M  V30 10224 C 1054.11 2.77333 2.09054 0
M  V30 10225 C 1053.07 3.8905 1.78393 0
M  V30 10226 C 1052.39 4.35203 3.10649 0
M  V30 10227 C 1053.69 5.11477 1.05775 0
M  V30 10228 H 1055.39 2.9756 0.331441 0
M  V30 10229 H 1052.93 1.43131 0.157979 0
M  V30 10230 H 1054.88 3.18492 2.75936 0
M  V30 10231 H 1053.61 1.95009 2.6199 0
M  V30 10232 H 1052.27 3.48456 1.13903 0
M  V30 10233 H 1051.92 3.49747 3.61506 0
M  V30 10234 H 1051.62 5.10534 2.9091 0
M  V30 10235 H 1053.14 4.79007 3.78661 0
M  V30 10236 H 1054.55 5.497 1.62798 0
M  V30 10237 H 1052.95 5.92346 0.961573 0
M  V30 10238 H 1054.02 4.84881 0.043297 0
M  V30 10239 N 1055.36 -0.161842 1.56767 0
M  V30 10240 C 1056.29 -1.20226 2.0017 0
M  V30 10241 C 1057.27 -1.4564 0.878807 0
M  V30 10242 O 1058.46 -1.56813 1.14557 0
M  V30 10243 C 1055.59 -2.53897 2.36968 0
M  V30 10244 C 1054.54 -2.43033 3.52305 0
M  V30 10245 C 1053.87 -3.81281 3.74872 0
M  V30 10246 C 1055.17 -1.927 4.85453 0
M  V30 10247 H 1056.86 -0.84142 2.87333 0
M  V30 10248 H 1054.41 -0.403309 1.38237 0
M  V30 10249 H 1056.36 -3.26893 2.6593 0
M  V30 10250 H 1055.09 -2.91787 1.46724 0
M  V30 10251 H 1053.75 -1.7249 3.23485 0
M  V30 10252 H 1053.39 -4.1658 2.81904 0
M  V30 10253 H 1053.09 -3.74877 4.52483 0
M  V30 10254 H 1054.62 -4.55848 4.06245 0
M  V30 10255 H 1056.03 -2.55477 5.13229 0
M  V30 10256 H 1054.43 -1.97222 5.66766 0
M  V30 10257 H 1055.5 -0.881816 4.76814 0
M  V30 10258 N 1056.84 -1.516 -0.430713 0
M  V30 10259 C 1058.07 -1.68414 -1.20185 0
M  V30 10260 C 1058.48 -0.384297 -1.84847 0
M  V30 10261 O 1057.84 0.637808 -1.70992 0
M  V30 10262 C 1057.89 -2.80451 -2.28099 0
M  V30 10263 O 1057.61 -4.05399 -1.66081 0
M  V30 10264 C 1059.11 -3.0859 -3.18256 0
M  V30 10265 H 1056.33 -0.564982 -0.361989 0
M  V30 10266 H 1058.88 -1.9805 -0.50954 0
M  V30 10267 H 1057.03 -2.53395 -2.93036 0
M  V30 10268 H 1057.45 -4.67671 -2.37453 0
M  V30 10269 H 1058.92 -3.9055 -3.90096 0
M  V30 10270 H 1059.4 -2.21264 -3.79393 0
M  V30 10271 H 1060 -3.37331 -2.59014 0
M  V30 10272 N 1058.32 0.686584 -1.41858 0
M  V30 10273 C 1059.54 1.4802 -1.45275 0
M  V30 10274 C 1059.97 1.87997 -0.0621297 0
M  V30 10275 O 1059.33 1.55226 0.936733 0
M  V30 10276 C 1059.38 2.7133 -2.37513 0
M  V30 10277 O 1058.48 3.69159 -1.83836 0
M  V30 10278 H 1057.82 0.445152 -0.492682 0
M  V30 10279 H 1060.35 0.843161 -1.86419 0
M  V30 10280 H 1060.36 3.19537 -2.53693 0
M  V30 10281 H 1059.04 2.41571 -3.3855 0
M  V30 10282 H 1057.61 3.28134 -1.77151 0
M  V30 10283 N 1059.8 1.27835 0.921735 0
M  V30 10284 C 1060.73 1.136 2.04003 0
M  V30 10285 C 1061.71 0.0358756 1.70062 0
M  V30 10286 O 1062.89 0.211438 1.93046 0
M  V30 10287 C 1060.02 0.788697 3.38226 0
M  V30 10288 C 1058.98 1.84272 3.863 0
M  V30 10289 C 1058.3 1.34923 5.17397 0
M  V30 10290 C 1059.6 3.24788 4.09035 0
M  V30 10291 H 1061.3 2.07149 2.1617 0
M  V30 10292 H 1058.84 0.997349 1.0387 0
M  V30 10293 H 1060.8 0.675911 4.15944 0
M  V30 10294 H 1059.52 -0.182499 3.2609 0
M  V30 10295 H 1058.18 1.94451 3.1078 0
M  V30 10296 H 1057.83 0.367328 5.01657 0
M  V30 10297 H 1057.53 2.05397 5.50532 0
M  V30 10298 H 1059.05 1.24951 5.97678 0
M  V30 10299 H 1060.47 3.17575 4.77304 0
M  V30 10300 H 1058.86 3.93025 4.53488 0
M  V30 10301 H 1059.93 3.69398 3.14122 0
M  V30 10302 N 1061.28 -1.12907 1.09954 0
M  V30 10303 C 1062.22 -2.20561 0.73863 0
M  V30 10304 C 1063.22 -1.67347 -0.262944 0
M  V30 10305 O 1064.42 -1.79574 -0.123834 0
M  V30 10306 H 1060.8 -0.718823 0.220901 0
M  V30 10307 H 1062.77 -2.4826 1.65559 0
M  V30 10308 C 1061.52 -3.47227 0.181239 0
M  V30 10309 H 1060.84 -3.88516 0.943144 0
M  V30 10310 H 1062.28 -4.23987 -0.0332888 0
M  V30 10311 C 1060.74 -3.18956 -1.08485 0
M  V30 10312 O 1061.27 -3.38224 -2.1672 0
M  V30 10313 N 1059.48 -2.72797 -1.00151 0
M  V30 10314 H 1059.02 -2.57317 -0.120645 0
M  V30 10315 H 1058.98 -2.54256 -1.84935 0
M  V30 10316 N 1062.75 -0.88754 -1.30232 0
M  V30 10317 C 1063.69 -0.313488 -2.27046 0
M  V30 10318 C 1064.7 0.533383 -1.53814 0
M  V30 10319 O 1065.89 0.352516 -1.74984 0
M  V30 10320 C 1062.99 0.572674 -3.34026 0
M  V30 10321 C 1062.16 -0.245712 -4.36709 0
M  V30 10322 C 1061.22 0.57135 -5.23089 0
M  V30 10323 O 1060.25 -0.00685948 -5.692 0
M  V30 10324 N 1061.45 1.87994 -5.49216 0
M  V30 10325 H 1064.21 -1.14553 -2.76943 0
M  V30 10326 H 1061.77 -0.750785 -1.43439 0
M  V30 10327 H 1063.77 1.12539 -3.88738 0
M  V30 10328 H 1062.34 1.3054 -2.84039 0
M  V30 10329 H 1061.56 -0.979869 -3.81827 0
M  V30 10330 H 1062.84 -0.806618 -5.02366 0
M  V30 10331 H 1062.24 2.3726 -5.13541 0
M  V30 10332 H 1060.8 2.38005 -6.06792 0
M  V30 10333 N 1064.23 1.43628 -0.648757 0
M  V30 10334 C 1065.16 2.33478 0.0320785 0
M  V30 10335 C 1066.14 1.49217 0.816605 0
M  V30 10336 O 1067.33 1.77892 0.778974 0
M  V30 10337 C 1064.46 3.32525 1.00222 0
M  V30 10338 C 1063.41 4.2674 0.328119 0
M  V30 10339 C 1062.74 5.15791 1.4094 0
M  V30 10340 C 1064.04 5.16493 -0.776701 0
M  V30 10341 H 1065.73 2.90657 -0.718257 0
M  V30 10342 H 1063.28 1.3976 -0.346852 0
M  V30 10343 H 1065.23 3.94277 1.4874 0
M  V30 10344 H 1063.96 2.73593 1.78366 0
M  V30 10345 H 1062.61 3.66346 -0.136569 0
M  V30 10346 H 1062.26 4.53201 2.18216 0
M  V30 10347 H 1061.96 5.79645 0.963631 0
M  V30 10348 H 1063.49 5.80416 1.89603 0
M  V30 10349 H 1064.9 5.7208 -0.373878 0
M  V30 10350 H 1063.3 5.89043 -1.14667 0
M  V30 10351 H 1064.37 4.56448 -1.63654 0
M  V30 10352 N 1065.71 0.390394 1.52688 0
M  V30 10353 C 1066.96 -0.191067 2.01195 0
M  V30 10354 C 1067.28 -1.47229 1.27862 0
M  V30 10355 O 1066.55 -1.91793 0.399007 0
M  V30 10356 H 1065.13 -0.073596 0.743366 0
M  V30 10357 H 1067.79 0.522334 1.8777 0
M  V30 10358 H 1066.89 -0.40051 3.0952 0
M  V30 10359 N 1067.19 -1.57141 0.120249 0
M  V30 10360 C 1068.1 -2.18925 -0.843155 0
M  V30 10361 C 1069.11 -1.16575 -1.29175 0
M  V30 10362 O 1070.29 -1.4905 -1.35448 0
M  V30 10363 C 1067.36 -2.7775 -2.075 0
M  V30 10364 C 1066.42 -3.95139 -1.6782 0
M  V30 10365 C 1065.65 -4.51149 -2.85132 0
M  V30 10366 O 1065.87 -4.06056 -4.00593 0
M  V30 10367 O 1064.81 -5.41815 -2.62145 0
M  V30 10368 H 1068.63 -3.01707 -0.347357 0
M  V30 10369 H 1066.22 -1.49028 -0.105427 0
M  V30 10370 H 1068.1 -3.15243 -2.79643 0
M  V30 10371 H 1066.77 -1.97998 -2.56083 0
M  V30 10372 H 1065.68 -3.62412 -0.927807 0
M  V30 10373 H 1067.01 -4.7633 -1.23977 0
M  V30 10374 N 1068.67 0.153526 -1.5685 0
M  V30 10375 C 1070.08 0.505939 -1.51368 0
M  V30 10376 C 1070.28 1.83721 -0.82757 0
M  V30 10377 O 1069.34 2.49385 -0.395364 0
M  V30 10378 C 1070.65 0.522269 -2.9613 0
M  V30 10379 C 1072.2 0.608238 -3.07033 0
M  V30 10380 C 1072.67 0.655292 -4.53288 0
M  V30 10381 N 1074.17 0.717695 -4.57606 0
M  V30 10382 C 1074.9 0.774977 -5.68139 0
M  V30 10383 N 1074.4 0.792003 -6.88258 0
M  V30 10384 N 1076.19 0.81536 -5.56155 0
M  V30 10385 H 1068.34 -0.71919 -1.99853 0
M  V30 10386 H 1070.6 -0.261466 -0.91123 0
M  V30 10387 H 1070.31 -0.387595 -3.49558 0
M  V30 10388 H 1070.18 1.3625 -3.51733 0
M  V30 10389 H 1072.57 1.50852 -2.53629 0
M  V30 10390 H 1072.65 -0.259014 -2.54485 0
M  V30 10391 H 1072.3 -0.240809 -5.07329 0
M  V30 10392 H 1072.23 1.53894 -5.03611 0
M  V30 10393 H 1074.72 0.7121 -3.7113 0
M  V30 10394 H 1075.03 0.837378 -7.6825 0
M  V30 10395 H 1073.37 0.759986 -6.90832 0
M  V30 10396 H 1076.57 0.799183 -4.61227 0
M  V30 10397 H 1076.74 0.856537 -6.42314 0
M  V30 10398 N 1070.14 1.51827 0.422667 0
M  V30 10399 C 1071.08 1.70409 1.53275 0
M  V30 10400 C 1072.09 0.584584 1.51942 0
M  V30 10401 O 1073.28 0.859349 1.56453 0
M  V30 10402 C 1070.38 1.717 2.92185 0
M  V30 10403 C 1069.55 3.00472 3.17861 0
M  V30 10404 C 1068.61 2.93755 4.36571 0
M  V30 10405 O 1067.64 3.67682 4.3451 0
M  V30 10406 N 1068.84 2.10612 5.40946 0
M  V30 10407 H 1071.6 2.66176 1.37734 0
M  V30 10408 H 1069.16 1.49895 0.611799 0
M  V30 10409 H 1071.16 1.64756 3.69645 0
M  V30 10410 H 1069.73 0.834655 3.01251 0
M  V30 10411 H 1068.95 3.21171 2.28567 0
M  V30 10412 H 1070.23 3.85684 3.31851 0
M  V30 10413 H 1069.63 1.49954 5.45463 0
M  V30 10414 H 1068.19 2.09535 6.17202 0
M  V30 10415 N 1071.62 -0.679052 1.4222 0
M  V30 10416 C 1072.55 -1.80481 1.48152 0
M  V30 10417 C 1073.53 -1.66698 0.338502 0
M  V30 10418 O 1074.72 -1.86183 0.552228 0
M  V30 10419 C 1071.85 -3.18746 1.37908 0
M  V30 10420 C 1070.8 -3.47258 2.50192 0
M  V30 10421 C 1070.13 -4.85052 2.25008 0
M  V30 10422 C 1071.43 -3.44576 3.92511 0
M  V30 10423 H 1073.12 -1.75774 2.42371 0
M  V30 10424 H 1070.67 -0.844241 1.16656 0
M  V30 10425 H 1072.62 -3.97229 1.40666 0
M  V30 10426 H 1071.35 -3.24119 0.401806 0
M  V30 10427 H 1070 -2.71133 2.46744 0
M  V30 10428 H 1069.65 -4.8707 1.25584 0
M  V30 10429 H 1069.35 -5.05092 3.00259 0
M  V30 10430 H 1070.88 -5.65825 2.29508 0
M  V30 10431 H 1072.29 -4.13036 3.97585 0
M  V30 10432 H 1070.69 -3.76151 4.67579 0
M  V30 10433 H 1071.76 -2.4323 4.19484 0
M  V30 10434 N 1073.1 -1.28322 -0.914942 0
M  V30 10435 C 1074.03 -1.14681 -2.03398 0
M  V30 10436 C 1075.01 -0.0448939 -1.70041 0
M  V30 10437 O 1076.2 -0.221672 -1.92931 0
M  V30 10438 C 1073.33 -0.806623 -3.37803 0
M  V30 10439 C 1072.28 -1.86318 -3.85318 0
M  V30 10440 C 1071.61 -1.37665 -5.16674 0
M  V30 10441 C 1072.91 -3.26953 -4.07307 0
M  V30 10442 H 1074.6 -2.08293 -2.15068 0
M  V30 10443 H 1072.15 -1.00284 -1.03339 0
M  V30 10444 H 1074.1 -0.69796 -4.1558 0
M  V30 10445 H 1072.82 0.165203 -3.26182 0
M  V30 10446 H 1071.48 -1.96096 -3.09745 0
M  V30 10447 H 1071.13 -0.393927 -5.01455 0
M  V30 10448 H 1070.83 -2.08313 -5.49435 0
M  V30 10449 H 1072.35 -1.28119 -5.97007 0
M  V30 10450 H 1073.77 -3.20102 -4.75613 0
M  V30 10451 H 1072.17 -3.95424 -4.51398 0
M  V30 10452 H 1073.24 -3.71059 -3.12159 0
M  V30 10453 N 1074.58 1.12322 -1.10551 0
M  V30 10454 C 1075.8 1.8822 -0.871093 0
M  V30 10455 C 1076.23 1.7916 0.573005 0
M  V30 10456 O 1075.59 1.14738 1.40374 0
M  V30 10457 C 1075.63 3.35349 -1.32565 0
M  V30 10458 O 1074.74 4.09461 -0.49145 0
M  V30 10459 H 1074.08 0.584787 -0.314516 0
M  V30 10460 H 1076.61 1.42039 -1.47262 0
M  V30 10461 H 1076.62 3.86189 -1.31612 0
M  V30 10462 H 1075.29 3.4126 -2.37728 0
M  V30 10463 H 1073.87 3.68575 -0.566294 0
M  V30 10464 N 1076.06 0.894434 1.2976 0
M  V30 10465 C 1077.3 0.518435 1.96061 0
M  V30 10466 C 1077.64 -0.931882 1.70381 0
M  V30 10467 O 1076.91 -1.65988 1.01381 0
M  V30 10468 C 1077.19 0.80519 3.50982 0
M  V30 10469 C 1077.05 2.30683 3.86142 0
M  V30 10470 C 1078.37 0.288096 4.39156 0
M  V30 10471 H 1075.48 0.18983 0.712133 0
M  V30 10472 H 1078.13 1.12016 1.53468 0
M  V30 10473 H 1076.28 0.293071 3.87393 0
M  V30 10474 H 1077.95 2.88808 3.59705 0
M  V30 10475 H 1076.19 2.76968 3.33873 0
M  V30 10476 H 1076.86 2.45805 4.94251 0
M  V30 10477 H 1079.34 0.726547 4.09708 0
M  V30 10478 H 1078.21 0.517985 5.4645 0
M  V30 10479 H 1078.48 -0.811018 4.34597 0
M  V30 10480 N 1077.53 -1.43282 0.656365 0
M  V30 10481 C 1078.78 -2.02075 0.171293 0
M  V30 10482 C 1079.11 -1.51682 -1.21269 0
M  V30 10483 O 1078.39 -0.711243 -1.81029 0
M  V30 10484 C 1078.67 -3.59621 0.185602 0
M  V30 10485 C 1078.52 -4.20239 1.60373 0
M  V30 10486 C 1079.84 -4.37515 -0.476289 0
M  V30 10487 H 1076.96 -0.73424 0.0637185 0
M  V30 10488 H 1079.6 -1.70539 0.837648 0
M  V30 10489 H 1077.75 -3.86619 -0.381804 0
M  V30 10490 H 1079.43 -4.0426 2.22197 0
M  V30 10491 H 1077.67 -3.76769 2.15006 0
M  V30 10492 H 1078.34 -5.29333 1.56557 0
M  V30 10493 H 1080.82 -4.16099 0.00651073 0
M  V30 10494 H 1079.69 -5.47169 -0.435562 0
M  V30 10495 H 1079.95 -4.14003 -1.55093 0
M  V30 10496 N 1079.01 -0.398486 -1.52479 0
M  V30 10497 C 1079.96 0.432212 -2.26717 0
M  V30 10498 C 1080.93 1.05007 -1.28696 0
M  V30 10499 O 1082.12 1.07636 -1.57541 0
M  V30 10500 C 1079.26 1.54868 -3.08399 0
M  V30 10501 C 1078.37 0.952779 -4.21362 0
M  V30 10502 C 1077.5 2.04106 -4.90423 0
M  V30 10503 C 1076.54 1.42153 -5.95364 0
M  V30 10504 N 1075.68 2.44951 -6.57984 0
M  V30 10505 H 1080.52 -0.207303 -2.97278 0
M  V30 10506 H 1078.06 -0.114066 -1.46657 0
M  V30 10507 H 1080.01 2.20684 -3.54054 0
M  V30 10508 H 1078.64 2.15837 -2.4003 0
M  V30 10509 H 1077.7 0.183962 -3.79955 0
M  V30 10510 H 1079.01 0.460131 -4.96673 0
M  V30 10511 H 1078.16 2.77672 -5.39429 0
M  V30 10512 H 1076.9 2.56733 -4.14656 0
M  V30 10513 H 1075.91 0.671161 -5.45688 0
M  V30 10514 H 1077.13 0.903093 -6.73068 0
M  V30 10515 H 1075.08 2.9673 -5.85053 0
M  V30 10516 H 1074.99 2.00468 -7.28937 0
M  V30 10517 H 1076.26 3.18119 -7.11632 0
M  V30 10518 N 1080.49 1.57075 -0.12858 0
M  V30 10519 C 1081.74 1.96599 0.52157 0
M  V30 10520 C 1082.09 1.01134 1.63675 0
M  V30 10521 O 1081.39 0.043056 1.91552 0
M  V30 10522 C 1081.58 3.40329 1.09138 0
M  V30 10523 C 1081.41 4.49688 0.0329296 0
M  V30 10524 C 1080.18 5.03697 -0.402184 0
M  V30 10525 C 1082.38 5.08778 -0.75166 0
M  V30 10526 N 1080.36 5.96642 -1.4454 0
M  V30 10527 C 1081.73 5.97756 -1.64583 0
M  V30 10528 C 1083.78 4.91407 -0.801489 0
M  V30 10529 C 1082.49 6.71225 -2.58552 0
M  V30 10530 C 1084.51 5.65564 -1.72892 0
M  V30 10531 C 1083.88 6.54236 -2.61065 0
M  V30 10532 H 1079.97 0.765414 0.160202 0
M  V30 10533 H 1082.56 1.93465 -0.218919 0
M  V30 10534 H 1080.73 3.44091 1.80155 0
M  V30 10535 H 1082.46 3.66955 1.70663 0
M  V30 10536 H 1079.22 4.73599 -0.00794396 0
M  V30 10537 H 1079.64 6.47819 -1.96622 0
M  V30 10538 H 1084.28 4.22588 -0.133909 0
M  V30 10539 H 1082 7.39285 -3.26319 0
M  V30 10540 H 1085.59 5.54125 -1.77304 0
M  V30 10541 H 1084.47 7.10612 -3.31662 0
M  V30 10542 N 1081.97 -0.145205 1.5693 0
M  V30 10543 C 1083.19 -0.876386 1.87974 0
M  V30 10544 C 1083.62 -1.73866 0.717795 0
M  V30 10545 O 1082.98 -1.78224 -0.332551 0
M  V30 10546 C 1083.03 -1.70746 3.17613 0
M  V30 10547 O 1082.13 -2.81188 3.01674 0
M  V30 10548 H 1081.47 -0.243987 0.617549 0
M  V30 10549 H 1084 -0.135482 2.04151 0
M  V30 10550 H 1084.01 -2.1021 3.49679 0
M  V30 10551 H 1082.69 -1.07429 4.01786 0
M  V30 10552 H 1081.26 -2.45117 2.81019 0
M  V30 10553 N 1083.45 -1.52049 -0.414609 0
M  V30 10554 C 1084.39 -1.74998 -1.5048 0
M  V30 10555 C 1085.36 -0.592251 -1.55182 0
M  V30 10556 O 1086.55 -0.829203 -1.7184 0
M  V30 10557 C 1083.69 -1.90157 -2.87983 0
M  V30 10558 C 1082.8 -3.17789 -2.92633 0
M  V30 10559 C 1081.94 -3.23411 -4.21401 0
M  V30 10560 C 1080.98 -4.45267 -4.20004 0
M  V30 10561 N 1080.11 -4.48312 -5.40334 0
M  V30 10562 H 1084.95 -2.68046 -1.30212 0
M  V30 10563 H 1082.49 -1.32824 -0.632154 0
M  V30 10564 H 1084.45 -1.96929 -3.67797 0
M  V30 10565 H 1083.08 -1.00496 -3.06758 0
M  V30 10566 H 1082.13 -3.20216 -2.05343 0
M  V30 10567 H 1083.44 -4.07634 -2.87465 0
M  V30 10568 H 1082.6 -3.29224 -5.09604 0
M  V30 10569 H 1081.34 -2.31495 -4.29257 0
M  V30 10570 H 1080.34 -4.39606 -3.30192 0
M  V30 10571 H 1081.57 -5.38472 -4.13793 0
M  V30 10572 H 1079.51 -3.59277 -5.48868 0
M  V30 10573 H 1079.43 -5.31994 -5.37139 0
M  V30 10574 H 1080.7 -4.58347 -6.30506 0
M  V30 10575 N 1084.93 0.6715 -1.42579 0
M  V30 10576 C 1086.15 1.46471 -1.46836 0
M  V30 10577 C 1086.58 1.87921 -0.0820658 0
M  V30 10578 O 1085.93 1.5621 0.920217 0
M  V30 10579 C 1085.98 2.68796 -2.40377 0
M  V30 10580 O 1085.09 3.67188 -1.87741 0
M  V30 10581 H 1084.43 0.439901 -0.497376 0
M  V30 10582 H 1086.96 0.823342 -1.87303 0
M  V30 10583 H 1086.97 3.16828 -2.57068 0
M  V30 10584 H 1085.64 2.37967 -3.41093 0
M  V30 10585 H 1084.22 3.26237 -1.80621 0
M  V30 10586 N 1086.4 1.28806 0.908124 0
M  V30 10587 C 1087.33 1.15758 2.02787 0
M  V30 10588 C 1088.31 0.053911 1.70015 0
M  V30 10589 O 1089.5 0.231901 1.9281 0
M  V30 10590 C 1086.63 0.824526 3.37371 0
M  V30 10591 C 1085.58 1.88359 3.84324 0
M  V30 10592 C 1084.91 1.40404 5.15937 0
M  V30 10593 C 1086.21 3.29108 4.05568 0
M  V30 10594 H 1087.9 2.09431 2.13961 0
M  V30 10595 H 1085.45 1.00831 1.02806 0
M  V30 10596 H 1087.4 0.71999 4.15204 0
M  V30 10597 H 1086.13 -0.147902 3.26265 0
M  V30 10598 H 1084.79 1.97736 3.087 0
M  V30 10599 H 1084.43 0.420515 5.01239 0
M  V30 10600 H 1084.13 2.11224 5.48323 0
M  V30 10601 H 1085.66 1.31283 5.9632 0
M  V30 10602 H 1087.07 3.2262 4.73909 0
M  V30 10603 H 1085.47 3.97812 4.49294 0
M  V30 10604 H 1086.54 3.72709 3.10187 0
M  V30 10605 N 1087.88 -1.11734 1.11145 0
M  V30 10606 C 1089.29 -1.64928 0.874959 0
M  V30 10607 C 1089.64 -1.87012 -0.593375 0
M  V30 10608 O 1088.77 -1.60206 -1.45475 0
M  V30 10609 C 1089.36 -2.99608 1.58178 0
M  V30 10610 C 1087.92 -3.49723 1.39179 0
M  V30 10611 C 1087.07 -2.24595 1.62642 0
M  V30 10612 H 1090.02 -0.954154 1.26813 0
M  V30 10613 H 1090.04 -3.66434 1.02501 0
M  V30 10614 H 1089.55 -2.83504 2.65042 0
M  V30 10615 H 1087.65 -3.70998 0.345111 0
M  V30 10616 H 1087.77 -4.28711 2.13878 0
M  V30 10617 H 1086.13 -2.32067 1.04961 0
M  V30 10618 H 1086.91 -2.11036 2.70774 0
M  V30 10619 N 1089.36 -0.901303 -1.29284 0
M  V30 10620 C 1090.61 -0.527 -1.95108 0
M  V30 10621 C 1090.93 0.930065 -1.71391 0
M  V30 10622 O 1090.2 1.65601 -1.04658 0
M  V30 10623 H 1088.78 -0.191903 -0.721929 0
M  V30 10624 H 1091.44 -1.14795 -1.57506 0
M  V30 10625 H 1090.54 -0.710945 -3.03895 0
M  V30 10626 N 1090.84 1.42931 -0.663954 0
M  V30 10627 C 1092.08 2.01683 -0.181738 0
M  V30 10628 C 1092.41 1.52437 1.20802 0
M  V30 10629 O 1091.67 0.71254 1.82267 0
M  V30 10630 C 1091.97 3.57072 -0.153163 0
M  V30 10631 C 1091.63 4.25706 -1.48612 0
M  V30 10632 C 1090.29 4.4417 -1.85111 0
M  V30 10633 C 1092.65 4.6448 -2.36448 0
M  V30 10634 C 1089.97 4.98677 -3.09092 0
M  V30 10635 C 1092.33 5.20362 -3.5973 0
M  V30 10636 C 1090.99 5.37041 -3.96412 0
M  V30 10637 H 1090.26 0.73801 -0.0665026 0
M  V30 10638 H 1092.91 1.71264 -0.856791 0
M  V30 10639 H 1091.21 3.87095 0.605372 0
M  V30 10640 H 1092.91 4.00299 0.236981 0
M  V30 10641 H 1089.5 4.11686 -1.19215 0
M  V30 10642 H 1093.68 4.49898 -2.09537 0
M  V30 10643 H 1088.94 5.09776 -3.37547 0
M  V30 10644 H 1093.11 5.49352 -4.28001 0
M  V30 10645 H 1090.74 5.79042 -4.92559 0
M  V30 10646 N 1092.32 0.406567 1.52266 0
M  V30 10647 C 1093.73 0.0573228 1.59497 0
M  V30 10648 C 1093.93 -1.43005 1.41957 0
M  V30 10649 O 1092.99 -2.19659 1.24523 0
M  V30 10650 C 1094.3 0.549947 2.95628 0
M  V30 10651 C 1095.85 0.5077 3.08855 0
M  V30 10652 C 1096.32 0.976792 4.47463 0
M  V30 10653 N 1097.81 0.933508 4.53696 0
M  V30 10654 C 1098.55 1.26769 5.59211 0
M  V30 10655 N 1098.05 1.6732 6.72292 0
M  V30 10656 N 1099.84 1.18782 5.49406 0
M  V30 10657 H 1091.99 1.37468 1.61914 0
M  V30 10658 H 1094.25 0.564562 0.76156 0
M  V30 10659 H 1093.96 1.58943 3.13736 0
M  V30 10660 H 1093.83 -0.0417767 3.77177 0
M  V30 10661 H 1096.22 -0.522728 2.90433 0
M  V30 10662 H 1096.3 1.13545 2.29219 0
M  V30 10663 H 1095.94 2.00554 4.66627 0
M  V30 10664 H 1095.87 0.325885 5.25591 0
M  V30 10665 H 1098.37 0.635333 3.72521 0
M  V30 10666 H 1098.68 1.91137 7.4879 0
M  V30 10667 H 1097.02 1.71221 6.73579 0
M  V30 10668 H 1100.21 0.869906 4.59946 0
M  V30 10669 H 1100.39 1.45157 6.31533 0
M  V30 10670 N 1093.79 -1.57004 0.136909 0
M  V30 10671 C 1094.74 -2.17524 -0.823784 0
M  V30 10672 C 1095.74 -1.1294 -1.26258 0
M  V30 10673 O 1096.94 -1.3121 -1.23223 0
M  V30 10674 H 1093.32 -0.696381 -0.283827 0
M  V30 10675 H 1095.29 -2.96997 -0.289052 0
M  V30 10676 C 1094.04 -2.80331 -2.05693 0
M  V30 10677 H 1093.36 -3.60515 -1.72825 0
M  V30 10678 H 1094.8 -3.26192 -2.70878 0
M  V30 10679 C 1093.26 -1.78322 -2.85837 0
M  V30 10680 O 1093.79 -1.2475 -3.81838 0
M  V30 10681 N 1092 -1.47854 -2.50175 0
M  V30 10682 H 1091.54 -1.9161 -1.72173 0
M  V30 10683 H 1091.5 -0.798464 -3.04092 0
M  V30 10684 N 1095.27 0.136881 -1.57004 0
M  V30 10685 C 1096.2 1.17026 -2.02057 0
M  V30 10686 C 1097.18 1.44223 -0.901866 0
M  V30 10687 O 1098.37 1.54971 -1.17037 0
M  V30 10688 C 1095.5 2.50095 -2.40977 0
M  V30 10689 C 1094.45 2.37398 -3.56127 0
M  V30 10690 C 1093.78 3.75268 -3.80891 0
M  V30 10691 C 1095.08 1.84952 -4.88457 0
M  V30 10692 H 1096.77 0.795601 -2.88636 0
M  V30 10693 H 1094.32 0.381266 -1.38861 0
M  V30 10694 H 1096.27 3.22621 -2.71097 0
M  V30 10695 H 1095 2.89416 -1.51348 0
M  V30 10696 H 1093.65 1.67322 -3.26188 0
M  V30 10697 H 1093.3 4.12043 -2.88496 0
M  V30 10698 H 1093 3.67631 -4.5839 0
M  V30 10699 H 1094.53 4.49327 -4.13446 0
M  V30 10700 H 1095.94 2.4728 -5.17229 0
M  V30 10701 H 1094.34 1.88181 -5.69832 0
M  V30 10702 H 1095.41 0.805848 -4.78157 0
M  V30 10703 N 1096.75 1.52266 0.40654 0
M  V30 10704 C 1097.7 1.72175 1.49465 0
M  V30 10705 C 1098.68 0.575668 1.50249 0
M  V30 10706 O 1099.88 0.832835 1.56182 0
M  V30 10707 C 1097.01 1.87818 2.87366 0
M  V30 10708 C 1096.09 3.08305 2.91219 0
M  V30 10709 N 1096.48 4.30967 2.64766 0
M  V30 10710 C 1094.78 3.08192 3.22388 0
M  V30 10711 C 1095.48 5.12455 2.75254 0
M  V30 10712 N 1094.46 4.47758 3.08242 0
M  V30 10713 H 1098.26 2.64653 1.27812 0
M  V30 10714 H 1095.77 1.50334 0.61428 0
M  V30 10715 H 1097.77 2.00198 3.65686 0
M  V30 10716 H 1096.43 0.965414 3.10016 0
M  V30 10717 H 1097.44 4.59397 2.39113 0
M  V30 10718 H 1094.12 2.26662 3.50615 0
M  V30 10719 H 1095.51 6.20186 2.58495 0
M  V30 10720 N 1098.23 -0.663929 1.42933 0
M  V30 10721 C 1099.48 -1.41973 1.43271 0
M  V30 10722 C 1099.79 -1.95518 0.0566103 0
M  V30 10723 O 1101 -2.71428 -0.0625862 0
M  V30 10724 C 1099.45 -2.56882 2.52071 0
M  V30 10725 C 1099.06 -2.0999 3.95737 0
M  V30 10726 C 1100.8 -3.34322 2.61589 0
M  V30 10727 C 1098.71 -3.22046 4.96025 0
M  V30 10728 H 1097.64 -0.5334 0.532917 0
M  V30 10729 H 1100.29 -0.717709 1.68882 0
M  V30 10730 H 1098.67 -3.29504 2.19643 0
M  V30 10731 H 1099.85 -1.44449 4.37574 0
M  V30 10732 H 1098.16 -1.45459 3.90168 0
M  V30 10733 H 1100.76 -4.17796 3.33692 0
M  V30 10734 H 1101.1 -3.8164 1.66302 0
M  V30 10735 H 1101.64 -2.68775 2.93266 0
M  V30 10736 H 1098.38 -2.79708 5.92827 0
M  V30 10737 H 1097.9 -3.86333 4.5881 0
M  V30 10738 H 1099.57 -3.87345 5.1824 0
M  V30 10739 N 1099.71 -1.29285 -0.901281 0
M  V30 10740 C 1100.98 -1.07847 -1.63182 0
M  V30 10741 C 1101.36 0.377927 -2.07689 0
M  V30 10742 O 1100.71 1.36642 -1.83143 0
M  V30 10743 C 1100.92 -2.06457 -2.81383 0
M  V30 10744 C 1102.27 -2.37289 -3.52107 0
M  V30 10745 O 1103.29 -2.0464 -2.91549 0
M  V30 10746 O 1102.15 -2.93067 -4.61274 0
M  V30 10747 H 1099.25 -0.413073 -0.71645 0
M  V30 10748 H 1101.79 -1.40651 -0.949488 0
M  V30 10749 H 1100.56 -3.04561 -2.4568 0
M  V30 10750 H 1100.19 -1.74374 -3.57323 0
M  V30 10751 N 1101.18 1.11143 -1.11736 0
M  V30 10752 C 1102.46 1.79384 -0.779785 0
M  V30 10753 C 1102.84 1.98015 0.731668 0
M  V30 10754 O 1102.19 1.56731 1.66276 0
M  V30 10755 C 1102.4 3.12868 -1.54643 0
M  V30 10756 C 1103.75 3.8786 -1.7277 0
M  V30 10757 O 1104.77 3.22566 -1.51094 0
M  V30 10758 O 1103.63 5.05034 -2.08813 0
M  V30 10759 H 1100.72 0.777128 -0.282845 0
M  V30 10760 H 1103.27 1.17858 -1.22096 0
M  V30 10761 H 1102.04 2.94682 -2.57446 0
M  V30 10762 H 1101.67 3.82109 -1.09901 0
M  V30 10763 N 1102.66 0.908147 1.28804 0
M  V30 10764 C 1103.59 0.34957 2.26519 0
M  V30 10765 C 1104.61 -0.508845 1.54643 0
M  V30 10766 O 1105.8 -0.324633 1.75523 0
M  V30 10767 C 1102.9 -0.519461 3.34895 0
M  V30 10768 C 1102.07 0.315157 4.36263 0
M  V30 10769 C 1101.13 -0.488059 5.23932 0
M  V30 10770 O 1100.15 0.0974133 5.69117 0
M  V30 10771 N 1101.36 -1.79233 5.52137 0
M  V30 10772 H 1104.12 1.18945 2.75086 0
M  V30 10773 H 1101.68 0.77351 1.42227 0
M  V30 10774 H 1103.67 -1.0634 3.90479 0
M  V30 10775 H 1102.24 -1.26004 2.8608 0
M  V30 10776 H 1101.46 1.04049 3.8022 0
M  V30 10777 H 1102.75 0.886438 5.01019 0
M  V30 10778 H 1102.15 -2.2906 5.1725 0
M  V30 10779 H 1100.71 -2.28322 6.10502 0
M  V30 10780 N 1104.14 -1.42577 0.671525 0
M  V30 10781 C 1105.39 -2.00806 0.189663 0
M  V30 10782 C 1105.7 -1.537 -1.20978 0
M  V30 10783 O 1106.91 -2.04325 -1.78784 0
M  V30 10784 C 1105.36 -3.58744 0.288227 0
M  V30 10785 C 1104.97 -4.14839 1.69152 0
M  V30 10786 C 1106.72 -4.24285 -0.13509 0
M  V30 10787 C 1104.62 -5.65131 1.74302 0
M  V30 10788 H 1103.55 -0.751004 0.067146 0
M  V30 10789 H 1106.2 -1.63338 0.83623 0
M  V30 10790 H 1104.59 -3.937 -0.426175 0
M  V30 10791 H 1105.76 -3.91349 2.43274 0
M  V30 10792 H 1104.08 -3.61738 2.0624 0
M  V30 10793 H 1106.67 -5.34573 -0.116709 0
M  V30 10794 H 1107.02 -3.99527 -1.16977 0
M  V30 10795 H 1107.55 -3.94278 0.528191 0
M  V30 10796 H 1104.29 -5.94682 2.75742 0
M  V30 10797 H 1103.81 -5.90621 1.04531 0
M  V30 10798 H 1105.49 -6.29491 1.49498 0
M  V30 10799 N 1105.62 -0.414636 -1.52048 0
M  V30 10800 C 1106.85 0.158686 -2.06291 0
M  V30 10801 C 1107.26 1.38397 -1.2842 0
M  V30 10802 O 1106.62 1.79351 -0.337539 0
M  V30 10803 C 1106.67 0.503634 -3.57975 0
M  V30 10804 O 1106.39 -0.672996 -4.329 0
M  V30 10805 C 1107.89 1.13009 -4.28653 0
M  V30 10806 H 1105.11 0.0179622 -0.67076 0
M  V30 10807 H 1107.66 -0.587177 -1.95889 0
M  V30 10808 H 1105.81 1.19939 -3.68366 0
M  V30 10809 H 1106.22 -0.383735 -5.23094 0
M  V30 10810 H 1107.7 1.32162 -5.35945 0
M  V30 10811 H 1108.18 2.10476 -3.85482 0
M  V30 10812 H 1108.78 0.474379 -4.22646 0
M  V30 10813 N 1107.1 1.56929 -0.145233 0
M  V30 10814 C 1108.03 2.19685 0.791263 0
M  V30 10815 C 1109.01 1.14455 1.25833 0
M  V30 10816 O 1110.19 1.42791 1.31622 0
M  V30 10817 C 1107.32 2.81705 2.03124 0
M  V30 10818 C 1106.28 3.92746 1.70101 0
M  V30 10819 C 1105.6 4.41694 3.01347 0
M  V30 10820 C 1106.9 5.13606 0.949025 0
M  V30 10821 H 1108.6 2.98196 0.26825 0
M  V30 10822 H 1106.14 1.43434 0.127584 0
M  V30 10823 H 1108.1 3.24273 2.69119 0
M  V30 10824 H 1106.82 2.00523 2.57795 0
M  V30 10825 H 1105.48 3.50794 1.06486 0
M  V30 10826 H 1105.13 3.57336 3.54006 0
M  V30 10827 H 1104.83 5.1659 2.80016 0
M  V30 10828 H 1106.35 4.86931 3.68416 0
M  V30 10829 H 1107.76 5.53029 1.51102 0
M  V30 10830 H 1106.16 5.94252 0.835711 0
M  V30 10831 H 1107.23 4.84863 -0.0595631 0
M  V30 10832 N 1108.58 -0.128553 1.57075 0
M  V30 10833 C 1109.82 -0.836536 1.83535 0
M  V30 10834 C 1110.14 -1.81491 0.7294 0
M  V30 10835 O 1111.34 -2.56838 0.880128 0
M  V30 10836 C 1109.8 -1.53836 3.25365 0
M  V30 10837 C 1109.41 -0.601454 4.43944 0
M  V30 10838 C 1111.15 -2.23204 3.61082 0
M  V30 10839 C 1109.06 -1.30596 5.768 0
M  V30 10840 H 1107.99 -0.316142 0.684522 0
M  V30 10841 H 1110.64 -0.0892555 1.83283 0
M  V30 10842 H 1109.02 -2.33192 3.20058 0
M  V30 10843 H 1110.2 0.158209 4.60528 0
M  V30 10844 H 1108.51 -0.0152393 4.16397 0
M  V30 10845 H 1111.11 -2.76585 4.57608 0
M  V30 10846 H 1111.45 -3.0056 2.88044 0
M  V30 10847 H 1111.98 -1.50746 3.68131 0
M  V30 10848 H 1108.72 -0.573874 6.52983 0
M  V30 10849 H 1108.24 -2.03787 5.6412 0
M  V30 10850 H 1109.92 -1.8418 6.20231 0
M  V30 10851 N 1110.05 -1.5248 -0.398459 0
M  V30 10852 C 1110.99 -1.72826 -1.50545 0
M  V30 10853 C 1112 -0.608683 -1.50993 0
M  V30 10854 O 1113.19 -0.88413 -1.55066 0
M  V30 10855 C 1110.29 -1.76327 -2.89417 0
M  V30 10856 C 1109.46 -3.05491 -3.1304 0
M  V30 10857 C 1108.52 -3.00663 -4.31843 0
M  V30 10858 O 1107.55 -3.74548 -4.28605 0
M  V30 10859 N 1108.75 -2.19191 -5.37527 0
M  V30 10860 H 1111.51 -2.68333 -1.33482 0
M  V30 10861 H 1109.07 -1.5085 -0.587875 0
M  V30 10862 H 1111.07 -1.70616 -3.66977 0
M  V30 10863 H 1109.64 -0.882476 -2.99885 0
M  V30 10864 H 1108.86 -3.24767 -2.23428 0
M  V30 10865 H 1110.14 -3.90915 -3.25673 0
M  V30 10866 H 1109.54 -1.58613 -5.43009 0
M  V30 10867 H 1108.1 -2.19328 -6.1379 0
M  V30 10868 N 1111.53 0.65634 -1.43283 0
M  V30 10869 C 1112.76 1.44199 -1.47954 0
M  V30 10870 C 1113.17 1.88961 -0.0950315 0
M  V30 10871 O 1112.51 1.59895 0.904388 0
M  V30 10872 C 1112.57 2.71161 -2.36033 0
M  V30 10873 C 1112.24 2.48359 -3.83623 0
M  V30 10874 C 1113.24 2.1178 -4.74811 0
M  V30 10875 C 1110.92 2.6278 -4.28079 0
M  V30 10876 C 1112.91 1.89915 -6.0845 0
M  V30 10877 C 1110.6 2.4053 -5.61772 0
M  V30 10878 C 1111.6 2.04154 -6.51775 0
M  V30 10879 O 1111.29 1.82134 -7.82996 0
M  V30 10880 H 1111.02 0.449567 -0.504842 0
M  V30 10881 H 1113.57 0.812234 -1.88658 0
M  V30 10882 H 1111.8 3.36685 -1.9021 0
M  V30 10883 H 1113.49 3.33102 -2.31944 0
M  V30 10884 H 1114.26 2.00217 -4.41744 0
M  V30 10885 H 1110.14 2.9007 -3.58302 0
M  V30 10886 H 1113.68 1.61445 -6.78661 0
M  V30 10887 H 1109.58 2.51695 -5.94407 0
M  V30 10888 H 1110.35 1.96584 -7.94542 0
M  V30 10889 N 1113.01 1.29761 0.894412 0
M  V30 10890 C 1114.23 1.21064 1.68399 0
M  V30 10891 C 1114.66 -0.224608 1.86754 0
M  V30 10892 O 1114.02 -1.16199 1.39167 0
M  V30 10893 C 1114.07 1.93468 3.04306 0
M  V30 10894 O 1113.17 1.25533 3.9283 0
M  V30 10895 H 1112.51 0.419223 0.514925 0
M  V30 10896 H 1115.04 1.71421 1.11696 0
M  V30 10897 H 1115.05 2.02127 3.54413 0
M  V30 10898 H 1113.73 2.97857 2.90265 0
M  V30 10899 H 1112.3 1.25168 3.51266 0
M  V30 10900 N 1114.49 -1.10549 1.12324 0
M  V30 10901 C 1115.73 -1.82941 0.889043 0
M  V30 10902 C 1116.09 -1.83483 -0.578935 0
M  V30 10903 O 1115.38 -1.28365 -1.42243 0
M  V30 10904 C 1115.58 -3.28997 1.39626 0
M  V30 10905 C 1115.4 -3.42683 2.91202 0
M  V30 10906 C 1114.17 -3.55164 3.59426 0
M  V30 10907 C 1116.37 -3.36187 3.89208 0
M  V30 10908 N 1114.35 -3.57414 4.99128 0
M  V30 10909 C 1115.73 -3.45168 5.15033 0
M  V30 10910 C 1117.78 -3.19778 3.81637 0
M  V30 10911 C 1116.48 -3.39431 6.34176 0
M  V30 10912 C 1118.51 -3.15362 5.003 0
M  V30 10913 C 1117.87 -3.24924 6.24983 0
M  V30 10914 H 1113.97 -0.684249 0.378585 0
M  V30 10915 H 1116.55 -1.32206 1.42932 0
M  V30 10916 H 1114.73 -3.78228 0.883051 0
M  V30 10917 H 1116.46 -3.89343 1.10425 0
M  V30 10918 H 1113.21 -3.5812 3.09914 0
M  V30 10919 H 1113.64 -3.62153 5.71991 0
M  V30 10920 H 1118.28 -3.11264 2.86137 0
M  V30 10921 H 1116 -3.46711 7.29943 0
M  V30 10922 H 1119.58 -3.03819 4.96171 0
M  V30 10923 H 1118.46 -3.21508 7.15264 0
M  V30 10924 N 1115.97 -0.914965 -1.28321 0
M  V30 10925 C 1116.9 -0.348729 -2.2552 0
M  V30 10926 C 1117.88 0.547737 -1.53097 0
M  V30 10927 O 1119.06 0.491119 -1.8199 0
M  V30 10928 C 1116.19 0.501397 -3.34968 0
M  V30 10929 C 1115.23 -0.329859 -4.25223 0
M  V30 10930 S 1116.07 -1.73737 -5.06533 0
M  V30 10931 C 1117.22 -0.89458 -6.19474 0
M  V30 10932 H 1117.46 -1.17256 -2.732 0
M  V30 10933 H 1114.99 -0.716297 -1.36779 0
M  V30 10934 H 1116.95 0.986061 -3.98481 0
M  V30 10935 H 1115.61 1.29962 -2.85952 0
M  V30 10936 H 1114.8 0.320236 -5.02982 0
M  V30 10937 H 1114.4 -0.748221 -3.66439 0
M  V30 10938 H 1116.69 -0.124776 -6.77385 0
M  V30 10939 H 1117.64 -1.64475 -6.88733 0
M  V30 10940 H 1118.05 -0.442217 -5.62765 0
M  V30 10941 N 1117.44 1.42219 -0.679077 0
M  V30 10942 C 1118.67 2.06333 -0.210097 0
M  V30 10943 C 1119.09 1.50703 1.12562 0
M  V30 10944 O 1118.45 0.627241 1.70104 0
M  V30 10945 C 1118.5 3.60243 -0.160322 0
M  V30 10946 O 1117.6 4.03122 0.869872 0
M  V30 10947 H 1116.94 0.655362 -0.106754 0
M  V30 10948 H 1119.47 1.82278 -0.929294 0
M  V30 10949 H 1119.48 4.07997 0.014384 0
M  V30 10950 H 1118.16 4.00106 -1.13526 0
M  V30 10951 H 1116.74 3.66907 0.66586 0
M  V30 10952 N 1118.92 0.422693 1.51826 0
M  V30 10953 C 1119.85 -0.386913 2.30272 0
M  V30 10954 C 1120.83 -1.03411 1.35056 0
M  V30 10955 O 1122.02 -1.04055 1.6397 0
M  V30 10956 C 1119.15 -1.49645 3.13407 0
M  V30 10957 C 1118.1 -0.973532 4.16781 0
M  V30 10958 C 1117.43 -2.1777 4.88344 0
M  V30 10959 C 1118.73 -0.0181194 5.22297 0
M  V30 10960 H 1120.42 0.267697 2.98201 0
M  V30 10961 H 1117.97 0.130186 1.4341 0
M  V30 10962 H 1119.92 -2.06993 3.67059 0
M  V30 10963 H 1118.64 -2.17914 2.43272 0
M  V30 10964 H 1117.3 -0.42237 3.64159 0
M  V30 10965 H 1116.95 -2.84625 4.14726 0
M  V30 10966 H 1116.65 -1.83427 5.58237 0
M  V30 10967 H 1118.18 -2.75699 5.44814 0
M  V30 10968 H 1119.59 -0.500822 5.71108 0
M  V30 10969 H 1117.99 0.237163 5.99631 0
M  V30 10970 H 1119.06 0.923065 4.76033 0
M  V30 10971 N 1120.4 -1.5685 0.153553 0
M  V30 10972 C 1121.33 -2.12888 -0.821829 0
M  V30 10973 C 1122.31 -1.05418 -1.23798 0
M  V30 10974 O 1123.49 -1.33288 -1.33292 0
M  V30 10975 C 1120.62 -2.65394 -2.10438 0
M  V30 10976 C 1119.67 -3.85071 -1.83364 0
M  V30 10977 S 1120.5 -5.2572 -1.01877 0
M  V30 10978 C 1121.66 -5.81619 -2.31236 0
M  V30 10979 H 1121.89 -2.95288 -0.345314 0
M  V30 10980 H 1119.42 -1.5428 -0.0608377 0
M  V30 10981 H 1121.38 -2.96294 -2.84113 0
M  V30 10982 H 1120.04 -1.83112 -2.55204 0
M  V30 10983 H 1119.23 -4.20076 -2.78482 0
M  V30 10984 H 1118.84 -3.54965 -1.17794 0
M  V30 10985 H 1121.13 -5.9345 -3.26838 0
M  V30 10986 H 1122.07 -6.79054 -2.00727 0
M  V30 10987 H 1122.48 -5.09909 -2.42184 0
M  V30 10988 N 1121.88 0.120221 -1.57141 0
M  V30 10989 C 1123.12 0.829449 -1.85062 0
M  V30 10990 C 1123.46 1.79585 -0.739116 0
M  V30 10991 O 1122.73 1.92819 0.255147 0
M  V30 10992 C 1123.01 1.58042 -3.23566 0
M  V30 10993 C 1122.87 0.633706 -4.45314 0
M  V30 10994 C 1124.19 2.53688 -3.59625 0
M  V30 10995 H 1121.31 0.300086 -0.67314 0
M  V30 10996 H 1123.95 0.0937393 -1.89769 0
M  V30 10997 H 1122.1 2.20758 -3.19684 0
M  V30 10998 H 1123.77 0.0154836 -4.61297 0
M  V30 10999 H 1122.01 -0.054846 -4.33765 0
M  V30 11000 H 1122.68 1.19577 -5.38893 0
M  V30 11001 H 1125.16 2.01078 -3.6429 0
M  V30 11002 H 1124.04 3.03265 -4.57516 0
M  V30 11003 H 1124.3 3.36296 -2.8698 0
M  V30 11004 N 1123.36 1.52689 0.390367 0
M  V30 11005 C 1124.6 1.67666 1.13553 0
M  V30 11006 C 1124.93 0.415903 1.90001 0
M  V30 11007 O 1124.19 -0.601664 1.86222 0
M  V30 11008 C 1124.49 2.86177 2.14096 0
M  V30 11009 C 1124.15 4.23671 1.54316 0
M  V30 11010 C 1122.81 4.61066 1.37739 0
M  V30 11011 C 1125.17 5.09278 1.1084 0
M  V30 11012 C 1122.49 5.81727 0.76231 0
M  V30 11013 C 1124.85 6.30562 0.507433 0
M  V30 11014 C 1123.51 6.66689 0.328945 0
M  V30 11015 H 1122.78 0.613533 0.415521 0
M  V30 11016 H 1125.43 1.8683 0.420339 0
M  V30 11017 H 1123.73 2.61424 2.9183 0
M  V30 11018 H 1125.43 2.9496 2.7166 0
M  V30 11019 H 1122.02 3.94214 1.68207 0
M  V30 11020 H 1126.2 4.80957 1.2245 0
M  V30 11021 H 1121.46 6.08327 0.612208 0
M  V30 11022 H 1125.63 6.96211 0.162248 0
M  V30 11023 H 1123.26 7.60052 -0.149748 0
M  V30 11024 N 1124.83 -0.648732 1.43629 0
M  V30 11025 C 1126.08 -1.40579 1.45196 0
M  V30 11026 C 1126.4 -1.9484 0.0790556 0
M  V30 11027 O 1125.67 -1.74707 -0.886239 0
M  V30 11028 H 1124.25 -0.52175 0.53459 0
M  V30 11029 H 1126.92 -0.764796 1.79268 0
M  V30 11030 H 1126.01 -2.24591 2.16715 0
M  V30 11031 N 1126.31 -1.30234 -0.887518 0
M  V30 11032 C 1127.24 -1.18969 -2.00919 0
M  V30 11033 C 1128.22 -0.080952 -1.69907 0
M  V30 11034 O 1129.41 -0.262546 -1.92417 0
M  V30 11035 C 1126.54 -0.878094 -3.36016 0
M  V30 11036 C 1125.49 -1.94449 -3.81279 0
M  V30 11037 C 1124.82 -1.48594 -5.13638 0
M  V30 11038 C 1126.12 -3.35519 -4.00281 0
M  V30 11039 H 1127.81 -2.12808 -2.10602 0
M  V30 11040 H 1125.36 -1.02454 -1.01189 0
M  V30 11041 H 1127.31 -0.785954 -4.14006 0
M  V30 11042 H 1126.04 0.0959779 -3.26459 0
M  V30 11043 H 1124.69 -2.02622 -3.05516 0
M  V30 11044 H 1124.34 -0.500204 -5.00507 0
M  V30 11045 H 1124.04 -2.19921 -5.44893 0
M  V30 11046 H 1125.57 -1.40754 -5.94156 0
M  V30 11047 H 1126.98 -3.30119 -4.68716 0
M  V30 11048 H 1125.38 -4.0491 -4.42909 0
M  V30 11049 H 1126.45 -3.77597 -3.04218 0
M  V30 11050 N 1127.79 1.09952 -1.12909 0
M  V30 11051 C 1129.04 1.81657 -0.885729 0
M  V30 11052 C 1129.36 1.85863 0.589913 0
M  V30 11053 O 1128.63 1.34028 1.42875 0
M  V30 11054 H 1127.21 0.672743 -0.324694 0
M  V30 11055 H 1129.87 1.33013 -1.42456 0
M  V30 11056 H 1128.97 2.85018 -1.27167 0
M  V30 11057 N 1129.27 0.921757 1.27833 0
M  V30 11058 C 1130.51 0.569378 1.95268 0
M  V30 11059 C 1130.87 -0.878685 1.71163 0
M  V30 11060 O 1130.16 -1.6177 1.02669 0
M  V30 11061 C 1130.36 0.824259 3.47765 0
M  V30 11062 C 1130.19 2.29555 3.86697 0
M  V30 11063 C 1128.96 2.94715 4.10452 0
M  V30 11064 C 1131.15 3.27261 3.96743 0
M  V30 11065 N 1129.14 4.32058 4.36118 0
M  V30 11066 C 1130.51 4.49793 4.26715 0
M  V30 11067 C 1132.56 3.2255 3.79296 0
M  V30 11068 C 1131.26 5.68208 4.41057 0
M  V30 11069 C 1133.29 4.40272 3.9486 0
M  V30 11070 C 1132.65 5.61581 4.25213 0
M  V30 11071 H 1128.75 0.258368 0.738085 0
M  V30 11072 H 1131.34 1.18715 1.54321 0
M  V30 11073 H 1129.51 0.235697 3.87684 0
M  V30 11074 H 1131.24 0.435106 4.02354 0
M  V30 11075 H 1127.99 2.4541 4.05057 0
M  V30 11076 H 1128.42 5.03092 4.5302 0
M  V30 11077 H 1133.06 2.29835 3.54875 0
M  V30 11078 H 1130.78 6.61396 4.64308 0
M  V30 11079 H 1134.36 4.38138 3.82787 0
M  V30 11080 H 1133.24 6.51154 4.36998 0
M  V30 11081 N 1130.75 -1.41857 0.686609 0
M  V30 11082 C 1132.16 -1.55549 0.357288 0
M  V30 11083 C 1132.36 -1.66394 -1.13646 0
M  V30 11084 O 1131.42 -1.63739 -1.92213 0
M  V30 11085 C 1132.73 -2.79938 1.09796 0
M  V30 11086 C 1134.28 -2.93724 1.08143 0
M  V30 11087 C 1134.75 -4.20989 1.80367 0
M  V30 11088 N 1136.25 -4.27927 1.77293 0
M  V30 11089 C 1136.98 -5.2524 2.30022 0
M  V30 11090 N 1136.48 -6.28636 2.91185 0
M  V30 11091 N 1138.27 -5.17118 2.20329 0
M  V30 11092 H 1130.42 -1.33063 1.65554 0
M  V30 11093 H 1132.68 -0.641335 0.698135 0
M  V30 11094 H 1132.39 -2.78104 2.15293 0
M  V30 11095 H 1132.26 -3.71188 0.670763 0
M  V30 11096 H 1134.65 -2.9508 0.0347554 0
M  V30 11097 H 1134.73 -2.03673 1.54761 0
M  V30 11098 H 1134.38 -4.20395 2.85009 0
M  V30 11099 H 1134.31 -5.09997 1.3119 0
M  V30 11100 H 1136.8 -3.53838 1.32692 0
M  V30 11101 H 1137.11 -6.99265 3.29011 0
M  V30 11102 H 1135.45 -6.29164 2.95259 0
M  V30 11103 H 1138.65 -4.35265 1.72226 0
M  V30 11104 H 1138.82 -5.92792 2.61728 0
M  V30 11105 N 1132.22 -0.430739 -1.51599 0
M  V30 11106 C 1133.45 0.139197 -2.06932 0
M  V30 11107 C 1133.87 1.3626 -1.29672 0
M  V30 11108 O 1133.23 1.78219 -0.332836 0
M  V30 11109 C 1133.28 0.446593 -3.57824 0
M  V30 11110 O 1132.38 1.53414 -3.82803 0
M  V30 11111 H 1131.73 0.00475812 -0.663983 0
M  V30 11112 H 1134.26 -0.610171 -1.9529 0
M  V30 11113 H 1134.27 0.698972 -4.01968 0
M  V30 11114 H 1132.94 -0.447613 -4.13484 0
M  V30 11115 H 1131.52 1.27224 -3.50526 0
M  V30 11116 N 1133.7 1.56767 -0.161869 0
M  V30 11117 C 1134.93 2.00673 0.491314 0
M  V30 11118 C 1135.34 1.04111 1.5798 0
M  V30 11119 O 1134.68 0.0324889 1.83671 0
M  V30 11120 C 1134.75 3.41011 1.13806 0
M  V30 11121 C 1134.41 4.56595 0.192384 0
M  V30 11122 C 1135.41 5.16591 -0.585671 0
M  V30 11123 C 1133.09 5.02218 0.0909594 0
M  V30 11124 C 1135.09 6.20631 -1.45245 0
M  V30 11125 C 1132.77 6.06109 -0.77941 0
M  V30 11126 C 1133.77 6.65187 -1.54971 0
M  V30 11127 O 1133.46 7.67065 -2.40555 0
M  V30 11128 H 1133.19 0.663174 0.131059 0
M  V30 11129 H 1135.74 2.03775 -0.257896 0
M  V30 11130 H 1133.97 3.34793 1.93521 0
M  V30 11131 H 1135.66 3.68931 1.69248 0
M  V30 11132 H 1136.43 4.82232 -0.517432 0
M  V30 11133 H 1132.31 4.55953 0.680292 0
M  V30 11134 H 1135.85 6.66671 -2.05415 0
M  V30 11135 H 1131.75 6.39894 -0.848887 0
M  V30 11136 H 1132.52 7.84348 -2.33966 0
M  V30 11137 N 1135.18 -0.111886 1.57202 0
M  V30 11138 C 1136.13 -1.13688 2.00858 0
M  V30 11139 C 1137.1 -1.40752 0.881939 0
M  V30 11140 O 1138.28 -1.52498 1.14669 0
M  V30 11141 C 1135.42 -2.45641 2.42393 0
M  V30 11142 C 1134.54 -2.25452 3.68504 0
M  V30 11143 C 1133.67 -3.50686 3.9899 0
M  V30 11144 C 1132.71 -3.25685 5.18262 0
M  V30 11145 N 1131.85 -4.4314 5.44583 0
M  V30 11146 H 1136.69 -0.757611 2.88209 0
M  V30 11147 H 1134.22 -0.362582 1.42561 0
M  V30 11148 H 1136.18 -3.22627 2.64514 0
M  V30 11149 H 1134.81 -2.81447 1.58074 0
M  V30 11150 H 1133.86 -1.39349 3.53958 0
M  V30 11151 H 1135.18 -2.0296 4.55641 0
M  V30 11152 H 1134.33 -4.36087 4.21797 0
M  V30 11153 H 1133.07 -3.76216 3.10343 0
M  V30 11154 H 1132.07 -2.38675 4.95292 0
M  V30 11155 H 1133.3 -3.01518 6.08493 0
M  V30 11156 H 1131.24 -4.68778 4.58893 0
M  V30 11157 H 1131.16 -4.23778 6.26058 0
M  V30 11158 H 1132.43 -5.29654 5.71915 0
M  V30 11159 N 1136.66 -1.52894 -0.382264 0
M  V30 11160 C 1137.61 -1.74531 -1.46707 0
M  V30 11161 C 1138.59 -0.599499 -1.49315 0
M  V30 11162 O 1139.78 -0.857577 -1.54837 0
M  V30 11163 C 1136.91 -1.92366 -2.84342 0
M  V30 11164 C 1136 -3.12899 -2.86278 0
M  V30 11165 N 1136.39 -4.35125 -2.57876 0
M  V30 11166 C 1134.69 -3.13282 -3.17444 0
M  V30 11167 C 1135.39 -5.16769 -2.67066 0
M  V30 11168 N 1134.37 -4.52606 -3.0108 0
M  V30 11169 H 1138.17 -2.66653 -1.23585 0
M  V30 11170 H 1135.68 -1.51292 -0.590286 0
M  V30 11171 H 1137.68 -2.0599 -3.62455 0
M  V30 11172 H 1136.34 -1.01461 -3.08441 0
M  V30 11173 H 1137.35 -4.63143 -2.31774 0
M  V30 11174 H 1134.03 -2.32211 -3.46964 0
M  V30 11175 H 1135.42 -6.24219 -2.48595 0
M  V30 11176 N 1138.14 0.641106 -1.43971 0
M  V30 11177 C 1139.38 1.40291 -1.46445 0
M  V30 11178 C 1139.72 1.93978 -0.0929004 0
M  V30 11179 O 1138.99 1.73043 0.888043 0
M  V30 11180 C 1139.27 2.57551 -2.51673 0
M  V30 11181 C 1139.13 2.09279 -3.98149 0
M  V30 11182 C 1140.45 3.59752 -2.53508 0
M  V30 11183 H 1137.57 0.508771 -0.533218 0
M  V30 11184 H 1140.21 0.725767 -1.75592 0
M  V30 11185 H 1138.36 3.15319 -2.2695 0
M  V30 11186 H 1140.03 1.56418 -4.33971 0
M  V30 11187 H 1138.27 1.40545 -4.10402 0
M  V30 11188 H 1138.94 2.93655 -4.67409 0
M  V30 11189 H 1141.42 3.11766 -2.75574 0
M  V30 11190 H 1140.3 4.39332 -3.29057 0
M  V30 11191 H 1140.56 4.13156 -1.57335 0
M  V30 11192 N 1139.62 1.30703 0.880598 0
M  V30 11193 C 1140.84 1.22843 1.67106 0
M  V30 11194 C 1141.27 -0.204788 1.86982 0
M  V30 11195 O 1140.62 -1.14716 1.40392 0
M  V30 11196 C 1140.67 1.96685 3.02237 0
M  V30 11197 O 1139.78 1.29693 3.91476 0
M  V30 11198 H 1139.12 0.424661 0.51045 0
M  V30 11199 H 1141.65 1.72596 1.09871 0
M  V30 11200 H 1141.66 2.05874 3.52249 0
M  V30 11201 H 1140.33 3.00919 2.8709 0
M  V30 11202 H 1138.91 1.28886 3.49918 0
M  V30 11203 N 1141.09 -1.09351 1.1349 0
M  V30 11204 C 1142.34 -1.81185 0.89535 0
M  V30 11205 C 1142.66 -1.86173 -0.580048 0
M  V30 11206 O 1141.93 -1.34784 -1.42162 0
M  V30 11207 H 1140.51 -0.671011 0.328257 0
M  V30 11208 H 1143.17 -1.32255 1.43159 0
M  V30 11209 H 1142.27 -2.84339 1.28676 0
M  V30 11210 N 1142.57 -0.928524 -1.27343 0
M  V30 11211 C 1143.5 -0.385563 -2.25934 0
M  V30 11212 C 1144.52 0.484178 -1.55433 0
M  V30 11213 O 1145.71 0.296668 -1.76017 0
M  V30 11214 C 1142.81 0.466116 -3.35679 0
M  V30 11215 C 1141.98 -0.384523 -4.35707 0
M  V30 11216 C 1141.04 0.404644 -5.24642 0
M  V30 11217 O 1140.06 -0.187943 -5.6889 0
M  V30 11218 N 1141.27 1.70426 -5.54919 0
M  V30 11219 H 1144.03 -1.23306 -2.73159 0
M  V30 11220 H 1141.59 -0.796039 -1.40978 0
M  V30 11221 H 1143.58 1.00115 -3.92121 0
M  V30 11222 H 1142.15 1.21437 -2.88048 0
M  V30 11223 H 1141.37 -1.10085 -3.78517 0
M  V30 11224 H 1142.66 -0.966033 -4.99545 0
M  V30 11225 H 1142.06 2.20802 -5.20829 0
M  V30 11226 H 1140.62 2.1858 -6.14057 0
M  V30 11227 N 1144.05 1.41491 -0.694123 0
M  V30 11228 C 1144.98 2.28189 0.0226347 0
M  V30 11229 C 1145.96 1.42152 0.7894 0
M  V30 11230 O 1147.14 1.71581 0.780519 0
M  V30 11231 C 1144.27 3.22357 1.03942 0
M  V30 11232 C 1143.32 4.24927 0.365994 0
M  V30 11233 S 1144.15 5.28043 -0.890562 0
M  V30 11234 C 1145.31 6.25776 0.124665 0
M  V30 11235 H 1145.54 2.88631 -0.712698 0
M  V30 11236 H 1143.07 1.46607 -0.484344 0
M  V30 11237 H 1145.03 3.77143 1.62091 0
M  V30 11238 H 1143.69 2.61013 1.74732 0
M  V30 11239 H 1142.88 4.9108 1.13388 0
M  V30 11240 H 1142.49 3.73729 -0.142389 0
M  V30 11241 H 1144.78 6.70398 0.978393 0
M  V30 11242 H 1145.72 7.06312 -0.502901 0
M  V30 11243 H 1146.13 5.62466 0.478792 0
M  V30 11244 N 1145.53 0.438773 1.51369 0
M  V30 11245 C 1146.46 -0.362467 2.3067 0
M  V30 11246 C 1147.44 -1.01973 1.36145 0
M  V30 11247 O 1148.62 -1.0231 1.65065 0
M  V30 11248 C 1145.75 -1.46313 3.14976 0
M  V30 11249 C 1144.71 -0.929272 4.1779 0
M  V30 11250 C 1144.03 -2.12579 4.90627 0
M  V30 11251 C 1145.33 0.0372782 5.22287 0
M  V30 11252 H 1147.03 0.29931 2.979 0
M  V30 11253 H 1144.57 0.14539 1.43264 0
M  V30 11254 H 1146.53 -2.03088 3.69233 0
M  V30 11255 H 1145.25 -2.15321 2.45569 0
M  V30 11256 H 1143.91 -0.383722 3.64586 0
M  V30 11257 H 1143.56 -2.8021 4.17722 0
M  V30 11258 H 1143.26 -1.77496 5.60151 0
M  V30 11259 H 1144.78 -2.69905 5.47708 0
M  V30 11260 H 1146.2 -0.44022 5.71607 0
M  V30 11261 H 1144.59 0.300748 5.99346 0
M  V30 11262 H 1145.66 0.973503 4.75027 0
M  V30 11263 N 1147.01 -1.56678 0.170181 0
M  V30 11264 C 1148.24 -2.00931 -0.480664 0
M  V30 11265 C 1148.64 -1.04947 -1.57425 0
M  V30 11266 O 1147.99 -0.042229 -1.83651 0
M  V30 11267 C 1148.05 -3.4161 -1.11996 0
M  V30 11268 C 1147.71 -4.5669 -0.168167 0
M  V30 11269 C 1148.71 -5.16273 0.613059 0
M  V30 11270 C 1146.39 -5.02259 -0.0643243 0
M  V30 11271 C 1148.39 -6.19852 1.48534 0
M  V30 11272 C 1146.08 -6.05687 0.811542 0
M  V30 11273 C 1147.07 -6.64355 1.58496 0
M  V30 11274 O 1146.76 -7.65778 2.44619 0
M  V30 11275 H 1146.49 -0.66386 -0.12754 0
M  V30 11276 H 1149.05 -2.03635 0.2687 0
M  V30 11277 H 1147.28 -3.35815 -1.91743 0
M  V30 11278 H 1148.97 -3.69823 -1.67289 0
M  V30 11279 H 1149.73 -4.81951 0.542999 0
M  V30 11280 H 1145.61 -4.56307 -0.656102 0
M  V30 11281 H 1149.16 -6.65572 2.08948 0
M  V30 11282 H 1145.05 -6.39435 0.88281 0
M  V30 11283 H 1145.82 -7.83096 2.38122 0
M  V30 11284 N 1148.48 0.103547 -1.57259 0
M  V30 11285 C 1149.73 0.808576 -1.85656 0
M  V30 11286 C 1150.06 1.79143 -0.757502 0
M  V30 11287 O 1149.31 1.941 0.249723 0
M  V30 11288 C 1149.61 1.57946 -3.20605 0
M  V30 11289 C 1149.28 0.739502 -4.44795 0
M  V30 11290 C 1147.94 0.507921 -4.78512 0
M  V30 11291 C 1150.29 0.155034 -5.20969 0
M  V30 11292 C 1147.62 -0.318129 -5.85837 0
M  V30 11293 C 1149.97 -0.658292 -6.29166 0
M  V30 11294 C 1148.64 -0.900044 -6.61404 0
M  V30 11295 H 1147.91 0.295879 -0.679365 0
M  V30 11296 H 1150.55 0.0703604 -1.91371 0
M  V30 11297 H 1148.86 2.38902 -3.10537 0
M  V30 11298 H 1150.56 2.12921 -3.39803 0
M  V30 11299 H 1147.15 0.930103 -4.18386 0
M  V30 11300 H 1151.33 0.32113 -4.9526 0
M  V30 11301 H 1146.59 -0.514495 -6.09231 0
M  V30 11302 H 1150.76 -1.11809 -6.87366 0
M  V30 11303 H 1148.39 -1.54194 -7.44398 0
M  V30 11304 N 1149.96 1.53094 0.37415 0
M  V30 11305 C 1150.92 1.78264 1.44065 0
M  V30 11306 C 1151.92 0.652892 1.46949 0
M  V30 11307 O 1153.11 0.921046 1.47859 0
M  V30 11308 C 1150.25 1.89693 2.83248 0
M  V30 11309 H 1151.44 2.73505 1.23025 0
M  V30 11310 H 1148.99 1.44041 0.60678 0
M  V30 11311 H 1149.73 0.964884 3.09613 0
M  V30 11312 H 1149.51 2.71855 2.82554 0
M  V30 11313 H 1151 2.10787 3.60498 0
M  V30 11314 N 1151.44 -0.633461 1.44309 0
M  V30 11315 C 1152.85 -1.21504 1.41752 0
M  V30 11316 C 1153.2 -1.95758 0.131667 0
M  V30 11317 O 1152.33 -2.02311 -0.768072 0
M  V30 11318 C 1152.92 -2.21005 2.56792 0
M  V30 11319 C 1151.48 -2.74596 2.57438 0
M  V30 11320 C 1150.63 -1.49555 2.33513 0
M  V30 11321 H 1153.58 -0.424277 1.52923 0
M  V30 11322 H 1153.6 -3.03563 2.29412 0
M  V30 11323 H 1153.11 -1.66934 3.50364 0
M  V30 11324 H 1151.21 -3.32676 1.67801 0
M  V30 11325 H 1151.33 -3.20794 3.55849 0
M  V30 11326 H 1149.69 -1.77605 1.82561 0
M  V30 11327 H 1150.47 -0.973899 3.29196 0
M  V30 11328 N 1152.92 -1.31168 -0.873655 0
M  V30 11329 C 1154.2 -1.11285 -1.60857 0
M  V30 11330 C 1154.58 0.333788 -2.08444 0
M  V30 11331 O 1153.92 1.32726 -1.86 0
M  V30 11332 C 1154.13 -2.12379 -2.7694 0
M  V30 11333 C 1155.48 -2.44704 -3.46994 0
M  V30 11334 O 1156.51 -2.10778 -2.87143 0
M  V30 11335 O 1155.36 -3.02786 -4.54954 0
M  V30 11336 H 1152.46 -0.428177 -0.707526 0
M  V30 11337 H 1155 -1.42634 -0.91944 0
M  V30 11338 H 1153.78 -3.09703 -2.39164 0
M  V30 11339 H 1153.4 -1.81914 -3.53544 0
M  V30 11340 N 1154.4 1.08748 -1.14068 0
M  V30 11341 C 1155.33 2.17591 -0.84714 0
M  V30 11342 C 1156.31 1.68962 0.196415 0
M  V30 11343 O 1157.49 1.94125 0.0538415 0
M  V30 11344 C 1154.62 3.45823 -0.320005 0
M  V30 11345 C 1153.58 4.07824 -1.2986 0
M  V30 11346 C 1152.9 5.30965 -0.630925 0
M  V30 11347 C 1154.2 4.49512 -2.65963 0
M  V30 11348 H 1155.9 2.42404 -1.75729 0
M  V30 11349 H 1153.44 1.16502 -0.846356 0
M  V30 11350 H 1155.4 4.21276 -0.102271 0
M  V30 11351 H 1154.12 3.20553 0.625561 0
M  V30 11352 H 1152.78 3.34398 -1.50245 0
M  V30 11353 H 1152.43 5.01979 0.320337 0
M  V30 11354 H 1152.13 5.73402 -1.28388 0
M  V30 11355 H 1153.65 6.09136 -0.422635 0
M  V30 11356 H 1155.06 5.16159 -2.49506 0
M  V30 11357 H 1153.46 5.02857 -3.27498 0
M  V30 11358 H 1154.53 3.6157 -3.23102 0
M  V30 11359 N 1155.87 0.935264 1.26849 0
M  V30 11360 C 1157.12 0.575467 1.93317 0
M  V30 11361 C 1157.44 -0.88876 1.74242 0
M  V30 11362 O 1158.64 -1.35767 2.35116 0
M  V30 11363 C 1157.1 0.978433 3.46345 0
M  V30 11364 C 1156.71 2.46386 3.74163 0
M  V30 11365 C 1158.45 0.690249 4.18851 0
M  V30 11366 C 1156.36 2.80584 5.20602 0
M  V30 11367 H 1155.29 0.211506 0.723727 0
M  V30 11368 H 1157.94 1.1371 1.44022 0
M  V30 11369 H 1156.32 0.345379 3.94491 0
M  V30 11370 H 1157.49 3.14547 3.36745 0
M  V30 11371 H 1155.81 2.72473 3.14877 0
M  V30 11372 H 1158.41 0.922151 5.26688 0
M  V30 11373 H 1158.75 -0.372805 4.14627 0
M  V30 11374 H 1159.28 1.28275 3.76551 0
M  V30 11375 H 1156.02 3.85828 5.29921 0
M  V30 11376 H 1155.54 2.1708 5.59139 0
M  V30 11377 H 1157.22 2.68732 5.88551 0
M  V30 11378 N 1157.35 -1.41121 0.701616 0
M  V30 11379 C 1158.28 -2.33436 0.0545974 0
M  V30 11380 C 1159.26 -1.52144 -0.760662 0
M  V30 11381 O 1160.45 -1.80661 -0.712414 0
M  V30 11382 C 1157.58 -3.36015 -0.878117 0
M  V30 11383 C 1156.53 -4.27664 -0.169511 0
M  V30 11384 C 1155.86 -5.20666 -1.21699 0
M  V30 11385 C 1157.16 -5.13254 0.967859 0
M  V30 11386 H 1158.85 -2.87791 0.825637 0
M  V30 11387 H 1156.4 -1.38377 0.398484 0
M  V30 11388 H 1158.35 -3.99526 -1.34004 0
M  V30 11389 H 1157.08 -2.80024 -1.68089 0
M  V30 11390 H 1155.73 -3.65586 0.272441 0
M  V30 11391 H 1155.38 -4.60987 -2.01246 0
M  V30 11392 H 1155.08 -5.82822 -0.747836 0
M  V30 11393 H 1156.61 -5.87053 -1.6793 0
M  V30 11394 H 1158.02 -5.70298 0.585944 0
M  V30 11395 H 1156.42 -5.84381 1.3645 0
M  V30 11396 H 1157.49 -4.5006 1.80483 0
M  V30 11397 N 1158.83 -0.446794 -1.51134 0
M  V30 11398 C 1159.78 0.374154 -2.29571 0
M  V30 11399 C 1160.77 1.01241 -1.35818 0
M  V30 11400 O 1161.98 0.946293 -1.53119 0
M  V30 11401 H 1158.35 0.13948 -0.738951 0
M  V30 11402 H 1160.32 -0.308117 -2.96805 0
M  V30 11403 C 1159.07 1.45754 -3.15675 0
M  V30 11404 H 1158.4 0.975787 -3.87709 0
M  V30 11405 H 1159.84 2.00502 -3.73597 0
M  V30 11406 C 1158.3 2.44606 -2.31667 0
M  V30 11407 O 1158.83 3.49352 -1.98284 0
M  V30 11408 N 1157.03 2.15725 -1.94708 0
M  V30 11409 H 1156.58 1.30572 -2.22056 0
M  V30 11410 H 1156.54 2.82103 -1.38798 0
M  V30 11411 N 1160.31 1.56586 -0.178487 0
M  V30 11412 C 1161.22 2.21903 0.761321 0
M  V30 11413 C 1162.23 1.21289 1.2476 0
M  V30 11414 O 1163.41 1.53974 1.29823 0
M  V30 11415 C 1160.48 2.85259 1.97048 0
M  V30 11416 C 1159.54 4.01095 1.53039 0
M  V30 11417 C 1158.77 4.61421 2.68191 0
M  V30 11418 O 1158.99 4.20644 3.85247 0
M  V30 11419 O 1157.93 5.51171 2.41855 0
M  V30 11420 H 1161.75 3.02788 0.235141 0
M  V30 11421 H 1159.34 1.49316 0.0500442 0
M  V30 11422 H 1161.22 3.25404 2.6775 0
M  V30 11423 H 1159.89 2.07366 2.48558 0
M  V30 11424 H 1158.8 3.65606 0.792661 0
M  V30 11425 H 1160.13 4.80603 1.06213 0
M  V30 11426 N 1161.79 -0.095206 1.57312 0
M  V30 11427 C 1162.72 -1.14173 1.98739 0
M  V30 11428 C 1163.73 -1.36323 0.889934 0
M  V30 11429 O 1164.92 -1.34977 1.16805 0
M  V30 11430 C 1162.02 -2.49729 2.29104 0
M  V30 11431 C 1161.19 -2.47857 3.60396 0
M  V30 11432 C 1160.25 -3.65341 3.78699 0
M  V30 11433 O 1159.28 -3.47837 4.50553 0
M  V30 11434 N 1160.48 -4.84818 3.19268 0
M  V30 11435 H 1163.25 -0.789126 2.89124 0
M  V30 11436 H 1160.81 -0.284187 1.59386 0
M  V30 11437 H 1162.8 -3.26925 2.38541 0
M  V30 11438 H 1161.37 -2.7708 1.44726 0
M  V30 11439 H 1160.59 -1.56208 3.61929 0
M  V30 11440 H 1161.88 -2.43685 4.46649 0
M  V30 11441 H 1161.27 -5.01943 2.60902 0
M  V30 11442 H 1159.83 -5.59607 3.34191 0
M  V30 11443 N 1163.26 -1.53291 -0.366026 0
M  V30 11444 C 1164.68 -1.43053 -0.707669 0
M  V30 11445 C 1164.88 -0.56925 -1.93292 0
M  V30 11446 O 1163.94 -0.0515214 -2.52447 0
M  V30 11447 C 1165.25 -2.86239 -0.921292 0
M  V30 11448 C 1166.8 -2.95868 -1.02133 0
M  V30 11449 C 1167.27 -4.40114 -1.26743 0
M  V30 11450 N 1168.76 -4.43541 -1.33514 0
M  V30 11451 C 1169.5 -5.52259 -1.54264 0
M  V30 11452 N 1168.99 -6.71024 -1.72335 0
M  V30 11453 N 1170.79 -5.39836 -1.5663 0
M  V30 11454 H 1162.94 -2.07795 0.43988 0
M  V30 11455 H 1165.2 -0.938376 0.134736 0
M  V30 11456 H 1164.91 -3.51578 -0.0928042 0
M  V30 11457 H 1164.78 -3.29862 -1.82951 0
M  V30 11458 H 1167.17 -2.30683 -1.84036 0
M  V30 11459 H 1167.25 -2.5564 -0.0905097 0
M  V30 11460 H 1166.89 -5.05872 -0.453409 0
M  V30 11461 H 1166.82 -4.77914 -2.21146 0
M  V30 11462 H 1169.31 -3.57949 -1.21165 0
M  V30 11463 H 1169.63 -7.49649 -1.8774 0
M  V30 11464 H 1167.97 -6.7401 -1.69514 0
M  V30 11465 H 1171.16 -4.46017 -1.4208 0
M  V30 11466 H 1171.34 -6.24629 -1.72461 0
M  V30 11467 N 1164.74 0.6258 -1.44643 0
M  V30 11468 C 1165.68 1.75056 -1.46392 0
M  V30 11469 C 1166.65 1.59376 -0.322179 0
M  V30 11470 O 1167.84 1.81187 -0.519956 0
M  V30 11471 C 1164.96 3.12689 -1.30166 0
M  V30 11472 C 1164.01 3.47005 -2.47972 0
M  V30 11473 S 1164.84 3.43885 -4.10491 0
M  V30 11474 C 1166 4.84129 -3.96698 0
M  V30 11475 H 1166.23 1.73306 -2.41562 0
M  V30 11476 H 1163.77 0.800879 -1.32005 0
M  V30 11477 H 1165.72 3.9211 -1.21492 0
M  V30 11478 H 1164.38 3.11972 -0.364982 0
M  V30 11479 H 1163.58 4.47171 -2.32496 0
M  V30 11480 H 1163.18 2.75059 -2.53414 0
M  V30 11481 H 1165.47 5.73488 -3.60718 0
M  V30 11482 H 1166.41 5.0466 -4.96713 0
M  V30 11483 H 1166.82 4.58954 -3.28666 0
M  V30 11484 N 1166.22 1.31629 0.866686 0
M  V30 11485 C 1167.17 1.19556 1.97421 0
M  V30 11486 C 1168.14 0.0805578 1.65905 0
M  V30 11487 O 1169.32 0.253997 1.89102 0
M  V30 11488 C 1166.46 0.912234 3.32825 0
M  V30 11489 C 1165.58 2.11088 3.76916 0
M  V30 11490 C 1164.71 1.76406 5.01053 0
M  V30 11491 C 1163.75 2.9266 5.37602 0
M  V30 11492 N 1162.89 2.58152 6.52918 0
M  V30 11493 H 1167.73 2.14294 2.0708 0
M  V30 11494 H 1165.26 1.06595 1.0137 0
M  V30 11495 H 1167.22 0.72851 4.1079 0
M  V30 11496 H 1165.85 0.00167404 3.228 0
M  V30 11497 H 1164.9 2.40527 2.94705 0
M  V30 11498 H 1166.22 2.98089 3.99931 0
M  V30 11499 H 1165.37 1.54515 5.86694 0
M  V30 11500 H 1164.11 0.866018 4.79949 0
M  V30 11501 H 1163.11 3.15196 4.50479 0
M  V30 11502 H 1164.34 3.83179 5.6067 0
M  V30 11503 H 1162.28 1.70874 6.33355 0
M  V30 11504 H 1162.2 3.38682 6.75892 0
M  V30 11505 H 1163.47 2.39662 7.41743 0
M  V30 11506 N 1167.7 -1.08142 1.14644 0
M  V30 11507 C 1168.61 -2.18675 0.849607 0
M  V30 11508 C 1169.63 -1.73158 -0.170983 0
M  V30 11509 O 1170.8 -2.014 0.0011579 0
M  V30 11510 C 1167.87 -3.45084 0.334305 0
M  V30 11511 C 1166.93 -4.05213 1.41779 0
M  V30 11512 C 1166.16 -5.25588 0.926981 0
M  V30 11513 O 1166.38 -5.69934 -0.230522 0
M  V30 11514 O 1165.32 -5.77183 1.70715 0
M  V30 11515 H 1169.14 -2.46542 1.77343 0
M  V30 11516 H 1166.73 -1.17328 0.924911 0
M  V30 11517 H 1168.61 -4.21367 0.0529893 0
M  V30 11518 H 1167.29 -3.18788 -0.561755 0
M  V30 11519 H 1166.19 -3.30507 1.7526 0
M  V30 11520 H 1167.53 -4.35764 2.28847 0
M  V30 11521 N 1169.18 -0.941978 -1.26351 0
M  V30 11522 C 1170.4 -0.606231 -1.98342 0
M  V30 11523 C 1170.83 0.812014 -1.6967 0
M  V30 11524 O 1170.19 1.54712 -0.9452 0
M  V30 11525 C 1170.23 -0.855864 -3.50296 0
M  V30 11526 O 1169.34 0.0716251 -4.12338 0
M  V30 11527 H 1168.68 -0.231815 -0.62222 0
M  V30 11528 H 1171.21 -1.26513 -1.60797 0
M  V30 11529 H 1171.22 -0.777079 -4.00531 0
M  V30 11530 H 1169.89 -1.8896 -3.70496 0
M  V30 11531 H 1168.47 -0.0582866 -3.72854 0
M  V30 11532 N 1170.66 1.40747 -0.709091 0
M  V30 11533 C 1171.88 2.05841 -0.253816 0
M  V30 11534 C 1172.31 1.53056 1.09341 0
M  V30 11535 O 1171.66 0.663181 1.68735 0
M  V30 11536 C 1171.71 3.59822 -0.236699 0
M  V30 11537 O 1170.82 4.04876 0.784168 0
M  V30 11538 H 1170.16 0.65295 -0.120631 0
M  V30 11539 H 1172.69 1.80266 -0.967749 0
M  V30 11540 H 1172.7 4.07936 -0.0721616 0
M  V30 11541 H 1171.37 3.97608 -1.21988 0
M  V30 11542 H 1169.95 3.68237 0.587884 0
M  V30 11543 N 1172.13 0.454803 1.50895 0
M  V30 11544 C 1173.38 -0.10577 2.02224 0
M  V30 11545 C 1173.71 -1.41176 1.33789 0
M  V30 11546 O 1172.96 -1.90522 0.447181 0
M  V30 11547 C 1173.26 -0.354159 3.55641 0
M  V30 11548 C 1172.93 0.868136 4.42464 0
M  V30 11549 C 1171.59 1.2033 4.65912 0
M  V30 11550 C 1173.94 1.68272 4.93289 0
M  V30 11551 C 1171.27 2.3534 5.37431 0
M  V30 11552 C 1173.62 2.82396 5.6607 0
M  V30 11553 C 1172.29 3.16346 5.87777 0
M  V30 11554 H 1171.56 -0.0387041 0.739989 0
M  V30 11555 H 1174.2 0.605564 1.81673 0
M  V30 11556 H 1172.51 -1.14757 3.74617 0
M  V30 11557 H 1174.21 -0.8016 3.92906 0
M  V30 11558 H 1170.8 0.596995 4.24422 0
M  V30 11559 H 1174.98 1.43698 4.75042 0
M  V30 11560 H 1170.24 2.61936 5.52449 0
M  V30 11561 H 1174.41 3.45873 6.04438 0
M  V30 11562 H 1172.04 4.05574 6.42973 0
M  V30 11563 N 1173.61 -1.56489 0.186789 0
M  V30 11564 C 1174.84 -2.01429 -0.459326 0
M  V30 11565 C 1175.25 -1.06611 -1.56303 0
M  V30 11566 O 1174.59 -0.0617053 -1.83596 0
M  V30 11567 C 1174.65 -3.42778 -1.08367 0
M  V30 11568 C 1174.32 -4.56843 -0.119719 0
M  V30 11569 C 1175.32 -5.15594 0.667782 0
M  V30 11570 C 1173 -5.02299 -0.0110494 0
M  V30 11571 C 1174.99 -6.18242 1.551 0
M  V30 11572 C 1172.68 -6.04793 0.875738 0
M  V30 11573 C 1173.68 -6.62637 1.65534 0
M  V30 11574 O 1173.37 -7.63141 2.52728 0
M  V30 11575 H 1173.1 -0.665175 -0.120492 0
M  V30 11576 H 1175.65 -2.03338 0.290283 0
M  V30 11577 H 1173.88 -3.3783 -1.8817 0
M  V30 11578 H 1175.57 -3.71577 -1.63357 0
M  V30 11579 H 1176.34 -4.81348 0.594085 0
M  V30 11580 H 1172.22 -4.56977 -0.607667 0
M  V30 11581 H 1175.76 -6.63319 2.15995 0
M  V30 11582 H 1171.66 -6.38462 0.950581 0
M  V30 11583 H 1172.43 -7.80527 2.46415 0
M  V30 11584 N 1175.09 0.086862 -1.5736 0
M  V30 11585 C 1176.31 0.806017 -1.91097 0
M  V30 11586 C 1176.74 1.71082 -0.78183 0
M  V30 11587 O 1176.1 1.79335 0.266175 0
M  V30 11588 C 1176.15 1.5884 -3.23732 0
M  V30 11589 O 1175.25 2.69798 -3.11902 0
M  V30 11590 H 1174.59 0.220899 -0.626179 0
M  V30 11591 H 1177.12 0.059619 -2.04513 0
M  V30 11592 H 1177.13 1.97088 -3.5724 0
M  V30 11593 H 1175.81 0.924426 -4.05496 0
M  V30 11594 H 1174.38 2.34519 -2.89923 0
M  V30 11595 N 1176.57 1.53483 0.357892 0
M  V30 11596 C 1177.5 1.83444 1.44466 0
M  V30 11597 C 1178.48 0.688486 1.55544 0
M  V30 11598 O 1179.66 0.93906 1.69986 0
M  V30 11599 C 1176.79 2.03122 2.81707 0
M  V30 11600 C 1175.75 3.1891 2.85448 0
M  V30 11601 C 1175.07 3.23895 4.25436 0
M  V30 11602 C 1176.37 4.57334 2.52275 0
M  V30 11603 H 1178.07 2.74456 1.19642 0
M  V30 11604 H 1175.61 1.3206 0.574112 0
M  V30 11605 H 1177.57 2.22666 3.57768 0
M  V30 11606 H 1176.29 1.08827 3.07935 0
M  V30 11607 H 1174.95 2.99199 2.11838 0
M  V30 11608 H 1174.6 2.27223 4.48753 0
M  V30 11609 H 1174.3 4.01694 4.28854 0
M  V30 11610 H 1175.82 3.45632 5.0336 0
M  V30 11611 H 1177.24 4.76988 3.1805 0
M  V30 11612 H 1175.63 5.37431 2.66998 0
M  V30 11613 H 1176.7 4.61921 1.47501 0
M  V30 11614 N 1178.05 -0.61812 1.44973 0
M  V30 11615 C 1179.29 -1.38882 1.4997 0
M  V30 11616 C 1179.65 -1.91533 0.133841 0
M  V30 11617 O 1180.85 -2.68736 0.0585012 0
M  V30 11618 C 1179.12 -2.5136 2.54073 0
M  V30 11619 S 1180.68 -3.39324 2.78216 0
M  V30 11620 H 1177.5 -0.473631 0.530278 0
M  V30 11621 H 1180.1 -0.714299 1.81984 0
M  V30 11622 H 1178.8 -2.11012 3.51997 0
M  V30 11623 H 1178.34 -3.23625 2.23675 0
M  V30 11624 H 1180.35 -4.49198 2.10797 0
M  V30 11625 N 1179.52 -1.32087 -0.859693 0
M  V30 11626 C 1180.45 -1.23204 -1.98351 0
M  V30 11627 C 1181.43 -0.116974 -1.69697 0
M  V30 11628 O 1182.62 -0.303301 -1.91817 0
M  V30 11629 C 1179.75 -0.949171 -3.34078 0
M  V30 11630 C 1178.7 -2.02493 -3.77069 0
M  V30 11631 C 1178.03 -1.59455 -5.1037 0
M  V30 11632 C 1179.33 -3.43934 -3.93074 0
M  V30 11633 H 1181.02 -2.17227 -2.0604 0
M  V30 11634 H 1178.57 -1.04577 -0.989931 0
M  V30 11635 H 1180.52 -0.873594 -4.12245 0
M  V30 11636 H 1179.25 0.0267095 -3.26589 0
M  V30 11637 H 1177.91 -2.09057 -3.01149 0
M  V30 11638 H 1177.55 -0.606256 -4.99333 0
M  V30 11639 H 1177.25 -2.31429 -5.40106 0
M  V30 11640 H 1178.78 -1.53325 -5.91036 0
M  V30 11641 H 1180.19 -3.39986 -4.61608 0
M  V30 11642 H 1178.59 -4.14214 -4.3422 0
M  V30 11643 H 1179.66 -3.83965 -2.9614 0
M  V30 11644 N 1181 1.07532 -1.15215 0
M  V30 11645 C 1182.23 1.83817 -0.949687 0
M  V30 11646 C 1182.64 1.82004 0.501991 0
M  V30 11647 O 1182 1.23014 1.34811 0
M  V30 11648 C 1182.05 3.30978 -1.45382 0
M  V30 11649 O 1181.77 3.32844 -2.84863 0
M  V30 11650 C 1183.27 4.24037 -1.29257 0
M  V30 11651 H 1180.49 0.58 -0.337404 0
M  V30 11652 H 1183.04 1.35752 -1.52944 0
M  V30 11653 H 1181.19 3.76399 -0.916638 0
M  V30 11654 H 1181.61 4.24773 -3.07682 0
M  V30 11655 H 1183.08 5.25371 -1.69379 0
M  V30 11656 H 1183.56 4.38563 -0.236519 0
M  V30 11657 H 1184.16 3.8445 -1.81874 0
M  V30 11658 N 1182.48 0.948665 1.2585 0
M  V30 11659 C 1183.41 0.408398 2.24516 0
M  V30 11660 C 1184.39 -0.506954 1.54495 0
M  V30 11661 O 1185.58 -0.442695 1.83228 0
M  V30 11662 C 1182.7 -0.41241 3.3618 0
M  V30 11663 C 1181.75 0.442483 4.24198 0
M  V30 11664 S 1182.58 1.87106 5.01749 0
M  V30 11665 C 1183.74 1.05851 6.16884 0
M  V30 11666 H 1183.97 1.24458 2.69995 0
M  V30 11667 H 1181.5 0.752309 1.34832 0
M  V30 11668 H 1183.46 -0.880064 4.00955 0
M  V30 11669 H 1182.12 -1.22335 2.89297 0
M  V30 11670 H 1181.32 -0.186767 5.03654 0
M  V30 11671 H 1180.92 0.845113 3.64327 0
M  V30 11672 H 1183.21 0.304329 6.76816 0
M  V30 11673 H 1184.15 1.82678 6.8413 0
M  V30 11674 H 1184.56 0.591269 5.61395 0
M  V30 11675 N 1183.96 -1.40369 0.716545 0
M  V30 11676 C 1185.2 -2.01657 0.265674 0
M  V30 11677 C 1185.56 -1.55803 -1.12886 0
M  V30 11678 O 1184.85 -0.76863 -1.75507 0
M  V30 11679 C 1185.05 -3.56257 0.285583 0
M  V30 11680 C 1184.88 -4.1712 1.68051 0
M  V30 11681 C 1183.65 -4.50512 2.28839 0
M  V30 11682 C 1185.84 -4.41913 2.63092 0
M  V30 11683 N 1183.83 -4.96774 3.60679 0
M  V30 11684 C 1185.2 -4.90179 3.79638 0
M  V30 11685 C 1187.25 -4.23953 2.61091 0
M  V30 11686 C 1185.95 -5.22369 4.94493 0
M  V30 11687 C 1187.98 -4.57246 3.75074 0
M  V30 11688 C 1187.34 -5.05701 4.90353 0
M  V30 11689 H 1183.44 -0.768801 0.14307 0
M  V30 11690 H 1186.03 -1.70585 0.938548 0
M  V30 11691 H 1184.2 -3.86757 -0.35686 0
M  V30 11692 H 1185.93 -4.0429 -0.182091 0
M  V30 11693 H 1182.68 -4.37678 1.80929 0
M  V30 11694 H 1183.11 -5.24286 4.28315 0
M  V30 11695 H 1187.75 -3.8571 1.73169 0
M  V30 11696 H 1185.47 -5.59526 5.83058 0
M  V30 11697 H 1189.05 -4.44989 3.74802 0
M  V30 11698 H 1187.93 -5.30977 5.77091 0
M  V30 11699 N 1185.44 -0.462799 -1.50652 0
M  V30 11700 C 1186.37 0.371837 -2.26164 0
M  V30 11701 C 1187.38 0.96432 -1.31167 0
M  V30 11702 O 1188.57 0.854134 -1.56738 0
M  V30 11703 C 1185.67 1.53469 -3.0216 0
M  V30 11704 C 1184.84 1.0565 -4.24449 0
M  V30 11705 C 1183.9 2.09243 -4.82808 0
M  V30 11706 O 1182.93 1.67641 -5.43953 0
M  V30 11707 N 1184.13 3.41976 -4.69076 0
M  V30 11708 H 1186.9 -0.275476 -2.98431 0
M  V30 11709 H 1184.46 -0.293109 -1.59225 0
M  V30 11710 H 1186.45 2.22446 -3.38083 0
M  V30 11711 H 1185.02 2.08685 -2.32743 0
M  V30 11712 H 1184.24 0.192895 -3.93728 0
M  V30 11713 H 1185.53 0.714796 -5.03754 0
M  V30 11714 H 1184.92 3.78491 -4.20429 0
M  V30 11715 H 1183.48 4.06775 -5.09291 0
M  V30 11716 N 1186.91 1.56388 -0.195085 0
M  V30 11717 C 1188.16 1.96755 0.443901 0
M  V30 11718 C 1188.48 1.08483 1.6276 0
M  V30 11719 O 1189.68 1.38632 2.33438 0
M  V30 11720 C 1188.14 3.49933 0.841139 0
M  V30 11721 C 1187.75 4.46868 -0.318275 0
M  V30 11722 C 1189.49 3.99069 1.44721 0
M  V30 11723 C 1187.4 5.91316 0.0999211 0
M  V30 11724 H 1186.33 0.734674 0.169616 0
M  V30 11725 H 1188.98 1.8124 -0.287101 0
M  V30 11726 H 1187.36 3.60951 1.62881 0
M  V30 11727 H 1188.53 4.47581 -1.0958 0
M  V30 11728 H 1186.85 4.07925 -0.835842 0
M  V30 11729 H 1189.45 5.04465 1.77255 0
M  V30 11730 H 1189.79 3.43376 2.35369 0
M  V30 11731 H 1190.32 3.91165 0.723513 0
M  V30 11732 H 1187.06 6.50934 -0.77237 0
M  V30 11733 H 1186.58 5.93856 0.842304 0
M  V30 11734 H 1188.26 6.44778 0.535726 0
M  V30 11735 N 1188.39 -0.0785156 1.57404 0
M  V30 11736 C 1189.8 -0.631132 1.75709 0
M  V30 11737 C 1190.15 -1.78261 0.819605 0
M  V30 11738 O 1189.28 -2.164 0.00206912 0
M  V30 11739 C 1189.87 -1.15168 3.18625 0
M  V30 11740 C 1188.43 -1.65021 3.38297 0
M  V30 11741 C 1187.58 -0.566773 2.71446 0
M  V30 11742 H 1190.53 0.147631 1.58012 0
M  V30 11743 H 1190.55 -2.02065 3.22413 0
M  V30 11744 H 1190.06 -0.313399 3.86833 0
M  V30 11745 H 1188.17 -2.51196 2.75194 0
M  V30 11746 H 1188.28 -1.73179 4.46706 0
M  V30 11747 H 1186.64 -1.01021 2.33809 0
M  V30 11748 H 1187.43 0.261204 3.42305 0
M  V30 11749 N 1189.87 -1.5367 -0.349747 0
M  V30 11750 C 1190.8 -1.77528 -1.4497 0
M  V30 11751 C 1191.82 -0.656412 -1.4898 0
M  V30 11752 O 1193 -0.933016 -1.52174 0
M  V30 11753 C 1190.1 -1.85445 -2.8366 0
M  V30 11754 C 1189.28 -3.15295 -3.03163 0
M  V30 11755 C 1188.34 -3.1425 -4.22059 0
M  V30 11756 O 1187.36 -3.87994 -4.16472 0
M  V30 11757 N 1188.56 -2.36181 -5.30282 0
M  V30 11758 H 1191.33 -2.72444 -1.24877 0
M  V30 11759 H 1188.89 -1.52644 -0.539586 0
M  V30 11760 H 1190.88 -1.82204 -3.61364 0
M  V30 11761 H 1189.45 -0.977436 -2.96926 0
M  V30 11762 H 1188.67 -3.31711 -2.12983 0
M  V30 11763 H 1189.96 -4.01078 -3.13072 0
M  V30 11764 H 1189.36 -1.75808 -5.37688 0
M  V30 11765 H 1187.92 -2.38744 -6.06502 0
M  V30 11766 N 1191.35 0.610423 -1.45298 0
M  V30 11767 C 1192.26 1.74964 -1.56285 0
M  V30 11768 C 1193.27 1.68149 -0.447436 0
M  V30 11769 O 1194.45 1.88556 -0.707725 0
M  V30 11770 C 1191.52 3.11417 -1.52383 0
M  V30 11771 C 1190.58 3.29707 -2.7494 0
M  V30 11772 C 1189.81 4.5965 -2.71215 0
M  V30 11773 O 1190.03 5.41789 -1.78383 0
M  V30 11774 O 1188.97 4.80591 -3.62375 0
M  V30 11775 H 1192.79 1.68646 -2.52571 0
M  V30 11776 H 1190.38 0.774168 -1.27777 0
M  V30 11777 H 1192.26 3.9272 -1.52805 0
M  V30 11778 H 1190.93 3.18232 -0.592472 0
M  V30 11779 H 1189.84 2.48003 -2.80081 0
M  V30 11780 H 1191.17 3.27766 -3.67192 0
M  V30 11781 N 1192.83 1.32541 0.852676 0
M  V30 11782 C 1194.07 1.23214 1.607 0
M  V30 11783 C 1194.4 -0.205542 1.93411 0
M  V30 11784 O 1193.66 -1.15907 1.57683 0
M  V30 11785 C 1193.96 2.039 2.9353 0
M  V30 11786 C 1193.62 3.53237 2.8024 0
M  V30 11787 C 1192.28 3.93953 2.76323 0
M  V30 11788 C 1194.64 4.48194 2.6603 0
M  V30 11789 C 1191.96 5.27865 2.56077 0
M  V30 11790 C 1194.32 5.82251 2.47319 0
M  V30 11791 C 1192.98 6.22166 2.41796 0
M  V30 11792 H 1192.25 0.450873 0.588043 0
M  V30 11793 H 1194.9 1.63988 0.988954 0
M  V30 11794 H 1193.2 1.55861 3.59464 0
M  V30 11795 H 1194.9 1.94051 3.50921 0
M  V30 11796 H 1191.49 3.209 2.84114 0
M  V30 11797 H 1195.67 4.17656 2.681 0
M  V30 11798 H 1190.93 5.57845 2.50237 0
M  V30 11799 H 1195.1 6.55442 2.35305 0
M  V30 11800 H 1192.73 7.2587 2.25868 0
M  V30 11801 N 1194.3 -1.0692 1.15784 0
M  V30 11802 C 1195.55 -1.79866 0.936815 0
M  V30 11803 C 1195.88 -1.867 -0.534477 0
M  V30 11804 O 1195.16 -1.35395 -1.39637 0
M  V30 11805 C 1195.44 -3.24691 1.55717 0
M  V30 11806 C 1195.29 -3.25975 3.09936 0
M  V30 11807 C 1196.61 -4.22076 1.24658 0
M  V30 11808 H 1193.73 -0.652971 0.341756 0
M  V30 11809 H 1196.37 -1.25085 1.43016 0
M  V30 11810 H 1194.52 -3.7147 1.13763 0
M  V30 11811 H 1196.2 -2.87405 3.60827 0
M  V30 11812 H 1194.44 -2.64808 3.43597 0
M  V30 11813 H 1195.11 -4.28114 3.48458 0
M  V30 11814 H 1197.59 -3.83709 1.60956 0
M  V30 11815 H 1196.46 -5.21691 1.70675 0
M  V30 11816 H 1196.72 -4.41794 0.164341 0
M  V30 11817 N 1195.78 -0.955326 -1.25345 0
M  V30 11818 C 1196.73 -0.474888 -2.25862 0
M  V30 11819 C 1197.7 0.472996 -1.59223 0
M  V30 11820 O 1198.88 0.386094 -1.86853 0
M  V30 11821 C 1196.02 0.240554 -3.44261 0
M  V30 11822 C 1195.14 -0.74465 -4.25534 0
M  V30 11823 C 1194.27 -0.00657513 -5.312 0
M  V30 11824 C 1193.31 -0.982666 -6.04161 0
M  V30 11825 N 1192.45 -0.275418 -7.0156 0
M  V30 11826 H 1197.29 -1.33693 -2.66327 0
M  V30 11827 H 1194.83 -0.670439 -1.30933 0
M  V30 11828 H 1196.78 0.671933 -4.11753 0
M  V30 11829 H 1195.41 1.06664 -3.04668 0
M  V30 11830 H 1194.47 -1.29451 -3.57696 0
M  V30 11831 H 1195.78 -1.48948 -4.76042 0
M  V30 11832 H 1194.93 0.483404 -6.04771 0
M  V30 11833 H 1193.67 0.771035 -4.81567 0
M  V30 11834 H 1192.68 -1.48364 -5.29404 0
M  V30 11835 H 1193.9 -1.76052 -6.55883 0
M  V30 11836 H 1191.85 0.483441 -6.54216 0
M  V30 11837 H 1191.76 -0.959324 -7.49889 0
M  V30 11838 H 1193.03 0.193002 -7.79261 0
M  V30 11839 N 1197.26 1.39987 -0.723979 0
M  V30 11840 C 1198.19 2.3332 -0.0917282 0
M  V30 11841 C 1199.17 1.53335 0.736361 0
M  V30 11842 O 1200.36 1.81771 0.683582 0
M  V30 11843 C 1197.49 3.3737 0.824549 0
M  V30 11844 C 1196.44 4.2788 0.101452 0
M  V30 11845 C 1195.77 5.22536 1.13401 0
M  V30 11846 C 1197.07 5.11649 -1.04939 0
M  V30 11847 H 1198.76 2.86441 -0.871318 0
M  V30 11848 H 1196.31 1.37725 -0.420448 0
M  V30 11849 H 1198.26 4.01607 1.27631 0
M  V30 11850 H 1196.98 2.82663 1.63613 0
M  V30 11851 H 1195.64 3.65107 -0.330569 0
M  V30 11852 H 1195.29 4.64131 1.93886 0
M  V30 11853 H 1194.99 5.83938 0.65502 0
M  V30 11854 H 1196.52 5.89651 1.58569 0
M  V30 11855 H 1197.93 5.69293 -0.6766 0
M  V30 11856 H 1196.33 5.82137 -1.45729 0
M  V30 11857 H 1197.4 4.47132 -1.8762 0
M  V30 11858 N 1198.74 0.470782 1.50404 0
M  V30 11859 C 1199.67 -0.359838 2.26358 0
M  V30 11860 C 1200.68 -0.95735 1.31676 0
M  V30 11861 O 1201.87 -0.84581 1.57189 0
M  V30 11862 C 1198.97 -1.51864 3.02969 0
M  V30 11863 C 1198.15 -1.03397 4.25003 0
M  V30 11864 C 1197.21 -2.06679 4.83911 0
M  V30 11865 O 1196.23 -1.64754 5.44835 0
M  V30 11866 N 1197.43 -3.39484 4.70883 0
M  V30 11867 H 1200.2 0.291299 2.98281 0
M  V30 11868 H 1197.76 0.301549 1.59067 0
M  V30 11869 H 1199.75 -2.2065 3.39258 0
M  V30 11870 H 1198.32 -2.07448 2.33846 0
M  V30 11871 H 1197.54 -0.172012 3.93825 0
M  V30 11872 H 1198.83 -0.68807 5.04126 0
M  V30 11873 H 1198.23 -3.76256 4.22431 0
M  V30 11874 H 1196.78 -4.04068 5.11441 0
M  V30 11875 N 1200.22 -1.56282 0.203376 0
M  V30 11876 C 1201.46 -1.98105 -0.433844 0
M  V30 11877 C 1201.8 -1.09044 -1.60695 0
M  V30 11878 O 1201.07 -0.144193 -1.93965 0
M  V30 11879 C 1201.35 -3.4903 -0.885992 0
M  V30 11880 C 1201.21 -4.48867 0.289501 0
M  V30 11881 C 1202.53 -4.03871 -1.7486 0
M  V30 11882 H 1199.65 -0.720252 -0.156224 0
M  V30 11883 H 1202.29 -1.87681 0.295963 0
M  V30 11884 H 1200.44 -3.58045 -1.50785 0
M  V30 11885 H 1202.11 -4.51883 0.92734 0
M  V30 11886 H 1200.35 -4.23495 0.939934 0
M  V30 11887 H 1201.02 -5.51956 -0.0695128 0
M  V30 11888 H 1203.5 -3.97688 -1.22407 0
M  V30 11889 H 1202.38 -5.09827 -2.03391 0
M  V30 11890 H 1202.64 -3.49637 -2.70567 0
M  V30 11891 N 1201.7 0.070167 -1.57444 0
M  V30 11892 C 1202.92 0.785703 -1.91941 0
M  V30 11893 C 1203.35 1.70243 -0.799932 0
M  V30 11894 O 1202.7 1.79608 0.247139 0
M  V30 11895 C 1202.75 1.55398 -3.25398 0
M  V30 11896 O 1201.86 2.66475 -3.14746 0
M  V30 11897 H 1201.2 0.214245 -0.628486 0
M  V30 11898 H 1203.73 0.0379243 -2.04565 0
M  V30 11899 H 1203.74 1.93287 -3.5931 0
M  V30 11900 H 1202.41 0.881366 -4.06454 0
M  V30 11901 H 1200.99 2.3143 -2.92394 0
M  V30 11902 N 1203.17 1.53854 0.341593 0
M  V30 11903 C 1204.11 1.78295 1.44027 0
M  V30 11904 C 1205.12 0.664303 1.4863 0
M  V30 11905 O 1206.31 0.941073 1.51678 0
M  V30 11906 C 1203.41 1.86947 2.82673 0
M  V30 11907 C 1202.58 3.16898 3.01487 0
M  V30 11908 C 1201.64 3.16483 4.20386 0
M  V30 11909 O 1200.67 3.90197 4.14409 0
M  V30 11910 N 1201.87 2.3899 5.29022 0
M  V30 11911 H 1204.63 2.73102 1.23431 0
M  V30 11912 H 1202.19 1.52928 0.531483 0
M  V30 11913 H 1204.19 1.84118 3.60392 0
M  V30 11914 H 1202.76 0.993169 2.96403 0
M  V30 11915 H 1201.98 3.32835 2.11221 0
M  V30 11916 H 1203.26 4.02733 3.1094 0
M  V30 11917 H 1202.66 1.78657 5.36748 0
M  V30 11918 H 1201.22 2.41957 6.05227 0
M  V30 11919 N 1204.65 -0.602709 1.4562 0
M  V30 11920 C 1205.56 -1.74132 1.5721 0
M  V30 11921 C 1206.58 -1.67909 0.456347 0
M  V30 11922 O 1207.75 -1.88178 0.717714 0
M  V30 11923 C 1204.82 -3.10604 1.54032 0
M  V30 11924 C 1203.88 -3.28244 2.76685 0
M  V30 11925 C 1203.11 -4.58205 2.73649 0
M  V30 11926 O 1203.34 -5.40836 1.81254 0
M  V30 11927 O 1202.27 -4.78663 3.64919 0
M  V30 11928 H 1206.1 -1.67304 2.53462 0
M  V30 11929 H 1203.68 -0.767381 1.28186 0
M  V30 11930 H 1205.56 -3.91904 1.54885 0
M  V30 11931 H 1204.24 -3.17913 0.60934 0
M  V30 11932 H 1203.14 -2.46514 2.81393 0
M  V30 11933 H 1204.48 -3.25814 3.68925 0
M  V30 11934 N 1206.13 -1.32992 -0.845635 0
M  V30 11935 C 1207.04 -1.24701 -1.98713 0
M  V30 11936 C 1208.06 -0.158864 -1.73273 0
M  V30 11937 O 1209.23 -0.381209 -1.97759 0
M  V30 11938 C 1206.3 -0.979524 -3.32575 0
M  V30 11939 C 1205.36 -2.15701 -3.71176 0
M  V30 11940 C 1204.59 -1.90219 -4.98651 0
M  V30 11941 O 1204.81 -0.849171 -5.64044 0
M  V30 11942 O 1203.75 -2.76571 -5.34595 0
M  V30 11943 H 1207.57 -2.20683 -2.08645 0
M  V30 11944 H 1205.16 -1.12971 -0.97765 0
M  V30 11945 H 1207.04 -0.847219 -4.12796 0
M  V30 11946 H 1205.72 -0.0499398 -3.23661 0
M  V30 11947 H 1204.62 -2.34483 -2.91494 0
M  V30 11948 H 1205.96 -3.0697 -3.84747 0
M  V30 11949 N 1207.61 1.06304 -1.1635 0
M  V30 11950 C 1208.85 1.79101 -0.94494 0
M  V30 11951 C 1209.18 1.87217 0.527251 0
M  V30 11952 O 1208.44 1.35992 1.40729 0
M  V30 11953 C 1208.74 3.23589 -1.51741 0
M  V30 11954 C 1208.4 3.35552 -3.0119 0
M  V30 11955 C 1207.06 3.38525 -3.41986 0
M  V30 11956 C 1209.42 3.37482 -3.97184 0
M  V30 11957 C 1206.74 3.41042 -4.77396 0
M  V30 11958 C 1209.1 3.41537 -5.3248 0
M  V30 11959 C 1207.76 3.42792 -5.72757 0
M  V30 11960 H 1207.03 0.655377 -0.345778 0
M  V30 11961 H 1209.68 1.25017 -1.45062 0
M  V30 11962 H 1207.98 3.80525 -0.933164 0
M  V30 11963 H 1209.68 3.78512 -1.32399 0
M  V30 11964 H 1206.27 3.33944 -2.68662 0
M  V30 11965 H 1210.45 3.34397 -3.66732 0
M  V30 11966 H 1205.71 3.40317 -5.07931 0
M  V30 11967 H 1209.88 3.41977 -6.0665 0
M  V30 11968 H 1207.51 3.44495 -6.77663 0
M  V30 11969 N 1209.09 0.96196 1.24836 0
M  V30 11970 C 1210.02 0.506241 2.27946 0
M  V30 11971 C 1211 -0.451183 1.64007 0
M  V30 11972 O 1212.18 -0.348552 1.91046 0
M  V30 11973 C 1209.31 -0.209846 3.46665 0
M  V30 11974 C 1208.27 0.663035 4.22833 0
M  V30 11975 C 1207.59 -0.184216 5.34383 0
M  V30 11976 C 1208.89 1.94479 4.84742 0
M  V30 11977 H 1210.59 1.36805 2.66317 0
M  V30 11978 H 1208.13 0.65926 1.28023 0
M  V30 11979 H 1210.08 -0.539838 4.17928 0
M  V30 11980 H 1208.81 -1.10596 3.07305 0
M  V30 11981 H 1207.47 0.976216 3.53363 0
M  V30 11982 H 1207.12 -1.08031 4.91262 0
M  V30 11983 H 1206.82 0.39657 5.8626 0
M  V30 11984 H 1208.34 -0.509009 6.08475 0
M  V30 11985 H 1209.75 1.68074 5.48109 0
M  V30 11986 H 1208.15 2.47183 5.46828 0
M  V30 11987 H 1209.22 2.64332 4.06517 0
M  V30 11988 N 1210.56 -1.39601 0.731392 0
M  V30 11989 C 1211.8 -2.0244 0.282387 0
M  V30 11990 C 1212.17 -1.56776 -1.10839 0
M  V30 11991 O 1213.37 -2.11788 -1.65527 0
M  V30 11992 C 1211.64 -3.55409 0.376704 0
M  V30 11993 S 1213.2 -4.38799 0.00700932 0
M  V30 11994 H 1210.02 -0.7023 0.110886 0
M  V30 11995 H 1212.62 -1.70469 0.957111 0
M  V30 11996 H 1211.32 -3.86134 1.39027 0
M  V30 11997 H 1210.85 -3.92129 -0.315963 0
M  V30 11998 H 1212.87 -4.81213 -1.21032 0
M  V30 11999 N 1212.04 -0.478751 -1.50152 0
M  V30 12000 C 1212.98 0.357584 -2.25381 0
M  V30 12001 C 1213.95 0.98965 -1.29014 0
M  V30 12002 O 1215.14 1.02409 -1.58255 0
M  V30 12003 C 1212.26 1.50167 -3.03591 0
M  V30 12004 C 1211.31 0.986215 -4.14941 0
M  V30 12005 S 1212.14 -0.105239 -5.35397 0
M  V30 12006 C 1213.3 1.04254 -6.17156 0
M  V30 12007 H 1213.53 -0.280985 -2.95969 0
M  V30 12008 H 1211.07 -0.263734 -1.52131 0
M  V30 12009 H 1213.02 2.15733 -3.49241 0
M  V30 12010 H 1211.68 2.11178 -2.32514 0
M  V30 12011 H 1210.88 1.84295 -4.69096 0
M  V30 12012 H 1210.48 0.408141 -3.71766 0
M  V30 12013 H 1212.77 1.95255 -6.48754 0
M  V30 12014 H 1213.71 0.540083 -7.06037 0
M  V30 12015 H 1214.12 1.29983 -5.49331 0
M  V30 12016 N 1213.52 1.56172 -0.211661 0
M  V30 12017 C 1214.47 2.19849 0.702515 0
M  V30 12018 C 1215.44 1.15091 1.19763 0
M  V30 12019 O 1216.62 1.43408 1.25852 0
M  V30 12020 C 1213.76 2.87468 1.90935 0
M  V30 12021 C 1212.88 4.06794 1.45406 0
M  V30 12022 C 1212.01 4.62224 2.61769 0
M  V30 12023 C 1211.05 5.73872 2.12926 0
M  V30 12024 N 1210.19 6.23635 3.22526 0
M  V30 12025 H 1215.03 2.97608 0.152777 0
M  V30 12026 H 1212.56 1.46962 0.0636596 0
M  V30 12027 H 1214.52 3.24851 2.61777 0
M  V30 12028 H 1213.15 2.12244 2.43213 0
M  V30 12029 H 1212.2 3.74962 0.640907 0
M  V30 12030 H 1213.52 4.87497 1.05584 0
M  V30 12031 H 1212.67 5.01999 3.40709 0
M  V30 12032 H 1211.41 3.80662 3.04873 0
M  V30 12033 H 1210.41 5.33609 1.32445 0
M  V30 12034 H 1211.64 6.57262 1.70833 0
M  V30 12035 H 1209.58 5.44991 3.65131 0
M  V30 12036 H 1209.5 6.99435 2.86926 0
M  V30 12037 H 1210.77 6.68066 4.01631 0
M  V30 12038 N 1215 -0.0618163 1.57479 0
M  V30 12039 C 1216.24 -0.760193 1.88013 0
M  V30 12040 C 1216.58 -1.76718 0.805258 0
M  V30 12041 O 1215.85 -1.93633 -0.183408 0
M  V30 12042 C 1216.14 -1.45924 3.29208 0
M  V30 12043 C 1215.99 -0.467994 4.47359 0
M  V30 12044 C 1217.31 -2.40166 3.68793 0
M  V30 12045 H 1214.43 -0.274896 0.683814 0
M  V30 12046 H 1217.07 -0.0232433 1.89986 0
M  V30 12047 H 1215.22 -2.08741 3.27657 0
M  V30 12048 H 1216.89 0.155735 4.61037 0
M  V30 12049 H 1215.13 0.215797 4.33263 0
M  V30 12050 H 1215.8 -0.994942 5.42959 0
M  V30 12051 H 1218.28 -1.87419 3.71501 0
M  V30 12052 H 1217.16 -2.86076 4.68457 0
M  V30 12053 H 1217.42 -3.25413 2.99264 0
M  V30 12054 N 1216.48 -1.54033 -0.333429 0
M  V30 12055 C 1217.41 -1.85719 -1.4153 0
M  V30 12056 C 1218.39 -0.713144 -1.54429 0
M  V30 12057 O 1219.57 -0.965984 -1.68471 0
M  V30 12058 C 1216.7 -2.07578 -2.78439 0
M  V30 12059 C 1215.66 -3.23411 -2.80338 0
M  V30 12060 C 1214.98 -3.30622 -4.2023 0
M  V30 12061 C 1216.28 -4.6129 -2.44968 0
M  V30 12062 H 1217.98 -2.76325 -1.15261 0
M  V30 12063 H 1215.52 -1.32957 -0.55303 0
M  V30 12064 H 1217.48 -2.28329 -3.5418 0
M  V30 12065 H 1216.2 -1.13713 -3.06165 0
M  V30 12066 H 1214.86 -3.02531 -2.07052 0
M  V30 12067 H 1214.51 -2.34333 -4.45081 0
M  V30 12068 H 1214.21 -4.08466 -4.22409 0
M  V30 12069 H 1215.73 -3.53596 -4.97798 0
M  V30 12070 H 1217.14 -4.81987 -3.10421 0
M  V30 12071 H 1215.54 -5.41611 -2.58414 0
M  V30 12072 H 1216.61 -4.6421 -1.40134 0
M  V30 12073 N 1217.95 0.594978 -1.45938 0
M  V30 12074 C 1218.88 1.71536 -1.58422 0
M  V30 12075 C 1219.87 1.64441 -0.435116 0
M  V30 12076 O 1221.05 1.82647 -0.659839 0
M  V30 12077 C 1218.18 3.10163 -1.56257 0
M  V30 12078 C 1217.13 3.3208 -2.70013 0
M  V30 12079 C 1216.46 4.71108 -2.52905 0
M  V30 12080 C 1217.76 3.21105 -4.11933 0
M  V30 12081 H 1219.45 1.61344 -2.52207 0
M  V30 12082 H 1217 0.774791 -1.2138 0
M  V30 12083 H 1218.95 3.88352 -1.63587 0
M  V30 12084 H 1217.68 3.21225 -0.590093 0
M  V30 12085 H 1216.34 2.56286 -2.62132 0
M  V30 12086 H 1215.98 4.7892 -1.53768 0
M  V30 12087 H 1215.68 4.86727 -3.29197 0
M  V30 12088 H 1217.21 5.51482 -2.62107 0
M  V30 12089 H 1218.62 3.89153 -4.2099 0
M  V30 12090 H 1217.02 3.4825 -4.88715 0
M  V30 12091 H 1218.09 2.18359 -4.32952 0
M  V30 12092 N 1219.43 1.33438 0.838571 0
M  V30 12093 C 1220.36 1.26344 1.96365 0
M  V30 12094 C 1221.34 0.143956 1.6949 0
M  V30 12095 O 1222.53 0.333779 1.9131 0
M  V30 12096 C 1219.66 1.0022 3.32526 0
M  V30 12097 C 1218.61 2.08466 3.73799 0
M  V30 12098 C 1217.94 1.67555 5.07769 0
M  V30 12099 C 1219.24 3.50144 3.87552 0
M  V30 12100 H 1220.93 2.20478 2.02558 0
M  V30 12101 H 1218.48 1.06139 0.973168 0
M  V30 12102 H 1220.43 0.939068 4.10803 0
M  V30 12103 H 1219.16 0.0252514 3.2659 0
M  V30 12104 H 1217.81 2.13822 2.97785 0
M  V30 12105 H 1217.46 0.685619 4.98305 0
M  V30 12106 H 1217.16 2.39993 5.36356 0
M  V30 12107 H 1218.69 1.62708 5.88522 0
M  V30 12108 H 1220.1 3.47287 4.56141 0
M  V30 12109 H 1218.5 4.21069 4.27575 0
M  V30 12110 H 1219.57 3.88628 2.89994 0
M  V30 12111 N 1220.91 -1.05686 1.16912 0
M  V30 12112 C 1221.84 -2.15268 0.904532 0
M  V30 12113 C 1222.82 -1.69424 -0.151548 0
M  V30 12114 O 1224.01 -1.942 -0.00235371 0
M  V30 12115 C 1221.14 -3.44853 0.411581 0
M  V30 12116 C 1220.09 -4.04237 1.40628 0
M  V30 12117 C 1219.42 -5.29105 0.771479 0
M  V30 12118 C 1220.72 -4.42303 2.77787 0
M  V30 12119 H 1222.41 -2.37659 1.82094 0
M  V30 12120 H 1219.96 -1.14217 0.876947 0
M  V30 12121 H 1221.91 -4.20857 0.213929 0
M  V30 12122 H 1220.63 -3.22099 -0.540352 0
M  V30 12123 H 1219.29 -3.30297 1.59058 0
M  V30 12124 H 1218.94 -5.02652 -0.187133 0
M  V30 12125 H 1218.64 -5.69797 1.43545 0
M  V30 12126 H 1220.16 -6.07801 0.583988 0
M  V30 12127 H 1221.58 -5.09362 2.63103 0
M  V30 12128 H 1219.98 -4.93997 3.40716 0
M  V30 12129 H 1221.05 -3.52877 3.32575 0
M  V30 12130 N 1222.39 -0.968567 -1.24324 0
M  V30 12131 C 1223.34 -0.491346 -2.27351 0
M  V30 12132 C 1224.33 0.445563 -1.63435 0
M  V30 12133 O 1225.54 0.320758 -1.77119 0
M  V30 12134 H 1221.91 -0.14043 -0.738772 0
M  V30 12135 H 1223.88 -1.37224 -2.64976 0
M  V30 12136 C 1222.63 0.202093 -3.47112 0
M  V30 12137 H 1221.95 -0.50973 -3.96537 0
M  V30 12138 H 1223.39 0.499815 -4.21044 0
M  V30 12139 C 1221.85 1.42937 -3.05075 0
M  V30 12140 O 1222.38 2.52635 -3.12312 0
M  V30 12141 N 1220.59 1.29572 -2.60114 0
M  V30 12142 H 1220.14 0.403169 -2.54425 0
M  V30 12143 H 1220.09 2.118 -2.32353 0
M  V30 12144 N 1223.87 1.39211 -0.738786 0
M  V30 12145 C 1225.09 2.04732 -0.298751 0
M  V30 12146 C 1225.51 1.55706 1.06776 0
M  V30 12147 O 1224.87 0.723605 1.67542 0
M  V30 12148 C 1224.92 3.60288 -0.29574 0
M  V30 12149 O 1224.64 4.07511 -1.60831 0
M  V30 12150 C 1226.14 4.43011 0.159994 0
M  V30 12151 H 1223.36 0.658296 -0.129952 0
M  V30 12152 H 1225.9 1.78186 -1.0035 0
M  V30 12153 H 1224.06 3.85722 0.360146 0
M  V30 12154 H 1224.47 5.01858 -1.52443 0
M  V30 12155 H 1225.95 5.51889 0.110941 0
M  V30 12156 H 1226.42 4.22325 1.20573 0
M  V30 12157 H 1227.03 4.22734 -0.466467 0
M  V30 12158 N 1225.34 0.486708 1.49896 0
M  V30 12159 C 1226.59 -0.0646197 2.01596 0
M  V30 12160 C 1226.91 -1.39363 1.37249 0
M  V30 12161 O 1228.11 -2.03082 1.80194 0
M  V30 12162 C 1226.57 -0.16565 3.59519 0
M  V30 12163 C 1226.18 1.15586 4.32832 0
M  V30 12164 C 1227.92 -0.668103 4.1921 0
M  V30 12165 C 1225.83 1.01778 5.82576 0
M  V30 12166 H 1224.76 -0.0279241 0.753483 0
M  V30 12167 H 1227.41 0.623969 1.72566 0
M  V30 12168 H 1225.79 -0.918372 3.85204 0
M  V30 12169 H 1226.96 1.92076 4.1886 0
M  V30 12170 H 1225.28 1.59064 3.84822 0
M  V30 12171 H 1227.88 -0.788698 5.28851 0
M  V30 12172 H 1228.22 -1.66339 3.81624 0
M  V30 12173 H 1228.75 0.0276746 3.9779 0
M  V30 12174 H 1225.49 1.9869 6.24662 0
M  V30 12175 H 1225.01 0.293527 5.99081 0
M  V30 12176 H 1226.69 0.690693 6.43303 0
M  V30 12177 N 1226.82 -1.56058 0.219941 0
M  V30 12178 C 1228.23 -1.84462 -0.288203 0
M  V30 12179 C 1228.59 -1.14128 -1.59591 0
M  V30 12180 O 1227.71 -0.410411 -2.12473 0
M  V30 12181 C 1228.31 -3.34634 -0.529689 0
M  V30 12182 C 1226.86 -3.63361 -0.982145 0
M  V30 12183 C 1226.01 -2.77265 -0.0443292 0
M  V30 12184 H 1228.96 -1.52387 0.44317 0
M  V30 12185 H 1228.98 -3.54752 -1.3759 0
M  V30 12186 H 1228.5 -3.85796 0.422243 0
M  V30 12187 H 1226.6 -3.17653 -1.94749 0
M  V30 12188 H 1226.71 -4.71361 -0.857668 0
M  V30 12189 H 1225.07 -2.48672 -0.550825 0
M  V30 12190 H 1225.86 -3.31225 0.902491 0
M  V30 12191 N 1228.3 0.053464 -1.57509 0
M  V30 12192 C 1229.23 1.06151 -2.07977 0
M  V30 12193 C 1230.21 1.3924 -0.977047 0
M  V30 12194 O 1231.4 1.48549 -1.25087 0
M  V30 12195 C 1228.53 2.36969 -2.53895 0
M  V30 12196 C 1227.48 2.18186 -3.6821 0
M  V30 12197 C 1226.81 3.54551 -4.00247 0
M  V30 12198 C 1228.11 1.588 -4.97574 0
M  V30 12199 H 1229.8 0.641483 -2.92447 0
M  V30 12200 H 1227.35 0.307122 -1.40687 0
M  V30 12201 H 1229.3 3.07797 -2.87817 0
M  V30 12202 H 1228.02 2.80986 -1.66476 0
M  V30 12203 H 1226.68 1.49796 -3.34599 0
M  V30 12204 H 1226.33 3.96171 -3.09932 0
M  V30 12205 H 1226.03 3.42816 -4.77232 0
M  V30 12206 H 1227.56 4.2678 -4.36682 0
M  V30 12207 H 1228.97 2.19515 -5.29609 0
M  V30 12208 H 1227.37 1.57711 -5.79006 0
M  V30 12209 H 1228.44 0.551254 -4.81756 0
M  V30 12210 N 1229.78 1.54207 0.325255 0
M  V30 12211 C 1230.69 1.86495 1.42326 0
M  V30 12212 C 1231.71 0.756718 1.56684 0
M  V30 12213 O 1232.88 1.05084 1.71812 0
M  V30 12214 C 1229.95 2.08414 2.77064 0
M  V30 12215 C 1229.01 3.32221 2.71897 0
M  V30 12216 C 1228.24 3.53085 4.00209 0
M  V30 12217 O 1228.46 2.77421 4.98391 0
M  V30 12218 O 1227.4 4.46559 4.0357 0
M  V30 12219 H 1231.22 2.79859 1.17951 0
M  V30 12220 H 1228.81 1.40091 0.519124 0
M  V30 12221 H 1230.69 2.24171 3.56827 0
M  V30 12222 H 1229.37 1.18238 3.01333 0
M  V30 12223 H 1228.27 3.21851 1.90691 0
M  V30 12224 H 1229.61 4.22449 2.52582 0
M  V30 12225 N 1231.26 -0.58723 1.46251 0
M  V30 12226 C 1232.51 -1.34294 1.51028 0
M  V30 12227 C 1232.83 -1.94329 0.161623 0
M  V30 12228 O 1232.1 -1.78309 -0.811342 0
M  V30 12229 H 1230.68 -0.498607 0.556238 0
M  V30 12230 H 1233.34 -0.688074 1.8235 0
M  V30 12231 H 1232.43 -2.15197 2.26045 0
M  V30 12232 N 1232.74 -1.33881 -0.831482 0
M  V30 12233 C 1233.67 -1.27384 -1.95693 0
M  V30 12234 C 1234.65 -0.152943 -1.69411 0
M  V30 12235 O 1235.83 -0.34392 -1.9113 0
M  V30 12236 C 1232.96 -1.01982 -3.31989 0
M  V30 12237 C 1231.92 -2.10445 -3.72689 0
M  V30 12238 C 1231.24 -1.70245 -5.06873 0
M  V30 12239 C 1232.54 -3.52194 -3.8569 0
M  V30 12240 H 1234.24 -2.21549 -2.01386 0
M  V30 12241 H 1231.78 -1.06653 -0.967526 0
M  V30 12242 H 1233.73 -0.960841 -4.103 0
M  V30 12243 H 1232.46 -0.0425709 -3.26572 0
M  V30 12244 H 1231.12 -2.15398 -2.96647 0
M  V30 12245 H 1230.77 -0.712036 -4.97935 0
M  V30 12246 H 1230.47 -2.42834 -5.35075 0
M  V30 12247 H 1231.99 -1.65827 -5.87651 0
M  V30 12248 H 1233.4 -3.49701 -4.54293 0
M  V30 12249 H 1231.8 -4.23331 -4.25336 0
M  V30 12250 H 1232.87 -3.9016 -2.87929 0
M  V30 12251 N 1234.21 1.05064 -1.1747 0
M  V30 12252 C 1235.63 1.30256 -0.922248 0
M  V30 12253 C 1235.83 1.97119 0.417896 0
M  V30 12254 O 1234.89 2.24557 1.15457 0
M  V30 12255 C 1236.2 2.17109 -2.08049 0
M  V30 12256 C 1237.75 2.30487 -2.11766 0
M  V30 12257 C 1238.22 3.20701 -3.26979 0
M  V30 12258 N 1239.71 3.28287 -3.26775 0
M  V30 12259 C 1240.45 3.98218 -4.12565 0
M  V30 12260 N 1239.94 4.70567 -5.08467 0
M  V30 12261 N 1241.74 3.94395 -4.00511 0
M  V30 12262 H 1233.89 0.600653 -2.0373 0
M  V30 12263 H 1236.15 0.327475 -0.889643 0
M  V30 12264 H 1235.86 1.75273 -3.04914 0
M  V30 12265 H 1235.73 3.1775 -2.03261 0
M  V30 12266 H 1238.12 2.71564 -1.15486 0
M  V30 12267 H 1238.2 1.29471 -2.20615 0
M  V30 12268 H 1237.84 2.80337 -4.23525 0
M  V30 12269 H 1237.77 4.21725 -3.15366 0
M  V30 12270 H 1240.26 2.76739 -2.5734 0
M  V30 12271 H 1240.58 5.21492 -5.70321 0
M  V30 12272 H 1238.92 4.69505 -5.12436 0
M  V30 12273 H 1242.11 3.37 -3.24882 0
M  V30 12274 H 1242.29 4.48626 -4.67588 0
M  V30 12275 N 1235.69 0.975146 1.23809 0
M  V30 12276 C 1236.92 0.658605 1.96665 0
M  V30 12277 C 1237.34 -0.766744 1.71763 0
M  V30 12278 O 1236.7 -1.52151 0.985887 0
M  V30 12279 C 1236.75 0.948438 3.47904 0
M  V30 12280 O 1235.85 0.0377241 4.12383 0
M  V30 12281 H 1235.19 0.248231 0.615855 0
M  V30 12282 H 1237.72 1.30732 1.57386 0
M  V30 12283 H 1237.73 0.883 3.9833 0
M  V30 12284 H 1236.41 1.98717 3.65355 0
M  V30 12285 H 1234.98 0.157122 3.72569 0
M  V30 12286 N 1237.17 -1.38817 0.746158 0
M  V30 12287 C 1238.1 -2.29081 0.0737986 0
M  V30 12288 C 1239.11 -1.47377 -0.691656 0
M  V30 12289 O 1240.3 -1.70326 -0.533973 0
M  V30 12290 C 1237.4 -3.26185 -0.919607 0
M  V30 12291 C 1236.58 -4.36879 -0.213349 0
M  V30 12292 C 1235.64 -5.1422 -1.11644 0
M  V30 12293 O 1234.66 -5.66137 -0.589747 0
M  V30 12294 N 1235.86 -5.26488 -2.44521 0
M  V30 12295 H 1238.63 -2.87424 0.848966 0
M  V30 12296 H 1236.19 -1.50518 0.596314 0
M  V30 12297 H 1238.18 -3.74802 -1.52662 0
M  V30 12298 H 1236.75 -2.68793 -1.5959 0
M  V30 12299 H 1235.97 -3.89994 0.574285 0
M  V30 12300 H 1237.26 -5.08053 0.275655 0
M  V30 12301 H 1236.66 -4.85846 -2.89777 0
M  V30 12302 H 1235.21 -5.78505 -3.00291 0
M  V30 12303 N 1238.65 -0.49465 -1.49636 0
M  V30 12304 C 1239.88 0.0491129 -2.06842 0
M  V30 12305 C 1240.29 1.31395 -1.35576 0
M  V30 12306 O 1239.65 1.7731 -0.432135 0
M  V30 12307 C 1239.7 0.313171 -3.60141 0
M  V30 12308 O 1239.42 -0.90152 -4.28724 0
M  V30 12309 C 1240.92 0.901284 -4.34041 0
M  V30 12310 H 1238.14 -0.0176186 -0.670769 0
M  V30 12311 H 1240.68 -0.690188 -1.92501 0
M  V30 12312 H 1238.84 1.00244 -3.74206 0
M  V30 12313 H 1239.25 -0.660477 -5.20325 0
M  V30 12314 H 1240.73 1.03567 -5.42197 0
M  V30 12315 H 1241.2 1.89746 -3.96097 0
M  V30 12316 H 1241.81 0.249677 -4.24566 0
M  V30 12317 N 1240.13 1.55939 -0.228214 0
M  V30 12318 C 1241.06 2.17874 0.711589 0
M  V30 12319 C 1242.07 1.14969 1.15265 0
M  V30 12320 O 1243.26 1.41919 1.08265 0
M  V30 12321 C 1240.36 2.75294 1.97652 0
M  V30 12322 C 1239.53 4.03435 1.68994 0
M  V30 12323 C 1238.59 4.45354 2.8026 0
M  V30 12324 O 1237.62 5.12117 2.48445 0
M  V30 12325 N 1238.82 4.11588 4.0936 0
M  V30 12326 H 1241.58 2.99148 0.181757 0
M  V30 12327 H 1239.15 1.6183 -0.0474567 0
M  V30 12328 H 1241.14 3.00305 2.71292 0
M  V30 12329 H 1239.71 1.98285 2.41665 0
M  V30 12330 H 1238.93 3.8621 0.789657 0
M  V30 12331 H 1240.22 4.87015 1.47287 0
M  V30 12332 H 1239.61 3.57953 4.38048 0
M  V30 12333 H 1238.17 4.41477 4.79522 0
M  V30 12334 N 1241.6 -0.0451101 1.57535 0
M  V30 12335 C 1242.85 -0.739114 1.88529 0
M  V30 12336 C 1243.18 -1.76208 0.823468 0
M  V30 12337 O 1242.43 -1.94893 -0.177512 0
M  V30 12338 C 1242.73 -1.45938 3.26247 0
M  V30 12339 C 1242.4 -0.57391 4.47233 0
M  V30 12340 C 1241.06 -0.329974 4.80067 0
M  V30 12341 C 1243.41 0.0384272 5.21186 0
M  V30 12342 C 1240.74 0.535339 5.84253 0
M  V30 12343 C 1243.09 0.891349 6.26289 0
M  V30 12344 C 1241.76 1.1449 6.57608 0
M  V30 12345 H 1241.03 -0.270461 0.689878 0
M  V30 12346 H 1243.67 0.000714103 1.915 0
M  V30 12347 H 1241.98 -2.27212 3.1919 0
M  V30 12348 H 1243.68 -2.00162 3.47471 0
M  V30 12349 H 1240.27 -0.774181 4.2155 0
M  V30 12350 H 1244.45 -0.137096 4.96111 0
M  V30 12351 H 1239.71 0.740253 6.06902 0
M  V30 12352 H 1243.88 1.37243 6.82743 0
M  V30 12353 H 1241.51 1.81715 7.38162 0
M  V30 12354 N 1243.08 -1.54377 -0.317073 0
M  V30 12355 C 1243.99 -1.87247 -1.41335 0
M  V30 12356 C 1245.01 -0.765017 -1.5628 0
M  V30 12357 O 1246.18 -1.05994 -1.71252 0
M  V30 12358 C 1243.25 -2.0988 -2.75955 0
M  V30 12359 C 1242.31 -3.33658 -2.70131 0
M  V30 12360 C 1241.54 -3.55202 -3.9833 0
M  V30 12361 O 1241.77 -2.80061 -4.96913 0
M  V30 12362 O 1240.7 -4.48693 -4.01196 0
M  V30 12363 H 1244.53 -2.80481 -1.16465 0
M  V30 12364 H 1242.11 -1.40364 -0.511687 0
M  V30 12365 H 1243.99 -2.2606 -3.55633 0
M  V30 12366 H 1242.67 -1.19834 -3.00702 0
M  V30 12367 H 1241.58 -3.22857 -1.88981 0
M  V30 12368 H 1242.91 -4.23782 -2.50338 0
M  V30 12369 N 1244.56 0.579466 -1.4656 0
M  V30 12370 C 1245.47 1.71609 -1.59961 0
M  V30 12371 C 1246.49 1.67162 -0.483002 0
M  V30 12372 O 1247.66 1.87012 -0.747561 0
M  V30 12373 C 1244.73 3.08114 -1.58954 0
M  V30 12374 C 1243.79 3.238 -2.81872 0
M  V30 12375 C 1243.02 4.53794 -2.80904 0
M  V30 12376 O 1243.24 5.37884 -1.89835 0
M  V30 12377 O 1242.18 4.72796 -3.72488 0
M  V30 12378 H 1246 1.6325 -2.56092 0
M  V30 12379 H 1243.59 0.746891 -1.2939 0
M  V30 12380 H 1245.47 3.8939 -1.611 0
M  V30 12381 H 1244.15 3.16903 -0.65984 0
M  V30 12382 H 1243.05 2.42006 -2.85279 0
M  V30 12383 H 1244.39 3.19904 -3.74062 0
M  V30 12384 N 1246.04 1.3432 0.824371 0
M  V30 12385 C 1246.97 1.2012 1.94027 0
M  V30 12386 C 1247.95 0.0931808 1.62333 0
M  V30 12387 O 1249.13 0.258069 1.86725 0
M  V30 12388 C 1246.26 0.845628 3.27974 0
M  V30 12389 C 1245.31 1.9632 3.7863 0
M  V30 12390 S 1246.14 3.57642 3.98563 0
M  V30 12391 C 1247.3 3.24124 5.35439 0
M  V30 12392 H 1247.53 2.14579 2.05775 0
M  V30 12393 H 1245.06 1.1933 0.979783 0
M  V30 12394 H 1247.02 0.647266 4.05365 0
M  V30 12395 H 1245.68 -0.0805948 3.13997 0
M  V30 12396 H 1244.87 1.66812 4.75594 0
M  V30 12397 H 1244.48 2.11897 3.08181 0
M  V30 12398 H 1246.77 2.75848 6.188 0
M  V30 12399 H 1247.71 4.20222 5.69929 0
M  V30 12400 H 1248.12 2.60343 5.00881 0
M  V30 12401 N 1247.52 -1.0444 1.18026 0
M  V30 12402 C 1248.93 -1.29766 0.929143 0
M  V30 12403 C 1249.13 -1.97338 -0.407436 0
M  V30 12404 O 1248.19 -2.25166 -1.14265 0
M  V30 12405 C 1249.5 -2.16002 2.09197 0
M  V30 12406 C 1251.05 -2.29361 2.12985 0
M  V30 12407 C 1251.52 -3.18962 3.28675 0
M  V30 12408 N 1253.02 -3.26549 3.28512 0
M  V30 12409 C 1253.75 -3.96025 4.14671 0
M  V30 12410 N 1253.25 -4.67863 5.10956 0
M  V30 12411 N 1255.04 -3.92266 4.02597 0
M  V30 12412 H 1247.19 -0.58984 2.04046 0
M  V30 12413 H 1249.45 -0.322752 0.891367 0
M  V30 12414 H 1249.16 -1.73653 3.05839 0
M  V30 12415 H 1249.03 -3.16667 2.04943 0
M  V30 12416 H 1251.42 -2.70948 1.16924 0
M  V30 12417 H 1251.5 -1.28299 2.21298 0
M  V30 12418 H 1251.15 -2.78087 4.25006 0
M  V30 12419 H 1251.08 -4.20047 3.17598 0
M  V30 12420 H 1253.57 -2.75371 2.58804 0
M  V30 12421 H 1253.88 -5.1846 5.73079 0
M  V30 12422 H 1252.22 -4.6678 5.14919 0
M  V30 12423 H 1255.42 -3.35273 3.26665 0
M  V30 12424 H 1255.59 -4.4614 4.69961 0
M  V30 12425 N 1248.99 -0.981699 -1.2329 0
M  V30 12426 C 1250.22 -0.669025 -1.96313 0
M  V30 12427 C 1250.64 0.757624 -1.72168 0
M  V30 12428 O 1250 1.51626 -0.993942 0
M  V30 12429 C 1250.05 -0.966875 -3.47396 0
M  V30 12430 O 1249.15 -0.0595933 -4.12357 0
M  V30 12431 H 1248.5 -0.251493 -0.61453 0
M  V30 12432 H 1251.03 -1.31564 -1.56691 0
M  V30 12433 H 1251.04 -0.904112 -3.97857 0
M  V30 12434 H 1249.71 -2.00651 -3.64296 0
M  V30 12435 H 1248.29 -0.176878 -3.7248 0
M  V30 12436 N 1250.47 1.3842 -0.753509 0
M  V30 12437 C 1251.7 2.04929 -0.319174 0
M  V30 12438 C 1252.12 1.56457 1.04416 0
M  V30 12439 O 1251.48 0.716527 1.6654 0
M  V30 12440 C 1251.53 3.58887 -0.351054 0
M  V30 12441 O 1250.63 4.07166 0.654963 0
M  V30 12442 H 1249.97 0.648782 -0.141343 0
M  V30 12443 H 1252.5 1.77096 -1.02461 0
M  V30 12444 H 1252.51 4.075 -0.201907 0
M  V30 12445 H 1251.19 3.93525 -1.34576 0
M  V30 12446 H 1249.77 3.69921 0.470435 0
M  V30 12447 N 1251.95 0.502579 1.49372 0
M  V30 12448 C 1253.18 -0.0380876 2.06565 0
M  V30 12449 C 1253.59 -1.31224 1.36297 0
M  V30 12450 O 1252.93 -1.78463 0.435517 0
M  V30 12451 C 1252.99 -0.360462 3.57688 0
M  V30 12452 C 1252.66 0.816203 4.49652 0
M  V30 12453 C 1253.65 1.70713 4.91073 0
M  V30 12454 C 1251.34 1.01545 4.91929 0
M  V30 12455 C 1253.33 2.78144 5.73511 0
M  V30 12456 C 1251.02 2.09294 5.74142 0
M  V30 12457 C 1252.02 2.97428 6.14838 0
M  V30 12458 O 1251.71 4.03317 6.95407 0
M  V30 12459 H 1251.44 0.0179548 0.675762 0
M  V30 12460 H 1253.99 0.699609 1.93118 0
M  V30 12461 H 1252.22 -1.15177 3.69149 0
M  V30 12462 H 1253.91 -0.839931 3.97115 0
M  V30 12463 H 1254.68 1.56502 4.59056 0
M  V30 12464 H 1250.56 0.338822 4.59753 0
M  V30 12465 H 1254.1 3.46965 6.05195 0
M  V30 12466 H 1250 2.235 6.05572 0
M  V30 12467 H 1250.77 4.00689 7.13716 0
M  V30 12468 N 1253.43 -1.55816 0.23648 0
M  V30 12469 C 1254.68 -1.97862 -0.391579 0
M  V30 12470 C 1254.99 -1.1276 -1.59827 0
M  V30 12471 O 1256.2 -1.44772 -2.29681 0
M  V30 12472 C 1254.65 -3.5204 -0.748065 0
M  V30 12473 C 1254.26 -4.45867 0.436643 0
M  V30 12474 C 1256 -4.02766 -1.3409 0
M  V30 12475 C 1253.91 -5.91373 0.0568909 0
M  V30 12476 H 1252.84 -0.738913 -0.150078 0
M  V30 12477 H 1255.49 -1.80415 0.335052 0
M  V30 12478 H 1253.87 -3.65143 -1.53254 0
M  V30 12479 H 1255.05 -4.44519 1.21408 0
M  V30 12480 H 1253.36 -4.05565 0.943702 0
M  V30 12481 H 1255.96 -5.08987 -1.63817 0
M  V30 12482 H 1256.3 -3.49496 -2.26182 0
M  V30 12483 H 1256.84 -3.92946 -0.619548 0
M  V30 12484 H 1253.58 -6.48657 0.944682 0
M  V30 12485 H 1253.1 -5.95881 -0.684557 0
M  V30 12486 H 1254.77 -6.45972 -0.364586 0
M  V30 12487 N 1254.91 0.036755 -1.57557 0
M  V30 12488 C 1256.32 0.392264 -1.54704 0
M  V30 12489 C 1256.52 1.77076 -0.96157 0
M  V30 12490 O 1255.58 2.45766 -0.579263 0
M  V30 12491 C 1256.89 0.301168 -2.99188 0
M  V30 12492 C 1258.44 0.378813 -3.10699 0
M  V30 12493 C 1258.91 0.317249 -4.569 0
M  V30 12494 N 1260.41 0.376277 -4.61669 0
M  V30 12495 C 1261.14 0.351411 -5.72322 0
M  V30 12496 N 1260.64 0.279288 -6.92237 0
M  V30 12497 N 1262.43 0.400571 -5.60671 0
M  V30 12498 H 1254.58 -0.865455 -1.93968 0
M  V30 12499 H 1256.84 -0.328339 -0.889324 0
M  V30 12500 H 1256.55 -0.64582 -3.4572 0
M  V30 12501 H 1256.42 1.09784 -3.6087 0
M  V30 12502 H 1258.81 1.31623 -2.6412 0
M  V30 12503 H 1258.89 -0.447072 -2.51863 0
M  V30 12504 H 1258.54 -0.616469 -5.04145 0
M  V30 12505 H 1258.47 1.16114 -5.13639 0
M  V30 12506 H 1260.96 0.434843 -3.7539 0
M  V30 12507 H 1261.27 0.265202 -7.72345 0
M  V30 12508 H 1259.61 0.24545 -6.94566 0
M  V30 12509 H 1262.81 0.454854 -4.65885 0
M  V30 12510 H 1262.98 0.377724 -6.46898 0
M  V30 12511 N 1256.39 1.54543 0.308881 0
M  V30 12512 C 1257.3 1.87994 1.4034 0
M  V30 12513 C 1258.31 0.773294 1.55872 0
M  V30 12514 O 1259.49 1.069 1.70688 0
M  V30 12515 C 1256.55 2.11341 2.74838 0
M  V30 12516 C 1255.61 3.35086 2.68358 0
M  V30 12517 C 1254.85 3.5731 3.96441 0
M  V30 12518 O 1255.07 2.82692 4.9542 0
M  V30 12519 O 1254 4.50814 3.98811 0
M  V30 12520 H 1257.83 2.81094 1.14976 0
M  V30 12521 H 1255.41 1.40634 0.504236 0
M  V30 12522 H 1257.3 2.27943 3.54429 0
M  V30 12523 H 1255.97 1.21427 3.00062 0
M  V30 12524 H 1254.88 3.23855 1.87267 0
M  V30 12525 H 1256.21 4.25104 2.48087 0
M  V30 12526 N 1257.86 -0.571685 1.46866 0
M  V30 12527 C 1258.79 -1.68994 1.61131 0
M  V30 12528 C 1259.77 -1.63728 0.461222 0
M  V30 12529 O 1260.96 -1.81574 0.688813 0
M  V30 12530 C 1258.09 -3.07638 1.61172 0
M  V30 12531 C 1257.04 -3.27742 2.75262 0
M  V30 12532 C 1256.37 -4.67025 2.60368 0
M  V30 12533 C 1257.67 -3.14511 4.16989 0
M  V30 12534 H 1259.36 -1.57311 2.54742 0
M  V30 12535 H 1256.91 -0.755382 1.22597 0
M  V30 12536 H 1258.86 -3.857 1.69744 0
M  V30 12537 H 1257.59 -3.20245 0.641122 0
M  V30 12538 H 1256.25 -2.52083 2.66176 0
M  V30 12539 H 1255.89 -4.76413 1.61368 0
M  V30 12540 H 1255.59 -4.81428 3.36899 0
M  V30 12541 H 1257.12 -5.47242 2.70848 0
M  V30 12542 H 1258.53 -3.82407 4.27128 0
M  V30 12543 H 1256.93 -3.40431 4.94193 0
M  V30 12544 H 1258 -2.11443 4.36371 0
M  V30 12545 N 1259.34 -1.34755 -0.817236 0
M  V30 12546 C 1260.59 -1.26771 -1.56882 0
M  V30 12547 C 1260.9 0.158962 -1.94953 0
M  V30 12548 O 1262.11 0.360996 -2.69089 0
M  V30 12549 C 1260.57 -2.22261 -2.83069 0
M  V30 12550 C 1260.17 -3.70216 -2.52277 0
M  V30 12551 C 1261.92 -2.23197 -3.61086 0
M  V30 12552 C 1259.82 -4.57559 -3.74691 0
M  V30 12553 H 1258.75 -0.470961 -0.588822 0
M  V30 12554 H 1261.41 -1.59955 -0.899254 0
M  V30 12555 H 1259.79 -1.82036 -3.5168 0
M  V30 12556 H 1260.96 -4.19014 -1.9174 0
M  V30 12557 H 1259.28 -3.71784 -1.87525 0
M  V30 12558 H 1261.87 -2.85673 -4.5199 0
M  V30 12559 H 1262.22 -1.2328 -3.97628 0
M  V30 12560 H 1262.75 -2.61897 -2.99424 0
M  V30 12561 H 1259.49 -5.58434 -3.43267 0
M  V30 12562 H 1259.01 -4.13494 -4.34491 0
M  V30 12563 H 1260.69 -4.72451 -4.42039 0
M  V30 12564 N 1260.82 1.03812 -1.18578 0
M  V30 12565 C 1261.77 2.11883 -0.915115 0
M  V30 12566 C 1262.74 1.65453 0.146479 0
M  V30 12567 O 1263.92 1.90799 0.00630058 0
M  V30 12568 C 1261.06 3.42157 -0.449755 0
M  V30 12569 C 1260.17 4.02185 -1.57706 0
M  V30 12570 C 1259.31 5.20431 -1.06417 0
M  V30 12571 C 1258.35 5.72496 -2.16599 0
M  V30 12572 N 1257.49 6.82027 -1.66685 0
M  V30 12573 H 1262.33 2.34373 -1.84047 0
M  V30 12574 H 1259.86 1.14962 -0.917728 0
M  V30 12575 H 1261.82 4.16888 -0.161407 0
M  V30 12576 H 1260.45 3.19806 0.438622 0
M  V30 12577 H 1259.5 3.24757 -1.98083 0
M  V30 12578 H 1260.81 4.36851 -2.40754 0
M  V30 12579 H 1259.97 6.02286 -0.730497 0
M  V30 12580 H 1258.71 4.87276 -0.203301 0
M  V30 12581 H 1257.71 4.8926 -2.50808 0
M  V30 12582 H 1258.94 6.07694 -3.03126 0
M  V30 12583 H 1256.88 6.50742 -0.828916 0
M  V30 12584 H 1256.8 7.1577 -2.43329 0
M  V30 12585 H 1258.07 7.67499 -1.36253 0
M  V30 12586 N 1262.3 0.988223 1.22768 0
M  V30 12587 C 1263.26 0.539813 2.22752 0
M  V30 12588 C 1264.26 -0.374796 1.56371 0
M  V30 12589 O 1265.45 -0.167402 1.73394 0
M  V30 12590 C 1262.58 -0.215461 3.40218 0
M  V30 12591 H 1263.78 1.42397 2.63938 0
M  V30 12592 H 1261.33 0.774933 1.35737 0
M  V30 12593 H 1262.06 -1.11581 3.045 0
M  V30 12594 H 1261.85 0.441173 3.8961 0
M  V30 12595 H 1263.34 -0.517517 4.14381 0
M  V30 12596 N 1263.78 -1.38018 0.760839 0
M  V30 12597 C 1265.02 -1.99194 0.316984 0
M  V30 12598 C 1265.34 -1.61083 -1.10958 0
M  V30 12599 O 1266.54 -2.15281 -1.65428 0
M  V30 12600 C 1265 -3.56185 0.515792 0
M  V30 12601 C 1264.61 -4.03242 1.95191 0
M  V30 12602 C 1266.35 -4.24285 0.135013 0
M  V30 12603 C 1264.26 -5.52902 2.0989 0
M  V30 12604 H 1263.19 -0.745214 0.114771 0
M  V30 12605 H 1265.84 -1.5769 0.938415 0
M  V30 12606 H 1264.22 -3.95613 -0.174934 0
M  V30 12607 H 1265.4 -3.75086 2.6767 0
M  V30 12608 H 1263.71 -3.47889 2.28827 0
M  V30 12609 H 1266.31 -5.34233 0.223495 0
M  V30 12610 H 1266.65 -4.06158 -0.913322 0
M  V30 12611 H 1267.18 -3.90121 0.777868 0
M  V30 12612 H 1263.92 -5.75942 3.13003 0
M  V30 12613 H 1263.44 -5.82778 1.41881 0
M  V30 12614 H 1265.12 -6.18709 1.89229 0
M  V30 12615 N 1265.25 -0.510493 -1.49103 0
M  V30 12616 C 1266.5 0.0305831 -2.02077 0
M  V30 12617 C 1266.82 1.36602 -1.39157 0
M  V30 12618 O 1266.09 1.88016 -0.550154 0
M  V30 12619 H 1264.67 0.0142916 -0.746863 0
M  V30 12620 H 1267.33 -0.669895 -1.83026 0
M  V30 12621 H 1266.43 0.153283 -3.11723 0
M  V30 12622 N 1266.73 1.55688 -0.24474 0
M  V30 12623 C 1267.66 2.24272 0.64995 0
M  V30 12624 C 1268.64 1.22226 1.183 0
M  V30 12625 O 1269.83 1.50873 1.22274 0
M  V30 12626 C 1266.96 2.94053 1.84798 0
M  V30 12627 C 1265.91 4.02769 1.44779 0
M  V30 12628 C 1265.24 4.59965 2.72647 0
M  V30 12629 C 1266.54 5.18601 0.62047 0
M  V30 12630 H 1268.23 2.99298 0.0780654 0
M  V30 12631 H 1265.78 1.43955 0.0361069 0
M  V30 12632 H 1267.73 3.40732 2.47951 0
M  V30 12633 H 1266.45 2.16511 2.44521 0
M  V30 12634 H 1265.11 3.56856 0.839609 0
M  V30 12635 H 1264.76 3.79126 3.30564 0
M  V30 12636 H 1264.46 5.33352 2.46596 0
M  V30 12637 H 1265.99 5.09376 3.36703 0
M  V30 12638 H 1267.4 5.61519 1.15625 0
M  V30 12639 H 1265.8 5.98364 0.456097 0
M  V30 12640 H 1266.87 4.83503 -0.367798 0
M  V30 12641 N 1268.21 -0.0283989 1.57574 0
M  V30 12642 C 1269.63 -0.384054 1.5491 0
M  V30 12643 C 1269.83 -1.76564 0.970947 0
M  V30 12644 O 1268.88 -2.45455 0.592288 0
M  V30 12645 C 1270.19 -0.285297 2.99344 0
M  V30 12646 C 1271.74 -0.36233 3.10896 0
M  V30 12647 C 1272.22 -0.293014 4.57062 0
M  V30 12648 N 1273.71 -0.351788 4.61862 0
M  V30 12649 C 1274.44 -0.321054 5.725 0
M  V30 12650 N 1273.94 -0.242573 6.92375 0
M  V30 12651 N 1275.73 -0.370832 5.60875 0
M  V30 12652 H 1267.88 0.87573 1.93506 0
M  V30 12653 H 1270.15 0.33305 0.887571 0
M  V30 12654 H 1269.85 0.664146 3.45372 0
M  V30 12655 H 1269.73 -1.07869 3.61447 0
M  V30 12656 H 1272.11 -1.30221 2.64814 0
M  V30 12657 H 1272.19 0.460422 2.51622 0
M  V30 12658 H 1271.84 0.643197 5.03811 0
M  V30 12659 H 1271.77 -1.13388 5.14248 0
M  V30 12660 H 1274.26 -0.414929 3.75615 0
M  V30 12661 H 1274.57 -0.224239 7.72475 0
M  V30 12662 H 1272.92 -0.208612 6.94687 0
M  V30 12663 H 1276.11 -0.430141 4.6612 0
M  V30 12664 H 1276.28 -0.343412 6.47089 0
M  V30 12665 N 1269.69 -1.54705 -0.300681 0
M  V30 12666 C 1270.62 -1.8205 -1.39249 0
M  V30 12667 C 1271.63 -0.703476 -1.46816 0
M  V30 12668 O 1272.82 -0.980957 -1.49129 0
M  V30 12669 C 1269.92 -1.94376 -2.77617 0
M  V30 12670 C 1269.09 -3.2478 -2.92979 0
M  V30 12671 C 1268.15 -3.27518 -4.11848 0
M  V30 12672 O 1267.18 -4.01047 -4.03918 0
M  V30 12673 N 1268.38 -2.52932 -5.22499 0
M  V30 12674 H 1271.15 -2.76279 -1.16146 0
M  V30 12675 H 1268.71 -1.54283 -0.49075 0
M  V30 12676 H 1270.7 -1.93609 -3.55384 0
M  V30 12677 H 1269.27 -1.07141 -2.93666 0
M  V30 12678 H 1268.49 -3.38319 -2.02322 0
M  V30 12679 H 1269.78 -4.10835 -3.00153 0
M  V30 12680 H 1269.18 -1.92825 -5.31822 0
M  V30 12681 H 1267.73 -2.57919 -5.98599 0
M  V30 12682 N 1271.17 0.563888 -1.47167 0
M  V30 12683 C 1272.11 1.67151 -1.59152 0
M  V30 12684 C 1273.08 1.60307 -0.434852 0
M  V30 12685 O 1274.27 1.7924 -0.654049 0
M  V30 12686 C 1271.41 3.0548 -1.60549 0
M  V30 12687 C 1270.52 3.2281 -2.87085 0
M  V30 12688 C 1269.66 4.51498 -2.79862 0
M  V30 12689 C 1268.7 4.62237 -4.01252 0
M  V30 12690 N 1267.83 5.82273 -3.92305 0
M  V30 12691 H 1272.67 1.56245 -2.53755 0
M  V30 12692 H 1270.21 0.761219 -1.25872 0
M  V30 12693 H 1272.17 3.85572 -1.59343 0
M  V30 12694 H 1270.8 3.15237 -0.69464 0
M  V30 12695 H 1269.85 2.36196 -2.98188 0
M  V30 12696 H 1271.16 3.2661 -3.76997 0
M  V30 12697 H 1270.32 5.39842 -2.76867 0
M  V30 12698 H 1269.05 4.50166 -1.87621 0
M  V30 12699 H 1268.06 3.72307 -4.04558 0
M  V30 12700 H 1269.28 4.65334 -4.94612 0
M  V30 12701 H 1267.23 5.81902 -3.02862 0
M  V30 12702 H 1267.15 5.87422 -4.7589 0
M  V30 12703 H 1268.42 6.72996 -3.93315 0
M  V30 12704 N 1272.64 1.35187 0.810078 0
M  V30 12705 C 1273.89 1.28011 1.56389 0
M  V30 12706 C 1274.21 -0.14622 1.94451 0
M  V30 12707 O 1273.48 -1.08185 1.63318 0
M  V30 12708 H 1272.06 0.470837 0.579932 0
M  V30 12709 H 1274.73 1.69249 0.966476 0
M  V30 12710 H 1273.82 1.89362 2.4809 0
M  V30 12711 N 1274.12 -1.03182 1.19127 0
M  V30 12712 C 1275.37 -1.76794 0.993563 0
M  V30 12713 C 1275.7 -1.88306 -0.474809 0
M  V30 12714 O 1274.98 -1.39769 -1.35258 0
M  V30 12715 C 1275.26 -3.19573 1.65968 0
M  V30 12716 C 1275.11 -3.1595 3.2015 0
M  V30 12717 C 1276.43 -4.17897 1.38023 0
M  V30 12718 H 1273.55 -0.641768 0.362357 0
M  V30 12719 H 1276.19 -1.20472 1.46924 0
M  V30 12720 H 1274.34 -3.67663 1.25524 0
M  V30 12721 H 1276.01 -2.7578 3.69788 0
M  V30 12722 H 1274.26 -2.53743 3.51848 0
M  V30 12723 H 1274.93 -4.16811 3.61901 0
M  V30 12724 H 1277.4 -3.78394 1.73082 0
M  V30 12725 H 1276.28 -5.15997 1.87186 0
M  V30 12726 H 1276.54 -4.41048 0.304812 0
M  V30 12727 N 1275.6 -0.99472 -1.22242 0
M  V30 12728 C 1276.85 -0.672596 -1.91322 0
M  V30 12729 C 1277.18 0.793542 -1.77247 0
M  V30 12730 O 1276.45 1.57407 -1.14251 0
M  V30 12731 C 1276.74 -1.08155 -3.43474 0
M  V30 12732 C 1276.59 -2.60638 -3.6659 0
M  V30 12733 C 1277.91 -0.636161 -4.35478 0
M  V30 12734 H 1275.03 -0.24582 -0.694796 0
M  V30 12735 H 1277.67 -1.23857 -1.44082 0
M  V30 12736 H 1275.82 -0.599987 -3.83839 0
M  V30 12737 H 1277.49 -3.16479 -3.35617 0
M  V30 12738 H 1275.74 -3.02624 -3.10808 0
M  V30 12739 H 1276.41 -2.84304 -4.73155 0
M  V30 12740 H 1278.88 -1.04982 -4.02639 0
M  V30 12741 H 1277.76 -0.950584 -5.40606 0
M  V30 12742 H 1278.02 0.4631 -4.39668 0
M  V30 12743 N 1277.08 1.37613 -0.768148 0
M  V30 12744 C 1278.3 2.04579 -0.340892 0
M  V30 12745 C 1278.73 1.57556 1.02751 0
M  V30 12746 O 1278.09 0.734151 1.65771 0
M  V30 12747 C 1278.13 3.58495 -0.389099 0
M  V30 12748 O 1277.24 4.07838 0.611741 0
M  V30 12749 H 1276.58 0.647246 -0.148216 0
M  V30 12750 H 1279.11 1.75999 -1.04333 0
M  V30 12751 H 1279.12 4.07263 -0.245116 0
M  V30 12752 H 1277.79 3.92076 -1.38742 0
M  V30 12753 H 1276.37 3.70399 0.431173 0
M  V30 12754 N 1278.56 0.518393 1.4883 0
M  V30 12755 C 1279.78 -0.0183131 2.07392 0
M  V30 12756 C 1280.21 -1.28468 1.37396 0
M  V30 12757 O 1279.56 -1.75975 0.436177 0
M  V30 12758 C 1279.61 -0.237211 3.59819 0
M  V30 12759 O 1278.72 -1.30835 3.91096 0
M  V30 12760 H 1278.06 0.0339621 0.663131 0
M  V30 12761 H 1280.59 0.722993 1.914 0
M  V30 12762 H 1280.6 -0.463424 4.0536 0
M  V30 12763 H 1279.27 0.687925 4.10171 0
M  V30 12764 H 1277.85 -1.06571 3.57347 0
M  V30 12765 N 1280.03 -1.55556 0.252993 0
M  V30 12766 C 1281.26 -2.03945 -0.376965 0
M  V30 12767 C 1281.68 -1.13089 -1.50308 0
M  V30 12768 O 1281.04 -0.125039 -1.80868 0
M  V30 12769 C 1281.09 -3.50284 -0.856363 0
M  V30 12770 O 1280.19 -3.62551 -1.96546 0
M  V30 12771 H 1279.54 -0.659002 -0.081317 0
M  V30 12772 H 1282.07 -2.01024 0.380831 0
M  V30 12773 H 1282.08 -3.91222 -1.15798 0
M  V30 12774 H 1280.75 -4.15887 -0.0323302 0
M  V30 12775 H 1279.33 -3.33511 -1.66808 0
M  V30 12776 N 1281.51 0.0200419 -1.57587 0
M  V30 12777 C 1282.44 1.0456 -2.0396 0
M  V30 12778 C 1283.46 1.31922 -0.953962 0
M  V30 12779 O 1284.65 1.2925 -1.23112 0
M  V30 12780 C 1281.75 2.38514 -2.40758 0
M  V30 12781 C 1280.92 2.3038 -3.71812 0
M  V30 12782 C 1279.98 3.46856 -3.95698 0
M  V30 12783 O 1279 3.25944 -4.66636 0
M  V30 12784 N 1280.21 4.69033 -3.42036 0
M  V30 12785 H 1282.97 0.650282 -2.9256 0
M  V30 12786 H 1280.53 0.207818 -1.60561 0
M  V30 12787 H 1282.52 3.15172 -2.53868 0
M  V30 12788 H 1281.09 2.69859 -1.57781 0
M  V30 12789 H 1280.31 1.38762 -3.6897 0
M  V30 12790 H 1281.6 2.22097 -4.57767 0
M  V30 12791 H 1281 4.88923 -2.84553 0
M  V30 12792 H 1279.56 5.43025 -3.6051 0
M  V30 12793 N 1282.99 1.54862 0.292472 0
M  V30 12794 C 1284.41 1.46267 0.638611 0
M  V30 12795 C 1284.61 0.660824 1.90356 0
M  V30 12796 O 1283.66 0.171909 2.51914 0
M  V30 12797 C 1284.98 2.90309 0.783675 0
M  V30 12798 C 1286.52 3.00404 0.879004 0
M  V30 12799 C 1287 4.4566 1.056 0
M  V30 12800 N 1288.49 4.49406 1.122 0
M  V30 12801 C 1289.22 5.5899 1.2774 0
M  V30 12802 N 1288.72 6.78482 1.40123 0
M  V30 12803 N 1290.51 5.46695 1.30696 0
M  V30 12804 H 1282.66 2.0546 -0.538521 0
M  V30 12805 H 1284.93 0.930879 -0.179354 0
M  V30 12806 H 1284.63 3.5162 -0.0750437 0
M  V30 12807 H 1284.51 3.38215 1.67004 0
M  V30 12808 H 1286.89 2.39201 1.7282 0
M  V30 12809 H 1286.98 2.55781 -0.0315624 0
M  V30 12810 H 1286.62 5.07459 0.211535 0
M  V30 12811 H 1286.55 4.87921 1.98092 0
M  V30 12812 H 1289.04 3.63322 1.03948 0
M  V30 12813 H 1289.35 7.57752 1.5176 0
M  V30 12814 H 1287.7 6.81331 1.37163 0
M  V30 12815 H 1290.89 4.52288 1.20638 0
M  V30 12816 H 1291.06 6.32146 1.42463 0
M  V30 12817 N 1284.47 -0.556076 1.47464 0
M  V30 12818 C 1285.72 -1.3132 1.54147 0
M  V30 12819 C 1286.04 -1.93425 0.204221 0
M  V30 12820 O 1285.3 -1.78467 -0.803002 0
M  V30 12821 C 1285.6 -2.44298 2.6087 0
M  V30 12822 C 1285.26 -2.00016 4.04109 0
M  V30 12823 C 1283.93 -1.87656 4.43101 0
M  V30 12824 C 1286.28 -1.66228 4.93981 0
M  V30 12825 C 1283.61 -1.39805 5.698 0
M  V30 12826 C 1285.96 -1.19848 6.21144 0
M  V30 12827 C 1284.62 -1.06084 6.59016 0
M  V30 12828 H 1283.89 -0.480534 0.564064 0
M  V30 12829 H 1286.54 -0.623449 1.81067 0
M  V30 12830 H 1284.84 -3.18834 2.27711 0
M  V30 12831 H 1286.54 -3.02479 2.63263 0
M  V30 12832 H 1283.13 -2.1058 3.73302 0
M  V30 12833 H 1287.31 -1.7465 4.64555 0
M  V30 12834 H 1282.57 -1.27814 5.97891 0
M  V30 12835 H 1286.74 -0.927657 6.90194 0
M  V30 12836 H 1284.37 -0.687834 7.57082 0
M  V30 12837 N 1285.95 -1.35615 -0.802897 0
M  V30 12838 C 1287.18 -1.32025 -1.58911 0
M  V30 12839 C 1287.59 0.103539 -1.88916 0
M  V30 12840 O 1286.93 1.06699 -1.49536 0
M  V30 12841 C 1286.99 -2.06313 -2.94406 0
M  V30 12842 C 1286.65 -3.5548 -2.87198 0
M  V30 12843 C 1287.65 -4.5 -2.60377 0
M  V30 12844 C 1285.34 -3.9818 -3.06199 0
M  V30 12845 C 1287.33 -5.85194 -2.5264 0
M  V30 12846 C 1285.02 -5.33469 -2.98084 0
M  V30 12847 C 1286.02 -6.26788 -2.71341 0
M  V30 12848 O 1285.7 -7.59594 -2.63195 0
M  V30 12849 H 1285.44 -0.454943 -0.500003 0
M  V30 12850 H 1287.99 -1.79106 -1.00549 0
M  V30 12851 H 1286.22 -1.53875 -3.54766 0
M  V30 12852 H 1287.91 -1.95755 -3.55577 0
M  V30 12853 H 1288.67 -4.18327 -2.45413 0
M  V30 12854 H 1284.55 -3.25927 -3.26025 0
M  V30 12855 H 1288.1 -6.58003 -2.31686 0
M  V30 12856 H 1283.99 -5.64754 -3.12607 0
M  V30 12857 H 1284.76 -7.69562 -2.78776 0
M  V30 12858 N 1287.43 1.02549 -1.19673 0
M  V30 12859 C 1288.36 2.10991 -0.8953 0
M  V30 12860 C 1289.37 1.62405 0.113373 0
M  V30 12861 O 1290.56 1.7812 -0.116485 0
M  V30 12862 C 1287.66 3.37394 -0.319124 0
M  V30 12863 C 1286.83 4.15154 -1.37718 0
M  V30 12864 C 1285.89 5.19867 -0.81393 0
M  V30 12865 O 1284.92 5.49285 -1.49246 0
M  V30 12866 N 1286.12 5.79248 0.381089 0
M  V30 12867 H 1288.88 2.37438 -1.82875 0
M  V30 12868 H 1286.45 1.18867 -1.09919 0
M  V30 12869 H 1288.44 4.04637 0.0716106 0
M  V30 12870 H 1287.01 3.08267 0.518681 0
M  V30 12871 H 1286.23 3.4301 -1.94262 0
M  V30 12872 H 1287.52 4.63892 -2.09003 0
M  V30 12873 H 1286.91 5.5767 0.949791 0
M  V30 12874 H 1285.47 6.47882 0.713563 0
M  V30 12875 N 1288.9 1.00119 1.21713 0
M  V30 12876 C 1289.83 0.578504 2.2622 0
M  V30 12877 C 1290.81 -0.398777 1.6536 0
M  V30 12878 O 1292 -0.287596 1.92059 0
M  V30 12879 C 1289.13 -0.0994508 3.47158 0
M  V30 12880 C 1288.08 0.79722 4.2051 0
M  V30 12881 C 1287.41 -0.0141125 5.34698 0
M  V30 12882 C 1288.71 2.09802 4.7831 0
M  V30 12883 H 1290.4 1.45208 2.6183 0
M  V30 12884 H 1287.95 0.699656 1.2586 0
M  V30 12885 H 1289.9 -0.406605 4.19434 0
M  V30 12886 H 1288.63 -1.00763 3.10667 0
M  V30 12887 H 1287.29 1.08814 3.50079 0
M  V30 12888 H 1286.93 -0.923468 4.9445 0
M  V30 12889 H 1286.63 0.582883 5.84702 0
M  V30 12890 H 1288.16 -0.31517 6.09786 0
M  V30 12891 H 1289.57 1.85427 5.42485 0
M  V30 12892 H 1287.97 2.64455 5.38687 0
M  V30 12893 H 1289.04 2.77132 3.97902 0
M  V30 12894 N 1290.38 -1.37203 0.775435 0
M  V30 12895 C 1291.61 -2.03868 0.352927 0
M  V30 12896 C 1292.02 -1.58482 -1.0261 0
M  V30 12897 O 1291.38 -0.767772 -1.65564 0
M  V30 12898 C 1291.43 -3.59378 0.39116 0
M  V30 12899 O 1291.15 -4.03103 1.71579 0
M  V30 12900 C 1292.65 -4.4328 -0.0424808 0
M  V30 12901 H 1289.87 -0.654619 0.14736 0
M  V30 12902 H 1292.42 -1.75463 1.05039 0
M  V30 12903 H 1290.57 -3.86542 -0.257752 0
M  V30 12904 H 1290.99 -4.9764 1.65695 0
M  V30 12905 H 1292.46 -5.51989 0.0354215 0
M  V30 12906 H 1292.94 -4.25374 -1.09333 0
M  V30 12907 H 1293.54 -4.21349 0.578384 0
M  V30 12908 N 1291.86 -0.526279 -1.48553 0
M  V30 12909 C 1292.81 0.238513 -2.29564 0
M  V30 12910 C 1293.78 0.937222 -1.37133 0
M  V30 12911 O 1294.96 0.93897 -1.66096 0
M  V30 12912 C 1292.1 1.28173 -3.20415 0
M  V30 12913 C 1291.21 0.592244 -4.27921 0
M  V30 12914 C 1290.35 1.61808 -5.05956 0
M  V30 12915 C 1289.39 0.911846 -6.0527 0
M  V30 12916 N 1288.53 1.88305 -6.76377 0
M  V30 12917 H 1293.37 -0.458502 -2.94452 0
M  V30 12918 H 1290.9 -0.237948 -1.45163 0
M  V30 12919 H 1292.86 1.89883 -3.71484 0
M  V30 12920 H 1291.49 1.94718 -2.57458 0
M  V30 12921 H 1290.54 -0.138714 -3.80147 0
M  V30 12922 H 1291.85 0.0375427 -4.98786 0
M  V30 12923 H 1291.01 2.30956 -5.61021 0
M  V30 12924 H 1289.75 2.20667 -4.34922 0
M  V30 12925 H 1288.75 0.206273 -5.49413 0
M  V30 12926 H 1289.98 0.329415 -6.78301 0
M  V30 12927 H 1287.92 2.46079 -6.08096 0
M  V30 12928 H 1287.84 1.37969 -7.43304 0
M  V30 12929 H 1289.11 2.56663 -7.36033 0
M  V30 12930 N 1293.34 1.5542 -0.261239 0
M  V30 12931 C 1294.27 2.24949 0.626126 0
M  V30 12932 C 1295.25 1.23474 1.16997 0
M  V30 12933 O 1296.43 1.52161 1.20667 0
M  V30 12934 C 1293.56 2.95996 1.81669 0
M  V30 12935 C 1292.52 4.04282 1.40499 0
M  V30 12936 C 1291.84 4.62831 2.67753 0
M  V30 12937 C 1293.14 5.1923 0.56543 0
M  V30 12938 H 1294.84 2.99364 0.0463164 0
M  V30 12939 H 1292.38 1.43985 0.0208366 0
M  V30 12940 H 1294.34 3.43343 2.44323 0
M  V30 12941 H 1293.06 2.19093 2.42211 0
M  V30 12942 H 1291.72 3.57726 0.801712 0
M  V30 12943 H 1291.37 3.82611 3.26524 0
M  V30 12944 H 1291.07 5.35938 2.40925 0
M  V30 12945 H 1292.59 5.12918 3.31281 0
M  V30 12946 H 1294.01 5.62714 1.09663 0
M  V30 12947 H 1292.4 5.98814 0.392607 0
M  V30 12948 H 1293.47 4.83086 -0.419059 0
M  V30 12949 N 1294.82 -0.0116844 1.57596 0
M  V30 12950 C 1295.75 -1.00599 2.10718 0
M  V30 12951 C 1296.73 -1.36601 1.01362 0
M  V30 12952 O 1297.91 -1.4518 1.28982 0
M  V30 12953 C 1295.04 -2.30155 2.60089 0
M  V30 12954 C 1294 -2.08347 3.73866 0
M  V30 12955 C 1293.32 -3.43814 4.09507 0
M  V30 12956 C 1294.62 -1.45552 5.01609 0
M  V30 12957 H 1296.32 -0.563721 2.94045 0
M  V30 12958 H 1293.86 -0.269714 1.41452 0
M  V30 12959 H 1295.81 -3.00058 2.95877 0
M  V30 12960 H 1294.54 -2.76473 1.73868 0
M  V30 12961 H 1293.2 -1.40872 3.38453 0
M  V30 12962 H 1292.85 -3.87814 3.20326 0
M  V30 12963 H 1292.55 -3.30043 4.86154 0
M  V30 12964 H 1294.07 -4.15052 4.47844 0
M  V30 12965 H 1295.48 -2.05396 5.35243 0
M  V30 12966 H 1293.88 -1.42304 5.82983 0
M  V30 12967 H 1294.95 -0.423331 4.83049 0
M  V30 12968 N 1296.29 -1.55015 -0.284256 0
M  V30 12969 C 1297.57 -1.6579 -1.03794 0
M  V30 12970 C 1297.95 -0.517029 -2.04671 0
M  V30 12971 O 1297.3 0.484287 -2.23309 0
M  V30 12972 C 1297.51 -3.04527 -1.70483 0
M  V30 12973 C 1298.86 -3.61903 -2.22062 0
M  V30 12974 O 1299.88 -3.07087 -1.80488 0
M  V30 12975 O 1298.74 -4.57917 -2.98286 0
M  V30 12976 H 1295.83 -0.672906 -0.480757 0
M  V30 12977 H 1298.38 -1.67357 -0.281009 0
M  V30 12978 H 1297.15 -3.79004 -0.973238 0
M  V30 12979 H 1296.77 -3.0681 -2.5289 0
M  V30 12980 N 1297.77 0.548248 -1.47757 0
M  V30 12981 C 1298.72 1.67553 -1.61335 0
M  V30 12982 C 1299.71 1.62447 -0.480335 0
M  V30 12983 O 1300.92 1.67525 -0.658445 0
M  V30 12984 H 1297.29 0.55457 -0.507894 0
M  V30 12985 H 1299.27 1.53239 -2.56047 0
M  V30 12986 C 1298.01 3.05883 -1.6532 0
M  V30 12987 H 1297.34 3.10497 -2.51856 0
M  V30 12988 H 1298.78 3.84424 -1.78868 0
M  V30 12989 C 1297.24 3.34656 -0.388238 0
M  V30 12990 O 1297.77 3.9849 0.506816 0
M  V30 12991 N 1295.97 2.89384 -0.265514 0
M  V30 12992 H 1295.52 2.37615 -0.994819 0
M  V30 12993 H 1295.48 3.09006 0.579889 0
M  V30 12994 N 1299.25 1.36039 0.795694 0
M  V30 12995 C 1300.18 1.32528 1.92246 0
M  V30 12996 C 1301.16 0.197805 1.68946 0
M  V30 12997 O 1302.35 0.394474 1.90151 0
M  V30 12998 C 1299.48 1.10748 3.29169 0
M  V30 12999 C 1298.43 2.20253 3.66978 0
M  V30 13000 C 1297.76 1.83624 5.02181 0
M  V30 13001 C 1299.06 3.62296 3.76216 0
M  V30 13002 H 1300.75 2.2681 1.95442 0
M  V30 13003 H 1298.3 1.09181 0.938908 0
M  V30 13004 H 1300.25 1.06929 4.07608 0
M  V30 13005 H 1298.97 0.129141 3.26345 0
M  V30 13006 H 1297.63 2.23187 2.90832 0
M  V30 13007 H 1297.28 0.843804 4.95872 0
M  V30 13008 H 1296.98 2.56935 5.28449 0
M  V30 13009 H 1298.5 1.81349 5.83048 0
M  V30 13010 H 1299.92 3.61623 4.44861 0
M  V30 13011 H 1298.31 4.34459 4.13963 0
M  V30 13012 H 1299.38 3.97657 2.77483 0
M  V30 13013 N 1300.73 -1.01913 1.20215 0
M  V30 13014 C 1301.68 -2.08774 0.916367 0
M  V30 13015 C 1302.66 -1.60431 -0.122796 0
M  V30 13016 O 1303.85 -1.76799 0.0842336 0
M  V30 13017 C 1300.98 -3.40102 0.467517 0
M  V30 13018 C 1300.07 -3.95153 1.53997 0
M  V30 13019 N 1300.46 -4.23745 2.76178 0
M  V30 13020 C 1298.76 -4.23274 1.40554 0
M  V30 13021 C 1299.46 -4.681 3.45336 0
M  V30 13022 N 1298.44 -4.70224 2.72745 0
M  V30 13023 H 1302.24 -2.28786 1.84484 0
M  V30 13024 H 1299.75 -1.19861 1.09577 0
M  V30 13025 H 1301.75 -4.16184 0.244195 0
M  V30 13026 H 1300.41 -3.21505 -0.454358 0
M  V30 13027 H 1301.42 -4.12728 3.12852 0
M  V30 13028 H 1298.1 -4.1389 0.547877 0
M  V30 13029 H 1299.49 -4.99063 4.49873 0
M  V30 13030 N 1302.21 -1.00763 -1.2118 0
M  V30 13031 C 1303.48 -0.607236 -1.85935 0
M  V30 13032 C 1303.86 0.915048 -1.90237 0
M  V30 13033 O 1303.21 1.80308 -1.40361 0
M  V30 13034 C 1303.42 -1.24466 -3.26051 0
M  V30 13035 C 1304.77 -1.35443 -4.02418 0
M  V30 13036 O 1305.79 -1.20018 -3.35372 0
M  V30 13037 O 1304.65 -1.60282 -5.22467 0
M  V30 13038 H 1301.75 -0.208338 -0.800328 0
M  V30 13039 H 1304.29 -1.10444 -1.28842 0
M  V30 13040 H 1303.06 -2.28524 -3.17635 0
M  V30 13041 H 1302.69 -0.733966 -3.90767 0
M  V30 13042 N 1303.68 1.3679 -0.7827 0
M  V30 13043 C 1304.61 2.32721 -0.190604 0
M  V30 13044 C 1305.6 1.56321 0.670663 0
M  V30 13045 O 1306.78 1.84507 0.605871 0
M  V30 13046 C 1303.91 3.40564 0.680717 0
M  V30 13047 C 1302.86 4.27925 -0.080118 0
M  V30 13048 C 1302.19 5.26876 0.911361 0
M  V30 13049 C 1303.49 5.06738 -1.26545 0
M  V30 13050 H 1305.18 2.82488 -0.992023 0
M  V30 13051 H 1302.73 1.35818 -0.478484 0
M  V30 13052 H 1304.68 4.06659 1.10482 0
M  V30 13053 H 1303.41 2.89348 1.51477 0
M  V30 13054 H 1302.07 3.63376 -0.485125 0
M  V30 13055 H 1301.71 4.71936 1.74026 0
M  V30 13056 H 1301.41 5.8619 0.406762 0
M  V30 13057 H 1302.94 5.95846 1.33418 0
M  V30 13058 H 1304.35 5.65911 -0.917448 0
M  V30 13059 H 1302.75 5.75432 -1.70289 0
M  V30 13060 H 1303.82 4.38772 -2.06415 0
M  V30 13061 N 1305.16 0.53415 1.48272 0
M  V30 13062 C 1306.41 0.00157492 2.028 0
M  V30 13063 C 1306.74 -1.33538 1.41001 0
M  V30 13064 O 1306.02 -1.86347 0.557245 0
M  V30 13065 C 1306.3 -0.116016 3.59913 0
M  V30 13066 C 1306.15 1.2464 4.32186 0
M  V30 13067 C 1307.47 -0.840775 4.31994 0
M  V30 13068 H 1304.59 0.00204634 0.736997 0
M  V30 13069 H 1307.23 0.691985 1.76951 0
M  V30 13070 H 1305.38 -0.704027 3.82068 0
M  V30 13071 H 1307.05 1.87584 4.21438 0
M  V30 13072 H 1305.3 1.8272 3.93441 0
M  V30 13073 H 1305.97 1.11708 5.40579 0
M  V30 13074 H 1308.44 -0.341746 4.14694 0
M  V30 13075 H 1307.32 -0.89196 5.41604 0
M  V30 13076 H 1307.58 -1.89197 3.99571 0
M  V30 13077 N 1306.64 -1.55279 0.269478 0
M  V30 13078 C 1307.59 -2.22304 -0.620435 0
M  V30 13079 C 1308.56 -1.19457 -1.15409 0
M  V30 13080 O 1309.74 -1.4798 -1.20443 0
M  V30 13081 C 1306.88 -2.94356 -1.80134 0
M  V30 13082 C 1306 -4.1191 -1.30207 0
M  V30 13083 C 1305.13 -4.71621 -2.44433 0
M  V30 13084 C 1304.17 -5.81379 -1.91481 0
M  V30 13085 N 1303.31 -6.35176 -2.99158 0
M  V30 13086 H 1308.15 -2.9797 -0.0422165 0
M  V30 13087 H 1305.68 -1.47097 -0.00907173 0
M  V30 13088 H 1307.64 -3.34343 -2.4954 0
M  V30 13089 H 1306.27 -2.21124 -2.35168 0
M  V30 13090 H 1305.32 -3.77082 -0.501301 0
M  V30 13091 H 1306.64 -4.9108 -0.874183 0
M  V30 13092 H 1305.79 -5.14298 -3.21842 0
M  V30 13093 H 1304.53 -3.91715 -2.90535 0
M  V30 13094 H 1303.53 -5.38157 -1.12549 0
M  V30 13095 H 1304.76 -6.63149 -1.46322 0
M  V30 13096 H 1302.7 -5.58167 -3.44652 0
M  V30 13097 H 1302.62 -7.09602 -2.60769 0
M  V30 13098 H 1303.89 -6.82512 -3.7656 0
M  V30 13099 N 1308.12 0.00332656 -1.576 0
M  V30 13100 C 1309.05 1.02391 -2.05058 0
M  V30 13101 C 1310.06 1.30903 -0.967901 0
M  V30 13102 O 1311.25 1.27937 -1.24476 0
M  V30 13103 C 1308.35 2.35947 -2.43274 0
M  V30 13104 C 1307.53 2.26423 -3.74234 0
M  V30 13105 C 1306.58 3.4264 -3.99355 0
M  V30 13106 O 1305.61 3.20977 -4.70067 0
M  V30 13107 N 1306.81 4.65379 -3.46991 0
M  V30 13108 H 1309.58 0.619216 -2.93233 0
M  V30 13109 H 1307.14 0.190777 -1.60772 0
M  V30 13110 H 1309.13 3.12462 -2.57196 0
M  V30 13111 H 1307.7 2.6817 -1.60635 0
M  V30 13112 H 1306.92 1.34841 -3.70421 0
M  V30 13113 H 1308.21 2.17229 -4.60097 0
M  V30 13114 H 1307.61 4.85878 -2.89723 0
M  V30 13115 H 1306.16 5.39171 -3.66249 0
M  V30 13116 N 1309.6 1.55164 0.276031 0
M  V30 13117 C 1310.53 1.90844 1.34539 0
M  V30 13118 C 1311.51 0.769968 1.51676 0
M  V30 13119 O 1312.69 1.02785 1.64769 0
M  V30 13120 C 1309.82 2.17769 2.70543 0
M  V30 13121 C 1308.78 3.33592 2.68142 0
M  V30 13122 C 1308.1 3.45991 4.07669 0
M  V30 13123 C 1309.4 4.70064 2.27678 0
M  V30 13124 H 1311.1 2.80412 1.04926 0
M  V30 13125 H 1308.64 1.34918 0.503303 0
M  V30 13126 H 1310.6 2.41317 3.45462 0
M  V30 13127 H 1309.32 1.24997 3.01734 0
M  V30 13128 H 1307.98 3.10007 1.95681 0
M  V30 13129 H 1307.63 2.50691 4.36077 0
M  V30 13130 H 1307.33 4.23862 4.06958 0
M  V30 13131 H 1308.85 3.71828 4.84331 0
M  V30 13132 H 1310.26 4.93176 2.92319 0
M  V30 13133 H 1308.66 5.50829 2.38134 0
M  V30 13134 H 1309.73 4.69091 1.22808 0
M  V30 13135 N 1311.07 -0.540404 1.48045 0
M  V30 13136 C 1312.02 -1.64191 1.58194 0
M  V30 13137 C 1313.01 -1.54775 0.439703 0
M  V30 13138 O 1314.2 -1.62973 0.690572 0
M  V30 13139 C 1311.33 -3.02937 1.61505 0
M  V30 13140 C 1310.42 -3.17495 2.81172 0
M  V30 13141 N 1310.81 -3.02061 4.05701 0
M  V30 13142 C 1309.1 -3.4853 2.78286 0
M  V30 13143 C 1309.81 -3.19757 4.85932 0
M  V30 13144 N 1308.78 -3.46859 4.18557 0
M  V30 13145 H 1312.58 -1.50852 2.52232 0
M  V30 13146 H 1310.1 -0.745602 1.44272 0
M  V30 13147 H 1312.09 -3.82048 1.66868 0
M  V30 13148 H 1310.75 -3.17376 0.685753 0
M  V30 13149 H 1311.77 -2.79038 4.363 0
M  V30 13150 H 1308.44 -3.69391 1.94567 0
M  V30 13151 H 1309.83 -3.1265 5.94727 0
M  V30 13152 N 1312.55 -1.36459 -0.788468 0
M  V30 13153 C 1313.48 -1.33545 -1.91541 0
M  V30 13154 C 1314.46 -0.206762 -1.68839 0
M  V30 13155 O 1315.65 -0.404553 -1.89939 0
M  V30 13156 C 1312.78 -1.12492 -3.28577 0
M  V30 13157 C 1311.73 -2.22196 -3.65805 0
M  V30 13158 C 1311.06 -1.86285 -5.01201 0
M  V30 13159 C 1312.36 -3.64286 -3.7429 0
M  V30 13160 H 1314.05 -2.27844 -1.94236 0
M  V30 13161 H 1311.6 -1.09677 -0.933105 0
M  V30 13162 H 1313.55 -1.09089 -4.07035 0
M  V30 13163 H 1312.28 -0.146446 -3.26272 0
M  V30 13164 H 1310.93 -2.24727 -2.89644 0
M  V30 13165 H 1310.58 -0.87009 -4.95417 0
M  V30 13166 H 1310.28 -2.59734 -5.27079 0
M  V30 13167 H 1311.81 -1.84439 -5.82078 0
M  V30 13168 H 1313.22 -3.63977 -4.42937 0
M  V30 13169 H 1311.62 -4.36648 -4.11653 0
M  V30 13170 H 1312.69 -3.99123 -2.75371 0
M  V30 13171 N 1314.03 1.01274 -1.20754 0
M  V30 13172 C 1315.26 1.78265 -1.04427 0
M  V30 13173 C 1315.67 1.84718 0.409361 0
M  V30 13174 O 1315.01 1.30195 1.29595 0
M  V30 13175 C 1315.07 3.24037 -1.55693 0
M  V30 13176 C 1314.74 3.41181 -3.04047 0
M  V30 13177 C 1315.73 3.30087 -4.0167 0
M  V30 13178 C 1313.42 3.66872 -3.43089 0
M  V30 13179 C 1315.41 3.44436 -5.36323 0
M  V30 13180 C 1313.1 3.80865 -4.77896 0
M  V30 13181 C 1314.1 3.69652 -5.74322 0
M  V30 13182 O 1313.79 3.83211 -7.06686 0
M  V30 13183 H 1313.52 0.567327 -0.367582 0
M  V30 13184 H 1316.07 1.28336 -1.60372 0
M  V30 13185 H 1314.3 3.75067 -0.941382 0
M  V30 13186 H 1315.99 3.82676 -1.35328 0
M  V30 13187 H 1316.76 3.10172 -3.72852 0
M  V30 13188 H 1312.64 3.74685 -2.68574 0
M  V30 13189 H 1316.18 3.35601 -6.1157 0
M  V30 13190 H 1312.08 4.00282 -5.06403 0
M  V30 13191 H 1312.85 4.00205 -7.13987 0
M  V30 13192 N 1315.51 1.01404 1.20644 0
M  V30 13193 C 1316.75 0.710412 1.91657 0
M  V30 13194 C 1317.11 -0.745972 1.76916 0
M  V30 13195 O 1318.31 -1.162 2.42386 0
M  V30 13196 C 1316.59 1.13093 3.39035 0
M  V30 13197 S 1318.14 0.948885 4.28418 0
M  V30 13198 H 1314.96 0.259074 0.662119 0
M  V30 13199 H 1317.56 1.30077 1.45946 0
M  V30 13200 H 1316.27 2.18682 3.47284 0
M  V30 13201 H 1315.8 0.533248 3.89769 0
M  V30 13202 H 1317.81 -0.149 4.95976 0
M  V30 13203 N 1316.99 -1.36373 0.789944 0
M  V30 13204 C 1317.92 -2.32616 0.202944 0
M  V30 13205 C 1318.9 -1.56674 -0.662364 0
M  V30 13206 O 1320.08 -1.84826 -0.596078 0
M  V30 13207 C 1317.21 -3.4092 -0.662646 0
M  V30 13208 C 1316.17 -4.27877 0.102811 0
M  V30 13209 C 1315.49 -5.27352 -0.883407 0
M  V30 13210 C 1316.79 -5.0606 1.29231 0
M  V30 13211 H 1318.49 -2.81958 1.00699 0
M  V30 13212 H 1316.03 -1.35562 0.48568 0
M  V30 13213 H 1317.99 -4.07239 -1.08324 0
M  V30 13214 H 1316.71 -2.90147 -1.4994 0
M  V30 13215 H 1315.37 -3.63114 0.504389 0
M  V30 13216 H 1315.02 -4.72853 -1.71521 0
M  V30 13217 H 1314.72 -5.86398 -0.375669 0
M  V30 13218 H 1316.24 -5.96545 -1.30256 0
M  V30 13219 H 1317.66 -5.65417 0.947446 0
M  V30 13220 H 1316.05 -5.74521 1.73338 0
M  V30 13221 H 1317.12 -4.37671 2.08739 0
M  V30 13222 N 1318.47 -0.542005 -1.47987 0
M  V30 13223 C 1319.41 0.227398 -2.31486 0
M  V30 13224 C 1320.41 0.923984 -1.41982 0
M  V30 13225 O 1321.61 0.847 -1.58827 0
M  V30 13226 H 1317.99 0.0922034 -0.746326 0
M  V30 13227 H 1319.96 -0.49625 -2.94245 0
M  V30 13228 C 1318.71 1.25384 -3.24306 0
M  V30 13229 H 1318.03 0.727243 -3.9313 0
M  V30 13230 H 1319.47 1.76337 -3.85592 0
M  V30 13231 C 1317.93 2.29378 -2.46754 0
M  V30 13232 O 1318.46 3.36034 -2.201 0
M  V30 13233 N 1316.67 2.02905 -2.08033 0
M  V30 13234 H 1316.21 1.16186 -2.2991 0
M  V30 13235 H 1316.17 2.72705 -1.56458 0
M  V30 13236 N 1319.94 1.55134 -0.277709 0
M  V30 13237 C 1321.17 2.04061 0.341601 0
M  V30 13238 C 1321.59 1.15597 1.49274 0
M  V30 13239 O 1320.94 0.176625 1.81643 0
M  V30 13240 C 1320.99 3.52074 0.820139 0
M  V30 13241 O 1320.72 4.37171 -0.28516 0
M  V30 13242 C 1322.22 4.16899 1.507 0
M  V30 13243 H 1319.44 0.666501 0.0775708 0
M  V30 13244 H 1321.98 2.00336 -0.410559 0
M  V30 13245 H 1320.14 3.56233 1.52238 0
M  V30 13246 H 1320.55 5.24434 0.0832022 0
M  V30 13247 H 1322.02 5.22061 1.79323 0
M  V30 13248 H 1322.5 3.65227 2.43939 0
M  V30 13249 H 1323.11 4.16749 0.848541 0
M  V30 13250 N 1321.42 0.00503138 1.57599 0
M  V30 13251 C 1322.67 -0.678761 1.90785 0
M  V30 13252 C 1323 -1.73499 0.87911 0
M  V30 13253 O 1322.25 -1.95359 -0.115418 0
M  V30 13254 C 1322.55 -1.35485 3.30724 0
M  V30 13255 C 1322.22 -0.431335 4.48832 0
M  V30 13256 C 1320.88 -0.177078 4.80874 0
M  V30 13257 C 1323.23 0.204219 5.208 0
M  V30 13258 C 1320.56 0.720944 5.82254 0
M  V30 13259 C 1322.91 1.09015 6.23136 0
M  V30 13260 C 1321.57 1.35353 6.53633 0
M  V30 13261 H 1320.84 -0.248376 0.698133 0
M  V30 13262 H 1323.49 0.061638 1.91401 0
M  V30 13263 H 1321.8 -2.16942 3.26257 0
M  V30 13264 H 1323.49 -1.89007 3.53663 0
M  V30 13265 H 1320.08 -0.639676 4.238 0
M  V30 13266 H 1324.27 0.0208074 4.96296 0
M  V30 13267 H 1319.52 0.93296 6.0424 0
M  V30 13268 H 1323.7 1.58894 6.78031 0
M  V30 13269 H 1321.32 2.05107 7.32008 0
M  V30 13270 N 1322.9 -1.55308 -0.267798 0
M  V30 13271 C 1324.15 -1.75364 -0.996515 0
M  V30 13272 C 1324.46 -0.565028 -1.87261 0
M  V30 13273 O 1325.67 -0.648119 -2.63651 0
M  V30 13274 C 1324.12 -3.10388 -1.82175 0
M  V30 13275 C 1323.73 -4.36832 -0.994062 0
M  V30 13276 C 1325.48 -3.39791 -2.54445 0
M  V30 13277 C 1323.38 -5.62893 -1.81398 0
M  V30 13278 H 1322.31 -0.653679 -0.375793 0
M  V30 13279 H 1324.96 -1.81762 -0.251975 0
M  V30 13280 H 1323.35 -2.98041 -2.60744 0
M  V30 13281 H 1324.52 -4.6011 -0.252167 0
M  V30 13282 H 1322.83 -4.1461 -0.385662 0
M  V30 13283 H 1325.43 -4.31184 -3.16203 0
M  V30 13284 H 1325.77 -2.60159 -3.24997 0
M  V30 13285 H 1326.31 -3.53259 -1.82902 0
M  V30 13286 H 1323.05 -6.45287 -1.15258 0
M  V30 13287 H 1322.57 -5.43751 -2.5317 0
M  V30 13288 H 1324.25 -6.01384 -2.38634 0
M  V30 13289 N 1324.38 0.532545 -1.4833 0
M  V30 13290 C 1325.31 1.65325 -1.58746 0
M  V30 13291 C 1326.32 1.5581 -0.471925 0
M  V30 13292 O 1327.51 1.62317 -0.742656 0
M  V30 13293 C 1324.61 3.03957 -1.49877 0
M  V30 13294 C 1323.78 3.38979 -2.76427 0
M  V30 13295 C 1322.84 4.56881 -2.61048 0
M  V30 13296 O 1321.87 4.6023 -3.34928 0
M  V30 13297 N 1323.07 5.54898 -1.70496 0
M  V30 13298 H 1325.84 1.56827 -2.55393 0
M  V30 13299 H 1323.4 0.71976 -1.45021 0
M  V30 13300 H 1325.39 3.80702 -1.37288 0
M  V30 13301 H 1323.96 3.06548 -0.612158 0
M  V30 13302 H 1323.18 2.51438 -3.03599 0
M  V30 13303 H 1324.47 3.59163 -3.60388 0
M  V30 13304 H 1323.87 5.54968 -1.0967 0
M  V30 13305 H 1322.42 6.3087 -1.63847 0
M  V30 13306 N 1325.86 1.36875 0.78122 0
M  V30 13307 C 1327.08 1.349 1.57533 0
M  V30 13308 C 1327.51 -0.0655249 1.87986 0
M  V30 13309 O 1326.86 -1.03986 1.48515 0
M  V30 13310 C 1326.91 2.18562 2.86815 0
M  V30 13311 O 1326.02 1.58374 3.80777 0
M  V30 13312 H 1325.36 0.461355 0.477543 0
M  V30 13313 H 1327.89 1.80271 0.96766 0
M  V30 13314 H 1327.9 2.31436 3.36008 0
M  V30 13315 H 1326.57 3.21385 2.63978 0
M  V30 13316 H 1325.15 1.54487 3.39394 0
M  V30 13317 N 1327.33 -1.00632 1.21289 0
M  V30 13318 C 1328.75 -1.26744 0.969956 0
M  V30 13319 C 1328.95 -1.98534 -0.344449 0
M  V30 13320 O 1328.01 -2.28687 -1.07044 0
M  V30 13321 C 1329.32 -2.09238 2.15963 0
M  V30 13322 C 1330.87 -2.22469 2.20174 0
M  V30 13323 C 1331.34 -3.08344 3.38656 0
M  V30 13324 N 1332.83 -3.15932 3.38734 0
M  V30 13325 C 1333.57 -3.82632 4.2706 0
M  V30 13326 N 1333.06 -4.51371 5.25582 0
M  V30 13327 N 1334.86 -3.79259 4.14872 0
M  V30 13328 H 1327.01 -0.524626 2.05819 0
M  V30 13329 H 1329.27 -0.294231 0.901184 0
M  V30 13330 H 1328.98 -1.63835 3.11209 0
M  V30 13331 H 1328.85 -3.09987 2.14914 0
M  V30 13332 H 1331.24 -2.67091 1.25485 0
M  V30 13333 H 1331.32 -1.21194 2.25268 0
M  V30 13334 H 1330.96 -2.64425 4.33638 0
M  V30 13335 H 1330.89 -4.0973 3.30801 0
M  V30 13336 H 1333.38 -2.66998 2.67434 0
M  V30 13337 H 1333.7 -4.99966 5.89283 0
M  V30 13338 H 1332.04 -4.50162 5.29508 0
M  V30 13339 H 1335.23 -3.2471 3.37166 0
M  V30 13340 H 1335.41 -4.30963 4.83916 0
M  V30 13341 N 1328.81 -1.02043 -1.20104 0
M  V30 13342 C 1329.77 -0.598682 -2.21243 0
M  V30 13343 C 1330.77 0.333205 -1.5731 0
M  V30 13344 O 1331.96 0.12137 -1.73777 0
M  V30 13345 C 1329.1 0.125183 -3.4067 0
M  V30 13346 H 1330.29 -1.49345 -2.60069 0
M  V30 13347 H 1327.84 -0.810649 -1.33634 0
M  V30 13348 H 1328.58 1.03469 -3.07351 0
M  V30 13349 H 1328.36 -0.544316 -3.88304 0
M  V30 13350 H 1329.85 0.407469 -4.15607 0
M  V30 13351 N 1330.29 1.35952 -0.797165 0
M  V30 13352 C 1331.22 2.32506 -0.215277 0
M  V30 13353 C 1332.2 1.57023 0.654046 0
M  V30 13354 O 1333.39 1.85139 0.586268 0
M  V30 13355 C 1330.52 3.41266 0.644557 0
M  V30 13356 C 1329.47 4.27816 -0.125501 0
M  V30 13357 C 1328.8 5.27813 0.855428 0
M  V30 13358 C 1330.1 5.05367 -1.31913 0
M  V30 13359 H 1331.79 2.8142 -1.02193 0
M  V30 13360 H 1329.34 1.35303 -0.492862 0
M  V30 13361 H 1331.29 4.07808 1.06163 0
M  V30 13362 H 1330.01 2.90938 1.484 0
M  V30 13363 H 1328.67 3.62841 -0.523639 0
M  V30 13364 H 1328.32 4.73755 1.69011 0
M  V30 13365 H 1328.02 5.86589 0.344566 0
M  V30 13366 H 1329.54 5.97227 1.2709 0
M  V30 13367 H 1330.96 5.64907 -0.977418 0
M  V30 13368 H 1329.36 5.73593 -1.76382 0
M  V30 13369 H 1330.43 4.36558 -2.11057 0
M  V30 13370 N 1331.77 0.549846 1.47697 0
M  V30 13371 C 1332.99 0.0256819 2.07384 0
M  V30 13372 C 1333.42 -1.25525 1.4009 0
M  V30 13373 O 1332.78 -1.7501 0.473406 0
M  V30 13374 C 1332.82 -0.160835 3.60241 0
M  V30 13375 O 1331.93 -1.22509 3.93783 0
M  V30 13376 H 1331.27 0.0480204 0.662261 0
M  V30 13377 H 1333.8 0.763429 1.89823 0
M  V30 13378 H 1333.81 -0.377337 4.06251 0
M  V30 13379 H 1332.48 0.774774 4.0862 0
M  V30 13380 H 1331.06 -0.98967 3.59527 0
M  V30 13381 N 1333.25 -1.54984 0.285932 0
M  V30 13382 C 1334.49 -2.00126 -0.328223 0
M  V30 13383 C 1334.83 -1.17409 -1.54689 0
M  V30 13384 O 1334.1 -0.246806 -1.92928 0
M  V30 13385 C 1334.38 -3.53236 -0.699733 0
M  V30 13386 C 1334.24 -4.46702 0.527029 0
M  V30 13387 C 1335.56 -4.12572 -1.53206 0
M  V30 13388 H 1332.67 -0.727521 -0.117825 0
M  V30 13389 H 1335.32 -1.85848 0.395032 0
M  V30 13390 H 1333.47 -3.65534 -1.31594 0
M  V30 13391 H 1335.14 -4.46332 1.16557 0
M  V30 13392 H 1333.38 -4.17917 1.1631 0
M  V30 13393 H 1334.05 -5.51549 0.223165 0
M  V30 13394 H 1336.53 -4.03618 -1.01154 0
M  V30 13395 H 1335.4 -5.19891 -1.7608 0
M  V30 13396 H 1335.67 -3.63487 -2.51654 0
M  V30 13397 N 1334.72 -0.0133892 -1.57594 0
M  V30 13398 C 1335.63 0.989701 -2.12702 0
M  V30 13399 C 1336.65 1.36785 -1.07545 0
M  V30 13400 O 1337.83 1.45246 -1.39519 0
M  V30 13401 C 1334.89 2.2586 -2.63036 0
M  V30 13402 C 1333.95 1.94234 -3.82847 0
M  V30 13403 C 1333.19 3.15075 -4.30771 0
M  V30 13404 O 1333.41 4.27212 -3.7795 0
M  V30 13405 O 1332.34 2.98291 -5.22787 0
M  V30 13406 H 1336.17 0.551194 -2.98656 0
M  V30 13407 H 1333.75 0.206264 -1.47969 0
M  V30 13408 H 1335.64 3.0038 -2.9555 0
M  V30 13409 H 1334.31 2.68923 -1.80173 0
M  V30 13410 H 1333.22 1.17148 -3.55285 0
M  V30 13411 H 1334.55 1.55999 -4.66824 0
M  V30 13412 N 1336.2 1.55448 0.259558 0
M  V30 13413 C 1337.45 1.76686 0.98935 0
M  V30 13414 C 1337.78 0.575434 1.85793 0
M  V30 13415 O 1337.03 -0.441676 1.90651 0
M  V30 13416 C 1337.33 3.03292 1.89073 0
M  V30 13417 C 1337 4.35225 1.17855 0
M  V30 13418 C 1335.66 4.7108 0.981675 0
M  V30 13419 C 1338.01 5.16839 0.6728 0
M  V30 13420 C 1335.34 5.86094 0.266551 0
M  V30 13421 C 1337.69 6.32593 -0.0287965 0
M  V30 13422 C 1336.36 6.67078 -0.23726 0
M  V30 13423 H 1335.63 0.646542 0.362029 0
M  V30 13424 H 1338.27 1.8972 0.260488 0
M  V30 13425 H 1336.58 2.85217 2.68624 0
M  V30 13426 H 1338.27 3.16923 2.45685 0
M  V30 13427 H 1334.86 4.07051 1.34192 0
M  V30 13428 H 1339.05 4.89604 0.812481 0
M  V30 13429 H 1334.3 6.11327 0.0944447 0
M  V30 13430 H 1338.48 6.95081 -0.428378 0
M  V30 13431 H 1336.11 7.56049 -0.793358 0
M  V30 13432 N 1337.68 -0.524672 1.4861 0
M  V30 13433 C 1339.09 -1.10655 1.50374 0
M  V30 13434 C 1339.44 -1.94242 0.276512 0
M  V30 13435 O 1338.57 -2.07451 -0.615887 0
M  V30 13436 C 1339.16 -2.01348 2.72478 0
M  V30 13437 C 1337.72 -2.54743 2.77097 0
M  V30 13438 C 1336.87 -1.31822 2.43964 0
M  V30 13439 H 1339.82 -0.309674 1.55649 0
M  V30 13440 H 1339.84 -2.85709 2.51297 0
M  V30 13441 H 1339.35 -1.40485 3.61781 0
M  V30 13442 H 1337.45 -3.19313 1.92016 0
M  V30 13443 H 1337.57 -2.93514 3.78664 0
M  V30 13444 H 1335.93 -1.63574 1.95233 0
M  V30 13445 H 1336.71 -0.727026 3.35513 0
M  V30 13446 N 1339.16 -1.37287 -0.77395 0
M  V30 13447 C 1340.07 -1.35059 -1.91823 0
M  V30 13448 C 1341.08 -0.250489 -1.72188 0
M  V30 13449 O 1342.26 -0.485501 -1.95461 0
M  V30 13450 C 1339.33 -1.15444 -3.26915 0
M  V30 13451 C 1338.39 -2.35073 -3.5922 0
M  V30 13452 C 1337.62 -2.16384 -4.87867 0
M  V30 13453 O 1337.84 -1.14696 -5.58749 0
M  V30 13454 O 1336.78 -3.0452 -5.19183 0
M  V30 13455 H 1340.6 -2.31432 -1.96654 0
M  V30 13456 H 1338.19 -1.17994 -0.916392 0
M  V30 13457 H 1340.07 -1.06484 -4.07724 0
M  V30 13458 H 1338.74 -0.221435 -3.22942 0
M  V30 13459 H 1337.65 -2.49604 -2.78655 0
M  V30 13460 H 1338.98 -3.26933 -3.67934 0
M  V30 13461 N 1340.64 0.999871 -1.21821 0
M  V30 13462 C 1341.57 2.08597 -0.925334 0
M  V30 13463 C 1342.55 1.62087 0.129103 0
M  V30 13464 O 1343.73 1.885 -0.000975316 0
M  V30 13465 C 1340.86 3.36443 -0.390388 0
M  V30 13466 C 1339.9 4.01869 -1.42842 0
M  V30 13467 S 1340.74 4.43618 -2.99938 0
M  V30 13468 C 1341.89 5.74644 -2.48064 0
M  V30 13469 H 1342.13 2.33119 -1.84507 0
M  V30 13470 H 1339.66 1.13339 -1.04851 0
M  V30 13471 H 1341.62 4.10405 -0.0883221 0
M  V30 13472 H 1340.28 3.09963 0.508115 0
M  V30 13473 H 1339.47 4.93902 -1.00385 0
M  V30 13474 H 1339.07 3.34202 -1.67883 0
M  V30 13475 H 1341.37 6.50642 -1.88869 0
M  V30 13476 H 1342.31 6.21919 -3.3856 0
M  V30 13477 H 1342.72 5.31709 -1.89593 0
M  V30 13478 N 1342.11 1.02678 1.19562 0
M  V30 13479 C 1343.05 0.550355 2.21464 0
M  V30 13480 C 1344.03 -0.407674 1.57406 0
M  V30 13481 O 1345.21 -0.325272 1.85672 0
M  V30 13482 C 1342.34 -0.197777 3.38122 0
M  V30 13483 C 1341.38 0.711362 4.20526 0
M  V30 13484 S 1342.22 2.18636 4.88834 0
M  V30 13485 C 1343.37 1.44868 6.08904 0
M  V30 13486 H 1343.6 1.41377 2.61534 0
M  V30 13487 H 1341.14 0.836535 1.29775 0
M  V30 13488 H 1343.1 -0.62329 4.0574 0
M  V30 13489 H 1341.76 -1.03689 2.96492 0
M  V30 13490 H 1340.95 0.133916 5.03822 0
M  V30 13491 H 1340.55 1.0751 3.58214 0
M  V30 13492 H 1342.84 0.734143 6.73511 0
M  V30 13493 H 1343.79 2.25816 6.71128 0
M  V30 13494 H 1344.19 0.947098 5.56498 0
M  V30 13495 N 1343.59 -1.35528 0.804364 0
M  V30 13496 C 1344.82 -2.03604 0.395013 0
M  V30 13497 C 1345.24 -1.60225 -0.985371 0
M  V30 13498 O 1344.6 -0.777844 -1.63766 0
M  V30 13499 C 1344.65 -3.57337 0.484011 0
M  V30 13500 O 1343.75 -4.09316 -0.503395 0
M  V30 13501 H 1343.09 -0.643089 0.165325 0
M  V30 13502 H 1345.62 -1.73171 1.08963 0
M  V30 13503 H 1345.63 -4.0647 0.353009 0
M  V30 13504 H 1344.31 -3.8826 1.49088 0
M  V30 13505 H 1342.89 -3.71412 -0.332817 0
M  V30 13506 N 1345.07 -0.557671 -1.47404 0
M  V30 13507 C 1345.98 0.19289 -2.33806 0
M  V30 13508 C 1347 0.911424 -1.4822 0
M  V30 13509 O 1348.17 0.880214 -1.81147 0
M  V30 13510 C 1345.24 1.20937 -3.24923 0
M  V30 13511 C 1344.3 0.498209 -4.26399 0
M  V30 13512 C 1343.53 1.46626 -5.13163 0
M  V30 13513 O 1343.76 2.70111 -5.0239 0
M  V30 13514 O 1342.69 0.990497 -5.93694 0
M  V30 13515 H 1346.52 -0.515861 -2.99287 0
M  V30 13516 H 1344.1 -0.318283 -1.4597 0
M  V30 13517 H 1345.98 1.7961 -3.81206 0
M  V30 13518 H 1344.66 1.90003 -2.6207 0
M  V30 13519 H 1343.56 -0.129736 -3.73875 0
M  V30 13520 H 1344.9 -0.151015 -4.91968 0
M  V30 13521 N 1346.55 1.54831 -0.294147 0
M  V30 13522 C 1347.8 2.00298 0.317605 0
M  V30 13523 C 1348.13 1.18228 1.54064 0
M  V30 13524 O 1347.4 0.257034 1.92794 0
M  V30 13525 C 1347.69 3.53602 0.680991 0
M  V30 13526 C 1347.54 4.46416 -0.550711 0
M  V30 13527 C 1348.86 4.13379 1.51016 0
M  V30 13528 H 1345.98 0.728135 0.113965 0
M  V30 13529 H 1348.62 1.85636 -0.404883 0
M  V30 13530 H 1346.77 3.66227 1.29654 0
M  V30 13531 H 1348.44 4.45707 -1.18922 0
M  V30 13532 H 1346.68 4.17294 -1.18524 0
M  V30 13533 H 1347.36 5.51423 -0.252412 0
M  V30 13534 H 1349.83 4.04148 0.99012 0
M  V30 13535 H 1348.71 5.20818 1.73321 0
M  V30 13536 H 1348.97 3.64817 2.49722 0
M  V30 13537 N 1348.03 0.0217466 1.57585 0
M  V30 13538 C 1349.28 -0.657793 1.90672 0
M  V30 13539 C 1349.59 -1.73713 0.899066 0
M  V30 13540 O 1350.8 -2.4728 1.12092 0
M  V30 13541 C 1349.25 -1.22124 3.38547 0
M  V30 13542 C 1348.86 -0.175575 4.47656 0
M  V30 13543 C 1350.6 -1.87771 3.80713 0
M  V30 13544 C 1348.51 -0.750239 5.86622 0
M  V30 13545 H 1347.44 -0.249459 0.711538 0
M  V30 13546 H 1350.09 0.0858449 1.83299 0
M  V30 13547 H 1348.47 -2.01625 3.40828 0
M  V30 13548 H 1349.65 0.596436 4.56924 0
M  V30 13549 H 1347.96 0.381715 4.14647 0
M  V30 13550 H 1350.56 -2.3171 4.81887 0
M  V30 13551 H 1350.9 -2.71737 3.1538 0
M  V30 13552 H 1351.44 -1.14971 3.80823 0
M  V30 13553 H 1348.17 0.0511222 6.5548 0
M  V30 13554 H 1347.69 -1.49091 5.80975 0
M  V30 13555 H 1349.37 -1.24225 6.34962 0
M  V30 13556 N 1349.51 -1.55583 -0.251311 0
M  V30 13557 C 1350.47 -1.89148 -1.29443 0
M  V30 13558 C 1351.47 -0.7676 -1.41296 0
M  V30 13559 O 1352.66 -1.03563 -1.40073 0
M  V30 13560 C 1349.79 -2.11601 -2.67279 0
M  V30 13561 H 1350.98 -2.82416 -1.00901 0
M  V30 13562 H 1348.54 -1.48407 -0.490398 0
M  V30 13563 H 1349.27 -1.20787 -3.00967 0
M  V30 13564 H 1349.06 -2.93449 -2.60058 0
M  V30 13565 H 1350.55 -2.38768 -3.42607 0
M  V30 13566 N 1350.98 0.516783 -1.48886 0
M  V30 13567 C 1351.95 1.60226 -1.63891 0
M  V30 13568 C 1352.95 1.52448 -0.511479 0
M  V30 13569 O 1354.14 1.55882 -0.777582 0
M  V30 13570 C 1351.27 2.99867 -1.62151 0
M  V30 13571 H 1352.46 1.48256 -2.60692 0
M  V30 13572 H 1350.01 0.739844 -1.37681 0
M  V30 13573 H 1350.75 3.1733 -0.668764 0
M  V30 13574 H 1350.53 3.0692 -2.44013 0
M  V30 13575 H 1352.02 3.7876 -1.7587 0
M  V30 13576 N 1352.46 1.37696 0.766659 0
M  V30 13577 C 1353.39 1.2975 1.88938 0
M  V30 13578 C 1354.41 0.212278 1.6141 0
M  V30 13579 O 1355.6 0.468825 1.72233 0
M  V30 13580 C 1352.7 0.984553 3.24283 0
M  V30 13581 C 1351.87 2.17625 3.79418 0
M  V30 13582 C 1350.93 1.83279 4.9325 0
M  V30 13583 O 1349.95 2.55631 5.08568 0
M  V30 13584 N 1351.16 0.779941 5.75237 0
M  V30 13585 H 1353.92 2.26492 1.96269 0
M  V30 13586 H 1351.48 1.31387 0.946001 0
M  V30 13587 H 1353.47 0.735536 3.9796 0
M  V30 13588 H 1352.04 0.105527 3.12422 0
M  V30 13589 H 1351.26 2.58672 2.9746 0
M  V30 13590 H 1352.55 2.97187 4.12986 0
M  V30 13591 H 1351.95 0.179661 5.65415 0
M  V30 13592 H 1350.51 0.59079 6.49117 0
M  V30 13593 N 1353.94 -0.993397 1.22349 0
M  V30 13594 C 1354.87 -2.10171 1.01737 0
M  V30 13595 C 1355.85 -1.69989 -0.0615276 0
M  V30 13596 O 1357.04 -1.93939 0.100591 0
M  V30 13597 C 1354.17 -3.42186 0.593801 0
M  V30 13598 C 1353.12 -3.96215 1.61858 0
M  V30 13599 C 1352.45 -5.24272 1.05086 0
M  V30 13600 C 1353.75 -4.26956 3.00842 0
M  V30 13601 H 1355.44 -2.27673 1.94436 0
M  V30 13602 H 1352.99 -1.09408 0.936258 0
M  V30 13603 H 1354.94 -4.19131 0.436715 0
M  V30 13604 H 1353.66 -3.2451 -0.368855 0
M  V30 13605 H 1352.32 -3.21401 1.76343 0
M  V30 13606 H 1351.97 -5.02937 0.0795747 0
M  V30 13607 H 1351.67 -5.61387 1.73547 0
M  V30 13608 H 1353.19 -6.03851 0.905349 0
M  V30 13609 H 1354.61 -4.94699 2.89734 0
M  V30 13610 H 1353 -4.75242 3.66422 0
M  V30 13611 H 1354.07 -3.34752 3.50812 0
M  V30 13612 N 1355.42 -1.03311 -1.19015 0
M  V30 13613 C 1356.83 -0.761079 -1.70483 0
M  V30 13614 C 1357.18 0.718851 -1.82557 0
M  V30 13615 O 1356.3 1.56006 -1.4997 0
M  V30 13616 C 1356.9 -1.37492 -3.09647 0
M  V30 13617 C 1355.46 -1.15138 -3.58358 0
M  V30 13618 C 1354.61 -1.47034 -2.35109 0
M  V30 13619 H 1357.56 -1.2005 -1.03797 0
M  V30 13620 H 1357.58 -0.774115 -3.72542 0
M  V30 13621 H 1357.09 -2.45203 -3.00828 0
M  V30 13622 H 1355.19 -0.0926822 -3.72485 0
M  V30 13623 H 1355.3 -1.84307 -4.4223 0
M  V30 13624 H 1353.67 -0.889794 -2.38652 0
M  V30 13625 H 1354.45 -2.55837 -2.28916 0
M  V30 13626 N 1356.9 1.35099 -0.81154 0
M  V30 13627 C 1357.84 2.29717 -0.223372 0
M  V30 13628 C 1358.81 1.53049 0.645396 0
M  V30 13629 O 1360 1.81467 0.589436 0
M  V30 13630 C 1357.14 3.3952 0.618057 0
M  V30 13631 C 1356.25 4.31145 -0.271693 0
M  V30 13632 C 1355.39 5.28044 0.578214 0
M  V30 13633 C 1354.42 6.11306 -0.311628 0
M  V30 13634 N 1353.56 7.00328 0.498539 0
M  V30 13635 H 1358.4 2.79426 -1.03563 0
M  V30 13636 H 1355.94 1.37518 -0.522231 0
M  V30 13637 H 1357.9 4.01854 1.12111 0
M  V30 13638 H 1356.53 2.91075 1.39554 0
M  V30 13639 H 1355.58 3.69773 -0.892885 0
M  V30 13640 H 1356.89 4.89545 -0.956392 0
M  V30 13641 H 1356.04 5.95774 1.1462 0
M  V30 13642 H 1354.78 4.70152 1.29646 0
M  V30 13643 H 1353.79 5.42518 -0.891849 0
M  V30 13644 H 1355.01 6.71277 -1.02781 0
M  V30 13645 H 1352.96 6.44919 1.20067 0
M  V30 13646 H 1352.88 7.55892 -0.12801 0
M  V30 13647 H 1354.14 7.72401 1.04965 0
M  V30 13648 N 1358.37 0.56548 1.47106 0
M  V30 13649 C 1359.62 0.042333 2.01656 0
M  V30 13650 C 1359.94 -1.31892 1.44443 0
M  V30 13651 O 1361.14 -1.93245 1.90706 0
M  V30 13652 C 1359.6 0.0251556 3.59891 0
M  V30 13653 C 1359.21 1.38367 4.26097 0
M  V30 13654 C 1360.95 -0.44495 4.22162 0
M  V30 13655 C 1358.86 1.32516 5.76362 0
M  V30 13656 H 1357.79 0.0120557 0.753904 0
M  V30 13657 H 1360.44 0.714565 1.69015 0
M  V30 13658 H 1358.82 -0.712893 3.8953 0
M  V30 13659 H 1359.99 2.14009 4.08089 0
M  V30 13660 H 1358.31 1.79239 3.75849 0
M  V30 13661 H 1360.91 -0.507256 5.32288 0
M  V30 13662 H 1361.25 -1.45876 3.89905 0
M  V30 13663 H 1361.78 0.238496 3.97084 0
M  V30 13664 H 1358.52 2.31523 6.13252 0
M  V30 13665 H 1358.04 0.610674 5.96683 0
M  V30 13666 H 1359.72 1.03072 6.38737 0
M  V30 13667 N 1359.85 -1.54672 0.302354 0
M  V30 13668 C 1360.78 -2.2653 -0.566265 0
M  V30 13669 C 1361.76 -1.26532 -1.13682 0
M  V30 13670 O 1362.95 -1.55307 -1.1659 0
M  V30 13671 C 1360.08 -3.00709 -1.73757 0
M  V30 13672 C 1359.03 -4.07865 -1.29731 0
M  V30 13673 C 1358.36 -4.69767 -2.55388 0
M  V30 13674 C 1359.66 -5.20547 -0.427567 0
M  V30 13675 H 1361.35 -2.99382 0.033071 0
M  V30 13676 H 1358.9 -1.4399 0.0173458 0
M  V30 13677 H 1360.85 -3.497 -2.35134 0
M  V30 13678 H 1359.58 -2.25437 -2.36317 0
M  V30 13679 H 1358.23 -3.59726 -0.706586 0
M  V30 13680 H 1357.88 -3.91134 -3.16265 0
M  V30 13681 H 1357.58 -5.42137 -2.26631 0
M  V30 13682 H 1359.11 -5.21521 -3.17566 0
M  V30 13683 H 1360.52 -5.65424 -0.947053 0
M  V30 13684 H 1358.92 -5.99645 -0.233704 0
M  V30 13685 H 1359.99 -4.81805 0.546993 0
M  V30 13686 N 1361.33 -0.0301034 -1.57571 0
M  V30 13687 C 1362.29 0.936465 -2.09196 0
M  V30 13688 C 1363.29 1.25347 -1.00722 0
M  V30 13689 O 1364.48 1.19364 -1.26877 0
M  V30 13690 C 1361.62 2.2527 -2.55864 0
M  V30 13691 H 1362.81 0.489332 -2.95881 0
M  V30 13692 H 1360.36 0.217948 -1.54773 0
M  V30 13693 H 1361.1 2.7461 -1.72511 0
M  V30 13694 H 1360.88 2.03573 -3.35113 0
M  V30 13695 H 1362.37 2.94549 -2.96025 0
M  V30 13696 N 1362.81 1.55714 0.243056 0
M  V30 13697 C 1364.06 1.77375 0.968638 0
M  V30 13698 C 1364.38 0.594781 1.85708 0
M  V30 13699 O 1363.65 -0.38928 1.91993 0
M  V30 13700 H 1362.23 0.654174 0.360646 0
M  V30 13701 H 1364.89 1.93157 0.260079 0
M  V30 13702 H 1363.99 2.68674 1.5881 0
M  V30 13703 N 1364.29 -0.50888 1.49158 0
M  V30 13704 C 1365.22 -1.62869 1.5984 0
M  V30 13705 C 1366.2 -1.56312 0.447809 0
M  V30 13706 O 1367.38 -1.76482 0.662292 0
M  V30 13707 C 1364.51 -3.01356 1.54603 0
M  V30 13708 C 1363.55 -3.26202 2.74763 0
M  V30 13709 S 1364.39 -3.10178 4.3652 0
M  V30 13710 C 1365.54 -4.51075 4.33915 0
M  V30 13711 H 1365.78 -1.53562 2.5457 0
M  V30 13712 H 1363.31 -0.693448 1.37952 0
M  V30 13713 H 1365.27 -3.81215 1.52267 0
M  V30 13714 H 1363.93 -3.08085 0.611737 0
M  V30 13715 H 1363.12 -4.27281 2.67296 0
M  V30 13716 H 1362.72 -2.54052 2.7447 0
M  V30 13717 H 1365.02 -5.4301 4.05149 0
M  V30 13718 H 1365.96 -4.63593 5.35245 0
M  V30 13719 H 1366.37 -4.31385 3.64097 0
M  V30 13720 N 1365.76 -1.381 -0.759346 0
M  V30 13721 C 1367.01 -1.3419 -1.52055 0
M  V30 13722 C 1367.34 0.0697657 -1.94075 0
M  V30 13723 O 1366.62 1.02975 -1.65004 0
M  V30 13724 C 1366.9 -2.29236 -2.7771 0
M  V30 13725 C 1366.75 -3.79237 -2.41866 0
M  V30 13726 C 1368.07 -2.22511 -3.79706 0
M  V30 13727 H 1365.19 -0.488768 -0.551611 0
M  V30 13728 H 1367.83 -1.68902 -0.870174 0
M  V30 13729 H 1365.98 -1.99764 -3.33206 0
M  V30 13730 H 1367.66 -4.19358 -1.92189 0
M  V30 13731 H 1365.9 -3.97199 -1.74399 0
M  V30 13732 H 1366.57 -4.41193 -3.31742 0
M  V30 13733 H 1369.05 -2.48516 -3.33735 0
M  V30 13734 H 1367.92 -2.91134 -4.6533 0
M  V30 13735 H 1368.18 -1.22206 -4.24874 0
M  V30 13736 N 1367.24 0.986894 -1.22875 0
M  V30 13737 C 1368.19 2.07811 -1.00416 0
M  V30 13738 C 1369.16 1.65925 0.0761734 0
M  V30 13739 O 1370.34 1.90654 -0.0746294 0
M  V30 13740 C 1367.48 3.39941 -0.594471 0
M  V30 13741 C 1366.6 3.95134 -1.74622 0
M  V30 13742 C 1365.73 5.1545 -1.28394 0
M  V30 13743 C 1364.77 5.62794 -2.40686 0
M  V30 13744 N 1363.91 6.74343 -1.95462 0
M  V30 13745 H 1368.75 2.26356 -1.93822 0
M  V30 13746 H 1366.29 1.10966 -0.965661 0
M  V30 13747 H 1368.24 4.15828 -0.338078 0
M  V30 13748 H 1366.87 3.21379 0.302587 0
M  V30 13749 H 1365.93 3.16064 -2.11679 0
M  V30 13750 H 1367.24 4.26247 -2.59066 0
M  V30 13751 H 1366.39 5.98646 -0.98529 0
M  V30 13752 H 1365.13 4.85975 -0.409789 0
M  V30 13753 H 1364.14 4.78182 -2.71333 0
M  V30 13754 H 1365.36 5.9429 -3.28627 0
M  V30 13755 H 1363.31 6.46641 -1.10417 0
M  V30 13756 H 1363.22 7.04806 -2.73469 0
M  V30 13757 H 1364.49 7.6103 -1.68683 0
M  V30 13758 N 1368.72 1.0394 1.18466 0
M  V30 13759 C 1370.13 0.77011 1.70077 0
M  V30 13760 C 1370.48 -0.70916 1.82935 0
M  V30 13761 O 1369.61 -1.55209 1.50795 0
M  V30 13762 C 1370.2 1.39132 3.08914 0
M  V30 13763 C 1368.76 1.17037 3.57742 0
M  V30 13764 C 1367.91 1.48279 2.34326 0
M  V30 13765 H 1370.86 1.20598 1.03159 0
M  V30 13766 H 1370.88 0.793861 3.72126 0
M  V30 13767 H 1370.39 2.46795 2.99523 0
M  V30 13768 H 1368.49 0.112435 3.7243 0
M  V30 13769 H 1368.61 1.8665 4.41247 0
M  V30 13770 H 1366.97 0.902438 2.38177 0
M  V30 13771 H 1367.75 2.57047 2.27556 0
M  V30 13772 N 1370.2 -1.34667 0.818693 0
M  V30 13773 C 1371.13 -2.32134 0.252239 0
M  V30 13774 C 1372.11 -1.58044 -0.628982 0
M  V30 13775 O 1373.29 -1.86049 -0.55674 0
M  V30 13776 C 1370.42 -3.42249 -0.590183 0
M  V30 13777 C 1369.38 -4.27562 0.193547 0
M  V30 13778 C 1368.7 -5.29107 -0.771349 0
M  V30 13779 C 1370 -5.03205 1.39936 0
M  V30 13780 H 1371.7 -2.79758 1.06657 0
M  V30 13781 H 1369.24 -1.34502 0.514325 0
M  V30 13782 H 1371.2 -4.09445 -0.996616 0
M  V30 13783 H 1369.92 -2.93262 -1.43752 0
M  V30 13784 H 1368.58 -3.61962 0.581297 0
M  V30 13785 H 1368.23 -4.76384 -1.61453 0
M  V30 13786 H 1367.93 -5.87063 -0.251201 0
M  V30 13787 H 1369.45 -5.99174 -1.17573 0
M  V30 13788 H 1370.87 -5.6328 1.06717 0
M  V30 13789 H 1369.26 -5.70715 1.85485 0
M  V30 13790 H 1370.33 -4.33145 2.17976 0
M  V30 13791 N 1371.68 -0.573274 -1.46804 0
M  V30 13792 C 1372.61 0.153316 -2.32996 0
M  V30 13793 C 1373.59 0.893013 -1.44773 0
M  V30 13794 O 1374.77 0.870329 -1.73606 0
M  V30 13795 C 1371.9 1.1736 -3.2687 0
M  V30 13796 C 1370.86 0.549347 -4.2446 0
M  V30 13797 C 1370.18 1.67542 -5.07773 0
M  V30 13798 C 1371.48 -0.50736 -5.1983 0
M  V30 13799 H 1373.18 -0.566305 -2.93995 0
M  V30 13800 H 1370.72 -0.273785 -1.41373 0
M  V30 13801 H 1372.68 1.6902 -3.86019 0
M  V30 13802 H 1371.4 1.92337 -2.63958 0
M  V30 13803 H 1370.06 0.0539142 -3.6656 0
M  V30 13804 H 1369.71 2.41463 -4.41253 0
M  V30 13805 H 1369.41 1.26343 -5.73856 0
M  V30 13806 H 1370.93 2.19496 -5.69784 0
M  V30 13807 H 1372.34 -0.0762061 -5.73249 0
M  V30 13808 H 1370.74 -0.839139 -5.94204 0
M  V30 13809 H 1371.81 -1.39723 -4.64333 0
M  V30 13810 N 1373.15 1.5451 -0.310553 0
M  V30 13811 C 1374.4 2.00326 0.295904 0
M  V30 13812 C 1374.73 1.19887 1.53158 0
M  V30 13813 O 1373.98 0.265615 1.93889 0
M  V30 13814 C 1374.28 3.5072 0.68779 0
M  V30 13815 C 1373.95 4.48677 -0.447229 0
M  V30 13816 C 1372.61 4.7518 -0.758796 0
M  V30 13817 C 1374.96 5.06953 -1.21028 0
M  V30 13818 C 1372.29 5.5722 -1.83637 0
M  V30 13819 C 1374.64 5.90167 -2.27784 0
M  V30 13820 C 1373.31 6.14977 -2.59537 0
M  V30 13821 H 1372.58 0.733046 0.108279 0
M  V30 13822 H 1375.22 1.86572 -0.431633 0
M  V30 13823 H 1373.53 3.62133 1.49556 0
M  V30 13824 H 1375.23 3.83602 1.16836 0
M  V30 13825 H 1371.82 4.28159 -0.1943 0
M  V30 13826 H 1376 4.86471 -0.98283 0
M  V30 13827 H 1371.26 5.74678 -2.08699 0
M  V30 13828 H 1375.43 6.34347 -2.87362 0
M  V30 13829 H 1373.06 6.78338 -3.43165 0
M  V30 13830 N 1374.63 0.0384594 1.57553 0
M  V30 13831 C 1375.58 -0.949625 2.07283 0
M  V30 13832 C 1376.57 -1.27973 0.975284 0
M  V30 13833 O 1377.76 -1.26428 1.23875 0
M  V30 13834 C 1374.89 -2.22887 2.61106 0
M  V30 13835 C 1373.97 -1.92672 3.77807 0
M  V30 13836 N 1374.37 -1.32764 4.88065 0
M  V30 13837 C 1372.66 -2.22612 3.86471 0
M  V30 13838 C 1373.36 -1.19892 5.69211 0
M  V30 13839 N 1372.34 -1.69757 5.16414 0
M  V30 13840 H 1376.14 -0.481562 2.89928 0
M  V30 13841 H 1373.66 -0.166321 1.61546 0
M  V30 13842 H 1375.65 -2.94556 2.9503 0
M  V30 13843 H 1374.31 -2.70311 1.79895 0
M  V30 13844 H 1375.32 -1.00146 5.08125 0
M  V30 13845 H 1372 -2.72645 3.16182 0
M  V30 13846 H 1373.39 -0.734892 6.67869 0
M  V30 13847 N 1376.11 -1.55841 -0.234795 0
M  V30 13848 C 1377.06 -1.91326 -1.29086 0
M  V30 13849 C 1378.03 -0.768868 -1.47233 0
M  V30 13850 O 1379.21 -1.0236 -1.61019 0
M  V30 13851 C 1376.35 -2.22388 -2.6389 0
M  V30 13852 C 1375.47 -3.49693 -2.5365 0
M  V30 13853 C 1374.6 -3.70267 -3.80889 0
M  V30 13854 C 1373.64 -4.91132 -3.65317 0
M  V30 13855 N 1372.78 -5.08163 -4.84474 0
M  V30 13856 H 1377.62 -2.81382 -0.981246 0
M  V30 13857 H 1375.15 -1.3928 -0.47324 0
M  V30 13858 H 1377.11 -2.38404 -3.42373 0
M  V30 13859 H 1375.74 -1.35521 -2.92974 0
M  V30 13860 H 1374.79 -3.41943 -1.66672 0
M  V30 13861 H 1376.11 -4.38326 -2.38059 0
M  V30 13862 H 1375.26 -3.86308 -4.67815 0
M  V30 13863 H 1374 -2.7989 -3.9939 0
M  V30 13864 H 1373 -4.75054 -2.76774 0
M  V30 13865 H 1374.23 -5.8298 -3.48298 0
M  V30 13866 H 1372.18 -4.20726 -5.03314 0
M  V30 13867 H 1372.09 -5.90904 -4.71559 0
M  V30 13868 H 1373.36 -5.28627 -5.72865 0
M  V30 13869 N 1377.59 0.500963 -1.49426 0
M  V30 13870 C 1378.54 1.6025 -1.66098 0
M  V30 13871 C 1379.51 1.58318 -0.502453 0
M  V30 13872 O 1380.69 1.76304 -0.729482 0
M  V30 13873 C 1377.83 2.98396 -1.73361 0
M  V30 13874 C 1376.94 3.10343 -3.00518 0
M  V30 13875 C 1376.08 4.39222 -2.9876 0
M  V30 13876 C 1375.12 4.44803 -4.20496 0
M  V30 13877 N 1374.26 5.6511 -4.16648 0
M  V30 13878 H 1379.1 1.45342 -2.60153 0
M  V30 13879 H 1376.63 0.707147 -1.28988 0
M  V30 13880 H 1378.59 3.78467 -1.75553 0
M  V30 13881 H 1377.22 3.12007 -0.827718 0
M  V30 13882 H 1376.27 2.23336 -3.07937 0
M  V30 13883 H 1377.58 3.10327 -3.90511 0
M  V30 13884 H 1376.74 5.27613 -2.99515 0
M  V30 13885 H 1375.48 4.41804 -2.06545 0
M  V30 13886 H 1374.48 3.54814 -4.19985 0
M  V30 13887 H 1375.71 4.43937 -5.13903 0
M  V30 13888 H 1373.65 5.68533 -3.2727 0
M  V30 13889 H 1373.57 5.6671 -5.00376 0
M  V30 13890 H 1374.84 6.55708 -4.21506 0
M  V30 13891 O 1379.11 1.48006 0.64625 0
M  V30 13892 H 1379.8 1.43604 1.29991 0
M  V30 END ATOM
M  V30 BEGIN BOND
M  V30 END BOND
M  V30 END CTAB
M  END
$$$$
