drugbank_target|Q14571 Inositol 1,4,5-trisphosphate receptor type 2 (DB00201)
 OpenBabel12092121003D

  0  0  0     0  0            999 V3000
M  V30 BEGIN CTAB
M  V30 COUNTS 43264 43680 0 0 0
M  V30 BEGIN ATOM
M  V30 1 H -0.908 1.98254 -0.117106 0
M  V30 2 N 0 1.576 0 0
M  V30 3 C 0.933 2.03868 1.02534 0
M  V30 4 C 1.911 0.928543 1.3348 0
M  V30 5 O 3.095 1.19667 1.45644 0
M  V30 6 C 0.222 2.43627 2.35294 0
M  V30 7 C -0.732 3.65373 2.2001 0
M  V30 8 S 0.101 5.13292 1.52614 0
M  V30 9 C 1.257 5.56322 2.86805 0
M  V30 10 H 1.49 2.90518 0.631377 0
M  V30 11 H -0.977 1.52953 0.210867 0
M  V30 12 H 0.981 2.67203 3.11629 0
M  V30 13 H -0.358 1.57376 2.7183 0
M  V30 14 H -1.165 3.90944 3.18086 0
M  V30 15 H -1.563 3.418 1.51819 0
M  V30 16 H 0.729 5.58782 3.83104 0
M  V30 17 H 1.672 6.56266 2.65933 0
M  V30 18 H 2.08 4.83886 2.90714 0
M  V30 19 N 1.4781 -0.272755 1.55222 0
M  V30 20 C 2.7061 -1.02255 1.79865 0
M  V30 21 C 3.1211 -1.79924 0.572088 0
M  V30 22 O 2.4781 -1.76638 -0.458842 0
M  V30 23 C 2.5291 -1.98094 3.02392 0
M  V30 24 O 2.2501 -1.23572 4.20311 0
M  V30 25 C 3.7511 -2.84884 3.39641 0
M  V30 26 H 0.9711 -0.302057 0.599168 0
M  V30 27 H 3.5151 -0.303465 2.02236 0
M  V30 28 H 1.6701 -2.65465 2.82147 0
M  V30 29 H 2.0841 -1.88172 4.89583 0
M  V30 30 H 3.5581 -3.47927 4.28545 0
M  V30 31 H 4.0351 -3.54665 2.59055 0
M  V30 32 H 4.6411 -2.23003 3.62146 0
M  V30 33 N 2.9562 -1.48159 -0.537278 0
M  V30 34 C 3.8662 -1.64807 -1.6696 0
M  V30 35 C 4.8822 -0.530651 -1.65711 0
M  V30 36 O 6.0582 -0.800784 -1.84796 0
M  V30 37 C 3.1232 -1.67708 -3.03438 0
M  V30 38 C 2.1842 -2.91025 -3.156 0
M  V30 39 C 1.4172 -2.93778 -4.45567 0
M  V30 40 O 1.6402 -2.05153 -5.3223 0
M  V30 41 O 0.5742 -3.85868 -4.61941 0
M  V30 42 H 4.4002 -2.6066 -1.55853 0
M  V30 43 H 1.9852 -1.31475 -0.709549 0
M  V30 44 H 3.8672 -1.7218 -3.84619 0
M  V30 45 H 2.5422 -0.750278 -3.14885 0
M  V30 46 H 1.4492 -2.92089 -2.33741 0
M  V30 47 H 2.7822 -3.83065 -3.09066 0
M  V30 48 N 4.4343 0.785586 -1.36625 0
M  V30 49 C 5.3813 1.89838 -1.31264 0
M  V30 50 C 6.3513 1.65115 -0.180633 0
M  V30 51 O 7.5363 1.87222 -0.36777 0
M  V30 52 C 4.6763 3.26706 -1.11163 0
M  V30 53 C 3.7893 3.63476 -2.33472 0
M  V30 54 C 2.9243 4.89481 -2.06353 0
M  V30 55 C 1.9633 5.18941 -3.24602 0
M  V30 56 N 1.1003 6.36131 -2.97123 0
M  V30 57 H 5.9403 1.93756 -2.26413 0
M  V30 58 H 3.4773 0.947454 -1.12524 0
M  V30 59 H 5.4353 4.05639 -0.975337 0
M  V30 60 H 4.0653 3.222 -0.196674 0
M  V30 61 H 3.1173 2.79636 -2.57891 0
M  V30 62 H 4.4293 3.81193 -3.21704 0
M  V30 63 H 3.5833 5.76288 -1.89675 0
M  V30 64 H 2.3223 4.73841 -1.15437 0
M  V30 65 H 1.3273 4.30615 -3.41834 0
M  V30 66 H 2.5523 5.36498 -4.16349 0
M  V30 67 H 0.4983 6.21875 -2.08823 0
M  V30 68 H 0.4153 6.54198 -3.78894 0
M  V30 69 H 1.6833 7.2591 -2.84033 0
M  V30 70 N 5.9124 1.20967 1.01018 0
M  V30 71 C 6.8454 0.907578 2.09376 0
M  V30 72 C 7.8234 -0.142868 1.61971 0
M  V30 73 O 9.0074 -0.0150391 1.88494 0
M  V30 74 C 6.1344 0.361791 3.36762 0
M  V30 75 C 5.1804 1.39423 4.03068 0
M  V30 76 S 6.0134 2.96159 4.4615 0
M  V30 77 C 7.1694 2.43173 5.7673 0
M  V30 78 H 7.4024 1.82519 2.34678 0
M  V30 79 H 4.9354 1.03884 1.14225 0
M  V30 80 H 6.8934 0.0534523 4.10465 0
M  V30 81 H 5.5544 -0.53443 3.0952 0
M  V30 82 H 4.7474 0.961853 4.94737 0
M  V30 83 H 4.3494 1.65038 3.35617 0
M  V30 84 H 6.6414 1.83335 6.52223 0
M  V30 85 H 7.5844 3.33264 6.24773 0
M  V30 86 H 7.9924 1.85069 5.33301 0
M  V30 87 N 7.3905 -1.2043 1.01659 0
M  V30 88 C 8.6155 -1.94318 0.724942 0
M  V30 89 C 9.0405 -1.74266 -0.708034 0
M  V30 90 O 8.3985 -1.03694 -1.48719 0
M  V30 91 C 8.4465 -3.44486 1.06591 0
M  V30 92 O 7.5505 -4.12017 0.177599 0
M  V30 93 H 6.8915 -0.60708 0.26898 0
M  V30 94 H 9.4215 -1.52861 1.35995 0
M  V30 95 H 9.4315 -3.95106 1.01762 0
M  V30 96 H 8.1065 -3.58404 2.10997 0
M  V30 97 H 6.6835 -3.71821 0.283421 0
M  V30 98 N 8.8686 -0.792821 -1.36206 0
M  V30 99 C 10.0936 -0.377701 -2.03932 0
M  V30 100 C 10.5186 0.998947 -1.59382 0
M  V30 101 O 9.8766 1.64421 -0.763903 0
M  V30 102 C 9.9246 -0.453635 -3.57735 0
M  V30 103 O 9.0286 0.538151 -4.08874 0
M  V30 104 H 8.3696 -0.159855 -0.644471 0
M  V30 105 H 10.8996 -1.07488 -1.7409 0
M  V30 106 H 10.9096 -0.318464 -4.06755 0
M  V30 107 H 9.5846 -1.45784 -3.89512 0
M  V30 108 H 8.1616 0.364359 -3.71116 0
M  V30 109 N 10.3467 1.47872 -0.545128 0
M  V30 110 C 11.5937 2.02493 -0.0165858 0
M  V30 111 C 11.9217 1.42073 1.32836 0
M  V30 112 O 11.1767 0.561459 1.87473 0
M  V30 113 C 11.4757 3.57131 0.13867 0
M  V30 114 C 11.1417 4.36411 -1.13384 0
M  V30 115 C 9.8037 4.57792 -1.48256 0
M  V30 116 C 12.1557 4.82223 -1.97764 0
M  V30 117 C 9.4837 5.22233 -2.67376 0
M  V30 118 C 11.8357 5.47977 -3.16076 0
M  V30 119 C 10.4997 5.67593 -3.51275 0
M  V30 120 H 9.7697 0.740975 -0.00606918 0
M  V30 121 H 12.4167 1.77683 -0.714207 0
M  V30 122 H 10.7217 3.80865 0.919172 0
M  V30 123 H 12.4187 3.97031 0.562782 0
M  V30 124 H 9.0087 4.2004 -0.852297 0
M  V30 125 H 13.1927 4.65493 -1.72132 0
M  V30 126 H 8.4487 5.35616 -2.94831 0
M  V30 127 H 12.6227 5.8244 -3.81755 0
M  V30 128 H 10.2497 6.17298 -4.43675 0
M  V30 129 N 11.8248 0.280983 1.55075 0
M  V30 130 C 12.7548 -0.597469 2.25727 0
M  V30 131 C 13.7358 -1.15417 1.24952 0
M  V30 132 O 14.9208 -1.18722 1.53684 0
M  V30 133 C 12.0508 -1.7789 2.98283 0
M  V30 134 C 11.0048 -1.35347 4.06036 0
M  V30 135 C 10.3308 -2.61846 4.66198 0
M  V30 136 C 11.6308 -0.499354 5.19907 0
M  V30 137 H 13.3248 -0.00824265 2.99399 0
M  V30 138 H 10.8708 -0.0025244 1.44 0
M  V30 139 H 12.8238 -2.39937 3.46422 0
M  V30 140 H 11.5478 -2.39405 2.22155 0
M  V30 141 H 10.2068 -0.756156 3.58717 0
M  V30 142 H 9.8548 -3.21632 3.86732 0
M  V30 143 H 9.5548 -2.3409 5.38958 0
M  V30 144 H 11.0788 -3.24732 5.1709 0
M  V30 145 H 12.4928 -1.02498 5.64063 0
M  V30 146 H 10.8898 -0.316424 5.99265 0
M  V30 147 H 11.9598 0.480459 4.82514 0
M  V30 148 N 13.3029 -1.57598 0.00835791 0
M  V30 149 C 14.5329 -1.94931 -0.684496 0
M  V30 150 C 14.9409 -0.882233 -1.67372 0
M  V30 151 O 14.2839 0.146621 -1.83114 0
M  V30 152 C 14.3459 -3.283 -1.4649 0
M  V30 153 C 14.0099 -4.52548 -0.63634 0
M  V30 154 C 15.0069 -5.19839 0.0795586 0
M  V30 155 C 12.6919 -4.98942 -0.579849 0
M  V30 156 C 14.6859 -6.3183 0.840843 0
M  V30 157 C 12.3729 -6.10819 0.185155 0
M  V30 158 C 13.3709 -6.77121 0.894227 0
M  V30 159 O 13.0589 -7.86853 1.64673 0
M  V30 160 H 12.7909 -0.647249 -0.19505 0
M  V30 161 H 15.3449 -2.05318 0.0581272 0
M  V30 162 H 13.5749 -3.14345 -2.2522 0
M  V30 163 H 15.2639 -3.50685 -2.04389 0
M  V30 164 H 16.0299 -4.84979 0.0451202 0
M  V30 165 H 11.9089 -4.47155 -1.1213 0
M  V30 166 H 15.4529 -6.83513 1.39483 0
M  V30 167 H 11.3499 -6.4512 0.221384 0
M  V30 168 H 12.1179 -8.03412 1.56432 0
M  V30 169 N 14.781 0.264519 -1.55364 0
M  V30 170 C 16.03 0.992812 -1.75574 0
M  V30 171 C 16.343 1.87142 -0.568979 0
M  V30 172 O 17.549 2.63513 -0.653682 0
M  V30 173 C 16.005 1.81519 -3.10771 0
M  V30 174 C 15.613 0.984839 -4.37041 0
M  V30 175 C 17.357 2.53727 -3.40327 0
M  V30 176 C 15.264 1.80209 -5.63275 0
M  V30 177 H 14.194 0.374412 -0.65447 0
M  V30 178 H 16.845 0.248138 -1.81815 0
M  V30 179 H 15.227 2.60115 -2.98591 0
M  V30 180 H 16.401 0.242455 -4.60162 0
M  V30 181 H 14.716 0.37691 -4.14691 0
M  V30 182 H 17.313 3.15292 -4.3185 0
M  V30 183 H 17.656 3.24447 -2.60845 0
M  V30 184 H 18.189 1.82156 -3.53644 0
M  V30 185 H 14.928 1.13896 -6.45529 0
M  V30 186 H 14.448 2.52022 -5.44284 0
M  V30 187 H 16.127 2.37364 -6.01887 0
M  V30 188 N 16.2591 1.48442 0.529413 0
M  V30 189 C 17.5071 1.56179 1.28267 0
M  V30 190 C 17.8281 0.237721 1.93546 0
M  V30 191 O 17.0981 -0.740779 1.81354 0
M  V30 192 H 15.6781 0.575367 0.476405 0
M  V30 193 H 18.3401 1.84909 0.61602 0
M  V30 194 H 17.4361 2.34312 2.06165 0
M  V30 195 N 17.7372 -0.778329 1.37039 0
M  V30 196 C 19.0142 -1.52551 1.22424 0
M  V30 197 C 19.3942 -2.10288 -0.184964 0
M  V30 198 O 18.7422 -1.94953 -1.19187 0
M  V30 199 C 18.9522 -2.61164 2.31504 0
M  V30 200 C 20.3002 -3.28746 2.68721 0
M  V30 201 O 21.3242 -2.71455 2.30631 0
M  V30 202 O 20.1832 -4.3231 3.3432 0
M  V30 203 H 17.2772 -0.675343 0.477326 0
M  V30 204 H 19.8232 -0.815859 1.48801 0
M  V30 205 H 18.5952 -2.16574 3.25901 0
M  V30 206 H 18.2182 -3.39737 2.06554 0
M  V30 207 N 19.2153 -1.21501 -1.00376 0
M  V30 208 C 20.4643 -1.02718 -1.73586 0
M  V30 209 C 20.7773 0.439589 -1.90596 0
M  V30 210 O 21.9833 0.746848 -2.61026 0
M  V30 211 C 20.4393 -1.78929 -3.1227 0
M  V30 212 C 20.0473 -3.29783 -3.03228 0
M  V30 213 C 21.7913 -1.68557 -3.89601 0
M  V30 214 C 19.6983 -3.98479 -4.36999 0
M  V30 215 H 18.6283 -0.380733 -0.650814 0
M  V30 216 H 21.2793 -1.45248 -1.1214 0
M  V30 217 H 19.6613 -1.29192 -3.74333 0
M  V30 218 H 20.8353 -3.86832 -2.50395 0
M  V30 219 H 19.1503 -3.40711 -2.39385 0
M  V30 220 H 21.7473 -2.17211 -4.88593 0
M  V30 221 H 22.0903 -0.644021 -4.11288 0
M  V30 222 H 22.6233 -2.15778 -3.34193 0
M  V30 223 H 19.3623 -5.02841 -4.20513 0
M  V30 224 H 18.8823 -3.46219 -4.89788 0
M  V30 225 H 20.5613 -4.03462 -5.05794 0
M  V30 226 N 20.6934 1.19889 -1.02296 0
M  V30 227 C 21.9394 1.89701 -0.717033 0
M  V30 228 C 22.2724 1.7905 0.751989 0
M  V30 229 O 21.5474 1.17891 1.547 0
M  V30 230 C 21.8304 3.40858 -1.16136 0
M  V30 231 C 21.6834 3.60411 -2.69117 0
M  V30 232 C 23.0024 4.33876 -0.737549 0
M  V30 233 H 20.1214 0.688874 -0.261957 0
M  V30 234 H 22.7634 1.41154 -1.27183 0
M  V30 235 H 20.9134 3.82335 -0.689342 0
M  V30 236 H 22.5854 3.28145 -3.2422 0
M  V30 237 H 20.8284 3.03665 -3.0979 0
M  V30 238 H 21.4994 4.66396 -2.95261 0
M  V30 239 H 23.9754 4.00081 -1.14344 0
M  V30 240 H 22.8514 5.38242 -1.0764 0
M  V30 241 H 23.1124 4.40628 0.360436 0
M  V30 242 N 22.1715 0.800033 1.35784 0
M  V30 243 C 23.3965 0.388511 2.03729 0
M  V30 244 C 23.8215 -0.990481 1.5991 0
M  V30 245 O 23.1795 -1.64013 0.772612 0
M  V30 246 C 23.2275 0.4726 3.5749 0
M  V30 247 O 22.3315 -0.51646 4.09153 0
M  V30 248 H 21.6725 0.163271 0.643614 0
M  V30 249 H 24.2025 1.0841 1.73518 0
M  V30 250 H 24.2125 0.34003 4.06581 0
M  V30 251 H 22.8875 1.47848 3.88734 0
M  V30 252 H 21.4645 -0.344673 3.71304 0
M  V30 253 N 23.6496 -1.47581 0.552962 0
M  V30 254 C 24.5796 -2.32762 -0.185451 0
M  V30 255 C 25.5606 -1.43527 -0.912905 0
M  V30 256 O 26.7456 -1.72388 -0.894201 0
M  V30 257 C 23.8756 -3.25219 -1.21859 0
M  V30 258 C 22.8296 -4.23661 -0.607864 0
M  V30 259 C 22.1556 -5.05413 -1.74533 0
M  V30 260 C 23.4556 -5.20481 0.435582 0
M  V30 261 H 25.1496 -2.94749 0.525684 0
M  V30 262 H 22.6956 -1.41738 0.254251 0
M  V30 263 H 24.6486 -3.8365 -1.7433 0
M  V30 264 H 23.3726 -2.61279 -1.95961 0
M  V30 265 H 22.0316 -3.66451 -0.104489 0
M  V30 266 H 21.6796 -4.3788 -2.47529 0
M  V30 267 H 21.3796 -5.72059 -1.34249 0
M  V30 268 H 22.9036 -5.66701 -2.27338 0
M  V30 269 H 24.3176 -5.733 -0.00290157 0
M  V30 270 H 22.7146 -5.95305 0.757067 0
M  V30 271 H 23.7846 -4.66217 1.33303 0
M  V30 272 N 25.1277 -0.289203 -1.54924 0
M  V30 273 C 26.3577 0.325989 -2.04012 0
M  V30 274 C 26.7657 1.48961 -1.1665 0
M  V30 275 O 26.1087 1.82794 -0.1822 0
M  V30 276 C 26.1707 0.856112 -3.49158 0
M  V30 277 C 25.8347 -0.180697 -4.56643 0
M  V30 278 C 26.8317 -1.0051 -5.10092 0
M  V30 279 C 24.5167 -0.318998 -5.01286 0
M  V30 280 C 26.5107 -1.95385 -6.06715 0
M  V30 281 C 24.1977 -1.27121 -5.97732 0
M  V30 282 C 25.1957 -2.08713 -6.50329 0
M  V30 283 O 24.8837 -3.02322 -7.44887 0
M  V30 284 H 24.6157 0.0765276 -0.671654 0
M  V30 285 H 27.1697 -0.423254 -2.00992 0
M  V30 286 H 25.3997 1.65567 -3.49463 0
M  V30 287 H 27.0887 1.38591 -3.81507 0
M  V30 288 H 27.8547 -0.90906 -4.76404 0
M  V30 289 H 23.7337 0.306108 -4.59983 0
M  V30 290 H 27.2777 -2.59111 -6.47694 0
M  V30 291 H 23.1747 -1.36801 -6.30837 0
M  V30 292 H 23.9427 -2.97165 -7.6265 0
M  V30 293 N 26.6058 1.57591 -0.0167156 0
M  V30 294 C 27.5688 2.08393 0.954204 0
M  V30 295 C 28.5688 0.996531 1.26198 0
M  V30 296 O 29.7588 1.25858 1.20438 0
M  V30 297 C 26.8908 2.5394 2.27436 0
M  V30 298 H 28.0838 2.95455 0.514451 0
M  V30 299 H 25.6368 1.54582 0.231089 0
M  V30 300 H 26.3718 1.70171 2.76066 0
M  V30 301 H 26.1568 3.33371 2.06412 0
M  V30 302 H 27.6468 2.93512 2.97053 0
M  V30 303 N 28.0839 -0.256276 1.55502 0
M  V30 304 C 28.9939 -1.33882 1.92647 0
M  V30 305 C 30.0099 -1.53159 0.825727 0
M  V30 306 O 31.1859 -1.66963 1.12629 0
M  V30 307 C 28.2509 -2.6751 2.20543 0
M  V30 308 C 27.3119 -2.56836 3.43997 0
M  V30 309 C 26.5449 -3.84092 3.70553 0
M  V30 310 O 26.7679 -4.85545 2.99336 0
M  V30 311 O 25.7019 -3.83288 4.64084 0
M  V30 312 H 29.5279 -1.05374 2.84833 0
M  V30 313 H 27.1129 -0.456237 1.42263 0
M  V30 314 H 28.9949 -3.46492 2.39835 0
M  V30 315 H 27.6699 -2.9577 1.31536 0
M  V30 316 H 26.5769 -1.76172 3.30021 0
M  V30 317 H 27.9099 -2.33523 4.33275 0
M  V30 318 N 29.562 -1.4872 -0.521534 0
M  V30 319 C 30.81 -1.56857 -1.27437 0
M  V30 320 C 31.131 -0.247982 -1.93417 0
M  V30 321 O 30.401 0.731151 -1.81744 0
M  V30 322 H 28.981 -0.577885 -0.473347 0
M  V30 323 H 31.643 -1.85233 -0.606205 0
M  V30 324 H 30.739 -2.35402 -2.0492 0
M  V30 325 N 31.0401 0.771051 -1.3745 0
M  V30 326 C 32.2651 1.56529 -1.36065 0
M  V30 327 C 32.6901 1.88029 0.0515859 0
M  V30 328 O 32.0481 1.49282 1.02882 0
M  V30 329 C 32.0961 2.85187 -2.20683 0
M  V30 330 O 31.2001 3.79593 -1.61193 0
M  V30 331 H 30.5411 0.47411 -0.464883 0
M  V30 332 H 33.0711 0.954269 -1.80983 0
M  V30 333 H 33.0811 3.34283 -2.33921 0
M  V30 334 H 31.7561 2.61588 -3.23334 0
M  V30 335 H 30.3331 3.38239 -1.56999 0
M  V30 336 N 32.5182 1.22032 0.997298 0
M  V30 337 C 33.7642 1.04376 1.73878 0
M  V30 338 C 34.0972 -0.420716 1.89588 0
M  V30 339 O 33.3722 -1.31202 1.43583 0
M  V30 340 C 33.6552 1.75047 3.14691 0
M  V30 341 C 33.5082 3.29062 3.06656 0
M  V30 342 C 34.8272 1.49928 4.13775 0
M  V30 343 H 31.9462 0.380578 0.631133 0
M  V30 344 H 34.5882 1.50312 1.16217 0
M  V30 345 H 32.7382 1.35996 3.63919 0
M  V30 346 H 34.4102 3.7753 2.65083 0
M  V30 347 H 32.6532 3.58967 2.43568 0
M  V30 348 H 33.3242 3.73683 4.06282 0
M  V30 349 H 35.8002 1.83842 3.73285 0
M  V30 350 H 34.6762 2.01878 5.10428 0
M  V30 351 H 34.9372 0.430929 4.39995 0
M  V30 352 N 33.9963 -1.19345 1.0293 0
M  V30 353 C 34.9443 -2.24621 0.604001 0
M  V30 354 C 35.9383 -1.65452 -0.363587 0
M  V30 355 O 37.1443 -1.78497 -0.23212 0
M  V30 356 H 33.5193 -0.730858 0.177061 0
M  V30 357 H 35.4903 -2.5781 1.50255 0
M  V30 358 C 34.2393 -3.47688 -0.0289127 0
M  V30 359 H 33.5623 -3.93505 0.706651 0
M  V30 360 H 35.0023 -4.23011 -0.289432 0
M  V30 361 C 33.4613 -3.11817 -1.2756 0
M  V30 362 O 33.9913 -3.2451 -2.36762 0
M  V30 363 N 32.1973 -2.66246 -1.16453 0
M  V30 364 H 31.7443 -2.56118 -0.275914 0
M  V30 365 H 31.7023 -2.42617 -1.99961 0
M  V30 366 N 35.4744 -0.807222 -1.35358 0
M  V30 367 C 36.7224 -0.387122 -1.98358 0
M  V30 368 C 37.0434 1.04942 -1.64354 0
M  V30 369 O 36.3134 1.72615 -0.926339 0
M  V30 370 H 34.8934 -0.140154 -0.733734 0
M  V30 371 H 37.5554 -1.0332 -1.6526 0
M  V30 372 H 36.6514 -0.493352 -3.08176 0
M  V30 373 N 36.9525 1.47285 -0.560781 0
M  V30 374 C 38.1995 2.02464 -0.038062 0
M  V30 375 C 38.5275 1.43474 1.31322 0
M  V30 376 O 37.7825 0.581311 1.86867 0
M  V30 377 C 38.0815 3.57258 0.100784 0
M  V30 378 C 37.7475 4.35184 -1.18007 0
M  V30 379 C 36.4095 4.56194 -1.53103 0
M  V30 380 C 38.7615 4.80098 -2.02867 0
M  V30 381 C 36.0895 5.19367 -2.729 0
M  V30 382 C 38.4415 5.44593 -3.21871 0
M  V30 383 C 37.1055 5.63835 -3.57276 0
M  V30 384 H 36.3755 0.740869 -0.0139279 0
M  V30 385 H 39.0225 1.76916 -0.733012 0
M  V30 386 H 37.3275 3.81819 0.878724 0
M  V30 387 H 39.0245 3.97606 0.520639 0
M  V30 388 H 35.6145 4.19113 -0.8968 0
M  V30 389 H 39.7985 4.63642 -1.7706 0
M  V30 390 H 35.0545 5.32459 -3.00496 0
M  V30 391 H 39.2285 5.78358 -3.87911 0
M  V30 392 H 36.8555 6.12557 -4.50197 0
M  V30 393 N 38.4306 0.297415 1.54768 0
M  V30 394 C 39.6796 -0.313669 1.99246 0
M  V30 395 C 39.9926 -1.55281 1.18942 0
M  V30 396 O 41.1986 -2.23825 1.5367 0
M  V30 397 C 39.6546 -0.609407 3.54703 0
M  V30 398 C 39.2626 0.611192 4.43811 0
M  V30 399 C 41.0066 -1.18188 4.07715 0
M  V30 400 C 38.9136 0.288805 5.90694 0
M  V30 401 H 37.8436 -0.120979 0.744231 0
M  V30 402 H 40.4946 0.40556 1.78962 0
M  V30 403 H 38.8766 -1.38813 3.70873 0
M  V30 404 H 40.0506 1.3875 4.39414 0
M  V30 405 H 38.3656 1.10205 4.01552 0
M  V30 406 H 40.9626 -1.43727 5.15021 0
M  V30 407 H 41.3056 -2.12299 3.58099 0
M  V30 408 H 41.8386 -0.464944 3.95074 0
M  V30 409 H 38.5776 1.19838 6.44453 0
M  V30 410 H 38.0976 -0.450305 5.98107 0
M  V30 411 H 39.7766 -0.110933 6.46905 0
M  V30 412 N 39.9087 -1.5758 0.0250728 0
M  V30 413 C 41.1337 -1.96337 -0.668317 0
M  V30 414 C 41.5587 -0.901314 -1.651 0
M  V30 415 O 40.9167 0.138187 -1.80773 0
M  V30 416 C 40.9647 -3.34191 -1.35457 0
M  V30 417 O 40.0687 -3.30269 -2.46974 0
M  V30 418 H 39.4097 -0.640281 -0.175887 0
M  V30 419 H 41.9397 -2.0442 0.0857224 0
M  V30 420 H 41.9497 -3.70331 -1.71228 0
M  V30 421 H 40.6247 -4.11036 -0.634218 0
M  V30 422 H 39.2017 -3.05841 -2.13344 0
M  V30 423 N 41.3868 0.248026 -1.55636 0
M  V30 424 C 42.6148 0.993808 -1.81469 0
M  V30 425 C 43.0298 1.78991 -0.60064 0
M  V30 426 O 42.3868 1.77345 0.430682 0
M  V30 427 C 42.4378 1.93258 -3.05506 0
M  V30 428 O 42.1588 1.16869 -4.22224 0
M  V30 429 C 43.6598 2.79444 -3.4413 0
M  V30 430 H 40.8798 0.292486 -0.603898 0
M  V30 431 H 43.4238 0.271253 -2.02693 0
M  V30 432 H 41.5788 2.60943 -2.86335 0
M  V30 433 H 41.9928 1.80359 -4.92515 0
M  V30 434 H 43.4668 3.41066 -4.34026 0
M  V30 435 H 43.9438 3.50499 -2.64665 0
M  V30 436 H 44.5498 2.17214 -3.65648 0
M  V30 437 N 42.8649 1.48995 0.513639 0
M  V30 438 C 43.7949 1.67636 1.62544 0
M  V30 439 C 44.7759 0.525087 1.61793 0
M  V30 440 O 45.9609 0.759502 1.78732 0
M  V30 441 C 43.0909 1.73114 3.01079 0
M  V30 442 C 42.0449 2.87905 3.16693 0
M  V30 443 C 41.3709 2.78486 4.56453 0
M  V30 444 C 42.6709 4.29005 2.97913 0
M  V30 445 H 44.3649 2.60716 1.47198 0
M  V30 446 H 41.9109 1.25465 0.706714 0
M  V30 447 H 43.8639 1.84742 3.78746 0
M  V30 448 H 42.5879 0.766241 3.17484 0
M  V30 449 H 41.2469 2.75859 2.41448 0
M  V30 450 H 40.8949 1.7993 4.69717 0
M  V30 451 H 40.5949 3.55523 4.67843 0
M  V30 452 H 42.1189 2.92104 5.36197 0
M  V30 453 H 43.5329 4.41798 3.65359 0
M  V30 454 H 41.9299 5.07166 3.20785 0
M  V30 455 H 42.9999 4.44329 1.94165 0
M  V30 456 N 44.343 -0.763751 1.37857 0
M  V30 457 C 45.591 -1.51957 1.33243 0
M  V30 458 C 45.912 -1.94835 -0.0801709 0
M  V30 459 O 45.182 -1.66894 -1.02582 0
M  V30 460 H 43.762 -0.563626 0.49024 0
M  V30 461 H 46.424 -0.908504 1.7243 0
M  V30 462 H 45.52 -2.41523 1.97669 0
M  V30 463 N 45.8211 -1.22559 -0.990812 0
M  V30 464 C 46.7511 -1.0218 -2.09956 0
M  V30 465 C 47.7321 0.0579394 -1.70001 0
M  V30 466 O 48.9171 -0.104684 -1.93918 0
M  V30 467 C 46.0471 -0.601023 -3.4206 0
M  V30 468 C 45.0011 -1.62694 -3.95872 0
M  V30 469 C 44.3271 -1.06193 -5.24049 0
M  V30 470 C 45.6271 -3.01743 -4.2632 0
M  V30 471 H 47.3211 -1.94916 -2.27262 0
M  V30 472 H 44.8671 -0.938566 -1.09211 0
M  V30 473 H 46.8201 -0.445561 -4.19038 0
M  V30 474 H 45.5441 0.362005 -3.24588 0
M  V30 475 H 44.2031 -1.77021 -3.21028 0
M  V30 476 H 43.8511 -0.0901903 -5.02919 0
M  V30 477 H 43.5511 -1.74732 -5.61019 0
M  V30 478 H 45.0751 -0.918092 -6.03658 0
M  V30 479 H 46.4891 -2.90777 -4.94087 0
M  V30 480 H 44.8861 -3.67425 -4.74467 0
M  V30 481 H 45.9561 -3.51518 -3.34011 0
M  V30 482 N 47.2992 1.18797 -1.03562 0
M  V30 483 C 48.5452 1.8893 -0.737113 0
M  V30 484 C 48.8782 1.79837 0.732956 0
M  V30 485 O 48.1532 1.19525 1.5344 0
M  V30 486 C 48.4362 3.39607 -1.19745 0
M  V30 487 C 48.2892 3.57537 -2.72924 0
M  V30 488 C 49.6082 4.33069 -0.783526 0
M  V30 489 H 46.7272 0.686057 -0.269249 0
M  V30 490 H 49.3692 1.39797 -1.28673 0
M  V30 491 H 47.5192 3.81583 -0.729855 0
M  V30 492 H 49.1912 3.24688 -3.27682 0
M  V30 493 H 47.4342 3.00363 -3.12993 0
M  V30 494 H 48.1052 4.63238 -3.00191 0
M  V30 495 H 50.5812 3.98846 -1.18581 0
M  V30 496 H 49.4572 5.3707 -1.13343 0
M  V30 497 H 49.7182 4.40986 0.313681 0
M  V30 498 N 48.7773 0.814389 1.34928 0
M  V30 499 C 50.0543 0.321363 1.92942 0
M  V30 500 C 50.4343 -1.19014 1.74353 0
M  V30 501 O 49.7823 -1.99328 1.11716 0
M  V30 502 C 49.9923 0.741323 3.41036 0
M  V30 503 C 51.3403 0.735266 4.18185 0
M  V30 504 O 52.3643 0.68336 3.49584 0
M  V30 505 O 51.2233 0.800703 5.40602 0
M  V30 506 H 48.3173 0.0858893 0.822528 0
M  V30 507 H 50.8633 0.898609 1.43955 0
M  V30 508 H 49.6353 1.78276 3.4833 0
M  V30 509 H 49.2583 0.139307 3.97356 0
M  V30 510 N 50.2554 -1.46986 0.568584 0
M  V30 511 C 51.5324 -1.95592 -0.0174074 0
M  V30 512 C 51.9124 -1.51124 -1.47393 0
M  V30 513 O 51.2604 -0.755329 -2.15655 0
M  V30 514 C 51.4704 -3.48719 0.139913 0
M  V30 515 C 52.8184 -4.246 0.000426376 0
M  V30 516 O 53.8424 -3.56135 0.0680316 0
M  V30 517 O 52.7014 -5.46302 -0.146988 0
M  V30 518 H 49.7954 -0.82498 -0.0577599 0
M  V30 519 H 52.3414 -1.57335 0.635909 0
M  V30 520 H 51.1134 -3.73927 1.15301 0
M  V30 521 H 50.7364 -3.93771 -0.550491 0
M  V30 522 N 51.7335 -0.305618 -1.54608 0
M  V30 523 C 53.1495 0.0476228 -1.59529 0
M  V30 524 C 53.3495 1.52025 -1.32252 0
M  V30 525 O 52.4055 2.27368 -1.09818 0
M  V30 526 C 53.7185 -0.354471 -2.98603 0
M  V30 527 C 55.2665 -0.303622 -3.11524 0
M  V30 528 C 55.7415 -0.680608 -4.52915 0
M  V30 529 N 57.2325 -0.63332 -4.5885 0
M  V30 530 C 57.9675 -0.897432 -5.66334 0
M  V30 531 N 57.4635 -1.22775 -6.81834 0
M  V30 532 N 59.2565 -0.824186 -5.56025 0
M  V30 533 H 51.4075 -1.2653 -1.70599 0
M  V30 534 H 53.6705 -0.513291 -0.797017 0
M  V30 535 H 53.3765 -1.3798 -3.23503 0
M  V30 536 H 53.2505 0.289568 -3.76087 0
M  V30 537 H 55.6375 0.712472 -2.8637 0
M  V30 538 H 55.7185 -0.982348 -2.36185 0
M  V30 539 H 55.3625 -1.69453 -4.78799 0
M  V30 540 H 55.2925 0.0202385 -5.26596 0
M  V30 541 H 57.7835 -0.389138 -3.75891 0
M  V30 542 H 58.0965 -1.41513 -7.59733 0
M  V30 543 H 56.4415 -1.26583 -6.83375 0
M  V30 544 H 59.6325 -0.565748 -4.64669 0
M  V30 545 H 59.8055 -1.03338 -6.39707 0
M  V30 546 N 53.2116 1.57565 -0.0334293 0
M  V30 547 C 54.4516 1.93844 0.648379 0
M  V30 548 C 54.8156 0.910387 1.69044 0
M  V30 549 O 56.0166 1.15952 2.42505 0
M  V30 550 C 54.2876 3.35017 1.24492 0
M  V30 551 S 55.8466 3.93229 1.94721 0
M  V30 552 H 52.6646 0.678231 0.213364 0
M  V30 553 H 55.2666 1.95254 -0.0981253 0
M  V30 554 H 53.9706 4.07652 0.474128 0
M  V30 555 H 53.5016 3.37061 2.02864 0
M  V30 556 H 55.5166 3.77014 3.22606 0
M  V30 557 N 54.6897 -0.239769 1.55765 0
M  V30 558 C 55.9357 -0.968234 1.78194 0
M  V30 559 C 56.2687 -1.84701 0.599938 0
M  V30 560 O 55.5437 -1.9031 -0.401524 0
M  V30 561 C 55.8267 -1.8227 3.10564 0
M  V30 562 C 55.6797 -0.971633 4.3918 0
M  V30 563 C 56.9987 -2.80388 3.39221 0
M  V30 564 H 54.1177 -0.350572 0.648281 0
M  V30 565 H 56.7597 -0.238259 1.885 0
M  V30 566 H 54.9097 -2.44507 3.01908 0
M  V30 567 H 56.5817 -0.367408 4.59835 0
M  V30 568 H 54.8247 -0.276276 4.32919 0
M  V30 569 H 55.4957 -1.60346 5.28198 0
M  V30 570 H 57.9717 -2.28287 3.47885 0
M  V30 571 H 56.8477 -3.3729 4.33044 0
M  V30 572 H 57.1087 -3.57212 2.60484 0
M  V30 573 N 56.1678 -1.49265 -0.50573 0
M  V30 574 C 57.4138 -1.58748 -1.26202 0
M  V30 575 C 57.7468 -0.271227 -1.92297 0
M  V30 576 O 57.0218 0.724831 -1.80489 0
M  V30 577 C 57.3048 -2.74332 -2.33268 0
M  V30 578 C 57.1578 -4.15737 -1.71705 0
M  V30 579 C 58.4768 -2.85576 -3.34865 0
M  V30 580 H 55.5958 -0.577826 -0.457478 0
M  V30 581 H 58.2378 -1.81532 -0.560897 0
M  V30 582 H 56.3878 -2.55036 -2.93068 0
M  V30 583 H 58.0598 -4.46537 -1.15769 0
M  V30 584 H 56.3028 -4.21605 -1.02135 0
M  V30 585 H 56.9738 -4.92477 -2.49341 0
M  V30 586 H 59.4498 -3.03127 -2.8505 0
M  V30 587 H 58.3258 -3.68135 -4.07146 0
M  V30 588 H 58.5868 -1.94732 -3.96903 0
M  V30 589 N 57.6459 0.756429 -1.3826 0
M  V30 590 C 58.5959 1.86069 -1.31766 0
M  V30 591 C 59.5799 1.59621 -0.202483 0
M  V30 592 O 60.7719 1.7149 -0.438211 0
M  V30 593 C 57.9009 3.23742 -1.1422 0
M  V30 594 C 56.9869 3.56091 -2.30348 0
M  V30 595 N 57.3779 3.59517 -3.55783 0
M  V30 596 C 55.6759 3.86341 -2.22838 0
M  V30 597 C 56.3769 3.89052 -4.32451 0
M  V30 598 N 55.3529 4.05736 -3.61772 0
M  V30 599 H 59.1549 1.86992 -2.26741 0
M  V30 600 H 56.6689 0.953643 -1.31451 0
M  V30 601 H 58.6659 4.02761 -1.07652 0
M  V30 602 H 57.3259 3.24073 -0.201763 0
M  V30 603 H 58.3369 3.41347 -3.89491 0
M  V30 604 H 55.0139 3.94404 -1.36937 0
M  V30 605 H 56.4039 3.98349 -5.4108 0
M  V30 606 N 59.124 1.23083 0.984299 0
M  V30 607 C 60.535 1.05609 1.5396 0
M  V30 608 C 60.886 -0.377793 1.92528 0
M  V30 609 O 60.011 -1.26398 1.75649 0
M  V30 610 C 60.606 1.91087 2.7977 0
M  V30 611 C 59.165 1.77885 3.31713 0
M  V30 612 C 58.312 1.87028 2.04733 0
M  V30 613 H 61.263 1.36802 0.804419 0
M  V30 614 H 61.284 1.43336 3.5247 0
M  V30 615 H 60.796 2.9544 2.51668 0
M  V30 616 H 58.897 0.762995 3.64704 0
M  V30 617 H 59.01 2.61047 4.01735 0
M  V30 618 H 57.374 1.30565 2.18689 0
M  V30 619 H 58.157 2.92929 1.79017 0
M  V30 620 N 60.6021 -1.18246 1.0419 0
M  V30 621 C 61.5121 -2.25574 0.644476 0
M  V30 622 C 62.5281 -1.70845 -0.329826 0
M  V30 623 O 63.7041 -2.00554 -0.184443 0
M  V30 624 C 60.7691 -3.46697 0.014877 0
M  V30 625 C 59.8301 -4.16554 1.03834 0
M  V30 626 C 59.0631 -5.31894 0.438692 0
M  V30 627 O 59.2861 -5.65385 -0.754752 0
M  V30 628 O 58.2201 -5.90459 1.168 0
M  V30 629 H 62.0461 -2.61836 1.53869 0
M  V30 630 H 59.6311 -1.25352 0.812854 0
M  V30 631 H 61.5131 -4.20062 -0.335538 0
M  V30 632 H 60.1881 -3.12255 -0.853138 0
M  V30 633 H 59.0951 -3.45251 1.44057 0
M  V30 634 H 60.4281 -4.54998 1.87716 0
M  V30 635 N 62.0802 -0.821533 -1.34494 0
M  V30 636 C 63.0432 -0.247847 -2.27856 0
M  V30 637 C 64.0432 0.573453 -1.50227 0
M  V30 638 O 65.2332 0.389759 -1.69784 0
M  V30 639 C 62.3652 0.652698 -3.34593 0
M  V30 640 H 63.5582 -1.07146 -2.80107 0
M  V30 641 H 61.1112 -0.593291 -1.44602 0
M  V30 642 H 61.8462 1.49943 -2.87555 0
M  V30 643 H 61.6312 0.065292 -3.92046 0
M  V30 644 H 63.1212 1.04793 -4.04238 0
M  V30 645 N 63.5583 1.46682 -0.576371 0
M  V30 646 C 64.8063 2.02013 -0.0594163 0
M  V30 647 C 65.1273 1.45101 1.30271 0
M  V30 648 O 64.3973 0.633317 1.8538 0
M  V30 649 H 62.9773 0.746759 -0.0189745 0
M  V30 650 H 65.6393 1.79862 -0.750717 0
M  V30 651 H 64.7353 3.12097 0.014345 0
M  V30 652 N 65.0364 0.313813 1.54444 0
M  V30 653 C 66.3134 -0.345447 1.92525 0
M  V30 654 C 66.6934 -1.70667 1.24242 0
M  V30 655 O 66.0414 -2.25273 0.382654 0
M  V30 656 C 66.2514 -0.44737 3.46121 0
M  V30 657 C 67.5994 -0.712238 4.18584 0
M  V30 658 O 68.6234 -0.530678 3.52225 0
M  V30 659 O 67.4824 -1.06183 5.36085 0
M  V30 660 H 64.5764 -0.195407 0.803583 0
M  V30 661 H 67.1224 0.362813 1.65776 0
M  V30 662 H 65.8944 0.509043 3.87975 0
M  V30 663 H 65.5174 -1.20359 3.78945 0
M  V30 664 N 66.5145 -1.57545 0.0417849 0
M  V30 665 C 67.4445 -2.14009 -0.933929 0
M  V30 666 C 68.4255 -1.05938 -1.33083 0
M  V30 667 O 69.6105 -1.33833 -1.40721 0
M  V30 668 C 66.7405 -2.67747 -2.21199 0
M  V30 669 C 65.6945 -3.80718 -1.95544 0
M  V30 670 C 65.0205 -4.20935 -3.29724 0
M  V30 671 C 66.3205 -5.06258 -1.28452 0
M  V30 672 H 68.0145 -2.95788 -0.463645 0
M  V30 673 H 65.5605 -1.42285 -0.221573 0
M  V30 674 H 67.5135 -3.05886 -2.89848 0
M  V30 675 H 66.2375 -1.83147 -2.70416 0
M  V30 676 H 64.8965 -3.43037 -1.2931 0
M  V30 677 H 64.5445 -3.33298 -3.76724 0
M  V30 678 H 64.2445 -4.9707 -3.13361 0
M  V30 679 H 65.7685 -4.61666 -3.9962 0
M  V30 680 H 67.1825 -5.41903 -1.8712 0
M  V30 681 H 65.5795 -5.87475 -1.22445 0
M  V30 682 H 66.6495 -4.84207 -0.259219 0
M  V30 683 N 67.9926 0.231505 -1.5589 0
M  V30 684 C 68.9556 1.27028 -1.90779 0
M  V30 685 C 69.9556 1.40308 -0.785507 0
M  V30 686 O 71.1456 1.38744 -1.05336 0
M  V30 687 C 68.2776 2.64566 -2.14983 0
M  V30 688 H 69.4706 0.973017 -2.83677 0
M  V30 689 H 67.0236 0.471486 -1.49019 0
M  V30 690 H 67.7586 2.99406 -1.24604 0
M  V30 691 H 67.5436 2.56305 -2.96732 0
M  V30 692 H 69.0336 3.39543 -2.43105 0
M  V30 693 N 69.4707 1.49531 0.497807 0
M  V30 694 C 70.4187 1.66926 1.61983 0
M  V30 695 C 71.4127 0.535167 1.60724 0
M  V30 696 O 72.6187 0.714896 1.65195 0
M  V30 697 H 68.9937 0.526415 0.537021 0
M  V30 698 H 70.9647 2.61098 1.44465 0
M  V30 699 C 69.7137 1.75602 3.00099 0
M  V30 700 H 69.0367 2.62244 3.01775 0
M  V30 701 H 70.4767 1.91807 3.78135 0
M  V30 702 C 68.9357 0.501543 3.33146 0
M  V30 703 O 69.4657 -0.371342 3.9998 0
M  V30 704 N 67.6717 0.363531 2.88317 0
M  V30 705 H 67.2187 1.07485 2.34104 0
M  V30 706 H 67.1767 -0.474728 3.10795 0
M  V30 707 N 70.9488 -0.749086 1.3866 0
M  V30 708 C 72.3598 -1.32664 1.31366 0
M  V30 709 C 72.7108 -1.96179 -0.028484 0
M  V30 710 O 71.8358 -1.9537 -0.93057 0
M  V30 711 C 72.4308 -2.41219 2.37905 0
M  V30 712 C 70.9898 -2.94684 2.34176 0
M  V30 713 C 70.1368 -1.68108 2.20533 0
M  V30 714 H 73.0878 -0.547628 1.48952 0
M  V30 715 H 73.1088 -3.21268 2.0388 0
M  V30 716 H 72.6208 -1.94962 3.35576 0
M  V30 717 H 70.7218 -3.45258 1.401 0
M  V30 718 H 70.8348 -3.48757 3.2849 0
M  V30 719 H 69.1988 -1.91907 1.67463 0
M  V30 720 H 69.9818 -1.23923 3.20153 0
M  V30 721 N 72.4269 -1.23603 -0.977757 0
M  V30 722 C 73.8379 -1.06424 -1.53398 0
M  V30 723 C 74.1889 0.367578 -1.92726 0
M  V30 724 O 73.3139 1.25465 -1.76316 0
M  V30 725 C 73.9089 -1.92568 -2.78753 0
M  V30 726 C 72.4679 -1.79642 -3.30765 0
M  V30 727 C 71.6149 -1.88111 -2.03739 0
M  V30 728 H 74.5659 -1.37227 -0.797152 0
M  V30 729 H 74.5869 -1.45203 -3.51705 0
M  V30 730 H 74.0989 -2.96771 -2.50098 0
M  V30 731 H 72.1999 -0.782325 -3.64294 0
M  V30 732 H 72.3129 -2.63174 -4.00345 0
M  V30 733 H 70.6769 -1.31723 -2.17994 0
M  V30 734 H 71.4599 -2.93875 -1.77461 0
M  V30 735 N 73.905 1.17692 -1.04816 0
M  V30 736 C 74.852 2.21581 -0.645797 0
M  V30 737 C 75.822 1.62367 0.350159 0
M  V30 738 O 77.007 1.89254 0.242433 0
M  V30 739 C 74.147 3.45092 -0.0227568 0
M  V30 740 C 73.26 4.18613 -1.06709 0
M  V30 741 C 72.395 5.29602 -0.411767 0
M  V30 742 C 71.434 5.94904 -1.44067 0
M  V30 743 N 70.571 6.97414 -0.809781 0
M  V30 744 H 75.411 2.55353 -1.5362 0
M  V30 745 H 72.948 1.25438 -0.768364 0
M  V30 746 H 74.906 4.15679 0.35588 0
M  V30 747 H 73.536 3.11917 0.831122 0
M  V30 748 H 72.588 3.46779 -1.5636 0
M  V30 749 H 73.9 4.63293 -1.84827 0
M  V30 750 H 73.054 6.06696 0.0206623 0
M  V30 751 H 71.793 4.86045 0.401438 0
M  V30 752 H 70.798 5.16544 -1.88316 0
M  V30 753 H 72.023 6.40542 -2.25571 0
M  V30 754 H 69.969 6.55998 -0.0170186 0
M  V30 755 H 69.886 7.40386 -1.52856 0
M  V30 756 H 71.154 7.78463 -0.401999 0
M  V30 757 N 75.3831 0.828654 1.34056 0
M  V30 758 C 76.3301 0.252567 2.29414 0
M  V30 759 C 77.3001 -0.62588 1.53857 0
M  V30 760 O 78.4851 -0.566312 1.82202 0
M  V30 761 C 75.6251 -0.574831 3.40279 0
M  V30 762 C 74.7381 0.326499 4.30764 0
M  V30 763 C 73.8731 -0.511016 5.28736 0
M  V30 764 C 72.9121 0.389342 6.1086 0
M  V30 765 N 72.0491 -0.409439 7.00905 0
M  V30 766 H 76.8891 1.07108 2.78086 0
M  V30 767 H 74.4261 0.539677 1.36843 0
M  V30 768 H 76.3841 -1.06992 4.03248 0
M  V30 769 H 75.0141 -1.35841 2.92826 0
M  V30 770 H 74.0661 0.939837 3.68607 0
M  V30 771 H 75.3781 1.01857 4.88289 0
M  V30 772 H 74.5321 -1.07035 5.97184 0
M  V30 773 H 73.2711 -1.23657 4.71763 0
M  V30 774 H 72.2761 0.960769 5.4134 0
M  V30 775 H 73.5011 1.1131 6.69916 0
M  V30 776 H 71.4471 -1.11856 6.46393 0
M  V30 777 H 71.3641 0.224126 7.55668 0
M  V30 778 H 72.6321 -0.951336 7.73673 0
M  V30 779 N 76.8612 -1.46375 0.584142 0
M  V30 780 C 78.1082 -2.02378 0.0702675 0
M  V30 781 C 78.4362 -1.45545 -1.29023 0
M  V30 782 O 77.6912 -0.610967 -1.85918 0
M  V30 783 C 77.9902 -3.57373 -0.0439342 0
M  V30 784 C 77.6562 -4.33252 1.24915 0
M  V30 785 C 76.3182 -4.53701 1.60341 0
M  V30 786 C 78.6702 -4.7681 2.1048 0
M  V30 787 C 75.9982 -5.1496 2.81128 0
M  V30 788 C 78.3502 -5.39404 3.30494 0
M  V30 789 C 77.0142 -5.5808 3.66201 0
M  V30 790 H 76.2842 -0.740554 0.0257127 0
M  V30 791 H 78.9312 -1.75727 0.761065 0
M  V30 792 H 77.2362 -3.83169 -0.817869 0
M  V30 793 H 78.9332 -3.98384 -0.457318 0
M  V30 794 H 75.5232 -4.17633 0.963364 0
M  V30 795 H 79.7072 -4.60766 1.84414 0
M  V30 796 H 74.9632 -5.27611 3.08928 0
M  V30 797 H 79.1372 -5.72114 3.97063 0
M  V30 798 H 76.7642 -6.05318 4.59885 0
M  V30 799 N 78.3393 -0.321999 -1.54275 0
M  V30 800 C 79.7553 0.0306999 -1.5957 0
M  V30 801 C 79.9553 1.50614 -1.33857 0
M  V30 802 O 79.0113 2.2619 -1.12223 0
M  V30 803 C 80.3243 -0.386122 -2.98211 0
M  V30 804 C 81.8723 -0.336647 -3.11184 0
M  V30 805 C 82.3473 -0.728607 -4.52167 0
M  V30 806 N 83.8383 -0.681952 -4.58152 0
M  V30 807 C 84.5733 -0.957449 -5.6535 0
M  V30 808 N 84.0693 -1.3 -6.80494 0
M  V30 809 N 85.8623 -0.883113 -5.55119 0
M  V30 810 H 78.0133 -1.28332 -1.69247 0
M  V30 811 H 80.2763 -0.521716 -0.791528 0
M  V30 812 H 79.9823 -1.41404 -3.22022 0
M  V30 813 H 79.8563 0.249662 -3.76373 0
M  V30 814 H 82.2433 0.682058 -2.8711 0
M  V30 815 H 82.3243 -1.00734 -2.3513 0
M  V30 816 H 81.9683 -1.74522 -4.76974 0
M  V30 817 H 81.8983 -0.0356152 -5.26588 0
M  V30 818 H 84.3893 -0.428985 -3.75457 0
M  V30 819 H 84.7023 -1.49563 -7.58189 0
M  V30 820 H 83.0473 -1.33824 -6.81994 0
M  V30 821 H 86.2383 -0.615001 -4.64042 0
M  V30 822 H 86.4113 -1.10118 -6.38575 0
M  V30 823 N 79.8174 1.5752 -0.0501392 0
M  V30 824 C 81.0944 1.83996 0.663685 0
M  V30 825 C 81.4744 0.938339 1.89099 0
M  V30 826 O 80.8224 -0.00087759 2.285 0
M  V30 827 C 81.0324 3.33702 1.02196 0
M  V30 828 C 82.3804 4.00691 1.40469 0
M  V30 829 O 83.4044 3.38321 1.11433 0
M  V30 830 O 82.2634 5.10658 1.94654 0
M  V30 831 H 79.3574 0.759385 0.32751 0
M  V30 832 H 81.9034 1.69514 -0.0794238 0
M  V30 833 H 80.6754 3.91015 0.149364 0
M  V30 834 H 80.2984 3.53368 1.82255 0
M  V30 835 N 81.2955 -0.223234 1.56011 0
M  V30 836 C 82.5355 -0.954962 1.8072 0
M  V30 837 C 82.8995 -1.81598 0.623384 0
M  V30 838 O 84.1005 -2.58132 0.749745 0
M  V30 839 C 82.3715 -1.77313 3.10314 0
M  V30 840 S 83.9305 -2.56073 3.56332 0
M  V30 841 H 80.7485 -0.320812 0.634508 0
M  V30 842 H 83.3505 -0.220686 1.9425 0
M  V30 843 H 82.0545 -1.13071 3.94516 0
M  V30 844 H 81.5855 -2.54974 2.99586 0
M  V30 845 H 83.6005 -3.79619 3.19536 0
M  V30 846 N 82.7736 -1.49793 -0.48987 0
M  V30 847 C 83.7036 -1.70201 -1.59856 0
M  V30 848 C 84.6846 -0.55076 -1.60937 0
M  V30 849 O 85.8696 -0.787841 -1.77501 0
M  V30 850 C 82.9996 -1.77882 -2.98287 0
M  V30 851 C 81.9536 -2.92907 -3.12073 0
M  V30 852 C 81.2796 -2.85712 -4.51965 0
M  V30 853 C 82.5796 -4.3369 -2.91051 0
M  V30 854 H 84.2736 -2.63025 -1.43032 0
M  V30 855 H 81.8196 -1.26574 -0.686664 0
M  V30 856 H 83.7726 -1.90744 -3.75759 0
M  V30 857 H 82.4966 -0.816653 -3.16225 0
M  V30 858 H 81.1556 -2.79665 -2.37029 0
M  V30 859 H 80.8036 -1.8738 -4.66795 0
M  V30 860 H 80.5036 -3.62921 -4.62128 0
M  V30 861 H 82.0276 -3.00598 -5.31482 0
M  V30 862 H 83.4416 -4.47555 -3.58284 0
M  V30 863 H 81.8386 -5.12205 -3.12675 0
M  V30 864 H 82.9086 -4.47362 -1.87071 0
M  V30 865 N 84.2517 0.741722 -1.39055 0
M  V30 866 C 85.4987 1.50114 -1.35912 0
M  V30 867 C 85.8267 1.94443 0.0470937 0
M  V30 868 O 85.0817 1.66612 1.02659 0
M  V30 869 C 85.3807 2.7592 -2.27163 0
M  V30 870 C 85.0467 2.50493 -3.74919 0
M  V30 871 C 83.7087 2.43267 -4.1518 0
M  V30 872 C 86.0607 2.28585 -4.684 0
M  V30 873 C 83.3887 2.12166 -5.46994 0
M  V30 874 C 85.7407 1.99002 -6.00484 0
M  V30 875 C 84.4047 1.90241 -6.39816 0
M  V30 876 H 83.6747 0.549306 -0.497336 0
M  V30 877 H 86.3217 0.851896 -1.71508 0
M  V30 878 H 84.6267 3.45553 -1.84663 0
M  V30 879 H 86.3237 3.33923 -2.22028 0
M  V30 880 H 82.9137 2.56992 -3.43006 0
M  V30 881 H 87.0977 2.33139 -4.38132 0
M  V30 882 H 82.3537 2.03901 -5.76398 0
M  V30 883 H 86.5277 1.81057 -6.72452 0
M  V30 884 H 84.1547 1.65907 -7.41875 0
M  V30 885 N 85.7298 1.2412 0.971189 0
M  V30 886 C 86.6768 1.0305 2.06517 0
M  V30 887 C 87.6468 -0.0550666 1.66009 0
M  V30 888 O 88.8318 0.0988688 1.90544 0
M  V30 889 C 85.9718 0.637653 3.39158 0
M  V30 890 C 85.0848 1.79633 3.92882 0
M  V30 891 C 84.2198 1.34939 5.13775 0
M  V30 892 C 83.2588 2.47823 5.59687 0
M  V30 893 N 82.3958 2.04022 6.71803 0
M  V30 894 H 87.2358 1.96685 2.23873 0
M  V30 895 H 84.7728 0.979694 1.09729 0
M  V30 896 H 86.7308 0.390931 4.15364 0
M  V30 897 H 85.3608 -0.261693 3.21737 0
M  V30 898 H 84.4128 2.15681 3.13346 0
M  V30 899 H 85.7248 2.64466 4.22918 0
M  V30 900 H 84.8788 1.06134 5.97345 0
M  V30 901 H 83.6178 0.471557 4.85415 0
M  V30 902 H 82.6228 2.77392 4.74693 0
M  V30 903 H 83.8478 3.36158 5.90063 0
M  V30 904 H 81.7938 1.18632 6.45184 0
M  V30 905 H 81.7108 2.82409 7.01271 0
M  V30 906 H 82.9788 1.78347 7.58823 0
M  V30 907 N 87.2079 -1.17134 1.05439 0
M  V30 908 C 88.4539 -1.87733 0.767077 0
M  V30 909 C 88.7869 -1.8098 -0.704253 0
M  V30 910 O 88.0619 -1.21951 -1.5152 0
M  V30 911 C 88.3449 -3.37659 1.25133 0
M  V30 912 C 88.1979 -3.53149 2.78578 0
M  V30 913 C 89.5169 -4.31768 0.852324 0
M  V30 914 H 86.6359 -0.681687 0.280129 0
M  V30 915 H 89.2779 -1.37732 1.30881 0
M  V30 916 H 87.4279 -3.80373 0.790469 0
M  V30 917 H 89.0999 -3.19434 3.32806 0
M  V30 918 H 87.3429 -2.95345 3.17732 0
M  V30 919 H 88.0139 -4.58403 3.07523 0
M  V30 920 H 90.4899 -3.96909 1.24911 0
M  V30 921 H 89.3659 -5.35199 1.21873 0
M  V30 922 H 89.6269 -4.41429 -0.243485 0
M  V30 923 N 88.686 -0.835752 -1.33615 0
M  V30 924 C 89.926 -0.43599 -1.99696 0
M  V30 925 C 90.29 0.98557 -1.64774 0
M  V30 926 O 91.491 1.48889 -2.23798 0
M  V30 927 C 89.762 -0.646721 -3.515 0
M  V30 928 S 91.321 -0.341715 -4.37467 0
M  V30 929 H 88.139 -0.164136 -0.691795 0
M  V30 930 H 90.741 -1.08436 -1.62671 0
M  V30 931 H 89.445 -1.68077 -3.74404 0
M  V30 932 H 88.976 0.0159173 -3.93397 0
M  V30 933 H 90.991 0.839708 -4.89043 0
M  V30 934 N 90.1641 1.46063 -0.591896 0
M  V30 935 C 91.5751 1.85944 -0.167822 0
M  V30 936 C 91.9261 1.49429 1.27143 0
M  V30 937 O 91.0511 0.913515 1.96173 0
M  V30 938 C 91.6461 3.37489 -0.297794 0
M  V30 939 C 90.2051 3.76332 0.0714732 0
M  V30 940 C 89.3521 2.7006 -0.629509 0
M  V30 941 H 92.3031 1.37087 -0.799555 0
M  V30 942 H 92.3241 3.77532 0.474349 0
M  V30 943 H 91.8361 3.64034 -1.3454 0
M  V30 944 H 89.9371 3.55405 1.11886 0
M  V30 945 H 90.0501 4.78088 -0.311245 0
M  V30 946 H 88.4141 2.54607 -0.0687867 0
M  V30 947 H 89.1971 2.99444 -1.67894 0
M  V30 948 N 91.6422 0.330177 1.54103 0
M  V30 949 C 92.5752 -0.575477 2.20825 0
M  V30 950 C 93.5532 -1.11064 1.18758 0
M  V30 951 O 94.7372 -1.17341 1.47524 0
M  V30 952 C 91.8642 -1.79032 2.87516 0
M  V30 953 C 90.9102 -1.38581 4.03358 0
M  V30 954 S 91.7432 -0.416911 5.33875 0
M  V30 955 C 92.8992 -1.63889 6.04062 0
M  V30 956 H 93.1322 -0.00872114 2.97299 0
M  V30 957 H 90.6652 0.114254 1.53977 0
M  V30 958 H 92.6232 -2.48734 3.2656 0
M  V30 959 H 91.2842 -2.32827 2.10832 0
M  V30 960 H 90.4772 -2.29123 4.48908 0
M  V30 961 H 90.0792 -0.768419 3.66021 0
M  V30 962 H 92.3712 -2.57536 6.26643 0
M  V30 963 H 93.3142 -1.22542 6.97416 0
M  V30 964 H 93.7222 -1.82887 5.34053 0
M  V30 965 N 93.1203 -1.57491 0.0584922 0
M  V30 966 C 94.0683 -2.13148 -0.931168 0
M  V30 967 C 95.0623 -1.06507 -1.31729 0
M  V30 968 O 96.2683 -1.24906 -1.29609 0
M  V30 969 H 92.6433 -0.68137 -0.31818 0
M  V30 970 H 94.6143 -2.95187 -0.436707 0
M  V30 971 C 93.3633 -2.69732 -2.19408 0
M  V30 972 H 92.6863 -3.51454 -1.90578 0
M  V30 973 H 94.1263 -3.12287 -2.86798 0
M  V30 974 C 92.5853 -1.63855 -2.94369 0
M  V30 975 O 93.1153 -1.05565 -3.87581 0
M  V30 976 N 91.3213 -1.35202 -2.57233 0
M  V30 977 H 90.8683 -1.82791 -1.81508 0
M  V30 978 H 90.8263 -0.645922 -3.07693 0
M  V30 979 N 94.5984 0.214957 -1.56127 0
M  V30 980 C 96.0144 0.564948 -1.49267 0
M  V30 981 C 96.2144 1.86827 -0.754838 0
M  V30 982 O 95.2704 2.50745 -0.297198 0
M  V30 983 C 96.5834 0.638071 -2.93852 0
M  V30 984 C 98.1314 0.728253 -3.0441 0
M  V30 985 C 98.6064 0.832663 -4.50367 0
M  V30 986 N 100.097 0.896712 -4.54437 0
M  V30 987 C 100.832 0.997324 -5.6466 0
M  V30 988 N 100.328 1.06147 -6.8462 0
M  V30 989 N 102.121 1.03297 -5.52527 0
M  V30 990 H 94.2724 -0.640211 -2.02522 0
M  V30 991 H 96.5354 -0.225507 -0.920788 0
M  V30 992 H 96.2414 -0.250126 -3.50809 0
M  V30 993 H 96.1154 1.49947 -3.46115 0
M  V30 994 H 98.5024 1.60689 -2.47514 0
M  V30 995 H 98.5834 -0.158952 -2.55306 0
M  V30 996 H 98.2274 -0.0415417 -5.07883 0
M  V30 997 H 98.1574 1.73538 -4.97184 0
M  V30 998 H 100.648 0.857188 -3.6805 0
M  V30 999 H 100.961 1.1382 -7.64372 0
M  V30 1000 H 99.3064 1.03049 -6.87318 0
M  V30 1001 H 102.497 0.979558 -4.57736 0
M  V30 1002 H 102.67 1.10793 -6.38458 0
M  V30 1003 N 96.0765 1.50051 0.48192 0
M  V30 1004 C 97.3065 1.63999 1.2565 0
M  V30 1005 C 97.7145 0.318288 1.86504 0
M  V30 1006 O 97.0575 -0.708534 1.69486 0
M  V30 1007 C 97.1195 2.66504 2.4128 0
M  V30 1008 C 96.7835 4.10352 2.01148 0
M  V30 1009 C 97.7805 4.96562 1.54021 0
M  V30 1010 C 95.4655 4.56203 2.10199 0
M  V30 1011 C 97.4595 6.26668 1.16473 0
M  V30 1012 C 95.1465 5.86318 1.72264 0
M  V30 1013 C 96.1445 6.71375 1.25477 0
M  V30 1014 O 95.8325 7.99062 0.880626 0
M  V30 1015 H 95.5645 0.55456 0.386574 0
M  V30 1016 H 98.1185 1.96954 0.582944 0
M  V30 1017 H 96.3485 2.28769 3.11772 0
M  V30 1018 H 98.0375 2.69783 3.03268 0
M  V30 1019 H 98.8035 4.62358 1.46458 0
M  V30 1020 H 94.6825 3.90152 2.45566 0
M  V30 1021 H 98.2265 6.93011 0.798841 0
M  V30 1022 H 94.1235 6.20046 1.79482 0
M  V30 1023 H 94.8915 8.12239 1.01043 0
M  V30 1024 N 97.5546 -0.734337 1.39446 0
M  V30 1025 C 98.7796 -1.52866 1.40167 0
M  V30 1026 C 99.2046 -1.881 -0.00171513 0
M  V30 1027 O 98.5626 -1.51957 -0.988879 0
M  V30 1028 C 98.6106 -2.79235 2.28167 0
M  V30 1029 O 97.7146 -3.75185 1.71201 0
M  V30 1030 H 97.0556 -0.461618 0.477289 0
M  V30 1031 H 99.5856 -0.905949 1.8345 0
M  V30 1032 H 99.5956 -3.27963 2.42702 0
M  V30 1033 H 98.2706 -2.52923 3.30156 0
M  V30 1034 H 96.8476 -3.33958 1.65912 0
M  V30 1035 N 99.0327 -1.24633 -0.964593 0
M  V30 1036 C 99.9957 -1.0424 -2.04124 0
M  V30 1037 C 100.996 0.00137563 -1.608 0
M  V30 1038 O 102.186 -0.239883 -1.7254 0
M  V30 1039 C 99.3177 -0.580588 -3.3592 0
M  V30 1040 H 100.511 -1.99803 -2.23649 0
M  V30 1041 H 98.0637 -1.06899 -1.14027 0
M  V30 1042 H 98.7987 0.3781 -3.22088 0
M  V30 1043 H 98.5837 -1.33398 -3.6871 0
M  V30 1044 H 100.074 -0.459034 -4.15069 0
M  V30 1045 N 100.511 1.16574 -1.06058 0
M  V30 1046 C 101.443 2.2045 -0.627239 0
M  V30 1047 C 102.456 1.59752 0.313534 0
M  V30 1048 O 103.645 1.78192 0.104896 0
M  V30 1049 C 100.745 3.3875 0.100974 0
M  V30 1050 C 99.9178 4.29008 -0.852687 0
M  V30 1051 C 98.9768 5.25944 -0.164152 0
M  V30 1052 O 98.0028 5.63535 -0.801047 0
M  V30 1053 N 99.2048 5.70075 1.09518 0
M  V30 1054 H 101.97 2.58249 -1.52077 0
M  V30 1055 H 99.5308 1.3156 -0.943594 0
M  V30 1056 H 101.523 4.00638 0.57194 0
M  V30 1057 H 100.093 2.99476 0.89628 0
M  V30 1058 H 99.3128 3.64419 -1.50308 0
M  V30 1059 H 100.601 4.86195 -1.49972 0
M  V30 1060 H 99.9988 5.41624 1.6328 0
M  V30 1061 H 98.5558 6.34067 1.51006 0
M  V30 1062 N 101.989 0.842826 1.3317 0
M  V30 1063 C 102.936 0.276885 2.29133 0
M  V30 1064 C 103.906 -0.609527 1.54512 0
M  V30 1065 O 105.091 -0.546955 1.82792 0
M  V30 1066 C 102.231 -0.538707 3.40869 0
M  V30 1067 C 101.344 0.372169 4.30394 0
M  V30 1068 C 100.479 -0.454908 5.29249 0
M  V30 1069 C 99.5179 0.45411 6.10413 0
M  V30 1070 N 98.6549 -0.335075 7.013 0
M  V30 1071 H 103.495 1.10052 2.76934 0
M  V30 1072 H 101.032 0.554161 1.36262 0
M  V30 1073 H 102.99 -1.02709 4.0436 0
M  V30 1074 H 101.62 -1.32727 2.9425 0
M  V30 1075 H 100.672 0.97888 3.6759 0
M  V30 1076 H 101.984 1.0703 4.87182 0
M  V30 1077 H 101.138 -1.00695 5.98285 0
M  V30 1078 H 99.8769 -1.18646 4.73048 0
M  V30 1079 H 98.8819 1.01813 5.40291 0
M  V30 1080 H 100.107 1.18409 6.68697 0
M  V30 1081 H 98.0529 -1.04994 6.47543 0
M  V30 1082 H 97.9699 0.304262 7.55387 0
M  V30 1083 H 99.2379 -0.869224 7.74638 0
M  V30 1084 N 103.467 -1.45747 0.599634 0
M  V30 1085 C 104.399 -2.28628 -0.161879 0
M  V30 1086 C 105.412 -1.39494 -0.839367 0
M  V30 1087 O 106.601 -1.63941 -0.706089 0
M  V30 1088 C 103.701 -3.15014 -1.24976 0
M  V30 1089 C 102.874 -4.32378 -0.660935 0
M  V30 1090 C 101.933 -5.00033 -1.63869 0
M  V30 1091 O 100.959 -5.57085 -1.1681 0
M  V30 1092 N 102.161 -4.98589 -2.97303 0
M  V30 1093 H 104.926 -2.94624 0.549265 0
M  V30 1094 H 102.487 -1.55847 0.438565 0
M  V30 1095 H 104.479 -3.5714 -1.9035 0
M  V30 1096 H 103.049 -2.5098 -1.86354 0
M  V30 1097 H 102.269 -3.9383 0.170688 0
M  V30 1098 H 103.557 -5.08197 -0.247619 0
M  V30 1099 H 102.955 -4.53514 -3.38145 0
M  V30 1100 H 101.512 -5.44603 -3.58121 0
M  V30 1101 N 104.945 -0.338344 -1.53925 0
M  V30 1102 C 106.175 0.260919 -2.04946 0
M  V30 1103 C 106.583 1.45174 -1.2133 0
M  V30 1104 O 105.926 1.82122 -0.240262 0
M  V30 1105 C 105.988 0.744596 -3.51704 0
M  V30 1106 C 105.652 -0.325883 -4.55837 0
M  V30 1107 C 106.649 -1.16687 -5.06636 0
M  V30 1108 C 104.334 -0.478317 -5.00017 0
M  V30 1109 C 106.328 -2.14588 -6.00192 0
M  V30 1110 C 104.015 -1.46073 -5.93385 0
M  V30 1111 C 105.013 -2.29297 -6.4336 0
M  V30 1112 O 104.701 -3.25867 -7.34892 0
M  V30 1113 H 104.433 0.0551207 -0.673749 0
M  V30 1114 H 106.987 -0.486984 -1.99544 0
M  V30 1115 H 105.217 1.54366 -3.54553 0
M  V30 1116 H 106.906 1.26383 -3.85723 0
M  V30 1117 H 107.672 -1.06016 -4.73271 0
M  V30 1118 H 103.551 0.159613 -4.60724 0
M  V30 1119 H 107.095 -2.79585 -6.39123 0
M  V30 1120 H 102.992 -1.56802 -6.26166 0
M  V30 1121 H 103.76 -3.21278 -7.5281 0
M  V30 1122 N 106.423 1.57458 -0.0668435 0
M  V30 1123 C 107.669 1.94401 0.598316 0
M  V30 1124 C 108.024 0.946335 1.67518 0
M  V30 1125 O 107.317 -0.0321442 1.91573 0
M  V30 1126 C 107.511 3.35784 1.22409 0
M  V30 1127 C 107.34 4.49212 0.209367 0
M  V30 1128 C 106.11 5.04887 -0.204218 0
M  V30 1129 C 108.308 5.11335 -0.551431 0
M  V30 1130 N 106.29 6.01854 -1.21016 0
M  V30 1131 C 107.661 6.03754 -1.41 0
M  V30 1132 C 109.716 4.94173 -0.608038 0
M  V30 1133 C 108.419 6.80854 -2.32013 0
M  V30 1134 C 110.445 5.71912 -1.50566 0
M  V30 1135 C 109.807 6.63976 -2.35191 0
M  V30 1136 H 105.906 0.758538 0.190114 0
M  V30 1137 H 108.49 1.94175 -0.142832 0
M  V30 1138 H 106.661 3.36757 1.93518 0
M  V30 1139 H 108.393 3.59976 1.84931 0
M  V30 1140 H 105.148 4.73266 0.177908 0
M  V30 1141 H 105.572 6.55035 -1.71049 0
M  V30 1142 H 110.214 4.22788 0.032022 0
M  V30 1143 H 107.932 7.5152 -2.97057 0
M  V30 1144 H 111.518 5.60656 -1.55423 0
M  V30 1145 H 110.398 7.2308 -3.03522 0
M  V30 1146 N 107.901 -0.206675 1.56239 0
M  V30 1147 C 108.848 -1.25617 1.93621 0
M  V30 1148 C 109.818 -1.45824 0.795274 0
M  V30 1149 O 111.003 -1.59148 1.05245 0
M  V30 1150 C 108.143 -2.59839 2.27107 0
M  V30 1151 C 107.256 -2.47308 3.54207 0
M  V30 1152 C 106.391 -3.74155 3.7707 0
M  V30 1153 C 105.43 -3.56407 4.97635 0
M  V30 1154 N 104.567 -4.75238 5.1681 0
M  V30 1155 H 109.407 -0.930383 2.83104 0
M  V30 1156 H 106.944 -0.448065 1.4011 0
M  V30 1157 H 108.902 -3.38021 2.44535 0
M  V30 1158 H 107.532 -2.90485 1.40778 0
M  V30 1159 H 106.584 -1.60483 3.4489 0
M  V30 1160 H 107.896 -2.30122 4.42544 0
M  V30 1161 H 107.05 -4.60778 3.94675 0
M  V30 1162 H 105.789 -3.94282 2.87042 0
M  V30 1163 H 104.794 -2.68168 4.79964 0
M  V30 1164 H 106.019 -3.37736 5.89161 0
M  V30 1165 H 103.965 -4.95651 4.29728 0
M  V30 1166 H 103.882 -4.60835 5.99306 0
M  V30 1167 H 105.15 -5.63246 5.38864 0
M  V30 1168 N 109.379 -1.50304 -0.473955 0
M  V30 1169 C 110.342 -1.6841 -1.55469 0
M  V30 1170 C 111.342 -0.554905 -1.50922 0
M  V30 1171 O 112.532 -0.821882 -1.53593 0
M  V30 1172 C 109.664 -1.70667 -2.95102 0
M  V30 1173 H 110.857 -2.64828 -1.40733 0
M  V30 1174 H 108.41 -1.39742 -0.700132 0
M  V30 1175 H 109.145 -0.75932 -3.15285 0
M  V30 1176 H 108.93 -2.52698 -2.9981 0
M  V30 1177 H 110.42 -1.8664 -3.73571 0
M  V30 1178 N 110.857 0.726932 -1.39834 0
M  V30 1179 C 111.804 1.841 -1.39197 0
M  V30 1180 C 112.774 1.642 -0.250502 0
M  V30 1181 O 113.959 1.85494 -0.446846 0
M  V30 1182 C 111.099 3.21697 -1.24919 0
M  V30 1183 C 110.212 3.53247 -2.48678 0
M  V30 1184 C 109.347 4.80289 -2.26928 0
M  V30 1185 C 108.386 5.04707 -3.4632 0
M  V30 1186 N 107.523 6.22956 -3.23836 0
M  V30 1187 H 112.363 1.83979 -2.34427 0
M  V30 1188 H 109.9 0.898876 -1.16442 0
M  V30 1189 H 111.858 4.01137 -1.1465 0
M  V30 1190 H 110.488 3.21076 -0.333153 0
M  V30 1191 H 109.54 2.68447 -2.69519 0
M  V30 1192 H 110.852 3.67205 -3.37582 0
M  V30 1193 H 110.006 5.67725 -2.13947 0
M  V30 1194 H 108.745 4.68519 -1.35431 0
M  V30 1195 H 107.75 4.1573 -3.5979 0
M  V30 1196 H 108.975 5.18357 -4.38729 0
M  V30 1197 H 106.921 6.12459 -2.35011 0
M  V30 1198 H 106.838 6.37539 -4.063 0
M  V30 1199 H 108.106 7.1321 -3.14566 0
M  V30 1200 N 112.336 1.25143 0.95797 0
M  V30 1201 C 113.268 1.01023 2.05735 0
M  V30 1202 C 114.281 -0.0236902 1.62783 0
M  V30 1203 O 115.47 0.21448 1.77207 0
M  V30 1204 C 112.57 0.504595 3.35122 0
M  V30 1205 C 111.743 1.6039 4.06932 0
M  V30 1206 C 110.802 1.09922 5.14591 0
M  V30 1207 O 109.828 1.79293 5.40225 0
M  V30 1208 N 111.03 -0.0612545 5.80468 0
M  V30 1209 H 113.795 1.95683 2.26998 0
M  V30 1210 H 111.356 1.16303 1.12629 0
M  V30 1211 H 113.348 0.151516 4.04416 0
M  V30 1212 H 111.918 -0.347989 3.10657 0
M  V30 1213 H 111.138 2.12872 3.31782 0
M  V30 1214 H 112.426 2.34252 4.51667 0
M  V30 1215 H 111.824 -0.640985 5.62057 0
M  V30 1216 H 110.381 -0.355395 6.5083 0
M  V30 1217 N 113.814 -1.1601 1.06675 0
M  V30 1218 C 114.777 -2.18724 0.685001 0
M  V30 1219 C 115.777 -1.58496 -0.271246 0
M  V30 1220 O 116.967 -1.74119 -0.0531156 0
M  V30 1221 C 114.099 -3.40899 0.00853648 0
M  V30 1222 H 115.292 -2.54011 1.59431 0
M  V30 1223 H 112.845 -1.30352 0.862441 0
M  V30 1224 H 113.58 -3.11173 -0.913337 0
M  V30 1225 H 113.365 -3.8587 0.696204 0
M  V30 1226 H 114.855 -4.16886 -0.24414 0
M  V30 1227 N 115.292 -0.849877 -1.32721 0
M  V30 1228 C 116.239 -0.289033 -2.28983 0
M  V30 1229 C 117.209 0.601324 -1.54833 0
M  V30 1230 O 118.394 0.537253 -1.8308 0
M  V30 1231 C 115.534 0.520623 -3.4115 0
M  V30 1232 C 114.647 -0.394989 -4.3019 0
M  V30 1233 C 113.782 0.426834 -5.29482 0
M  V30 1234 C 112.821 -0.486476 -6.10164 0
M  V30 1235 N 111.958 0.297879 -7.01468 0
M  V30 1236 H 116.798 -1.11519 -2.76347 0
M  V30 1237 H 114.335 -0.56138 -1.35967 0
M  V30 1238 H 116.293 1.00563 -4.04899 0
M  V30 1239 H 114.923 1.31165 -2.9495 0
M  V30 1240 H 113.975 -0.99836 -3.67065 0
M  V30 1241 H 115.287 -1.09612 -4.86607 0
M  V30 1242 H 114.441 0.975205 -5.98811 0
M  V30 1243 H 113.18 1.16136 -4.73671 0
M  V30 1244 H 112.185 -1.04677 -5.39743 0
M  V30 1245 H 113.41 -1.21953 -6.6806 0
M  V30 1246 H 111.356 1.01558 -6.48091 0
M  V30 1247 H 111.273 -0.344318 -7.55216 0
M  V30 1248 H 112.541 0.828131 -7.75089 0
M  V30 1249 N 116.77 1.45427 -0.607355 0
M  V30 1250 C 117.702 2.2871 0.149752 0
M  V30 1251 C 118.715 1.39937 0.831958 0
M  V30 1252 O 119.904 1.64313 0.697385 0
M  V30 1253 C 117.004 3.15673 1.23304 0
M  V30 1254 C 116.177 4.32722 0.637996 0
M  V30 1255 C 115.236 5.00895 1.61215 0
M  V30 1256 O 114.262 5.57697 1.13854 0
M  V30 1257 N 115.464 5.00159 2.94655 0
M  V30 1258 H 118.229 2.94328 -0.564882 0
M  V30 1259 H 115.79 1.55612 -0.446823 0
M  V30 1260 H 117.782 3.58144 1.88454 0
M  V30 1261 H 116.352 2.51965 1.8502 0
M  V30 1262 H 115.572 3.93734 -0.191572 0
M  V30 1263 H 116.86 5.08321 0.220665 0
M  V30 1264 H 116.258 4.553 3.35735 0
M  V30 1265 H 114.815 5.46495 3.55228 0
M  V30 1266 N 118.248 0.346503 1.53744 0
M  V30 1267 C 119.496 -0.248612 2.00565 0
M  V30 1268 C 119.817 -1.5083 1.23593 0
M  V30 1269 O 119.087 -1.92858 0.343912 0
M  V30 1270 H 117.667 -0.0948564 0.740953 0
M  V30 1271 H 120.329 0.468341 1.89189 0
M  V30 1272 H 119.425 -0.488994 3.08245 0
M  V30 1273 N 119.726 -1.57421 0.075193 0
M  V30 1274 C 120.674 -2.14124 -0.908508 0
M  V30 1275 C 121.668 -1.07898 -1.30592 0
M  V30 1276 O 122.874 -1.26273 -1.28277 0
M  V30 1277 H 119.249 -0.684707 -0.310935 0
M  V30 1278 H 121.22 -2.95634 -0.405374 0
M  V30 1279 C 119.969 -2.72044 -2.16535 0
M  V30 1280 H 119.292 -3.53456 -1.86839 0
M  V30 1281 H 120.732 -3.15311 -2.83469 0
M  V30 1282 C 119.191 -1.66968 -2.92615 0
M  V30 1283 O 119.721 -1.0967 -3.86439 0
M  V30 1284 N 117.927 -1.37923 -2.55784 0
M  V30 1285 H 117.474 -1.84706 -1.79559 0
M  V30 1286 H 117.432 -0.67852 -3.06991 0
M  V30 1287 N 121.204 0.198386 -1.56346 0
M  V30 1288 C 122.154 1.2499 -1.90687 0
M  V30 1289 C 123.138 1.41158 -0.772217 0
M  V30 1290 O 124.33 1.43584 -1.03502 0
M  V30 1291 C 121.459 2.59542 -2.24706 0
M  V30 1292 C 120.545 2.47181 -3.44619 0
M  V30 1293 N 120.936 2.04495 -4.62618 0
M  V30 1294 C 119.234 2.78082 -3.48692 0
M  V30 1295 C 119.935 2.03945 -5.44776 0
M  V30 1296 N 118.911 2.45323 -4.85095 0
M  V30 1297 H 122.713 0.911149 -2.7942 0
M  V30 1298 H 120.227 0.40684 -1.57221 0
M  V30 1299 H 122.224 3.3549 -2.47491 0
M  V30 1300 H 120.884 2.94244 -1.37298 0
M  V30 1301 H 121.895 1.75256 -4.87345 0
M  V30 1302 H 118.572 3.17002 -2.71691 0
M  V30 1303 H 119.962 1.72872 -6.4928 0
M  V30 1304 N 122.682 1.50554 0.465978 0
M  V30 1305 C 123.91 1.65563 1.24083 0
M  V30 1306 C 124.325 0.341051 1.85694 0
M  V30 1307 O 123.682 -0.677543 1.69457 0
M  V30 1308 C 123.733 2.75051 2.34583 0
M  V30 1309 O 123.454 4.01413 1.75497 0
M  V30 1310 C 124.955 3.01078 3.25372 0
M  V30 1311 H 122.175 0.55638 0.375077 0
M  V30 1312 H 124.719 1.96807 0.555624 0
M  V30 1313 H 122.874 2.46486 2.9887 0
M  V30 1314 H 123.288 4.62002 2.48303 0
M  V30 1315 H 124.762 3.81339 3.99105 0
M  V30 1316 H 125.239 2.12349 3.84453 0
M  V30 1317 H 125.845 3.31194 2.66816 0
M  V30 1318 N 124.16 -0.719506 1.40217 0
M  V30 1319 C 125.07 -1.86378 1.42479 0
M  V30 1320 C 126.086 -1.71073 0.317834 0
M  V30 1321 O 127.262 -1.93406 0.561794 0
M  V30 1322 C 124.327 -3.22136 1.28178 0
M  V30 1323 C 123.388 -3.49723 2.48982 0
M  V30 1324 C 122.621 -4.79004 2.35353 0
M  V30 1325 O 122.844 -5.53821 1.36524 0
M  V30 1326 O 121.778 -5.06839 3.2465 0
M  V30 1327 H 125.604 -1.87425 2.38968 0
M  V30 1328 H 123.189 -0.869405 1.21498 0
M  V30 1329 H 125.071 -4.03234 1.22395 0
M  V30 1330 H 123.746 -3.21825 0.347934 0
M  V30 1331 H 122.653 -2.6865 2.60342 0
M  V30 1332 H 123.986 -3.54828 3.41113 0
M  V30 1333 N 125.638 -1.25649 -0.95132 0
M  V30 1334 C 126.601 -1.06399 -2.03007 0
M  V30 1335 C 127.601 -0.0156794 -1.60792 0
M  V30 1336 O 128.791 -0.25817 -1.72276 0
M  V30 1337 C 125.923 -0.616184 -3.35285 0
M  V30 1338 H 127.116 -2.02164 -2.21517 0
M  V30 1339 H 124.669 -1.08103 -1.12887 0
M  V30 1340 H 125.404 0.343917 -3.22471 0
M  V30 1341 H 125.189 -1.37301 -3.67275 0
M  V30 1342 H 126.679 -0.503032 -4.14559 0
M  V30 1343 N 127.117 1.15442 -1.07289 0
M  V30 1344 C 128.08 2.18358 -0.696591 0
M  V30 1345 C 129.08 1.58637 0.262837 0
M  V30 1346 O 130.27 1.74145 0.0438809 0
M  V30 1347 C 127.402 3.4089 -0.0266151 0
M  V30 1348 H 128.595 2.53162 -1.60776 0
M  V30 1349 H 126.148 1.29893 -0.869342 0
M  V30 1350 H 126.883 3.11653 0.896822 0
M  V30 1351 H 126.668 3.85495 -0.716657 0
M  V30 1352 H 128.158 4.17009 0.222028 0
M  V30 1353 N 128.595 0.856903 1.32268 0
M  V30 1354 C 129.525 0.31858 2.31316 0
M  V30 1355 C 130.506 -0.583487 1.59779 0
M  V30 1356 O 131.691 -0.503259 1.87566 0
M  V30 1357 C 128.821 -0.491979 3.43798 0
M  V30 1358 C 127.775 0.315849 4.26833 0
M  V30 1359 C 127.101 -0.619586 5.31098 0
M  V30 1360 C 128.401 1.54282 4.98993 0
M  V30 1361 H 130.095 1.14621 2.76591 0
M  V30 1362 H 127.641 0.552613 1.32974 0
M  V30 1363 H 129.594 -0.879012 4.1213 0
M  V30 1364 H 128.318 -1.35299 2.97257 0
M  V30 1365 H 126.977 0.684664 3.6015 0
M  V30 1366 H 126.625 -1.47751 4.8081 0
M  V30 1367 H 126.325 -0.0830621 5.87541 0
M  V30 1368 H 127.849 -1.00375 6.02293 0
M  V30 1369 H 129.263 1.22796 5.59995 0
M  V30 1370 H 127.66 2.01745 5.65172 0
M  V30 1371 H 128.73 2.30285 4.26728 0
M  V30 1372 N 130.073 -1.45103 0.615059 0
M  V30 1373 C 131.003 -2.33339 -0.0865619 0
M  V30 1374 C 131.984 -1.4727 -0.851209 0
M  V30 1375 O 133.169 -1.76026 -0.820281 0
M  V30 1376 C 130.299 -3.30095 -1.07956 0
M  V30 1377 C 129.253 -4.25858 -0.427628 0
M  V30 1378 C 128.579 -5.12361 -1.5294 0
M  V30 1379 C 129.879 -5.18165 0.655944 0
M  V30 1380 H 131.573 -2.92254 0.650224 0
M  V30 1381 H 129.119 -1.40532 0.314138 0
M  V30 1382 H 131.072 -3.90698 -1.57901 0
M  V30 1383 H 129.796 -2.69355 -1.84703 0
M  V30 1384 H 128.455 -3.66564 0.0510292 0
M  V30 1385 H 128.103 -4.47984 -2.28734 0
M  V30 1386 H 127.803 -5.77238 -1.09865 0
M  V30 1387 H 129.327 -5.75833 -2.03098 0
M  V30 1388 H 130.741 -5.72796 0.240257 0
M  V30 1389 H 129.138 -5.91559 1.00888 0
M  V30 1390 H 130.208 -4.60144 1.52957 0
M  V30 1391 N 131.551 -0.354651 -1.53558 0
M  V30 1392 C 132.498 0.496968 -2.25386 0
M  V30 1393 C 133.468 1.0865 -1.25636 0
M  V30 1394 O 134.653 1.12104 -1.54394 0
M  V30 1395 C 131.793 1.63637 -3.03837 0
M  V30 1396 C 130.906 1.07307 -4.18461 0
M  V30 1397 C 130.041 2.18068 -4.84376 0
M  V30 1398 C 129.08 1.59147 -5.91049 0
M  V30 1399 N 128.217 2.63695 -6.50699 0
M  V30 1400 H 133.057 -0.122075 -2.9775 0
M  V30 1401 H 130.594 -0.0720154 -1.46924 0
M  V30 1402 H 132.552 2.30734 -3.47589 0
M  V30 1403 H 131.182 2.22623 -2.33749 0
M  V30 1404 H 130.234 0.292708 -3.79272 0
M  V30 1405 H 131.546 0.602193 -4.95152 0
M  V30 1406 H 130.7 2.93007 -5.31255 0
M  V30 1407 H 129.439 2.68504 -4.07133 0
M  V30 1408 H 128.444 0.827175 -5.43542 0
M  V30 1409 H 129.669 1.09549 -6.70206 0
M  V30 1410 H 127.615 3.13365 -5.76315 0
M  V30 1411 H 127.532 2.21263 -7.22896 0
M  V30 1412 H 128.8 3.3837 -7.02229 0
M  V30 1413 N 133.029 1.57378 -0.0835403 0
M  V30 1414 C 133.976 2.13384 0.879539 0
M  V30 1415 C 134.946 1.04936 1.28754 0
M  V30 1416 O 136.131 1.32662 1.37133 0
M  V30 1417 C 133.271 2.70932 2.13752 0
M  V30 1418 C 132.384 3.93575 1.7811 0
M  V30 1419 C 131.519 4.39326 2.98607 0
M  V30 1420 C 130.558 5.54587 2.59037 0
M  V30 1421 N 129.695 5.95243 3.72331 0
M  V30 1422 H 134.535 2.9537 0.395076 0
M  V30 1423 H 132.072 1.45953 0.183349 0
M  V30 1424 H 134.03 3.02411 2.87408 0
M  V30 1425 H 132.66 1.91693 2.59718 0
M  V30 1426 H 131.712 3.68483 0.94469 0
M  V30 1427 H 133.024 4.77258 1.45005 0
M  V30 1428 H 132.178 4.72528 3.80529 0
M  V30 1429 H 130.917 3.5452 3.34913 0
M  V30 1430 H 129.922 5.21024 1.75539 0
M  V30 1431 H 131.147 6.41133 2.23887 0
M  V30 1432 H 129.093 5.13385 4.08378 0
M  V30 1433 H 129.01 6.73694 3.43034 0
M  V30 1434 H 130.278 6.33072 4.54797 0
M  V30 1435 N 134.507 -0.190092 1.56449 0
M  V30 1436 C 135.437 -1.23816 1.97969 0
M  V30 1437 C 136.418 -1.47201 0.852395 0
M  V30 1438 O 137.603 -1.58854 1.1171 0
M  V30 1439 C 134.733 -2.5813 2.3235 0
M  V30 1440 C 133.687 -2.49348 3.47864 0
M  V30 1441 C 133.013 -3.8798 3.67934 0
M  V30 1442 C 134.313 -2.01424 4.81898 0
M  V30 1443 H 136.007 -0.89311 2.85769 0
M  V30 1444 H 133.553 -0.428177 1.37487 0
M  V30 1445 H 135.506 -3.31637 2.59991 0
M  V30 1446 H 134.23 -2.94386 1.41438 0
M  V30 1447 H 132.889 -1.78297 3.20321 0
M  V30 1448 H 132.537 -4.21597 2.74344 0
M  V30 1449 H 132.237 -3.82978 4.45648 0
M  V30 1450 H 133.761 -4.63101 3.97957 0
M  V30 1451 H 135.175 -2.64693 5.08538 0
M  V30 1452 H 133.572 -2.07413 5.63116 0
M  V30 1453 H 134.642 -0.967677 4.75146 0
M  V30 1454 N 135.985 -1.50799 -0.457987 0
M  V30 1455 C 136.917 -1.66786 -1.57211 0
M  V30 1456 C 137.93 -0.548962 -1.53265 0
M  V30 1457 O 139.119 -0.8226 -1.58416 0
M  V30 1458 C 136.219 -1.64834 -2.96113 0
M  V30 1459 C 135.392 -2.92971 -3.24787 0
M  V30 1460 C 134.451 -2.83485 -4.43309 0
M  V30 1461 O 133.477 -3.5744 -4.42973 0
M  V30 1462 N 134.679 -1.97929 -5.45714 0
M  V30 1463 H 137.444 -2.62889 -1.43909 0
M  V30 1464 H 135.005 -1.48427 -0.646617 0
M  V30 1465 H 136.997 -1.56084 -3.7339 0
M  V30 1466 H 135.567 -0.764118 -3.03117 0
M  V30 1467 H 134.787 -3.15749 -2.36 0
M  V30 1468 H 136.075 -3.77834 -3.40762 0
M  V30 1469 H 135.473 -1.37182 -5.48815 0
M  V30 1470 H 134.03 -1.95073 -6.21924 0
M  V30 1471 N 137.463 0.71206 -1.40597 0
M  V30 1472 C 138.413 1.81783 -1.37619 0
M  V30 1473 C 139.397 1.58896 -0.253162 0
M  V30 1474 O 140.589 1.70009 -0.492547 0
M  V30 1475 C 137.718 3.19944 -1.24462 0
M  V30 1476 C 136.804 3.48582 -2.4156 0
M  V30 1477 N 137.195 3.48016 -3.67041 0
M  V30 1478 C 135.493 3.79056 -2.35016 0
M  V30 1479 C 136.194 3.75096 -4.44609 0
M  V30 1480 N 135.17 3.94022 -3.74497 0
M  V30 1481 H 138.972 1.79683 -2.32575 0
M  V30 1482 H 136.486 0.91134 -1.34419 0
M  V30 1483 H 138.483 3.99133 -1.20411 0
M  V30 1484 H 137.143 3.23267 -0.304762 0
M  V30 1485 H 138.154 3.28782 -4.00153 0
M  V30 1486 H 134.831 3.89848 -1.49415 0
M  V30 1487 H 136.221 3.80934 -5.53479 0
M  V30 1488 N 138.941 1.26152 0.944643 0
M  V30 1489 C 139.904 1.07474 2.0244 0
M  V30 1490 C 140.904 0.0242064 1.60782 0
M  V30 1491 O 142.094 0.267302 1.72137 0
M  V30 1492 C 139.226 0.633956 3.34953 0
M  V30 1493 H 140.419 2.03336 2.20442 0
M  V30 1494 H 137.972 1.087 1.12312 0
M  V30 1495 H 138.707 -0.326811 3.22649 0
M  V30 1496 H 138.492 1.39247 3.66542 0
M  V30 1497 H 139.982 0.52501 4.14287 0
M  V30 1498 N 140.419 -1.14872 1.07899 0
M  V30 1499 C 141.382 -2.17986 0.708161 0
M  V30 1500 C 142.382 -1.58775 -0.25442 0
M  V30 1501 O 143.572 -1.74166 -0.034645 0
M  V30 1502 C 140.704 -3.40871 0.0446929 0
M  V30 1503 H 141.897 -2.52306 1.62116 0
M  V30 1504 H 139.45 -1.2943 0.876218 0
M  V30 1505 H 140.185 -3.12124 -0.880281 0
M  V30 1506 H 139.97 -3.8511 0.737091 0
M  V30 1507 H 141.46 -4.17121 -0.19991 0
M  V30 1508 N 141.898 -0.863906 -1.31812 0
M  V30 1509 C 142.808 -0.318461 -2.32428 0
M  V30 1510 C 143.824 0.568496 -1.64451 0
M  V30 1511 O 145 0.46666 -1.95919 0
M  V30 1512 C 142.065 0.476355 -3.43412 0
M  V30 1513 C 141.126 -0.43784 -4.27061 0
M  V30 1514 C 140.359 0.319138 -5.32745 0
M  V30 1515 O 140.582 1.54799 -5.48993 0
M  V30 1516 O 139.516 -0.319861 -6.01049 0
M  V30 1517 H 143.342 -1.15229 -2.80991 0
M  V30 1518 H 140.927 -0.627103 -1.35602 0
M  V30 1519 H 142.809 0.927156 -4.11074 0
M  V30 1520 H 141.484 1.28683 -2.97022 0
M  V30 1521 H 140.391 -0.937013 -3.62175 0
M  V30 1522 H 141.724 -1.21375 -4.77 0
M  V30 1523 N 143.376 1.44774 -0.622745 0
M  V30 1524 C 144.306 2.33382 0.0741861 0
M  V30 1525 C 145.287 1.47719 0.843387 0
M  V30 1526 O 146.472 1.76458 0.810934 0
M  V30 1527 C 143.602 3.30663 1.06204 0
M  V30 1528 C 142.556 4.26079 0.405037 0
M  V30 1529 C 141.882 5.13165 1.5022 0
M  V30 1530 C 143.182 5.1781 -0.683414 0
M  V30 1531 H 144.876 2.91905 -0.665713 0
M  V30 1532 H 142.422 1.40363 -0.321587 0
M  V30 1533 H 144.375 3.9153 1.55827 0
M  V30 1534 H 143.099 2.70331 1.83272 0
M  V30 1535 H 141.758 3.66532 -0.0704683 0
M  V30 1536 H 141.406 4.49191 2.26355 0
M  V30 1537 H 141.106 5.77812 1.06803 0
M  V30 1538 H 142.63 5.76902 2.00041 0
M  V30 1539 H 144.044 5.72661 -0.270631 0
M  V30 1540 H 142.441 5.91015 -1.04023 0
M  V30 1541 H 143.511 4.59326 -1.55395 0
M  V30 1542 N 144.854 0.36279 1.53368 0
M  V30 1543 C 145.764 -0.492994 2.29362 0
M  V30 1544 C 146.78 -1.09507 1.35219 0
M  V30 1545 O 147.956 -1.10662 1.68273 0
M  V30 1546 C 145.021 -1.61855 3.066 0
M  V30 1547 C 144.082 -1.04429 4.16405 0
M  V30 1548 C 143.315 -2.11621 4.89951 0
M  V30 1549 O 143.538 -3.32684 4.63333 0
M  V30 1550 O 142.472 -1.74835 5.75948 0
M  V30 1551 H 146.298 0.125331 3.03441 0
M  V30 1552 H 143.883 0.127253 1.48857 0
M  V30 1553 H 145.765 -2.27302 3.54841 0
M  V30 1554 H 144.44 -2.22233 2.3536 0
M  V30 1555 H 143.347 -0.353819 3.72423 0
M  V30 1556 H 144.68 -0.485113 4.89804 0
M  V30 1557 N 146.332 -1.57332 0.0918853 0
M  V30 1558 C 147.264 -2.10869 -0.898168 0
M  V30 1559 C 148.277 -1.04521 -1.24817 0
M  V30 1560 O 149.466 -1.31977 -1.20184 0
M  V30 1561 C 146.566 -2.57083 -2.2082 0
M  V30 1562 C 145.739 -3.87229 -2.03402 0
M  V30 1563 C 144.798 -4.19324 -3.17889 0
M  V30 1564 O 143.824 -4.88598 -2.91994 0
M  V30 1565 N 145.026 -3.74471 -4.43567 0
M  V30 1566 H 147.791 -2.96439 -0.440943 0
M  V30 1567 H 145.352 -1.61631 -0.0933064 0
M  V30 1568 H 147.344 -2.75602 -2.96354 0
M  V30 1569 H 145.914 -1.76541 -2.57977 0
M  V30 1570 H 145.134 -3.7789 -1.12218 0
M  V30 1571 H 146.422 -4.72379 -1.89038 0
M  V30 1572 H 145.82 -3.18546 -4.67488 0
M  V30 1573 H 144.377 -3.98151 -5.16061 0
M  V30 1574 N 147.81 0.181792 -1.56548 0
M  V30 1575 C 148.757 1.22521 -1.95595 0
M  V30 1576 C 149.727 1.4454 -0.818373 0
M  V30 1577 O 150.912 1.57454 -1.07763 0
M  V30 1578 C 148.052 2.56193 -2.31212 0
M  V30 1579 C 147.165 2.41641 -3.58097 0
M  V30 1580 C 146.3 3.68108 -3.82975 0
M  V30 1581 C 145.339 3.48445 -5.03242 0
M  V30 1582 N 144.476 4.66956 -5.24306 0
M  V30 1583 H 149.316 0.885226 -2.84548 0
M  V30 1584 H 146.853 0.425718 -1.40805 0
M  V30 1585 H 148.811 3.34088 -2.49882 0
M  V30 1586 H 147.441 2.88208 -1.45382 0
M  V30 1587 H 146.493 1.54976 -3.474 0
M  V30 1588 H 147.805 2.23052 -4.46149 0
M  V30 1589 H 146.959 4.54441 -4.01956 0
M  V30 1590 H 145.698 3.89666 -2.93278 0
M  V30 1591 H 144.703 2.60499 -4.8417 0
M  V30 1592 H 145.928 3.2832 -5.9446 0
M  V30 1593 H 143.874 4.88752 -4.37559 0
M  V30 1594 H 143.791 4.51242 -6.06561 0
M  V30 1595 H 145.059 5.54602 -5.47756 0
M  V30 1596 N 149.288 1.51039 0.449983 0
M  V30 1597 C 150.22 1.67617 1.56324 0
M  V30 1598 C 151.233 0.557083 1.52972 0
M  V30 1599 O 152.422 0.830989 1.57977 0
M  V30 1600 C 149.522 1.66402 2.95235 0
M  V30 1601 C 148.695 2.9469 3.23229 0
M  V30 1602 C 147.754 2.85832 4.41799 0
M  V30 1603 O 146.78 3.59785 4.41071 0
M  V30 1604 N 147.982 2.00821 5.44657 0
M  V30 1605 H 150.747 2.63648 1.42512 0
M  V30 1606 H 148.308 1.48767 0.638737 0
M  V30 1607 H 150.3 1.58062 3.72557 0
M  V30 1608 H 148.87 0.780182 3.02708 0
M  V30 1609 H 148.09 3.16996 2.34323 0
M  V30 1610 H 149.378 3.79636 3.38754 0
M  V30 1611 H 148.776 1.40091 5.48079 0
M  V30 1612 H 147.333 1.98368 6.20881 0
M  V30 1613 N 150.766 -0.704594 1.40972 0
M  V30 1614 C 151.714 -1.83994 1.42299 0
M  V30 1615 C 152.708 -1.66684 0.302111 0
M  V30 1616 O 153.914 -1.73655 0.473697 0
M  V30 1617 H 150.289 -0.606171 0.44504 0
M  V30 1618 H 152.26 -1.79992 2.38003 0
M  V30 1619 C 151.009 -3.21946 1.31323 0
M  V30 1620 H 150.332 -3.35878 2.16855 0
M  V30 1621 H 151.772 -4.01491 1.36311 0
M  V30 1622 C 150.231 -3.36891 0.0245977 0
M  V30 1623 O 150.761 -3.90687 -0.934153 0
M  V30 1624 N 148.967 -2.90559 -0.0485243 0
M  V30 1625 H 148.514 -2.46968 0.732419 0
M  V30 1626 H 148.472 -3.00937 -0.910171 0
M  V30 1627 N 152.244 -1.26651 -0.937939 0
M  V30 1628 C 153.154 -1.10276 -2.07066 0
M  V30 1629 C 154.17 -0.0354197 -1.73964 0
M  V30 1630 O 155.346 -0.239816 -1.99967 0
M  V30 1631 C 152.411 -0.740887 -3.38691 0
M  V30 1632 C 151.472 -1.88799 -3.85556 0
M  V30 1633 C 150.705 -1.54329 -5.10899 0
M  V30 1634 O 150.928 -0.446494 -5.6865 0
M  V30 1635 O 149.862 -2.37911 -5.52885 0
M  V30 1636 H 153.688 -2.05309 -2.23789 0
M  V30 1637 H 151.273 -1.05743 -1.0554 0
M  V30 1638 H 153.155 -0.55195 -4.1777 0
M  V30 1639 H 151.83 0.180022 -3.23199 0
M  V30 1640 H 150.737 -2.13191 -3.07409 0
M  V30 1641 H 152.07 -2.78874 -4.05574 0
M  V30 1642 N 153.722 1.14298 -1.08507 0
M  V30 1643 C 154.947 1.8976 -0.837001 0
M  V30 1644 C 155.372 1.78097 0.605228 0
M  V30 1645 O 154.73 1.12188 1.4242 0
M  V30 1646 C 154.778 3.37685 -1.26495 0
M  V30 1647 O 153.882 4.10281 -0.417514 0
M  V30 1648 H 153.223 0.590365 -0.303917 0
M  V30 1649 H 155.753 1.44672 -1.44676 0
M  V30 1650 H 155.763 3.88501 -1.24625 0
M  V30 1651 H 154.438 3.45492 -2.31534 0
M  V30 1652 H 153.015 3.69536 -0.499722 0
M  V30 1653 N 155.201 0.870884 1.31352 0
M  V30 1654 C 156.111 0.330783 2.32256 0
M  V30 1655 C 157.127 -0.559767 1.6475 0
M  V30 1656 O 158.303 -0.456263 1.96164 0
M  V30 1657 C 155.368 -0.458137 3.4366 0
M  V30 1658 C 154.429 0.460482 4.26823 0
M  V30 1659 C 153.662 -0.290881 5.32907 0
M  V30 1660 O 153.885 -1.51885 5.49806 0
M  V30 1661 O 152.819 0.351732 6.00871 0
M  V30 1662 H 156.645 1.16718 2.80376 0
M  V30 1663 H 154.23 0.634285 1.35267 0
M  V30 1664 H 156.112 -0.905343 4.1156 0
M  V30 1665 H 154.787 -1.27106 2.97701 0
M  V30 1666 H 153.694 0.956207 3.61673 0
M  V30 1667 H 155.027 1.23903 4.7635 0
M  V30 1668 N 156.679 -1.44442 0.630414 0
M  V30 1669 C 157.627 -2.32437 -0.0871428 0
M  V30 1670 C 158.621 -1.47304 -0.836525 0
M  V30 1671 O 159.827 -1.63653 -0.749506 0
M  V30 1672 H 156.202 -0.750533 -0.0469495 0
M  V30 1673 H 158.173 -2.90709 0.673096 0
M  V30 1674 C 156.922 -3.31288 -1.05563 0
M  V30 1675 H 156.245 -3.96805 -0.488426 0
M  V30 1676 H 157.685 -3.9554 -1.52721 0
M  V30 1677 C 156.144 -2.6016 -2.14052 0
M  V30 1678 O 156.674 -2.39997 -3.22124 0
M  V30 1679 N 154.88 -2.19911 -1.89967 0
M  V30 1680 H 154.427 -2.36509 -1.02085 0
M  V30 1681 H 154.385 -1.72646 -2.62756 0
M  V30 1682 N 158.157 -0.370918 -1.53173 0
M  V30 1683 C 159.104 0.473035 -2.259 0
M  V30 1684 C 160.074 1.07311 -1.26781 0
M  V30 1685 O 161.259 1.1046 -1.55574 0
M  V30 1686 C 158.399 1.60405 -3.05556 0
M  V30 1687 C 157.512 1.02863 -4.19575 0
M  V30 1688 C 156.647 2.12918 -4.86661 0
M  V30 1689 C 155.686 1.52869 -5.92704 0
M  V30 1690 N 154.823 2.56779 -6.53459 0
M  V30 1691 H 159.663 -0.153649 -2.97604 0
M  V30 1692 H 157.2 -0.0875946 -1.46839 0
M  V30 1693 H 159.158 2.27034 -3.50016 0
M  V30 1694 H 157.788 2.20131 -2.36097 0
M  V30 1695 H 156.84 0.252465 -3.79561 0
M  V30 1696 H 158.152 0.549642 -4.95762 0
M  V30 1697 H 157.306 2.87356 -5.34333 0
M  V30 1698 H 156.045 2.6417 -4.09958 0
M  V30 1699 H 155.05 0.769479 -5.44389 0
M  V30 1700 H 156.275 1.02435 -6.7133 0
M  V30 1701 H 154.221 3.07235 -5.79606 0
M  V30 1702 H 154.138 2.13583 -7.25202 0
M  V30 1703 H 155.406 3.30903 -7.05779 0
M  V30 1704 N 159.635 1.57281 -0.100228 0
M  V30 1705 C 160.582 2.14305 0.856858 0
M  V30 1706 C 161.552 1.06296 1.27634 0
M  V30 1707 O 162.737 1.34109 1.35718 0
M  V30 1708 C 159.877 2.73184 2.10866 0
M  V30 1709 C 158.99 3.95442 1.73925 0
M  V30 1710 C 158.125 4.42468 2.93931 0
M  V30 1711 C 157.164 5.57303 2.5314 0
M  V30 1712 N 156.301 5.99158 3.65997 0
M  V30 1713 H 161.141 2.95772 0.363726 0
M  V30 1714 H 158.678 1.46139 0.167858 0
M  V30 1715 H 160.636 3.05442 2.84185 0
M  V30 1716 H 159.266 1.94437 2.57671 0
M  V30 1717 H 158.318 3.69464 0.905554 0
M  V30 1718 H 159.63 4.78769 1.39935 0
M  V30 1719 H 158.784 4.76537 3.75496 0
M  V30 1720 H 157.523 3.58052 3.31134 0
M  V30 1721 H 156.528 5.22857 1.70003 0
M  V30 1722 H 157.753 6.43471 2.17075 0
M  V30 1723 H 155.699 5.17687 4.02909 0
M  V30 1724 H 155.616 6.77295 3.35869 0
M  V30 1725 H 156.884 6.3786 4.48057 0
M  V30 1726 N 161.113 -0.173488 1.56642 0
M  V30 1727 C 162.043 -1.2171 1.99271 0
M  V30 1728 C 163.024 -1.46289 0.867959 0
M  V30 1729 O 164.209 -1.5766 1.13388 0
M  V30 1730 C 161.339 -2.55651 2.35074 0
M  V30 1731 C 160.293 -2.45645 3.50489 0
M  V30 1732 C 159.619 -3.84056 3.72028 0
M  V30 1733 C 160.919 -1.96302 4.84007 0
M  V30 1734 H 162.613 -0.86275 2.867 0
M  V30 1735 H 160.159 -0.413571 1.37933 0
M  V30 1736 H 162.112 -3.2886 2.63494 0
M  V30 1737 H 160.836 -2.92869 1.44552 0
M  V30 1738 H 159.495 -1.7489 3.22194 0
M  V30 1739 H 159.143 -4.18664 2.788 0
M  V30 1740 H 158.843 -3.7823 4.49684 0
M  V30 1741 H 160.367 -4.58854 4.02846 0
M  V30 1742 H 161.781 -2.59284 5.11317 0
M  V30 1743 H 160.178 -2.01429 5.65284 0
M  V30 1744 H 161.248 -0.917226 4.76146 0
M  V30 1745 N 162.591 -1.51276 -0.441967 0
M  V30 1746 C 163.521 -1.752 -1.54361 0
M  V30 1747 C 164.502 -0.601682 -1.59103 0
M  V30 1748 O 165.687 -0.843913 -1.74905 0
M  V30 1749 C 162.817 -1.87282 -2.92477 0
M  V30 1750 C 161.771 -3.02687 -3.02596 0
M  V30 1751 C 161.097 -2.99947 -4.42647 0
M  V30 1752 C 162.397 -4.4273 -2.77106 0
M  V30 1753 H 164.091 -2.67442 -1.34592 0
M  V30 1754 H 161.637 -1.28694 -0.646048 0
M  V30 1755 H 163.59 -2.02602 -3.695 0
M  V30 1756 H 162.314 -0.916844 -3.13467 0
M  V30 1757 H 160.973 -2.87065 -2.28012 0
M  V30 1758 H 160.621 -2.02136 -4.60597 0
M  V30 1759 H 160.321 -3.77439 -4.50348 0
M  V30 1760 H 161.845 -3.17354 -5.2165 0
M  V30 1761 H 163.259 -4.58727 -3.43864 0
M  V30 1762 H 161.656 -5.21893 -2.96222 0
M  V30 1763 H 162.726 -4.53087 -1.72744 0
M  V30 1764 N 164.069 0.697108 -1.41344 0
M  V30 1765 C 165.317 1.45426 -1.40341 0
M  V30 1766 C 165.638 1.94996 -0.0128787 0
M  V30 1767 O 164.908 1.71599 0.945027 0
M  V30 1768 H 163.488 0.539594 -0.516573 0
M  V30 1769 H 166.15 0.825201 -1.76569 0
M  V30 1770 H 165.246 2.31817 -2.08967 0
M  V30 1771 N 165.547 1.27147 0.931209 0
M  V30 1772 C 166.457 1.11372 2.06478 0
M  V30 1773 C 167.473 0.044645 1.73943 0
M  V30 1774 O 168.649 0.250417 1.99837 0
M  V30 1775 C 165.714 0.758838 3.38294 0
M  V30 1776 C 164.775 1.90841 3.84549 0
M  V30 1777 C 164.008 1.57036 5.10074 0
M  V30 1778 O 164.231 0.476645 5.68405 0
M  V30 1779 O 163.165 2.40839 5.51616 0
M  V30 1780 H 166.991 2.06493 2.22698 0
M  V30 1781 H 164.576 1.06301 1.04978 0
M  V30 1782 H 166.458 0.574098 4.17471 0
M  V30 1783 H 165.133 -0.162879 3.2329 0
M  V30 1784 H 164.04 2.14819 3.06274 0
M  V30 1785 H 165.373 2.81021 4.04089 0
M  V30 1786 N 167.025 -1.13721 1.09112 0
M  V30 1787 C 168.274 -1.84275 0.82009 0
M  V30 1788 C 168.587 -1.84253 -0.656509 0
M  V30 1789 O 169.793 -2.50668 -1.04296 0
M  V30 1790 C 168.249 -3.30825 1.41714 0
M  V30 1791 C 167.857 -3.39244 2.92605 0
M  V30 1792 C 169.601 -4.06443 1.22492 0
M  V30 1793 C 167.508 -4.80047 3.45411 0
M  V30 1794 H 166.438 -0.690387 0.30312 0
M  V30 1795 H 169.089 -1.28146 1.31343 0
M  V30 1796 H 167.471 -3.86737 0.851498 0
M  V30 1797 H 168.645 -2.93344 3.55367 0
M  V30 1798 H 166.96 -2.77088 3.10823 0
M  V30 1799 H 169.557 -5.10387 1.59402 0
M  V30 1800 H 169.9 -4.15972 0.165299 0
M  V30 1801 H 170.433 -3.56852 1.75788 0
M  V30 1802 H 167.172 -4.75709 4.50978 0
M  V30 1803 H 166.692 -5.26455 2.87411 0
M  V30 1804 H 168.371 -5.48957 3.42425 0
M  V30 1805 N 168.503 -0.877838 -1.30888 0
M  V30 1806 C 169.749 -0.493426 -1.96706 0
M  V30 1807 C 170.082 0.953504 -1.6918 0
M  V30 1808 O 169.357 1.67266 -0.992594 0
M  V30 1809 C 169.64 -0.760429 -3.51979 0
M  V30 1810 C 169.493 -2.25747 -3.89048 0
M  V30 1811 C 170.812 -0.232148 -4.39487 0
M  V30 1812 H 167.931 -0.180746 -0.714493 0
M  V30 1813 H 170.573 -1.10052 -1.54882 0
M  V30 1814 H 168.723 -0.243715 -3.87735 0
M  V30 1815 H 170.395 -2.84204 -3.63354 0
M  V30 1816 H 168.638 -2.72694 -3.37373 0
M  V30 1817 H 169.309 -2.39491 -4.97341 0
M  V30 1818 H 171.785 -0.674314 -4.106 0
M  V30 1819 H 170.661 -0.448355 -5.47066 0
M  V30 1820 H 170.922 0.866297 -4.33529 0
M  V30 1821 N 169.982 1.44106 -0.638065 0
M  V30 1822 C 170.929 2.30715 0.062701 0
M  V30 1823 C 171.899 1.43882 0.829883 0
M  V30 1824 O 173.084 1.72775 0.809532 0
M  V30 1825 C 170.224 3.29258 1.03358 0
M  V30 1826 C 169.337 4.31192 0.26409 0
M  V30 1827 C 168.472 5.16825 1.22741 0
M  V30 1828 C 167.511 6.10462 0.447475 0
M  V30 1829 N 166.648 6.8877 1.36161 0
M  V30 1830 H 171.488 2.90096 -0.681781 0
M  V30 1831 H 169.025 1.42925 -0.347988 0
M  V30 1832 H 170.983 3.84886 1.60992 0
M  V30 1833 H 169.613 2.71562 1.74511 0
M  V30 1834 H 168.665 3.77981 -0.428295 0
M  V30 1835 H 169.977 4.97619 -0.343052 0
M  V30 1836 H 169.131 5.77004 1.87487 0
M  V30 1837 H 167.87 4.50488 1.86847 0
M  V30 1838 H 166.875 5.49386 -0.213433 0
M  V30 1839 H 168.1 6.78837 -0.188968 0
M  V30 1840 H 166.046 6.25096 1.98975 0
M  V30 1841 H 165.963 7.51663 0.808656 0
M  V30 1842 H 167.231 7.53467 1.99769 0
M  V30 1843 N 171.46 0.379036 1.52974 0
M  V30 1844 C 172.69 -0.20649 2.05566 0
M  V30 1845 C 173.098 -1.41906 1.25137 0
M  V30 1846 O 172.441 -1.81421 0.288464 0
M  V30 1847 C 172.503 -0.651086 3.53555 0
M  V30 1848 C 172.167 0.446626 4.54812 0
M  V30 1849 C 173.164 1.30079 5.03364 0
M  V30 1850 C 170.849 0.610719 4.98573 0
M  V30 1851 C 172.843 2.30426 5.94292 0
M  V30 1852 C 170.53 1.61754 5.89304 0
M  V30 1853 C 171.528 2.46274 6.37054 0
M  V30 1854 O 171.216 3.45237 7.25994 0
M  V30 1855 H 170.948 -0.0372381 0.674974 0
M  V30 1856 H 173.502 0.539718 1.98182 0
M  V30 1857 H 171.732 -1.44911 3.58522 0
M  V30 1858 H 173.421 -1.16112 3.88938 0
M  V30 1859 H 174.187 1.18527 4.70294 0
M  V30 1860 H 170.066 -0.0374044 4.60985 0
M  V30 1861 H 173.61 2.96432 6.31485 0
M  V30 1862 H 169.507 1.73348 6.21788 0
M  V30 1863 H 170.275 3.41124 7.44027 0
M  V30 1864 N 172.938 -1.57226 0.108567 0
M  V30 1865 C 174.163 -1.99604 -0.563303 0
M  V30 1866 C 174.588 -0.987563 -1.6009 0
M  V30 1867 O 173.946 0.0421687 -1.81251 0
M  V30 1868 C 173.994 -3.40902 -1.17552 0
M  V30 1869 O 173.098 -3.42896 -2.2912 0
M  V30 1870 H 172.439 -0.648704 -0.1417 0
M  V30 1871 H 174.969 -2.03679 0.193961 0
M  V30 1872 H 174.979 -3.78886 -1.51357 0
M  V30 1873 H 173.654 -4.1382 -0.415445 0
M  V30 1874 H 172.231 -3.1672 -1.96832 0
M  V30 1875 N 174.416 0.165178 -1.56732 0
M  V30 1876 C 175.364 1.22369 -1.97809 0
M  V30 1877 C 176.358 1.45488 -0.867741 0
M  V30 1878 O 177.564 1.45995 -1.05288 0
M  V30 1879 H 173.939 0.411486 -0.629431 0
M  V30 1880 H 175.91 0.850425 -2.86025 0
M  V30 1881 C 174.659 2.55403 -2.35934 0
M  V30 1882 H 173.982 2.38438 -3.20916 0
M  V30 1883 H 175.422 3.2814 -2.68514 0
M  V30 1884 C 173.881 3.14611 -1.20506 0
M  V30 1885 O 174.411 3.98626 -0.496016 0
M  V30 1886 N 172.617 2.7379 -0.97403 0
M  V30 1887 H 172.164 2.0557 -1.55238 0
M  V30 1888 H 172.122 3.1374 -0.203573 0
M  V30 1889 N 175.894 1.51508 0.433938 0
M  V30 1890 C 177.14 1.64588 1.18484 0
M  V30 1891 C 177.473 0.362666 1.90784 0
M  V30 1892 O 176.748 -0.637892 1.83742 0
M  V30 1893 C 177.031 2.85149 2.19913 0
M  V30 1894 C 176.884 4.23456 1.51674 0
M  V30 1895 C 178.203 3.01227 3.20858 0
M  V30 1896 H 175.322 0.598994 0.429389 0
M  V30 1897 H 177.964 1.84002 0.473647 0
M  V30 1898 H 176.114 2.68729 2.80566 0
M  V30 1899 H 177.786 4.51552 0.943322 0
M  V30 1900 H 176.029 4.25998 0.819035 0
M  V30 1901 H 176.7 5.03812 2.2556 0
M  V30 1902 H 179.176 3.16382 2.70263 0
M  V30 1903 H 178.052 3.87141 3.89118 0
M  V30 1904 H 178.313 2.13447 3.8716 0
M  V30 1905 N 177.372 -0.689602 1.41712 0
M  V30 1906 C 178.621 -1.44534 1.40686 0
M  V30 1907 C 178.934 -1.95588 0.0213352 0
M  V30 1908 O 180.14 -2.71271 -0.111534 0
M  V30 1909 C 178.596 -2.61387 2.47396 0
M  V30 1910 C 178.204 -2.17094 3.91885 0
M  V30 1911 C 179.948 -3.38986 2.55517 0
M  V30 1912 C 177.855 -3.3094 4.90135 0
M  V30 1913 H 176.785 -0.542925 0.52321 0
M  V30 1914 H 179.436 -0.748054 1.6756 0
M  V30 1915 H 177.818 -3.33412 2.13664 0
M  V30 1916 H 178.992 -1.52318 4.34897 0
M  V30 1917 H 177.307 -1.52473 3.8748 0
M  V30 1918 H 179.904 -4.23747 3.26102 0
M  V30 1919 H 180.247 -3.84578 1.59391 0
M  V30 1920 H 180.78 -2.74021 2.8837 0
M  V30 1921 H 177.519 -2.90355 5.87685 0
M  V30 1922 H 177.039 -3.94546 4.51767 0
M  V30 1923 H 178.718 -3.9663 5.11169 0
M  V30 1924 N 178.85 -1.27639 -0.924453 0
M  V30 1925 C 179.782 -1.06442 -2.02985 0
M  V30 1926 C 180.795 -0.0194771 -1.62788 0
M  V30 1927 O 181.984 -0.261388 -1.76576 0
M  V30 1928 C 179.084 -0.59327 -3.33667 0
M  V30 1929 C 178.257 -1.71123 -4.02537 0
M  V30 1930 C 177.316 -1.23527 -5.11495 0
M  V30 1931 O 176.342 -1.93553 -5.35281 0
M  V30 1932 N 177.544 -0.0926678 -5.80426 0
M  V30 1933 H 180.309 -2.01633 -2.2173 0
M  V30 1934 H 177.87 -1.19248 -1.09505 0
M  V30 1935 H 179.862 -0.258686 -4.03872 0
M  V30 1936 H 178.432 0.265502 -3.1147 0
M  V30 1937 H 177.652 -2.21593 -3.26022 0
M  V30 1938 H 178.94 -2.46145 -4.45298 0
M  V30 1939 H 178.338 0.491741 -5.63559 0
M  V30 1940 H 176.895 0.182714 -6.51544 0
M  V30 1941 N 180.328 1.1314 -1.09713 0
M  V30 1942 C 181.258 2.20748 -0.761102 0
M  V30 1943 C 182.239 1.68061 0.262566 0
M  V30 1944 O 183.424 1.93765 0.129977 0
M  V30 1945 C 180.554 3.46812 -0.184054 0
M  V30 1946 C 179.508 4.12606 -1.13757 0
M  V30 1947 C 178.834 5.33031 -0.422083 0
M  V30 1948 C 180.134 4.59603 -2.48118 0
M  V30 1949 H 181.828 2.49113 -1.66082 0
M  V30 1950 H 179.374 1.19734 -0.799987 0
M  V30 1951 H 181.327 4.21353 0.0631215 0
M  V30 1952 H 180.051 3.17851 0.750868 0
M  V30 1953 H 178.71 3.40036 -1.37007 0
M  V30 1954 H 178.358 5.00335 0.517072 0
M  V30 1955 H 178.058 5.77999 -1.05788 0
M  V30 1956 H 179.582 6.10325 -0.183277 0
M  V30 1957 H 180.996 5.25552 -2.29059 0
M  V30 1958 H 179.393 5.15321 -3.07514 0
M  V30 1959 H 180.463 3.73971 -3.08665 0
M  V30 1960 N 181.806 0.884767 1.30421 0
M  V30 1961 C 182.736 0.367574 2.30589 0
M  V30 1962 C 183.717 -0.549464 1.60981 0
M  V30 1963 O 184.902 -0.46336 1.88591 0
M  V30 1964 C 182.032 -0.418944 3.44764 0
M  V30 1965 C 180.986 0.406316 4.26067 0
M  V30 1966 C 180.312 -0.506793 5.32293 0
M  V30 1967 C 181.612 1.64832 4.95608 0
M  V30 1968 H 183.306 1.20462 2.74097 0
M  V30 1969 H 180.852 0.580695 1.31772 0
M  V30 1970 H 182.805 -0.791395 4.13902 0
M  V30 1971 H 181.529 -1.28964 3.0006 0
M  V30 1972 H 180.188 0.760903 3.58617 0
M  V30 1973 H 179.836 -1.37519 4.83836 0
M  V30 1974 H 179.536 0.0415828 5.87585 0
M  V30 1975 H 181.06 -0.875764 6.04287 0
M  V30 1976 H 182.474 1.34646 5.57264 0
M  V30 1977 H 180.871 2.13688 5.60765 0
M  V30 1978 H 181.941 2.39284 4.21748 0
M  V30 1979 N 183.284 -1.43765 0.645699 0
M  V30 1980 C 184.234 -2.27884 -0.0726442 0
M  V30 1981 C 185.218 -1.39483 -0.802086 0
M  V30 1982 O 186.41 -1.63174 -0.685791 0
M  V30 1983 C 183.539 -3.27055 -1.04356 0
M  V30 1984 C 182.625 -4.22944 -0.312985 0
M  V30 1985 N 183.016 -5.01391 0.666386 0
M  V30 1986 C 181.314 -4.42528 -0.55546 0
M  V30 1987 C 182.015 -5.71217 1.09935 0
M  V30 1988 N 180.991 -5.41856 0.435137 0
M  V30 1989 H 184.793 -2.85949 0.678988 0
M  V30 1990 H 182.307 -1.55378 0.472368 0
M  V30 1991 H 184.304 -3.86089 -1.57292 0
M  V30 1992 H 182.964 -2.70551 -1.79534 0
M  V30 1993 H 183.975 -5.07252 1.04481 0
M  V30 1994 H 180.652 -3.97104 -1.28899 0
M  V30 1995 H 182.042 -6.44202 1.90929 0
M  V30 1996 N 184.763 -0.387143 -1.52771 0
M  V30 1997 C 186.012 0.19697 -2.00736 0
M  V30 1998 C 186.325 1.48082 -1.27793 0
M  V30 1999 O 187.531 2.14485 -1.66458 0
M  V30 2000 C 185.987 0.401568 -3.57653 0
M  V30 2001 C 185.595 -0.868907 -4.39493 0
M  V30 2002 C 187.339 0.942164 -4.13912 0
M  V30 2003 C 185.246 -0.632705 -5.88006 0
M  V30 2004 H 184.176 0.0773827 -0.750019 0
M  V30 2005 H 186.827 -0.50921 -1.76293 0
M  V30 2006 H 185.209 1.16954 -3.78335 0
M  V30 2007 H 186.383 -1.64133 -4.30577 0
M  V30 2008 H 184.698 -1.33429 -3.94443 0
M  V30 2009 H 187.295 1.13455 -5.22525 0
M  V30 2010 H 187.638 1.9106 -3.69867 0
M  V30 2011 H 188.171 0.233814 -3.97112 0
M  V30 2012 H 184.91 -1.57208 -6.36369 0
M  V30 2013 H 184.43 0.100825 -5.99715 0
M  V30 2014 H 186.109 -0.26642 -6.46451 0
M  V30 2015 N 186.241 1.57166 -0.116904 0
M  V30 2016 C 187.188 2.15202 0.83408 0
M  V30 2017 C 188.158 1.07644 1.26499 0
M  V30 2018 O 189.343 1.35541 1.34288 0
M  V30 2019 C 186.483 2.75405 2.07957 0
M  V30 2020 C 185.596 3.97264 1.69721 0
M  V30 2021 C 184.731 4.45561 2.89221 0
M  V30 2022 C 183.77 5.59956 2.47215 0
M  V30 2023 N 182.907 6.03006 3.59622 0
M  V30 2024 H 187.747 2.96141 0.332335 0
M  V30 2025 H 185.284 1.46309 0.152349 0
M  V30 2026 H 187.242 3.08439 2.80929 0
M  V30 2027 H 185.872 1.97159 2.55594 0
M  V30 2028 H 184.924 3.70404 0.866316 0
M  V30 2029 H 186.236 4.80226 1.34849 0
M  V30 2030 H 185.39 4.80493 3.7042 0
M  V30 2031 H 184.129 3.61544 3.27318 0
M  V30 2032 H 183.134 5.2463 1.64448 0
M  V30 2033 H 184.359 6.45738 2.10238 0
M  V30 2034 H 182.305 5.21931 3.97396 0
M  V30 2035 H 182.222 6.80819 3.28667 0
M  V30 2036 H 183.49 6.42576 4.41267 0
M  V30 2037 N 187.719 -0.156864 1.56817 0
M  V30 2038 C 188.944 -0.890331 1.87318 0
M  V30 2039 C 189.369 -1.74394 0.704855 0
M  V30 2040 O 188.727 -1.77972 -0.345786 0
M  V30 2041 C 188.775 -1.73102 3.16336 0
M  V30 2042 O 187.879 -2.83422 2.99576 0
M  V30 2043 H 187.22 -0.24857 0.615718 0
M  V30 2044 H 189.75 -0.150649 2.04045 0
M  V30 2045 H 189.76 -2.12803 3.48107 0
M  V30 2046 H 188.435 -1.10412 4.00976 0
M  V30 2047 H 187.012 -2.47199 2.7919 0
M  V30 2048 N 189.197 -1.51736 -0.425897 0
M  V30 2049 C 190.145 -1.74464 -1.53834 0
M  V30 2050 C 191.139 -0.611241 -1.57988 0
M  V30 2051 O 192.345 -0.792899 -1.61596 0
M  V30 2052 H 188.72 -0.551437 -0.511293 0
M  V30 2053 H 190.691 -2.67694 -1.31843 0
M  V30 2054 C 189.44 -1.8972 -2.91379 0
M  V30 2055 H 188.763 -2.76344 -2.88919 0
M  V30 2056 H 190.203 -2.09629 -3.68553 0
M  V30 2057 C 188.662 -0.65992 -3.30374 0
M  V30 2058 O 189.192 0.180083 -4.01296 0
M  V30 2059 N 187.398 -0.500677 -2.86254 0
M  V30 2060 H 186.945 -1.18532 -2.28709 0
M  V30 2061 H 186.903 0.325903 -3.12706 0
M  V30 2062 N 190.675 0.682077 -1.42076 0
M  V30 2063 C 191.622 1.79578 -1.44984 0
M  V30 2064 C 192.592 1.6332 -0.302614 0
M  V30 2065 O 193.777 1.83978 -0.505633 0
M  V30 2066 C 190.917 3.1756 -1.35091 0
M  V30 2067 C 190.03 3.45156 -2.59791 0
M  V30 2068 C 189.165 4.72826 -2.42093 0
M  V30 2069 C 188.204 4.93433 -3.62202 0
M  V30 2070 N 187.341 6.12338 -3.43491 0
M  V30 2071 H 192.181 1.76427 -2.40161 0
M  V30 2072 H 189.718 0.861376 -1.19242 0
M  V30 2073 H 191.676 3.97287 -1.27354 0
M  V30 2074 H 190.306 3.19854 -0.435133 0
M  V30 2075 H 189.358 2.59736 -2.77923 0
M  V30 2076 H 190.67 3.5628 -3.49094 0
M  V30 2077 H 189.824 5.60631 -2.319 0
M  V30 2078 H 188.563 4.63973 -1.50268 0
M  V30 2079 H 187.568 4.04073 -3.72834 0
M  V30 2080 H 188.793 5.04136 -4.54998 0
M  V30 2081 H 186.739 6.04672 -2.54377 0
M  V30 2082 H 186.656 6.2429 -4.26377 0
M  V30 2083 H 187.924 7.02841 -3.37097 0
M  V30 2084 N 192.153 1.28127 0.917671 0
M  V30 2085 C 193.383 1.17722 1.6978 0
M  V30 2086 C 193.791 -0.267261 1.87303 0
M  V30 2087 O 193.134 -1.19286 1.39702 0
M  V30 2088 C 193.196 1.79958 3.11216 0
M  V30 2089 C 192.86 3.29187 3.16993 0
M  V30 2090 C 193.857 4.25679 2.98485 0
M  V30 2091 C 191.542 3.70075 3.39632 0
M  V30 2092 C 193.536 5.61035 3.02521 0
M  V30 2093 C 191.223 5.05557 3.433 0
M  V30 2094 C 192.221 6.00847 3.24764 0
M  V30 2095 O 191.909 7.33859 3.28187 0
M  V30 2096 H 191.641 0.409788 0.537634 0
M  V30 2097 H 194.195 1.69694 1.15728 0
M  V30 2098 H 192.425 1.22475 3.66793 0
M  V30 2099 H 194.114 1.64125 3.71238 0
M  V30 2100 H 194.88 3.95426 2.80826 0
M  V30 2101 H 190.759 2.96373 3.53106 0
M  V30 2102 H 194.303 6.35388 2.87971 0
M  V30 2103 H 190.2 5.35462 3.60486 0
M  V30 2104 H 190.968 7.42436 3.44575 0
M  V30 2105 N 193.631 -1.12557 1.10312 0
M  V30 2106 C 194.561 -2.20341 0.772798 0
M  V30 2107 C 195.542 -1.68198 -0.25365 0
M  V30 2108 O 196.727 -1.93831 -0.119699 0
M  V30 2109 C 193.857 -3.46709 0.202443 0
M  V30 2110 C 192.811 -4.11996 1.15943 0
M  V30 2111 C 192.137 -5.328 0.450345 0
M  V30 2112 C 193.437 -4.5828 2.50552 0
M  V30 2113 H 195.131 -2.48229 1.674 0
M  V30 2114 H 192.677 -1.19308 0.806326 0
M  V30 2115 H 194.63 -4.2138 -0.0407752 0
M  V30 2116 H 193.354 -3.18245 -0.734001 0
M  V30 2117 H 192.013 -3.39305 1.38808 0
M  V30 2118 H 191.661 -5.00602 -0.490531 0
M  V30 2119 H 191.361 -5.7743 1.08851 0
M  V30 2120 H 192.885 -6.10219 0.215642 0
M  V30 2121 H 194.299 -5.2433 2.31843 0
M  V30 2122 H 192.696 -5.13683 3.10242 0
M  V30 2123 H 193.766 -3.72329 3.10643 0
M  V30 2124 N 195.109 -0.891671 -1.2995 0
M  V30 2125 C 196.337 -0.52866 -2.00032 0
M  V30 2126 C 196.752 0.884574 -1.66795 0
M  V30 2127 O 196.109 1.5827 -0.908669 0
M  V30 2128 C 196.16 -0.701814 -3.54622 0
M  V30 2129 O 195.881 -2.05942 -3.86678 0
M  V30 2130 C 197.382 -0.342683 -4.41973 0
M  V30 2131 H 194.602 -0.203659 -0.639347 0
M  V30 2132 H 197.146 -1.19881 -1.65677 0
M  V30 2133 H 195.301 -0.0789468 -3.8732 0
M  V30 2134 H 195.715 -2.08291 -4.81368 0
M  V30 2135 H 197.189 -0.514709 -5.49595 0
M  V30 2136 H 197.666 0.71975 -4.33262 0
M  V30 2137 H 198.272 -0.942154 -4.14733 0
M  V30 2138 N 196.587 1.43421 -0.653314 0
M  V30 2139 C 197.833 2.02111 -0.166992 0
M  V30 2140 C 198.166 1.51423 1.21592 0
M  V30 2141 O 197.441 0.707389 1.8118 0
M  V30 2142 C 197.724 3.5966 -0.177948 0
M  V30 2143 C 197.577 4.20579 -1.59478 0
M  V30 2144 C 198.896 4.37413 0.4856 0
M  V30 2145 H 196.015 0.734374 -0.0621557 0
M  V30 2146 H 198.657 1.70717 -0.834016 0
M  V30 2147 H 196.807 3.86537 0.390032 0
M  V30 2148 H 198.479 4.04732 -2.21336 0
M  V30 2149 H 196.722 3.77226 -2.14204 0
M  V30 2150 H 197.393 5.29665 -1.5543 0
M  V30 2151 H 199.869 4.161 0.00234528 0
M  V30 2152 H 198.745 5.47075 0.447207 0
M  V30 2153 H 199.006 4.13672 1.55974 0
M  V30 2154 N 198.065 0.39524 1.52563 0
M  V30 2155 C 199.013 -0.451859 2.28169 0
M  V30 2156 C 200.007 -1.05792 1.32304 0
M  V30 2157 O 201.213 -0.997718 1.49818 0
M  V30 2158 H 197.588 -0.164481 0.733792 0
M  V30 2159 H 199.559 0.207199 2.9768 0
M  V30 2160 C 198.308 -1.56385 3.10546 0
M  V30 2161 H 197.631 -1.10682 3.84174 0
M  V30 2162 H 199.071 -2.13067 3.66577 0
M  V30 2163 C 197.53 -2.52328 2.23231 0
M  V30 2164 O 198.06 -3.5588 1.86312 0
M  V30 2165 N 196.266 -2.22209 1.87274 0
M  V30 2166 H 195.813 -1.38033 2.17496 0
M  V30 2167 H 195.771 -2.86652 1.29143 0
M  V30 2168 N 199.544 -1.57102 0.125237 0
M  V30 2169 C 200.491 -2.15641 -0.822655 0
M  V30 2170 C 201.461 -1.08313 -1.25927 0
M  V30 2171 O 202.646 -1.36251 -1.33567 0
M  V30 2172 C 199.786 -2.76504 -2.06494 0
M  V30 2173 C 198.899 -3.98158 -1.67612 0
M  V30 2174 C 198.034 -4.47088 -2.86854 0
M  V30 2175 C 197.073 -5.6126 -2.44242 0
M  V30 2176 N 196.21 -6.04905 -3.56419 0
M  V30 2177 H 201.05 -2.96313 -0.316625 0
M  V30 2178 H 198.587 -1.46388 -0.144588 0
M  V30 2179 H 200.545 -3.09925 -2.79289 0
M  V30 2180 H 199.175 -1.98512 -2.54545 0
M  V30 2181 H 198.227 -3.70858 -0.846661 0
M  V30 2182 H 199.539 -4.80934 -1.32301 0
M  V30 2183 H 198.693 -4.82451 -3.67867 0
M  V30 2184 H 197.432 -3.63275 -3.25396 0
M  V30 2185 H 196.437 -5.25495 -1.61663 0
M  V30 2186 H 197.662 -6.46843 -2.0681 0
M  V30 2187 H 195.608 -5.24032 -3.94623 0
M  V30 2188 H 195.525 -6.82552 -3.25051 0
M  V30 2189 H 196.793 -6.44907 -4.37853 0
M  V30 2190 N 201.022 0.148545 -1.56898 0
M  V30 2191 C 202.438 0.501131 -1.51528 0
M  V30 2192 C 202.638 1.83458 -0.833399 0
M  V30 2193 O 201.694 2.49259 -0.40328 0
M  V30 2194 C 203.007 0.512864 -2.96294 0
M  V30 2195 C 204.555 0.598487 -3.07225 0
M  V30 2196 C 205.03 0.640897 -4.53494 0
M  V30 2197 N 206.521 0.703163 -4.57832 0
M  V30 2198 C 207.256 0.756935 -5.68382 0
M  V30 2199 N 206.752 0.770147 -6.88506 0
M  V30 2200 N 208.545 0.797698 -5.56411 0
M  V30 2201 H 200.696 -0.725532 -1.99624 0
M  V30 2202 H 202.959 -0.264358 -0.910395 0
M  V30 2203 H 202.665 -0.398691 -3.49433 0
M  V30 2204 H 202.539 1.35133 -3.52163 0
M  V30 2205 H 204.926 1.50046 -2.54106 0
M  V30 2206 H 205.007 -0.267093 -2.54402 0
M  V30 2207 H 204.651 -0.256915 -5.0725 0
M  V30 2208 H 204.581 1.52295 -5.04097 0
M  V30 2209 H 207.072 0.700314 -3.71354 0
M  V30 2210 H 207.385 0.812983 -7.68512 0
M  V30 2211 H 205.73 0.738049 -6.9107 0
M  V30 2212 H 208.921 0.784535 -4.61479 0
M  V30 2213 H 209.094 0.83614 -6.42583 0
M  V30 2214 N 202.5 1.5196 0.417844 0
M  V30 2215 C 203.43 1.77634 1.51554 0
M  V30 2216 C 204.411 0.626918 1.58126 0
M  V30 2217 O 205.596 0.871632 1.7354 0
M  V30 2218 C 202.726 1.91911 2.8946 0
M  V30 2219 C 201.68 3.07463 2.97743 0
M  V30 2220 C 201.006 3.06951 4.37819 0
M  V30 2221 C 202.306 4.47082 2.70027 0
M  V30 2222 H 204 2.6955 1.3032 0
M  V30 2223 H 201.546 1.29706 0.625492 0
M  V30 2224 H 203.499 2.08455 3.6623 0
M  V30 2225 H 202.223 0.966598 3.11969 0
M  V30 2226 H 200.882 2.90656 2.23416 0
M  V30 2227 H 200.53 2.09438 4.57323 0
M  V30 2228 H 200.23 3.84556 4.44286 0
M  V30 2229 H 201.754 3.25613 5.16535 0
M  V30 2230 H 203.168 4.6414 3.36522 0
M  V30 2231 H 201.565 5.2654 2.87881 0
M  V30 2232 H 202.635 4.55777 1.65514 0
M  V30 2233 N 203.978 -0.674533 1.42435 0
M  V30 2234 C 205.389 -1.25514 1.38214 0
M  V30 2235 C 205.74 -1.96055 0.0755464 0
M  V30 2236 O 204.865 -2.00028 -0.8257 0
M  V30 2237 C 205.46 -2.28269 2.50357 0
M  V30 2238 C 204.019 -2.81856 2.49467 0
M  V30 2239 C 203.166 -1.56182 2.29134 0
M  V30 2240 H 206.117 -0.467902 1.51646 0
M  V30 2241 H 206.138 -3.10009 2.20624 0
M  V30 2242 H 205.65 -1.769 3.45439 0
M  V30 2243 H 203.751 -3.37346 1.58204 0
M  V30 2244 H 203.864 -3.30854 3.46515 0
M  V30 2245 H 202.228 -1.82761 1.774 0
M  V30 2246 H 203.011 -1.06778 3.26272 0
M  V30 2247 N 205.456 -1.28612 -0.910864 0
M  V30 2248 C 206.419 -1.12803 -1.9952 0
M  V30 2249 C 207.419 -0.0668264 -1.60661 0
M  V30 2250 O 208.609 -0.312847 -1.71368 0
M  V30 2251 C 205.741 -0.72254 -3.33155 0
M  V30 2252 H 206.934 -2.09109 -2.14973 0
M  V30 2253 H 204.487 -1.11639 -1.09391 0
M  V30 2254 H 205.222 0.241152 -3.23402 0
M  V30 2255 H 205.007 -1.48916 -3.62721 0
M  V30 2256 H 206.497 -0.634666 -4.12749 0
M  V30 2257 N 206.934 1.1197 -1.10907 0
M  V30 2258 C 207.864 2.19928 -0.784473 0
M  V30 2259 C 208.845 1.6833 0.244726 0
M  V30 2260 O 210.03 1.93892 0.109418 0
M  V30 2261 C 207.16 3.46597 -0.220827 0
M  V30 2262 C 206.114 4.11376 -1.18127 0
M  V30 2263 C 205.44 5.32554 -0.478594 0
M  V30 2264 C 206.74 4.56945 -2.52979 0
M  V30 2265 H 208.434 2.47337 -1.68715 0
M  V30 2266 H 205.98 1.18879 -0.812642 0
M  V30 2267 H 207.933 4.21396 0.0184278 0
M  V30 2268 H 206.657 3.1863 0.717113 0
M  V30 2269 H 205.316 3.38564 -1.40606 0
M  V30 2270 H 204.964 5.00856 0.463976 0
M  V30 2271 H 204.664 5.76844 -1.11912 0
M  V30 2272 H 206.188 6.10096 -0.248 0
M  V30 2273 H 207.602 5.23093 -2.3462 0
M  V30 2274 H 205.999 5.1203 -3.12962 0
M  V30 2275 H 207.069 3.70676 -3.12614 0
M  V30 2276 N 208.412 0.89855 1.29475 0
M  V30 2277 C 209.342 0.39201 2.30186 0
M  V30 2278 C 210.323 -0.532359 1.61555 0
M  V30 2279 O 211.508 -0.443331 1.89072 0
M  V30 2280 C 208.638 -0.382353 3.45189 0
M  V30 2281 C 207.592 0.451483 4.25612 0
M  V30 2282 C 206.918 -0.450307 5.328 0
M  V30 2283 C 208.218 1.70079 4.93832 0
M  V30 2284 H 209.912 1.23362 2.72804 0
M  V30 2285 H 207.458 0.594638 1.31149 0
M  V30 2286 H 209.411 -0.747451 4.14718 0
M  V30 2287 H 208.135 -1.25774 3.01411 0
M  V30 2288 H 206.794 0.798897 3.57789 0
M  V30 2289 H 206.442 -1.32379 4.85268 0
M  V30 2290 H 206.142 0.103902 5.87508 0
M  V30 2291 H 207.666 -0.811623 6.05182 0
M  V30 2292 H 209.08 1.40549 5.55805 0
M  V30 2293 H 207.477 2.19623 5.58467 0
M  V30 2294 H 208.547 2.43744 4.19186 0
M  V30 2295 N 209.89 -1.43072 0.660911 0
M  V30 2296 C 210.8 -2.34585 -0.0264163 0
M  V30 2297 C 211.816 -1.54316 -0.803898 0
M  V30 2298 O 212.992 -1.86939 -0.749391 0
M  V30 2299 C 210.057 -3.32689 -0.975639 0
M  V30 2300 C 209.118 -4.2886 -0.194236 0
M  V30 2301 C 208.351 -5.22278 -1.09825 0
M  V30 2302 O 208.574 -5.20299 -2.33763 0
M  V30 2303 O 207.508 -5.99228 -0.566513 0
M  V30 2304 H 211.334 -2.94869 0.727034 0
M  V30 2305 H 208.919 -1.43342 0.42111 0
M  V30 2306 H 210.801 -3.92995 -1.52094 0
M  V30 2307 H 209.476 -2.74898 -1.70918 0
M  V30 2308 H 208.383 -3.72011 0.394835 0
M  V30 2309 H 209.716 -4.89655 0.499899 0
M  V30 2310 N 211.368 -0.403325 -1.52352 0
M  V30 2311 C 212.315 0.425011 -2.26853 0
M  V30 2312 C 213.285 1.04598 -1.29029 0
M  V30 2313 O 214.47 1.07135 -1.57882 0
M  V30 2314 C 211.61 1.53888 -3.08889 0
M  V30 2315 C 210.723 0.939396 -4.21663 0
M  V30 2316 C 209.858 2.02547 -4.91068 0
M  V30 2317 C 208.897 1.40263 -5.95813 0
M  V30 2318 N 208.034 2.4286 -6.58759 0
M  V30 2319 H 212.874 -0.21674 -2.97211 0
M  V30 2320 H 210.411 -0.118722 -1.4662 0
M  V30 2321 H 212.369 2.19558 -3.54753 0
M  V30 2322 H 210.999 2.15074 -2.40714 0
M  V30 2323 H 210.051 0.171898 -3.80011 0
M  V30 2324 H 211.363 0.44436 -4.96817 0
M  V30 2325 H 210.517 2.75958 -5.40308 0
M  V30 2326 H 209.256 2.55415 -4.15469 0
M  V30 2327 H 208.261 0.653833 -5.45898 0
M  V30 2328 H 209.486 0.881719 -6.73352 0
M  V30 2329 H 207.432 2.94871 -5.85992 0
M  V30 2330 H 207.349 1.98152 -7.2957 0
M  V30 2331 H 208.617 3.15858 -7.12639 0
M  V30 2332 N 212.846 1.57033 -0.133567 0
M  V30 2333 C 213.794 2.17348 0.828412 0
M  V30 2334 C 214.788 1.12671 1.26498 0
M  V30 2335 O 215.994 1.30947 1.23502 0
M  V30 2336 H 212.369 0.695775 0.285309 0
M  V30 2337 H 214.34 2.96935 0.295372 0
M  V30 2338 C 213.089 2.79893 2.06289 0
M  V30 2339 H 212.412 3.60147 1.73592 0
M  V30 2340 H 213.852 3.25615 2.71572 0
M  V30 2341 C 212.311 1.77713 2.86216 0
M  V30 2342 O 212.841 1.23937 3.82103 0
M  V30 2343 N 211.047 1.47321 2.50489 0
M  V30 2344 H 210.594 1.91243 1.7258 0
M  V30 2345 H 210.552 0.79199 3.04261 0
M  V30 2346 N 214.325 -0.140222 1.56975 0
M  V30 2347 C 215.288 -1.15689 1.97861 0
M  V30 2348 C 216.288 -1.3549 0.865974 0
M  V30 2349 O 217.478 -1.32367 1.13246 0
M  V30 2350 C 214.61 -2.51582 2.30042 0
M  V30 2351 H 215.803 -0.805971 2.88867 0
M  V30 2352 H 213.356 -0.383801 1.51515 0
M  V30 2353 H 214.091 -2.91632 1.41849 0
M  V30 2354 H 213.876 -2.38569 3.11171 0
M  V30 2355 H 215.366 -3.24792 2.62488 0
M  V30 2356 N 215.803 -1.52179 -0.40978 0
M  V30 2357 C 216.736 -1.70196 -1.52015 0
M  V30 2358 C 217.714 -0.549542 -1.53032 0
M  V30 2359 O 218.898 -0.776815 -1.71749 0
M  V30 2360 C 216.025 -1.74069 -2.90547 0
M  V30 2361 C 215.071 -2.95601 -3.07445 0
M  V30 2362 S 215.904 -4.55956 -2.80827 0
M  V30 2363 C 217.06 -4.62614 -4.21591 0
M  V30 2364 H 217.293 -2.64109 -1.36504 0
M  V30 2365 H 214.826 -1.4221 -0.601312 0
M  V30 2366 H 216.784 -1.76985 -3.70387 0
M  V30 2367 H 215.445 -0.812835 -3.034 0
M  V30 2368 H 214.638 -2.94791 -4.08796 0
M  V30 2369 H 214.24 -2.90569 -2.35469 0
M  V30 2370 H 216.532 -4.39951 -5.15218 0
M  V30 2371 H 217.475 -5.64548 -4.27424 0
M  V30 2372 H 217.883 -3.91654 -4.06531 0
M  V30 2373 N 217.281 0.66697 -1.42791 0
M  V30 2374 C 218.697 0.981027 -1.25889 0
M  V30 2375 C 218.897 2.00793 -0.168695 0
M  V30 2376 O 217.953 2.48321 0.45747 0
M  V30 2377 C 219.266 1.47838 -2.61848 0
M  V30 2378 C 220.814 1.59575 -2.69267 0
M  V30 2379 C 221.289 2.12704 -4.05612 0
M  V30 2380 N 222.78 2.20026 -4.07606 0
M  V30 2381 C 223.515 2.62227 -5.09926 0
M  V30 2382 N 223.011 3.03824 -6.22626 0
M  V30 2383 N 224.804 2.62045 -4.97281 0
M  V30 2384 H 216.955 -0.0127891 -2.12396 0
M  V30 2385 H 219.218 0.0568258 -0.946295 0
M  V30 2386 H 218.924 0.798299 -3.4252 0
M  V30 2387 H 218.798 2.45579 -2.86305 0
M  V30 2388 H 221.185 2.26687 -1.88936 0
M  V30 2389 H 221.266 0.60302 -2.48591 0
M  V30 2390 H 220.91 1.46198 -4.86404 0
M  V30 2391 H 220.84 3.12782 -4.23645 0
M  V30 2392 H 223.331 1.90708 -3.2625 0
M  V30 2393 H 223.644 3.34734 -6.96544 0
M  V30 2394 H 221.989 3.01662 -6.26119 0
M  V30 2395 H 225.18 2.28916 -4.08308 0
M  V30 2396 H 225.353 2.94613 -5.77154 0
M  V30 2397 N 218.759 1.29093 0.90403 0
M  V30 2398 C 220.005 1.16986 1.65656 0
M  V30 2399 C 220.338 -0.278925 1.92186 0
M  V30 2400 O 219.613 -1.2019 1.5292 0
M  V30 2401 C 219.896 1.97908 3.0084 0
M  V30 2402 C 219.749 3.50903 2.81403 0
M  V30 2403 C 221.068 1.80208 4.01513 0
M  V30 2404 H 218.187 0.426346 0.601164 0
M  V30 2405 H 220.829 1.58518 1.04747 0
M  V30 2406 H 218.979 1.62616 3.52829 0
M  V30 2407 H 220.651 3.96153 2.36348 0
M  V30 2408 H 218.894 3.76045 2.1627 0
M  V30 2409 H 219.565 4.02791 3.77443 0
M  V30 2410 H 222.041 2.11025 3.58619 0
M  V30 2411 H 220.917 2.39184 4.94047 0
M  V30 2412 H 221.178 0.756119 4.35586 0
M  V30 2413 N 220.237 -1.11381 1.11499 0
M  V30 2414 C 221.462 -1.87475 0.887019 0
M  V30 2415 C 221.887 -1.79639 -0.557796 0
M  V30 2416 O 221.245 -1.15924 -1.39396 0
M  V30 2417 C 221.293 -3.34213 1.35403 0
M  V30 2418 O 220.397 -4.0903 0.526146 0
M  V30 2419 H 219.738 -0.582099 0.319463 0
M  V30 2420 H 222.268 -1.40785 1.48461 0
M  V30 2421 H 222.278 -3.8506 1.34881 0
M  V30 2422 H 220.953 -3.39232 2.40612 0
M  V30 2423 H 219.53 -3.68082 0.597522 0
M  V30 2424 N 221.715 -0.905404 -1.28997 0
M  V30 2425 C 222.645 -0.404212 -2.29975 0
M  V30 2426 C 223.626 0.523784 -1.61835 0
M  V30 2427 O 224.811 0.433298 -1.89304 0
M  V30 2428 C 221.941 0.364042 -3.45387 0
M  V30 2429 C 220.895 -0.474048 -4.25367 0
M  V30 2430 C 220.221 0.422045 -5.33032 0
M  V30 2431 C 221.521 -1.72696 -4.92923 0
M  V30 2432 H 223.215 -1.24807 -2.72146 0
M  V30 2433 H 220.761 -0.601585 -1.30832 0
M  V30 2434 H 222.714 0.725447 -4.15109 0
M  V30 2435 H 221.438 1.24174 -3.02074 0
M  V30 2436 H 220.097 -0.81786 -3.57361 0
M  V30 2437 H 219.745 1.29804 -4.85963 0
M  V30 2438 H 219.445 -0.135057 -5.87445 0
M  V30 2439 H 220.969 0.779517 -6.05604 0
M  V30 2440 H 222.383 -1.43495 -5.55051 0
M  V30 2441 H 220.78 -2.22582 -5.57295 0
M  V30 2442 H 221.85 -2.45964 -4.17887 0
M  V30 2443 N 223.193 1.4272 -0.668489 0
M  V30 2444 C 224.47 1.95248 -0.117373 0
M  V30 2445 C 224.85 1.60919 1.36632 0
M  V30 2446 O 224.198 0.902095 2.09939 0
M  V30 2447 C 224.408 3.46927 -0.379806 0
M  V30 2448 C 225.756 4.23588 -0.292923 0
M  V30 2449 O 226.78 3.5482 -0.313204 0
M  V30 2450 O 225.639 5.46017 -0.229697 0
M  V30 2451 H 222.733 0.827 0.00079152 0
M  V30 2452 H 225.279 1.52581 -0.742783 0
M  V30 2453 H 224.051 3.65096 -1.40786 0
M  V30 2454 H 223.674 3.96627 0.277923 0
M  V30 2455 N 224.671 0.411399 1.52136 0
M  V30 2456 C 225.634 -0.401089 2.25663 0
M  V30 2457 C 226.634 -0.971732 1.28117 0
M  V30 2458 O 227.824 -0.850254 1.52041 0
M  V30 2459 C 224.956 -1.56483 3.02863 0
M  V30 2460 H 226.149 0.24295 2.98914 0
M  V30 2461 H 223.702 0.163968 1.55438 0
M  V30 2462 H 224.437 -2.24567 2.33967 0
M  V30 2463 H 224.222 -1.16211 3.74483 0
M  V30 2464 H 225.712 -2.13951 3.58629 0
M  V30 2465 N 226.149 -1.5696 0.141893 0
M  V30 2466 C 227.112 -2.15316 -0.785587 0
M  V30 2467 C 228.112 -1.09366 -1.1788 0
M  V30 2468 O 229.302 -1.35031 -1.10056 0
M  V30 2469 C 226.434 -2.71211 -2.06537 0
M  V30 2470 H 227.627 -2.98608 -0.278041 0
M  V30 2471 H 225.18 -1.5593 -0.107519 0
M  V30 2472 H 225.915 -1.91571 -2.6167 0
M  V30 2473 H 225.7 -3.4872 -1.79268 0
M  V30 2474 H 227.19 -3.16189 -2.72789 0
M  V30 2475 N 227.627 0.131896 -1.57047 0
M  V30 2476 C 228.875 0.840269 -1.83804 0
M  V30 2477 C 229.196 1.81017 -0.72512 0
M  V30 2478 O 228.466 1.94272 0.251995 0
M  V30 2479 H 227.046 0.313294 -0.678127 0
M  V30 2480 H 229.708 0.122294 -1.94516 0
M  V30 2481 H 228.804 1.39335 -2.79271 0
M  V30 2482 N 229.106 1.52395 0.401703 0
M  V30 2483 C 230.054 1.7689 1.51039 0
M  V30 2484 C 231.048 0.636298 1.56996 0
M  V30 2485 O 232.254 0.818507 1.60314 0
M  V30 2486 H 228.629 0.559502 0.502456 0
M  V30 2487 H 230.6 2.69757 1.27568 0
M  V30 2488 C 229.349 1.94331 2.88324 0
M  V30 2489 H 228.672 2.80905 2.84486 0
M  V30 2490 H 230.112 2.15466 3.65172 0
M  V30 2491 C 228.571 0.712396 3.29282 0
M  V30 2492 O 229.101 -0.116218 4.01532 0
M  V30 2493 N 227.307 0.546154 2.85422 0
M  V30 2494 H 226.854 1.22156 2.26794 0
M  V30 2495 H 226.812 -0.276113 3.13185 0
M  V30 2496 N 230.584 -0.659388 1.43143 0
M  V30 2497 C 231.494 -1.80167 1.50256 0
M  V30 2498 C 232.51 -1.69571 0.390106 0
M  V30 2499 O 233.686 -1.90849 0.643319 0
M  V30 2500 C 230.751 -3.16409 1.41725 0
M  V30 2501 C 229.812 -3.38848 2.63591 0
M  V30 2502 C 229.045 -4.68591 2.55458 0
M  V30 2503 O 229.268 -5.47532 1.59891 0
M  V30 2504 O 228.202 -4.92614 3.45854 0
M  V30 2505 H 232.028 -1.77121 2.46702 0
M  V30 2506 H 229.613 -0.817092 1.25076 0
M  V30 2507 H 231.495 -3.9768 1.39387 0
M  V30 2508 H 230.17 -3.20059 0.484118 0
M  V30 2509 H 229.077 -2.57366 2.71502 0
M  V30 2510 H 230.41 -3.4004 3.55856 0
M  V30 2511 N 232.062 -1.29571 -0.897171 0
M  V30 2512 C 233.31 -1.17456 -1.64464 0
M  V30 2513 C 233.631 0.273698 -1.9307 0
M  V30 2514 O 232.901 1.18684 -1.55855 0
M  V30 2515 H 231.481 -0.431706 -0.609622 0
M  V30 2516 H 234.143 -1.62531 -1.07562 0
M  V30 2517 H 233.239 -1.72648 -2.59998 0
M  V30 2518 N 233.54 1.10788 -1.12088 0
M  V30 2519 C 234.765 1.87002 -0.896949 0
M  V30 2520 C 235.19 1.79933 0.548261 0
M  V30 2521 O 234.548 1.16662 1.38779 0
M  V30 2522 C 234.596 3.3349 -1.37174 0
M  V30 2523 O 233.7 4.08745 -0.547831 0
M  V30 2524 H 233.041 0.580397 -0.322545 0
M  V30 2525 H 235.571 1.39996 -1.49206 0
M  V30 2526 H 235.581 3.84339 -1.36922 0
M  V30 2527 H 234.256 3.37951 -2.42408 0
M  V30 2528 H 232.833 3.6776 -0.617034 0
M  V30 2529 N 235.018 0.912232 1.28515 0
M  V30 2530 C 236.264 0.554851 1.95686 0
M  V30 2531 C 236.619 -0.89138 1.70506 0
M  V30 2532 O 235.912 -1.62529 1.01464 0
M  V30 2533 C 236.106 0.798392 3.48368 0
M  V30 2534 C 235.935 2.26674 3.88393 0
M  V30 2535 C 234.705 2.91657 4.12631 0
M  V30 2536 C 236.903 3.24303 3.99164 0
M  V30 2537 N 234.885 4.28805 4.39317 0
M  V30 2538 C 236.256 4.4661 4.30046 0
M  V30 2539 C 238.311 3.19723 3.81683 0
M  V30 2540 C 237.014 5.64915 4.45268 0
M  V30 2541 C 239.04 4.37325 3.98121 0
M  V30 2542 C 238.402 5.58406 4.29375 0
M  V30 2543 H 234.501 0.252876 0.739985 0
M  V30 2544 H 237.085 1.17565 1.55199 0
M  V30 2545 H 235.256 0.20688 3.87849 0
M  V30 2546 H 236.988 0.405193 4.02666 0
M  V30 2547 H 233.743 2.42393 4.06869 0
M  V30 2548 H 234.167 4.99712 4.56746 0
M  V30 2549 H 238.809 2.27191 3.56573 0
M  V30 2550 H 236.527 6.57927 4.6921 0
M  V30 2551 H 240.113 4.35282 3.86033 0
M  V30 2552 H 238.993 6.47889 4.41825 0
M  V30 2553 N 236.496 -1.42363 0.676048 0
M  V30 2554 C 237.743 -2.01522 0.19883 0
M  V30 2555 C 238.071 -1.53456 -1.19505 0
M  V30 2556 O 237.326 -0.727967 -1.81657 0
M  V30 2557 C 237.625 -3.56929 0.183431 0
M  V30 2558 C 237.291 -4.24431 1.52215 0
M  V30 2559 C 235.953 -4.42585 1.8887 0
M  V30 2560 C 238.305 -4.62459 2.40377 0
M  V30 2561 C 235.633 -4.96039 3.13309 0
M  V30 2562 C 237.985 -5.17294 3.64129 0
M  V30 2563 C 236.649 -5.33661 4.00951 0
M  V30 2564 H 235.919 -0.737419 0.0727571 0
M  V30 2565 H 238.566 -1.70531 0.871281 0
M  V30 2566 H 236.871 -3.87594 -0.572532 0
M  V30 2567 H 238.568 -4.00486 -0.203035 0
M  V30 2568 H 235.158 -4.10661 1.22701 0
M  V30 2569 H 239.342 -4.48105 2.13343 0
M  V30 2570 H 234.598 -5.06896 3.41857 0
M  V30 2571 H 238.772 -5.45704 4.32644 0
M  V30 2572 H 236.399 -5.74845 4.9745 0
M  V30 2573 N 237.974 -0.419461 -1.51915 0
M  V30 2574 C 239.204 0.151915 -2.06041 0
M  V30 2575 C 239.612 1.38539 -1.28855 0
M  V30 2576 O 238.955 1.80592 -0.336463 0
M  V30 2577 C 239.017 0.557119 -3.55157 0
M  V30 2578 C 238.681 -0.567054 -4.53468 0
M  V30 2579 C 239.678 -1.43379 -4.99738 0
M  V30 2580 C 237.363 -0.742693 -4.96779 0
M  V30 2581 C 239.357 -2.46102 -5.87973 0
M  V30 2582 C 237.044 -1.77322 -5.84808 0
M  V30 2583 C 238.042 -2.63078 -6.30301 0
M  V30 2584 O 237.73 -3.64364 -7.16585 0
M  V30 2585 H 237.462 0.0193293 -0.675724 0
M  V30 2586 H 240.016 -0.592073 -1.96682 0
M  V30 2587 H 238.246 1.35355 -3.62238 0
M  V30 2588 H 239.935 1.05759 -3.9188 0
M  V30 2589 H 240.701 -1.30954 -4.66986 0
M  V30 2590 H 236.58 -0.0848307 -4.60922 0
M  V30 2591 H 240.124 -3.13071 -6.23404 0
M  V30 2592 H 236.021 -1.89773 -6.16974 0
M  V30 2593 H 236.789 -3.60731 -7.34721 0
M  V30 2594 N 239.452 1.56882 -0.150215 0
M  V30 2595 C 240.701 1.95403 0.500071 0
M  V30 2596 C 241.014 1.03777 1.658 0
M  V30 2597 O 242.22 1.31889 2.37313 0
M  V30 2598 C 240.676 3.4738 0.941018 0
M  V30 2599 C 240.284 4.47596 -0.190158 0
M  V30 2600 C 242.028 3.9476 1.56091 0
M  V30 2601 C 239.935 5.90787 0.269237 0
M  V30 2602 H 238.865 0.729515 0.190588 0
M  V30 2603 H 241.516 1.81988 -0.235074 0
M  V30 2604 H 239.898 3.56138 1.73152 0
M  V30 2605 H 241.072 4.50536 -0.967157 0
M  V30 2606 H 239.387 4.10151 -0.718666 0
M  V30 2607 H 241.984 4.99181 1.9163 0
M  V30 2608 H 242.327 3.36494 2.45107 0
M  V30 2609 H 242.86 3.88932 0.835249 0
M  V30 2610 H 239.599 6.52879 -0.585621 0
M  V30 2611 H 239.119 5.912 1.01204 0
M  V30 2612 H 240.798 6.42979 0.720176 0
M  V30 2613 N 240.93 -0.123565 1.57115 0
M  V30 2614 C 241.88 -1.1575 1.96433 0
M  V30 2615 C 242.864 -1.37313 0.838686 0
M  V30 2616 O 244.056 -1.38482 1.10235 0
M  V30 2617 C 241.185 -2.48526 2.36833 0
M  V30 2618 C 240.271 -2.30457 3.5602 0
M  V30 2619 N 240.662 -1.8219 4.71848 0
M  V30 2620 C 238.96 -2.61129 3.61563 0
M  V30 2621 C 239.661 -1.77721 5.53886 0
M  V30 2622 N 238.637 -2.21899 4.96248 0
M  V30 2623 H 242.439 -0.776797 2.83449 0
M  V30 2624 H 239.953 -0.331364 1.58983 0
M  V30 2625 H 241.95 -3.233 2.63216 0
M  V30 2626 H 240.61 -2.87358 1.5118 0
M  V30 2627 H 241.621 -1.51805 4.95152 0
M  V30 2628 H 238.298 -3.03678 2.86507 0
M  V30 2629 H 239.688 -1.41697 6.56789 0
M  V30 2630 N 242.408 -1.52605 -0.393616 0
M  V30 2631 C 243.819 -1.59417 -0.971761 0
M  V30 2632 C 244.17 -0.444173 -1.91106 0
M  V30 2633 O 243.295 0.433382 -2.12016 0
M  V30 2634 C 243.89 -2.88936 -1.76921 0
M  V30 2635 C 242.449 -2.98175 -2.29714 0
M  V30 2636 C 241.596 -2.54491 -1.10135 0
M  V30 2637 H 244.547 -1.57751 -0.173317 0
M  V30 2638 H 244.568 -2.75163 -2.62804 0
M  V30 2639 H 244.08 -3.72616 -1.08532 0
M  V30 2640 H 242.181 -2.19024 -3.01429 0
M  V30 2641 H 242.294 -4.02726 -2.59517 0
M  V30 2642 H 240.658 -2.08702 -1.45999 0
M  V30 2643 H 241.441 -3.4056 -0.432874 0
M  V30 2644 N 243.887 0.651787 -1.4349 0
M  V30 2645 C 245.134 1.41167 -1.45183 0
M  V30 2646 C 245.462 1.94349 -0.0766601 0
M  V30 2647 O 244.717 1.72804 0.918555 0
M  V30 2648 C 245.016 2.60914 -2.44251 0
M  V30 2649 C 244.682 2.26142 -3.9009 0
M  V30 2650 C 243.344 2.16371 -4.2981 0
M  V30 2651 C 245.696 1.98334 -4.81989 0
M  V30 2652 C 243.024 1.7695 -5.5938 0
M  V30 2653 C 245.376 1.6041 -6.11924 0
M  V30 2654 C 244.04 1.49166 -6.5062 0
M  V30 2655 H 243.31 0.516566 -0.531263 0
M  V30 2656 H 245.957 0.741099 -1.76579 0
M  V30 2657 H 244.262 3.3311 -2.06265 0
M  V30 2658 H 245.959 3.19127 -2.42815 0
M  V30 2659 H 242.549 2.34658 -3.58655 0
M  V30 2660 H 246.733 2.04803 -4.52072 0
M  V30 2661 H 241.989 1.66831 -5.88198 0
M  V30 2662 H 246.163 1.37925 -6.82605 0
M  V30 2663 H 243.79 1.1839 -7.50925 0
M  V30 2664 N 245.365 1.30045 0.890287 0
M  V30 2665 C 246.611 1.19747 1.64415 0
M  V30 2666 C 246.966 -0.246591 1.90813 0
M  V30 2667 O 246.259 -1.174 1.51419 0
M  V30 2668 C 246.453 1.95409 2.99249 0
M  V30 2669 C 246.282 3.47025 2.86013 0
M  V30 2670 C 245.052 4.1638 2.86279 0
M  V30 2671 C 247.25 4.42353 2.62351 0
M  V30 2672 N 245.232 5.54293 2.63879 0
M  V30 2673 C 246.603 5.67792 2.49022 0
M  V30 2674 C 248.658 4.32009 2.47533 0
M  V30 2675 C 247.361 6.8406 2.22383 0
M  V30 2676 C 249.387 5.48038 2.22279 0
M  V30 2677 C 248.749 6.72455 2.09722 0
M  V30 2678 H 244.848 0.493223 0.60684 0
M  V30 2679 H 247.432 1.6399 1.04954 0
M  V30 2680 H 245.603 1.53565 3.56752 0
M  V30 2681 H 247.335 1.77298 3.63796 0
M  V30 2682 H 244.09 3.68164 2.97913 0
M  V30 2683 H 244.514 6.26852 2.55706 0
M  V30 2684 H 249.156 3.36503 2.55979 0
M  V30 2685 H 246.874 7.79612 2.12675 0
M  V30 2686 H 250.46 5.41939 2.11643 0
M  V30 2687 H 249.34 7.60722 1.90453 0
M  V30 2688 N 246.843 -1.10192 1.12674 0
M  V30 2689 C 247.79 -2.16606 0.796906 0
M  V30 2690 C 248.76 -1.64394 -0.237476 0
M  V30 2691 O 249.945 -1.90474 -0.111484 0
M  V30 2692 C 247.085 -3.44116 0.26043 0
M  V30 2693 C 246.198 -4.10268 1.35293 0
M  V30 2694 C 245.333 -5.25507 0.775621 0
M  V30 2695 C 244.372 -5.83567 1.84706 0
M  V30 2696 N 243.509 -6.90179 1.28829 0
M  V30 2697 H 248.349 -2.44163 1.70846 0
M  V30 2698 H 245.886 -1.19846 0.85295 0
M  V30 2699 H 247.844 -4.17143 -0.0686814 0
M  V30 2700 H 246.474 -3.16901 -0.614274 0
M  V30 2701 H 245.526 -3.35184 1.79877 0
M  V30 2702 H 246.838 -4.4946 2.16303 0
M  V30 2703 H 245.992 -6.05398 0.397327 0
M  V30 2704 H 244.731 -4.87656 -0.0656581 0
M  V30 2705 H 243.736 -5.02344 2.23452 0
M  V30 2706 H 244.961 -6.23482 2.69161 0
M  V30 2707 H 242.907 -6.54322 0.468881 0
M  V30 2708 H 242.824 -7.28097 2.03497 0
M  V30 2709 H 244.092 -7.73844 0.937311 0
M  V30 2710 N 248.321 -0.919034 -1.28029 0
M  V30 2711 C 249.251 -0.428581 -2.29533 0
M  V30 2712 C 250.232 0.50659 -1.62381 0
M  V30 2713 O 251.417 0.413195 -1.89753 0
M  V30 2714 C 248.547 0.327388 -3.45753 0
M  V30 2715 C 247.501 -0.519137 -4.2484 0
M  V30 2716 C 246.827 0.365486 -5.33449 0
M  V30 2717 C 248.127 -1.77914 -4.91064 0
M  V30 2718 H 249.821 -1.27687 -2.70807 0
M  V30 2719 H 247.367 -0.615428 -1.30186 0
M  V30 2720 H 249.32 0.681378 -4.15855 0
M  V30 2721 H 248.044 1.20963 -3.03374 0
M  V30 2722 H 246.703 -0.855717 -3.56473 0
M  V30 2723 H 246.351 1.24642 -4.87312 0
M  V30 2724 H 246.051 -0.197356 -5.87268 0
M  V30 2725 H 247.575 0.715241 -6.06396 0
M  V30 2726 H 248.989 -1.49374 -5.53498 0
M  V30 2727 H 247.386 -2.2848 -5.54903 0
M  V30 2728 H 248.456 -2.50382 -4.15255 0
M  V30 2729 N 249.799 1.42003 -0.683588 0
M  V30 2730 C 251.215 1.55625 -0.353976 0
M  V30 2731 C 251.415 1.66151 1.14 0
M  V30 2732 O 250.471 1.63329 1.92561 0
M  V30 2733 C 251.784 2.80171 -1.092 0
M  V30 2734 C 253.332 2.93954 -1.07518 0
M  V30 2735 C 253.807 4.21372 -1.79471 0
M  V30 2736 N 255.298 4.28303 -1.76381 0
M  V30 2737 C 256.033 5.25729 -2.28904 0
M  V30 2738 N 255.529 6.29254 -2.89846 0
M  V30 2739 N 257.322 5.17586 -2.19228 0
M  V30 2740 H 249.473 1.33415 -1.6527 0
M  V30 2741 H 251.736 0.64282 -0.696769 0
M  V30 2742 H 251.442 2.78561 -2.14701 0
M  V30 2743 H 251.316 3.7133 -0.662862 0
M  V30 2744 H 253.703 2.95086 -0.028475 0
M  V30 2745 H 253.784 2.04002 -1.54328 0
M  V30 2746 H 253.428 4.21001 -2.84114 0
M  V30 2747 H 253.358 5.10275 -1.30104 0
M  V30 2748 H 255.849 3.54119 -1.31939 0
M  V30 2749 H 256.162 6.99964 -3.27522 0
M  V30 2750 H 254.507 6.29791 -2.93919 0
M  V30 2751 H 257.698 4.35631 -1.71299 0
M  V30 2752 H 257.871 5.93348 -2.60466 0
M  V30 2753 N 251.277 0.427512 1.51691 0
M  V30 2754 C 252.502 -0.143601 2.06902 0
M  V30 2755 C 252.927 -1.36536 1.29382 0
M  V30 2756 O 252.285 -1.78289 0.329043 0
M  V30 2757 C 252.333 -0.454207 3.57728 0
M  V30 2758 O 251.437 -1.54228 3.82475 0
M  V30 2759 H 250.778 -0.00617128 0.663971 0
M  V30 2760 H 253.308 0.606014 1.95419 0
M  V30 2761 H 253.318 -0.707525 4.01818 0
M  V30 2762 H 251.993 0.438812 4.13579 0
M  V30 2763 H 250.57 -1.2797 3.50254 0
M  V30 2764 N 252.755 -1.56801 0.158532 0
M  V30 2765 C 253.665 -2.20916 -0.789518 0
M  V30 2766 C 254.681 -1.1969 -1.26294 0
M  V30 2767 O 255.857 -1.52308 -1.31773 0
M  V30 2768 C 252.922 -2.82727 -2.00665 0
M  V30 2769 C 251.983 -3.99114 -1.58134 0
M  V30 2770 C 251.216 -4.57968 -2.74045 0
M  V30 2771 O 251.439 -4.15704 -3.90572 0
M  V30 2772 O 250.373 -5.48047 -2.48855 0
M  V30 2773 H 254.199 -3.02464 -0.273681 0
M  V30 2774 H 251.784 -1.4924 -0.0690548 0
M  V30 2775 H 253.666 -3.21968 -2.71872 0
M  V30 2776 H 252.341 -2.04184 -2.51179 0
M  V30 2777 H 251.248 -3.64567 -0.839155 0
M  V30 2778 H 252.581 -4.79212 -1.12325 0
M  V30 2779 N 254.233 0.115231 -1.57178 0
M  V30 2780 C 255.481 0.820727 -1.84685 0
M  V30 2781 C 255.802 1.80237 -0.744279 0
M  V30 2782 O 255.072 1.94529 0.231375 0
M  V30 2783 H 253.652 0.306084 -0.681411 0
M  V30 2784 H 256.314 0.101656 -1.94635 0
M  V30 2785 H 255.41 1.36366 -2.80733 0
M  V30 2786 N 255.711 1.52812 0.385517 0
M  V30 2787 C 256.988 1.5861 1.14465 0
M  V30 2788 C 257.368 0.381402 2.07626 0
M  V30 2789 O 256.716 -0.629999 2.19643 0
M  V30 2790 C 256.926 2.92664 1.90128 0
M  V30 2791 C 258.274 3.46526 2.45367 0
M  V30 2792 O 259.298 2.94562 2.0028 0
M  V30 2793 O 258.157 4.37323 3.27736 0
M  V30 2794 H 255.251 0.639855 0.523941 0
M  V30 2795 H 257.797 1.65149 0.390389 0
M  V30 2796 H 256.569 3.71788 1.22022 0
M  V30 2797 H 256.192 2.89527 2.72507 0
M  V30 2798 N 257.189 -0.644168 1.43834 0
M  V30 2799 C 258.137 -1.77793 1.49974 0
M  V30 2800 C 259.131 -1.65253 0.372536 0
M  V30 2801 O 260.337 -1.7149 0.546924 0
M  V30 2802 H 256.712 -0.58675 0.47035 0
M  V30 2803 H 258.683 -1.69736 2.45423 0
M  V30 2804 C 257.432 -3.16087 1.4486 0
M  V30 2805 H 256.755 -3.26378 2.30905 0
M  V30 2806 H 258.195 -3.95349 1.53217 0
M  V30 2807 C 256.654 -3.36484 0.167463 0
M  V30 2808 O 257.184 -3.94298 -0.767609 0
M  V30 2809 N 255.39 -2.90504 0.0747556 0
M  V30 2810 H 254.937 -2.4364 0.836507 0
M  V30 2811 H 254.895 -3.04527 -0.781714 0
M  V30 2812 N 258.668 -1.30515 -0.883378 0
M  V30 2813 C 259.917 -1.18795 -1.63005 0
M  V30 2814 C 260.23 0.255923 -1.93919 0
M  V30 2815 O 261.436 0.494654 -2.66956 0
M  V30 2816 C 259.892 -2.07878 -2.93794 0
M  V30 2817 C 259.5 -3.57184 -2.70414 0
M  V30 2818 C 261.244 -2.04924 -3.71761 0
M  V30 2819 C 259.151 -4.38317 -3.97029 0
M  V30 2820 H 258.081 -0.441031 -0.611562 0
M  V30 2821 H 260.732 -1.55275 -0.977854 0
M  V30 2822 H 259.114 -1.64283 -3.60315 0
M  V30 2823 H 260.288 -4.08937 -2.12384 0
M  V30 2824 H 258.603 -3.61976 -2.0582 0
M  V30 2825 H 261.2 -2.62792 -4.65665 0
M  V30 2826 H 261.543 -1.0331 -4.03277 0
M  V30 2827 H 262.076 -2.46649 -3.12104 0
M  V30 2828 H 258.815 -5.40632 -3.70671 0
M  V30 2829 H 258.335 -3.91326 -4.54559 0
M  V30 2830 H 260.014 -4.49834 -4.65036 0
M  V30 2831 N 260.146 1.09593 -1.13257 0
M  V30 2832 C 261.392 1.82003 -0.89458 0
M  V30 2833 C 261.725 1.85402 0.577906 0
M  V30 2834 O 261 1.32099 1.42759 0
M  V30 2835 C 261.283 3.28237 -1.48096 0
M  V30 2836 C 261.136 3.3312 -3.02244 0
M  V30 2837 C 262.455 4.24871 -1.14774 0
M  V30 2838 H 259.574 0.66077 -0.326424 0
M  V30 2839 H 262.216 1.28389 -1.40058 0
M  V30 2840 H 260.366 3.74024 -1.05062 0
M  V30 2841 H 262.038 2.95748 -3.54021 0
M  V30 2842 H 260.281 2.72756 -3.37323 0
M  V30 2843 H 260.952 4.3613 -3.38371 0
M  V30 2844 H 263.428 3.87361 -1.51957 0
M  V30 2845 H 262.304 5.25532 -1.58452 0
M  V30 2846 H 262.565 4.42058 -0.0611849 0
M  V30 2847 N 261.624 0.925811 1.2754 0
M  V30 2848 C 262.87 0.566092 1.94739 0
M  V30 2849 C 263.203 -0.890057 1.72603 0
M  V30 2850 O 262.478 -1.63467 1.05399 0
M  V30 2851 C 262.761 0.89054 3.48915 0
M  V30 2852 C 262.614 2.4003 3.80402 0
M  V30 2853 C 263.933 0.395101 4.38323 0
M  V30 2854 H 261.052 0.20714 0.707292 0
M  V30 2855 H 263.694 1.15725 1.50691 0
M  V30 2856 H 261.844 0.387452 3.86563 0
M  V30 2857 H 263.516 2.97494 3.52555 0
M  V30 2858 H 261.759 2.85028 3.2702 0
M  V30 2859 H 262.43 2.57785 4.8811 0
M  V30 2860 H 264.906 0.826241 4.07814 0
M  V30 2861 H 263.782 0.651086 5.45025 0
M  V30 2862 H 264.043 -0.704798 4.36446 0
M  V30 2863 N 263.102 -1.41638 0.69111 0
M  V30 2864 C 264.35 -2.00902 0.219758 0
M  V30 2865 C 264.671 -1.54994 -1.18329 0
M  V30 2866 O 263.941 -0.778628 -1.79762 0
M  V30 2867 H 262.521 -0.74289 0.0782558 0
M  V30 2868 H 265.183 -1.73327 0.891271 0
M  V30 2869 H 264.279 -3.11224 0.233708 0
M  V30 2870 N 264.58 -0.43555 -1.51462 0
M  V30 2871 C 265.857 0.191364 -1.94662 0
M  V30 2872 C 266.237 1.60254 -1.37411 0
M  V30 2873 O 265.585 2.2152 -0.560458 0
M  V30 2874 C 265.795 0.17091 -3.48581 0
M  V30 2875 C 267.143 0.377357 -4.2292 0
M  V30 2876 O 268.167 0.249104 -3.55328 0
M  V30 2877 O 267.026 0.63247 -5.42828 0
M  V30 2878 H 264.12 0.130932 -0.816569 0
M  V30 2879 H 266.666 -0.4934 -1.62369 0
M  V30 2880 H 265.438 -0.815738 -3.82703 0
M  V30 2881 H 265.061 0.898659 -3.87311 0
M  V30 2882 N 266.058 1.56714 -0.166846 0
M  V30 2883 C 267.005 2.17746 0.765193 0
M  V30 2884 C 267.975 1.11614 1.23011 0
M  V30 2885 O 269.16 1.39745 1.29908 0
M  V30 2886 C 266.3 2.81882 1.9909 0
M  V30 2887 C 265.413 4.02462 1.56997 0
M  V30 2888 C 264.548 4.54537 2.749 0
M  V30 2889 C 263.587 5.67538 2.29275 0
M  V30 2890 N 262.724 6.14142 3.40255 0
M  V30 2891 H 267.564 2.97048 0.237952 0
M  V30 2892 H 265.101 1.4672 0.105725 0
M  V30 2893 H 267.059 3.17221 2.70974 0
M  V30 2894 H 265.689 2.05191 2.49192 0
M  V30 2895 H 264.741 3.72973 0.748037 0
M  V30 2896 H 266.053 4.84273 1.19503 0
M  V30 2897 H 265.207 4.92035 3.54946 0
M  V30 2898 H 263.946 3.71774 3.1565 0
M  V30 2899 H 262.951 5.29597 1.47674 0
M  V30 2900 H 264.176 6.52099 1.89588 0
M  V30 2901 H 262.122 5.3431 3.8059 0
M  V30 2902 H 262.039 6.9093 3.06841 0
M  V30 2903 H 263.307 6.56289 4.206 0
M  V30 2904 N 267.536 -0.106894 1.57237 0
M  V30 2905 C 268.782 -0.81373 1.85759 0
M  V30 2906 C 269.115 -1.78952 0.754315 0
M  V30 2907 O 268.39 -1.93029 -0.23879 0
M  V30 2908 C 268.673 -1.55293 3.24894 0
M  V30 2909 C 268.526 -0.595929 4.45835 0
M  V30 2910 C 269.845 -2.5063 3.61763 0
M  V30 2911 H 266.964 -0.294369 0.67566 0
M  V30 2912 H 269.606 -0.0776472 1.89841 0
M  V30 2913 H 267.756 -2.1804 3.21544 0
M  V30 2914 H 269.428 0.0236262 4.61294 0
M  V30 2915 H 267.671 0.0916191 4.33703 0
M  V30 2916 H 268.342 -1.15004 5.39887 0
M  V30 2917 H 270.818 -1.97982 3.65981 0
M  V30 2918 H 269.694 -2.99376 4.60071 0
M  V30 2919 H 269.955 -3.3385 2.89821 0
M  V30 2920 N 269.014 -1.53014 -0.377408 0
M  V30 2921 C 270.26 -1.68872 -1.12294 0
M  V30 2922 C 270.593 -0.433224 -1.89306 0
M  V30 2923 O 269.868 0.569258 -1.85983 0
M  V30 2924 C 270.151 -2.93115 -2.09179 0
M  V30 2925 C 270.004 -4.28794 -1.35853 0
M  V30 2926 C 271.323 -3.12928 -3.09458 0
M  V30 2927 H 268.442 -0.614518 -0.406862 0
M  V30 2928 H 271.084 -1.85633 -0.40503 0
M  V30 2929 H 269.234 -2.78956 -2.70399 0
M  V30 2930 H 270.906 -4.54742 -0.775082 0
M  V30 2931 H 269.149 -4.28744 -0.660364 0
M  V30 2932 H 269.82 -5.11837 -2.06706 0
M  V30 2933 H 272.296 -3.26194 -2.58334 0
M  V30 2934 H 271.172 -4.01316 -3.74482 0
M  V30 2935 H 271.433 -2.27669 -3.78971 0
M  V30 2936 N 270.492 0.636531 -1.44174 0
M  V30 2937 C 271.422 1.76003 -1.53444 0
M  V30 2938 C 272.403 1.65619 -0.387841 0
M  V30 2939 O 273.588 1.84461 -0.607257 0
M  V30 2940 C 270.718 3.14511 -1.4731 0
M  V30 2941 C 269.672 3.39677 -2.60391 0
M  V30 2942 C 268.998 4.78159 -2.39308 0
M  V30 2943 C 270.298 3.32772 -4.02567 0
M  V30 2944 H 271.992 1.68501 -2.47483 0
M  V30 2945 H 269.538 0.809237 -1.19111 0
M  V30 2946 H 271.491 3.92878 -1.52397 0
M  V30 2947 H 270.215 3.22783 -0.49785 0
M  V30 2948 H 268.874 2.63688 -2.54684 0
M  V30 2949 H 268.522 4.83128 -1.39988 0
M  V30 2950 H 268.222 4.95956 -3.15122 0
M  V30 2951 H 269.746 5.58762 -2.46205 0
M  V30 2952 H 271.16 4.01051 -4.09672 0
M  V30 2953 H 269.557 3.62104 -4.7854 0
M  V30 2954 H 270.627 2.30669 -4.2652 0
M  V30 2955 N 271.97 1.30982 0.876444 0
M  V30 2956 C 272.903 1.12414 1.98591 0
M  V30 2957 C 273.881 0.0294078 1.62573 0
M  V30 2958 O 275.065 0.184598 1.87594 0
M  V30 2959 C 272.192 0.716276 3.3104 0
M  V30 2960 C 271.238 1.81311 3.86042 0
M  V30 2961 S 272.071 3.41727 4.1229 0
M  V30 2962 C 273.227 3.02863 5.47745 0
M  V30 2963 H 273.46 2.06338 2.14037 0
M  V30 2964 H 270.993 1.15393 1.02586 0
M  V30 2965 H 272.951 0.487697 4.07593 0
M  V30 2966 H 271.612 -0.203749 3.13438 0
M  V30 2967 H 270.805 1.48021 4.81774 0
M  V30 2968 H 270.407 1.99641 3.16259 0
M  V30 2969 H 272.699 2.51353 6.29148 0
M  V30 2970 H 273.642 3.97533 5.8598 0
M  V30 2971 H 274.05 2.40487 5.10711 0
M  V30 2972 N 273.449 -1.08991 1.13837 0
M  V30 2973 C 274.86 -1.62746 0.914917 0
M  V30 2974 C 275.211 -1.88403 -0.547594 0
M  V30 2975 O 274.336 -1.63706 -1.41525 0
M  V30 2976 C 274.931 -2.95662 1.65437 0
M  V30 2977 C 273.49 -3.46225 1.47666 0
M  V30 2978 C 272.637 -2.20562 1.6807 0
M  V30 2979 H 275.588 -0.922946 1.29102 0
M  V30 2980 H 275.609 -3.63825 1.11407 0
M  V30 2981 H 275.121 -2.76956 2.71877 0
M  V30 2982 H 273.222 -3.70046 0.435478 0
M  V30 2983 H 273.335 -4.23368 2.24268 0
M  V30 2984 H 271.699 -2.29439 1.10589 0
M  V30 2985 H 272.482 -2.0437 2.7584 0
M  V30 2986 N 274.927 -0.932562 -1.27047 0
M  V30 2987 C 276.173 -0.576412 -1.94436 0
M  V30 2988 C 276.506 0.880891 -1.73072 0
M  V30 2989 O 275.781 1.62905 -1.06264 0
M  V30 2990 C 276.064 -0.909031 -3.48437 0
M  V30 2991 C 275.917 -2.42044 -3.79123 0
M  V30 2992 C 277.236 -0.418341 -4.38107 0
M  V30 2993 H 274.355 -0.210888 -0.706184 0
M  V30 2994 H 276.997 -1.16522 -1.50075 0
M  V30 2995 H 275.147 -0.407947 -3.86352 0
M  V30 2996 H 276.819 -2.99359 -3.50973 0
M  V30 2997 H 275.062 -2.86758 -3.25503 0
M  V30 2998 H 275.733 -2.6037 -4.86736 0
M  V30 2999 H 278.209 -0.847856 -4.0737 0
M  V30 3000 H 277.085 -0.679981 -5.44672 0
M  V30 3001 H 277.346 0.681642 -4.36814 0
M  V30 3002 N 276.405 1.4127 -0.698611 0
M  V30 3003 C 277.353 2.32588 -0.023855 0
M  V30 3004 C 278.347 1.51128 0.765292 0
M  V30 3005 O 279.553 1.67043 0.670571 0
M  V30 3006 H 275.928 0.751918 0.0110871 0
M  V30 3007 H 277.899 2.87167 -0.811031 0
M  V30 3008 C 276.648 3.35947 0.896369 0
M  V30 3009 H 275.971 3.98684 0.298548 0
M  V30 3010 H 277.411 4.02376 1.33676 0
M  V30 3011 C 275.87 2.70076 2.01396 0
M  V30 3012 O 276.4 2.55093 3.10307 0
M  V30 3013 N 274.606 2.28724 1.79259 0
M  V30 3014 H 274.153 2.4111 0.906841 0
M  V30 3015 H 274.111 1.84986 2.54219 0
M  V30 3016 N 277.883 0.443576 1.51229 0
M  V30 3017 C 278.846 -0.353132 2.26463 0
M  V30 3018 C 279.846 -0.944338 1.3015 0
M  V30 3019 O 281.036 -0.817813 1.5381 0
M  V30 3020 C 278.168 -1.50023 3.06114 0
M  V30 3021 H 279.361 0.3063 2.98332 0
M  V30 3022 H 276.914 0.196902 1.55055 0
M  V30 3023 H 277.649 -2.19553 2.38677 0
M  V30 3024 H 277.434 -1.08241 3.76864 0
M  V30 3025 H 278.924 -2.06296 3.63087 0
M  V30 3026 N 279.361 -1.56624 0.175154 0
M  V30 3027 C 280.609 -1.96609 -0.467885 0
M  V30 3028 C 280.93 -1.06238 -1.63519 0
M  V30 3029 O 280.2 -0.129523 -1.95471 0
M  V30 3030 H 278.78 -0.726008 -0.175845 0
M  V30 3031 H 281.442 -1.93195 0.257234 0
M  V30 3032 H 280.538 -3.00989 -0.825342 0
M  V30 3033 N 280.839 0.0985539 -1.57292 0
M  V30 3034 C 281.771 1.14595 -1.98496 0
M  V30 3035 C 282.784 1.36512 -0.887031 0
M  V30 3036 O 283.973 1.35225 -1.16518 0
M  V30 3037 C 281.073 2.50216 -2.28572 0
M  V30 3038 C 280.246 2.48624 -3.59868 0
M  V30 3039 C 279.305 3.66146 -3.7792 0
M  V30 3040 O 278.331 3.48795 -4.49812 0
M  V30 3041 N 279.533 4.85496 -3.18235 0
M  V30 3042 H 282.298 0.795277 -2.88956 0
M  V30 3043 H 279.859 0.287579 -1.59325 0
M  V30 3044 H 281.851 3.27432 -2.37845 0
M  V30 3045 H 280.421 2.77387 -1.44136 0
M  V30 3046 H 279.641 1.56978 -3.61596 0
M  V30 3047 H 280.929 2.44635 -4.46129 0
M  V30 3048 H 280.327 5.02497 -2.59833 0
M  V30 3049 H 278.884 5.60317 -3.32999 0
M  V30 3050 N 282.317 1.53212 0.369288 0
M  V30 3051 C 283.728 1.60943 0.946276 0
M  V30 3052 C 284.079 0.47452 1.90375 0
M  V30 3053 O 283.204 -0.399597 2.12679 0
M  V30 3054 C 283.799 2.91715 1.72302 0
M  V30 3055 C 282.358 3.01792 2.24941 0
M  V30 3056 C 281.505 2.56211 1.06072 0
M  V30 3057 H 284.456 1.58007 0.148198 0
M  V30 3058 H 284.477 2.79309 2.58393 0
M  V30 3059 H 283.989 3.74295 1.0259 0
M  V30 3060 H 282.09 2.23791 2.97906 0
M  V30 3061 H 282.203 4.06803 2.53077 0
M  V30 3062 H 280.567 2.10998 1.4266 0
M  V30 3063 H 281.35 3.41206 0.378639 0
M  V30 3064 N 283.795 -0.628877 1.44509 0
M  V30 3065 C 284.725 -1.75187 1.54376 0
M  V30 3066 C 285.706 -1.65411 0.396618 0
M  V30 3067 O 286.891 -1.84137 0.617031 0
M  V30 3068 C 284.021 -3.13725 1.48976 0
M  V30 3069 C 282.975 -3.38291 2.62189 0
M  V30 3070 C 282.301 -4.76883 2.41841 0
M  V30 3071 C 283.601 -3.30632 4.04326 0
M  V30 3072 H 285.295 -1.67187 2.48373 0
M  V30 3073 H 282.841 -0.802909 1.19538 0
M  V30 3074 H 284.794 -3.92064 1.54478 0
M  V30 3075 H 283.518 -3.22515 0.514961 0
M  V30 3076 H 282.177 -2.62334 2.56079 0
M  V30 3077 H 281.825 -4.82378 1.42548 0
M  V30 3078 H 281.525 -4.94278 3.17747 0
M  V30 3079 H 283.049 -5.57449 2.49165 0
M  V30 3080 H 284.463 -3.98873 4.11793 0
M  V30 3081 H 282.86 -3.59561 4.80454 0
M  V30 3082 H 283.93 -2.28404 4.27738 0
M  V30 3083 N 285.273 -1.31445 -0.869486 0
M  V30 3084 C 286.223 -1.15731 -1.96444 0
M  V30 3085 C 287.207 -0.0681855 -1.60755 0
M  V30 3086 O 288.399 -0.293154 -1.74555 0
M  V30 3087 C 285.528 -0.867255 -3.32165 0
M  V30 3088 C 284.614 -1.99738 -3.74119 0
M  V30 3089 N 285.005 -3.24447 -3.88031 0
M  V30 3090 C 283.303 -1.89723 -4.03635 0
M  V30 3091 C 284.004 -3.98374 -4.23879 0
M  V30 3092 N 282.98 -3.26547 -4.3459 0
M  V30 3093 H 286.782 -2.10296 -2.05312 0
M  V30 3094 H 284.296 -1.23009 -1.06031 0
M  V30 3095 H 286.293 -0.735668 -4.10358 0
M  V30 3096 H 284.953 0.0701614 -3.24624 0
M  V30 3097 H 285.964 -3.59557 -3.72746 0
M  V30 3098 H 282.641 -1.03449 -4.04481 0
M  V30 3099 H 284.031 -5.05844 -4.42235 0
M  V30 3100 N 286.751 1.08385 -1.14413 0
M  V30 3101 C 287.714 2.13486 -0.834048 0
M  V30 3102 C 288.714 1.59988 0.161418 0
M  V30 3103 O 289.904 1.74071 -0.0669575 0
M  V30 3104 C 287.036 3.4003 -0.243354 0
M  V30 3105 H 288.229 2.42425 -1.7655 0
M  V30 3106 H 285.782 1.24101 -0.950189 0
M  V30 3107 H 286.517 3.16726 0.696807 0
M  V30 3108 H 286.302 3.80157 -0.960367 0
M  V30 3109 H 287.792 4.17577 -0.0436242 0
M  V30 3110 N 288.23 0.939286 1.26551 0
M  V30 3111 C 289.455 0.602008 1.98471 0
M  V30 3112 C 289.88 -0.815624 1.69497 0
M  V30 3113 O 289.238 -1.54912 0.941905 0
M  V30 3114 C 289.286 0.848407 3.50477 0
M  V30 3115 O 288.39 -0.0804009 4.12322 0
M  V30 3116 H 287.731 0.23049 0.622712 0
M  V30 3117 H 290.261 1.2617 1.61066 0
M  V30 3118 H 290.271 0.768553 4.00696 0
M  V30 3119 H 288.946 1.88171 3.70897 0
M  V30 3120 H 287.523 0.0503508 3.72866 0
M  V30 3121 N 289.708 -1.40897 0.706093 0
M  V30 3122 C 290.656 -2.32572 0.0361893 0
M  V30 3123 C 291.65 -1.51532 -0.757266 0
M  V30 3124 O 292.856 -1.67396 -0.661703 0
M  V30 3125 H 289.231 -0.751966 -0.00709935 0
M  V30 3126 H 291.202 -2.86733 0.826249 0
M  V30 3127 C 289.951 -3.36418 -0.87854 0
M  V30 3128 H 289.274 -3.98836 -0.277401 0
M  V30 3129 H 290.714 -4.0308 -1.3154 0
M  V30 3130 C 289.173 -2.71141 -1.99961 0
M  V30 3131 O 289.703 -2.56735 -3.0895 0
M  V30 3132 N 287.909 -2.29671 -1.78043 0
M  V30 3133 H 287.456 -2.41588 -0.894042 0
M  V30 3134 H 287.414 -1.86332 -2.53235 0
M  V30 3135 N 291.186 -0.45159 -1.50991 0
M  V30 3136 C 292.435 0.111653 -2.01391 0
M  V30 3137 C 292.748 1.42529 -1.33959 0
M  V30 3138 O 293.954 2.07232 -1.75405 0
M  V30 3139 C 292.41 0.249514 -3.59034 0
M  V30 3140 C 292.018 -1.05453 -4.35412 0
M  V30 3141 C 293.762 0.765762 -4.17536 0
M  V30 3142 C 291.669 -0.881529 -5.84793 0
M  V30 3143 H 290.599 0.0455022 -0.752626 0
M  V30 3144 H 293.25 -0.583524 -1.73975 0
M  V30 3145 H 291.632 1.00803 -3.82955 0
M  V30 3146 H 292.806 -1.82248 -4.23229 0
M  V30 3147 H 291.121 -1.50039 -3.88429 0
M  V30 3148 H 293.718 0.911913 -5.26866 0
M  V30 3149 H 294.061 1.75201 -3.77638 0
M  V30 3150 H 294.594 0.0651744 -3.97747 0
M  V30 3151 H 291.333 -1.84057 -6.29129 0
M  V30 3152 H 290.853 -0.153625 -5.99603 0
M  V30 3153 H 292.532 -0.540363 -6.4474 0
M  V30 3154 N 292.664 1.56529 -0.183458 0
M  V30 3155 C 293.574 2.22144 0.754272 0
M  V30 3156 C 294.59 1.21684 1.24374 0
M  V30 3157 O 295.766 1.54385 1.29333 0
M  V30 3158 C 292.831 2.85884 1.96141 0
M  V30 3159 C 291.892 4.01579 1.51765 0
M  V30 3160 C 291.125 4.6227 2.66725 0
M  V30 3161 O 291.348 4.21865 3.83909 0
M  V30 3162 O 290.282 5.51936 2.40104 0
M  V30 3163 H 294.108 3.02861 0.225527 0
M  V30 3164 H 291.693 1.49331 0.0453032 0
M  V30 3165 H 293.575 3.26253 2.66715 0
M  V30 3166 H 292.25 2.08154 2.47899 0
M  V30 3167 H 291.157 3.65856 0.781049 0
M  V30 3168 H 292.49 4.80938 1.04686 0
M  V30 3169 N 294.142 -0.090211 1.57342 0
M  V30 3170 C 295.072 -1.10976 2.05443 0
M  V30 3171 C 296.053 -1.41482 0.944284 0
M  V30 3172 O 297.238 -1.51428 1.21586 0
M  V30 3173 C 294.368 -2.42831 2.48295 0
M  V30 3174 C 293.322 -2.26721 3.63018 0
M  V30 3175 C 292.648 -3.63796 3.91863 0
M  V30 3176 C 293.948 -1.7037 4.93732 0
M  V30 3177 H 295.642 -0.709564 2.9087 0
M  V30 3178 H 293.188 -0.339874 1.39932 0
M  V30 3179 H 295.141 -3.14431 2.80555 0
M  V30 3180 H 293.865 -2.84795 1.59873 0
M  V30 3181 H 292.524 -1.57565 3.31012 0
M  V30 3182 H 292.172 -4.03297 3.00601 0
M  V30 3183 H 291.872 -3.53861 4.69101 0
M  V30 3184 H 293.396 -4.36855 4.26603 0
M  V30 3185 H 294.81 -2.31816 5.24342 0
M  V30 3186 H 293.207 -1.71181 5.75167 0
M  V30 3187 H 294.277 -0.663542 4.80339 0
M  V30 3188 N 295.62 -1.53406 -0.361157 0
M  V30 3189 C 296.55 -1.83136 -1.44857 0
M  V30 3190 C 297.531 -0.685174 -1.5569 0
M  V30 3191 O 298.716 -0.93544 -1.70186 0
M  V30 3192 C 295.846 -2.02522 -2.82138 0
M  V30 3193 C 294.8 -3.18302 -2.86126 0
M  V30 3194 C 294.126 -3.22989 -4.26125 0
M  V30 3195 C 295.426 -4.56796 -2.53248 0
M  V30 3196 H 297.12 -2.74201 -1.20226 0
M  V30 3197 H 294.666 -1.31938 -0.576922 0
M  V30 3198 H 296.619 -2.21904 -3.58241 0
M  V30 3199 H 295.343 -1.08172 -3.08166 0
M  V30 3200 H 294.002 -2.98747 -2.12475 0
M  V30 3201 H 293.65 -2.26267 -4.49235 0
M  V30 3202 H 293.35 -4.00781 -4.29708 0
M  V30 3203 H 294.874 -3.44559 -5.04094 0
M  V30 3204 H 296.288 -4.7631 -3.19064 0
M  V30 3205 H 294.685 -5.36862 -2.68141 0
M  V30 3206 H 295.755 -4.61606 -1.48484 0
M  V30 3207 N 297.098 0.621204 -1.44841 0
M  V30 3208 C 298.375 1.38 -1.38619 0
M  V30 3209 C 298.755 2.11041 -0.0498935 0
M  V30 3210 O 298.103 2.06992 0.967816 0
M  V30 3211 C 298.313 2.33817 -2.59096 0
M  V30 3212 C 299.661 2.96844 -3.03593 0
M  V30 3213 O 300.685 2.44141 -2.59371 0
M  V30 3214 O 299.544 3.92476 -3.80296 0
M  V30 3215 H 296.638 0.61811 -0.549426 0
M  V30 3216 H 299.184 0.645429 -1.56947 0
M  V30 3217 H 297.956 1.79012 -3.47952 0
M  V30 3218 H 297.579 3.14676 -2.43032 0
M  V30 3219 N 298.576 1.31904 0.862503 0
M  V30 3220 C 299.524 1.20125 1.9918 0
M  V30 3221 C 300.518 0.107824 1.69056 0
M  V30 3222 O 301.724 0.270223 1.7796 0
M  V30 3223 H 298.099 0.372148 0.65346 0
M  V30 3224 H 300.07 2.15652 2.06244 0
M  V30 3225 C 298.819 0.933099 3.34946 0
M  V30 3226 H 298.142 1.76664 3.5865 0
M  V30 3227 H 299.582 0.890892 4.14535 0
M  V30 3228 C 298.041 -0.364172 3.34926 0
M  V30 3229 O 298.571 -1.37858 3.77304 0
M  V30 3230 N 296.777 -0.383362 2.8806 0
M  V30 3231 H 296.324 0.442651 2.53768 0
M  V30 3232 H 296.282 -1.25123 2.8843 0
M  V30 3233 N 300.054 -1.07777 1.14986 0
M  V30 3234 C 301.465 -1.61766 0.932127 0
M  V30 3235 C 301.816 -1.88974 -0.527581 0
M  V30 3236 O 300.941 -1.65198 -1.39781 0
M  V30 3237 C 301.536 -2.93891 1.68563 0
M  V30 3238 C 300.095 -3.44639 1.5133 0
M  V30 3239 C 299.242 -2.18767 1.704 0
M  V30 3240 H 302.193 -0.909201 1.30074 0
M  V30 3241 H 302.214 -3.62623 1.15259 0
M  V30 3242 H 301.726 -2.74057 2.74799 0
M  V30 3243 H 299.827 -3.69564 0.474702 0
M  V30 3244 H 299.94 -4.20966 2.28746 0
M  V30 3245 H 298.304 -2.28253 1.13016 0
M  V30 3246 H 299.087 -2.01433 2.77992 0
M  V30 3247 N 301.532 -0.945985 -1.26051 0
M  V30 3248 C 302.78 -0.594941 -1.93145 0
M  V30 3249 C 303.101 0.86953 -1.7454 0
M  V30 3250 O 302.371 1.61838 -1.10387 0
M  V30 3251 H 300.951 -0.217044 -0.714773 0
M  V30 3252 H 303.613 -1.20235 -1.53393 0
M  V30 3253 H 302.709 -0.816835 -3.01221 0
M  V30 3254 N 303.011 1.40521 -0.713556 0
M  V30 3255 C 304.251 2.02783 -0.256584 0
M  V30 3256 C 304.615 1.55352 1.12827 0
M  V30 3257 O 305.816 2.09663 1.68211 0
M  V30 3258 C 304.087 3.5586 -0.331414 0
M  V30 3259 S 305.646 4.38773 0.0488703 0
M  V30 3260 H 302.464 0.703655 -0.101934 0
M  V30 3261 H 305.066 1.71674 -0.935325 0
M  V30 3262 H 303.77 3.87874 -1.34098 0
M  V30 3263 H 303.301 3.91695 0.365873 0
M  V30 3264 H 305.316 4.79633 1.2715 0
M  V30 3265 N 304.489 0.459591 1.5075 0
M  V30 3266 C 305.436 -0.340524 2.28274 0
M  V30 3267 C 306.406 -0.997371 1.32822 0
M  V30 3268 O 307.591 -1.01202 1.61749 0
M  V30 3269 C 304.731 -1.42317 3.14388 0
M  V30 3270 C 303.844 -0.782251 4.24859 0
M  V30 3271 C 302.979 -1.84182 4.98247 0
M  V30 3272 C 302.018 -1.18053 6.00608 0
M  V30 3273 N 301.155 -2.18244 6.67319 0
M  V30 3274 H 305.995 0.326899 2.96202 0
M  V30 3275 H 303.532 0.173057 1.46078 0
M  V30 3276 H 305.49 -2.06241 3.62658 0
M  V30 3277 H 304.12 -2.05992 2.4853 0
M  V30 3278 H 303.172 -0.0307404 3.80388 0
M  V30 3279 H 304.484 -0.259663 4.98124 0
M  V30 3280 H 303.638 -2.55714 5.50177 0
M  V30 3281 H 302.377 -2.39819 4.24662 0
M  V30 3282 H 301.382 -0.450776 5.47949 0
M  V30 3283 H 302.607 -0.631202 6.7616 0
M  V30 3284 H 300.553 -2.72919 5.96533 0
M  V30 3285 H 300.47 -1.70938 7.36421 0
M  V30 3286 H 301.738 -2.89191 7.23871 0
M  V30 3287 N 305.967 -1.56429 0.191757 0
M  V30 3288 C 306.877 -2.22541 -0.742481 0
M  V30 3289 C 307.893 -1.22342 -1.23727 0
M  V30 3290 O 309.069 -1.55069 -1.28513 0
M  V30 3291 C 306.134 -2.8692 -1.94623 0
M  V30 3292 C 305.195 -4.02378 -1.49633 0
M  V30 3293 C 304.428 -4.63678 -2.6427 0
M  V30 3294 O 304.651 -4.23895 -3.81666 0
M  V30 3295 O 303.585 -5.53202 -2.37174 0
M  V30 3296 H 307.411 -3.02977 -0.209462 0
M  V30 3297 H 304.996 -1.49353 -0.0373832 0
M  V30 3298 H 306.878 -3.27663 -2.64982 0
M  V30 3299 H 305.553 -2.09466 -2.46791 0
M  V30 3300 H 304.46 -3.66265 -0.761636 0
M  V30 3301 H 305.793 -4.81487 -1.02134 0
M  V30 3302 N 307.445 0.0818655 -1.57387 0
M  V30 3303 C 308.691 0.784074 -1.8703 0
M  V30 3304 C 309.024 1.77729 -0.782689 0
M  V30 3305 O 308.299 1.93384 0.208051 0
M  V30 3306 C 308.582 1.50105 -3.27323 0
M  V30 3307 C 308.435 0.524925 -4.46727 0
M  V30 3308 C 309.754 2.44843 -3.65705 0
M  V30 3309 H 306.873 0.283582 -0.680257 0
M  V30 3310 H 309.515 0.0474352 -1.89941 0
M  V30 3311 H 307.665 2.12897 -3.24972 0
M  V30 3312 H 309.337 -0.0970111 -4.61198 0
M  V30 3313 H 307.58 -0.160606 -4.33503 0
M  V30 3314 H 308.251 1.064 -5.41648 0
M  V30 3315 H 310.727 1.92135 -3.69085 0
M  V30 3316 H 309.603 2.92018 -4.64776 0
M  V30 3317 H 309.864 3.29197 -2.95096 0
M  V30 3318 N 308.923 1.53595 0.353017 0
M  V30 3319 C 309.871 1.81605 1.45335 0
M  V30 3320 C 310.865 0.685923 1.54892 0
M  V30 3321 O 312.071 0.869095 1.57628 0
M  V30 3322 H 308.446 0.575204 0.484401 0
M  V30 3323 H 310.417 2.73679 1.18921 0
M  V30 3324 C 309.166 2.03406 2.81995 0
M  V30 3325 H 308.489 2.89814 2.75405 0
M  V30 3326 H 309.929 2.26975 3.58132 0
M  V30 3327 C 308.388 0.816794 3.26849 0
M  V30 3328 O 308.918 0.0115856 4.01698 0
M  V30 3329 N 307.124 0.636682 2.8354 0
M  V30 3330 H 306.671 1.2931 2.22793 0
M  V30 3331 H 306.629 -0.176336 3.13905 0
M  V30 3332 N 310.401 -0.613514 1.45168 0
M  V30 3333 C 311.364 -1.7065 1.53007 0
M  V30 3334 C 312.364 -1.5548 0.410184 0
M  V30 3335 O 313.554 -1.60656 0.673455 0
M  V30 3336 C 310.686 -3.09875 1.42093 0
M  V30 3337 H 311.879 -1.65068 2.50385 0
M  V30 3338 H 309.432 -0.828728 1.32521 0
M  V30 3339 H 310.167 -3.21039 0.458769 0
M  V30 3340 H 309.952 -3.22293 2.23315 0
M  V30 3341 H 311.442 -3.895 1.50598 0
M  V30 3342 N 311.879 -1.3236 -0.855495 0
M  V30 3343 C 313.125 -1.23054 -1.612 0
M  V30 3344 C 313.458 0.207404 -1.93089 0
M  V30 3345 O 312.733 1.14432 -1.57275 0
M  V30 3346 C 313.016 -2.08937 -2.93287 0
M  V30 3347 C 312.869 -3.61105 -2.68185 0
M  V30 3348 C 314.188 -1.94986 -3.94549 0
M  V30 3349 H 311.307 -0.448364 -0.584926 0
M  V30 3350 H 313.949 -1.62297 -0.987917 0
M  V30 3351 H 312.099 -1.75599 -3.46551 0
M  V30 3352 H 313.771 -4.04652 -2.21483 0
M  V30 3353 H 312.014 -3.83813 -2.02164 0
M  V30 3354 H 312.685 -4.16522 -3.62234 0
M  V30 3355 H 315.161 -2.24189 -3.5054 0
M  V30 3356 H 314.037 -2.57356 -4.84829 0
M  V30 3357 H 314.298 -0.917263 -4.3248 0
M  V30 3358 N 313.357 1.07166 -1.15556 0
M  V30 3359 C 314.305 2.16517 -0.8499 0
M  V30 3360 C 315.299 1.68468 0.177454 0
M  V30 3361 O 316.505 1.79971 0.0323026 0
M  V30 3362 H 312.88 0.706652 -0.25719 0
M  V30 3363 H 314.851 2.39514 -1.77976 0
M  V30 3364 C 313.6 3.45855 -0.357682 0
M  V30 3365 H 312.923 3.83214 -1.13961 0
M  V30 3366 H 314.363 4.23607 -0.182489 0
M  V30 3367 C 312.822 3.24062 0.921152 0
M  V30 3368 O 313.352 3.48813 1.9923 0
M  V30 3369 N 311.558 2.77539 0.86141 0
M  V30 3370 H 311.105 2.57598 -0.0104408 0
M  V30 3371 H 311.063 2.63337 1.71758 0
M  V30 3372 N 314.835 0.952656 1.25548 0
M  V30 3373 C 316.075 0.614013 1.9496 0
M  V30 3374 C 316.439 -0.833215 1.72978 0
M  V30 3375 O 317.64 -1.28135 2.36294 0
M  V30 3376 C 315.911 0.960562 3.4425 0
M  V30 3377 S 317.47 0.734195 4.32614 0
M  V30 3378 H 314.288 0.225754 0.674208 0
M  V30 3379 H 316.89 1.22641 1.52248 0
M  V30 3380 H 315.594 2.01103 3.57751 0
M  V30 3381 H 315.125 0.338336 3.91942 0
M  V30 3382 H 317.14 -0.395995 4.94617 0
M  V30 3383 N 316.313 -1.40141 0.720998 0
M  V30 3384 C 317.261 -2.3252 0.0608547 0
M  V30 3385 C 318.255 -1.52326 -0.741152 0
M  V30 3386 O 319.461 -1.68089 -0.643911 0
M  V30 3387 H 315.836 -0.751999 0.000876664 0
M  V30 3388 H 317.807 -2.8584 0.856614 0
M  V30 3389 C 316.556 -3.37331 -0.842809 0
M  V30 3390 H 315.879 -3.99108 -0.235084 0
M  V30 3391 H 317.319 -4.04452 -1.27257 0
M  V30 3392 C 315.778 -2.73246 -1.97074 0
M  V30 3393 O 316.308 -2.59998 -3.06209 0
M  V30 3394 N 314.514 -2.31547 -1.75597 0
M  V30 3395 H 314.061 -2.42522 -0.868368 0
M  V30 3396 H 314.019 -1.89007 -2.51244 0
M  V30 3397 N 317.792 -0.46758 -1.50504 0
M  V30 3398 C 319.02 0.0864133 -2.06719 0
M  V30 3399 C 319.435 1.33819 -1.33184 0
M  V30 3400 O 318.792 1.78061 -0.400083 0
M  V30 3401 C 318.843 0.378079 -3.59517 0
M  V30 3402 O 318.564 -0.824044 -4.3028 0
M  V30 3403 C 320.065 0.979426 -4.32345 0
M  V30 3404 H 317.285 -0.00551697 -0.670977 0
M  V30 3405 H 319.829 -0.655354 -1.93715 0
M  V30 3406 H 317.984 1.06977 -3.72337 0
M  V30 3407 H 318.398 -0.566518 -5.21432 0
M  V30 3408 H 319.872 1.1333 -5.40241 0
M  V30 3409 H 320.349 1.9686 -3.9261 0
M  V30 3410 H 320.955 0.326216 -4.24047 0
M  V30 3411 N 319.27 1.56325 -0.20005 0
M  V30 3412 C 320.495 2.02548 0.44597 0
M  V30 3413 C 320.92 1.07922 1.5406 0
M  V30 3414 O 320.278 0.0635775 1.81188 0
M  V30 3415 C 320.326 3.47175 0.974761 0
M  V30 3416 O 319.43 3.55671 2.08739 0
M  V30 3417 H 318.771 0.655862 0.103638 0
M  V30 3418 H 321.301 2.02201 -0.312381 0
M  V30 3419 H 321.311 3.87067 1.2901 0
M  V30 3420 H 319.986 4.15538 0.17347 0
M  V30 3421 H 318.563 3.27657 1.78032 0
M  V30 3422 N 320.748 -0.0735177 1.57428 0
M  V30 3423 C 321.994 -0.768909 1.88307 0
M  V30 3424 C 322.349 -1.75273 0.793535 0
M  V30 3425 O 321.642 -1.90527 -0.202466 0
M  V30 3426 C 321.836 -1.51799 3.23561 0
M  V30 3427 C 321.665 -0.608217 4.45568 0
M  V30 3428 C 320.435 -0.245808 5.04702 0
M  V30 3429 C 322.633 0.0942904 5.14214 0
M  V30 3430 N 320.615 0.66987 6.10234 0
M  V30 3431 C 321.986 0.867222 6.13905 0
M  V30 3432 C 324.041 0.165943 4.97623 0
M  V30 3433 C 322.744 1.70515 6.98797 0
M  V30 3434 C 324.77 0.990837 5.83041 0
M  V30 3435 C 324.132 1.75182 6.82269 0
M  V30 3436 H 320.231 -0.25685 0.738615 0
M  V30 3437 H 322.815 -0.030499 1.94676 0
M  V30 3438 H 320.986 -2.22713 3.18203 0
M  V30 3439 H 322.718 -2.16226 3.42094 0
M  V30 3440 H 319.473 -0.598284 4.69806 0
M  V30 3441 H 319.897 1.1209 6.67656 0
M  V30 3442 H 324.539 -0.408064 4.20826 0
M  V30 3443 H 322.257 2.29013 7.7497 0
M  V30 3444 H 325.843 1.04923 5.72261 0
M  V30 3445 H 324.723 2.37983 7.47217 0
M  V30 3446 N 322.226 -1.5378 -0.344866 0
M  V30 3447 C 323.173 -1.81676 -1.42346 0
M  V30 3448 C 324.143 -0.662376 -1.52321 0
M  V30 3449 O 325.328 -0.906675 -1.67881 0
M  V30 3450 C 322.468 -2.03087 -2.79015 0
M  V30 3451 C 321.581 -3.30799 -2.77842 0
M  V30 3452 C 320.716 -3.42285 -4.0622 0
M  V30 3453 C 319.755 -4.6395 -3.9927 0
M  V30 3454 N 318.892 -4.72477 -5.19336 0
M  V30 3455 H 323.732 -2.73703 -1.17858 0
M  V30 3456 H 321.269 -1.35568 -0.570949 0
M  V30 3457 H 323.227 -2.1349 -3.58438 0
M  V30 3458 H 321.857 -1.14375 -3.01858 0
M  V30 3459 H 320.909 -3.29244 -1.90533 0
M  V30 3460 H 322.221 -4.20314 -2.68584 0
M  V30 3461 H 321.375 -3.52113 -4.94066 0
M  V30 3462 H 320.114 -2.50823 -4.18258 0
M  V30 3463 H 319.119 -4.54201 -3.09809 0
M  V30 3464 H 320.344 -5.56775 -3.88817 0
M  V30 3465 H 318.29 -3.83924 -5.3192 0
M  V30 3466 H 318.207 -5.55927 -5.12329 0
M  V30 3467 H 319.475 -4.86613 -6.08957 0
M  V30 3468 N 323.704 0.605807 -1.45491 0
M  V30 3469 C 324.953 1.36086 -1.48874 0
M  V30 3470 C 325.266 1.95131 -0.135333 0
M  V30 3471 O 326.472 2.7146 -0.0468144 0
M  V30 3472 C 324.928 2.46518 -2.62215 0
M  V30 3473 C 324.536 1.93877 -4.03876 0
M  V30 3474 C 326.28 3.23512 -2.74846 0
M  V30 3475 C 324.187 3.01801 -5.08596 0
M  V30 3476 H 323.117 0.511497 -0.553974 0
M  V30 3477 H 325.768 0.649089 -1.71636 0
M  V30 3478 H 324.15 3.20388 -2.32739 0
M  V30 3479 H 325.324 1.26704 -4.43038 0
M  V30 3480 H 323.639 1.29622 -3.95711 0
M  V30 3481 H 326.236 4.04013 -3.50253 0
M  V30 3482 H 326.579 3.74631 -1.81542 0
M  V30 3483 H 327.112 2.56742 -3.03856 0
M  V30 3484 H 323.851 2.55597 -6.03614 0
M  V30 3485 H 323.371 3.67535 -4.74002 0
M  V30 3486 H 325.05 3.66152 -5.33424 0
M  V30 3487 N 325.182 1.32811 0.848464 0
M  V30 3488 C 326.41 1.26739 1.63538 0
M  V30 3489 C 326.825 -0.163484 1.88091 0
M  V30 3490 O 326.182 -1.10258 1.45429 0
M  V30 3491 C 326.233 2.03013 2.99112 0
M  V30 3492 O 325.954 3.40518 2.75643 0
M  V30 3493 C 327.455 2.04038 3.93552 0
M  V30 3494 H 324.675 0.437024 0.509167 0
M  V30 3495 H 327.219 1.75033 1.05753 0
M  V30 3496 H 325.374 1.58426 3.53525 0
M  V30 3497 H 325.788 3.79635 3.61908 0
M  V30 3498 H 327.262 2.61877 4.85926 0
M  V30 3499 H 327.739 1.0282 4.26995 0
M  V30 3500 H 328.345 2.486 3.45077 0
M  V30 3501 N 326.66 -1.06551 1.16123 0
M  V30 3502 C 327.59 -2.15935 0.88851 0
M  V30 3503 C 328.571 -1.69306 -0.164135 0
M  V30 3504 O 329.756 -1.94193 -0.0167857 0
M  V30 3505 C 326.886 -3.45149 0.385942 0
M  V30 3506 C 325.84 -4.05271 1.3762 0
M  V30 3507 C 325.166 -5.29664 0.732137 0
M  V30 3508 C 326.466 -4.44355 2.74493 0
M  V30 3509 H 328.16 -2.39006 1.80323 0
M  V30 3510 H 325.706 -1.14866 0.868435 0
M  V30 3511 H 327.659 -4.21004 0.182647 0
M  V30 3512 H 326.383 -3.21689 -0.564274 0
M  V30 3513 H 325.042 -3.3147 1.56599 0
M  V30 3514 H 324.69 -5.02499 -0.224483 0
M  V30 3515 H 324.39 -5.70848 1.39307 0
M  V30 3516 H 325.914 -6.08218 0.538802 0
M  V30 3517 H 327.328 -5.11303 2.59311 0
M  V30 3518 H 325.725 -4.96515 3.37035 0
M  V30 3519 H 326.795 -3.55339 3.29943 0
M  V30 3520 N 328.138 -0.959301 -1.25041 0
M  V30 3521 C 329.385 -0.616611 -1.92884 0
M  V30 3522 C 329.713 0.847036 -1.75087 0
M  V30 3523 O 328.968 1.62374 -1.09239 0
M  V30 3524 C 329.267 -0.927136 -3.45165 0
M  V30 3525 C 328.933 -2.37757 -3.83122 0
M  V30 3526 C 327.595 -2.77402 -3.93194 0
M  V30 3527 C 329.947 -3.31929 -4.01836 0
M  V30 3528 C 327.275 -4.10277 -4.19392 0
M  V30 3529 C 329.627 -4.64423 -4.29528 0
M  V30 3530 C 328.291 -5.03857 -4.37818 0
M  V30 3531 H 327.561 -0.225634 -0.705812 0
M  V30 3532 H 330.208 -1.20921 -1.48493 0
M  V30 3533 H 328.513 -0.252195 -3.90987 0
M  V30 3534 H 330.21 -0.6405 -3.95852 0
M  V30 3535 H 326.8 -2.06013 -3.75841 0
M  V30 3536 H 330.984 -3.02488 -3.93465 0
M  V30 3537 H 326.24 -4.40467 -4.24027 0
M  V30 3538 H 330.414 -5.37369 -4.42953 0
M  V30 3539 H 328.041 -6.06843 -4.57871 0
M  V30 3540 N 329.616 1.39756 -0.72842 0
M  V30 3541 C 330.549 2.28176 -0.0330172 0
M  V30 3542 C 331.527 1.44035 0.754501 0
M  V30 3543 O 332.711 1.73434 0.738445 0
M  V30 3544 C 329.838 3.24795 0.960504 0
M  V30 3545 C 328.884 4.25693 0.262264 0
M  V30 3546 S 329.717 5.25714 -1.01906 0
M  V30 3547 C 330.873 6.25894 -0.0279717 0
M  V30 3548 H 331.106 2.86807 -0.78287 0
M  V30 3549 H 328.639 1.45382 -0.519951 0
M  V30 3550 H 330.597 3.80983 1.52846 0
M  V30 3551 H 329.258 2.65196 1.68315 0
M  V30 3552 H 328.451 4.93699 1.01379 0
M  V30 3553 H 328.053 3.7327 -0.233482 0
M  V30 3554 H 330.345 6.72585 0.814621 0
M  V30 3555 H 331.288 7.04876 -0.67499 0
M  V30 3556 H 331.696 5.63466 0.341489 0
M  V30 3557 N 331.094 0.475555 1.50254 0
M  V30 3558 C 332.041 -0.316293 2.28622 0
M  V30 3559 C 333.011 -0.983227 1.33873 0
M  V30 3560 O 334.196 -0.994805 1.62814 0
M  V30 3561 C 331.336 -1.38975 3.1588 0
M  V30 3562 C 330.449 -0.737146 4.25664 0
M  V30 3563 C 329.584 -1.78887 5.00173 0
M  V30 3564 C 328.623 -1.11676 6.01826 0
M  V30 3565 N 327.76 -2.11154 6.69596 0
M  V30 3566 H 332.6 0.358297 2.95838 0
M  V30 3567 H 330.137 0.188541 1.45887 0
M  V30 3568 H 332.095 -2.02383 3.64825 0
M  V30 3569 H 330.725 -2.03344 2.50701 0
M  V30 3570 H 329.777 0.0096065 3.80399 0
M  V30 3571 H 331.089 -0.206816 4.98371 0
M  V30 3572 H 330.243 -2.49865 5.52859 0
M  V30 3573 H 328.982 -2.35302 4.27182 0
M  V30 3574 H 327.987 -0.392633 5.48396 0
M  V30 3575 H 329.212 -0.55945 6.76792 0
M  V30 3576 H 327.158 -2.66577 5.99394 0
M  V30 3577 H 327.075 -1.63118 7.38193 0
M  V30 3578 H 328.343 -2.81497 7.26897 0
M  V30 3579 N 332.573 -1.56217 0.208337 0
M  V30 3580 C 333.803 -2.02043 -0.431523 0
M  V30 3581 C 334.211 -1.08755 -1.54819 0
M  V30 3582 O 333.554 -0.0870009 -1.83494 0
M  V30 3583 C 333.616 -3.44239 -1.03633 0
M  V30 3584 C 333.28 -4.56965 -0.0567502 0
M  V30 3585 C 334.277 -5.14624 0.738773 0
M  V30 3586 C 331.962 -5.02266 0.0581736 0
M  V30 3587 C 333.956 -6.16045 1.63605 0
M  V30 3588 C 331.643 -6.03528 0.959001 0
M  V30 3589 C 332.641 -6.60293 1.7465 0
M  V30 3590 O 332.329 -7.59586 2.6322 0
M  V30 3591 H 332.061 -0.666772 -0.111313 0
M  V30 3592 H 334.615 -2.02919 0.318277 0
M  V30 3593 H 332.845 -3.40391 -1.83497 0
M  V30 3594 H 334.534 -3.73793 -1.58221 0
M  V30 3595 H 335.3 -4.80483 0.660364 0
M  V30 3596 H 331.179 -4.57771 -0.544633 0
M  V30 3597 H 334.723 -6.60279 2.25116 0
M  V30 3598 H 330.62 -6.37092 1.03848 0
M  V30 3599 H 331.388 -7.77057 2.57148 0
M  V30 3600 N 334.051 0.0651679 -1.57465 0
M  V30 3601 C 335.276 0.779605 -1.9219 0
M  V30 3602 C 335.701 1.69988 -0.805333 0
M  V30 3603 O 335.059 1.79685 0.241435 0
M  V30 3604 C 335.107 1.54364 -3.2589 0
M  V30 3605 O 334.211 2.65474 -3.1559 0
M  V30 3606 H 333.552 0.212249 -0.629163 0
M  V30 3607 H 336.082 0.0314294 -2.04576 0
M  V30 3608 H 336.092 1.92146 -3.59922 0
M  V30 3609 H 334.767 0.868457 -4.06732 0
M  V30 3610 H 333.344 2.30501 -2.93128 0
M  V30 3611 N 335.529 1.53961 0.336706 0
M  V30 3612 C 336.754 1.75797 1.10046 0
M  V30 3613 C 337.179 0.498985 1.81361 0
M  V30 3614 O 336.537 -0.548769 1.72795 0
M  V30 3615 C 336.585 2.94257 2.08436 0
M  V30 3616 O 335.689 2.64883 3.16087 0
M  V30 3617 H 335.03 0.582936 0.317934 0
M  V30 3618 H 337.56 2.00945 0.38501 0
M  V30 3619 H 337.57 3.21237 2.51537 0
M  V30 3620 H 336.245 3.85564 1.55927 0
M  V30 3621 H 334.822 2.48812 2.77753 0
M  V30 3622 N 337.007 -0.598083 1.45811 0
M  V30 3623 C 338.237 -1.38121 1.53643 0
M  V30 3624 C 338.645 -1.88425 0.171081 0
M  V30 3625 O 337.988 -1.63409 -0.839237 0
M  V30 3626 C 338.05 -2.61432 2.46766 0
M  V30 3627 C 337.714 -2.32702 3.93318 0
M  V30 3628 C 338.711 -1.92479 4.82957 0
M  V30 3629 C 336.396 -2.45321 4.38318 0
M  V30 3630 C 338.39 -1.65248 6.15607 0
M  V30 3631 C 336.077 -2.17703 5.71007 0
M  V30 3632 C 337.075 -1.7773 6.5947 0
M  V30 3633 O 336.763 -1.50441 7.89698 0
M  V30 3634 H 336.495 -0.428863 0.522544 0
M  V30 3635 H 339.049 -0.73557 1.91777 0
M  V30 3636 H 337.279 -3.28749 2.0362 0
M  V30 3637 H 338.968 -3.23487 2.45175 0
M  V30 3638 H 339.734 -1.82258 4.49452 0
M  V30 3639 H 335.613 -2.75399 3.69697 0
M  V30 3640 H 339.157 -1.33973 6.84614 0
M  V30 3641 H 335.054 -2.27544 6.04065 0
M  V30 3642 H 335.822 -1.64415 8.01817 0
M  V30 3643 N 338.485 -1.33259 -0.841409 0
M  V30 3644 C 339.901 -1.12538 -1.13169 0
M  V30 3645 C 340.101 0.0854037 -2.01319 0
M  V30 3646 O 339.157 0.766417 -2.40587 0
M  V30 3647 C 340.47 -2.41156 -1.79623 0
M  V30 3648 C 342.018 -2.47038 -1.922 0
M  V30 3649 C 342.493 -3.7561 -2.6207 0
M  V30 3650 N 343.984 -3.76667 -2.69585 0
M  V30 3651 C 344.719 -4.72861 -3.2433 0
M  V30 3652 N 344.215 -5.79428 -3.79783 0
M  V30 3653 N 346.008 -4.6034 -3.22558 0
M  V30 3654 H 338.159 -2.10868 -0.254676 0
M  V30 3655 H 340.422 -0.931615 -0.175493 0
M  V30 3656 H 340.128 -3.29747 -1.22311 0
M  V30 3657 H 340.002 -2.53114 -2.79666 0
M  V30 3658 H 342.389 -1.58898 -2.48667 0
M  V30 3659 H 342.47 -2.39022 -0.911148 0
M  V30 3660 H 342.114 -4.64131 -2.06263 0
M  V30 3661 H 342.044 -3.80902 -3.63622 0
M  V30 3662 H 344.535 -2.99648 -2.30259 0
M  V30 3663 H 344.848 -6.48867 -4.19752 0
M  V30 3664 H 343.193 -5.83166 -3.78078 0
M  V30 3665 H 346.384 -3.76244 -2.78492 0
M  V30 3666 H 346.557 -5.35478 -3.64921 0
M  V30 3667 N 339.963 1.05934 -1.16686 0
M  V30 3668 C 340.873 2.17014 -0.891183 0
M  V30 3669 C 341.889 1.73453 0.137907 0
M  V30 3670 O 343.065 2.01361 -0.039592 0
M  V30 3671 C 340.13 3.44384 -0.400099 0
M  V30 3672 C 339.191 4.02433 -1.49486 0
M  V30 3673 C 338.424 5.23723 -1.02711 0
M  V30 3674 O 338.647 5.7027 0.121716 0
M  V30 3675 O 337.581 5.7382 -1.81699 0
M  V30 3676 H 341.407 2.43113 -1.82015 0
M  V30 3677 H 338.992 1.15541 -0.947132 0
M  V30 3678 H 340.874 4.21189 -0.133392 0
M  V30 3679 H 339.549 3.19802 0.500817 0
M  V30 3680 H 338.456 3.27102 -1.81535 0
M  V30 3681 H 339.789 4.31317 -2.37121 0
M  V30 3682 N 341.441 0.965919 1.2453 0
M  V30 3683 C 342.718 0.543777 1.87889 0
M  V30 3684 C 343.098 -0.97909 1.87021 0
M  V30 3685 O 342.446 -1.84969 1.3416 0
M  V30 3686 C 342.656 1.13327 3.30088 0
M  V30 3687 C 344.004 1.21707 4.06783 0
M  V30 3688 O 345.028 1.08566 3.39252 0
M  V30 3689 O 343.887 1.42456 5.27606 0
M  V30 3690 H 340.981 0.181054 0.806938 0
M  V30 3691 H 343.527 1.06007 1.32516 0
M  V30 3692 H 342.299 2.17612 3.25209 0
M  V30 3693 H 341.922 0.600911 3.93033 0
M  V30 3694 N 342.919 -1.39368 0.735821 0
M  V30 3695 C 344.165 -2.00794 0.284544 0
M  V30 3696 C 344.498 -1.58255 -1.12557 0
M  V30 3697 O 343.773 -0.811819 -1.76748 0
M  V30 3698 C 344.056 -3.58011 0.387337 0
M  V30 3699 C 343.909 -4.10566 1.83728 0
M  V30 3700 C 345.228 -4.395 -0.22975 0
M  V30 3701 H 342.347 -0.729501 0.104866 0
M  V30 3702 H 344.989 -1.65564 0.93213 0
M  V30 3703 H 343.139 -3.88154 -0.164006 0
M  V30 3704 H 344.811 -3.91139 2.44556 0
M  V30 3705 H 343.054 -3.64095 2.35833 0
M  V30 3706 H 343.725 -5.19702 1.86047 0
M  V30 3707 H 346.201 -4.15406 0.240257 0
M  V30 3708 H 345.077 -5.48752 -0.127485 0
M  V30 3709 H 345.338 -4.22062 -1.3159 0
M  V30 3710 N 344.397 -0.483516 -1.5 0
M  V30 3711 C 345.327 0.293829 -2.31644 0
M  V30 3712 C 346.308 0.978864 -1.39112 0
M  V30 3713 O 347.493 0.973644 -1.68029 0
M  V30 3714 C 344.623 1.36897 -3.19181 0
M  V30 3715 C 343.577 0.804833 -4.20365 0
M  V30 3716 C 342.903 1.9792 -4.96721 0
M  V30 3717 C 344.203 -0.192313 -5.21946 0
M  V30 3718 H 345.897 -0.387616 -2.9688 0
M  V30 3719 H 343.443 -0.187856 -1.42769 0
M  V30 3720 H 345.396 1.92037 -3.751 0
M  V30 3721 H 344.12 2.07936 -2.51853 0
M  V30 3722 H 342.779 0.275319 -3.65565 0
M  V30 3723 H 342.427 2.67686 -4.25856 0
M  V30 3724 H 342.127 1.60789 -5.65173 0
M  V30 3725 H 343.651 2.53526 -5.55479 0
M  V30 3726 H 345.065 0.270333 -5.72662 0
M  V30 3727 H 343.462 -0.478543 -5.98189 0
M  V30 3728 H 344.532 -1.11409 -4.71928 0
M  V30 3729 N 345.875 1.56104 -0.216619 0
M  V30 3730 C 346.822 2.2007 0.695531 0
M  V30 3731 C 347.792 1.15471 1.19397 0
M  V30 3732 O 348.977 1.43807 1.25396 0
M  V30 3733 C 346.117 2.88073 1.90021 0
M  V30 3734 C 345.23 4.07253 1.44113 0
M  V30 3735 C 344.365 4.63052 2.603 0
M  V30 3736 C 343.404 5.74545 2.11103 0
M  V30 3737 N 342.541 6.24656 3.20545 0
M  V30 3738 H 347.381 2.97655 0.143327 0
M  V30 3739 H 344.918 1.46982 0.0589934 0
M  V30 3740 H 346.876 3.25681 2.60745 0
M  V30 3741 H 345.506 2.13015 2.42538 0
M  V30 3742 H 344.558 3.75164 0.628999 0
M  V30 3743 H 345.87 4.8783 1.04036 0
M  V30 3744 H 345.024 5.03078 3.39113 0
M  V30 3745 H 343.763 3.81628 3.03663 0
M  V30 3746 H 342.768 5.34027 1.3075 0
M  V30 3747 H 343.993 6.57801 1.68746 0
M  V30 3748 H 341.939 5.46148 3.63399 0
M  V30 3749 H 341.856 7.00343 2.84704 0
M  V30 3750 H 343.124 6.69338 3.99508 0
M  V30 3751 N 347.353 -0.0568162 1.57498 0
M  V30 3752 C 348.601 -0.751617 1.87604 0
M  V30 3753 C 348.922 -1.77351 0.81066 0
M  V30 3754 O 348.192 -1.95254 -0.159018 0
M  V30 3755 H 346.772 -0.280583 0.692302 0
M  V30 3756 H 349.434 -0.0293483 1.94878 0
M  V30 3757 H 348.53 -1.25852 2.856 0
M  V30 3758 N 348.832 -1.54138 -0.328536 0
M  V30 3759 C 350.08 -1.71765 -1.06496 0
M  V30 3760 C 350.401 -0.49149 -1.88704 0
M  V30 3761 O 349.671 0.494539 -1.89555 0
M  V30 3762 H 348.251 -0.633295 -0.396164 0
M  V30 3763 H 350.913 -1.91429 -0.366176 0
M  V30 3764 H 350.009 -2.5951 -1.73381 0
M  V30 3765 N 350.31 0.590341 -1.46126 0
M  V30 3766 C 351.587 1.35029 -1.41515 0
M  V30 3767 C 351.967 2.10888 -0.0946472 0
M  V30 3768 O 351.315 2.08998 0.923693 0
M  V30 3769 C 351.525 2.28269 -2.63997 0
M  V30 3770 C 352.873 2.90338 -3.09821 0
M  V30 3771 O 353.897 2.38585 -2.64492 0
M  V30 3772 O 352.756 3.84321 -3.88535 0
M  V30 3773 H 349.85 0.606317 -0.562413 0
M  V30 3774 H 352.396 0.611994 -1.58281 0
M  V30 3775 H 351.168 1.71591 -3.51671 0
M  V30 3776 H 350.791 3.0945 -2.49652 0
M  V30 3777 N 351.788 1.33704 0.83433 0
M  V30 3778 C 353.034 1.25603 1.59222 0
M  V30 3779 C 353.367 -0.176659 1.93395 0
M  V30 3780 O 352.642 -1.11915 1.59076 0
M  V30 3781 C 352.925 2.13576 2.89926 0
M  V30 3782 C 352.778 3.65326 2.62406 0
M  V30 3783 C 354.097 2.01238 3.91397 0
M  V30 3784 H 351.216 0.457613 0.577719 0
M  V30 3785 H 353.858 1.63848 0.961972 0
M  V30 3786 H 352.008 1.8109 3.43713 0
M  V30 3787 H 353.68 4.08124 2.15017 0
M  V30 3788 H 351.923 3.8698 1.96033 0
M  V30 3789 H 352.594 4.22232 3.55562 0
M  V30 3790 H 355.07 2.29738 3.46929 0
M  V30 3791 H 353.946 2.65036 4.80673 0
M  V30 3792 H 354.207 0.985951 4.30966 0
M  V30 3793 N 353.266 -1.05314 1.17247 0
M  V30 3794 C 354.512 -1.78557 0.961513 0
M  V30 3795 C 354.845 -1.87419 -0.508697 0
M  V30 3796 O 354.12 -1.37307 -1.37757 0
M  V30 3797 C 354.403 -3.22514 1.60176 0
M  V30 3798 C 354.256 -3.21673 3.14399 0
M  V30 3799 C 355.575 -4.20318 1.30463 0
M  V30 3800 H 352.694 -0.6482 0.350723 0
M  V30 3801 H 355.336 -1.23102 1.44727 0
M  V30 3802 H 353.486 -3.69867 1.18871 0
M  V30 3803 H 355.158 -2.82405 3.64753 0
M  V30 3804 H 353.401 -2.60048 3.47214 0
M  V30 3805 H 354.072 -4.23271 3.54324 0
M  V30 3806 H 356.548 -3.81454 1.66229 0
M  V30 3807 H 355.424 -5.19289 1.77848 0
M  V30 3808 H 355.685 -4.41526 0.22521 0
M  V30 3809 N 354.744 -0.972509 -1.24016 0
M  V30 3810 C 356.16 -0.679827 -1.44397 0
M  V30 3811 C 356.36 0.756716 -1.86751 0
M  V30 3812 O 355.416 1.53007 -2.00861 0
M  V30 3813 C 356.729 -1.66803 -2.50195 0
M  V30 3814 C 358.277 -1.68119 -2.64017 0
M  V30 3815 C 358.752 -2.65748 -3.73017 0
M  V30 3816 N 360.243 -2.64219 -3.8045 0
M  V30 3817 C 360.978 -3.36433 -4.64328 0
M  V30 3818 N 360.474 -4.1818 -5.52356 0
M  V30 3819 N 362.267 -3.25235 -4.58453 0
M  V30 3820 H 354.418 -1.90059 -0.948228 0
M  V30 3821 H 356.681 -0.818527 -0.478245 0
M  V30 3822 H 356.387 -2.69498 -2.25973 0
M  V30 3823 H 356.261 -1.4446 -3.48441 0
M  V30 3824 H 358.648 -0.661319 -2.87594 0
M  V30 3825 H 358.729 -1.94525 -1.66113 0
M  V30 3826 H 358.373 -3.67872 -3.50189 0
M  V30 3827 H 358.303 -2.36619 -4.70446 0
M  V30 3828 H 360.794 -2.04887 -3.17537 0
M  V30 3829 H 361.107 -4.70157 -6.13329 0
M  V30 3830 H 359.452 -4.22273 -5.52006 0
M  V30 3831 H 362.643 -2.60829 -3.88698 0
M  V30 3832 H 362.816 -3.81776 -5.23594 0
M  V30 3833 N 356.222 1.38976 -0.743202 0
M  V30 3834 C 357.152 2.33171 -0.123873 0
M  V30 3835 C 358.133 1.54336 0.71516 0
M  V30 3836 O 359.318 1.82696 0.658467 0
M  V30 3837 C 356.448 3.38474 0.777978 0
M  V30 3838 C 355.402 4.27979 0.0424758 0
M  V30 3839 C 354.728 5.2405 1.06189 0
M  V30 3840 C 356.028 5.10155 -1.1198 0
M  V30 3841 H 357.722 2.85213 -0.910709 0
M  V30 3842 H 355.268 1.37133 -0.439388 0
M  V30 3843 H 357.221 4.03328 1.22084 0
M  V30 3844 H 355.945 2.84891 1.59702 0
M  V30 3845 H 354.604 3.64616 -0.380853 0
M  V30 3846 H 354.252 4.66758 1.87472 0
M  V30 3847 H 353.952 5.84785 0.574485 0
M  V30 3848 H 355.476 5.9178 1.50428 0
M  V30 3849 H 356.89 5.68307 -0.75499 0
M  V30 3850 H 355.287 5.80073 -1.53738 0
M  V30 3851 H 356.357 4.44504 -1.93764 0
M  V30 3852 N 357.7 0.491464 1.49741 0
M  V30 3853 C 358.947 -0.0564256 2.02421 0
M  V30 3854 C 359.275 -1.37872 1.37192 0
M  V30 3855 O 358.53 -1.89375 0.493508 0
M  V30 3856 C 358.829 -0.267329 3.56399 0
M  V30 3857 C 358.495 0.975775 4.40215 0
M  V30 3858 C 357.157 1.31655 4.62839 0
M  V30 3859 C 359.509 1.80251 4.89039 0
M  V30 3860 C 356.837 2.48375 5.31532 0
M  V30 3861 C 359.189 2.96116 5.59015 0
M  V30 3862 C 357.853 3.30585 5.79888 0
M  V30 3863 H 357.123 -0.0206476 0.740712 0
M  V30 3864 H 359.77 0.649686 1.80143 0
M  V30 3865 H 358.075 -1.05588 3.77304 0
M  V30 3866 H 359.772 -0.705549 3.94744 0
M  V30 3867 H 356.362 0.700315 4.2284 0
M  V30 3868 H 360.546 1.55239 4.71396 0
M  V30 3869 H 355.802 2.7533 5.45897 0
M  V30 3870 H 359.976 3.60509 5.95824 0
M  V30 3871 H 357.603 4.21132 6.32892 0
M  V30 3872 N 359.178 -1.55987 0.224894 0
M  V30 3873 C 360.128 -2.17076 -0.697296 0
M  V30 3874 C 361.112 -1.12006 -1.15514 0
M  V30 3875 O 362.304 -1.37985 -1.10857 0
M  V30 3876 C 359.433 -2.85679 -1.90374 0
M  V30 3877 C 358.519 -3.97977 -1.46543 0
M  V30 3878 N 358.91 -5.00359 -0.739909 0
M  V30 3879 C 357.208 -4.10128 -1.75245 0
M  V30 3880 C 357.909 -5.79407 -0.515939 0
M  V30 3881 N 356.885 -5.32892 -1.07364 0
M  V30 3882 H 360.687 -2.93592 -0.134594 0
M  V30 3883 H 358.201 -1.62379 0.0262885 0
M  V30 3884 H 360.198 -3.27857 -2.57518 0
M  V30 3885 H 358.858 -2.1066 -2.47088 0
M  V30 3886 H 359.869 -5.16412 -0.392253 0
M  V30 3887 H 356.546 -3.46263 -2.33255 0
M  V30 3888 H 357.936 -6.71872 0.0617349 0
M  V30 3889 N 360.656 0.0484629 -1.57525 0
M  V30 3890 C 361.619 1.03956 -2.04269 0
M  V30 3891 C 362.619 1.30211 -0.943496 0
M  V30 3892 O 363.809 1.25539 -1.20771 0
M  V30 3893 C 360.941 2.37742 -2.44319 0
M  V30 3894 H 362.134 0.636182 -2.93075 0
M  V30 3895 H 359.687 0.294811 -1.53494 0
M  V30 3896 H 360.422 2.82866 -1.5861 0
M  V30 3897 H 360.207 2.20021 -3.24551 0
M  V30 3898 H 361.697 3.08936 -2.80978 0
M  V30 3899 N 362.134 1.5431 0.320358 0
M  V30 3900 C 363.044 1.86946 1.41734 0
M  V30 3901 C 364.06 0.761689 1.56443 0
M  V30 3902 O 365.236 1.05629 1.71477 0
M  V30 3903 C 362.301 2.09293 2.76401 0
M  V30 3904 C 361.362 3.33082 2.70841 0
M  V30 3905 C 360.595 3.54353 3.99086 0
M  V30 3906 O 360.818 2.79002 4.97508 0
M  V30 3907 O 359.752 4.47838 4.0215 0
M  V30 3908 H 363.578 2.80232 1.17062 0
M  V30 3909 H 361.163 1.40255 0.514673 0
M  V30 3910 H 363.045 2.25303 3.56113 0
M  V30 3911 H 361.72 1.19194 3.00956 0
M  V30 3912 H 360.627 3.22454 1.89668 0
M  V30 3913 H 361.96 4.23249 2.5124 0
M  V30 3914 N 363.613 -0.582584 1.46437 0
M  V30 3915 C 364.545 -1.70618 1.53043 0
M  V30 3916 C 365.558 -1.57322 0.418769 0
M  V30 3917 O 366.747 -1.64744 0.687136 0
M  V30 3918 C 363.847 -3.08869 1.39474 0
M  V30 3919 C 363.02 -3.48166 2.64762 0
M  V30 3920 C 362.079 -4.65478 2.4539 0
M  V30 3921 O 361.105 -4.71333 3.19114 0
M  V30 3922 N 362.307 -5.60365 1.51564 0
M  V30 3923 H 365.072 -1.65405 2.49923 0
M  V30 3924 H 362.633 -0.768567 1.42494 0
M  V30 3925 H 364.625 -3.85143 1.24287 0
M  V30 3926 H 363.195 -3.08449 0.507758 0
M  V30 3927 H 362.415 -2.61598 2.9489 0
M  V30 3928 H 363.703 -3.71188 3.4799 0
M  V30 3929 H 363.101 -5.5837 0.907705 0
M  V30 3930 H 361.658 -6.36068 1.4234 0
M  V30 3931 N 365.091 -1.34144 -0.827227 0
M  V30 3932 C 366.001 -1.27428 -1.96975 0
M  V30 3933 C 367.017 -0.182728 -1.73038 0
M  V30 3934 O 368.193 -0.408426 -1.97215 0
M  V30 3935 C 365.258 -1.02526 -3.31194 0
M  V30 3936 C 364.319 -2.20796 -3.68168 0
M  V30 3937 C 363.552 -1.97073 -4.95982 0
M  V30 3938 O 363.775 -0.926822 -5.6282 0
M  V30 3939 O 362.709 -2.83912 -5.30733 0
M  V30 3940 H 366.535 -2.23537 -2.05584 0
M  V30 3941 H 364.12 -1.14307 -0.961989 0
M  V30 3942 H 366.002 -0.904026 -4.11589 0
M  V30 3943 H 364.677 -0.0945389 -3.23562 0
M  V30 3944 H 363.584 -2.38477 -2.88235 0
M  V30 3945 H 364.917 -3.12243 -3.8048 0
M  V30 3946 N 366.569 1.04691 -1.17803 0
M  V30 3947 C 367.516 2.12557 -0.899343 0
M  V30 3948 C 368.486 1.65339 0.158771 0
M  V30 3949 O 369.671 1.90789 0.0204797 0
M  V30 3950 C 366.811 3.42481 -0.424315 0
M  V30 3951 C 365.924 4.03346 -1.54713 0
M  V30 3952 C 365.059 5.21208 -1.02546 0
M  V30 3953 C 364.098 5.74089 -2.12339 0
M  V30 3954 N 363.235 6.83247 -1.61612 0
M  V30 3955 H 368.075 2.35734 -1.823 0
M  V30 3956 H 365.612 1.1564 -0.909159 0
M  V30 3957 H 367.57 4.16996 -0.130421 0
M  V30 3958 H 366.2 3.19471 0.462377 0
M  V30 3959 H 365.252 3.2622 -1.95664 0
M  V30 3960 H 366.564 4.38628 -2.37501 0
M  V30 3961 H 365.718 6.02812 -0.685718 0
M  V30 3962 H 364.457 4.87414 -0.167084 0
M  V30 3963 H 363.462 4.91111 -2.47165 0
M  V30 3964 H 364.687 6.0993 -2.98601 0
M  V30 3965 H 362.633 6.5134 -0.780533 0
M  V30 3966 H 362.55 7.17559 -2.38003 0
M  V30 3967 H 363.818 7.68491 -1.30545 0
M  V30 3968 N 368.047 0.979072 1.23499 0
M  V30 3969 C 369.294 0.647219 1.91878 0
M  V30 3970 C 369.622 -0.819074 1.76413 0
M  V30 3971 O 368.877 -1.60616 1.11808 0
M  V30 3972 C 369.176 0.981932 3.43646 0
M  V30 3973 C 368.842 2.43822 3.79291 0
M  V30 3974 C 367.504 2.83622 3.88731 0
M  V30 3975 C 369.856 3.3828 3.96505 0
M  V30 3976 C 367.184 4.16897 4.12812 0
M  V30 3977 C 369.536 4.71197 4.22085 0
M  V30 3978 C 368.2 5.10758 4.29747 0
M  V30 3979 H 367.47 0.236834 0.702133 0
M  V30 3980 H 370.117 1.23268 1.46551 0
M  V30 3981 H 368.422 0.314365 3.90537 0
M  V30 3982 H 370.119 0.703395 3.94783 0
M  V30 3983 H 366.709 2.11966 3.72516 0
M  V30 3984 H 370.893 3.0871 3.88603 0
M  V30 3985 H 366.149 4.47157 4.16966 0
M  V30 3986 H 370.323 5.44348 4.34348 0
M  V30 3987 H 367.95 6.1405 4.48159 0
M  V30 3988 N 369.525 -1.3858 0.750561 0
M  V30 3989 C 370.455 -2.33102 0.136237 0
M  V30 3990 C 371.436 -1.54713 -0.706965 0
M  V30 3991 O 372.621 -1.83043 -0.648769 0
M  V30 3992 C 369.751 -3.38882 -0.760017 0
M  V30 3993 C 368.705 -4.27995 -0.0197785 0
M  V30 3994 C 368.031 -5.24605 -1.03408 0
M  V30 3995 C 369.331 -5.09554 1.14684 0
M  V30 3996 H 371.025 -2.84726 0.925822 0
M  V30 3997 H 368.571 -1.36898 0.446654 0
M  V30 3998 H 370.524 -4.0397 -1.19943 0
M  V30 3999 H 369.248 -2.85734 -1.58189 0
M  V30 4000 H 367.907 -3.64409 0.400184 0
M  V30 4001 H 367.555 -4.67746 -1.84994 0
M  V30 4002 H 367.255 -5.85081 -0.543464 0
M  V30 4003 H 368.779 -5.9257 -1.47288 0
M  V30 4004 H 370.193 -5.67899 0.785118 0
M  V30 4005 H 368.59 -5.7925 1.56812 0
M  V30 4006 H 369.66 -4.4347 1.96118 0
M  V30 4007 N 371.003 -0.499398 -1.49478 0
M  V30 4008 C 372.231 0.0425456 -2.06856 0
M  V30 4009 C 372.646 1.30964 -1.35992 0
M  V30 4010 O 372.003 1.77172 -0.437762 0
M  V30 4011 C 372.054 0.301735 -3.60239 0
M  V30 4012 O 371.775 -0.915127 -4.28436 0
M  V30 4013 C 373.276 0.887499 -4.34325 0
M  V30 4014 H 370.496 -0.0197482 -0.670709 0
M  V30 4015 H 373.04 -0.696297 -1.92281 0
M  V30 4016 H 371.195 0.990556 -3.74522 0
M  V30 4017 H 371.609 -0.676993 -5.20113 0
M  V30 4018 H 373.083 1.01845 -5.42523 0
M  V30 4019 H 373.56 1.88488 -3.96698 0
M  V30 4020 H 374.166 0.236196 -4.24644 0
M  V30 4021 N 372.481 1.55866 -0.233164 0
M  V30 4022 C 373.721 2.00506 0.397078 0
M  V30 4023 C 374.085 1.1176 1.56121 0
M  V30 4024 O 375.286 1.45796 2.25825 0
M  V30 4025 C 373.557 3.4811 0.809601 0
M  V30 4026 S 375.116 4.14765 1.43231 0
M  V30 4027 H 371.934 0.699828 0.125547 0
M  V30 4028 H 374.536 1.92429 -0.345177 0
M  V30 4029 H 373.24 4.10373 -0.0471601 0
M  V30 4030 H 372.771 3.60085 1.58438 0
M  V30 4031 H 374.786 4.14914 2.7214 0
M  V30 4032 N 373.959 -0.0401083 1.57549 0
M  V30 4033 C 375.236 -0.767917 1.79896 0
M  V30 4034 C 375.616 -1.9416 0.82856 0
M  V30 4035 O 374.964 -2.2812 -0.131671 0
M  V30 4036 C 375.174 -1.2113 3.27305 0
M  V30 4037 C 376.522 -1.63175 3.91994 0
M  V30 4038 O 377.546 -1.30616 3.31388 0
M  V30 4039 O 376.405 -2.23565 4.98679 0
M  V30 4040 H 373.499 -0.370441 0.739393 0
M  V30 4041 H 376.045 -0.017737 1.69691 0
M  V30 4042 H 374.817 -0.372937 3.89519 0
M  V30 4043 H 374.44 -2.02183 3.42356 0
M  V30 4044 N 375.437 -1.54477 -0.31217 0
M  V30 4045 C 376.347 -1.87695 -1.4074 0
M  V30 4046 C 377.363 -0.769975 -1.56036 0
M  V30 4047 O 378.539 -1.06537 -1.70915 0
M  V30 4048 C 375.604 -2.10755 -2.75287 0
M  V30 4049 C 374.665 -3.34514 -2.69071 0
M  V30 4050 C 373.898 -3.56465 -3.97201 0
M  V30 4051 O 374.121 -2.81637 -4.96021 0
M  V30 4052 O 373.055 -4.49964 -3.9977 0
M  V30 4053 H 376.881 -2.80849 -1.15574 0
M  V30 4054 H 374.466 -1.40526 -0.507228 0
M  V30 4055 H 376.348 -2.27188 -3.54913 0
M  V30 4056 H 375.023 -1.20788 -3.0032 0
M  V30 4057 H 373.93 -3.23456 -1.87955 0
M  V30 4058 H 375.263 -4.24575 -2.48992 0
M  V30 4059 N 376.915 0.57481 -1.46744 0
M  V30 4060 C 378.145 1.35659 -1.55821 0
M  V30 4061 C 378.553 1.88129 -0.201036 0
M  V30 4062 O 377.896 1.64723 0.813134 0
M  V30 4063 C 377.958 2.57473 -2.50894 0
M  V30 4064 C 377.622 2.26415 -3.9697 0
M  V30 4065 C 378.619 1.84771 -4.85958 0
M  V30 4066 C 376.304 2.38316 -4.42166 0
M  V30 4067 C 378.298 1.55434 -6.18158 0
M  V30 4068 C 375.985 2.08591 -5.74398 0
M  V30 4069 C 376.983 1.67216 -6.62214 0
M  V30 4070 O 376.671 1.37859 -7.91991 0
M  V30 4071 H 376.403 0.420496 -0.529301 0
M  V30 4072 H 378.957 0.704967 -1.92923 0
M  V30 4073 H 377.187 3.25468 -2.08824 0
M  V30 4074 H 378.876 3.19546 -2.50291 0
M  V30 4075 H 379.642 1.75085 -4.52295 0
M  V30 4076 H 375.521 2.69483 -3.74032 0
M  V30 4077 H 379.065 1.23065 -6.86659 0
M  V30 4078 H 374.962 2.17905 -6.07608 0
M  V30 4079 H 375.73 1.51638 -8.04331 0
M  V30 4080 N 378.394 1.34581 0.820102 0
M  V30 4081 C 379.304 1.28471 1.96297 0
M  V30 4082 C 380.32 0.191902 1.72939 0
M  V30 4083 O 381.496 0.418879 1.96996 0
M  V30 4084 C 378.561 1.04281 3.30645 0
M  V30 4085 C 377.622 2.22745 3.66992 0
M  V30 4086 C 376.855 1.997 4.9493 0
M  V30 4087 O 377.078 0.956656 5.6232 0
M  V30 4088 O 376.012 2.86723 5.2922 0
M  V30 4089 H 379.838 2.24624 2.04396 0
M  V30 4090 H 377.423 1.14816 0.955913 0
M  V30 4091 H 379.305 0.925841 4.11104 0
M  V30 4092 H 377.98 0.111697 3.23507 0
M  V30 4093 H 376.887 2.40003 2.86966 0
M  V30 4094 H 378.22 3.14257 3.78819 0
M  V30 4095 N 379.872 -1.04064 1.18357 0
M  V30 4096 C 380.819 -2.12077 0.910603 0
M  V30 4097 C 381.789 -1.65421 -0.15 0
M  V30 4098 O 382.974 -1.90797 -0.0103614 0
M  V30 4099 C 380.114 -3.42252 0.442472 0
M  V30 4100 C 379.227 -4.0252 1.5685 0
M  V30 4101 C 378.362 -5.20657 1.05309 0
M  V30 4102 C 377.401 -5.72955 2.1538 0
M  V30 4103 N 376.538 -6.8238 1.65233 0
M  V30 4104 H 381.378 -2.34764 1.83548 0
M  V30 4105 H 378.915 -1.15157 0.915279 0
M  V30 4106 H 380.873 -4.16921 0.152534 0
M  V30 4107 H 379.503 -3.19712 -0.445428 0
M  V30 4108 H 378.555 -3.25178 1.97391 0
M  V30 4109 H 379.867 -4.37362 2.39824 0
M  V30 4110 H 379.021 -6.0244 0.717677 0
M  V30 4111 H 377.76 -4.87318 0.19293 0
M  V30 4112 H 376.765 -4.89793 2.49766 0
M  V30 4113 H 377.99 -6.08337 3.01832 0
M  V30 4114 H 375.936 -6.50917 0.815064 0
M  V30 4115 H 375.853 -7.16286 2.41805 0
M  V30 4116 H 377.121 -7.67788 1.34619 0
M  V30 4117 N 381.35 -0.985608 -1.22978 0
M  V30 4118 C 382.297 -0.529825 -2.24636 0
M  V30 4119 C 383.267 0.434028 -1.60329 0
M  V30 4120 O 384.452 0.340414 -1.87739 0
M  V30 4121 C 381.592 0.156533 -3.44745 0
M  V30 4122 C 380.705 -0.848197 -4.23591 0
M  V30 4123 C 379.84 -0.136109 -5.31026 0
M  V30 4124 C 378.879 -1.1297 -6.01585 0
M  V30 4125 N 378.016 -0.446415 -7.00679 0
M  V30 4126 H 382.856 -1.40148 -2.62988 0
M  V30 4127 H 380.393 -0.702168 -1.29259 0
M  V30 4128 H 382.351 0.571324 -4.1327 0
M  V30 4129 H 380.981 0.992025 -3.07179 0
M  V30 4130 H 380.033 -1.38135 -3.54433 0
M  V30 4131 H 381.345 -1.60512 -4.72268 0
M  V30 4132 H 380.499 0.335784 -6.0577 0
M  V30 4133 H 379.238 0.653373 -4.83304 0
M  V30 4134 H 378.243 -1.6123 -5.25628 0
M  V30 4135 H 379.468 -1.91993 -6.51395 0
M  V30 4136 H 377.414 0.323763 -6.55201 0
M  V30 4137 H 377.331 -1.1419 -7.47326 0
M  V30 4138 H 378.599 0.00291697 -7.795 0
M  V30 4139 N 382.828 1.3818 -0.7579 0
M  V30 4140 C 383.76 2.2901 -0.0932177 0
M  V30 4141 C 384.773 1.47958 0.679136 0
M  V30 4142 O 385.962 1.70773 0.519514 0
M  V30 4143 C 383.062 3.26953 0.89192 0
M  V30 4144 C 382.235 4.37045 0.176303 0
M  V30 4145 C 381.294 5.15148 1.07281 0
M  V30 4146 O 380.32 5.66616 0.541728 0
M  V30 4147 N 381.522 5.28542 2.40049 0
M  V30 4148 H 384.287 2.86694 -0.873303 0
M  V30 4149 H 381.848 1.50007 -0.609054 0
M  V30 4150 H 383.84 3.76083 1.49479 0
M  V30 4151 H 382.41 2.70136 1.57306 0
M  V30 4152 H 381.63 3.89493 -0.607328 0
M  V30 4153 H 382.918 5.07801 -0.318718 0
M  V30 4154 H 382.316 4.88285 2.85647 0
M  V30 4155 H 380.873 5.8103 2.95376 0
M  V30 4156 N 384.306 0.507319 1.49211 0
M  V30 4157 C 385.256 -0.287112 2.26185 0
M  V30 4158 C 386.24 -0.929983 1.31302 0
M  V30 4159 O 387.432 -0.836538 1.55984 0
M  V30 4160 C 384.561 -1.34718 3.15763 0
M  V30 4161 C 383.647 -0.710235 4.18111 0
M  V30 4162 N 384.038 0.190836 5.0544 0
M  V30 4163 C 382.336 -0.97009 4.35322 0
M  V30 4164 C 383.037 0.55606 5.79036 0
M  V30 4165 N 382.013 -0.0775232 5.43545 0
M  V30 4166 H 385.815 0.406445 2.91076 0
M  V30 4167 H 383.329 0.323814 1.59139 0
M  V30 4168 H 385.326 -1.92982 3.69545 0
M  V30 4169 H 383.986 -2.04235 2.52424 0
M  V30 4170 H 384.997 0.562047 5.14841 0
M  V30 4171 H 381.674 -1.65753 3.83187 0
M  V30 4172 H 383.064 1.2936 6.5933 0
M  V30 4173 N 385.784 -1.5574 0.241426 0
M  V30 4174 C 387.033 -1.97986 -0.385295 0
M  V30 4175 C 387.346 -1.13267 -1.59468 0
M  V30 4176 O 388.552 -1.45501 -2.2922 0
M  V30 4177 C 387.008 -3.52275 -0.736884 0
M  V30 4178 C 386.616 -4.45726 0.450796 0
M  V30 4179 C 388.36 -4.03189 -1.3281 0
M  V30 4180 C 386.267 -5.91352 0.0756662 0
M  V30 4181 H 385.197 -0.739386 -0.147731 0
M  V30 4182 H 387.848 -1.80308 0.340779 0
M  V30 4183 H 386.23 -3.65628 -1.52094 0
M  V30 4184 H 387.404 -4.44131 1.22819 0
M  V30 4185 H 385.719 -4.05264 0.956573 0
M  V30 4186 H 388.316 -5.09505 -1.62201 0
M  V30 4187 H 388.659 -3.50212 -2.25071 0
M  V30 4188 H 389.192 -3.93141 -0.607069 0
M  V30 4189 H 385.931 -6.48354 0.965272 0
M  V30 4190 H 385.451 -5.96095 -0.665635 0
M  V30 4191 H 387.13 -6.46084 -0.344075 0
M  V30 4192 N 387.262 0.0317525 -1.57568 0
M  V30 4193 C 388.509 0.723104 -1.89149 0
M  V30 4194 C 388.837 1.75504 -0.838377 0
M  V30 4195 O 388.092 1.95037 0.160982 0
M  V30 4196 C 388.391 1.43167 -3.27472 0
M  V30 4197 C 388.057 0.535972 -4.47703 0
M  V30 4198 C 386.719 0.289262 -4.8033 0
M  V30 4199 C 389.071 -0.0826125 -5.21135 0
M  V30 4200 C 386.399 -0.584853 -5.83778 0
M  V30 4201 C 388.751 -0.944414 -6.25511 0
M  V30 4202 C 387.415 -1.20061 -6.56614 0
M  V30 4203 H 386.685 0.264602 -0.692146 0
M  V30 4204 H 389.332 -0.0169496 -1.91492 0
M  V30 4205 H 387.637 2.24497 -3.21105 0
M  V30 4206 H 389.334 1.97209 -3.49155 0
M  V30 4207 H 385.924 0.738414 -4.22191 0
M  V30 4208 H 390.108 0.0950302 -4.96209 0
M  V30 4209 H 385.364 -0.79168 -6.06253 0
M  V30 4210 H 389.538 -1.43026 -6.81554 0
M  V30 4211 H 387.165 -1.87967 -7.36595 0
M  V30 4212 N 388.74 1.54641 0.303973 0
M  V30 4213 C 389.67 1.88386 1.3796 0
M  V30 4214 C 390.651 0.742485 1.5304 0
M  V30 4215 O 391.836 0.997959 1.66597 0
M  V30 4216 C 388.966 2.12854 2.74427 0
M  V30 4217 C 387.92 3.28702 2.74115 0
M  V30 4218 C 387.246 3.38582 4.13844 0
M  V30 4219 C 388.546 4.65881 2.3612 0
M  V30 4220 H 390.24 2.78474 1.09966 0
M  V30 4221 H 387.786 1.33988 0.527556 0
M  V30 4222 H 389.739 2.35047 3.49758 0
M  V30 4223 H 388.463 1.19535 3.03939 0
M  V30 4224 H 387.122 3.06428 2.0124 0
M  V30 4225 H 386.77 2.42784 4.40528 0
M  V30 4226 H 386.47 4.16453 4.14537 0
M  V30 4227 H 387.994 3.63031 4.90959 0
M  V30 4228 H 389.408 4.87823 3.01167 0
M  V30 4229 H 387.805 5.46444 2.48031 0
M  V30 4230 H 388.875 4.66799 1.3125 0
M  V30 4231 N 390.218 -0.567019 1.47046 0
M  V30 4232 C 391.634 -0.891975 1.32348 0
M  V30 4233 C 391.834 -1.99154 0.306616 0
M  V30 4234 O 390.89 -2.50883 -0.28532 0
M  V30 4235 C 392.203 -1.29449 2.7141 0
M  V30 4236 C 393.751 -1.40646 2.79621 0
M  V30 4237 C 394.226 -1.84257 4.19301 0
M  V30 4238 N 395.717 -1.91424 4.21795 0
M  V30 4239 C 396.452 -2.26476 5.26779 0
M  V30 4240 N 395.948 -2.60211 6.42077 0
M  V30 4241 N 397.741 -2.27166 5.14152 0
M  V30 4242 H 389.892 0.159074 2.11803 0
M  V30 4243 H 392.155 0.00849752 0.947962 0
M  V30 4244 H 391.861 -0.560448 3.47206 0
M  V30 4245 H 391.735 -2.25273 3.02542 0
M  V30 4246 H 394.122 -2.13133 2.04104 0
M  V30 4247 H 394.203 -0.430339 2.52154 0
M  V30 4248 H 393.847 -1.12343 4.95319 0
M  V30 4249 H 393.777 -2.82855 4.44185 0
M  V30 4250 H 396.268 -1.6778 3.38612 0
M  V30 4251 H 396.581 -2.85956 7.17948 0
M  V30 4252 H 394.926 -2.57813 6.45413 0
M  V30 4253 H 398.117 -2.00244 4.23107 0
M  V30 4254 H 398.29 -2.54154 5.96079 0
M  V30 4255 N 391.696 -1.35014 -0.812953 0
M  V30 4256 C 392.924 -1.31031 -1.6012 0
M  V30 4257 C 393.339 0.113558 -1.88458 0
M  V30 4258 O 392.696 1.06363 -1.48301 0
M  V30 4259 C 392.747 -2.10872 -2.93624 0
M  V30 4260 O 392.468 -3.47706 -2.66518 0
M  V30 4261 C 393.969 -2.14401 -3.88004 0
M  V30 4262 H 391.189 -0.45037 -0.497401 0
M  V30 4263 H 393.733 -1.77775 -1.01076 0
M  V30 4264 H 391.888 -1.67744 -3.492 0
M  V30 4265 H 392.302 -3.89097 -3.51715 0
M  V30 4266 H 393.776 -2.74669 -4.78812 0
M  V30 4267 H 394.253 -1.14105 -4.24119 0
M  V30 4268 H 394.859 -2.57662 -3.38364 0
M  V30 4269 N 393.175 1.03435 -1.18907 0
M  V30 4270 C 394.403 1.80381 -1.01342 0
M  V30 4271 C 394.818 1.83649 0.438005 0
M  V30 4272 O 394.175 1.27655 1.30424 0
M  V30 4273 C 394.226 3.25689 -1.56873 0
M  V30 4274 O 393.947 3.22673 -2.96334 0
M  V30 4275 C 395.448 4.19255 -1.44014 0
M  V30 4276 H 392.668 0.56784 -0.35749 0
M  V30 4277 H 395.212 1.30317 -1.576 0
M  V30 4278 H 393.367 3.72962 -1.04777 0
M  V30 4279 H 393.781 4.13748 -3.22355 0
M  V30 4280 H 395.255 5.19123 -1.87657 0
M  V30 4281 H 395.732 4.37467 -0.389815 0
M  V30 4282 H 396.338 3.77851 -1.95214 0
M  V30 4283 N 394.653 0.992116 1.22453 0
M  V30 4284 C 395.583 0.561677 2.26644 0
M  V30 4285 C 396.564 -0.411055 1.65059 0
M  V30 4286 O 397.749 -0.301861 1.9184 0
M  V30 4287 C 394.879 -0.125247 3.47074 0
M  V30 4288 C 393.833 0.765948 4.21091 0
M  V30 4289 C 393.159 -0.0538484 5.34673 0
M  V30 4290 C 394.459 2.06242 4.79856 0
M  V30 4291 H 396.153 1.43259 2.62902 0
M  V30 4292 H 393.699 0.690283 1.26377 0
M  V30 4293 H 395.652 -0.437764 4.1912 0
M  V30 4294 H 394.376 -1.03069 3.0991 0
M  V30 4295 H 393.035 1.0621 3.50878 0
M  V30 4296 H 392.683 -0.960188 4.9375 0
M  V30 4297 H 392.383 0.539415 5.85119 0
M  V30 4298 H 393.907 -0.360477 6.09535 0
M  V30 4299 H 395.321 1.8139 5.43848 0
M  V30 4300 H 393.718 2.60444 5.40638 0
M  V30 4301 H 394.788 2.74167 3.99951 0
M  V30 4302 N 396.131 -1.37776 0.765217 0
M  V30 4303 C 397.547 -1.53297 0.444108 0
M  V30 4304 C 397.747 -1.72515 -1.04119 0
M  V30 4305 O 396.803 -1.74278 -1.82711 0
M  V30 4306 C 398.116 -2.73328 1.25349 0
M  V30 4307 C 399.664 -2.87185 1.24473 0
M  V30 4308 C 400.139 -4.10191 2.03733 0
M  V30 4309 N 401.63 -4.17291 2.01053 0
M  V30 4310 C 402.365 -5.11488 2.59166 0
M  V30 4311 N 401.861 -6.11285 3.26041 0
M  V30 4312 N 403.654 -5.03924 2.49032 0
M  V30 4313 H 395.805 -1.23552 1.72768 0
M  V30 4314 H 398.068 -0.601103 0.733062 0
M  V30 4315 H 397.774 -2.6557 2.30577 0
M  V30 4316 H 397.648 -3.66834 0.87823 0
M  V30 4317 H 400.035 -2.94418 0.20047 0
M  V30 4318 H 400.116 -1.94657 1.65959 0
M  V30 4319 H 399.76 -4.0372 3.08176 0
M  V30 4320 H 399.69 -5.01821 1.59633 0
M  V30 4321 H 402.181 -3.45825 1.5236 0
M  V30 4322 H 402.494 -6.79678 3.67774 0
M  V30 4323 H 400.839 -6.11583 3.30138 0
M  V30 4324 H 404.03 -4.24902 1.96407 0
M  V30 4325 H 404.203 -5.77152 2.94617 0
M  V30 4326 N 397.609 -0.515225 -1.4894 0
M  V30 4327 C 398.541 0.292481 -2.27326 0
M  V30 4328 C 399.554 0.917838 -1.3446 0
M  V30 4329 O 400.743 0.798772 -1.5963 0
M  V30 4330 C 397.843 1.42803 -3.07344 0
M  V30 4331 C 397.016 0.907347 -4.27885 0
M  V30 4332 C 396.075 1.92222 -4.89834 0
M  V30 4333 O 395.101 1.48506 -5.49486 0
M  V30 4334 N 396.303 3.25355 -4.80754 0
M  V30 4335 H 399.068 -0.379721 -2.97285 0
M  V30 4336 H 396.629 -0.348638 -1.58102 0
M  V30 4337 H 398.621 2.10481 -3.45658 0
M  V30 4338 H 397.191 2.00414 -2.39902 0
M  V30 4339 H 396.411 0.0550218 -3.94162 0
M  V30 4340 H 397.699 0.538108 -5.05946 0
M  V30 4341 H 397.097 3.6355 -4.33414 0
M  V30 4342 H 395.654 3.88707 -5.23211 0
M  V30 4343 N 399.087 1.5561 -0.249682 0
M  V30 4344 C 400.312 2.03865 0.381305 0
M  V30 4345 C 400.737 1.12769 1.50548 0
M  V30 4346 O 400.095 0.121189 1.80895 0
M  V30 4347 C 400.143 3.50101 0.863816 0
M  V30 4348 O 399.247 3.62132 1.97318 0
M  V30 4349 H 398.588 0.658827 0.0827194 0
M  V30 4350 H 401.118 2.01105 -0.376552 0
M  V30 4351 H 401.128 3.90975 1.1663 0
M  V30 4352 H 399.803 4.1588 0.0411816 0
M  V30 4353 H 398.38 3.33155 1.67517 0
M  V30 4354 N 400.565 -0.0233959 1.57583 0
M  V30 4355 C 401.528 -1.00693 2.05897 0
M  V30 4356 C 402.528 -1.28693 0.964092 0
M  V30 4357 O 403.718 -1.23602 1.22753 0
M  V30 4358 C 400.85 -2.33825 2.4807 0
M  V30 4359 H 402.043 -0.589476 2.9405 0
M  V30 4360 H 399.596 -0.270354 1.53944 0
M  V30 4361 H 400.331 -2.80307 1.6309 0
M  V30 4362 H 400.116 -2.1483 3.2801 0
M  V30 4363 H 401.606 -3.04426 2.85857 0
M  V30 4364 N 402.043 -1.548 -0.295768 0
M  V30 4365 C 403.271 -1.78327 -1.04914 0
M  V30 4366 C 403.686 -0.545316 -1.80753 0
M  V30 4367 O 403.043 0.485013 -1.75937 0
M  V30 4368 C 403.094 -2.99418 -2.02561 0
M  V30 4369 O 402.815 -4.18431 -1.29798 0
M  V30 4370 C 404.316 -3.35375 -2.89895 0
M  V30 4371 H 401.536 -0.594618 -0.310918 0
M  V30 4372 H 404.08 -2.01763 -0.333454 0
M  V30 4373 H 402.235 -2.78175 -2.69624 0
M  V30 4374 H 402.649 -4.86736 -1.95419 0
M  V30 4375 H 404.123 -4.23332 -3.54251 0
M  V30 4376 H 404.6 -2.53761 -3.58472 0
M  V30 4377 H 405.206 -3.58796 -2.28355 0
M  V30 4378 N 403.521 0.559213 -1.47345 0
M  V30 4379 C 404.746 1.34676 -1.57725 0
M  V30 4380 C 405.171 1.86723 -0.227164 0
M  V30 4381 O 404.529 1.6286 0.796642 0
M  V30 4382 C 404.577 2.49399 -2.60447 0
M  V30 4383 O 403.681 3.51567 -2.15578 0
M  V30 4384 H 403.022 0.400115 -0.52991 0
M  V30 4385 H 405.552 0.676009 -1.93109 0
M  V30 4386 H 405.562 2.95996 -2.80803 0
M  V30 4387 H 404.237 2.10873 -3.58477 0
M  V30 4388 H 402.814 3.11289 -2.05313 0
M  V30 4389 N 404.999 1.35443 0.805782 0
M  V30 4390 C 405.962 1.28301 1.89925 0
M  V30 4391 C 406.962 0.194285 1.59622 0
M  V30 4392 O 408.152 0.448036 1.6834 0
M  V30 4393 C 405.284 0.984997 3.2636 0
M  V30 4394 H 406.477 2.2553 1.97677 0
M  V30 4395 H 404.03 1.19979 1.00173 0
M  V30 4396 H 404.765 0.016603 3.24296 0
M  V30 4397 H 404.55 1.77269 3.4974 0
M  V30 4398 H 406.04 0.960651 4.064 0
M  V30 4399 N 406.477 -1.02803 1.19454 0
M  V30 4400 C 407.705 -1.79841 1.02297 0
M  V30 4401 C 408.12 -1.83879 -0.428259 0
M  V30 4402 O 407.477 -1.28345 -1.29745 0
M  V30 4403 C 407.528 -3.24852 1.58598 0
M  V30 4404 O 407.249 -3.21097 2.98041 0
M  V30 4405 C 408.75 -4.18485 1.46236 0
M  V30 4406 H 405.97 -0.565936 0.360496 0
M  V30 4407 H 408.514 -1.2948 1.58288 0
M  V30 4408 H 406.669 -3.72401 1.06753 0
M  V30 4409 H 407.083 -4.12033 3.24545 0
M  V30 4410 H 408.557 -5.18121 1.90407 0
M  V30 4411 H 409.034 -4.37254 0.41301 0
M  V30 4412 H 409.64 -3.76811 1.97215 0
M  V30 4413 N 407.956 -0.998596 -1.21925 0
M  V30 4414 C 409.181 -0.696015 -1.95372 0
M  V30 4415 C 409.606 0.733826 -1.73195 0
M  V30 4416 O 408.964 1.50242 -1.01474 0
M  V30 4417 C 409.012 -1.01466 -3.4603 0
M  V30 4418 O 408.116 -0.116415 -4.12236 0
M  V30 4419 H 407.457 -0.259938 -0.611006 0
M  V30 4420 H 409.987 -1.33711 -1.54863 0
M  V30 4421 H 409.997 -0.958855 -3.96573 0
M  V30 4422 H 408.672 -2.05653 -3.61497 0
M  V30 4423 H 407.249 -0.228193 -3.72201 0
M  V30 4424 N 409.434 1.37368 -0.772513 0
M  V30 4425 C 410.659 2.0447 -0.347386 0
M  V30 4426 C 411.084 1.57882 1.0225 0
M  V30 4427 O 410.442 0.73941 1.65537 0
M  V30 4428 C 410.49 3.58369 -0.400479 0
M  V30 4429 O 409.594 4.0803 0.598789 0
M  V30 4430 H 408.935 0.646773 -0.15027 0
M  V30 4431 H 411.465 1.75667 -1.04892 0
M  V30 4432 H 411.475 4.07183 -0.258045 0
M  V30 4433 H 410.15 3.91633 -1.39986 0
M  V30 4434 H 408.727 3.70534 0.419411 0
M  V30 4435 N 410.912 0.523116 1.48665 0
M  V30 4436 C 411.859 -0.243398 2.29513 0
M  V30 4437 C 412.829 -0.940139 1.36933 0
M  V30 4438 O 414.014 -0.942503 1.65896 0
M  V30 4439 C 411.154 -1.28855 3.20141 0
M  V30 4440 C 410.267 -0.60135 4.27794 0
M  V30 4441 C 409.402 -1.62884 5.05611 0
M  V30 4442 C 408.441 -0.924726 6.05075 0
M  V30 4443 N 407.578 -1.89744 6.75975 0
M  V30 4444 H 412.418 0.452234 2.94549 0
M  V30 4445 H 409.955 0.234858 1.45213 0
M  V30 4446 H 411.913 -1.90674 3.71079 0
M  V30 4447 H 410.543 -1.95266 2.57043 0
M  V30 4448 H 409.595 0.130623 3.80176 0
M  V30 4449 H 410.907 -0.0481585 4.98777 0
M  V30 4450 H 410.061 -2.32149 5.60528 0
M  V30 4451 H 408.8 -2.21592 4.34452 0
M  V30 4452 H 407.805 -0.217966 5.49368 0
M  V30 4453 H 409.03 -0.343851 6.78229 0
M  V30 4454 H 406.976 -2.47373 6.07571 0
M  V30 4455 H 406.893 -1.3955 7.43009 0
M  V30 4456 H 408.161 -2.58229 7.35485 0
M  V30 4457 N 412.39 -1.55475 0.257931 0
M  V30 4458 C 413.353 -2.20551 -0.623706 0
M  V30 4459 C 414.353 -1.17809 -1.09443 0
M  V30 4460 O 415.543 -1.42823 -0.997362 0
M  V30 4461 C 412.675 -2.85784 -1.8585 0
M  V30 4462 H 413.868 -2.99848 -0.0557743 0
M  V30 4463 H 411.421 -1.56298 0.0084422 0
M  V30 4464 H 412.156 -2.10453 -2.46739 0
M  V30 4465 H 411.941 -3.61057 -1.52907 0
M  V30 4466 H 413.431 -3.35553 -2.48584 0
M  V30 4467 N 413.868 0.0150385 -1.57593 0
M  V30 4468 C 414.798 1.01047 -2.10503 0
M  V30 4469 C 415.779 1.36816 -1.01071 0
M  V30 4470 O 416.964 1.45455 -1.28672 0
M  V30 4471 C 414.094 2.30708 -2.59598 0
M  V30 4472 C 413.048 2.09142 -3.73421 0
M  V30 4473 C 412.374 3.44685 -4.08774 0
M  V30 4474 C 413.674 1.46619 -5.01298 0
M  V30 4475 H 415.368 0.569978 -2.93925 0
M  V30 4476 H 412.914 0.272724 -1.41394 0
M  V30 4477 H 414.867 3.00687 -2.95238 0
M  V30 4478 H 413.591 2.76843 -1.73279 0
M  V30 4479 H 412.25 1.41592 -3.38153 0
M  V30 4480 H 411.898 3.88495 -3.195 0
M  V30 4481 H 411.598 3.31077 -4.8545 0
M  V30 4482 H 413.122 4.16004 -4.4696 0
M  V30 4483 H 414.536 2.06535 -5.34805 0
M  V30 4484 H 412.933 1.43544 -5.82679 0
M  V30 4485 H 414.003 0.433611 -4.82957 0
M  V30 4486 N 415.346 1.54954 0.287554 0
M  V30 4487 C 416.592 1.76059 1.01856 0
M  V30 4488 C 416.947 0.547056 1.84459 0
M  V30 4489 O 416.24 -0.460442 1.85985 0
M  V30 4490 C 416.434 2.99833 1.94512 0
M  V30 4491 C 416.263 4.33108 1.21026 0
M  V30 4492 C 415.033 4.96632 0.931896 0
M  V30 4493 C 417.231 5.10694 0.607949 0
M  V30 4494 N 415.213 6.13668 0.168716 0
M  V30 4495 C 416.584 6.19996 -0.0217865 0
M  V30 4496 C 418.639 4.95236 0.514338 0
M  V30 4497 C 417.342 7.15524 -0.736092 0
M  V30 4498 C 419.368 5.91106 -0.186343 0
M  V30 4499 C 418.73 6.99786 -0.804875 0
M  V30 4500 H 414.829 0.696679 0.355193 0
M  V30 4501 H 417.413 1.92441 0.295741 0
M  V30 4502 H 415.584 2.84853 2.64033 0
M  V30 4503 H 417.316 3.09405 2.60865 0
M  V30 4504 H 414.071 4.57255 1.23348 0
M  V30 4505 H 414.495 6.76705 -0.199781 0
M  V30 4506 H 419.137 4.11328 0.978234 0
M  V30 4507 H 416.855 7.98964 -1.21172 0
M  V30 4508 H 420.441 5.81224 -0.258897 0
M  V30 4509 H 419.321 7.72694 -1.33843 0
M  V30 4510 N 416.824 -0.551391 1.4764 0
M  V30 4511 C 417.734 -1.68525 1.63207 0
M  V30 4512 C 418.75 -1.6621 0.514815 0
M  V30 4513 O 419.926 -1.85551 0.783113 0
M  V30 4514 C 416.991 -3.05025 1.64805 0
M  V30 4515 C 416.052 -3.18362 2.88 0
M  V30 4516 C 415.285 -4.4835 2.89513 0
M  V30 4517 O 415.508 -5.34163 2.00065 0
M  V30 4518 O 414.442 -4.65602 3.81443 0
M  V30 4519 H 418.268 -1.58333 2.59161 0
M  V30 4520 H 415.853 -0.722063 1.30792 0
M  V30 4521 H 417.735 -3.86245 1.68502 0
M  V30 4522 H 416.41 -3.15587 0.720197 0
M  V30 4523 H 415.317 -2.36518 2.89845 0
M  V30 4524 H 416.65 -3.12707 3.80099 0
M  V30 4525 N 418.302 -1.35869 -0.798587 0
M  V30 4526 C 419.551 -1.28921 -1.5512 0
M  V30 4527 C 419.864 0.13208 -1.95154 0
M  V30 4528 O 421.07 0.323879 -2.69561 0
M  V30 4529 C 419.526 -2.26141 -2.79979 0
M  V30 4530 C 419.134 -3.73658 -2.47151 0
M  V30 4531 C 420.878 -2.28152 -3.57976 0
M  V30 4532 C 418.785 -4.62679 -3.6835 0
M  V30 4533 H 417.715 -0.479031 -0.582276 0
M  V30 4534 H 420.366 -1.61179 -0.877125 0
M  V30 4535 H 418.748 -1.86865 -3.49138 0
M  V30 4536 H 419.922 -4.21616 -1.85947 0
M  V30 4537 H 418.237 -3.74333 -1.82383 0
M  V30 4538 H 420.834 -2.91875 -4.4801 0
M  V30 4539 H 421.177 -1.28748 -3.95891 0
M  V30 4540 H 421.71 -2.65998 -2.95787 0
M  V30 4541 H 418.449 -5.63111 -3.35538 0
M  V30 4542 H 417.969 -4.19442 -4.28752 0
M  V30 4543 H 419.648 -4.78498 -4.35487 0
M  V30 4544 N 419.78 1.02168 -1.19998 0
M  V30 4545 C 420.69 2.14069 -0.959774 0
M  V30 4546 C 421.706 1.73804 0.082655 0
M  V30 4547 O 422.882 2.01133 -0.103633 0
M  V30 4548 C 419.947 3.42936 -0.509459 0
M  V30 4549 C 419.008 3.97474 -1.62213 0
M  V30 4550 C 418.241 5.2019 -1.19321 0
M  V30 4551 O 418.464 5.70369 -0.0597726 0
M  V30 4552 O 417.398 5.67749 -1.99863 0
M  V30 4553 H 421.224 2.37199 -1.89658 0
M  V30 4554 H 418.809 1.12469 -0.983411 0
M  V30 4555 H 420.691 4.20551 -0.267322 0
M  V30 4556 H 419.366 3.21234 0.398821 0
M  V30 4557 H 418.273 3.21161 -1.9185 0
M  V30 4558 H 419.606 4.23555 -2.50723 0
M  V30 4559 N 421.258 1.00505 1.21394 0
M  V30 4560 C 422.504 0.688793 1.90745 0
M  V30 4561 C 422.837 -0.778486 1.77914 0
M  V30 4562 O 422.112 -1.56433 1.15581 0
M  V30 4563 C 422.395 1.11063 3.42545 0
M  V30 4564 C 422.248 2.63737 3.64367 0
M  V30 4565 C 423.567 0.673059 4.34923 0
M  V30 4566 H 420.686 0.251702 0.692687 0
M  V30 4567 H 423.328 1.25074 1.43026 0
M  V30 4568 H 421.478 0.632508 3.83317 0
M  V30 4569 H 423.15 3.19313 3.32922 0
M  V30 4570 H 421.393 3.05248 3.08231 0
M  V30 4571 H 422.064 2.88305 4.70727 0
M  V30 4572 H 424.54 1.08392 4.01734 0
M  V30 4573 H 423.416 0.996383 5.39781 0
M  V30 4574 H 423.677 -0.425808 4.40045 0
M  V30 4575 N 422.737 -1.36956 0.779787 0
M  V30 4576 C 423.983 -1.99787 0.348281 0
M  V30 4577 C 424.316 -1.61756 -1.07465 0
M  V30 4578 O 423.591 -0.867639 -1.74075 0
M  V30 4579 C 423.874 -3.56597 0.50104 0
M  V30 4580 C 423.727 -4.04513 1.96697 0
M  V30 4581 C 425.046 -4.40008 -0.0898097 0
M  V30 4582 H 422.165 -0.725796 0.128022 0
M  V30 4583 H 424.807 -1.62514 0.984331 0
M  V30 4584 H 422.957 -3.88479 -0.0404347 0
M  V30 4585 H 424.629 -3.83161 2.56876 0
M  V30 4586 H 422.872 -3.56408 2.47297 0
M  V30 4587 H 423.543 -5.1352 2.02486 0
M  V30 4588 H 426.019 -4.14431 0.372293 0
M  V30 4589 H 424.895 -5.4888 0.0471605 0
M  V30 4590 H 425.156 -4.26035 -1.18096 0
M  V30 4591 N 424.215 -0.530993 -1.48385 0
M  V30 4592 C 425.165 0.251092 -2.26613 0
M  V30 4593 C 426.149 0.908977 -1.32765 0
M  V30 4594 O 427.341 0.811616 -1.57295 0
M  V30 4595 C 424.47 1.29677 -3.17866 0
M  V30 4596 C 423.556 0.643627 -4.19188 0
M  V30 4597 N 423.947 -0.271223 -5.05072 0
M  V30 4598 C 422.245 0.900711 -4.3681 0
M  V30 4599 C 422.946 -0.648109 -5.78078 0
M  V30 4600 N 421.922 -0.00895987 -5.43599 0
M  V30 4601 H 425.724 -0.452702 -2.90393 0
M  V30 4602 H 423.238 -0.349091 -1.58604 0
M  V30 4603 H 425.235 1.87079 -3.72568 0
M  V30 4604 H 423.895 2.00193 -2.55642 0
M  V30 4605 H 424.906 -0.643883 -5.13882 0
M  V30 4606 H 421.583 1.59636 -3.85775 0
M  V30 4607 H 422.973 -1.39833 -6.57188 0
M  V30 4608 N 425.693 1.55336 -0.266172 0
M  V30 4609 C 426.643 2.18848 0.639497 0
M  V30 4610 C 427.627 1.1503 1.12503 0
M  V30 4611 O 428.819 1.40875 1.0716 0
M  V30 4612 C 425.948 2.90626 1.82733 0
M  V30 4613 C 425.034 4.01723 1.35939 0
M  V30 4614 N 425.425 5.02145 0.606988 0
M  V30 4615 C 423.723 4.1463 1.6431 0
M  V30 4616 C 424.424 5.80572 0.362138 0
M  V30 4617 N 423.4 5.35551 0.931971 0
M  V30 4618 H 427.202 2.93845 0.0567057 0
M  V30 4619 H 424.716 1.62252 -0.0693312 0
M  V30 4620 H 426.713 3.34569 2.48735 0
M  V30 4621 H 425.373 2.17137 2.41416 0
M  V30 4622 H 426.384 5.17271 0.255198 0
M  V30 4623 H 423.061 3.52326 2.23993 0
M  V30 4624 H 424.451 6.71472 -0.239848 0
M  V30 4625 N 427.171 -0.0066808 1.57599 0
M  V30 4626 C 428.448 -0.729586 1.81484 0
M  V30 4627 C 428.828 -1.92359 0.869558 0
M  V30 4628 O 428.176 -2.28348 -0.0832533 0
M  V30 4629 C 428.386 -1.1416 3.29801 0
M  V30 4630 C 429.734 -1.54823 3.95367 0
M  V30 4631 O 430.758 -1.23558 3.34084 0
M  V30 4632 O 429.617 -2.12937 5.03309 0
M  V30 4633 H 426.711 -0.354674 0.747085 0
M  V30 4634 H 429.257 0.0182609 1.6969 0
M  V30 4635 H 428.029 -0.290231 3.90222 0
M  V30 4636 H 427.652 -1.94876 3.46568 0
M  V30 4637 N 428.649 -1.55105 -0.279332 0
M  V30 4638 C 430.06 -1.66186 -0.850832 0
M  V30 4639 C 430.411 -0.584707 -1.87285 0
M  V30 4640 O 429.536 0.274919 -2.14647 0
M  V30 4641 C 430.131 -3.01264 -1.55001 0
M  V30 4642 C 428.69 -3.14394 -2.06963 0
M  V30 4643 C 427.837 -2.61959 -0.909536 0
M  V30 4644 H 430.788 -1.58602 -0.0558235 0
M  V30 4645 H 430.809 -2.93899 -2.41669 0
M  V30 4646 H 430.321 -3.7964 -0.805931 0
M  V30 4647 H 428.422 -2.4078 -2.84352 0
M  V30 4648 H 428.535 -4.20867 -2.28928 0
M  V30 4649 H 426.899 -2.18957 -1.30116 0
M  V30 4650 H 427.682 -3.42833 -0.179062 0
M  V30 4651 N 430.127 0.543554 -1.4793 0
M  V30 4652 C 431.367 1.31072 -1.56843 0
M  V30 4653 C 431.731 1.90604 -0.231124 0
M  V30 4654 O 432.932 2.68091 -0.195165 0
M  V30 4655 C 431.203 2.38106 -2.66533 0
M  V30 4656 S 432.762 3.24729 -2.95122 0
M  V30 4657 H 429.58 0.446035 -0.553691 0
M  V30 4658 H 432.182 0.620777 -1.85382 0
M  V30 4659 H 430.886 1.92828 -3.62278 0
M  V30 4660 H 430.417 3.11824 -2.39852 0
M  V30 4661 H 432.432 4.37891 -2.3338 0
M  V30 4662 N 431.605 1.3629 0.791371 0
M  V30 4663 C 433.021 1.16661 1.08914 0
M  V30 4664 C 433.221 -0.0106266 2.01497 0
M  V30 4665 O 432.277 -0.676596 2.43266 0
M  V30 4666 C 433.59 2.47656 1.70549 0
M  V30 4667 C 435.138 2.54002 1.82899 0
M  V30 4668 C 435.613 3.85078 2.47949 0
M  V30 4669 N 437.104 3.86413 2.5542 0
M  V30 4670 C 437.839 4.84572 3.06557 0
M  V30 4671 N 437.335 5.93124 3.58016 0
M  V30 4672 N 439.128 4.71994 3.05251 0
M  V30 4673 H 431.279 2.11668 0.176238 0
M  V30 4674 H 433.542 0.937486 0.140796 0
M  V30 4675 H 433.248 3.34059 1.09989 0
M  V30 4676 H 433.122 2.63319 2.70079 0
M  V30 4677 H 435.509 1.68018 2.42598 0
M  V30 4678 H 435.59 2.42239 0.821808 0
M  V30 4679 H 435.234 4.71467 1.88895 0
M  V30 4680 H 435.164 3.94135 3.49235 0
M  V30 4681 H 437.655 3.07988 2.18979 0
M  V30 4682 H 437.968 6.63999 3.95381 0
M  V30 4683 H 436.313 5.96796 3.56173 0
M  V30 4684 H 439.504 3.86321 2.64336 0
M  V30 4685 H 439.677 5.48653 3.44796 0
M  V30 4686 N 433.083 -1.0153 1.20538 0
M  V30 4687 C 434.331 -1.74803 1.01432 0
M  V30 4688 C 434.652 -1.8963 -0.454456 0
M  V30 4689 O 433.922 -1.43975 -1.32846 0
M  V30 4690 H 432.502 -0.647598 0.372324 0
M  V30 4691 H 435.164 -1.22402 1.5167 0
M  V30 4692 H 434.26 -2.75114 1.47373 0
M  V30 4693 N 434.561 -1.01147 -1.20859 0
M  V30 4694 C 435.809 -0.696486 -1.89719 0
M  V30 4695 C 436.13 0.775788 -1.78904 0
M  V30 4696 O 435.4 1.55759 -1.18811 0
M  V30 4697 H 433.98 -0.254628 -0.702263 0
M  V30 4698 H 436.642 -1.28197 -1.46804 0
M  V30 4699 H 435.738 -0.975357 -2.96468 0
M  V30 4700 N 436.039 1.36541 -0.78704 0
M  V30 4701 C 437.002 2.28413 -0.189778 0
M  V30 4702 C 438.002 1.48719 0.611499 0
M  V30 4703 O 439.192 1.68737 0.432842 0
M  V30 4704 C 436.324 3.32824 0.737638 0
M  V30 4705 H 437.517 2.82743 -0.999831 0
M  V30 4706 H 435.07 1.46065 -0.556298 0
M  V30 4707 H 435.805 2.83646 1.57212 0
M  V30 4708 H 435.59 3.91752 0.165044 0
M  V30 4709 H 437.08 4.0144 1.15047 0
M  V30 4710 N 437.518 0.538854 1.48102 0
M  V30 4711 C 438.766 0.00798599 2.02098 0
M  V30 4712 C 439.087 -1.33922 1.41739 0
M  V30 4713 O 438.357 -1.86932 0.585934 0
M  V30 4714 H 436.937 -3.62179e-05 0.747 0
M  V30 4715 H 439.599 0.7047 1.81714 0
M  V30 4716 H 438.695 -0.0937672 3.11959 0
M  V30 4717 N 438.996 -1.55193 0.274407 0
M  V30 4718 C 439.928 -2.1989 -0.646595 0
M  V30 4719 C 440.941 -1.1834 -1.11801 0
M  V30 4720 O 442.13 -1.4507 -1.04004 0
M  V30 4721 C 439.23 -2.8104 -1.89393 0
M  V30 4722 C 438.403 -4.08274 -1.56943 0
M  V30 4723 C 437.462 -4.53478 -2.66916 0
M  V30 4724 O 436.488 -5.19267 -2.33132 0
M  V30 4725 N 437.69 -4.2356 -3.9696 0
M  V30 4726 H 440.455 -2.99556 -0.0928686 0
M  V30 4727 H 438.016 -1.61618 0.0954783 0
M  V30 4728 H 440.008 -3.08226 -2.62257 0
M  V30 4729 H 438.578 -2.05372 -2.35672 0
M  V30 4730 H 437.798 -3.88384 -0.674655 0
M  V30 4731 H 439.086 -4.91173 -1.32764 0
M  V30 4732 H 438.484 -3.70799 -4.27229 0
M  V30 4733 H 437.041 -4.55518 -4.66205 0
M  V30 4734 N 440.474 -0.00167713 -1.576 0
M  V30 4735 C 441.72 0.67819 -1.91761 0
M  V30 4736 C 442.075 1.71288 -0.876256 0
M  V30 4737 O 441.368 1.91276 0.111333 0
M  V30 4738 C 441.562 1.36189 -3.30435 0
M  V30 4739 C 441.391 0.394938 -4.47962 0
M  V30 4740 C 440.161 0.00472875 -5.053 0
M  V30 4741 C 442.359 -0.339521 -5.13178 0
M  V30 4742 N 440.341 -0.960257 -6.06343 0
M  V30 4743 C 441.712 -1.15914 -6.09068 0
M  V30 4744 C 443.767 -0.403177 -4.96265 0
M  V30 4745 C 442.47 -2.03661 -6.89866 0
M  V30 4746 C 444.496 -1.26788 -5.77649 0
M  V30 4747 C 443.858 -2.07535 -6.73134 0
M  V30 4748 H 439.957 0.221317 -0.750028 0
M  V30 4749 H 442.541 -0.0624182 -1.946 0
M  V30 4750 H 440.712 2.07278 -3.28467 0
M  V30 4751 H 442.444 1.99658 -3.52021 0
M  V30 4752 H 439.199 0.373452 -4.72125 0
M  V30 4753 H 439.623 -1.43817 -6.61548 0
M  V30 4754 H 444.265 0.206818 -4.22294 0
M  V30 4755 H 441.983 -2.65727 -7.63161 0
M  V30 4756 H 445.569 -1.32107 -5.66603 0
M  V30 4757 H 444.449 -2.73363 -7.35012 0
M  V30 4758 N 441.952 1.55251 0.271103 0
M  V30 4759 C 442.9 1.89054 1.35504 0
M  V30 4760 C 443.894 0.767064 1.51038 0
M  V30 4761 O 445.1 0.951429 1.528 0
M  V30 4762 H 441.475 0.600072 0.45323 0
M  V30 4763 H 443.446 2.79598 1.04247 0
M  V30 4764 C 442.195 2.18068 2.70817 0
M  V30 4765 H 441.518 3.04005 2.59656 0
M  V30 4766 H 442.958 2.4564 3.45597 0
M  V30 4767 C 441.417 0.988901 3.2206 0
M  V30 4768 O 441.947 0.224501 4.01072 0
M  V30 4769 N 440.153 0.786085 2.79766 0
M  V30 4770 H 439.7 1.40937 2.15626 0
M  V30 4771 H 439.658 -0.00969349 3.14399 0
M  V30 4772 N 443.43 -0.535701 1.48216 0
M  V30 4773 C 444.655 -1.32149 1.59848 0
M  V30 4774 C 445.08 -1.86338 0.256842 0
M  V30 4775 O 444.438 -1.64107 -0.770632 0
M  V30 4776 C 444.486 -2.45224 2.64381 0
M  V30 4777 O 443.59 -3.48093 2.21144 0
M  V30 4778 H 442.931 -0.391634 0.536208 0
M  V30 4779 H 445.461 -0.645202 1.94161 0
M  V30 4780 H 445.471 -2.91491 2.85476 0
M  V30 4781 H 444.146 -2.05143 3.61786 0
M  V30 4782 H 442.723 -3.07984 2.10239 0
M  V30 4783 N 444.908 -1.36708 -0.784132 0
M  V30 4784 C 445.838 -1.34153 -1.91116 0
M  V30 4785 C 446.819 -0.212121 -1.68772 0
M  V30 4786 O 448.004 -0.410581 -1.8981 0
M  V30 4787 C 445.134 -1.13535 -3.28218 0
M  V30 4788 C 444.088 -2.23356 -3.65097 0
M  V30 4789 C 443.414 -1.87875 -5.00607 0
M  V30 4790 C 444.714 -3.65473 -3.73131 0
M  V30 4791 H 446.408 -2.28459 -1.93512 0
M  V30 4792 H 443.954 -1.09973 -0.929618 0
M  V30 4793 H 445.907 -1.10381 -4.06687 0
M  V30 4794 H 444.631 -0.156804 -3.26223 0
M  V30 4795 H 443.29 -2.25645 -2.88929 0
M  V30 4796 H 442.938 -0.885814 -4.95139 0
M  V30 4797 H 442.638 -2.61406 -5.26252 0
M  V30 4798 H 444.162 -1.86286 -5.81489 0
M  V30 4799 H 445.576 -3.65382 -4.41779 0
M  V30 4800 H 443.973 -4.37953 -4.10265 0
M  V30 4801 H 445.043 -3.99995 -2.74102 0
M  V30 4802 N 446.386 1.0089 -1.21074 0
M  V30 4803 C 447.633 1.74607 -1.0256 0
M  V30 4804 C 447.961 1.89426 0.44136 0
M  V30 4805 O 447.216 1.42266 1.34384 0
M  V30 4806 C 447.515 3.16335 -1.66334 0
M  V30 4807 C 447.181 3.21474 -3.16173 0
M  V30 4808 C 445.843 3.22583 -3.57062 0
M  V30 4809 C 448.195 3.19025 -4.12156 0
M  V30 4810 C 445.523 3.18925 -4.92446 0
M  V30 4811 C 447.875 3.16909 -5.47496 0
M  V30 4812 C 446.539 3.16326 -5.87787 0
M  V30 4813 H 445.809 0.638933 -0.375294 0
M  V30 4814 H 448.456 1.18274 -1.50611 0
M  V30 4815 H 446.761 3.75876 -1.10566 0
M  V30 4816 H 448.458 3.72083 -1.49516 0
M  V30 4817 H 445.048 3.2135 -2.83605 0
M  V30 4818 H 449.232 3.17332 -3.81595 0
M  V30 4819 H 444.488 3.16809 -5.22917 0
M  V30 4820 H 448.662 3.13968 -6.21609 0
M  V30 4821 H 446.289 3.13246 -6.92662 0
M  V30 4822 N 447.864 1.01787 1.20321 0
M  V30 4823 C 449.28 0.732951 1.41774 0
M  V30 4824 C 449.48 -0.686883 1.89431 0
M  V30 4825 O 448.536 -1.45446 2.06402 0
M  V30 4826 C 449.849 1.75973 2.43832 0
M  V30 4827 C 451.397 1.77802 2.57596 0
M  V30 4828 C 451.872 2.7941 3.62897 0
M  V30 4829 N 453.363 2.78157 3.70382 0
M  V30 4830 C 454.098 3.53434 4.51521 0
M  V30 4831 N 453.594 4.38392 5.36455 0
M  V30 4832 N 455.387 3.42026 4.46066 0
M  V30 4833 H 447.538 1.93447 0.877035 0
M  V30 4834 H 449.801 0.835712 0.447536 0
M  V30 4835 H 449.507 2.77699 2.15815 0
M  V30 4836 H 449.381 1.57292 3.4284 0
M  V30 4837 H 451.768 0.767602 2.84942 0
M  V30 4838 H 451.849 2.00557 1.58779 0
M  V30 4839 H 451.493 3.80616 3.36295 0
M  V30 4840 H 451.423 2.53916 4.61339 0
M  V30 4841 H 453.914 2.16531 3.09714 0
M  V30 4842 H 454.227 4.92596 5.95457 0
M  V30 4843 H 452.572 4.4247 5.35953 0
M  V30 4844 H 455.763 2.75075 3.78749 0
M  V30 4845 H 455.936 4.00946 5.09064 0
M  V30 4846 N 449.342 -1.36122 0.79427 0
M  V30 4847 C 450.589 -1.99111 0.368905 0
M  V30 4848 C 450.917 -1.63032 -1.0607 0
M  V30 4849 O 450.172 -0.879303 -1.74833 0
M  V30 4850 C 450.471 -3.5409 0.48527 0
M  V30 4851 C 450.137 -4.10003 1.87638 0
M  V30 4852 C 448.799 -4.24986 2.257 0
M  V30 4853 C 451.151 -4.40423 2.78706 0
M  V30 4854 C 448.479 -4.67701 3.54221 0
M  V30 4855 C 450.831 -4.84573 4.0666 0
M  V30 4856 C 449.495 -4.97761 4.44737 0
M  V30 4857 H 448.765 -0.7286 0.134992 0
M  V30 4858 H 451.412 -1.62534 1.01267 0
M  V30 4859 H 449.717 -3.91052 -0.241984 0
M  V30 4860 H 451.414 -4.00766 0.137109 0
M  V30 4861 H 448.004 -3.98784 1.57064 0
M  V30 4862 H 452.188 -4.28412 2.50553 0
M  V30 4863 H 447.444 -4.761 3.83587 0
M  V30 4864 H 451.618 -5.07074 4.77336 0
M  V30 4865 H 449.245 -5.30618 5.44379 0
M  V30 4866 N 450.82 -0.546701 -1.47814 0
M  V30 4867 C 451.767 0.206854 -2.29871 0
M  V30 4868 C 452.737 0.918235 -1.38411 0
M  V30 4869 O 453.922 0.915991 -1.67375 0
M  V30 4870 C 451.062 1.23746 -3.22151 0
M  V30 4871 C 450.175 0.533216 -4.28697 0
M  V30 4872 C 449.31 1.5482 -5.08138 0
M  V30 4873 C 448.349 0.828347 -6.06469 0
M  V30 4874 N 447.486 1.78966 -6.78908 0
M  V30 4875 H 452.326 -0.499037 -2.93792 0
M  V30 4876 H 449.863 -0.25793 -1.44821 0
M  V30 4877 H 451.821 1.84746 -3.74065 0
M  V30 4878 H 450.451 1.91151 -2.60117 0
M  V30 4879 H 449.503 -0.191089 -3.7992 0
M  V30 4880 H 450.815 -0.0311987 -4.9879 0
M  V30 4881 H 449.969 2.23202 -5.6415 0
M  V30 4882 H 448.708 2.14652 -4.37922 0
M  V30 4883 H 447.713 0.130539 -5.49645 0
M  V30 4884 H 448.938 0.235907 -6.7869 0
M  V30 4885 H 446.884 2.37675 -6.1143 0
M  V30 4886 H 446.801 1.27712 -7.45135 0
M  V30 4887 H 448.069 2.46496 -7.395 0
M  V30 4888 N 452.299 1.55045 -0.282633 0
M  V30 4889 C 453.249 2.19514 0.616249 0
M  V30 4890 C 454.233 1.16216 1.11277 0
M  V30 4891 O 455.425 1.42004 1.05659 0
M  V30 4892 C 452.554 2.92548 1.7964 0
M  V30 4893 C 451.64 4.03142 1.31671 0
M  V30 4894 N 452.031 5.0276 0.553695 0
M  V30 4895 C 450.329 4.1635 1.59903 0
M  V30 4896 C 451.03 5.80923 0.30054 0
M  V30 4897 N 450.006 5.3651 0.875116 0
M  V30 4898 H 453.808 2.93889 0.0255363 0
M  V30 4899 H 451.322 1.62169 -0.0865362 0
M  V30 4900 H 453.319 3.37188 2.45173 0
M  V30 4901 H 451.979 2.19685 2.39099 0
M  V30 4902 H 452.99 5.17512 0.20032 0
M  V30 4903 H 449.667 3.54682 2.20243 0
M  V30 4904 H 451.057 6.7118 -0.311053 0
M  V30 4905 N 453.777 0.010035 1.57597 0
M  V30 4906 C 454.707 -0.976857 2.12084 0
M  V30 4907 C 455.688 -1.35191 1.03235 0
M  V30 4908 O 456.873 -1.43389 1.3097 0
M  V30 4909 C 454.003 -2.26548 2.63236 0
M  V30 4910 C 452.957 -2.03175 3.76701 0
M  V30 4911 C 452.283 -3.38138 4.14206 0
M  V30 4912 C 453.583 -1.38625 5.03568 0
M  V30 4913 H 455.277 -0.523145 2.94794 0
M  V30 4914 H 452.823 -0.250195 1.4181 0
M  V30 4915 H 454.776 -2.95952 2.99984 0
M  V30 4916 H 453.5 -2.74051 1.77661 0
M  V30 4917 H 452.159 -1.36195 3.40362 0
M  V30 4918 H 451.807 -3.83363 3.25641 0
M  V30 4919 H 451.507 -3.23312 4.90656 0
M  V30 4920 H 453.031 -4.08841 4.53521 0
M  V30 4921 H 454.445 -1.98 5.38023 0
M  V30 4922 H 452.842 -1.34256 5.84889 0
M  V30 4923 H 453.912 -0.356722 4.83586 0
M  V30 4924 N 455.255 -1.55392 -0.262866 0
M  V30 4925 C 456.218 -1.88181 -1.30846 0
M  V30 4926 C 457.218 -0.757079 -1.41862 0
M  V30 4927 O 458.408 -1.02519 -1.40838 0
M  V30 4928 C 455.54 -2.09609 -2.68844 0
M  V30 4929 H 456.733 -2.81659 -1.02997 0
M  V30 4930 H 454.286 -1.48039 -0.501414 0
M  V30 4931 H 455.021 -1.18547 -3.01856 0
M  V30 4932 H 454.806 -2.91508 -2.62231 0
M  V30 4933 H 456.296 -2.36215 -3.44372 0
M  V30 4934 N 456.733 0.527833 -1.48498 0
M  V30 4935 C 457.961 1.30823 -1.6029 0
M  V30 4936 C 458.376 1.86945 -0.263974 0
M  V30 4937 O 457.733 1.6651 0.747034 0
M  V30 4938 C 457.784 2.45756 -2.65116 0
M  V30 4939 O 457.505 1.91946 -3.93813 0
M  V30 4940 C 459.006 3.37543 -2.87367 0
M  V30 4941 H 456.226 0.397763 -0.540394 0
M  V30 4942 H 458.77 0.636529 -1.94341 0
M  V30 4943 H 456.925 3.08806 -2.33917 0
M  V30 4944 H 457.339 2.67195 -4.51339 0
M  V30 4945 H 458.813 4.14532 -3.6451 0
M  V30 4946 H 459.29 3.92905 -1.9627 0
M  V30 4947 H 459.896 2.80283 -3.19878 0
M  V30 4948 N 458.211 1.37122 0.776871 0
M  V30 4949 C 459.459 1.31787 1.53221 0
M  V30 4950 C 459.78 -0.0987589 1.9475 0
M  V30 4951 O 459.05 -1.0417 1.65908 0
M  V30 4952 H 457.63 0.484839 0.568278 0
M  V30 4953 H 460.292 1.71556 0.924917 0
M  V30 4954 H 459.388 1.95355 2.43398 0
M  V30 4955 N 459.689 -1.00246 1.21608 0
M  V30 4956 C 460.637 -2.11193 0.97469 0
M  V30 4957 C 461.631 -1.69216 -0.0789303 0
M  V30 4958 O 462.837 -1.79853 0.0726806 0
M  V30 4959 H 459.212 -0.690455 0.297953 0
M  V30 4960 H 461.183 -2.2873 1.91638 0
M  V30 4961 C 459.932 -3.43182 0.558717 0
M  V30 4962 H 459.255 -3.75918 1.3611 0
M  V30 4963 H 460.695 -4.21823 0.429154 0
M  V30 4964 C 459.154 -3.28882 -0.730648 0
M  V30 4965 O 459.684 -3.59835 -1.78554 0
M  V30 4966 N 457.89 -2.8209 -0.698131 0
M  V30 4967 H 457.437 -2.57099 0.16061 0
M  V30 4968 H 457.395 -2.72903 -1.56113 0
M  V30 4969 N 461.167 -1.02423 -1.1978 0
M  V30 4970 C 462.397 -0.736387 -1.93031 0
M  V30 4971 C 462.805 0.708023 -1.75453 0
M  V30 4972 O 462.148 1.4927 -1.07071 0
M  V30 4973 C 462.21 -1.00194 -3.45255 0
M  V30 4974 C 461.874 -2.43698 -3.86601 0
M  V30 4975 C 462.871 -3.41814 -3.91738 0
M  V30 4976 C 460.556 -2.77975 -4.18372 0
M  V30 4977 C 462.55 -4.72265 -4.28071 0
M  V30 4978 C 460.237 -4.08636 -4.54378 0
M  V30 4979 C 461.235 -5.05592 -4.59201 0
M  V30 4980 O 460.923 -6.33914 -4.94376 0
M  V30 4981 H 460.655 -0.269116 -0.620123 0
M  V30 4982 H 463.209 -1.37043 -1.52998 0
M  V30 4983 H 461.439 -0.310747 -3.85449 0
M  V30 4984 H 463.128 -0.704488 -3.9974 0
M  V30 4985 H 463.894 -3.16671 -3.67348 0
M  V30 4986 H 459.773 -2.0319 -4.13805 0
M  V30 4987 H 463.317 -5.4794 -4.3175 0
M  V30 4988 H 459.214 -4.33556 -4.78226 0
M  V30 4989 H 459.982 -6.38317 -5.12341 0
M  V30 4990 N 462.645 1.35699 -0.801477 0
M  V30 4991 C 463.575 2.32436 -0.222658 0
M  V30 4992 C 464.556 1.5723 0.649057 0
M  V30 4993 O 465.741 1.85324 0.580387 0
M  V30 4994 C 462.871 3.41469 0.633719 0
M  V30 4995 C 461.825 4.27774 -0.139083 0
M  V30 4996 C 461.151 5.28082 0.838666 0
M  V30 4997 C 462.451 5.04946 -1.33517 0
M  V30 4998 H 464.145 2.81094 -1.03086 0
M  V30 4999 H 461.691 1.35146 -0.497155 0
M  V30 5000 H 463.644 4.08143 1.04868 0
M  V30 5001 H 462.368 2.91408 1.47475 0
M  V30 5002 H 461.027 3.62673 -0.535156 0
M  V30 5003 H 460.675 4.7429 1.67506 0
M  V30 5004 H 460.375 5.86695 0.32594 0
M  V30 5005 H 461.899 5.97628 1.25194 0
M  V30 5006 H 463.313 5.64593 -0.995349 0
M  V30 5007 H 461.71 5.7303 -1.78202 0
M  V30 5008 H 462.78 4.35886 -2.12442 0
M  V30 5009 N 464.123 0.554532 1.47522 0
M  V30 5010 C 465.086 -0.184174 2.28459 0
M  V30 5011 C 466.086 -0.845195 1.36796 0
M  V30 5012 O 467.276 -0.701467 1.59452 0
M  V30 5013 C 464.408 -1.26903 3.16399 0
M  V30 5014 H 465.601 0.526751 2.95238 0
M  V30 5015 H 463.154 0.311375 1.53167 0
M  V30 5016 H 463.889 -2.01244 2.54306 0
M  V30 5017 H 463.674 -0.799883 3.83854 0
M  V30 5018 H 465.164 -1.78794 3.77389 0
M  V30 5019 N 465.601 -1.54893 0.290851 0
M  V30 5020 C 466.564 -2.21824 -0.576784 0
M  V30 5021 C 467.564 -1.20104 -1.06919 0
M  V30 5022 O 468.754 -1.44906 -0.966843 0
M  V30 5023 C 465.886 -2.89662 -1.79747 0
M  V30 5024 H 467.079 -2.99899 0.00784051 0
M  V30 5025 H 464.632 -1.56245 0.0415934 0
M  V30 5026 H 465.367 -2.15639 -2.42219 0
M  V30 5027 H 465.152 -3.64219 -1.45214 0
M  V30 5028 H 466.642 -3.4075 -2.4141 0
M  V30 5029 N 467.08 -0.0183926 -1.57589 0
M  V30 5030 C 467.99 0.982943 -2.13015 0
M  V30 5031 C 469.006 1.36443 -1.07979 0
M  V30 5032 O 470.182 1.44802 -1.3998 0
M  V30 5033 C 467.247 2.25024 -2.63752 0
M  V30 5034 C 466.308 1.93018 -3.83461 0
M  V30 5035 C 465.541 3.13706 -4.31769 0
M  V30 5036 O 465.764 4.2601 -3.79305 0
M  V30 5037 O 464.698 2.96629 -5.23732 0
M  V30 5038 H 468.524 0.541709 -2.9883 0
M  V30 5039 H 466.109 0.201565 -1.48034 0
M  V30 5040 H 467.991 2.99441 -2.96502 0
M  V30 5041 H 466.666 2.68349 -1.81026 0
M  V30 5042 H 465.573 1.16019 -3.55655 0
M  V30 5043 H 466.906 1.54516 -4.67317 0
M  V30 5044 N 468.558 1.5553 0.254621 0
M  V30 5045 C 469.488 1.9268 1.31897 0
M  V30 5046 C 470.469 0.790797 1.506 0
M  V30 5047 O 471.654 1.05045 1.63337 0
M  V30 5048 C 468.784 2.21477 2.67517 0
M  V30 5049 C 467.738 3.37256 2.63519 0
M  V30 5050 C 467.064 3.51576 4.02862 0
M  V30 5051 C 468.364 4.73157 2.21179 0
M  V30 5052 H 470.058 2.81832 1.01051 0
M  V30 5053 H 467.604 1.35599 0.484662 0
M  V30 5054 H 469.557 2.46055 3.42104 0
M  V30 5055 H 468.281 1.29144 2.99982 0
M  V30 5056 H 466.94 3.12675 1.9139 0
M  V30 5057 H 466.588 2.56676 4.32581 0
M  V30 5058 H 466.288 4.2943 4.01078 0
M  V30 5059 H 467.812 3.78467 4.79161 0
M  V30 5060 H 469.226 4.97158 2.85494 0
M  V30 5061 H 467.623 5.54058 2.30521 0
M  V30 5062 H 468.693 4.70739 1.16332 0
M  V30 5063 N 470.036 -0.519951 1.48776 0
M  V30 5064 C 470.984 -1.64443 1.64503 0
M  V30 5065 C 471.978 -1.61501 0.511248 0
M  V30 5066 O 473.184 -1.66238 0.690294 0
M  V30 5067 H 469.559 -0.544776 0.518385 0
M  V30 5068 H 471.53 -1.48325 2.58925 0
M  V30 5069 C 470.279 -3.02673 1.71127 0
M  V30 5070 H 469.602 -3.05635 2.57735 0
M  V30 5071 H 471.042 -3.80941 1.86172 0
M  V30 5072 C 469.501 -3.33854 0.452032 0
M  V30 5073 O 470.031 -3.99385 -0.430678 0
M  V30 5074 N 468.237 -2.88825 0.32069 0
M  V30 5075 H 467.784 -2.35674 1.03998 0
M  V30 5076 H 467.742 -3.10056 -0.520814 0
M  V30 5077 N 471.514 -1.37532 -0.769588 0
M  V30 5078 C 472.925 -1.29382 -1.346 0
M  V30 5079 C 473.276 0.0576039 -1.96115 0
M  V30 5080 O 472.401 0.95947 -1.93967 0
M  V30 5081 C 472.996 -2.34298 -2.44724 0
M  V30 5082 C 471.555 -2.29776 -2.98128 0
M  V30 5083 C 470.702 -2.18013 -1.71364 0
M  V30 5084 H 473.653 -1.48123 -0.56968 0
M  V30 5085 H 473.674 -1.99089 -3.24259 0
M  V30 5086 H 473.186 -3.32645 -1.99922 0
M  V30 5087 H 471.287 -1.34959 -3.47299 0
M  V30 5088 H 471.4 -3.23276 -3.53595 0
M  V30 5089 H 469.764 -1.64595 -1.94372 0
M  V30 5090 H 470.547 -3.18278 -1.28662 0
M  V30 5091 N 472.992 0.995999 -1.22138 0
M  V30 5092 C 474.269 1.70834 -0.952642 0
M  V30 5093 C 474.649 2.04257 0.533119 0
M  V30 5094 O 473.997 1.72343 1.50034 0
M  V30 5095 C 474.207 2.96119 -1.84701 0
M  V30 5096 C 475.555 3.68962 -2.10124 0
M  V30 5097 O 476.579 3.0612 -1.82124 0
M  V30 5098 O 475.438 4.82017 -2.57531 0
M  V30 5099 H 472.532 0.745498 -0.357997 0
M  V30 5100 H 475.078 1.05262 -1.33109 0
M  V30 5101 H 473.85 2.67898 -2.85213 0
M  V30 5102 H 473.473 3.6943 -1.46995 0
M  V30 5103 N 474.47 1.03057 1.19235 0
M  V30 5104 C 475.7 0.746613 1.92638 0
M  V30 5105 C 476.108 -0.698708 1.75826 0
M  V30 5106 O 475.451 -1.487 1.07861 0
M  V30 5107 C 475.513 1.02024 3.44719 0
M  V30 5108 C 475.177 2.45745 3.85303 0
M  V30 5109 C 476.174 3.43887 3.8992 0
M  V30 5110 C 473.859 2.8019 4.16892 0
M  V30 5111 C 475.853 4.74529 4.2556 0
M  V30 5112 C 473.54 4.1104 4.52205 0
M  V30 5113 C 474.538 5.0802 4.56513 0
M  V30 5114 O 474.226 6.36527 4.91008 0
M  V30 5115 H 473.958 0.272401 0.618687 0
M  V30 5116 H 476.512 1.37853 1.52269 0
M  V30 5117 H 474.742 0.331184 3.85279 0
M  V30 5118 H 476.431 0.725677 3.9936 0
M  V30 5119 H 477.197 3.18614 3.65664 0
M  V30 5120 H 473.076 2.05382 4.12722 0
M  V30 5121 H 476.62 5.50222 4.28838 0
M  V30 5122 H 472.517 4.36086 4.7592 0
M  V30 5123 H 473.285 6.41025 5.08949 0
M  V30 5124 N 475.948 -1.35272 0.808662 0
M  V30 5125 C 477.364 -1.51806 0.492653 0
M  V30 5126 C 477.564 -1.7574 -0.985778 0
M  V30 5127 O 476.62 -1.80003 -1.77074 0
M  V30 5128 C 477.933 -2.69202 1.33981 0
M  V30 5129 C 479.481 -2.8308 1.33547 0
M  V30 5130 C 479.956 -4.03502 2.16679 0
M  V30 5131 N 481.447 -4.10684 2.14227 0
M  V30 5132 C 482.182 -5.02984 2.75308 0
M  V30 5133 N 481.678 -6.00603 3.45323 0
M  V30 5134 N 483.471 -4.95746 2.64938 0
M  V30 5135 H 475.622 -1.17993 1.76611 0
M  V30 5136 H 477.885 -0.577476 0.751814 0
M  V30 5137 H 477.591 -2.581 2.38909 0
M  V30 5138 H 477.465 -3.63854 0.994491 0
M  V30 5139 H 479.852 -2.93631 0.294036 0
M  V30 5140 H 479.933 -1.89278 1.72068 0
M  V30 5141 H 479.577 -3.93711 3.20864 0
M  V30 5142 H 479.507 -4.96489 1.75517 0
M  V30 5143 H 481.998 -3.40802 1.63285 0
M  V30 5144 H 482.311 -6.67633 3.89212 0
M  V30 5145 H 480.656 -6.0077 3.49428 0
M  V30 5146 H 483.847 -4.18439 2.09825 0
M  V30 5147 H 484.02 -5.67487 3.12829 0
M  V30 5148 N 477.426 -0.562348 -1.47226 0
M  V30 5149 C 478.703 0.0256985 -1.95583 0
M  V30 5150 C 479.083 1.48032 -1.50498 0
M  V30 5151 O 478.431 2.15973 -0.746181 0
M  V30 5152 C 478.641 -0.125129 -3.48776 0
M  V30 5153 C 479.989 0.0175728 -4.24596 0
M  V30 5154 O 481.013 -0.0529341 -3.56161 0
M  V30 5155 O 479.872 0.170145 -5.46235 0
M  V30 5156 H 476.966 0.0612565 -0.824728 0
M  V30 5157 H 479.512 -0.629233 -1.57603 0
M  V30 5158 H 478.284 -1.13715 -3.74412 0
M  V30 5159 H 477.907 0.567178 -3.93534 0
M  V30 5160 N 478.904 1.54736 -0.299062 0
M  V30 5161 C 479.867 2.22127 0.565012 0
M  V30 5162 C 480.867 1.20669 1.06281 0
M  V30 5163 O 482.057 1.45417 0.959145 0
M  V30 5164 C 479.189 2.90611 1.78208 0
M  V30 5165 H 480.382 2.99891 -0.0237448 0
M  V30 5166 H 477.935 1.5622 -0.0498788 0
M  V30 5167 H 478.67 2.16921 2.41072 0
M  V30 5168 H 478.455 3.64984 1.43281 0
M  V30 5169 H 479.945 3.42026 2.396 0
M  V30 5170 N 480.382 0.0267497 1.57577 0
M  V30 5171 C 481.314 -0.984594 2.06974 0
M  V30 5172 C 482.327 -1.29032 0.992705 0
M  V30 5173 O 483.516 -1.25539 1.26895 0
M  V30 5174 C 480.616 -2.31262 2.47732 0
M  V30 5175 C 479.789 -2.1924 3.78487 0
M  V30 5176 C 478.848 -3.34956 4.05821 0
M  V30 5177 O 477.874 -3.11948 4.76106 0
M  V30 5178 N 479.076 -4.58672 3.55809 0
M  V30 5179 H 481.841 -0.563143 2.94362 0
M  V30 5180 H 479.402 -0.160061 1.61107 0
M  V30 5181 H 481.394 -3.07496 2.63112 0
M  V30 5182 H 479.964 -2.65056 1.65723 0
M  V30 5183 H 479.184 -1.27747 3.72927 0
M  V30 5184 H 480.472 -2.08409 4.64158 0
M  V30 5185 H 479.87 -4.8026 2.98942 0
M  V30 5186 H 478.427 -5.32083 3.76472 0
M  V30 5187 N 481.861 -1.55662 -0.24637 0
M  V30 5188 C 482.809 -1.91186 -1.3248 0
M  V30 5189 C 483.803 -0.790996 -1.49799 0
M  V30 5190 O 485.009 -0.975617 -1.51267 0
M  V30 5191 H 481.384 -0.607207 -0.443626 0
M  V30 5192 H 483.355 -2.81221 -0.997853 0
M  V30 5193 C 482.104 -2.22349 -2.67313 0
M  V30 5194 H 481.427 -3.08097 -2.54786 0
M  V30 5195 H 482.867 -2.51107 -3.41645 0
M  V30 5196 C 481.326 -1.04001 -3.20446 0
M  V30 5197 O 481.856 -0.28828 -4.00664 0
M  V30 5198 N 480.062 -0.830494 -2.7848 0
M  V30 5199 H 479.609 -1.4435 -2.13356 0
M  V30 5200 H 479.567 -0.0403258 -3.14374 0
M  V30 5201 N 483.339 0.512053 -1.4905 0
M  V30 5202 C 484.249 1.64139 -1.67617 0
M  V30 5203 C 485.265 1.64786 -0.558701 0
M  V30 5204 O 486.441 1.8341 -0.832034 0
M  V30 5205 C 483.506 3.00548 -1.72835 0
M  V30 5206 C 482.567 3.10615 -2.96339 0
M  V30 5207 C 481.8 4.40517 -3.01298 0
M  V30 5208 O 482.023 5.28671 -2.14157 0
M  V30 5209 O 480.957 4.55325 -3.93653 0
M  V30 5210 H 484.783 1.51407 -2.63267 0
M  V30 5211 H 482.368 0.687131 -1.32661 0
M  V30 5212 H 484.25 3.81641 -1.78683 0
M  V30 5213 H 482.925 3.13566 -0.803616 0
M  V30 5214 H 481.832 2.2875 -2.96014 0
M  V30 5215 H 483.165 3.0252 -3.88256 0
M  V30 5216 N 484.817 1.37938 0.762283 0
M  V30 5217 C 486.065 1.33404 1.51815 0
M  V30 5218 C 486.386 -0.0780975 1.94844 0
M  V30 5219 O 485.656 -1.02405 1.67003 0
M  V30 5220 H 484.236 0.490839 0.563104 0
M  V30 5221 H 486.898 1.72527 0.906669 0
M  V30 5222 H 485.994 1.97926 2.41313 0
M  V30 5223 N 486.295 -0.989507 1.22664 0
M  V30 5224 C 487.242 -2.08024 0.999733 0
M  V30 5225 C 488.212 -1.65909 -0.0797047 0
M  V30 5226 O 489.397 -1.90669 0.0705715 0
M  V30 5227 C 486.537 -3.40067 0.587234 0
M  V30 5228 C 485.65 -3.95505 1.73781 0
M  V30 5229 C 484.785 -5.15722 1.27297 0
M  V30 5230 C 483.824 -5.63305 2.39488 0
M  V30 5231 N 482.961 -6.74758 1.94026 0
M  V30 5232 H 487.801 -2.26768 1.9334 0
M  V30 5233 H 485.338 -1.11171 0.963297 0
M  V30 5234 H 487.296 -4.15899 0.329227 0
M  V30 5235 H 485.926 -3.21314 -0.309426 0
M  V30 5236 H 484.978 -3.16513 2.11006 0
M  V30 5237 H 486.29 -4.26797 2.58158 0
M  V30 5238 H 485.444 -5.98854 0.972546 0
M  V30 5239 H 484.183 -4.86061 0.399445 0
M  V30 5240 H 483.188 -4.78759 2.70315 0
M  V30 5241 H 484.413 -5.94988 3.27362 0
M  V30 5242 H 482.359 -6.46874 1.09041 0
M  V30 5243 H 482.276 -7.05386 2.71968 0
M  V30 5244 H 483.544 -7.61387 1.67062 0
M  V30 5245 N 487.773 -1.03688 -1.18687 0
M  V30 5246 C 488.721 -0.618292 -2.24232 0
M  V30 5247 C 489.715 0.353045 -1.6568 0
M  V30 5248 O 490.921 0.220749 -1.78641 0
M  V30 5249 H 487.296 -0.181711 -0.729716 0
M  V30 5250 H 489.267 -1.51893 -2.56848 0
M  V30 5251 C 488.016 0.00677342 -3.47699 0
M  V30 5252 H 487.339 -0.731692 -3.93047 0
M  V30 5253 H 488.779 0.262492 -4.23187 0
M  V30 5254 C 487.238 1.25572 -3.12623 0
M  V30 5255 O 487.768 2.34691 -3.26011 0
M  V30 5256 N 485.974 1.14755 -2.66982 0
M  V30 5257 H 485.521 0.259601 -2.56289 0
M  V30 5258 H 485.479 1.98412 -2.43885 0
M  V30 5259 N 489.251 1.34841 -0.815825 0
M  V30 5260 C 490.497 1.98793 -0.401129 0
M  V30 5261 C 490.83 1.64548 1.03139 0
M  V30 5262 O 490.105 0.913487 1.71714 0
M  V30 5263 C 490.388 3.55143 -0.595409 0
M  V30 5264 C 490.241 3.99155 -2.07352 0
M  V30 5265 C 491.56 4.40092 -0.0268823 0
M  V30 5266 H 488.679 0.722146 -0.14722 0
M  V30 5267 H 491.321 1.59847 -1.02707 0
M  V30 5268 H 489.471 3.8845 -0.0625779 0
M  V30 5269 H 491.143 3.76216 -2.66945 0
M  V30 5270 H 489.386 3.49726 -2.56659 0
M  V30 5271 H 490.057 5.07971 -2.1603 0
M  V30 5272 H 492.533 4.13298 -0.482042 0
M  V30 5273 H 491.409 5.48562 -0.19267 0
M  V30 5274 H 491.67 4.29016 1.06759 0
M  V30 5275 N 490.729 0.570148 1.46925 0
M  V30 5276 C 492.145 0.23087 1.57921 0
M  V30 5277 C 492.345 -1.26676 1.56702 0
M  V30 5278 O 491.401 -2.04774 1.47729 0
M  V30 5279 C 492.714 0.868973 2.8787 0
M  V30 5280 C 494.262 0.841397 3.01479 0
M  V30 5281 C 494.737 1.45881 4.34146 0
M  V30 5282 N 496.228 1.42258 4.40814 0
M  V30 5283 C 496.963 1.8698 5.42057 0
M  V30 5284 N 496.459 2.39618 6.50042 0
M  V30 5285 N 498.252 1.77972 5.33181 0
M  V30 5286 H 490.403 1.54301 1.45962 0
M  V30 5287 H 492.666 0.644224 0.69547 0
M  V30 5288 H 492.372 1.922 2.94537 0
M  V30 5289 H 492.246 0.369682 3.75384 0
M  V30 5290 H 494.633 -0.202973 2.94401 0
M  V30 5291 H 494.714 1.37858 2.15474 0
M  V30 5292 H 494.358 2.50231 4.4198 0
M  V30 5293 H 494.288 0.896958 5.18905 0
M  V30 5294 H 496.779 1.03768 3.63374 0
M  V30 5295 H 497.092 2.71633 7.23488 0
M  V30 5296 H 495.437 2.43636 6.50897 0
M  V30 5297 H 498.628 1.36617 4.4772 0
M  V30 5298 H 498.801 2.13143 6.11943 0
M  V30 5299 N 492.207 -1.54576 0.307264 0
M  V30 5300 C 493.484 -1.92377 -0.353605 0
M  V30 5301 C 493.864 -1.23517 -1.71192 0
M  V30 5302 O 493.212 -0.373101 -2.25433 0
M  V30 5303 C 493.422 -3.45928 -0.462039 0
M  V30 5304 C 494.77 -4.18278 -0.729975 0
M  V30 5305 O 495.794 -3.51997 -0.545605 0
M  V30 5306 O 494.653 -5.3563 -1.08454 0
M  V30 5307 H 491.747 -0.802747 -0.198812 0
M  V30 5308 H 494.293 -1.65929 0.355783 0
M  V30 5309 H 493.065 -3.88187 0.492592 0
M  V30 5310 H 492.688 -3.78431 -1.21965 0
M  V30 5311 N 493.685 -0.035106 -1.57561 0
M  V30 5312 C 494.933 0.64096 -1.91667 0
M  V30 5313 C 495.254 1.72323 -0.912681 0
M  V30 5314 O 494.524 1.95849 0.0449089 0
M  V30 5315 H 493.104 0.239743 -0.707483 0
M  V30 5316 H 495.766 -0.084321 -1.94718 0
M  V30 5317 H 494.862 1.08987 -2.92452 0
M  V30 5318 N 495.163 1.55791 0.238111 0
M  V30 5319 C 496.409 1.78297 0.966337 0
M  V30 5320 C 496.742 0.601903 1.84637 0
M  V30 5321 O 496.017 -0.399499 1.90353 0
M  V30 5322 C 496.3 3.10758 1.81939 0
M  V30 5323 C 496.153 4.39283 0.966958 0
M  V30 5324 C 497.472 3.39519 2.80027 0
M  V30 5325 H 494.591 0.648654 0.349882 0
M  V30 5326 H 497.233 1.88525 0.236253 0
M  V30 5327 H 495.383 3.02168 2.44185 0
M  V30 5328 H 497.055 4.59873 0.362514 0
M  V30 5329 H 495.298 4.32948 0.271669 0
M  V30 5330 H 495.969 5.28368 1.59784 0
M  V30 5331 H 498.445 3.48128 2.27917 0
M  V30 5332 H 497.321 4.33402 3.36829 0
M  V30 5333 H 497.582 2.60864 3.56934 0
M  V30 5334 N 496.642 -0.504142 1.49319 0
M  V30 5335 C 498.053 -1.08572 1.51885 0
M  V30 5336 C 498.404 -1.93842 0.303255 0
M  V30 5337 O 497.529 -2.0828 -0.58724 0
M  V30 5338 C 498.124 -1.97574 2.75227 0
M  V30 5339 C 496.683 -2.509 2.80581 0
M  V30 5340 C 495.83 -1.28447 2.45757 0
M  V30 5341 H 498.781 -0.288194 1.56061 0
M  V30 5342 H 498.802 -2.82219 2.55211 0
M  V30 5343 H 498.314 -1.35486 3.63683 0
M  V30 5344 H 496.415 -3.16636 1.96398 0
M  V30 5345 H 496.528 -2.88268 3.82673 0
M  V30 5346 H 494.892 -1.60868 1.97468 0
M  V30 5347 H 495.675 -0.68072 3.36483 0
M  V30 5348 N 498.12 -1.38341 -0.754957 0
M  V30 5349 C 499.531 -1.30803 -1.3322 0
M  V30 5350 C 499.882 0.0368 -1.96165 0
M  V30 5351 O 499.007 0.938844 -1.94974 0
M  V30 5352 C 499.602 -2.3688 -2.42225 0
M  V30 5353 C 498.161 -2.32925 -2.95674 0
M  V30 5354 C 497.308 -2.19819 -1.69042 0
M  V30 5355 H 500.259 -1.48719 -0.553937 0
M  V30 5356 H 500.28 -2.02517 -3.22129 0
M  V30 5357 H 499.792 -3.34747 -1.96383 0
M  V30 5358 H 497.893 -1.38635 -3.45848 0
M  V30 5359 H 498.006 -3.27008 -3.50146 0
M  V30 5360 H 496.37 -1.66648 -1.92615 0
M  V30 5361 H 497.153 -3.19625 -1.25279 0
M  V30 5362 N 499.598 0.982988 -1.23187 0
M  V30 5363 C 500.826 1.75921 -1.08901 0
M  V30 5364 C 501.241 1.85341 0.359719 0
M  V30 5365 O 500.598 1.33072 1.24892 0
M  V30 5366 C 500.649 3.18742 -1.70545 0
M  V30 5367 O 500.37 3.09814 -3.09753 0
M  V30 5368 C 501.871 4.1277 -1.61667 0
M  V30 5369 H 499.091 0.552166 -0.381252 0
M  V30 5370 H 501.635 1.23516 -1.62985 0
M  V30 5371 H 499.79 3.68182 -1.20501 0
M  V30 5372 H 500.204 3.99703 -3.39614 0
M  V30 5373 H 501.678 5.10697 -2.09506 0
M  V30 5374 H 502.155 4.3542 -0.575009 0
M  V30 5375 H 502.761 3.69232 -2.11064 0
M  V30 5376 N 501.076 1.04316 1.18135 0
M  V30 5377 C 502.301 0.768047 1.92655 0
M  V30 5378 C 502.726 -0.66904 1.758 0
M  V30 5379 O 502.084 -1.46372 1.06981 0
M  V30 5380 C 502.132 1.14239 3.42026 0
M  V30 5381 O 501.236 0.269333 4.1152 0
M  V30 5382 H 500.577 0.282436 0.600937 0
M  V30 5383 H 503.107 1.39367 1.49793 0
M  V30 5384 H 503.117 1.10538 3.92741 0
M  V30 5385 H 501.792 2.18928 3.53615 0
M  V30 5386 H 500.369 0.366175 3.71098 0
M  V30 5387 N 502.554 -1.34406 0.822964 0
M  V30 5388 C 503.501 -2.29519 0.24284 0
M  V30 5389 C 504.471 -1.5359 -0.632397 0
M  V30 5390 O 505.656 -1.8196 -0.57403 0
M  V30 5391 C 502.796 -3.40032 -0.58925 0
M  V30 5392 C 501.909 -4.30899 0.308236 0
M  V30 5393 C 501.044 -5.28515 -0.533425 0
M  V30 5394 C 500.083 -6.1102 0.363444 0
M  V30 5395 N 499.22 -7.00725 -0.439147 0
M  V30 5396 H 504.06 -2.78537 1.05929 0
M  V30 5397 H 501.597 -1.3707 0.533872 0
M  V30 5398 H 503.555 -4.0279 -1.087 0
M  V30 5399 H 502.185 -2.92248 -1.37081 0
M  V30 5400 H 501.237 -3.69002 0.924203 0
M  V30 5401 H 502.549 -4.88717 0.997862 0
M  V30 5402 H 501.703 -5.96725 -1.09565 0
M  V30 5403 H 500.442 -4.71235 -1.25656 0
M  V30 5404 H 499.447 -5.41743 0.937812 0
M  V30 5405 H 500.672 -6.70381 1.08469 0
M  V30 5406 H 498.618 -6.45913 -1.14595 0
M  V30 5407 H 498.535 -7.55756 0.19209 0
M  V30 5408 H 499.803 -7.73263 -0.984124 0
M  V30 5409 N 504.032 -0.577932 -1.46621 0
M  V30 5410 C 504.979 0.158048 -2.30258 0
M  V30 5411 C 505.949 0.888669 -1.40328 0
M  V30 5412 O 507.134 0.880283 -1.6928 0
M  V30 5413 C 504.274 1.16884 -3.24703 0
M  V30 5414 C 503.387 0.442163 -4.29731 0
M  V30 5415 C 502.522 1.44007 -5.11308 0
M  V30 5416 C 501.561 0.69952 -6.0809 0
M  V30 5417 N 500.698 1.64525 -6.82551 0
M  V30 5418 H 505.538 -0.561242 -2.92667 0
M  V30 5419 H 503.075 -0.288591 -1.44241 0
M  V30 5420 H 505.033 1.7677 -3.779 0
M  V30 5421 H 503.663 1.85591 -2.64113 0
M  V30 5422 H 502.715 -0.271632 -3.79429 0
M  V30 5423 H 504.027 -0.136992 -4.98612 0
M  V30 5424 H 503.181 2.11186 -5.68758 0
M  V30 5425 H 501.92 2.05315 -4.42377 0
M  V30 5426 H 500.925 0.0139217 -5.49798 0
M  V30 5427 H 502.15 0.091894 -6.79038 0
M  V30 5428 H 500.096 2.24653 -6.16334 0
M  V30 5429 H 500.013 1.11878 -7.47676 0
M  V30 5430 H 501.281 2.30754 -7.44562 0
M  V30 5431 N 505.51 1.54411 -0.315457 0
M  V30 5432 C 506.457 2.24048 0.554166 0
M  V30 5433 C 507.427 1.2283 1.11812 0
M  V30 5434 O 508.612 1.51491 1.15997 0
M  V30 5435 C 505.752 2.99574 1.71316 0
M  V30 5436 C 504.865 4.15594 1.17922 0
M  V30 5437 C 504 4.78669 2.30324 0
M  V30 5438 C 503.039 5.86807 1.74137 0
M  V30 5439 N 502.176 6.43777 2.8017 0
M  V30 5440 H 507.016 2.97964 -0.0462602 0
M  V30 5441 H 504.553 1.47059 -0.0346009 0
M  V30 5442 H 506.511 3.41604 2.39505 0
M  V30 5443 H 505.141 2.28008 2.285 0
M  V30 5444 H 504.193 3.78404 0.389136 0
M  V30 5445 H 505.505 4.93459 0.728012 0
M  V30 5446 H 504.659 5.23626 3.06433 0
M  V30 5447 H 503.398 4.00168 2.78778 0
M  V30 5448 H 502.403 5.41261 0.965236 0
M  V30 5449 H 503.628 6.67201 1.2657 0
M  V30 5450 H 501.574 5.68153 3.2793 0
M  V30 5451 H 501.491 7.17031 2.39588 0
M  V30 5452 H 502.759 6.9339 3.56132 0
M  V30 5453 N 506.988 0.0434614 1.5754 0
M  V30 5454 C 508.404 -0.313039 1.565 0
M  V30 5455 C 508.604 -1.71954 1.05043 0
M  V30 5456 O 507.66 -2.425 0.703564 0
M  V30 5457 C 508.973 -0.148544 3.00333 0
M  V30 5458 C 510.521 -0.220231 3.12224 0
M  V30 5459 C 510.996 -0.0843565 4.57922 0
M  V30 5460 N 512.487 -0.140881 4.62986 0
M  V30 5461 C 513.222 -0.0597443 5.73369 0
M  V30 5462 N 512.718 0.0733004 6.92761 0
M  V30 5463 N 514.511 -0.11477 5.61983 0
M  V30 5464 H 506.662 0.96303 1.89313 0
M  V30 5465 H 508.925 0.373164 0.871466 0
M  V30 5466 H 508.631 0.820894 3.41986 0
M  V30 5467 H 508.505 -0.912798 3.65989 0
M  V30 5468 H 510.892 -1.18014 2.70475 0
M  V30 5469 H 510.973 0.574646 2.49262 0
M  V30 5470 H 510.617 0.872192 5.00355 0
M  V30 5471 H 510.547 -0.898281 5.18882 0
M  V30 5472 H 513.038 -0.243273 3.77116 0
M  V30 5473 H 513.351 0.128128 7.72694 0
M  V30 5474 H 511.696 0.10828 6.94916 0
M  V30 5475 H 514.887 -0.217212 4.67596 0
M  V30 5476 H 515.06 -0.0480779 6.47982 0
M  V30 5477 N 508.466 -1.55915 -0.229846 0
M  V30 5478 C 509.398 -1.88209 -1.30805 0
M  V30 5479 C 510.411 -0.769672 -1.43457 0
M  V30 5480 O 511.6 -1.04792 -1.44502 0
M  V30 5481 C 508.7 -2.06829 -2.68468 0
M  V30 5482 C 507.873 -3.37798 -2.77869 0
M  V30 5483 C 506.932 -3.45952 -3.96489 0
M  V30 5484 O 505.958 -4.19043 -3.85216 0
M  V30 5485 N 507.16 -2.76488 -5.10426 0
M  V30 5486 H 509.925 -2.81286 -1.03431 0
M  V30 5487 H 507.486 -1.5636 -0.41991 0
M  V30 5488 H 509.478 -2.09608 -3.46189 0
M  V30 5489 H 508.048 -1.20416 -2.88477 0
M  V30 5490 H 507.268 -3.4719 -1.86689 0
M  V30 5491 H 508.556 -4.24091 -2.81113 0
M  V30 5492 H 507.954 -2.16868 -5.2248 0
M  V30 5493 H 506.511 -2.84938 -5.8622 0
M  V30 5494 N 509.944 0.496216 -1.49584 0
M  V30 5495 C 510.907 1.57952 -1.66084 0
M  V30 5496 C 511.907 1.51729 -0.53244 0
M  V30 5497 O 513.097 1.54796 -0.79899 0
M  V30 5498 C 510.229 2.97604 -1.66268 0
M  V30 5499 H 511.422 1.44649 -2.6271 0
M  V30 5500 H 508.975 0.7208 -1.38687 0
M  V30 5501 H 509.71 3.16378 -0.712432 0
M  V30 5502 H 509.495 3.03528 -2.4822 0
M  V30 5503 H 510.985 3.76301 -1.81073 0
M  V30 5504 N 511.423 1.38739 0.74761 0
M  V30 5505 C 512.671 1.35007 1.50391 0
M  V30 5506 C 512.992 -0.0574274 1.94915 0
M  V30 5507 O 512.262 -1.00628 1.6808 0
M  V30 5508 H 510.842 0.496784 0.557866 0
M  V30 5509 H 513.504 1.73479 0.888319 0
M  V30 5510 H 512.6 2.00474 2.392 0
M  V30 5511 N 512.901 -0.976442 1.23707 0
M  V30 5512 C 513.811 -2.10359 1.03856 0
M  V30 5513 C 514.827 -1.73991 -0.0180919 0
M  V30 5514 O 516.003 -2.0061 0.178211 0
M  V30 5515 C 513.068 -3.40809 0.636387 0
M  V30 5516 C 512.129 -3.91179 1.76854 0
M  V30 5517 C 511.362 -5.15404 1.38546 0
M  V30 5518 O 511.585 -5.69754 0.27142 0
M  V30 5519 O 510.519 -5.5994 2.20797 0
M  V30 5520 H 514.345 -2.29997 1.98331 0
M  V30 5521 H 511.93 -1.08742 1.02448 0
M  V30 5522 H 513.812 -4.19269 0.423223 0
M  V30 5523 H 512.487 -3.22493 -0.279322 0
M  V30 5524 H 511.394 -3.13819 2.03638 0
M  V30 5525 H 512.727 -4.13958 2.6627 0
M  V30 5526 N 514.379 -1.04941 -1.1758 0
M  V30 5527 C 515.326 -0.648155 -2.21512 0
M  V30 5528 C 516.296 0.348431 -1.62404 0
M  V30 5529 O 517.481 0.240419 -1.89279 0
M  V30 5530 C 514.621 -0.0264291 -3.4509 0
M  V30 5531 C 513.734 -1.07154 -4.185 0
M  V30 5532 C 512.869 -0.417403 -5.29558 0
M  V30 5533 C 511.908 -1.447 -5.94751 0
M  V30 5534 N 511.045 -0.817203 -6.97328 0
M  V30 5535 H 515.885 -1.53891 -2.55189 0
M  V30 5536 H 513.422 -0.769699 -1.25356 0
M  V30 5537 H 515.38 0.351456 -4.15717 0
M  V30 5538 H 514.01 0.827802 -3.12005 0
M  V30 5539 H 513.062 -1.56728 -3.46613 0
M  V30 5540 H 514.374 -1.8532 -4.63096 0
M  V30 5541 H 513.528 0.0142061 -6.06698 0
M  V30 5542 H 512.267 0.396265 -4.86087 0
M  V30 5543 H 511.272 -1.88865 -5.16343 0
M  V30 5544 H 512.497 -2.26252 -6.40302 0
M  V30 5545 H 510.443 -0.0239995 -6.55996 0
M  V30 5546 H 510.36 -1.53644 -7.40223 0
M  V30 5547 H 511.628 -0.410283 -7.7842 0
M  V30 5548 N 515.857 1.33968 -0.830081 0
M  V30 5549 C 517.106 1.97323 -0.417928 0
M  V30 5550 C 517.419 1.6652 1.02618 0
M  V30 5551 O 518.625 2.2342 1.54259 0
M  V30 5552 C 517.081 3.53099 -0.696359 0
M  V30 5553 C 516.689 3.92788 -2.15457 0
M  V30 5554 C 518.433 4.23049 -0.350724 0
M  V30 5555 C 516.34 5.41506 -2.37751 0
M  V30 5556 H 515.27 0.738409 -0.152541 0
M  V30 5557 H 517.921 1.52711 -1.01744 0
M  V30 5558 H 516.303 3.95991 -0.0265904 0
M  V30 5559 H 517.477 3.6098 -2.86408 0
M  V30 5560 H 515.792 3.35795 -2.46232 0
M  V30 5561 H 518.389 5.32403 -0.495036 0
M  V30 5562 H 518.732 4.10279 0.705476 0
M  V30 5563 H 519.265 3.85657 -0.975362 0
M  V30 5564 H 516.004 5.5927 -3.41903 0
M  V30 5565 H 515.524 5.74804 -1.7135 0
M  V30 5566 H 517.203 6.0828 -2.20465 0
M  V30 5567 N 517.335 0.585699 1.46312 0
M  V30 5568 C 518.268 -0.194257 2.27372 0
M  V30 5569 C 519.246 -0.894116 1.3581 0
M  V30 5570 O 520.43 -0.907402 1.65222 0
M  V30 5571 C 517.557 -1.27901 3.13622 0
M  V30 5572 C 516.603 -0.684666 4.20969 0
M  V30 5573 S 517.436 0.490745 5.33247 0
M  V30 5574 C 518.592 -0.595137 6.23064 0
M  V30 5575 H 518.825 0.493515 2.93175 0
M  V30 5576 H 516.358 0.372666 1.49835 0
M  V30 5577 H 518.316 -1.90008 3.63878 0
M  V30 5578 H 516.977 -1.93875 2.47126 0
M  V30 5579 H 516.17 -1.50015 4.81156 0
M  V30 5580 H 515.772 -0.139204 3.73741 0
M  V30 5581 H 518.064 -1.48002 6.61137 0
M  V30 5582 H 519.007 -0.0299446 7.08094 0
M  V30 5583 H 519.415 -0.900627 5.57269 0
M  V30 5584 N 518.813 -1.54241 0.323641 0
M  V30 5585 C 520.043 -2.04687 -0.280464 0
M  V30 5586 C 520.451 -1.19939 -1.46326 0
M  V30 5587 O 519.794 -0.222872 -1.82343 0
M  V30 5588 C 519.856 -3.50978 -0.778123 0
M  V30 5589 C 519.52 -4.56127 0.282371 0
M  V30 5590 C 520.517 -5.07726 1.11847 0
M  V30 5591 C 518.202 -5.00451 0.430582 0
M  V30 5592 C 520.196 -6.02212 2.08851 0
M  V30 5593 C 517.883 -5.94752 1.40404 0
M  V30 5594 C 518.881 -6.45519 2.23147 0
M  V30 5595 O 518.569 -7.37968 3.1884 0
M  V30 5596 H 518.301 -0.673192 -0.0615473 0
M  V30 5597 H 520.855 -1.99999 0.467921 0
M  V30 5598 H 519.085 -3.53064 -1.57742 0
M  V30 5599 H 520.774 -3.84499 -1.30058 0
M  V30 5600 H 521.54 -4.74261 1.01496 0
M  V30 5601 H 517.419 -4.6055 -0.203569 0
M  V30 5602 H 520.963 -6.41761 2.73474 0
M  V30 5603 H 516.86 -6.27633 1.5082 0
M  V30 5604 H 517.628 -7.55841 3.14079 0
M  V30 5605 N 520.291 -0.0518155 -1.57515 0
M  V30 5606 C 521.519 0.631395 -1.9703 0
M  V30 5607 C 521.934 1.64341 -0.92938 0
M  V30 5608 O 521.291 1.82296 0.0863266 0
M  V30 5609 C 521.342 1.31774 -3.36627 0
M  V30 5610 O 521.063 0.346247 -4.3673 0
M  V30 5611 C 522.564 2.09065 -3.90905 0
M  V30 5612 H 519.784 0.172576 -0.648428 0
M  V30 5613 H 522.328 -0.118306 -2.04158 0
M  V30 5614 H 520.483 2.01867 -3.30649 0
M  V30 5615 H 520.897 0.836226 -5.17791 0
M  V30 5616 H 522.371 2.52508 -4.9086 0
M  V30 5617 H 522.848 2.93908 -3.26366 0
M  V30 5618 H 523.454 1.43882 -4.00223 0
M  V30 5619 N 521.769 1.56035 0.221574 0
M  V30 5620 C 522.699 1.95434 1.2778 0
M  V30 5621 C 523.68 0.822564 1.48889 0
M  V30 5622 O 524.865 1.08486 1.61072 0
M  V30 5623 C 521.995 2.27102 2.62759 0
M  V30 5624 C 520.949 3.4277 2.56306 0
M  V30 5625 C 520.275 3.60043 3.95314 0
M  V30 5626 C 521.575 4.77742 2.11093 0
M  V30 5627 H 523.269 2.83912 0.950504 0
M  V30 5628 H 520.815 1.36596 0.455791 0
M  V30 5629 H 522.768 2.53256 3.36807 0
M  V30 5630 H 521.492 1.35478 2.97176 0
M  V30 5631 H 520.151 3.16664 1.84715 0
M  V30 5632 H 519.799 2.65794 4.27039 0
M  V30 5633 H 519.499 4.37841 3.91879 0
M  V30 5634 H 521.023 3.88545 4.71025 0
M  V30 5635 H 522.437 5.03102 2.74885 0
M  V30 5636 H 520.834 5.58823 2.18716 0
M  V30 5637 H 521.904 4.731 1.06321 0
M  V30 5638 N 523.247 -0.488276 1.49845 0
M  V30 5639 C 524.493 -1.24341 1.6021 0
M  V30 5640 C 524.826 -1.91967 0.293651 0
M  V30 5641 O 524.101 -1.81323 -0.703718 0
M  V30 5642 C 524.384 -2.3005 2.77036 0
M  V30 5643 C 524.237 -1.66842 4.17713 0
M  V30 5644 C 525.556 -3.31509 2.89464 0
M  V30 5645 H 522.675 -0.450704 0.583125 0
M  V30 5646 H 525.317 -0.539673 1.82174 0
M  V30 5647 H 523.467 -2.90071 2.58439 0
M  V30 5648 H 525.139 -1.1055 4.47858 0
M  V30 5649 H 523.382 -0.972079 4.22768 0
M  V30 5650 H 524.053 -2.43576 4.95353 0
M  V30 5651 H 526.529 -2.81493 3.06433 0
M  V30 5652 H 525.405 -4.02822 3.72861 0
M  V30 5653 H 525.666 -3.94603 1.99351 0
M  V30 5654 N 524.725 -1.39134 -0.740242 0
M  V30 5655 C 525.95 -1.39518 -1.53459 0
M  V30 5656 C 526.375 0.00968883 -1.88098 0
M  V30 5657 O 525.733 0.995312 -1.51536 0
M  V30 5658 C 525.781 -2.26981 -2.802 0
M  V30 5659 O 524.885 -1.69609 -3.75908 0
M  V30 5660 H 524.226 -0.475328 -0.463637 0
M  V30 5661 H 526.756 -1.83064 -0.913717 0
M  V30 5662 H 526.766 -2.41309 -3.28989 0
M  V30 5663 H 525.441 -3.29081 -2.5432 0
M  V30 5664 H 524.018 -1.64495 -3.34658 0
M  V30 5665 N 526.204 0.969867 -1.24223 0
M  V30 5666 C 527.45 1.7151 -1.08223 0
M  V30 5667 C 527.783 1.90478 0.37838 0
M  V30 5668 O 527.058 1.4647 1.27971 0
M  V30 5669 C 527.341 3.10714 -1.82013 0
M  V30 5670 C 527.194 2.9925 -3.35811 0
M  V30 5671 C 528.513 4.10332 -1.59108 0
M  V30 5672 H 525.632 0.622499 -0.394543 0
M  V30 5673 H 528.274 1.1284 -1.52863 0
M  V30 5674 H 526.424 3.608 -1.44068 0
M  V30 5675 H 528.096 2.56608 -3.83341 0
M  V30 5676 H 526.339 2.35512 -3.64303 0
M  V30 5677 H 527.01 3.97857 -3.82641 0
M  V30 5678 H 529.486 3.69097 -1.92111 0
M  V30 5679 H 528.362 5.05804 -2.13198 0
M  V30 5680 H 528.623 4.38926 -0.528832 0
M  V30 5681 N 527.682 1.05563 1.17022 0
M  V30 5682 C 529.093 0.793475 1.69 0
M  V30 5683 C 529.444 -0.683882 1.83895 0
M  V30 5684 O 528.569 -1.53116 1.5292 0
M  V30 5685 C 529.164 1.43376 3.06967 0
M  V30 5686 C 527.723 1.21956 3.56095 0
M  V30 5687 C 526.87 1.51494 2.3226 0
M  V30 5688 H 529.821 1.22008 1.01487 0
M  V30 5689 H 529.842 0.845068 3.70997 0
M  V30 5690 H 529.354 2.50899 2.96093 0
M  V30 5691 H 527.455 0.163749 3.7224 0
M  V30 5692 H 527.568 1.92713 4.38633 0
M  V30 5693 H 525.932 0.935175 2.3691 0
M  V30 5694 H 526.715 2.60159 2.23992 0
M  V30 5695 N 529.16 -1.33526 0.837174 0
M  V30 5696 C 530.11 -2.2672 0.241269 0
M  V30 5697 C 531.094 -1.49183 -0.602756 0
M  V30 5698 O 532.286 -1.71052 -0.455002 0
M  V30 5699 C 529.415 -3.38294 -0.584125 0
M  V30 5700 C 528.501 -4.23231 0.271315 0
M  V30 5701 N 528.892 -4.87473 1.34922 0
M  V30 5702 C 527.19 -4.45962 0.0580589 0
M  V30 5703 C 527.891 -5.50685 1.87405 0
M  V30 5704 N 526.867 -5.30732 1.17578 0
M  V30 5705 H 530.669 -2.73903 1.06558 0
M  V30 5706 H 528.183 -1.47411 0.68145 0
M  V30 5707 H 530.18 -4.04044 -1.02731 0
M  V30 5708 H 528.84 -2.9266 -1.40643 0
M  V30 5709 H 529.851 -4.88077 1.7321 0
M  V30 5710 H 526.528 -4.11052 -0.730938 0
M  V30 5711 H 527.918 -6.11845 2.77661 0
M  V30 5712 N 530.638 -0.59345 -1.46 0
M  V30 5713 C 531.886 -0.082988 -2.0193 0
M  V30 5714 C 532.207 1.28569 -1.46612 0
M  V30 5715 O 531.477 1.84629 -0.654909 0
M  V30 5716 H 530.057 -0.0276882 -0.746487 0
M  V30 5717 H 532.719 -0.771657 -1.78973 0
M  V30 5718 H 531.815 -0.022079 -3.12092 0
M  V30 5719 N 532.116 1.54067 -0.331816 0
M  V30 5720 C 533.064 2.26105 0.54582 0
M  V30 5721 C 534.058 1.27816 1.11173 0
M  V30 5722 O 535.264 1.45565 1.05882 0
M  V30 5723 H 531.639 0.726363 0.194683 0
M  V30 5724 H 533.61 2.98282 -0.083931 0
M  V30 5725 C 532.359 3.03814 1.69092 0
M  V30 5726 H 531.682 3.79269 1.26473 0
M  V30 5727 H 533.122 3.57453 2.28043 0
M  V30 5728 C 531.581 2.12606 2.61343 0
M  V30 5729 O 532.111 1.71437 3.6328 0
M  V30 5730 N 530.317 1.77925 2.29763 0
M  V30 5731 H 529.864 2.11602 1.46909 0
M  V30 5732 H 529.822 1.1718 2.91747 0
M  V30 5733 N 533.594 0.0601682 1.57485 0
M  V30 5734 C 534.871 -0.651956 1.84415 0
M  V30 5735 C 535.251 -1.88498 0.950361 0
M  V30 5736 O 534.599 -2.28496 0.0136719 0
M  V30 5737 C 534.809 -1.00069 3.34346 0
M  V30 5738 C 536.157 -1.37915 4.01578 0
M  V30 5739 O 537.181 -1.09277 3.39024 0
M  V30 5740 O 536.04 -1.91399 5.11887 0
M  V30 5741 H 533.134 -0.322668 0.761455 0
M  V30 5742 H 535.68 0.0902159 1.6946 0
M  V30 5743 H 534.452 -0.124463 3.91102 0
M  V30 5744 H 534.075 -1.80001 3.54521 0
M  V30 5745 N 535.072 -1.5615 -0.213296 0
M  V30 5746 C 536.321 -1.78743 -0.93455 0
M  V30 5747 C 536.634 -0.630199 -1.8517 0
M  V30 5748 O 537.84 -0.739966 -2.61222 0
M  V30 5749 C 536.296 -3.16571 -1.71203 0
M  V30 5750 C 535.904 -4.40043 -0.840617 0
M  V30 5751 C 537.648 -3.48485 -2.42401 0
M  V30 5752 C 535.555 -5.68895 -1.61592 0
M  V30 5753 H 534.485 -0.666426 -0.352692 0
M  V30 5754 H 537.136 -1.82532 -0.188227 0
M  V30 5755 H 535.518 -3.06981 -2.50157 0
M  V30 5756 H 536.692 -4.6071 -0.0910326 0
M  V30 5757 H 535.007 -4.15706 -0.240365 0
M  V30 5758 H 537.604 -4.41983 -3.00924 0
M  V30 5759 H 537.947 -2.71371 -3.15695 0
M  V30 5760 H 538.48 -3.59442 -1.7043 0
M  V30 5761 H 535.219 -6.48925 -0.926106 0
M  V30 5762 H 534.739 -5.52275 -2.33991 0
M  V30 5763 H 536.418 -6.09365 -2.17447 0
M  V30 5764 N 536.55 0.480323 -1.50102 0
M  V30 5765 C 537.513 1.56181 -1.6775 0
M  V30 5766 C 538.513 1.51156 -0.548503 0
M  V30 5767 O 539.703 1.5394 -0.815363 0
M  V30 5768 C 536.835 2.95823 -1.69415 0
M  V30 5769 H 538.028 1.41855 -2.6423 0
M  V30 5770 H 535.581 0.70605 -1.39444 0
M  V30 5771 H 536.316 3.15604 -0.745948 0
M  V30 5772 H 536.101 3.00878 -2.51425 0
M  V30 5773 H 537.591 3.74359 -1.85054 0
M  V30 5774 N 538.028 1.39524 0.732853 0
M  V30 5775 C 539.253 1.40329 1.52717 0
M  V30 5776 C 539.678 0.000286574 1.881 0
M  V30 5777 O 539.036 -0.987262 1.52062 0
M  V30 5778 C 539.084 2.28464 2.78992 0
M  V30 5779 O 538.188 1.716 3.75003 0
M  V30 5780 H 537.529 0.47778 0.461109 0
M  V30 5781 H 540.059 1.83546 0.903996 0
M  V30 5782 H 540.069 2.43051 3.27705 0
M  V30 5783 H 538.744 3.30425 2.52572 0
M  V30 5784 H 537.321 1.66267 3.33781 0
M  V30 5785 N 539.506 -0.963266 1.24736 0
M  V30 5786 C 540.436 -2.07628 1.06832 0
M  V30 5787 C 541.417 -1.70088 -0.0200566 0
M  V30 5788 O 542.602 -1.93636 0.147854 0
M  V30 5789 C 539.732 -3.40636 0.677069 0
M  V30 5790 C 538.686 -3.9215 1.71471 0
M  V30 5791 C 538.012 -5.21553 1.1784 0
M  V30 5792 C 539.312 -4.19493 3.11164 0
M  V30 5793 H 541.006 -2.22864 1.9993 0
M  V30 5794 H 538.552 -1.07093 0.96266 0
M  V30 5795 H 540.505 -4.17941 0.538792 0
M  V30 5796 H 539.229 -3.25313 -0.289612 0
M  V30 5797 H 537.888 -3.17005 1.84128 0
M  V30 5798 H 537.536 -5.02593 0.202195 0
M  V30 5799 H 537.236 -5.56988 1.87185 0
M  V30 5800 H 538.76 -6.01463 1.05233 0
M  V30 5801 H 540.174 -4.87487 3.01711 0
M  V30 5802 H 538.571 -4.66165 3.77902 0
M  V30 5803 H 539.641 -3.26097 3.58871 0
M  V30 5804 N 540.985 -1.06182 -1.16461 0
M  V30 5805 C 542.232 -0.777863 -1.86964 0
M  V30 5806 C 542.56 0.695602 -1.81636 0
M  V30 5807 O 541.815 1.52532 -1.22607 0
M  V30 5808 C 542.114 -1.21633 -3.36066 0
M  V30 5809 C 541.78 -2.69371 -3.61594 0
M  V30 5810 C 540.442 -3.09727 -3.6827 0
M  V30 5811 C 542.794 -3.64791 -3.7226 0
M  V30 5812 C 540.122 -4.44345 -3.83112 0
M  V30 5813 C 542.474 -4.99155 -3.88623 0
M  V30 5814 C 541.138 -5.39149 -3.93541 0
M  V30 5815 H 540.408 -0.28464 -0.68415 0
M  V30 5816 H 543.055 -1.33071 -1.37711 0
M  V30 5817 H 541.36 -0.582651 -3.87443 0
M  V30 5818 H 543.057 -0.973682 -3.88999 0
M  V30 5819 H 539.647 -2.37124 -3.57029 0
M  V30 5820 H 543.831 -3.34746 -3.66413 0
M  V30 5821 H 539.087 -4.74819 -3.85172 0
M  V30 5822 H 543.261 -5.72976 -3.95817 0
M  V30 5823 H 540.888 -6.43464 -4.04794 0
M  V30 5824 N 542.463 1.3308 -0.844243 0
M  V30 5825 C 543.373 2.32876 -0.283922 0
M  V30 5826 C 544.389 1.63589 0.592846 0
M  V30 5827 O 545.565 1.95205 0.495693 0
M  V30 5828 C 542.63 3.42667 0.527283 0
M  V30 5829 C 541.691 4.27664 -0.374394 0
M  V30 5830 C 540.924 5.32212 0.39819 0
M  V30 5831 O 541.147 5.46635 1.62932 0
M  V30 5832 O 540.081 6.01458 -0.2306 0
M  V30 5833 H 543.907 2.82671 -1.11045 0
M  V30 5834 H 541.492 1.36518 -0.606903 0
M  V30 5835 H 543.374 4.09652 0.988078 0
M  V30 5836 H 542.049 2.95079 1.33078 0
M  V30 5837 H 540.956 3.63526 -0.883144 0
M  V30 5838 H 542.289 4.78749 -1.1428 0
M  V30 5839 N 543.941 0.601185 1.45683 0
M  V30 5840 C 544.871 -0.108824 2.33246 0
M  V30 5841 C 545.852 -0.865223 1.46451 0
M  V30 5842 O 547.037 -0.83704 1.75235 0
M  V30 5843 C 544.167 -1.11101 3.2905 0
M  V30 5844 C 543.121 -0.468244 4.25431 0
M  V30 5845 C 542.447 -1.57822 5.10878 0
M  V30 5846 C 543.747 0.606469 5.18767 0
M  V30 5847 H 545.441 0.622306 2.92861 0
M  V30 5848 H 542.987 0.300714 1.40825 0
M  V30 5849 H 544.94 -1.61622 3.89174 0
M  V30 5850 H 543.664 -1.87265 2.67581 0
M  V30 5851 H 542.323 0.0160484 3.66596 0
M  V30 5852 H 541.971 -2.32998 4.45781 0
M  V30 5853 H 541.671 -1.15369 5.76163 0
M  V30 5854 H 543.195 -2.08583 5.73869 0
M  V30 5855 H 544.609 0.185589 5.73 0
M  V30 5856 H 543.006 0.952381 5.92494 0
M  V30 5857 H 544.076 1.48559 4.61582 0
M  V30 5858 N 545.419 -1.53889 0.339982 0
M  V30 5859 C 546.696 -1.93084 -0.312719 0
M  V30 5860 C 547.076 -1.2712 -1.68534 0
M  V30 5861 O 546.424 -0.420835 -2.24591 0
M  V30 5862 C 546.634 -3.4683 -0.388558 0
M  V30 5863 C 547.982 -4.19732 -0.641088 0
M  V30 5864 O 549.006 -3.53075 -0.470818 0
M  V30 5865 O 547.865 -5.3781 -0.970685 0
M  V30 5866 H 544.959 -0.806784 -0.18174 0
M  V30 5867 H 547.505 -1.65137 0.390898 0
M  V30 5868 H 546.277 -3.87055 0.574821 0
M  V30 5869 H 545.9 -3.80933 -1.1391 0
M  V30 5870 N 546.897 -0.0685191 -1.57451 0
M  V30 5871 C 547.86 0.885173 -2.11417 0
M  V30 5872 C 548.86 1.22853 -1.03748 0
M  V30 5873 O 550.05 1.16235 -1.2975 0
M  V30 5874 C 547.182 2.18964 -2.61281 0
M  V30 5875 H 548.375 0.417034 -2.96986 0
M  V30 5876 H 545.928 0.18014 -1.55258 0
M  V30 5877 H 546.663 2.70321 -1.79156 0
M  V30 5878 H 546.448 1.9534 -3.39977 0
M  V30 5879 H 547.938 2.87242 -3.0312 0
M  V30 5880 N 548.375 1.56261 0.205012 0
M  V30 5881 C 549.603 1.84141 0.943386 0
M  V30 5882 C 550.018 0.649772 1.77266 0
M  V30 5883 O 549.375 -0.381612 1.78466 0
M  V30 5884 C 549.426 3.10719 1.84759 0
M  V30 5885 O 549.147 4.25286 1.05181 0
M  V30 5886 C 550.648 3.51706 2.69848 0
M  V30 5887 H 547.868 0.611734 0.275721 0
M  V30 5888 H 550.412 2.03364 0.215253 0
M  V30 5889 H 548.567 2.93422 2.52947 0
M  V30 5890 H 548.981 4.97301 1.66709 0
M  V30 5891 H 550.455 4.43266 3.28967 0
M  V30 5892 H 550.932 2.7423 3.43067 0
M  V30 5893 H 551.538 3.71499 2.07047 0
M  V30 5894 N 549.853 -0.472356 1.50355 0
M  V30 5895 C 551.081 -1.24784 1.65035 0
M  V30 5896 C 551.496 -1.85837 0.333176 0
M  V30 5897 O 550.853 -1.69168 -0.68472 0
M  V30 5898 C 550.904 -2.35747 2.74054 0
M  V30 5899 O 550.625 -1.77197 4.00665 0
M  V30 5900 C 552.126 -3.26645 2.99696 0
M  V30 5901 H 549.346 -0.377432 0.554785 0
M  V30 5902 H 551.89 -0.563962 1.9657 0
M  V30 5903 H 550.045 -2.99912 2.45217 0
M  V30 5904 H 550.459 -2.5026 4.60945 0
M  V30 5905 H 551.933 -4.00718 3.79644 0
M  V30 5906 H 552.41 -3.8535 2.10718 0
M  V30 5907 H 553.016 -2.68218 3.3006 0
M  V30 5908 N 551.331 -1.39911 -0.725443 0
M  V30 5909 C 552.261 -1.42138 -1.85254 0
M  V30 5910 C 553.242 -0.283513 -1.67721 0
M  V30 5911 O 554.427 -0.490717 -1.87898 0
M  V30 5912 C 551.557 -1.27354 -3.23107 0
M  V30 5913 C 550.511 -2.3864 -3.55296 0
M  V30 5914 C 549.837 -2.08939 -4.92188 0
M  V30 5915 C 551.137 -3.8097 -3.57295 0
M  V30 5916 H 552.831 -2.36461 -1.83648 0
M  V30 5917 H 550.377 -1.13817 -0.882138 0
M  V30 5918 H 552.33 -1.2753 -4.01639 0
M  V30 5919 H 551.054 -0.295025 -3.25265 0
M  V30 5920 H 549.713 -2.37696 -2.79099 0
M  V30 5921 H 549.361 -1.09502 -4.90936 0
M  V30 5922 H 549.061 -2.83491 -5.14691 0
M  V30 5923 H 550.585 -2.10781 -5.73065 0
M  V30 5924 H 551.999 -3.8379 -4.25885 0
M  V30 5925 H 550.396 -4.5496 -3.9132 0
M  V30 5926 H 551.466 -4.11261 -2.5689 0
M  V30 5927 N 552.809 0.956637 -1.25245 0
M  V30 5928 C 553.741 2.05628 -1.01242 0
M  V30 5929 C 554.754 1.62785 0.0219579 0
M  V30 5930 O 555.943 1.77184 -0.216365 0
M  V30 5931 C 553.043 3.35069 -0.508161 0
M  V30 5932 C 552.216 4.06761 -1.60823 0
M  V30 5933 C 551.275 5.14473 -1.1047 0
M  V30 5934 O 550.301 5.40033 -1.79868 0
M  V30 5935 N 551.503 5.80474 0.0550773 0
M  V30 5936 H 554.268 2.2679 -1.95925 0
M  V30 5937 H 551.829 1.12505 -1.16423 0
M  V30 5938 H 553.821 4.044 -0.155819 0
M  V30 5939 H 552.391 3.10694 0.344683 0
M  V30 5940 H 551.611 3.31555 -2.13224 0
M  V30 5941 H 552.899 4.51418 -2.34733 0
M  V30 5942 H 552.297 5.62125 0.635004 0
M  V30 5943 H 550.854 6.50868 0.348469 0
M  V30 5944 N 554.287 1.06798 1.15896 0
M  V30 5945 C 555.703 0.792423 1.38538 0
M  V30 5946 C 555.903 -0.60592 1.92174 0
M  V30 5947 O 554.959 -1.36561 2.12385 0
M  V30 5948 C 556.272 1.86157 2.36149 0
M  V30 5949 C 557.82 1.88567 2.49823 0
M  V30 5950 C 558.295 2.9455 3.5072 0
M  V30 5951 N 559.786 2.93616 3.58251 0
M  V30 5952 C 560.521 3.72267 4.36125 0
M  V30 5953 N 560.017 4.60751 5.17379 0
M  V30 5954 N 561.81 3.60637 4.31158 0
M  V30 5955 H 553.961 1.96993 0.794198 0
M  V30 5956 H 556.224 0.853942 0.411688 0
M  V30 5957 H 555.93 2.86603 2.03843 0
M  V30 5958 H 555.804 1.71692 3.3586 0
M  V30 5959 H 558.191 0.887765 2.8143 0
M  V30 5960 H 558.272 2.0711 1.5013 0
M  V30 5961 H 557.916 3.94537 3.19849 0
M  V30 5962 H 557.846 2.73255 4.50155 0
M  V30 5963 H 560.337 2.29472 3.00252 0
M  V30 5964 H 560.65 5.17408 5.74028 0
M  V30 5965 H 558.995 4.64803 5.16704 0
M  V30 5966 H 562.186 2.90892 3.66742 0
M  V30 5967 H 562.359 4.22176 4.91601 0
M  V30 5968 N 555.766 -1.3263 0.851289 0
M  V30 5969 C 556.729 -2.27247 0.298541 0
M  V30 5970 C 557.729 -1.51467 -0.539847 0
M  V30 5971 O 558.919 -1.7061 -0.351843 0
M  V30 5972 C 556.051 -3.35964 -0.578004 0
M  V30 5973 H 557.244 -2.7765 1.13359 0
M  V30 5974 H 554.797 -1.43245 0.625354 0
M  V30 5975 H 555.532 -2.90823 -1.435 0
M  V30 5976 H 555.317 -3.92094 0.0220539 0
M  V30 5977 H 556.807 -4.06472 -0.957626 0
M  V30 5978 N 557.244 -0.608902 -1.45362 0
M  V30 5979 C 558.521 -0.0365378 -1.95566 0
M  V30 5980 C 558.901 1.43169 -1.55131 0
M  V30 5981 O 558.249 2.1349 -0.814513 0
M  V30 5982 C 558.459 -0.236026 -3.48201 0
M  V30 5983 C 559.807 -0.117518 -4.24437 0
M  V30 5984 O 560.831 -0.166217 -3.55812 0
M  V30 5985 O 559.69 -0.00372127 -5.465 0
M  V30 5986 H 556.784 0.0349874 -0.82626 0
M  V30 5987 H 559.33 -0.679055 -1.55521 0
M  V30 5988 H 558.102 -1.25569 -3.70605 0
M  V30 5989 H 557.725 0.441691 -3.95139 0
M  V30 5990 N 558.722 1.53707 -0.348139 0
M  V30 5991 C 559.962 2.02899 0.247254 0
M  V30 5992 C 560.326 1.23033 1.47401 0
M  V30 5993 O 561.527 1.62146 2.14388 0
M  V30 5994 C 559.798 3.53156 0.549151 0
M  V30 5995 S 561.357 4.24247 1.1207 0
M  V30 5996 H 558.175 0.707213 0.0732894 0
M  V30 5997 H 560.777 1.89338 -0.486965 0
M  V30 5998 H 559.481 4.08893 -0.351435 0
M  V30 5999 H 559.012 3.70845 1.31291 0
M  V30 6000 H 561.027 4.33958 2.40613 0
M  V30 6001 N 560.2 0.0768682 1.57412 0
M  V30 6002 C 561.13 -0.886026 2.16037 0
M  V30 6003 C 562.111 -1.30691 1.08876 0
M  V30 6004 O 563.296 -1.37705 1.36934 0
M  V30 6005 C 560.426 -2.1518 2.72608 0
M  V30 6006 C 559.38 -1.87015 3.8498 0
M  V30 6007 C 558.706 -3.20266 4.28175 0
M  V30 6008 C 560.006 -1.17143 5.08994 0
M  V30 6009 H 561.7 -0.397642 2.96748 0
M  V30 6010 H 559.246 -0.189823 1.42743 0
M  V30 6011 H 561.199 -2.82962 3.12266 0
M  V30 6012 H 559.923 -2.66269 1.89125 0
M  V30 6013 H 558.582 -1.21636 3.45833 0
M  V30 6014 H 558.23 -3.69207 3.41607 0
M  V30 6015 H 557.93 -3.0221 5.03927 0
M  V30 6016 H 559.454 -3.89237 4.70454 0
M  V30 6017 H 560.868 -1.75003 5.45937 0
M  V30 6018 H 559.265 -1.09328 5.90057 0
M  V30 6019 H 560.335 -0.151295 4.84664 0
M  V30 6020 N 561.678 -1.56367 -0.196722 0
M  V30 6021 C 562.924 -1.80796 -0.918725 0
M  V30 6022 C 563.257 -0.650645 -1.82976 0
M  V30 6023 O 562.532 0.348889 -1.91345 0
M  V30 6024 C 562.815 -3.15472 -1.73636 0
M  V30 6025 C 562.668 -4.41693 -0.85015 0
M  V30 6026 C 563.987 -3.46824 -2.70927 0
M  V30 6027 H 561.106 -0.657702 -0.332561 0
M  V30 6028 H 563.748 -1.89086 -0.186186 0
M  V30 6029 H 561.898 -3.08536 -2.36088 0
M  V30 6030 H 563.57 -4.60673 -0.240459 0
M  V30 6031 H 561.813 -4.33517 -0.156785 0
M  V30 6032 H 562.484 -5.32419 -1.45719 0
M  V30 6033 H 564.96 -3.54049 -2.18607 0
M  V30 6034 H 563.836 -4.4218 -3.25219 0
M  V30 6035 H 564.097 -2.70236 -3.49893 0
M  V30 6036 N 563.156 0.464375 -1.50603 0
M  V30 6037 C 564.567 1.04507 -1.5471 0
M  V30 6038 C 564.918 1.9297 -0.354542 0
M  V30 6039 O 564.043 2.09763 0.531812 0
M  V30 6040 C 564.638 1.90207 -2.80369 0
M  V30 6041 C 563.197 2.43373 -2.87135 0
M  V30 6042 C 562.344 1.21886 -2.49076 0
M  V30 6043 H 565.295 0.246716 -1.56771 0
M  V30 6044 H 565.316 2.75353 -2.62604 0
M  V30 6045 H 564.828 1.25796 -3.67147 0
M  V30 6046 H 562.929 3.11318 -2.04724 0
M  V30 6047 H 563.042 2.7802 -3.90181 0
M  V30 6048 H 561.406 1.55575 -2.01664 0
M  V30 6049 H 562.189 0.591268 -3.3817 0
M  V30 6050 N 564.634 1.40294 0.718013 0
M  V30 6051 C 566.05 1.2227 1.02577 0
M  V30 6052 C 566.25 0.0961976 2.0127 0
M  V30 6053 O 565.306 -0.546695 2.46511 0
M  V30 6054 C 566.619 2.56348 1.57182 0
M  V30 6055 C 568.167 2.6334 1.69178 0
M  V30 6056 C 568.642 3.9768 2.27188 0
M  V30 6057 N 570.133 3.99409 2.34578 0
M  V30 6058 C 570.868 5.00141 2.8044 0
M  V30 6059 N 570.364 6.11268 3.26073 0
M  V30 6060 N 572.157 4.87511 2.79802 0
M  V30 6061 H 564.308 2.12304 0.0637899 0
M  V30 6062 H 566.571 0.943632 0.0909036 0
M  V30 6063 H 566.277 3.3942 0.921262 0
M  V30 6064 H 566.151 2.77266 2.55741 0
M  V30 6065 H 568.538 1.80641 2.33351 0
M  V30 6066 H 568.619 2.46255 0.692247 0
M  V30 6067 H 568.263 4.80817 1.63638 0
M  V30 6068 H 568.193 4.12093 3.27852 0
M  V30 6069 H 570.684 3.19162 2.02346 0
M  V30 6070 H 570.997 6.84023 3.59628 0
M  V30 6071 H 569.342 6.14837 3.24038 0
M  V30 6072 H 572.533 3.9979 2.43487 0
M  V30 6073 H 572.706 5.66158 3.15228 0
M  V30 6074 N 566.112 -0.949982 1.2575 0
M  V30 6075 C 567.06 -2.06869 1.06339 0
M  V30 6076 C 568.054 -1.69399 -0.00708901 0
M  V30 6077 O 569.26 -1.79383 0.148897 0
M  V30 6078 H 565.635 -0.677197 0.326969 0
M  V30 6079 H 567.606 -2.20396 2.01167 0
M  V30 6080 C 566.355 -3.40503 0.703769 0
M  V30 6081 H 565.678 -3.69807 1.51931 0
M  V30 6082 H 567.118 -4.19623 0.607677 0
M  V30 6083 C 565.577 -3.31685 -0.5905 0
M  V30 6084 O 566.107 -3.67085 -1.63131 0
M  V30 6085 N 564.313 -2.84797 -0.577859 0
M  V30 6086 H 563.86 -2.56186 0.26951 0
M  V30 6087 H 563.818 -2.79279 -1.44398 0
M  V30 6088 N 567.59 -1.07411 -1.15328 0
M  V30 6089 C 568.815 -0.818856 -1.90551 0
M  V30 6090 C 569.24 0.622194 -1.77512 0
M  V30 6091 O 568.598 1.43484 -1.10824 0
M  V30 6092 C 568.646 -1.23267 -3.38877 0
M  V30 6093 O 567.75 -0.378345 -4.10661 0
M  V30 6094 H 567.091 -0.29827 -0.593238 0
M  V30 6095 H 569.621 -1.43289 -1.46046 0
M  V30 6096 H 569.631 -1.20912 -3.89672 0
M  V30 6097 H 568.306 -2.28226 -3.47686 0
M  V30 6098 H 566.883 -0.464437 -3.69996 0
M  V30 6099 N 569.068 1.32177 -0.85831 0
M  V30 6100 C 570.298 2.01021 -0.476889 0
M  V30 6101 C 570.706 1.64653 0.931995 0
M  V30 6102 O 570.049 0.865713 1.62022 0
M  V30 6103 C 570.111 3.55413 -0.540528 0
M  V30 6104 C 569.775 4.1522 -1.90895 0
M  V30 6105 C 570.772 4.3318 -2.87491 0
M  V30 6106 C 568.457 4.51212 -2.20709 0
M  V30 6107 C 570.451 4.86306 -4.1205 0
M  V30 6108 C 568.138 5.04042 -3.45521 0
M  V30 6109 C 569.136 5.21538 -4.41007 0
M  V30 6110 O 568.824 5.73238 -5.63608 0
M  V30 6111 H 568.556 0.650059 -0.18547 0
M  V30 6112 H 571.11 1.69648 -1.15796 0
M  V30 6113 H 569.34 3.86196 0.19741 0
M  V30 6114 H 571.029 4.05526 -0.174191 0
M  V30 6115 H 571.795 4.05704 -2.65762 0
M  V30 6116 H 567.674 4.36878 -1.4717 0
M  V30 6117 H 571.218 4.99877 -4.86589 0
M  V30 6118 H 567.115 5.30952 -3.67098 0
M  V30 6119 H 567.883 5.91625 -5.65617 0
M  V30 6120 N 570.547 0.616602 1.45037 0
M  V30 6121 C 571.793 0.115501 2.02471 0
M  V30 6122 C 572.126 -1.25406 1.4828 0
M  V30 6123 O 571.401 -1.82922 0.661051 0
M  V30 6124 C 571.684 0.0863588 3.59996 0
M  V30 6125 C 571.537 1.48723 4.24501 0
M  V30 6126 C 572.856 -0.596762 4.36035 0
M  V30 6127 H 569.975 0.0434461 0.735718 0
M  V30 6128 H 572.617 0.7903 1.72784 0
M  V30 6129 H 570.767 -0.488277 3.85419 0
M  V30 6130 H 572.439 2.10964 4.10234 0
M  V30 6131 H 570.682 2.04534 3.82555 0
M  V30 6132 H 571.353 1.419 5.3345 0
M  V30 6133 H 573.829 -0.10824 4.15959 0
M  V30 6134 H 572.705 -0.586289 5.4576 0
M  V30 6135 H 572.966 -1.66451 4.09569 0
M  V30 6136 N 572.025 -1.5352 0.356285 0
M  V30 6137 C 573.441 -1.59599 0.00485267 0
M  V30 6138 C 573.641 -1.37179 -1.47595 0
M  V30 6139 O 572.697 -1.17234 -2.23635 0
M  V30 6140 C 574.01 -2.97277 0.452454 0
M  V30 6141 C 575.558 -3.10357 0.405881 0
M  V30 6142 C 576.033 -4.50432 0.829148 0
M  V30 6143 N 577.524 -4.5652 0.783838 0
M  V30 6144 C 578.259 -5.63077 1.08315 0
M  V30 6145 N 577.755 -6.77429 1.45126 0
M  V30 6146 N 579.548 -5.53014 1.00655 0
M  V30 6147 H 571.699 -1.66346 1.32071 0
M  V30 6148 H 573.962 -0.77971 0.539218 0
M  V30 6149 H 573.668 -3.18792 1.48542 0
M  V30 6150 H 573.542 -3.76836 -0.165762 0
M  V30 6151 H 575.929 -2.88558 -0.617934 0
M  V30 6152 H 576.01 -2.32828 1.05947 0
M  V30 6153 H 575.654 -4.72968 1.85103 0
M  V30 6154 H 575.584 -5.26378 0.152906 0
M  V30 6155 H 578.075 -3.74408 0.512513 0
M  V30 6156 H 578.388 -7.54669 1.66415 0
M  V30 6157 H 576.733 -6.78844 1.48983 0
M  V30 6158 H 579.924 -4.62557 0.718215 0
M  V30 6159 H 580.097 -6.35964 1.24315 0
M  V30 6160 N 573.503 -0.0852151 -1.57369 0
M  V30 6161 C 574.433 0.874556 -2.16503 0
M  V30 6162 C 575.414 1.30111 -1.09568 0
M  V30 6163 O 576.599 1.36977 -1.37662 0
M  V30 6164 C 573.729 2.13731 -2.73745 0
M  V30 6165 C 572.683 1.84971 -3.85966 0
M  V30 6166 C 572.009 3.17991 -4.29867 0
M  V30 6167 C 573.309 1.14442 -5.09608 0
M  V30 6168 H 575.003 0.381899 -2.96954 0
M  V30 6169 H 572.549 0.18225 -1.42842 0
M  V30 6170 H 574.502 2.81302 -3.13763 0
M  V30 6171 H 573.226 2.65263 -1.90534 0
M  V30 6172 H 571.885 1.19801 -3.46473 0
M  V30 6173 H 571.533 3.6739 -3.4356 0
M  V30 6174 H 571.233 2.99534 -5.05523 0
M  V30 6175 H 572.757 3.86737 -4.72511 0
M  V30 6176 H 574.171 1.72105 -5.46857 0
M  V30 6177 H 572.568 1.06197 -5.90629 0
M  V30 6178 H 573.638 0.12559 -4.84737 0
M  V30 6179 N 574.981 1.5647 0.188427 0
M  V30 6180 C 576.397 1.50204 0.539532 0
M  V30 6181 C 576.597 0.78644 1.85519 0
M  V30 6182 O 575.653 0.339714 2.50204 0
M  V30 6183 C 576.966 2.94893 0.588103 0
M  V30 6184 C 578.514 3.05602 0.67648 0
M  V30 6185 C 578.989 4.51716 0.756101 0
M  V30 6186 N 580.48 4.55894 0.819451 0
M  V30 6187 C 581.215 5.66272 0.90134 0
M  V30 6188 N 580.711 6.86323 0.945118 0
M  V30 6189 N 582.504 5.54201 0.939043 0
M  V30 6190 H 574.655 2.01406 -0.674493 0
M  V30 6191 H 576.918 0.916828 -0.241103 0
M  V30 6192 H 576.624 3.50334 -0.309633 0
M  V30 6193 H 576.498 3.4861 1.44051 0
M  V30 6194 H 578.885 2.50206 1.56465 0
M  V30 6195 H 578.966 2.54999 -0.202262 0
M  V30 6196 H 578.61 5.07739 -0.12774 0
M  V30 6197 H 578.54 5.00058 1.65074 0
M  V30 6198 H 581.031 3.69452 0.794594 0
M  V30 6199 H 581.344 7.66194 1.0083 0
M  V30 6200 H 579.689 6.88968 0.913683 0
M  V30 6201 H 582.88 4.59333 0.901725 0
M  V30 6202 H 583.053 6.40247 0.999402 0
M  V30 6203 N 576.459 -0.456382 1.50847 0
M  V30 6204 C 577.409 -1.55045 1.67168 0
M  V30 6205 C 578.393 -1.52061 0.525958 0
M  V30 6206 O 579.585 -1.58836 0.781036 0
M  V30 6207 C 576.714 -2.93386 1.78268 0
M  V30 6208 C 575.8 -3.01198 2.98564 0
M  V30 6209 N 576.191 -2.78792 4.22029 0
M  V30 6210 C 574.489 -3.32346 2.97426 0
M  V30 6211 C 575.19 -2.91953 5.03128 0
M  V30 6212 N 574.166 -3.22797 4.37382 0
M  V30 6213 H 577.968 -1.36444 2.60308 0
M  V30 6214 H 575.482 -0.663375 1.48233 0
M  V30 6215 H 577.479 -3.72071 1.88067 0
M  V30 6216 H 576.139 -3.13022 0.862965 0
M  V30 6217 H 577.15 -2.54087 4.51287 0
M  V30 6218 H 573.827 -3.57877 2.15012 0
M  V30 6219 H 575.217 -2.78745 6.11351 0
M  V30 6220 N 577.937 -1.40673 -0.710563 0
M  V30 6221 C 578.867 -1.44095 -1.83736 0
M  V30 6222 C 579.848 -0.301286 -1.67411 0
M  V30 6223 O 581.033 -0.510618 -1.87367 0
M  V30 6224 C 578.163 -1.30773 -3.21738 0
M  V30 6225 C 577.117 -2.42395 -3.52745 0
M  V30 6226 C 576.443 -2.14147 -4.89944 0
M  V30 6227 C 577.743 -3.84738 -3.53234 0
M  V30 6228 H 579.437 -2.38396 -1.81129 0
M  V30 6229 H 576.983 -1.14746 -0.870017 0
M  V30 6230 H 578.936 -1.31783 -4.00264 0
M  V30 6231 H 577.66 -0.329507 -3.24934 0
M  V30 6232 H 576.319 -2.40643 -2.76562 0
M  V30 6233 H 575.967 -1.14703 -4.89747 0
M  V30 6234 H 575.667 -2.88934 -5.11655 0
M  V30 6235 H 577.191 -2.16848 -5.70797 0
M  V30 6236 H 578.605 -3.88286 -4.2179 0
M  V30 6237 H 577.002 -4.59085 -3.86473 0
M  V30 6238 H 578.072 -4.13962 -2.52514 0
M  V30 6239 N 579.415 0.9433 -1.26252 0
M  V30 6240 C 580.655 1.70397 -1.1289 0
M  V30 6241 C 581.019 1.89268 0.322713 0
M  V30 6242 O 582.22 2.62503 0.578418 0
M  V30 6243 C 580.491 3.04296 -1.87453 0
M  V30 6244 S 582.05 3.95475 -1.90119 0
M  V30 6245 H 578.868 0.585559 -0.403289 0
M  V30 6246 H 581.47 1.12424 -1.59941 0
M  V30 6247 H 580.174 2.8824 -2.9214 0
M  V30 6248 H 579.705 3.67327 -1.40835 0
M  V30 6249 H 581.72 4.86297 -0.986373 0
M  V30 6250 N 580.893 1.08022 1.14757 0
M  V30 6251 C 582.121 0.828847 1.89572 0
M  V30 6252 C 582.536 -0.618621 1.78377 0
M  V30 6253 O 581.893 -1.42482 1.1404 0
M  V30 6254 C 581.944 1.23677 3.39685 0
M  V30 6255 O 581.665 2.62746 3.50566 0
M  V30 6256 C 583.166 1.01569 4.31507 0
M  V30 6257 H 580.386 0.299196 0.600602 0
M  V30 6258 H 582.93 1.43846 1.45357 0
M  V30 6259 H 581.085 0.671347 3.81539 0
M  V30 6260 H 581.499 2.79573 4.43778 0
M  V30 6261 H 582.973 1.35055 5.35223 0
M  V30 6262 H 583.45 -0.0475433 4.39174 0
M  V30 6263 H 584.056 1.56636 3.95405 0
M  V30 6264 N 582.371 -1.3172 0.865308 0
M  V30 6265 C 583.319 -2.30569 0.306674 0
M  V30 6266 C 584.313 -1.59317 -0.575724 0
M  V30 6267 O 585.519 -1.73961 -0.462343 0
M  V30 6268 H 581.894 -0.747681 0.0804834 0
M  V30 6269 H 583.865 -2.75165 1.15441 0
M  V30 6270 C 582.614 -3.44358 -0.480952 0
M  V30 6271 H 581.937 -3.99354 0.18876 0
M  V30 6272 H 583.377 -4.15652 -0.837241 0
M  V30 6273 C 581.836 -2.92574 -1.67039 0
M  V30 6274 O 582.366 -2.90954 -2.76964 0
M  V30 6275 N 580.572 -2.48835 -1.50097 0
M  V30 6276 H 580.119 -2.50353 -0.606738 0
M  V30 6277 H 580.077 -2.14543 -2.29823 0
M  V30 6278 N 583.85 -0.624285 -1.44708 0
M  V30 6279 C 585.077 -0.132919 -2.06473 0
M  V30 6280 C 585.493 1.18967 -1.46602 0
M  V30 6281 O 584.85 1.72824 -0.586341 0
M  V30 6282 C 584.901 -0.00465418 -3.615 0
M  V30 6283 O 584.622 -1.27494 -4.19138 0
M  V30 6284 C 586.123 0.516213 -4.40284 0
M  V30 6285 H 583.343 -0.0765201 -0.666623 0
M  V30 6286 H 585.887 -0.856751 -1.85688 0
M  V30 6287 H 584.042 0.669583 -3.8157 0
M  V30 6288 H 584.456 -1.11536 -5.12504 0
M  V30 6289 H 585.93 0.554994 -5.49203 0
M  V30 6290 H 586.407 1.5419 -4.11245 0
M  V30 6291 H 587.013 -0.124542 -4.25118 0
M  V30 6292 N 585.328 1.53329 -0.364422 0
M  V30 6293 C 586.574 2.02222 0.21855 0
M  V30 6294 C 586.929 1.24702 1.46517 0
M  V30 6295 O 586.222 0.331969 1.88702 0
M  V30 6296 C 586.416 3.52911 0.564661 0
M  V30 6297 C 586.245 4.45023 -0.646862 0
M  V30 6298 C 585.015 4.91838 -1.15858 0
M  V30 6299 C 587.213 4.91581 -1.51172 0
M  V30 6300 N 585.195 5.67955 -2.33025 0
M  V30 6301 C 586.566 5.66028 -2.53006 0
M  V30 6302 C 588.621 4.73656 -1.53473 0
M  V30 6303 C 587.324 6.24457 -3.56996 0
M  V30 6304 C 589.35 5.3295 -2.56356 0
M  V30 6305 C 588.712 6.07282 -3.56914 0
M  V30 6306 H 584.811 0.780832 0.0427199 0
M  V30 6307 H 587.395 1.87937 -0.508704 0
M  V30 6308 H 585.566 3.6736 1.26099 0
M  V30 6309 H 587.298 3.88528 1.13262 0
M  V30 6310 H 584.053 4.68043 -0.723393 0
M  V30 6311 H 584.477 6.10675 -2.92241 0
M  V30 6312 H 589.119 4.15714 -0.770842 0
M  V30 6313 H 586.837 6.81496 -4.34268 0
M  V30 6314 H 590.423 5.20976 -2.58989 0
M  V30 6315 H 589.303 6.52345 -4.35218 0
M  V30 6316 N 586.806 0.0935595 1.57322 0
M  V30 6317 C 588.052 -0.571355 1.94585 0
M  V30 6318 C 588.385 -1.67929 0.975366 0
M  V30 6319 O 587.66 -1.94498 0.00816206 0
M  V30 6320 C 587.943 -1.12797 3.41978 0
M  V30 6321 C 587.796 -0.0251881 4.49793 0
M  V30 6322 C 589.115 -2.02682 3.90651 0
M  V30 6323 H 586.234 -0.206223 0.70756 0
M  V30 6324 H 588.876 0.163956 1.89291 0
M  V30 6325 H 587.026 -1.75461 3.4662 0
M  V30 6326 H 588.698 0.608979 4.57263 0
M  V30 6327 H 586.941 0.641399 4.29032 0
M  V30 6328 H 587.612 -0.455433 5.50118 0
M  V30 6329 H 590.088 -1.49925 3.88152 0
M  V30 6330 H 588.964 -2.38555 4.94351 0
M  V30 6331 H 589.225 -2.94362 3.29854 0
M  V30 6332 N 588.284 -1.56567 -0.180126 0
M  V30 6333 C 589.512 -1.85618 -0.913972 0
M  V30 6334 C 589.927 -0.677892 -1.7621 0
M  V30 6335 O 589.284 0.353171 -1.7905 0
M  V30 6336 C 589.335 -3.13619 -1.79793 0
M  V30 6337 O 589.056 -4.26906 -0.98402 0
M  V30 6338 C 590.557 -3.55954 -2.64219 0
M  V30 6339 H 587.777 -0.616043 -0.265954 0
M  V30 6340 H 590.321 -2.03681 -0.182872 0
M  V30 6341 H 588.476 -2.97409 -2.48247 0
M  V30 6342 H 588.89 -4.9989 -1.58776 0
M  V30 6343 H 590.364 -4.48444 -3.21873 0
M  V30 6344 H 590.841 -2.79653 -3.38661 0
M  V30 6345 H 591.447 -3.74746 -2.01111 0
M  V30 6346 N 589.762 0.448376 -1.51087 0
M  V30 6347 C 590.987 1.22605 -1.6728 0
M  V30 6348 C 591.412 1.84524 -0.365045 0
M  V30 6349 O 590.77 1.6832 0.673642 0
M  V30 6350 C 590.818 2.29393 -2.78229 0
M  V30 6351 O 589.922 3.34608 -2.41063 0
M  V30 6352 H 589.263 0.359705 -0.558129 0
M  V30 6353 H 591.793 0.530903 -1.97592 0
M  V30 6354 H 591.803 2.74352 -3.01986 0
M  V30 6355 H 590.478 1.83701 -3.73131 0
M  V30 6356 H 589.055 2.95202 -2.27838 0
M  V30 6357 N 591.24 1.41047 0.703093 0
M  V30 6358 C 592.468 1.4334 1.49202 0
M  V30 6359 C 592.883 0.0365596 1.88765 0
M  V30 6360 O 592.24 -0.942419 1.56284 0
M  V30 6361 C 592.291 2.33538 2.75939 0
M  V30 6362 O 592.012 3.67786 2.38045 0
M  V30 6363 C 593.513 2.44555 3.6974 0
M  V30 6364 H 590.733 0.488472 0.460039 0
M  V30 6365 H 593.277 1.85245 0.86629 0
M  V30 6366 H 591.432 1.94962 3.34766 0
M  V30 6367 H 591.846 4.15816 3.19683 0
M  V30 6368 H 593.32 3.11849 4.55471 0
M  V30 6369 H 593.797 1.47447 4.1371 0
M  V30 6370 H 594.403 2.83735 3.16819 0
M  V30 6371 N 592.718 -0.936591 1.26751 0
M  V30 6372 C 593.943 -1.72288 1.15462 0
M  V30 6373 C 594.368 -1.85915 -0.285887 0
M  V30 6374 O 593.726 -1.35272 -1.20711 0
M  V30 6375 C 593.774 -3.10503 1.83359 0
M  V30 6376 O 592.878 -3.96745 1.1255 0
M  V30 6377 H 592.219 -0.52843 0.402067 0
M  V30 6378 H 594.749 -1.17271 1.67656 0
M  V30 6379 H 594.759 -3.60867 1.90365 0
M  V30 6380 H 593.434 -2.99901 2.88153 0
M  V30 6381 H 592.011 -3.55191 1.13551 0
M  V30 6382 N 594.196 -1.08629 -1.14182 0
M  V30 6383 C 595.445 -0.812271 -1.84621 0
M  V30 6384 C 595.758 0.664313 -1.83973 0
M  V30 6385 O 596.964 1.05357 -2.50224 0
M  V30 6386 C 595.42 -1.4031 -3.31423 0
M  V30 6387 C 595.028 -2.91164 -3.40481 0
M  V30 6388 C 596.772 -1.20767 -4.06959 0
M  V30 6389 C 594.679 -3.43373 -4.81507 0
M  V30 6390 H 593.609 -0.30019 -0.691666 0
M  V30 6391 H 596.26 -1.30798 -1.28701 0
M  V30 6392 H 594.642 -0.835096 -3.87094 0
M  V30 6393 H 595.816 -3.5412 -2.94848 0
M  V30 6394 H 594.131 -3.09646 -2.78403 0
M  V30 6395 H 596.728 -1.57237 -5.11058 0
M  V30 6396 H 597.071 -0.147664 -4.16038 0
M  V30 6397 H 597.604 -1.74274 -3.57594 0
M  V30 6398 H 594.343 -4.48958 -4.77616 0
M  V30 6399 H 593.863 -2.85176 -5.27669 0
M  V30 6400 H 595.542 -3.40095 -5.50404 0
M  V30 6401 N 595.674 1.31259 -0.872281 0
M  V30 6402 C 597.085 1.78822 -0.536617 0
M  V30 6403 C 597.436 1.71855 0.946594 0
M  V30 6404 O 596.561 1.28769 1.73918 0
M  V30 6405 C 597.156 3.24698 -0.967294 0
M  V30 6406 C 595.715 3.70147 -0.683251 0
M  V30 6407 C 594.862 2.51994 -1.15733 0
M  V30 6408 H 597.813 1.18308 -1.05777 0
M  V30 6409 H 597.834 3.79386 -0.290929 0
M  V30 6410 H 597.346 3.29737 -2.04683 0
M  V30 6411 H 595.447 3.70607 0.384825 0
M  V30 6412 H 595.56 4.62183 -1.2619 0
M  V30 6413 H 593.924 2.48078 -0.577024 0
M  V30 6414 H 594.707 2.59778 -2.24434 0
M  V30 6415 N 597.152 0.631951 1.44375 0
M  V30 6416 C 598.401 0.134214 2.01253 0
M  V30 6417 C 598.714 -1.25171 1.50305 0
M  V30 6418 O 599.92 -1.8435 1.99317 0
M  V30 6419 C 598.376 0.189187 3.59402 0
M  V30 6420 C 597.984 1.57647 4.19346 0
M  V30 6421 C 599.728 -0.252044 4.23751 0
M  V30 6422 C 597.635 1.58651 5.69722 0
M  V30 6423 H 596.565 0.0464101 0.75257 0
M  V30 6424 H 599.216 0.790868 1.65582 0
M  V30 6425 H 597.598 -0.534584 3.92375 0
M  V30 6426 H 598.772 2.32389 3.97909 0
M  V30 6427 H 597.087 1.96186 3.67288 0
M  V30 6428 H 599.684 -0.264084 5.34047 0
M  V30 6429 H 600.027 -1.27951 3.96149 0
M  V30 6430 H 600.56 0.41926 3.95584 0
M  V30 6431 H 597.299 2.59237 6.0206 0
M  V30 6432 H 596.819 0.882039 5.93279 0
M  V30 6433 H 598.498 1.32082 6.33375 0
M  V30 6434 N 598.631 -1.53133 0.372548 0
M  V30 6435 C 599.908 -1.93704 -0.271693 0
M  V30 6436 C 600.288 -1.30667 -1.65799 0
M  V30 6437 O 599.636 -0.46838 -2.23648 0
M  V30 6438 C 599.846 -3.47576 -0.314903 0
M  V30 6439 C 601.194 -4.20998 -0.551912 0
M  V30 6440 O 602.218 -3.53994 -0.39582 0
M  V30 6441 O 601.077 -5.39748 -0.85639 0
M  V30 6442 H 598.171 -0.810457 -0.164586 0
M  V30 6443 H 600.717 -1.6427 0.425838 0
M  V30 6444 H 599.489 -3.85749 0.656792 0
M  V30 6445 H 599.112 -3.83264 -1.05804 0
M  V30 6446 N 600.109 -0.101901 -1.5727 0
M  V30 6447 C 601.337 0.568392 -1.98939 0
M  V30 6448 C 601.752 1.61301 -0.981194 0
M  V30 6449 O 601.109 1.82478 0.0282869 0
M  V30 6450 C 601.16 1.20997 -3.40649 0
M  V30 6451 O 600.881 0.207129 -4.3761 0
M  V30 6452 C 602.382 1.96523 -3.97358 0
M  V30 6453 H 599.602 0.15186 -0.65359 0
M  V30 6454 H 602.146 -0.183198 -2.03678 0
M  V30 6455 H 600.301 1.91245 -3.36904 0
M  V30 6456 H 600.715 0.671071 -5.20189 0
M  V30 6457 H 602.189 2.36764 -4.98645 0
M  V30 6458 H 602.666 2.83376 -3.35552 0
M  V30 6459 H 603.272 1.31076 -4.04598 0
M  V30 6460 N 601.587 1.56661 0.17182 0
M  V30 6461 C 602.864 1.72838 0.915778 0
M  V30 6462 C 603.244 0.66316 2.00413 0
M  V30 6463 O 602.592 -0.322123 2.26218 0
M  V30 6464 C 602.802 3.16019 1.48097 0
M  V30 6465 C 604.15 3.76962 1.95408 0
M  V30 6466 O 605.174 3.19294 1.57892 0
M  V30 6467 O 604.033 4.78219 2.64516 0
M  V30 6468 H 601.127 0.705797 0.431021 0
M  V30 6469 H 603.673 1.68947 0.159689 0
M  V30 6470 H 602.445 3.85031 0.697618 0
M  V30 6471 H 602.068 3.24234 2.30126 0
M  V30 6472 N 603.065 -0.440357 1.51323 0
M  V30 6473 C 603.975 -1.55955 1.75258 0
M  V30 6474 C 604.991 -1.61933 0.636687 0
M  V30 6475 O 606.167 -1.79231 0.918593 0
M  V30 6476 C 603.232 -2.9196 1.86977 0
M  V30 6477 C 602.293 -2.96122 3.10822 0
M  V30 6478 C 601.526 -4.2564 3.21973 0
M  V30 6479 O 601.749 -5.17851 2.39137 0
M  V30 6480 O 600.683 -4.36025 4.14929 0
M  V30 6481 H 604.509 -1.38673 2.70191 0
M  V30 6482 H 602.094 -0.623055 1.35788 0
M  V30 6483 H 603.976 -3.72682 1.96688 0
M  V30 6484 H 602.651 -3.09375 0.952307 0
M  V30 6485 H 601.558 -2.14366 3.06591 0
M  V30 6486 H 602.891 -2.83651 4.02247 0
M  V30 6487 N 604.543 -1.41418 -0.695603 0
M  V30 6488 C 605.453 -1.45622 -1.83933 0
M  V30 6489 C 606.469 -0.346825 -1.70508 0
M  V30 6490 O 607.645 -0.59454 -1.92424 0
M  V30 6491 C 604.71 -1.33627 -3.19914 0
M  V30 6492 C 603.771 -2.54882 -3.45447 0
M  V30 6493 C 603.004 -2.43449 -4.7494 0
M  V30 6494 O 603.227 -1.45905 -5.51424 0
M  V30 6495 O 602.161 -3.33206 -5.01256 0
M  V30 6496 H 605.987 -2.42114 -1.83342 0
M  V30 6497 H 603.572 -1.22956 -0.848658 0
M  V30 6498 H 605.454 -1.29221 -4.01098 0
M  V30 6499 H 604.129 -0.402508 -3.21188 0
M  V30 6500 H 603.036 -2.64865 -2.64192 0
M  V30 6501 H 604.369 -3.47087 -3.48987 0
M  V30 6502 N 606.021 0.929856 -1.27246 0
M  V30 6503 C 607.437 1.20542 -1.04603 0
M  V30 6504 C 607.637 2.00276 0.221754 0
M  V30 6505 O 606.693 2.34835 0.927833 0
M  V30 6506 C 608.006 1.95566 -2.28417 0
M  V30 6507 C 609.554 2.08513 -2.33433 0
M  V30 6508 C 610.029 2.86943 -3.5697 0
M  V30 6509 N 611.52 2.94512 -3.57515 0
M  V30 6510 C 612.255 3.55656 -4.49774 0
M  V30 6511 N 611.751 4.18209 -5.52334 0
M  V30 6512 N 613.544 3.53038 -4.37402 0
M  V30 6513 H 605.695 0.397113 -2.08655 0
M  V30 6514 H 607.958 0.238277 -0.917566 0
M  V30 6515 H 607.664 1.44395 -3.20691 0
M  V30 6516 H 607.538 2.9619 -2.33563 0
M  V30 6517 H 609.925 2.58872 -1.41666 0
M  V30 6518 H 610.006 1.07117 -2.32292 0
M  V30 6519 H 609.65 2.37268 -4.49072 0
M  V30 6520 H 609.58 3.8862 -3.55362 0
M  V30 6521 H 612.071 2.50053 -2.83341 0
M  V30 6522 H 612.384 4.62796 -6.18902 0
M  V30 6523 H 610.729 4.16761 -5.56179 0
M  V30 6524 H 613.92 3.0337 -3.56489 0
M  V30 6525 H 614.093 4.004 -5.09493 0
M  V30 6526 N 607.499 1.09233 1.13605 0
M  V30 6527 C 608.91 0.846839 1.6639 0
M  V30 6528 C 609.261 -0.625031 1.85978 0
M  V30 6529 O 608.386 -1.48173 1.57714 0
M  V30 6530 C 608.981 1.5307 3.0225 0
M  V30 6531 C 607.54 1.33223 3.52035 0
M  V30 6532 C 606.687 1.58806 2.27323 0
M  V30 6533 H 609.638 1.25175 0.975541 0
M  V30 6534 H 609.659 0.96267 3.68121 0
M  V30 6535 H 609.171 2.60192 2.87961 0
M  V30 6536 H 607.272 0.282091 3.71531 0
M  V30 6537 H 607.385 2.0657 4.32279 0
M  V30 6538 H 605.749 1.01007 2.33815 0
M  V30 6539 H 606.532 2.67153 2.15602 0
M  V30 6540 N 608.977 -1.30795 0.87923 0
M  V30 6541 C 610.223 -1.96653 0.495519 0
M  V30 6542 C 610.556 -1.69282 -0.951703 0
M  V30 6543 O 609.831 -0.994374 -1.6716 0
M  V30 6544 C 610.114 -3.51898 0.764174 0
M  V30 6545 C 609.967 -3.88808 2.2616 0
M  V30 6546 C 611.286 -4.39462 0.236825 0
M  V30 6547 H 608.405 -0.7143 0.181507 0
M  V30 6548 H 611.047 -1.54765 1.10217 0
M  V30 6549 H 609.197 -3.87709 0.247841 0
M  V30 6550 H 610.869 -3.63051 2.8459 0
M  V30 6551 H 609.112 -3.37082 2.73053 0
M  V30 6552 H 609.783 -4.97086 2.4002 0
M  V30 6553 H 612.259 -4.10528 0.678683 0
M  V30 6554 H 611.135 -5.47018 0.454176 0
M  V30 6555 H 611.396 -4.33621 -0.861683 0
M  V30 6556 N 610.455 -0.639598 -1.44038 0
M  V30 6557 C 611.388 0.109736 -2.27936 0
M  V30 6558 C 612.366 0.843095 -1.39035 0
M  V30 6559 O 613.55 0.845456 -1.68476 0
M  V30 6560 C 610.677 1.16173 -3.18153 0
M  V30 6561 C 609.723 0.527954 -4.2322 0
M  V30 6562 S 610.556 -0.688318 -5.31058 0
M  V30 6563 C 611.712 0.363481 -6.24844 0
M  V30 6564 H 611.945 -0.601986 -2.91142 0
M  V30 6565 H 609.478 -0.42802 -1.48349 0
M  V30 6566 H 611.436 1.76372 -3.7068 0
M  V30 6567 H 610.097 1.84569 -2.54151 0
M  V30 6568 H 609.29 1.32054 -4.86393 0
M  V30 6569 H 608.892 0.000396444 -3.74 0
M  V30 6570 H 611.184 1.23362 -6.66174 0
M  V30 6571 H 612.127 -0.23288 -7.07717 0
M  V30 6572 H 612.535 0.693179 -5.60228 0
M  V30 6573 N 611.933 1.52934 -0.380664 0
M  V30 6574 C 612.863 2.29118 0.450268 0
M  V30 6575 C 613.844 1.32153 1.07096 0
M  V30 6576 O 615.029 1.61038 1.08537 0
M  V30 6577 C 612.159 3.09161 1.58231 0
M  V30 6578 C 611.113 4.13938 1.0881 0
M  V30 6579 C 610.439 4.82153 2.31155 0
M  V30 6580 C 611.739 5.22048 0.162146 0
M  V30 6581 H 613.433 2.98826 -0.185361 0
M  V30 6582 H 610.979 1.43715 -0.0905886 0
M  V30 6583 H 612.932 3.61211 2.17036 0
M  V30 6584 H 611.656 2.3717 2.2454 0
M  V30 6585 H 610.315 3.62855 0.522633 0
M  V30 6586 H 609.963 4.06719 2.95953 0
M  V30 6587 H 609.663 5.52966 1.98752 0
M  V30 6588 H 611.187 5.37004 2.90618 0
M  V30 6589 H 612.601 5.6951 0.658126 0
M  V30 6590 H 610.998 6.00057 -0.0717122 0
M  V30 6591 H 612.068 4.78398 -0.791438 0
M  V30 6592 N 613.412 0.11024 1.57214 0
M  V30 6593 C 614.359 -0.843195 2.14846 0
M  V30 6594 C 615.329 -1.26954 1.07107 0
M  V30 6595 O 616.514 -1.34861 1.34971 0
M  V30 6596 C 613.654 -2.09123 2.74521 0
M  V30 6597 C 612.767 -1.71404 3.96541 0
M  V30 6598 C 611.902 -2.91107 4.44331 0
M  V30 6599 C 610.941 -2.49586 5.58903 0
M  V30 6600 N 610.078 -3.62175 6.01477 0
M  V30 6601 H 614.918 -0.344886 2.95998 0
M  V30 6602 H 612.455 -0.15855 1.46243 0
M  V30 6603 H 614.413 -2.82234 3.07246 0
M  V30 6604 H 613.043 -2.56427 1.96074 0
M  V30 6605 H 612.095 -0.88201 3.70033 0
M  V30 6606 H 613.407 -1.36884 4.7965 0
M  V30 6607 H 612.561 -3.72454 4.78919 0
M  V30 6608 H 611.3 -3.28848 3.60153 0
M  V30 6609 H 610.305 -1.6667 5.23929 0
M  V30 6610 H 611.53 -2.12973 6.4484 0
M  V30 6611 H 609.476 -3.99605 5.20242 0
M  V30 6612 H 609.393 -3.3155 6.79419 0
M  V30 6613 H 610.661 -4.43987 6.407 0
M  V30 6614 N 614.89 -1.56749 -0.16351 0
M  V30 6615 C 616.139 -1.81626 -0.877211 0
M  V30 6616 C 616.452 -0.688791 -1.83071 0
M  V30 6617 O 617.658 -0.822697 -2.58735 0
M  V30 6618 C 616.114 -3.21858 -1.61045 0
M  V30 6619 C 615.722 -4.42494 -0.700195 0
M  V30 6620 C 617.466 -3.56021 -2.31192 0
M  V30 6621 C 615.373 -5.73748 -1.43412 0
M  V30 6622 H 614.303 -0.67731 -0.331312 0
M  V30 6623 H 616.954 -1.83039 -0.13006 0
M  V30 6624 H 615.336 -3.14784 -2.40264 0
M  V30 6625 H 616.51 -4.60766 0.0555849 0
M  V30 6626 H 614.825 -4.1626 -0.10799 0
M  V30 6627 H 617.422 -4.51333 -2.8671 0
M  V30 6628 H 617.765 -2.81277 -3.06902 0
M  V30 6629 H 618.298 -3.64682 -1.58909 0
M  V30 6630 H 615.037 -6.51543 -0.719186 0
M  V30 6631 H 614.557 -5.5944 -2.16302 0
M  V30 6632 H 616.236 -6.15975 -1.9795 0
M  V30 6633 N 616.368 0.432326 -1.51554 0
M  V30 6634 C 617.616 1.17901 -1.64146 0
M  V30 6635 C 617.937 1.91604 -0.362367 0
M  V30 6636 O 617.207 1.85764 0.621968 0
M  V30 6637 H 615.787 0.438206 -0.604966 0
M  V30 6638 H 618.449 0.495172 -1.88505 0
M  V30 6639 H 617.545 1.90584 -2.47152 0
M  V30 6640 N 617.846 1.41785 0.688094 0
M  V30 6641 C 619.074 1.44915 1.47673 0
M  V30 6642 C 619.489 0.0565786 1.88715 0
M  V30 6643 O 618.846 -0.92579 1.57275 0
M  V30 6644 C 618.897 2.36452 2.73446 0
M  V30 6645 O 618.618 3.7029 2.34131 0
M  V30 6646 C 620.119 2.48463 3.67125 0
M  V30 6647 H 617.339 0.493324 0.454832 0
M  V30 6648 H 619.883 1.86153 0.846594 0
M  V30 6649 H 618.038 1.98502 3.3268 0
M  V30 6650 H 618.452 4.19183 3.15255 0
M  V30 6651 H 619.926 3.16662 4.52138 0
M  V30 6652 H 620.403 1.51826 4.12123 0
M  V30 6653 H 621.009 2.8708 3.13792 0
M  V30 6654 N 619.324 -0.923095 1.27737 0
M  V30 6655 C 620.564 -1.6858 1.15586 0
M  V30 6656 C 620.928 -1.89758 -0.292562 0
M  V30 6657 O 622.129 -2.6339 -0.536583 0
M  V30 6658 C 620.4 -3.01275 1.92271 0
M  V30 6659 S 621.959 -3.924 1.96387 0
M  V30 6660 H 618.777 -0.579069 0.412554 0
M  V30 6661 H 621.379 -1.09866 1.61709 0
M  V30 6662 H 620.083 -2.83556 2.96689 0
M  V30 6663 H 619.614 -3.6504 1.46661 0
M  V30 6664 H 621.629 -4.84667 1.06361 0
M  V30 6665 N 620.802 -1.09834 -1.13024 0
M  V30 6666 C 621.734 -0.699379 -2.18269 0
M  V30 6667 C 622.747 0.260841 -1.60697 0
M  V30 6668 O 623.936 0.0462538 -1.7844 0
M  V30 6669 C 621.036 -0.0104537 -3.38898 0
M  V30 6670 C 620.209 -0.993275 -4.25973 0
M  V30 6671 C 619.268 -0.336982 -5.2512 0
M  V30 6672 O 618.294 -0.985892 -5.60597 0
M  V30 6673 N 619.496 0.90716 -5.73368 0
M  V30 6674 H 622.261 -1.60486 -2.5311 0
M  V30 6675 H 619.822 -0.986337 -1.28386 0
M  V30 6676 H 621.814 0.43991 -4.02302 0
M  V30 6677 H 620.384 0.797335 -3.0226 0
M  V30 6678 H 619.604 -1.62208 -3.5928 0
M  V30 6679 H 620.892 -1.65876 -4.81002 0
M  V30 6680 H 620.29 1.45384 -5.46699 0
M  V30 6681 H 618.847 1.30077 -6.38689 0
M  V30 6682 N 622.28 1.30327 -0.886154 0
M  V30 6683 C 623.508 2.00254 -0.520176 0
M  V30 6684 C 623.923 1.66419 0.891637 0
M  V30 6685 O 623.28 0.901951 1.58654 0
M  V30 6686 C 623.331 3.54916 -0.686775 0
M  V30 6687 O 623.052 3.87547 -2.04301 0
M  V30 6688 C 624.553 4.42115 -0.323945 0
M  V30 6689 H 621.773 0.640204 -0.200947 0
M  V30 6690 H 624.317 1.66183 -1.19178 0
M  V30 6691 H 622.472 3.8735 -0.0625273 0
M  V30 6692 H 622.886 4.82247 -2.06249 0
M  V30 6693 H 624.36 5.49808 -0.491407 0
M  V30 6694 H 624.837 4.32953 0.73811 0
M  V30 6695 H 625.443 4.15129 -0.924565 0
M  V30 6696 N 623.758 0.647228 1.43697 0
M  V30 6697 C 624.705 -0.0480092 2.3075 0
M  V30 6698 C 625.675 -0.820705 1.44408 0
M  V30 6699 O 626.86 -0.798515 1.73287 0
M  V30 6700 C 624 -1.01259 3.2991 0
M  V30 6701 C 623.113 -0.236629 4.31351 0
M  V30 6702 C 622.248 -1.19447 5.17596 0
M  V30 6703 C 621.287 -0.408595 6.10735 0
M  V30 6704 N 620.424 -1.31772 6.89623 0
M  V30 6705 H 625.264 0.700238 2.89656 0
M  V30 6706 H 622.801 0.357082 1.427 0
M  V30 6707 H 624.759 -1.58538 3.85903 0
M  V30 6708 H 623.389 -1.72778 2.72667 0
M  V30 6709 H 622.441 0.452353 3.77701 0
M  V30 6710 H 623.753 0.374731 4.9739 0
M  V30 6711 H 622.907 -1.83809 5.78186 0
M  V30 6712 H 621.646 -1.83975 4.51669 0
M  V30 6713 H 620.651 0.24841 5.49239 0
M  V30 6714 H 621.876 0.232188 6.78703 0
M  V30 6715 H 619.822 -1.94991 6.2635 0
M  V30 6716 H 619.739 -0.760779 7.52162 0
M  V30 6717 H 621.007 -1.94967 7.54724 0
M  V30 6718 N 625.236 -1.5273 0.388769 0
M  V30 6719 C 626.146 -2.30165 -0.453993 0
M  V30 6720 C 627.162 -1.37058 -1.07197 0
M  V30 6721 O 628.338 -1.70127 -1.0779 0
M  V30 6722 C 625.403 -3.09303 -1.56628 0
M  V30 6723 C 624.464 -4.18117 -0.973467 0
M  V30 6724 C 623.697 -4.93472 -2.03275 0
M  V30 6725 O 623.92 -4.68913 -3.24772 0
M  V30 6726 O 622.854 -5.78833 -1.65034 0
M  V30 6727 H 626.68 -3.03185 0.176816 0
M  V30 6728 H 624.265 -1.4862 0.152501 0
M  V30 6729 H 626.147 -3.58648 -2.21246 0
M  V30 6730 H 624.822 -2.39098 -2.18206 0
M  V30 6731 H 623.729 -3.7297 -0.290556 0
M  V30 6732 H 625.062 -4.90556 -0.401908 0
M  V30 6733 N 626.714 -0.118576 -1.57153 0
M  V30 6734 C 627.991 0.583062 -1.86708 0
M  V30 6735 C 628.371 1.84841 -1.01967 0
M  V30 6736 O 627.719 2.28288 -0.0984673 0
M  V30 6737 C 627.929 0.875912 -3.3783 0
M  V30 6738 C 629.277 1.22916 -4.0642 0
M  V30 6739 O 630.301 0.966188 -3.42846 0
M  V30 6740 O 629.16 1.72269 -5.18638 0
M  V30 6741 H 626.254 0.294185 -0.772906 0
M  V30 6742 H 628.8 -0.153048 -1.69008 0
M  V30 6743 H 627.572 -0.0207776 -3.91294 0
M  V30 6744 H 627.195 1.66719 -3.60958 0
M  V30 6745 N 628.193 1.56834 0.155195 0
M  V30 6746 C 629.14 1.97646 1.19184 0
M  V30 6747 C 630.11 0.842788 1.4313 0
M  V30 6748 O 631.295 1.1042 1.55602 0
M  V30 6749 C 628.435 2.35527 2.52232 0
M  V30 6750 C 627.548 3.62147 2.35529 0
M  V30 6751 C 626.683 3.89167 3.61555 0
M  V30 6752 C 625.722 5.09084 3.39853 0
M  V30 6753 N 624.859 5.32156 4.5799 0
M  V30 6754 H 629.699 2.8601 0.836802 0
M  V30 6755 H 627.236 1.41507 0.401758 0
M  V30 6756 H 629.194 2.55516 3.29799 0
M  V30 6757 H 627.824 1.50253 2.85699 0
M  V30 6758 H 626.876 3.4998 1.49057 0
M  V30 6759 H 628.188 4.49871 2.15448 0
M  V30 6760 H 627.342 4.09611 4.47553 0
M  V30 6761 H 626.081 2.9985 3.84632 0
M  V30 6762 H 625.086 4.88522 2.52243 0
M  V30 6763 H 626.311 5.99947 3.18183 0
M  V30 6764 H 624.257 4.45791 4.81255 0
M  V30 6765 H 624.174 6.14133 4.40882 0
M  V30 6766 H 625.442 5.57091 5.45225 0
M  V30 6767 N 629.671 -0.424282 1.51781 0
M  V30 6768 C 630.581 -1.54087 1.76902 0
M  V30 6769 C 631.597 -1.61249 0.653826 0
M  V30 6770 O 632.773 -1.78247 0.937552 0
M  V30 6771 C 629.838 -2.8996 1.90063 0
M  V30 6772 C 628.899 -2.92809 3.13945 0
M  V30 6773 C 628.132 -4.22201 3.26469 0
M  V30 6774 O 628.355 -5.15286 2.44616 0
M  V30 6775 O 627.289 -4.31599 4.1953 0
M  V30 6776 H 631.115 -1.358 2.71647 0
M  V30 6777 H 628.7 -0.608618 1.36441 0
M  V30 6778 H 630.582 -3.70575 2.0063 0
M  V30 6779 H 629.257 -3.08347 0.985067 0
M  V30 6780 H 628.164 -2.11102 3.08847 0
M  V30 6781 H 629.497 -2.79369 4.05233 0
M  V30 6782 N 631.149 -1.42148 -0.680565 0
M  V30 6783 C 632.112 -1.4488 -1.77602 0
M  V30 6784 C 633.112 -0.337209 -1.57224 0
M  V30 6785 O 634.302 -0.597778 -1.63622 0
M  V30 6786 C 631.434 -1.27483 -3.16166 0
M  V30 6787 H 632.627 -2.42412 -1.76568 0
M  V30 6788 H 630.18 -1.28511 -0.889645 0
M  V30 6789 H 630.915 -0.30851 -3.22829 0
M  V30 6790 H 630.7 -2.08037 -3.3236 0
M  V30 6791 H 632.19 -1.32265 -3.96101 0
M  V30 6792 N 632.627 0.916307 -1.28225 0
M  V30 6793 C 633.874 1.66518 -1.1523 0
M  V30 6794 C 634.202 1.92178 0.299632 0
M  V30 6795 O 633.457 1.51842 1.2346 0
M  V30 6796 C 633.756 3.03125 -1.8934 0
M  V30 6797 C 633.422 2.97135 -3.39148 0
M  V30 6798 C 632.084 2.95208 -3.80007 0
M  V30 6799 C 634.436 2.87574 -4.34685 0
M  V30 6800 C 631.764 2.81518 -5.14747 0
M  V30 6801 C 634.116 2.75424 -5.69495 0
M  V30 6802 C 632.78 2.71854 -6.09632 0
M  V30 6803 H 632.05 0.609334 -0.421655 0
M  V30 6804 H 634.697 1.06776 -1.58969 0
M  V30 6805 H 633.002 3.66639 -1.38143 0
M  V30 6806 H 634.699 3.59968 -1.76704 0
M  V30 6807 H 631.289 2.99428 -3.06661 0
M  V30 6808 H 635.473 2.88152 -4.04082 0
M  V30 6809 H 630.729 2.77148 -5.44976 0
M  V30 6810 H 634.903 2.66993 -6.43185 0
M  V30 6811 H 632.53 2.61003 -7.1399 0
M  V30 6812 N 634.105 1.10431 1.1244 0
M  V30 6813 C 635.068 0.756542 2.16354 0
M  V30 6814 C 636.068 -0.21899 1.59302 0
M  V30 6815 O 637.258 0.00415969 1.742 0
M  V30 6816 C 634.39 0.120612 3.40687 0
M  V30 6817 H 635.583 1.67696 2.48632 0
M  V30 6818 H 633.136 0.904832 1.27446 0
M  V30 6819 H 633.871 -0.810536 3.14008 0
M  V30 6820 H 633.656 0.822693 3.83372 0
M  V30 6821 H 635.146 -0.106945 4.17463 0
M  V30 6822 N 635.583 -1.29855 0.893053 0
M  V30 6823 C 636.832 -1.95104 0.511597 0
M  V30 6824 C 637.145 -1.71226 -0.945567 0
M  V30 6825 O 638.351 -2.30525 -1.43424 0
M  V30 6826 C 636.807 -3.49374 0.864034 0
M  V30 6827 C 636.415 -3.82061 2.33952 0
M  V30 6828 C 638.159 -4.20894 0.552167 0
M  V30 6829 C 636.066 -5.29546 2.63316 0
M  V30 6830 H 634.996 -0.73029 0.187597 0
M  V30 6831 H 637.647 -1.47682 1.08914 0
M  V30 6832 H 636.029 -3.95413 0.215493 0
M  V30 6833 H 637.203 -3.46904 3.03305 0
M  V30 6834 H 635.518 -3.23665 2.61973 0
M  V30 6835 H 638.115 -5.29435 0.748489 0
M  V30 6836 H 638.458 -4.13178 -0.508924 0
M  V30 6837 H 638.991 -3.80564 1.15825 0
M  V30 6838 H 635.73 -5.4232 3.68197 0
M  V30 6839 H 635.25 -5.65974 1.9858 0
M  V30 6840 H 636.929 -5.97068 2.49236 0
M  V30 6841 N 637.061 -0.65484 -1.43351 0
M  V30 6842 C 638.307 -0.169142 -2.02093 0
M  V30 6843 C 638.64 1.21431 -1.51553 0
M  V30 6844 O 637.915 1.81105 -0.709317 0
M  V30 6845 C 638.198 -0.181775 -3.59641 0
M  V30 6846 C 638.051 -1.59926 -4.20409 0
M  V30 6847 C 639.37 0.480945 -4.37464 0
M  V30 6848 H 636.489 -0.0629371 -0.734308 0
M  V30 6849 H 639.131 -0.835833 -1.70628 0
M  V30 6850 H 637.281 0.385918 -3.86578 0
M  V30 6851 H 638.953 -2.21766 -4.04497 0
M  V30 6852 H 637.196 -2.14605 -3.76998 0
M  V30 6853 H 637.867 -1.55994 -5.295 0
M  V30 6854 H 640.343 -0.00208273 -4.161 0
M  V30 6855 H 639.219 0.441384 -5.47122 0
M  V30 6856 H 639.48 1.55533 -4.13838 0
M  V30 6857 N 638.539 1.52521 -0.396863 0
M  V30 6858 C 639.764 2.06571 0.185258 0
M  V30 6859 C 640.189 1.26605 1.39115 0
M  V30 6860 O 639.547 0.293055 1.78916 0
M  V30 6861 C 639.595 3.5674 0.526189 0
M  V30 6862 O 638.699 3.7929 1.61903 0
M  V30 6863 H 638.04 0.663712 0.0195474 0
M  V30 6864 H 640.57 1.966 -0.566519 0
M  V30 6865 H 640.58 4.00311 0.788338 0
M  V30 6866 H 639.255 4.14379 -0.355397 0
M  V30 6867 H 637.832 3.47605 1.35 0
M  V30 6868 N 640.017 0.126909 1.57088 0
M  V30 6869 C 641.263 -0.529952 1.95753 0
M  V30 6870 C 641.596 -1.65823 1.01077 0
M  V30 6871 O 640.871 -1.94437 0.0494162 0
M  V30 6872 C 641.154 -1.05517 3.44294 0
M  V30 6873 C 641.007 0.0702253 4.49745 0
M  V30 6874 C 642.326 -1.9435 3.94862 0
M  V30 6875 H 639.445 -0.191168 0.711775 0
M  V30 6876 H 642.087 0.204071 1.88901 0
M  V30 6877 H 640.237 -1.68069 3.50264 0
M  V30 6878 H 641.909 0.705834 4.55868 0
M  V30 6879 H 640.152 0.732259 4.27575 0
M  V30 6880 H 640.823 -0.338642 5.5096 0
M  V30 6881 H 643.299 -1.41658 3.91244 0
M  V30 6882 H 642.175 -2.28015 4.993 0
M  V30 6883 H 642.436 -2.87299 3.36024 0
M  V30 6884 N 641.495 -1.56914 -0.146875 0
M  V30 6885 C 642.906 -1.72799 -0.706928 0
M  V30 6886 C 643.257 -0.741329 -1.81656 0
M  V30 6887 O 642.382 0.0920162 -2.16204 0
M  V30 6888 C 642.977 -3.13317 -1.28911 0
M  V30 6889 C 641.536 -3.30803 -1.79573 0
M  V30 6890 C 640.683 -2.68725 -0.684252 0
M  V30 6891 H 643.634 -1.58504 0.0787931 0
M  V30 6892 H 643.655 -3.13323 -2.15891 0
M  V30 6893 H 643.167 -3.85104 -0.481284 0
M  V30 6894 H 641.268 -2.64012 -2.62923 0
M  V30 6895 H 641.381 -4.38754 -1.92436 0
M  V30 6896 H 639.745 -2.29196 -1.11091 0
M  V30 6897 H 640.528 -3.43117 0.112134 0
M  V30 6898 N 642.974 0.416227 -1.52004 0
M  V30 6899 C 643.904 1.51365 -1.77795 0
M  V30 6900 C 644.885 1.58059 -0.628601 0
M  V30 6901 O 646.07 1.73447 -0.873478 0
M  V30 6902 C 643.2 2.89256 -1.92219 0
M  V30 6903 C 642.154 2.97415 -3.0778 0
M  V30 6904 C 641.48 4.37492 -3.07417 0
M  V30 6905 C 642.78 2.69551 -4.47369 0
M  V30 6906 H 644.474 1.30033 -2.69688 0
M  V30 6907 H 642.02 0.624112 -1.29772 0
M  V30 6908 H 643.973 3.66008 -2.08845 0
M  V30 6909 H 642.697 3.11866 -0.969917 0
M  V30 6910 H 641.356 2.23107 -2.90893 0
M  V30 6911 H 641.004 4.571 -2.09925 0
M  V30 6912 H 640.704 4.43877 -3.85029 0
M  V30 6913 H 642.228 5.16188 -3.26162 0
M  V30 6914 H 643.642 3.36028 -4.64497 0
M  V30 6915 H 642.039 2.87321 -5.26846 0
M  V30 6916 H 643.109 1.65029 -4.55953 0
M  V30 6917 N 644.452 1.42507 0.673017 0
M  V30 6918 C 645.677 1.4668 1.46627 0
M  V30 6919 C 646.102 0.080066 1.8793 0
M  V30 6920 O 645.46 -0.921879 1.56112 0
M  V30 6921 C 645.508 2.40091 2.69051 0
M  V30 6922 O 644.612 1.8735 3.67387 0
M  V30 6923 H 643.953 0.496908 0.44043 0
M  V30 6924 H 646.483 1.87215 0.825334 0
M  V30 6925 H 646.493 2.56731 3.17101 0
M  V30 6926 H 645.168 3.4084 2.3833 0
M  V30 6927 H 643.745 1.80274 3.26429 0
M  V30 6928 N 645.93 -0.909495 1.28709 0
M  V30 6929 C 646.84 -2.04558 1.14861 0
M  V30 6930 C 647.856 -1.73842 0.0741621 0
M  V30 6931 O 649.032 -1.99383 0.2843 0
M  V30 6932 C 646.097 -3.36957 0.816148 0
M  V30 6933 C 645.158 -3.81255 1.97341 0
M  V30 6934 C 644.391 -5.07335 1.65671 0
M  V30 6935 O 644.614 -5.67514 0.573053 0
M  V30 6936 O 643.548 -5.47449 2.50167 0
M  V30 6937 H 647.374 -2.19161 2.10243 0
M  V30 6938 H 644.959 -1.03159 1.08068 0
M  V30 6939 H 646.841 -4.16436 0.644873 0
M  V30 6940 H 645.516 -3.2352 -0.107983 0
M  V30 6941 H 644.423 -3.02584 2.19986 0
M  V30 6942 H 645.756 -3.99261 2.87839 0
M  V30 6943 N 647.408 -1.11026 -1.11852 0
M  V30 6944 C 648.654 -0.857729 -1.83768 0
M  V30 6945 C 648.987 0.615143 -1.842 0
M  V30 6946 O 648.262 1.45391 -1.29196 0
M  V30 6947 C 648.545 -1.41453 -3.31154 0
M  V30 6948 C 648.398 -2.95471 -3.39142 0
M  V30 6949 C 649.717 -1.0619 -4.27097 0
M  V30 6950 H 646.836 -0.313044 -0.667212 0
M  V30 6951 H 649.478 -1.37443 -1.31185 0
M  V30 6952 H 647.628 -0.975052 -3.76065 0
M  V30 6953 H 649.3 -3.4799 -3.02821 0
M  V30 6954 H 647.543 -3.31759 -2.79497 0
M  V30 6955 H 648.214 -3.29515 -4.42859 0
M  V30 6956 H 650.69 -1.44122 -3.90344 0
M  V30 6957 H 649.566 -1.47832 -5.28618 0
M  V30 6958 H 649.827 0.0278912 -4.42091 0
M  V30 6959 N 648.886 1.2938 -0.899927 0
M  V30 6960 C 650.302 1.48052 -0.596059 0
M  V30 6961 C 650.502 1.82114 0.862372 0
M  V30 6962 O 649.558 1.91774 1.64253 0
M  V30 6963 C 650.871 2.59332 -1.52208 0
M  V30 6964 C 652.419 2.73208 -1.5273 0
M  V30 6965 C 652.894 3.87617 -2.43961 0
M  V30 6966 N 654.385 3.9495 -2.42009 0
M  V30 6967 C 655.12 4.82824 -3.09303 0
M  V30 6968 N 654.616 5.75387 -3.85877 0
M  V30 6969 N 656.409 4.76317 -2.98459 0
M  V30 6970 H 648.56 1.05546 -1.8432 0
M  V30 6971 H 650.823 0.524314 -0.78981 0
M  V30 6972 H 650.529 2.41029 -2.56121 0
M  V30 6973 H 650.403 3.56139 -1.24278 0
M  V30 6974 H 652.79 2.90908 -0.495614 0
M  V30 6975 H 652.871 1.76975 -1.84698 0
M  V30 6976 H 652.515 3.70672 -3.47224 0
M  V30 6977 H 652.445 4.83218 -2.09303 0
M  V30 6978 H 654.936 3.28744 -1.86375 0
M  V30 6979 H 655.249 6.39235 -4.34279 0
M  V30 6980 H 653.594 5.75272 -3.89984 0
M  V30 6981 H 656.785 4.0299 -2.38152 0
M  V30 6982 H 656.958 5.44589 -3.51179 0
M  V30 6983 N 650.364 0.662433 1.43002 0
M  V30 6984 C 651.641 0.109096 1.95296 0
M  V30 6985 C 652.021 -1.37313 1.60338 0
M  V30 6986 O 651.369 -2.1032 0.893187 0
M  V30 6987 C 651.579 0.365096 3.47085 0
M  V30 6988 C 652.927 0.274964 4.23709 0
M  V30 6989 O 653.951 0.29816 3.5495 0
M  V30 6990 O 652.81 0.206549 5.4611 0
M  V30 6991 H 649.904 -0.00429724 0.826989 0
M  V30 6992 H 652.45 0.736308 1.52894 0
M  V30 6993 H 651.222 1.39237 3.65689 0
M  V30 6994 H 650.845 -0.294733 3.96506 0
M  V30 6995 N 651.842 -1.52309 0.404946 0
M  V30 6996 C 652.772 -2.29805 -0.41376 0
M  V30 6997 C 653.753 -1.3384 -1.0498 0
M  V30 6998 O 654.938 -1.62745 -1.05961 0
M  V30 6999 C 652.068 -3.11639 -1.53292 0
M  V30 7000 C 651.022 -4.15616 -1.02211 0
M  V30 7001 C 650.348 -4.8577 -2.23455 0
M  V30 7002 C 651.648 -5.2224 -0.0790725 0
M  V30 7003 H 653.342 -2.98493 0.232878 0
M  V30 7004 H 650.888 -1.43552 0.113441 0
M  V30 7005 H 652.841 -3.64618 -2.11262 0
M  V30 7006 H 651.565 -2.40712 -2.20738 0
M  V30 7007 H 650.224 -3.63641 -0.46484 0
M  V30 7008 H 649.872 -4.11376 -2.89445 0
M  V30 7009 H 649.572 -5.56058 -1.89929 0
M  V30 7010 H 651.096 -5.4156 -2.82038 0
M  V30 7011 H 652.51 -5.70485 -0.567438 0
M  V30 7012 H 650.907 -5.99867 0.167167 0
M  V30 7013 H 651.977 -4.77078 0.867447 0
M  V30 7014 N 653.32 -0.135238 -1.57019 0
M  V30 7015 C 654.597 0.563227 -1.87316 0
M  V30 7016 C 654.977 1.83749 -1.03921 0
M  V30 7017 O 654.325 2.2817 -0.122675 0
M  V30 7018 C 654.535 0.840031 -3.3874 0
M  V30 7019 C 655.883 1.18598 -4.077 0
M  V30 7020 O 656.907 0.92977 -3.43851 0
M  V30 7021 O 655.766 1.66758 -5.20436 0
M  V30 7022 H 652.86 0.285971 -0.775983 0
M  V30 7023 H 655.406 -0.170965 -1.68837 0
M  V30 7024 H 654.178 -0.0622785 -3.9125 0
M  V30 7025 H 653.801 1.62882 -3.62706 0
M  V30 7026 N 654.798 1.5699 0.138552 0
M  V30 7027 C 656.045 1.83809 0.849732 0
M  V30 7028 C 656.373 0.717409 1.80786 0
M  V30 7029 O 655.628 -0.292897 1.93496 0
M  V30 7030 C 655.927 3.17007 1.65049 0
M  V30 7031 C 655.593 4.43037 0.838398 0
M  V30 7032 C 654.255 4.77262 0.614385 0
M  V30 7033 C 656.607 5.20495 0.271044 0
M  V30 7034 C 653.935 5.864 -0.187552 0
M  V30 7035 C 656.287 6.30476 -0.517979 0
M  V30 7036 C 654.951 6.63245 -0.75249 0
M  V30 7037 H 654.221 0.672605 0.310939 0
M  V30 7038 H 656.868 1.91166 0.112971 0
M  V30 7039 H 655.173 3.05138 2.4576 0
M  V30 7040 H 656.87 3.34975 2.20437 0
M  V30 7041 H 653.46 4.16211 1.02307 0
M  V30 7042 H 657.644 4.94422 0.431371 0
M  V30 7043 H 652.9 6.10226 -0.378659 0
M  V30 7044 H 657.074 6.89686 -0.964694 0
M  V30 7045 H 654.701 7.47648 -1.37573 0
M  V30 7046 N 656.276 -0.40816 1.52223 0
M  V30 7047 C 657.239 -1.48 1.7501 0
M  V30 7048 C 658.239 -1.48367 0.619996 0
M  V30 7049 O 659.429 -1.49874 0.887881 0
M  V30 7050 C 656.561 -2.87403 1.83336 0
M  V30 7051 H 657.754 -1.29086 2.70697 0
M  V30 7052 H 655.307 -0.638715 1.42654 0
M  V30 7053 H 656.042 -3.11686 0.895677 0
M  V30 7054 H 655.827 -2.8854 2.65494 0
M  V30 7055 H 657.317 -3.65103 2.02705 0
M  V30 7056 N 657.755 -1.42862 -0.66545 0
M  V30 7057 C 658.703 -1.47319 -1.8 0
M  V30 7058 C 659.697 -0.347963 -1.65788 0
M  V30 7059 O 660.903 -0.521406 -1.72283 0
M  V30 7060 H 657.278 -0.461588 -0.593667 0
M  V30 7061 H 659.249 -2.42876 -1.7336 0
M  V30 7062 C 657.998 -1.40152 -3.18203 0
M  V30 7063 H 657.321 -2.26035 -3.2977 0
M  V30 7064 H 658.761 -1.47331 -3.9758 0
M  V30 7065 C 657.22 -0.117493 -3.36695 0
M  V30 7066 O 657.75 0.826058 -3.93115 0
M  V30 7067 N 655.956 -0.0316218 -2.90583 0
M  V30 7068 H 655.503 -0.800247 -2.44855 0
M  V30 7069 H 655.461 0.826835 -3.03333 0
M  V30 7070 N 659.233 0.902656 -1.29189 0
M  V30 7071 C 660.51 1.63296 -1.07674 0
M  V30 7072 C 660.89 2.07649 0.380137 0
M  V30 7073 O 660.238 1.82997 1.36837 0
M  V30 7074 C 660.448 2.81603 -2.06158 0
M  V30 7075 C 661.796 3.52359 -2.36914 0
M  V30 7076 O 662.82 2.91767 -2.04329 0
M  V30 7077 O 661.679 4.61586 -2.92576 0
M  V30 7078 H 658.773 0.716889 -0.41231 0
M  V30 7079 H 661.319 0.950984 -1.4055 0
M  V30 7080 H 660.091 2.46004 -3.04299 0
M  V30 7081 H 659.714 3.57508 -1.73993 0
M  V30 7082 N 660.711 1.11618 1.11262 0
M  V30 7083 C 661.674 0.779447 2.15539 0
M  V30 7084 C 662.674 -0.202081 1.59525 0
M  V30 7085 O 663.864 0.0226356 1.74185 0
M  V30 7086 C 660.996 0.15674 3.40539 0
M  V30 7087 H 662.189 1.70324 2.4684 0
M  V30 7088 H 659.742 0.918298 1.26479 0
M  V30 7089 H 660.477 -0.777186 3.1485 0
M  V30 7090 H 660.262 0.863308 3.82478 0
M  V30 7091 H 661.752 -0.062661 4.17553 0
M  V30 7092 N 662.189 -1.289 0.906776 0
M  V30 7093 C 663.137 -2.29477 0.379873 0
M  V30 7094 C 664.131 -1.61068 -0.524747 0
M  V30 7095 O 665.337 -1.75344 -0.406765 0
M  V30 7096 H 661.712 -0.744742 0.10423 0
M  V30 7097 H 663.683 -2.71353 1.24137 0
M  V30 7098 C 662.432 -3.45713 -0.371154 0
M  V30 7099 H 661.755 -3.98551 0.315716 0
M  V30 7100 H 663.195 -4.18105 -0.704581 0
M  V30 7101 C 661.654 -2.9774 -1.57646 0
M  V30 7102 O 662.184 -2.99618 -2.67567 0
M  V30 7103 N 660.39 -2.53485 -1.42105 0
M  V30 7104 H 659.937 -2.52156 -0.526783 0
M  V30 7105 H 659.895 -2.21747 -2.22881 0
M  V30 7106 N 663.667 -0.670007 -1.42649 0
M  V30 7107 C 664.614 0.0112928 -2.30797 0
M  V30 7108 C 665.584 0.797627 -1.45695 0
M  V30 7109 O 666.769 0.770845 -1.74535 0
M  V30 7110 C 663.909 0.95998 -3.31479 0
M  V30 7111 C 663.022 0.167975 -4.31673 0
M  V30 7112 C 662.157 1.11198 -5.19431 0
M  V30 7113 C 661.196 0.311381 -6.11307 0
M  V30 7114 N 660.333 1.20784 -6.91633 0
M  V30 7115 H 665.173 -0.746231 -2.88505 0
M  V30 7116 H 662.71 -0.379739 -1.42114 0
M  V30 7117 H 664.668 1.52379 -3.88377 0
M  V30 7118 H 663.298 1.68419 -2.75382 0
M  V30 7119 H 662.35 -0.512385 -3.76933 0
M  V30 7120 H 663.662 -0.453814 -4.96731 0
M  V30 7121 H 662.816 1.74587 -5.81037 0
M  V30 7122 H 661.555 1.76766 -4.54538 0
M  V30 7123 H 660.56 -0.335758 -5.48774 0
M  V30 7124 H 661.785 -0.340135 -6.78248 0
M  V30 7125 H 659.731 1.85001 -6.29373 0
M  V30 7126 H 659.648 0.64102 -7.53277 0
M  V30 7127 H 660.916 1.82936 -7.5773 0
M  V30 7128 N 665.145 1.52092 -0.413018 0
M  V30 7129 C 666.391 2.02154 0.161737 0
M  V30 7130 C 666.724 1.29789 1.44459 0
M  V30 7131 O 665.999 0.405378 1.90229 0
M  V30 7132 C 666.282 3.5781 0.405463 0
M  V30 7133 C 666.135 4.40819 -0.894335 0
M  V30 7134 C 667.454 4.23821 1.18591 0
M  V30 7135 H 664.573 0.734769 0.0573077 0
M  V30 7136 H 667.215 1.81948 -0.547247 0
M  V30 7137 H 665.365 3.75158 1.0094 0
M  V30 7138 H 667.037 4.35175 -1.53039 0
M  V30 7139 H 665.28 4.06877 -1.50444 0
M  V30 7140 H 665.951 5.47819 -0.678144 0
M  V30 7141 H 668.427 4.10596 0.674573 0
M  V30 7142 H 667.303 5.32663 1.3252 0
M  V30 7143 H 667.564 3.83038 2.20758 0
M  V30 7144 N 666.623 0.143563 1.56945 0
M  V30 7145 C 667.553 -0.7936 2.196 0
M  V30 7146 C 668.534 -1.25955 1.14321 0
M  V30 7147 O 669.719 -1.31773 1.42651 0
M  V30 7148 C 666.849 -2.03424 2.81489 0
M  V30 7149 C 665.803 -1.70519 3.92565 0
M  V30 7150 C 665.129 -3.01817 4.41373 0
M  V30 7151 C 666.429 -0.95449 5.13504 0
M  V30 7152 H 668.123 -0.271423 2.98167 0
M  V30 7153 H 665.669 -0.12911 1.4342 0
M  V30 7154 H 667.622 -2.69463 3.23987 0
M  V30 7155 H 666.346 -2.58008 2.00248 0
M  V30 7156 H 665.005 -1.06859 3.5068 0
M  V30 7157 H 664.653 -3.54386 3.56959 0
M  V30 7158 H 664.353 -2.80565 5.16292 0
M  V30 7159 H 665.877 -3.68934 4.86539 0
M  V30 7160 H 667.291 -1.5169 5.52868 0
M  V30 7161 H 665.688 -0.842035 5.94163 0
M  V30 7162 H 666.758 0.0544033 4.84869 0
M  V30 7163 N 668.101 -1.57061 -0.130224 0
M  V30 7164 C 669.064 -1.98593 -1.14426 0
M  V30 7165 C 670.064 -0.874584 -1.34936 0
M  V30 7166 O 671.254 -1.14086 -1.31643 0
M  V30 7167 C 668.386 -2.31639 -2.50112 0
M  V30 7168 H 669.579 -2.89374 -0.787561 0
M  V30 7169 H 667.132 -1.51756 -0.374146 0
M  V30 7170 H 667.867 -1.43703 -2.90723 0
M  V30 7171 H 667.652 -3.12684 -2.36583 0
M  V30 7172 H 669.142 -2.64551 -3.23114 0
M  V30 7173 N 669.579 0.400081 -1.52437 0
M  V30 7174 C 670.807 1.16768 -1.70801 0
M  V30 7175 C 671.222 1.84036 -0.421462 0
M  V30 7176 O 670.579 1.72242 0.603228 0
M  V30 7177 C 670.63 2.22403 -2.8499 0
M  V30 7178 O 670.351 1.57879 -4.08663 0
M  V30 7179 C 671.852 3.11974 -3.1494 0
M  V30 7180 H 669.072 0.350533 -0.57216 0
M  V30 7181 H 671.616 0.469534 -1.99037 0
M  V30 7182 H 669.771 2.87871 -2.59247 0
M  V30 7183 H 670.185 2.27982 -4.7236 0
M  V30 7184 H 671.659 3.82148 -3.9833 0
M  V30 7185 H 672.136 3.74858 -2.28863 0
M  V30 7186 H 672.742 2.52165 -3.42481 0
M  V30 7187 N 671.057 1.43213 0.657864 0
M  V30 7188 C 672.285 1.48015 1.44566 0
M  V30 7189 C 672.7 0.0965951 1.88553 0
M  V30 7190 O 672.057 -0.892221 1.59203 0
M  V30 7191 C 672.108 2.42199 2.68369 0
M  V30 7192 O 671.829 3.75173 2.26223 0
M  V30 7193 C 673.33 2.56195 3.61772 0
M  V30 7194 H 670.55 0.502861 0.444266 0
M  V30 7195 H 673.094 1.87907 0.806917 0
M  V30 7196 H 671.249 2.05514 3.28394 0
M  V30 7197 H 671.663 4.25776 3.06293 0
M  V30 7198 H 673.137 3.26182 4.4532 0
M  V30 7199 H 673.614 1.60534 4.0881 0
M  V30 7200 H 674.22 2.93671 3.07632 0
M  V30 7201 N 672.536 -0.895792 1.29666 0
M  V30 7202 C 673.782 -1.64908 1.18039 0
M  V30 7203 C 674.115 -1.9236 -0.266682 0
M  V30 7204 O 673.39 -1.53682 -1.19214 0
M  V30 7205 C 673.673 -2.99574 1.99819 0
M  V30 7206 C 673.526 -2.79163 3.52687 0
M  V30 7207 C 674.845 -4.00358 1.82761 0
M  V30 7208 H 671.964 -0.598437 0.430165 0
M  V30 7209 H 674.606 -1.03736 1.59182 0
M  V30 7210 H 672.756 -3.51786 1.64859 0
M  V30 7211 H 674.428 -2.33821 3.9765 0
M  V30 7212 H 672.671 -2.13871 3.77414 0
M  V30 7213 H 673.342 -3.74871 4.05186 0
M  V30 7214 H 675.818 -3.57268 2.13304 0
M  V30 7215 H 674.694 -4.92514 2.42325 0
M  V30 7216 H 674.955 -4.35096 0.783839 0
M  V30 7217 N 674.014 -1.12206 -1.10668 0
M  V30 7218 C 674.961 -0.787716 -2.16942 0
M  V30 7219 C 675.931 0.244442 -1.64291 0
M  V30 7220 O 677.116 0.119558 -1.90425 0
M  V30 7221 C 674.256 -0.24584 -3.44223 0
M  V30 7222 C 673.369 -1.33552 -4.10838 0
M  V30 7223 C 672.504 -0.753337 -5.25831 0
M  V30 7224 C 671.543 -1.82231 -5.84344 0
M  V30 7225 N 670.68 -1.25902 -6.90719 0
M  V30 7226 H 675.52 -1.69809 -2.44885 0
M  V30 7227 H 673.057 -0.847862 -1.20207 0
M  V30 7228 H 675.015 0.0863639 -4.17111 0
M  V30 7229 H 673.645 0.627702 -3.16638 0
M  V30 7230 H 672.697 -1.78454 -3.35944 0
M  V30 7231 H 674.009 -2.14396 -4.50373 0
M  V30 7232 H 673.163 -0.37166 -6.05561 0
M  V30 7233 H 671.902 0.0863297 -4.87624 0
M  V30 7234 H 670.907 -2.2132 -5.03287 0
M  V30 7235 H 672.132 -2.66515 -6.24617 0
M  V30 7236 H 670.078 -0.44114 -6.54515 0
M  V30 7237 H 669.995 -2.00408 -7.28953 0
M  V30 7238 H 671.263 -0.904498 -7.74235 0
M  V30 7239 N 675.492 1.28418 -0.913599 0
M  V30 7240 C 676.439 2.27301 -0.400373 0
M  V30 7241 C 677.409 1.57582 0.52509 0
M  V30 7242 O 678.594 1.85482 0.447318 0
M  V30 7243 C 675.734 3.43284 0.35361 0
M  V30 7244 C 674.847 4.27752 -0.604341 0
M  V30 7245 C 673.982 5.30934 0.168075 0
M  V30 7246 C 673.021 6.07065 -0.783499 0
M  V30 7247 N 672.158 7.02086 -0.0446112 0
M  V30 7248 H 676.998 2.70579 -1.24865 0
M  V30 7249 H 674.535 1.33067 -0.627028 0
M  V30 7250 H 676.493 4.09322 0.806945 0
M  V30 7251 H 675.123 3.00997 1.16623 0
M  V30 7252 H 674.175 3.61759 -1.17621 0
M  V30 7253 H 675.487 4.80682 -1.33216 0
M  V30 7254 H 674.641 6.02855 0.681979 0
M  V30 7255 H 673.38 4.78771 0.928947 0
M  V30 7256 H 672.385 5.33995 -1.30878 0
M  V30 7257 H 673.61 6.61317 -1.54392 0
M  V30 7258 H 671.556 6.52273 0.698272 0
M  V30 7259 H 671.473 7.52637 -0.712258 0
M  V30 7260 H 672.741 7.78205 0.449102 0
M  V30 7261 N 676.97 0.677563 1.42291 0
M  V30 7262 C 677.9 0.014968 2.33495 0
M  V30 7263 C 678.881 -0.786376 1.50831 0
M  V30 7264 O 680.066 -0.742975 1.79426 0
M  V30 7265 C 677.196 -0.935023 3.34477 0
M  V30 7266 C 676.15 -0.242074 4.27315 0
M  V30 7267 C 675.476 -1.30519 5.18526 0
M  V30 7268 C 676.776 0.880604 5.14823 0
M  V30 7269 H 678.47 0.776671 2.89151 0
M  V30 7270 H 676.016 0.37494 1.39033 0
M  V30 7271 H 677.969 -1.40766 3.97194 0
M  V30 7272 H 676.693 -1.72818 2.77131 0
M  V30 7273 H 675.352 0.210351 3.65996 0
M  V30 7274 H 675 -2.09041 4.57505 0
M  V30 7275 H 674.7 -0.846652 5.81468 0
M  V30 7276 H 676.224 -1.7787 5.84119 0
M  V30 7277 H 677.638 0.489062 5.7121 0
M  V30 7278 H 676.035 1.26511 5.86613 0
M  V30 7279 H 677.105 1.72818 4.53059 0
M  V30 7280 N 678.448 -1.51871 0.421078 0
M  V30 7281 C 679.358 -2.31077 -0.405069 0
M  V30 7282 C 680.374 -1.39301 -1.04265 0
M  V30 7283 O 681.55 -1.72376 -1.04157 0
M  V30 7284 C 678.615 -3.12556 -1.50032 0
M  V30 7285 C 677.676 -4.20088 -0.884559 0
M  V30 7286 C 676.909 -4.97673 -1.92762 0
M  V30 7287 O 677.132 -4.75696 -3.14753 0
M  V30 7288 O 676.066 -5.82203 -1.52719 0
M  V30 7289 H 679.892 -3.02742 0.241086 0
M  V30 7290 H 677.477 -1.48263 0.183991 0
M  V30 7291 H 679.359 -3.6326 -2.13589 0
M  V30 7292 H 678.034 -2.43672 -2.13086 0
M  V30 7293 H 676.941 -3.73502 -0.211379 0
M  V30 7294 H 678.274 -4.91298 -0.297763 0
M  V30 7295 N 679.926 -0.151884 -1.56866 0
M  V30 7296 C 680.874 0.80299 -2.183 0
M  V30 7297 C 681.868 1.25174 -1.14139 0
M  V30 7298 O 683.074 1.21966 -1.3238 0
M  V30 7299 H 679.449 0.277169 -0.699057 0
M  V30 7300 H 681.42 0.260699 -2.97259 0
M  V30 7301 C 680.169 2.03009 -2.82281 0
M  V30 7302 H 679.492 1.69377 -3.62148 0
M  V30 7303 H 680.932 2.67753 -3.28762 0
M  V30 7304 C 679.391 2.84123 -1.81041 0
M  V30 7305 O 679.921 3.8063 -1.28388 0
M  V30 7306 N 678.127 2.48753 -1.50234 0
M  V30 7307 H 677.674 1.70337 -1.93244 0
M  V30 7308 H 677.632 3.03316 -0.827445 0
M  V30 7309 N 681.404 1.57128 0.121893 0
M  V30 7310 C 682.652 1.84335 0.828548 0
M  V30 7311 C 682.973 0.736632 1.80551 0
M  V30 7312 O 682.243 -0.23962 1.94429 0
M  V30 7313 H 680.823 0.680108 0.30897 0
M  V30 7314 H 683.485 1.9459 0.109906 0
M  V30 7315 H 682.581 2.80152 1.37554 0
M  V30 7316 N 682.882 -0.391992 1.52647 0
M  V30 7317 C 684.11 -1.1586 1.71418 0
M  V30 7318 C 684.525 -1.8381 0.431216 0
M  V30 7319 O 683.882 -1.7256 -0.594085 0
M  V30 7320 C 683.933 -2.20888 2.86165 0
M  V30 7321 O 683.654 -1.5571 4.09495 0
M  V30 7322 C 685.155 -3.103 3.1659 0
M  V30 7323 H 682.375 -0.347494 0.574011 0
M  V30 7324 H 684.919 -0.458972 1.99283 0
M  V30 7325 H 683.074 -2.86492 2.6077 0
M  V30 7326 H 683.488 -2.25474 4.73563 0
M  V30 7327 H 684.962 -3.8003 4.00351 0
M  V30 7328 H 685.439 -3.73639 2.30848 0
M  V30 7329 H 686.045 -2.50345 3.43813 0
M  V30 7330 N 684.36 -1.4356 -0.65026 0
M  V30 7331 C 685.609 -1.44619 -1.406 0
M  V30 7332 C 685.922 -0.0752645 -1.95455 0
M  V30 7333 O 687.128 0.0366832 -2.71475 0
M  V30 7334 C 685.584 -2.54511 -2.54465 0
M  V30 7335 C 685.192 -3.97723 -2.06204 0
M  V30 7336 C 686.936 -2.64768 -3.31811 0
M  V30 7337 C 684.843 -4.99075 -3.17298 0
M  V30 7338 H 683.773 -0.537983 -0.52829 0
M  V30 7339 H 686.424 -1.69559 -0.701561 0
M  V30 7340 H 684.806 -2.22777 -3.27393 0
M  V30 7341 H 685.98 -4.38932 -1.40267 0
M  V30 7342 H 684.295 -3.91538 -1.41729 0
M  V30 7343 H 686.892 -3.37664 -4.14593 0
M  V30 7344 H 687.235 -1.69936 -3.80036 0
M  V30 7345 H 687.768 -2.95817 -2.65964 0
M  V30 7346 H 684.507 -5.95469 -2.74038 0
M  V30 7347 H 684.027 -4.62476 -3.81937 0
M  V30 7348 H 685.706 -5.21913 -3.82382 0
M  V30 7349 N 685.838 0.888903 -1.30139 0
M  V30 7350 C 687.066 1.67358 -1.21651 0
M  V30 7351 C 687.481 1.87499 0.221246 0
M  V30 7352 O 686.838 1.41969 1.14677 0
M  V30 7353 C 686.889 3.05213 -1.93719 0
M  V30 7354 O 686.61 2.85984 -3.31881 0
M  V30 7355 C 688.111 3.9964 -1.9184 0
M  V30 7356 H 685.331 0.522365 -0.42116 0
M  V30 7357 H 687.875 1.11086 -1.71698 0
M  V30 7358 H 686.03 3.5823 -1.4748 0
M  V30 7359 H 686.444 3.73411 -3.68327 0
M  V30 7360 H 687.918 4.93749 -2.46811 0
M  V30 7361 H 688.395 4.29955 -0.896409 0
M  V30 7362 H 689.001 3.52558 -2.37872 0
M  V30 7363 N 687.317 1.12792 1.10072 0
M  V30 7364 C 688.249 0.757003 2.16338 0
M  V30 7365 C 689.262 -0.218144 1.61332 0
M  V30 7366 O 690.451 0.0010727 1.785 0
M  V30 7367 C 687.551 0.100303 3.38752 0
M  V30 7368 C 686.724 1.10586 4.2319 0
M  V30 7369 C 685.783 0.47609 5.24042 0
M  V30 7370 O 684.809 1.13418 5.57786 0
M  V30 7371 N 686.011 -0.754823 5.75572 0
M  V30 7372 H 688.776 1.6714 2.48766 0
M  V30 7373 H 686.337 1.02003 1.25726 0
M  V30 7374 H 688.329 -0.333092 4.03327 0
M  V30 7375 H 686.899 -0.716915 3.04268 0
M  V30 7376 H 686.119 1.71677 3.54853 0
M  V30 7377 H 687.407 1.78571 4.76435 0
M  V30 7378 H 686.805 -1.30838 5.50362 0
M  V30 7379 H 685.362 -1.13098 6.41913 0
M  V30 7380 N 688.795 -1.27931 0.920396 0
M  V30 7381 C 689.743 -2.29061 0.404191 0
M  V30 7382 C 690.737 -1.61615 -0.507634 0
M  V30 7383 O 691.943 -1.75765 -0.388144 0
M  V30 7384 H 688.318 -0.743594 0.112123 0
M  V30 7385 H 690.289 -2.70021 1.27008 0
M  V30 7386 C 689.038 -3.46088 -0.334466 0
M  V30 7387 H 688.361 -3.98194 0.35797 0
M  V30 7388 H 689.801 -4.18829 -0.660196 0
M  V30 7389 C 688.26 -2.99396 -1.54479 0
M  V30 7390 O 688.79 -3.02439 -2.64374 0
M  V30 7391 N 686.996 -2.54978 -1.39408 0
M  V30 7392 H 686.543 -2.52701 -0.500009 0
M  V30 7393 H 686.501 -2.24098 -2.20516 0
M  V30 7394 N 690.273 -0.685099 -1.4193 0
M  V30 7395 C 691.183 -0.013404 -2.34596 0
M  V30 7396 C 692.199 0.777589 -1.55658 0
M  V30 7397 O 693.375 0.717553 -1.88184 0
M  V30 7398 C 690.44 0.919031 -3.34297 0
M  V30 7399 C 689.501 0.121417 -4.29128 0
M  V30 7400 C 688.734 1.00944 -5.24067 0
M  V30 7401 O 688.957 2.24898 -5.24192 0
M  V30 7402 O 687.891 0.464724 -6.00103 0
M  V30 7403 H 691.717 -0.776978 -2.93593 0
M  V30 7404 H 689.302 -0.445379 -1.42607 0
M  V30 7405 H 691.184 1.45402 -3.9552 0
M  V30 7406 H 689.859 1.66228 -2.77759 0
M  V30 7407 H 688.766 -0.45792 -3.71287 0
M  V30 7408 H 690.099 -0.582937 -4.88736 0
M  V30 7409 N 691.751 1.51645 -0.429126 0
M  V30 7410 C 693.167 1.59394 -0.080994 0
M  V30 7411 C 693.367 1.44064 1.40882 0
M  V30 7412 O 692.423 1.27771 2.17786 0
M  V30 7413 C 693.736 2.94779 -0.593773 0
M  V30 7414 C 695.284 3.08067 -0.553494 0
M  V30 7415 C 695.759 4.45963 -1.04311 0
M  V30 7416 N 697.25 4.5226 -1.00076 0
M  V30 7417 C 697.985 5.57268 -1.35056 0
M  V30 7418 N 697.481 6.69734 -1.77282 0
M  V30 7419 N 699.274 5.47582 -1.26925 0
M  V30 7420 H 691.425 1.59856 -1.39857 0
M  V30 7421 H 693.688 0.753095 -0.575805 0
M  V30 7422 H 693.394 3.11342 -1.63583 0
M  V30 7423 H 693.268 3.77197 -0.0142202 0
M  V30 7424 H 695.655 2.91177 0.479556 0
M  V30 7425 H 695.736 2.27508 -1.16935 0
M  V30 7426 H 695.38 4.63598 -2.07459 0
M  V30 7427 H 695.31 5.25049 -0.403873 0
M  V30 7428 H 697.801 3.71537 -0.690564 0
M  V30 7429 H 698.114 7.4587 -2.02232 0
M  V30 7430 H 696.459 6.70963 -1.81202 0
M  V30 7431 H 699.65 4.58604 -0.93809 0
M  V30 7432 H 699.823 6.29308 -1.54516 0
M  V30 7433 N 693.229 0.160201 1.56784 0
M  V30 7434 C 694.645 -0.196089 1.58391 0
M  V30 7435 C 694.845 -1.63689 1.17508 0
M  V30 7436 O 693.901 -2.36613 0.881506 0
M  V30 7437 C 695.214 0.0746449 3.00607 0
M  V30 7438 C 696.762 0.0119762 3.12998 0
M  V30 7439 C 697.237 0.255551 4.57286 0
M  V30 7440 N 698.728 0.202938 4.62755 0
M  V30 7441 C 699.463 0.365731 5.72232 0
M  V30 7442 N 698.959 0.586972 6.90309 0
M  V30 7443 N 700.752 0.302411 5.61286 0
M  V30 7444 H 692.903 1.1008 1.81648 0
M  V30 7445 H 695.166 0.436779 0.841384 0
M  V30 7446 H 694.872 1.07231 3.34954 0
M  V30 7447 H 694.746 -0.638802 3.71751 0
M  V30 7448 H 697.133 -0.976254 2.78484 0
M  V30 7449 H 697.214 0.75796 2.44313 0
M  V30 7450 H 696.858 1.24094 4.92507 0
M  V30 7451 H 696.788 -0.510912 5.24116 0
M  V30 7452 H 699.279 0.0371328 3.77882 0
M  V30 7453 H 699.592 0.700941 7.69615 0
M  V30 7454 H 697.937 0.623453 6.92198 0
M  V30 7455 H 701.128 0.130238 4.67919 0
M  V30 7456 H 701.301 0.432712 6.46554 0
M  V30 7457 N 694.707 -1.5719 -0.113559 0
M  V30 7458 C 695.954 -1.85138 -0.820382 0
M  V30 7459 C 696.282 -0.74608 -1.79622 0
M  V30 7460 O 695.537 0.262077 -1.93937 0
M  V30 7461 C 695.836 -3.19593 -1.59984 0
M  V30 7462 C 695.502 -4.44315 -0.767809 0
M  V30 7463 C 694.164 -4.78179 -0.538379 0
M  V30 7464 C 696.516 -5.2086 -0.188203 0
M  V30 7465 C 693.844 -5.86028 0.28082 0
M  V30 7466 C 696.196 -6.29572 0.618217 0
M  V30 7467 C 694.86 -6.61964 0.857912 0
M  V30 7468 H 694.13 -0.677467 -0.300199 0
M  V30 7469 H 696.777 -1.91322 -0.0825443 0
M  V30 7470 H 695.082 -3.0901 -2.40874 0
M  V30 7471 H 696.779 -3.3844 -2.1508 0
M  V30 7472 H 693.369 -4.17786 -0.956724 0
M  V30 7473 H 697.553 -4.95045 -0.352658 0
M  V30 7474 H 692.809 -6.09547 0.475693 0
M  V30 7475 H 696.983 -6.88064 1.0743 0
M  V30 7476 H 694.61 -7.45365 1.49451 0
M  V30 7477 N 696.185 0.383891 -1.52853 0
M  V30 7478 C 697.431 1.13009 -1.68395 0
M  V30 7479 C 697.764 1.89488 -0.425195 0
M  V30 7480 O 697.039 1.8574 0.577136 0
M  V30 7481 C 697.322 2.10419 -2.92226 0
M  V30 7482 C 697.175 1.3767 -4.28214 0
M  V30 7483 C 698.494 3.10781 -3.11614 0
M  V30 7484 H 695.613 0.409463 -0.612788 0
M  V30 7485 H 698.255 0.412895 -1.85459 0
M  V30 7486 H 696.405 2.71579 -2.77808 0
M  V30 7487 H 698.077 0.794352 -4.54409 0
M  V30 7488 H 696.32 0.678533 -4.2846 0
M  V30 7489 H 696.991 2.08874 -5.10956 0
M  V30 7490 H 699.467 2.59715 -3.25096 0
M  V30 7491 H 698.343 3.76179 -3.99725 0
M  V30 7492 H 698.604 3.79933 -2.2606 0
M  V30 7493 N 697.663 1.43903 0.642637 0
M  V30 7494 C 698.891 1.4954 1.42988 0
M  V30 7495 C 699.306 0.116588 1.8844 0
M  V30 7496 O 698.663 -0.875285 1.60141 0
M  V30 7497 C 698.714 2.45031 2.65785 0
M  V30 7498 O 698.435 3.77551 2.22232 0
M  V30 7499 C 699.936 2.60017 3.59035 0
M  V30 7500 H 697.156 0.507544 0.438907 0
M  V30 7501 H 699.7 1.88752 0.786942 0
M  V30 7502 H 697.855 2.08985 3.26196 0
M  V30 7503 H 698.269 4.29001 3.01759 0
M  V30 7504 H 699.743 3.30887 4.41835 0
M  V30 7505 H 700.22 1.64861 4.07084 0
M  V30 7506 H 700.826 2.96918 3.045 0
M  V30 7507 N 699.141 -0.881989 1.30609 0
M  V30 7508 C 700.088 -1.98803 1.17244 0
M  V30 7509 C 701.058 -1.65987 0.0611905 0
M  V30 7510 O 702.243 -1.89385 0.231911 0
M  V30 7511 C 699.383 -3.33867 0.87333 0
M  V30 7512 C 698.496 -3.79354 2.06675 0
M  V30 7513 C 697.631 -5.03078 1.70547 0
M  V30 7514 C 696.67 -5.40981 2.86366 0
M  V30 7515 N 695.807 -6.55886 2.50514 0
M  V30 7516 H 700.647 -2.09566 2.11863 0
M  V30 7517 H 698.184 -1.02607 1.05405 0
M  V30 7518 H 700.142 -4.11612 0.680519 0
M  V30 7519 H 698.772 -3.2278 -0.0359983 0
M  V30 7520 H 697.824 -2.97492 2.37071 0
M  V30 7521 H 699.136 -4.03382 2.93401 0
M  V30 7522 H 698.29 -5.88457 1.47658 0
M  V30 7523 H 697.029 -4.80927 0.809947 0
M  V30 7524 H 696.034 -4.54127 3.09917 0
M  V30 7525 H 697.259 -5.65104 3.76609 0
M  V30 7526 H 695.205 -6.35306 1.63471 0
M  V30 7527 H 695.122 -6.79799 3.30771 0
M  V30 7528 H 696.39 -7.44489 2.30989 0
M  V30 7529 N 700.619 -1.13374 -1.09472 0
M  V30 7530 C 701.549 -0.833268 -2.18126 0
M  V30 7531 C 702.53 0.207169 -1.68834 0
M  V30 7532 O 703.715 0.0662012 -1.94087 0
M  V30 7533 C 700.845 -0.297979 -3.46019 0
M  V30 7534 C 699.799 -1.27261 -4.08642 0
M  V30 7535 C 699.125 -0.597104 -5.31356 0
M  V30 7536 C 700.425 -2.63095 -4.51197 0
M  V30 7537 H 702.119 -1.74182 -2.43518 0
M  V30 7538 H 699.665 -0.838921 -1.17039 0
M  V30 7539 H 701.618 -0.0754444 -4.21332 0
M  V30 7540 H 700.342 0.645959 -3.20148 0
M  V30 7541 H 699.001 -1.48113 -3.35348 0
M  V30 7542 H 698.649 0.352293 -5.01765 0
M  V30 7543 H 698.349 -1.24734 -5.74208 0
M  V30 7544 H 699.873 -0.38384 -6.09392 0
M  V30 7545 H 701.287 -2.46214 -5.17737 0
M  V30 7546 H 699.684 -3.2429 -5.04932 0
M  V30 7547 H 700.754 -3.20793 -3.6362 0
M  V30 7548 N 702.098 1.27442 -0.927168 0
M  V30 7549 C 703.028 2.29256 -0.443188 0
M  V30 7550 C 704.009 1.62701 0.49624 0
M  V30 7551 O 705.194 1.90013 0.401105 0
M  V30 7552 C 702.324 3.45955 0.305366 0
M  V30 7553 C 701.278 4.24501 -0.546178 0
M  V30 7554 C 700.604 5.33671 0.331512 0
M  V30 7555 C 701.904 4.89921 -1.81037 0
M  V30 7556 H 703.598 2.69988 -1.29409 0
M  V30 7557 H 701.144 1.29792 -0.623705 0
M  V30 7558 H 703.097 4.1628 0.654885 0
M  V30 7559 H 701.821 3.04138 1.19029 0
M  V30 7560 H 700.48 3.55921 -0.878398 0
M  V30 7561 H 700.128 4.88096 1.21537 0
M  V30 7562 H 699.828 5.87131 -0.234746 0
M  V30 7563 H 701.352 6.0684 0.676614 0
M  V30 7564 H 702.766 5.52536 -1.52895 0
M  V30 7565 H 701.163 5.53436 -2.32009 0
M  V30 7566 H 702.233 4.13652 -2.53021 0
M  V30 7567 N 703.576 0.692616 1.41565 0
M  V30 7568 C 704.486 0.0258451 2.34586 0
M  V30 7569 C 705.502 -0.769324 1.56069 0
M  V30 7570 O 706.678 -0.707563 1.88562 0
M  V30 7571 C 703.743 -0.901289 3.3478 0
M  V30 7572 C 702.804 -0.0986579 4.29187 0
M  V30 7573 C 702.037 -0.981634 5.24595 0
M  V30 7574 O 702.26 -2.22115 5.25377 0
M  V30 7575 O 701.194 -0.432892 6.00341 0
M  V30 7576 H 705.02 0.792537 2.93177 0
M  V30 7577 H 702.605 0.452935 1.42369 0
M  V30 7578 H 704.487 -1.43302 3.96286 0
M  V30 7579 H 703.162 -1.64752 2.78637 0
M  V30 7580 H 702.069 0.477604 3.71039 0
M  V30 7581 H 703.402 0.608848 4.8842 0
M  V30 7582 N 705.054 -1.51416 0.437162 0
M  V30 7583 C 706.331 -1.94682 -0.189292 0
M  V30 7584 C 706.711 -1.37581 -1.60108 0
M  V30 7585 O 706.059 -0.562815 -2.2146 0
M  V30 7586 C 706.269 -3.48599 -0.167201 0
M  V30 7587 C 707.617 -4.2296 -0.372856 0
M  V30 7588 O 708.641 -3.55354 -0.245323 0
M  V30 7589 O 707.5 -5.42895 -0.626693 0
M  V30 7590 H 704.594 -0.816708 -0.130063 0
M  V30 7591 H 707.14 -1.62316 0.495128 0
M  V30 7592 H 705.912 -3.82616 0.81981 0
M  V30 7593 H 705.535 -3.87406 -0.894537 0
M  V30 7594 N 706.532 -0.168513 -1.56696 0
M  V30 7595 C 707.462 0.758563 -2.20835 0
M  V30 7596 C 708.443 1.24121 -1.1631 0
M  V30 7597 O 709.628 1.29487 -1.4473 0
M  V30 7598 C 706.758 1.9892 -2.8469 0
M  V30 7599 C 705.712 1.64252 -3.95228 0
M  V30 7600 C 705.038 2.94757 -4.46119 0
M  V30 7601 C 706.338 0.872675 -5.14958 0
M  V30 7602 H 708.032 0.223953 -2.98561 0
M  V30 7603 H 705.578 0.106277 -1.43607 0
M  V30 7604 H 707.531 2.64275 -3.28233 0
M  V30 7605 H 706.255 2.5479 -2.04327 0
M  V30 7606 H 704.914 1.01266 -3.52336 0
M  V30 7607 H 704.562 3.48662 -3.62552 0
M  V30 7608 H 704.262 2.72316 -5.2069 0
M  V30 7609 H 705.786 3.61147 -4.92347 0
M  V30 7610 H 707.2 1.42875 -5.55211 0
M  V30 7611 H 705.597 0.747402 -5.95428 0
M  V30 7612 H 706.667 -0.131535 -4.84722 0
M  V30 7613 N 708.01 1.57248 0.105221 0
M  V30 7614 C 709.259 1.84756 0.809198 0
M  V30 7615 C 709.572 0.756262 1.80389 0
M  V30 7616 O 710.778 0.918158 2.55504 0
M  V30 7617 C 709.234 3.27613 1.48989 0
M  V30 7618 C 708.842 4.44788 0.535484 0
M  V30 7619 C 710.586 3.64356 2.17819 0
M  V30 7620 C 708.493 5.78676 1.22019 0
M  V30 7621 H 707.423 0.689139 0.305946 0
M  V30 7622 H 710.074 1.83395 0.0620371 0
M  V30 7623 H 708.456 3.23485 2.28415 0
M  V30 7624 H 709.63 4.60243 -0.226557 0
M  V30 7625 H 707.945 4.16374 -0.0465769 0
M  V30 7626 H 710.542 4.61663 2.69761 0
M  V30 7627 H 710.885 2.92474 2.96251 0
M  V30 7628 H 711.418 3.70328 1.45264 0
M  V30 7629 H 708.157 6.53763 0.476875 0
M  V30 7630 H 707.677 5.67083 1.9539 0
M  V30 7631 H 709.356 6.22897 1.74952 0
M  V30 7632 N 709.488 -0.375779 1.53054 0
M  V30 7633 C 710.735 -1.11948 1.68742 0
M  V30 7634 C 711.063 -1.89596 0.434015 0
M  V30 7635 O 710.318 -1.86787 -0.583867 0
M  V30 7636 C 710.617 -2.11356 2.88207 0
M  V30 7637 C 710.283 -1.50266 4.25124 0
M  V30 7638 C 708.945 -1.33333 4.62359 0
M  V30 7639 C 711.297 -1.05976 5.10312 0
M  V30 7640 C 708.625 -0.706765 5.82427 0
M  V30 7641 C 710.977 -0.447241 6.31017 0
M  V30 7642 C 709.641 -0.265314 6.66973 0
M  V30 7643 H 708.911 -0.409648 0.61747 0
M  V30 7644 H 711.558 -0.402492 1.87222 0
M  V30 7645 H 709.863 -2.89322 2.64197 0
M  V30 7646 H 711.56 -2.68833 2.97539 0
M  V30 7647 H 708.15 -1.64437 3.95801 0
M  V30 7648 H 712.334 -1.17855 4.82104 0
M  V30 7649 H 707.59 -0.554132 6.08884 0
M  V30 7650 H 711.764 -0.0958064 6.96334 0
M  V30 7651 H 709.391 0.222267 7.59875 0
M  V30 7652 N 710.966 -1.44241 -0.634997 0
M  V30 7653 C 712.213 -1.46821 -1.39463 0
M  V30 7654 C 712.541 -0.0993362 -1.94246 0
M  V30 7655 O 711.796 0.898325 -1.73864 0
M  V30 7656 C 712.095 -2.47279 -2.58046 0
M  V30 7657 C 711.761 -3.92703 -2.21574 0
M  V30 7658 C 710.423 -4.32306 -2.1134 0
M  V30 7659 C 712.775 -4.84271 -1.92695 0
M  V30 7660 C 710.103 -5.61407 -1.70409 0
M  V30 7661 C 712.455 -6.13755 -1.53258 0
M  V30 7662 C 711.119 -6.52316 -1.41562 0
M  V30 7663 H 710.389 -0.537256 -0.51033 0
M  V30 7664 H 713.036 -1.77431 -0.720441 0
M  V30 7665 H 711.341 -2.10138 -3.3068 0
M  V30 7666 H 713.038 -2.46523 -3.16271 0
M  V30 7667 H 709.628 -3.61369 -2.30456 0
M  V30 7668 H 713.812 -4.54432 -1.99513 0
M  V30 7669 H 709.068 -5.90105 -1.59955 0
M  V30 7670 H 713.242 -6.84168 -1.29949 0
M  V30 7671 H 710.869 -7.52255 -1.09619 0
M  V30 7672 N 712.444 0.87505 -1.31075 0
M  V30 7673 C 713.69 1.63009 -1.20647 0
M  V30 7674 C 714.023 1.9276 0.236045 0
M  V30 7675 O 713.298 1.55559 1.16754 0
M  V30 7676 C 713.581 2.96357 -2.0456 0
M  V30 7677 C 713.434 2.73516 -3.57084 0
M  V30 7678 C 714.753 3.974 -1.89107 0
M  V30 7679 H 711.872 0.591518 -0.439631 0
M  V30 7680 H 714.514 1.0119 -1.60812 0
M  V30 7681 H 712.664 3.49119 -1.70435 0
M  V30 7682 H 714.336 2.27465 -4.01319 0
M  V30 7683 H 712.579 2.0784 -3.80769 0
M  V30 7684 H 713.25 3.68377 -4.11099 0
M  V30 7685 H 715.726 3.5383 -2.18961 0
M  V30 7686 H 714.602 4.88596 -2.5013 0
M  V30 7687 H 714.863 4.33794 -0.85296 0
M  V30 7688 N 713.922 1.13953 1.08869 0
M  V30 7689 C 714.885 0.824991 2.13838 0
M  V30 7690 C 715.885 -0.168198 1.59918 0
M  V30 7691 O 717.075 0.0595778 1.74098 0
M  V30 7692 C 714.207 0.228938 3.4013 0
M  V30 7693 H 715.4 1.75521 2.43171 0
M  V30 7694 H 712.953 0.94492 1.24503 0
M  V30 7695 H 713.688 -0.710227 3.16427 0
M  V30 7696 H 713.473 0.944243 3.80561 0
M  V30 7697 H 714.963 0.0259223 4.17592 0
M  V30 7698 N 715.4 -1.26948 0.933913 0
M  V30 7699 C 716.677 -1.89212 0.495784 0
M  V30 7700 C 717.057 -1.84469 -1.02637 0
M  V30 7701 O 716.405 -1.29409 -1.88323 0
M  V30 7702 C 716.615 -3.32865 1.0489 0
M  V30 7703 C 717.963 -4.09749 1.11315 0
M  V30 7704 O 718.987 -3.41905 0.998966 0
M  V30 7705 O 717.846 -5.31061 1.28983 0
M  V30 7706 H 714.94 -0.811284 0.160459 0
M  V30 7707 H 717.486 -1.35171 1.02601 0
M  V30 7708 H 716.258 -3.30642 2.09265 0
M  V30 7709 H 715.881 -3.94435 0.500692 0
M  V30 7710 N 716.879 -0.700114 -1.41195 0
M  V30 7711 C 718.125 -0.233351 -2.01453 0
M  V30 7712 C 718.458 1.16548 -1.55339 0
M  V30 7713 O 717.733 1.78756 -0.766575 0
M  V30 7714 C 718.016 -0.2961 -3.58881 0
M  V30 7715 C 717.869 -1.7322 -4.15108 0
M  V30 7716 C 719.188 0.341525 -4.38773 0
M  V30 7717 H 716.307 -0.0862667 -0.731934 0
M  V30 7718 H 718.949 -0.889693 -1.67882 0
M  V30 7719 H 717.099 0.262736 -3.87611 0
M  V30 7720 H 718.771 -2.34523 -3.97236 0
M  V30 7721 H 717.014 -2.2649 -3.69979 0
M  V30 7722 H 717.685 -1.7276 -5.24269 0
M  V30 7723 H 720.161 -0.134461 -4.15883 0
M  V30 7724 H 719.037 0.267098 -5.4825 0
M  V30 7725 H 719.298 1.42289 -4.18577 0
M  V30 7726 N 718.357 1.51182 -0.445186 0
M  V30 7727 C 719.768 1.86693 0.0160999 0
M  V30 7728 C 720.119 1.36183 1.4124 0
M  V30 7729 O 719.244 0.715895 2.04215 0
M  V30 7730 C 719.839 3.38781 0.0359918 0
M  V30 7731 C 718.398 3.73799 0.441715 0
M  V30 7732 C 717.545 2.74947 -0.360511 0
M  V30 7733 H 720.496 1.44294 -0.660674 0
M  V30 7734 H 720.517 3.71026 0.843813 0
M  V30 7735 H 720.029 3.75513 -0.980378 0
M  V30 7736 H 718.13 3.42659 1.4634 0
M  V30 7737 H 718.243 4.78829 0.16106 0
M  V30 7738 H 716.607 2.54047 0.182269 0
M  V30 7739 H 717.39 3.14521 -1.3759 0
M  V30 7740 N 719.835 0.176821 1.56605 0
M  V30 7741 C 720.783 -0.768159 2.1955 0
M  V30 7742 C 721.777 -1.23343 1.16116 0
M  V30 7743 O 722.983 -1.19844 1.34303 0
M  V30 7744 H 719.358 -0.266013 0.703378 0
M  V30 7745 H 721.329 -0.213374 2.97636 0
M  V30 7746 C 720.078 -1.98492 2.85475 0
M  V30 7747 H 719.401 -1.63595 3.64797 0
M  V30 7748 H 720.841 -2.62489 3.3298 0
M  V30 7749 C 719.3 -2.81207 1.85538 0
M  V30 7750 O 719.83 -3.7854 1.34427 0
M  V30 7751 N 718.036 -2.46331 1.54173 0
M  V30 7752 H 717.583 -1.67241 1.95929 0
M  V30 7753 H 717.541 -3.01961 0.875595 0
M  V30 7754 N 721.313 -1.57302 -0.09688 0
M  V30 7755 C 722.261 -2.02942 -1.13654 0
M  V30 7756 C 723.255 -0.930173 -1.41577 0
M  V30 7757 O 724.461 -1.11535 -1.41279 0
M  V30 7758 H 720.836 -0.646726 -0.383731 0
M  V30 7759 H 722.807 -2.89452 -0.725267 0
M  V30 7760 C 721.556 -2.46815 -2.44903 0
M  V30 7761 H 720.879 -3.30979 -2.24261 0
M  V30 7762 H 722.319 -2.82527 -3.16156 0
M  V30 7763 C 720.778 -1.34071 -3.09074 0
M  V30 7764 O 721.308 -0.668856 -3.96092 0
M  V30 7765 N 719.514 -1.09214 -2.69296 0
M  V30 7766 H 719.061 -1.64029 -1.98626 0
M  V30 7767 H 719.019 -0.339785 -3.12559 0
M  V30 7768 N 722.791 0.367657 -1.53252 0
M  V30 7769 C 724.039 1.10832 -1.68999 0
M  V30 7770 C 724.36 1.89894 -0.443306 0
M  V30 7771 O 723.63 1.88235 0.54262 0
M  V30 7772 H 722.21 0.412153 -0.623008 0
M  V30 7773 H 724.872 0.414775 -1.90435 0
M  V30 7774 H 723.968 1.7993 -2.55013 0
M  V30 7775 N 724.269 1.44576 0.627338 0
M  V30 7776 C 725.201 1.47724 1.75243 0
M  V30 7777 C 726.214 0.370193 1.58535 0
M  V30 7778 O 727.403 0.636151 1.66779 0
M  V30 7779 C 724.503 1.2991 3.13012 0
M  V30 7780 C 723.676 2.5393 3.56143 0
M  V30 7781 C 722.735 2.30961 4.72804 0
M  V30 7782 O 721.761 3.04469 4.80923 0
M  V30 7783 N 722.963 1.34261 5.6476 0
M  V30 7784 H 725.728 2.44718 1.73012 0
M  V30 7785 H 723.289 1.40064 0.812022 0
M  V30 7786 H 725.281 1.12385 3.88782 0
M  V30 7787 H 723.851 0.412668 3.09864 0
M  V30 7788 H 723.071 2.86707 2.70542 0
M  V30 7789 H 724.359 3.36411 3.81713 0
M  V30 7790 H 723.757 0.735573 5.60897 0
M  V30 7791 H 722.314 1.22713 6.40144 0
M  V30 7792 N 725.747 -0.868086 1.31537 0
M  V30 7793 C 726.657 -2.00801 1.21311 0
M  V30 7794 C 727.673 -1.73518 0.129431 0
M  V30 7795 O 728.849 -1.98378 0.347588 0
M  V30 7796 C 725.914 -3.3419 0.922935 0
M  V30 7797 C 724.975 -3.74783 2.0937 0
M  V30 7798 C 724.208 -5.01807 1.81728 0
M  V30 7799 O 724.431 -5.65404 0.753313 0
M  V30 7800 O 723.365 -5.39213 2.67457 0
M  V30 7801 H 727.191 -2.12361 2.17109 0
M  V30 7802 H 724.776 -0.996684 1.11295 0
M  V30 7803 H 726.658 -4.14174 0.777033 0
M  V30 7804 H 725.333 -3.237 -0.00500301 0
M  V30 7805 H 724.24 -2.95432 2.29501 0
M  V30 7806 H 725.573 -3.89902 3.00396 0
M  V30 7807 N 727.225 -1.14528 -1.08264 0
M  V30 7808 C 728.471 -0.91576 -1.80947 0
M  V30 7809 C 728.804 0.55623 -1.86064 0
M  V30 7810 O 728.079 1.41207 -1.33756 0
M  V30 7811 C 728.362 -1.51917 -3.26486 0
M  V30 7812 C 728.215 -3.06111 -3.2957 0
M  V30 7813 C 729.534 -1.19724 -4.23502 0
M  V30 7814 H 726.653 -0.334113 -0.656915 0
M  V30 7815 H 729.295 -1.41547 -1.26746 0
M  V30 7816 H 727.445 -1.0942 -3.72773 0
M  V30 7817 H 729.117 -3.57448 -2.91597 0
M  V30 7818 H 727.36 -3.40483 -2.688 0
M  V30 7819 H 728.031 -3.43438 -4.32151 0
M  V30 7820 H 730.507 -1.56467 -3.85561 0
M  V30 7821 H 729.383 -1.64575 -5.23647 0
M  V30 7822 H 729.644 -0.112771 -4.41956 0
M  V30 7823 N 728.703 1.26451 -0.940633 0
M  V30 7824 C 729.633 2.28773 -0.467479 0
M  V30 7825 C 730.614 1.63218 0.478955 0
M  V30 7826 O 731.799 1.90427 0.380929 0
M  V30 7827 C 728.929 3.46259 0.268656 0
M  V30 7828 C 727.883 4.23898 -0.591171 0
M  V30 7829 C 727.209 5.33993 0.274891 0
M  V30 7830 C 728.509 4.87974 -1.86223 0
M  V30 7831 H 730.203 2.68601 -1.32265 0
M  V30 7832 H 727.749 1.29123 -0.637436 0
M  V30 7833 H 729.702 4.16951 0.610696 0
M  V30 7834 H 728.426 3.05383 1.15796 0
M  V30 7835 H 727.085 3.54969 -0.916098 0
M  V30 7836 H 726.733 4.89358 1.16353 0
M  V30 7837 H 726.433 5.86849 -0.297006 0
M  V30 7838 H 727.957 6.07523 0.612213 0
M  V30 7839 H 729.371 5.50883 -1.58747 0
M  V30 7840 H 727.768 5.50945 -2.37866 0
M  V30 7841 H 728.838 4.10945 -2.57394 0
M  V30 7842 N 730.181 0.707592 1.40822 0
M  V30 7843 C 731.458 0.171172 1.9485 0
M  V30 7844 C 731.838 -1.32143 1.64625 0
M  V30 7845 O 731.186 -2.07372 0.959647 0
M  V30 7846 C 731.396 0.475334 3.45748 0
M  V30 7847 C 732.744 0.409625 4.22619 0
M  V30 7848 O 733.768 0.410934 3.53822 0
M  V30 7849 O 732.627 0.380185 5.45176 0
M  V30 7850 H 729.721 0.022015 0.826707 0
M  V30 7851 H 732.267 0.784577 1.50474 0
M  V30 7852 H 731.039 1.50801 3.61075 0
M  V30 7853 H 730.662 -0.168439 3.97243 0
M  V30 7854 N 731.66 -1.50943 0.453197 0
M  V30 7855 C 732.906 -2.02512 -0.108082 0
M  V30 7856 C 733.239 -1.33574 -1.40967 0
M  V30 7857 O 732.514 -0.455671 -1.89087 0
M  V30 7858 C 732.797 -3.58759 -0.310453 0
M  V30 7859 C 732.65 -4.38293 1.0109 0
M  V30 7860 C 733.969 -4.26816 -1.07313 0
M  V30 7861 H 731.088 -0.73603 -0.0378064 0
M  V30 7862 H 733.73 -1.80433 0.595295 0
M  V30 7863 H 731.88 -3.77702 -0.909582 0
M  V30 7864 H 733.552 -4.30964 1.64523 0
M  V30 7865 H 731.795 -4.02745 1.61179 0
M  V30 7866 H 732.466 -5.45828 0.82315 0
M  V30 7867 H 734.942 -4.1224 -0.565473 0
M  V30 7868 H 733.818 -5.35989 -1.1835 0
M  V30 7869 H 734.079 -3.88757 -2.10525 0
M  V30 7870 N 733.138 -0.185124 -1.56509 0
M  V30 7871 C 734.384 0.456934 -1.97585 0
M  V30 7872 C 734.717 1.61957 -1.07161 0
M  V30 7873 O 733.992 1.9412 -0.121546 0
M  V30 7874 C 734.275 0.926666 -3.47973 0
M  V30 7875 C 734.128 -0.237097 -4.49175 0
M  V30 7876 C 735.447 1.79561 -4.01803 0
M  V30 7877 H 732.566 0.164619 -0.71838 0
M  V30 7878 H 735.208 -0.274039 -1.88013 0
M  V30 7879 H 733.358 1.54954 -3.56261 0
M  V30 7880 H 735.03 -0.87454 -4.52934 0
M  V30 7881 H 733.273 -0.890446 -4.24563 0
M  V30 7882 H 733.944 0.133924 -5.51838 0
M  V30 7883 H 736.42 1.27039 -3.96232 0
M  V30 7884 H 735.296 2.09327 -5.07418 0
M  V30 7885 H 735.557 2.74629 -3.46455 0
M  V30 7886 N 734.616 1.57351 0.0885366 0
M  V30 7887 C 735.865 1.85604 0.789556 0
M  V30 7888 C 736.178 0.775352 1.79576 0
M  V30 7889 O 737.384 0.945206 2.54515 0
M  V30 7890 C 735.84 3.29175 1.45506 0
M  V30 7891 C 735.448 4.45331 0.488278 0
M  V30 7892 C 737.192 3.66646 2.13942 0
M  V30 7893 C 735.099 5.79937 1.15874 0
M  V30 7894 H 734.029 0.692346 0.298619 0
M  V30 7895 H 736.68 1.83451 0.0425821 0
M  V30 7896 H 735.062 3.25889 2.24972 0
M  V30 7897 H 736.236 4.59977 -0.275359 0
M  V30 7898 H 734.551 4.16301 -0.0907363 0
M  V30 7899 H 737.148 4.64498 2.6485 0
M  V30 7900 H 737.491 2.956 2.93132 0
M  V30 7901 H 738.024 3.71848 1.41328 0
M  V30 7902 H 734.763 6.54232 0.407508 0
M  V30 7903 H 734.283 5.69123 1.89364 0
M  V30 7904 H 735.962 6.24718 1.68336 0
M  V30 7905 N 736.094 -0.359525 1.53444 0
M  V30 7906 C 737.322 -1.12198 1.73837 0
M  V30 7907 C 737.737 -1.82854 0.470107 0
M  V30 7908 O 737.094 -1.73781 -0.557349 0
M  V30 7909 C 737.145 -2.14769 2.90786 0
M  V30 7910 O 736.866 -1.46989 4.12706 0
M  V30 7911 C 738.367 -3.03514 3.231 0
M  V30 7912 H 735.587 -0.33524 0.581253 0
M  V30 7913 H 738.131 -0.416598 2.00212 0
M  V30 7914 H 736.286 -2.80896 2.66788 0
M  V30 7915 H 736.7 -2.15378 4.78239 0
M  V30 7916 H 738.174 -3.71453 4.08322 0
M  V30 7917 H 738.651 -3.68658 2.38721 0
M  V30 7918 H 739.257 -2.42996 3.49046 0
M  V30 7919 N 737.572 -1.44907 -0.619662 0
M  V30 7920 C 738.519 -1.52654 -1.73105 0
M  V30 7921 C 739.489 -0.373334 -1.6185 0
M  V30 7922 O 740.674 -0.585143 -1.81606 0
M  V30 7923 C 737.814 -1.48769 -3.11387 0
M  V30 7924 C 736.927 -2.74551 -3.33535 0
M  V30 7925 C 736.062 -2.62421 -4.61854 0
M  V30 7926 C 735.101 -3.83312 -4.77219 0
M  V30 7927 N 734.238 -3.69789 -5.96826 0
M  V30 7928 H 739.078 -2.47605 -1.65819 0
M  V30 7929 H 736.615 -1.22875 -0.808719 0
M  V30 7930 H 738.573 -1.44507 -3.91374 0
M  V30 7931 H 737.203 -0.573783 -3.1766 0
M  V30 7932 H 736.255 -2.88953 -2.47408 0
M  V30 7933 H 737.567 -3.64253 -3.40765 0
M  V30 7934 H 736.721 -2.56056 -5.50019 0
M  V30 7935 H 735.46 -1.70298 -4.57001 0
M  V30 7936 H 734.465 -3.90049 -3.87481 0
M  V30 7937 H 735.69 -4.76486 -4.83878 0
M  V30 7938 H 733.636 -2.80426 -5.93041 0
M  V30 7939 H 733.553 -4.53116 -6.05163 0
M  V30 7940 H 734.821 -3.67335 -6.87521 0
M  V30 7941 N 739.05 0.861098 -1.31996 0
M  V30 7942 C 740.461 1.43065 -1.19955 0
M  V30 7943 C 740.812 1.95273 0.190489 0
M  V30 7944 O 739.937 1.87012 1.08882 0
M  V30 7945 C 740.532 2.60052 -2.1716 0
M  V30 7946 C 739.091 3.13026 -2.09026 0
M  V30 7947 C 738.238 1.85756 -2.05888 0
M  V30 7948 H 741.189 0.668834 -1.43918 0
M  V30 7949 H 741.21 3.37016 -1.76637 0
M  V30 7950 H 740.722 2.22024 -3.18319 0
M  V30 7951 H 738.823 3.55653 -1.11092 0
M  V30 7952 H 738.936 3.74707 -2.98549 0
M  V30 7953 H 737.3 2.05088 -1.51033 0
M  V30 7954 H 738.083 1.49954 -3.08818 0
M  V30 7955 N 740.528 1.15101 1.07655 0
M  V30 7956 C 741.476 0.840714 2.16875 0
M  V30 7957 C 742.47 -0.184594 1.68391 0
M  V30 7958 O 743.676 -0.0399315 1.79956 0
M  V30 7959 H 740.051 0.254192 0.707736 0
M  V30 7960 H 742.022 1.76959 2.40266 0
M  V30 7961 C 740.771 0.343018 3.46004 0
M  V30 7962 H 740.094 1.12335 3.83694 0
M  V30 7963 H 741.534 0.16453 4.23681 0
M  V30 7964 C 739.993 -0.934881 3.23669 0
M  V30 7965 O 740.523 -2.00706 3.47965 0
M  V30 7966 N 738.729 -0.873167 2.77172 0
M  V30 7967 H 738.276 -0.000479072 2.576 0
M  V30 7968 H 738.234 -1.72873 2.62607 0
M  V30 7969 N 742.006 -1.2595 0.947325 0
M  V30 7970 C 743.422 -1.45737 0.650597 0
M  V30 7971 C 743.622 -1.85189 -0.794188 0
M  V30 7972 O 742.678 -1.97738 -1.57022 0
M  V30 7973 C 743.991 -2.53505 1.61728 0
M  V30 7974 C 745.539 -2.67351 1.62765 0
M  V30 7975 C 746.014 -3.78296 2.58179 0
M  V30 7976 N 747.505 -3.85696 2.56501 0
M  V30 7977 C 748.24 -4.71012 3.2701 0
M  V30 7978 N 747.736 -5.60669 4.06966 0
M  V30 7979 N 749.529 -4.64912 3.15932 0
M  V30 7980 H 741.68 -0.986327 1.8811 0
M  V30 7981 H 743.943 -0.494639 0.808725 0
M  V30 7982 H 743.649 -2.31357 2.6489 0
M  V30 7983 H 743.523 -3.51281 1.3741 0
M  V30 7984 H 745.91 -2.88869 0.603241 0
M  V30 7985 H 745.991 -1.69998 1.91139 0
M  V30 7986 H 745.635 -3.5753 3.60742 0
M  V30 7987 H 745.565 -4.75117 2.27093 0
M  V30 7988 H 748.056 -3.21601 1.98447 0
M  V30 7989 H 748.369 -6.22677 4.57704 0
M  V30 7990 H 746.714 -5.60402 4.11066 0
M  V30 7991 H 749.905 -3.93874 2.52945 0
M  V30 7992 H 750.078 -5.3118 3.71149 0
M  V30 7993 N 743.484 -0.715051 -1.40445 0
M  V30 7994 C 744.394 -0.0631624 -2.34515 0
M  V30 7995 C 745.41 0.744397 -1.57273 0
M  V30 7996 O 746.586 0.677475 -1.89663 0
M  V30 7997 C 743.651 0.847915 -3.36172 0
M  V30 7998 C 742.712 0.0303655 -4.29289 0
M  V30 7999 C 741.945 0.898051 -5.2609 0
M  V30 8000 O 742.168 2.13729 -5.28844 0
M  V30 8001 O 741.102 0.337328 -6.00954 0
M  V30 8002 H 744.928 -0.839078 -2.91879 0
M  V30 8003 H 742.513 -0.475527 -1.4163 0
M  V30 8004 H 744.395 1.3698 -3.98515 0
M  V30 8005 H 743.07 1.60299 -2.81222 0
M  V30 8006 H 741.977 -0.536573 -3.70232 0
M  V30 8007 H 743.31 -0.686474 -4.87389 0
M  V30 8008 N 744.962 1.50701 -0.461195 0
M  V30 8009 C 746.378 1.59187 -0.114786 0
M  V30 8010 C 746.578 1.4702 1.37794 0
M  V30 8011 O 745.634 1.32361 2.15027 0
M  V30 8012 C 746.947 2.93453 -0.656167 0
M  V30 8013 C 748.495 3.06824 -0.618715 0
M  V30 8014 C 748.97 4.4365 -1.13747 0
M  V30 8015 N 750.461 4.50035 -1.09646 0
M  V30 8016 C 751.196 5.54278 -1.46846 0
M  V30 8017 N 750.692 6.65822 -1.91448 0
M  V30 8018 N 752.485 5.44767 -1.38512 0
M  V30 8019 H 744.636 1.56853 -1.43216 0
M  V30 8020 H 746.899 0.740712 -0.59165 0
M  V30 8021 H 746.605 3.07802 -1.7015 0
M  V30 8022 H 746.479 3.77082 -0.0942261 0
M  V30 8023 H 748.866 2.92129 0.417685 0
M  V30 8024 H 748.947 2.24976 -1.21734 0
M  V30 8025 H 748.591 4.59093 -2.17245 0
M  V30 8026 H 748.521 5.24074 -0.515153 0
M  V30 8027 H 751.012 3.69988 -0.769217 0
M  V30 8028 H 751.325 7.41413 -2.18007 0
M  V30 8029 H 749.67 6.66968 -1.95393 0
M  V30 8030 H 752.861 4.56511 -1.03516 0
M  V30 8031 H 753.034 6.25889 -1.6783 0
M  V30 8032 N 746.441 0.193421 1.56409 0
M  V30 8033 C 747.373 -0.759944 2.16235 0
M  V30 8034 C 748.386 -1.17797 1.12373 0
M  V30 8035 O 749.575 -1.11399 1.39472 0
M  V30 8036 C 746.675 -2.03735 2.70823 0
M  V30 8037 C 745.848 -1.77939 3.9957 0
M  V30 8038 C 744.907 -2.90111 4.39001 0
M  V30 8039 O 743.933 -2.59791 5.06456 0
M  V30 8040 N 745.135 -4.18426 4.02368 0
M  V30 8041 H 747.9 -0.248348 2.98669 0
M  V30 8042 H 745.461 0.0113966 1.61896 0
M  V30 8043 H 747.453 -2.77914 2.94187 0
M  V30 8044 H 746.023 -2.46022 1.92852 0
M  V30 8045 H 745.243 -0.875491 3.84355 0
M  V30 8046 H 746.531 -1.58099 4.83614 0
M  V30 8047 H 745.929 -4.45913 3.48106 0
M  V30 8048 H 744.486 -4.89237 4.30686 0
M  V30 8049 N 747.919 -1.57396 -0.0801906 0
M  V30 8050 C 748.866 -2.03107 -1.09618 0
M  V30 8051 C 749.836 -0.910118 -1.38946 0
M  V30 8052 O 751.021 -1.17719 -1.50156 0
M  V30 8053 C 748.161 -2.47293 -2.40708 0
M  V30 8054 C 747.274 -3.72972 -2.17982 0
M  V30 8055 C 746.409 -4.05975 -3.42576 0
M  V30 8056 C 745.448 -5.24719 -3.15177 0
M  V30 8057 N 744.585 -5.53401 -4.32078 0
M  V30 8058 H 749.425 -2.89677 -0.69939 0
M  V30 8059 H 746.962 -1.43263 -0.333785 0
M  V30 8060 H 748.92 -2.7096 -3.17232 0
M  V30 8061 H 747.55 -1.63713 -2.78205 0
M  V30 8062 H 746.602 -3.56693 -1.32189 0
M  V30 8063 H 747.914 -4.59638 -1.93738 0
M  V30 8064 H 747.068 -4.30498 -4.275 0
M  V30 8065 H 745.807 -3.17859 -3.69887 0
M  V30 8066 H 744.812 -5 -2.28648 0
M  V30 8067 H 746.037 -6.14445 -2.89197 0
M  V30 8068 H 743.983 -4.68245 -4.59437 0
M  V30 8069 H 743.9 -6.34469 -4.11078 0
M  V30 8070 H 745.168 -5.8247 -5.18024 0
M  V30 8071 N 749.397 0.351382 -1.53633 0
M  V30 8072 C 750.327 1.43688 -1.84055 0
M  V30 8073 C 751.308 1.55251 -0.695073 0
M  V30 8074 O 752.493 1.69587 -0.946257 0
M  V30 8075 C 749.623 2.80843 -2.04315 0
M  V30 8076 C 748.577 2.84094 -3.20117 0
M  V30 8077 C 747.903 4.2406 -3.25696 0
M  V30 8078 C 749.203 2.50334 -4.58399 0
M  V30 8079 H 750.897 1.18478 -2.74961 0
M  V30 8080 H 748.443 0.568509 -1.32303 0
M  V30 8081 H 750.396 3.56821 -2.2418 0
M  V30 8082 H 749.12 3.07471 -1.10132 0
M  V30 8083 H 747.779 2.10568 -3.00094 0
M  V30 8084 H 747.427 4.47785 -2.29123 0
M  V30 8085 H 747.127 4.27147 -4.03509 0
M  V30 8086 H 748.651 5.0189 -3.47762 0
M  V30 8087 H 750.065 3.16025 -4.78332 0
M  V30 8088 H 748.462 2.64717 -5.38558 0
M  V30 8089 H 749.532 1.45542 -4.62543 0
M  V30 8090 N 750.875 1.45233 0.611969 0
M  V30 8091 C 751.808 1.48056 1.73651 0
M  V30 8092 C 752.786 0.337373 1.59061 0
M  V30 8093 O 753.97 0.537222 1.80683 0
M  V30 8094 C 751.097 1.33144 3.11433 0
M  V30 8095 C 750.143 2.51272 3.44623 0
M  V30 8096 S 750.976 4.13754 3.39953 0
M  V30 8097 C 752.132 4.013 4.80322 0
M  V30 8098 H 752.365 2.43205 1.70993 0
M  V30 8099 H 749.898 1.32763 0.788246 0
M  V30 8100 H 751.856 1.25228 3.90932 0
M  V30 8101 H 750.517 0.394734 3.1161 0
M  V30 8102 H 749.71 2.36753 4.44932 0
M  V30 8103 H 749.312 2.56027 2.72629 0
M  V30 8104 H 751.604 3.66174 5.7002 0
M  V30 8105 H 752.547 5.01506 4.99897 0
M  V30 8106 H 752.955 3.3303 4.55797 0
M  V30 8107 N 752.353 -0.854086 1.3245 0
M  V30 8108 C 753.769 -1.14238 1.11453 0
M  V30 8109 C 753.969 -2.01228 -0.10461 0
M  V30 8110 O 753.025 -2.39845 -0.789339 0
M  V30 8111 C 754.338 -1.81916 2.39431 0
M  V30 8112 C 755.886 -1.94549 2.45193 0
M  V30 8113 C 756.361 -2.65642 3.73093 0
M  V30 8114 N 757.852 -2.73167 3.74078 0
M  V30 8115 C 758.587 -3.28828 4.69744 0
M  V30 8116 N 758.083 -3.85295 5.75778 0
M  V30 8117 N 759.876 -3.26936 4.57241 0
M  V30 8118 H 752.027 -0.274786 2.10615 0
M  V30 8119 H 754.29 -0.184375 0.929898 0
M  V30 8120 H 753.996 -1.25452 3.28565 0
M  V30 8121 H 753.87 -2.82068 2.50434 0
M  V30 8122 H 756.257 -2.50172 1.56518 0
M  V30 8123 H 756.338 -0.933914 2.38142 0
M  V30 8124 H 755.982 -2.10683 4.62142 0
M  V30 8125 H 755.912 -3.6724 3.77415 0
M  V30 8126 H 758.403 -2.33108 2.97438 0
M  V30 8127 H 758.716 -4.25925 6.44832 0
M  V30 8128 H 757.061 -3.83625 5.79531 0
M  V30 8129 H 760.252 -2.8207 3.7357 0
M  V30 8130 H 760.425 -3.70014 5.31971 0
M  V30 8131 N 753.831 -1.1567 -1.07043 0
M  V30 8132 C 754.741 -0.870435 -2.17855 0
M  V30 8133 C 755.757 0.154452 -1.73313 0
M  V30 8134 O 756.933 -0.0203759 -2.0139 0
M  V30 8135 C 753.998 -0.367219 -3.4475 0
M  V30 8136 C 753.059 -1.45639 -4.03841 0
M  V30 8137 C 752.292 -0.977092 -5.2468 0
M  V30 8138 O 752.515 0.176127 -5.70128 0
M  V30 8139 O 751.449 -1.76215 -5.75527 0
M  V30 8140 H 755.275 -1.79687 -2.44839 0
M  V30 8141 H 752.86 -0.936064 -1.1644 0
M  V30 8142 H 754.742 -0.0931947 -4.21297 0
M  V30 8143 H 753.417 0.53131 -3.1931 0
M  V30 8144 H 752.324 -1.78406 -3.28819 0
M  V30 8145 H 753.657 -2.32995 -4.3356 0
M  V30 8146 N 755.309 1.25446 -0.953992 0
M  V30 8147 C 756.241 2.25111 -0.431004 0
M  V30 8148 C 757.254 1.56377 0.452764 0
M  V30 8149 O 758.443 1.76579 0.261144 0
M  V30 8150 C 755.543 3.3655 0.39839 0
M  V30 8151 C 754.716 4.34843 -0.472229 0
M  V30 8152 C 753.775 5.25351 0.29886 0
M  V30 8153 O 752.801 5.68396 -0.302522 0
M  V30 8154 N 754.003 5.5824 1.59211 0
M  V30 8155 H 756.768 2.70619 -1.28785 0
M  V30 8156 H 754.329 1.39346 -0.824281 0
M  V30 8157 H 756.321 3.94059 0.921941 0
M  V30 8158 H 754.891 2.90436 1.15609 0
M  V30 8159 H 754.111 3.76222 -1.17689 0
M  V30 8160 H 755.399 4.97497 -1.06648 0
M  V30 8161 H 754.797 5.25172 2.10264 0
M  V30 8162 H 753.354 6.18336 2.06164 0
M  V30 8163 N 756.787 0.722489 1.40064 0
M  V30 8164 C 757.735 0.063329 2.32514 0
M  V30 8165 C 758.729 -0.73953 1.52405 0
M  V30 8166 O 759.935 -0.642122 1.68157 0
M  V30 8167 H 756.31 0.00167692 0.751998 0
M  V30 8168 H 758.281 0.859656 2.85749 0
M  V30 8169 C 757.03 -0.839219 3.3742 0
M  V30 8170 H 756.353 -0.230836 3.99133 0
M  V30 8171 H 757.793 -1.26827 4.04587 0
M  V30 8172 C 756.252 -1.96783 2.73456 0
M  V30 8173 O 756.782 -3.05933 2.60323 0
M  V30 8174 N 754.988 -1.75351 2.31734 0
M  V30 8175 H 754.535 -0.865787 2.42615 0
M  V30 8176 H 754.493 -2.51043 1.89275 0
M  V30 8177 N 758.265 -1.50454 0.469181 0
M  V30 8178 C 759.514 -2.01507 -0.0881425 0
M  V30 8179 C 759.827 -1.35613 -1.40956 0
M  V30 8180 O 761.033 -1.77812 -2.05171 0
M  V30 8181 C 759.489 -3.59301 -0.207596 0
M  V30 8182 C 759.097 -4.34152 1.10527 0
M  V30 8183 C 760.841 -4.18401 -0.716981 0
M  V30 8184 C 758.748 -5.83725 0.949717 0
M  V30 8185 H 757.678 -0.753106 -0.0367156 0
M  V30 8186 H 760.329 -1.73282 0.603788 0
M  V30 8187 H 758.711 -3.84106 -0.963265 0
M  V30 8188 H 759.885 -4.21073 1.87175 0
M  V30 8189 H 758.2 -3.86652 1.54562 0
M  V30 8190 H 760.797 -5.27895 -0.850363 0
M  V30 8191 H 761.14 -3.79657 -1.70782 0
M  V30 8192 H 761.673 -3.97796 -0.0187511 0
M  V30 8193 H 758.412 -6.26938 1.91387 0
M  V30 8194 H 757.932 -5.99383 0.223591 0
M  V30 8195 H 759.611 -6.44065 0.61557 0
M  V30 8196 N 759.743 -0.201713 -1.56304 0
M  V30 8197 C 760.673 0.71155 -2.22394 0
M  V30 8198 C 761.654 1.21625 -1.18917 0
M  V30 8199 O 762.839 1.26388 -1.47444 0
M  V30 8200 C 759.969 1.92837 -2.88845 0
M  V30 8201 C 758.923 1.55831 -3.98623 0
M  V30 8202 C 758.249 2.85228 -4.52271 0
M  V30 8203 C 759.549 0.763249 -5.16693 0
M  V30 8204 H 761.243 0.160573 -2.98969 0
M  V30 8205 H 758.789 0.0757916 -1.438 0
M  V30 8206 H 760.742 2.57253 -3.33764 0
M  V30 8207 H 759.466 2.50398 -2.09686 0
M  V30 8208 H 758.125 0.9377 -3.54405 0
M  V30 8209 H 757.773 3.40893 -3.69866 0
M  V30 8210 H 757.473 2.6121 -5.26349 0
M  V30 8211 H 758.997 3.50622 -4.99897 0
M  V30 8212 H 760.411 1.31066 -5.58117 0
M  V30 8213 H 758.808 0.620935 -5.96879 0
M  V30 8214 H 759.878 -0.234322 -4.84334 0
M  V30 8215 N 761.222 1.57436 0.0718424 0
M  V30 8216 C 762.185 2.02703 1.06977 0
M  V30 8217 C 763.185 0.924062 1.31597 0
M  V30 8218 O 764.375 1.18894 1.27318 0
M  V30 8219 C 761.507 2.40763 2.41342 0
M  V30 8220 H 762.7 2.92098 0.679619 0
M  V30 8221 H 760.253 1.5304 0.317565 0
M  V30 8222 H 760.988 1.54394 2.8519 0
M  V30 8223 H 760.773 3.21249 2.24814 0
M  V30 8224 H 762.263 2.76361 3.13073 0
M  V30 8225 N 762.7 -0.34323 1.53817 0
M  V30 8226 C 763.632 -1.44216 1.78141 0
M  V30 8227 C 764.645 -1.48701 0.662721 0
M  V30 8228 O 765.834 -1.51778 0.939458 0
M  V30 8229 C 762.934 -2.82872 1.86646 0
M  V30 8230 C 762.107 -3.01824 3.16577 0
M  V30 8231 C 761.166 -4.20723 3.16036 0
M  V30 8232 O 760.192 -4.14824 3.89756 0
M  V30 8233 N 761.394 -5.29276 2.38427 0
M  V30 8234 H 764.159 -1.23721 2.72971 0
M  V30 8235 H 761.72 -0.53311 1.52871 0
M  V30 8236 H 763.712 -3.60588 1.83735 0
M  V30 8237 H 762.282 -2.96509 0.990014 0
M  V30 8238 H 761.502 -2.11575 3.3261 0
M  V30 8239 H 762.79 -3.11369 4.02402 0
M  V30 8240 H 762.188 -5.36938 1.78085 0
M  V30 8241 H 760.745 -6.05484 2.41313 0
M  V30 8242 N 764.178 -1.45556 -0.604258 0
M  V30 8243 C 765.424 -1.49968 -1.36519 0
M  V30 8244 C 765.757 -0.142236 -1.93678 0
M  V30 8245 O 765.032 0.843717 -1.75247 0
M  V30 8246 C 765.315 -2.58146 -2.51063 0
M  V30 8247 C 765.168 -4.03346 -1.99078 0
M  V30 8248 C 766.487 -2.62581 -3.53184 0
M  V30 8249 H 763.606 -0.545993 -0.495036 0
M  V30 8250 H 766.248 -1.77382 -0.680845 0
M  V30 8251 H 764.398 -2.34901 -3.09441 0
M  V30 8252 H 766.07 -4.37811 -1.45323 0
M  V30 8253 H 764.313 -4.13845 -1.30055 0
M  V30 8254 H 764.984 -4.74731 -2.81664 0
M  V30 8255 H 767.46 -2.83419 -3.04652 0
M  V30 8256 H 766.336 -3.40131 -4.30816 0
M  V30 8257 H 766.597 -1.67798 -4.09019 0
M  V30 8258 N 765.656 0.84705 -1.32902 0
M  V30 8259 C 766.903 1.60176 -1.23894 0
M  V30 8260 C 767.231 1.93496 0.197341 0
M  V30 8261 O 766.486 1.58173 1.15238 0
M  V30 8262 C 766.785 2.92663 -2.05142 0
M  V30 8263 C 766.451 2.7874 -3.54422 0
M  V30 8264 C 765.113 2.7465 -3.95121 0
M  V30 8265 C 767.465 2.64128 -4.49317 0
M  V30 8266 C 764.793 2.53837 -5.28946 0
M  V30 8267 C 767.145 2.44849 -5.83294 0
M  V30 8268 C 765.809 2.39156 -6.23186 0
M  V30 8269 H 765.079 0.586127 -0.453361 0
M  V30 8270 H 767.726 0.981994 -1.64405 0
M  V30 8271 H 766.031 3.588 -1.57383 0
M  V30 8272 H 767.728 3.50095 -1.95537 0
M  V30 8273 H 764.318 2.82751 -3.22102 0
M  V30 8274 H 768.502 2.66327 -4.18788 0
M  V30 8275 H 763.758 2.4787 -5.58901 0
M  V30 8276 H 767.932 2.32524 -6.56434 0
M  V30 8277 H 765.559 2.22789 -7.26821 0
M  V30 8278 N 767.134 1.16236 1.06428 0
M  V30 8279 C 768.382 0.941171 1.78847 0
M  V30 8280 C 768.703 -0.53248 1.87589 0
M  V30 8281 O 767.973 -1.38686 1.38358 0
M  V30 8282 H 766.553 0.345228 0.66244 0
M  V30 8283 H 769.215 1.46479 1.28569 0
M  V30 8284 H 768.311 1.35871 2.80972 0
M  V30 8285 N 768.612 -1.24939 0.960631 0
M  V30 8286 C 769.861 -1.92118 0.614298 0
M  V30 8287 C 770.174 -1.75998 -0.853474 0
M  V30 8288 O 771.38 -2.37804 -1.31003 0
M  V30 8289 C 769.836 -3.44303 1.04801 0
M  V30 8290 C 769.444 -3.69123 2.53875 0
M  V30 8291 C 771.188 -4.17375 0.774497 0
M  V30 8292 C 769.095 -5.14843 2.91016 0
M  V30 8293 H 768.025 -0.719319 0.226045 0
M  V30 8294 H 770.676 -1.41701 1.16589 0
M  V30 8295 H 769.058 -3.93715 0.42479 0
M  V30 8296 H 770.232 -3.30339 3.21267 0
M  V30 8297 H 768.547 -3.09323 2.78762 0
M  V30 8298 H 771.144 -5.24723 1.02808 0
M  V30 8299 H 771.487 -4.15294 -0.289192 0
M  V30 8300 H 772.02 -3.7389 1.35835 0
M  V30 8301 H 768.759 -5.2204 3.96427 0
M  V30 8302 H 768.279 -5.54652 2.28302 0
M  V30 8303 H 769.958 -5.83017 2.80535 0
M  V30 8304 N 770.09 -0.729906 -1.39679 0
M  V30 8305 C 771.02 -0.101618 -2.33279 0
M  V30 8306 C 772.001 0.729854 -1.53646 0
M  V30 8307 O 773.186 0.67587 -1.82059 0
M  V30 8308 C 770.316 0.81024 -3.37716 0
M  V30 8309 C 769.27 0.0833126 -4.27919 0
M  V30 8310 C 768.596 1.11185 -5.23012 0
M  V30 8311 C 769.896 -1.07107 -5.112 0
M  V30 8312 H 771.59 -0.883452 -2.86069 0
M  V30 8313 H 769.136 -0.426283 -1.37546 0
M  V30 8314 H 771.089 1.25927 -4.02145 0
M  V30 8315 H 769.813 1.62413 -2.83354 0
M  V30 8316 H 768.472 -0.346043 -3.64963 0
M  V30 8317 H 768.12 1.91917 -4.64948 0
M  V30 8318 H 767.82 0.63026 -5.8421 0
M  V30 8319 H 769.344 1.56068 -5.90318 0
M  V30 8320 H 770.758 -0.700726 -5.69002 0
M  V30 8321 H 769.155 -1.48196 -5.81514 0
M  V30 8322 H 770.225 -1.89513 -4.46332 0
M  V30 8323 N 771.568 1.50203 -0.477153 0
M  V30 8324 C 772.515 2.28656 0.31386 0
M  V30 8325 C 773.485 1.33977 0.981802 0
M  V30 8326 O 774.67 1.62919 0.993072 0
M  V30 8327 C 771.81 3.16027 1.38639 0
M  V30 8328 C 770.923 4.25743 0.732615 0
M  V30 8329 C 770.058 5.00363 1.78355 0
M  V30 8330 C 769.097 6.01945 1.11035 0
M  V30 8331 N 768.234 6.6982 2.10441 0
M  V30 8332 H 773.074 2.958 -0.361445 0
M  V30 8333 H 770.611 1.45867 -0.190093 0
M  V30 8334 H 772.569 3.6504 2.01994 0
M  V30 8335 H 771.199 2.50917 2.03077 0
M  V30 8336 H 770.251 3.80398 -0.0136546 0
M  V30 8337 H 771.563 4.98393 0.201513 0
M  V30 8338 H 770.717 5.53124 2.49276 0
M  V30 8339 H 769.456 4.27432 2.34847 0
M  V30 8340 H 768.461 5.48438 0.386797 0
M  V30 8341 H 769.686 6.76851 0.552248 0
M  V30 8342 H 767.632 5.99677 2.65939 0
M  V30 8343 H 767.549 7.38366 1.62332 0
M  V30 8344 H 768.817 7.27196 2.80724 0
M  V30 8345 N 773.046 0.209999 1.56195 0
M  V30 8346 C 774.009 -0.691232 2.18528 0
M  V30 8347 C 775.009 -1.13013 1.14388 0
M  V30 8348 O 776.199 -1.04081 1.39688 0
M  V30 8349 C 773.331 -1.94551 2.79934 0
M  V30 8350 H 774.524 -0.147953 2.99535 0
M  V30 8351 H 772.077 -0.0396243 1.5625 0
M  V30 8352 H 772.812 -2.53094 2.02766 0
M  V30 8353 H 772.597 -1.63938 3.56184 0
M  V30 8354 H 774.087 -2.58785 3.2775 0
M  V30 8355 N 774.524 -1.57472 -0.0634922 0
M  V30 8356 C 775.935 -1.76303 -0.614337 0
M  V30 8357 C 776.286 -0.836578 -1.77471 0
M  V30 8358 O 775.411 -0.0227184 -2.16388 0
M  V30 8359 C 776.006 -3.19709 -1.12122 0
M  V30 8360 C 774.565 -3.39856 -1.61786 0
M  V30 8361 C 773.712 -2.71975 -0.540845 0
M  V30 8362 H 776.663 -1.57864 0.162702 0
M  V30 8363 H 776.684 -3.24326 -1.98979 0
M  V30 8364 H 776.196 -3.87114 -0.276472 0
M  V30 8365 H 774.297 -2.77578 -2.48558 0
M  V30 8366 H 774.41 -4.48338 -1.68908 0
M  V30 8367 H 772.774 -2.34763 -0.987854 0
M  V30 8368 H 773.557 -3.4204 0.293856 0
M  V30 8369 N 776.003 0.335068 -1.53997 0
M  V30 8370 C 777.25 1.07435 -1.71651 0
M  V30 8371 C 777.578 1.88378 -0.48413 0
M  V30 8372 O 776.833 1.8827 0.534139 0
M  V30 8373 C 777.132 2.0364 -2.9371 0
M  V30 8374 C 776.798 1.38942 -4.28959 0
M  V30 8375 C 775.46 1.21027 -4.65732 0
M  V30 8376 C 777.812 0.924083 -5.12943 0
M  V30 8377 C 775.14 0.552097 -5.84097 0
M  V30 8378 C 777.492 0.27978 -6.31981 0
M  V30 8379 C 776.156 0.0883843 -6.67441 0
M  V30 8380 H 775.426 0.393133 -0.628114 0
M  V30 8381 H 778.073 0.352712 -1.88224 0
M  V30 8382 H 776.378 2.82215 -2.71775 0
M  V30 8383 H 778.075 2.6085 -3.04562 0
M  V30 8384 H 774.665 1.53885 -4.00022 0
M  V30 8385 H 778.849 1.05032 -4.85059 0
M  V30 8386 H 774.105 0.392502 -6.10139 0
M  V30 8387 H 778.279 -0.0888479 -6.96343 0
M  V30 8388 H 775.906 -0.423657 -7.59019 0
M  V30 8389 N 777.481 1.45874 0.596531 0
M  V30 8390 C 778.428 1.55389 1.70655 0
M  V30 8391 C 779.398 0.399036 1.61236 0
M  V30 8392 O 780.583 0.61396 1.80652 0
M  V30 8393 C 777.723 1.53705 3.0898 0
M  V30 8394 C 776.836 2.79823 3.29125 0
M  V30 8395 C 775.971 2.69735 4.5762 0
M  V30 8396 C 775.01 3.90856 4.71061 0
M  V30 8397 N 774.147 3.79237 5.90867 0
M  V30 8398 H 778.987 2.50211 1.61859 0
M  V30 8399 H 776.524 1.24146 0.789069 0
M  V30 8400 H 778.482 1.50715 3.89026 0
M  V30 8401 H 777.112 0.624247 3.16706 0
M  V30 8402 H 776.164 2.92852 2.42779 0
M  V30 8403 H 777.476 3.69628 3.34927 0
M  V30 8404 H 776.63 2.64773 5.45875 0
M  V30 8405 H 775.369 1.77547 4.54234 0
M  V30 8406 H 774.374 3.96164 3.81227 0
M  V30 8407 H 775.599 4.84124 4.76236 0
M  V30 8408 H 773.545 2.89825 5.88504 0
M  V30 8409 H 773.462 4.62686 5.97877 0
M  V30 8410 H 774.73 3.78227 6.8159 0
M  V30 8411 N 778.959 -0.83999 1.33349 0
M  V30 8412 C 779.869 -1.98182 1.25543 0
M  V30 8413 C 780.885 -1.73204 0.166208 0
M  V30 8414 O 782.061 -1.97596 0.389589 0
M  V30 8415 C 779.126 -3.32157 0.993614 0
M  V30 8416 C 778.187 -3.70258 2.17273 0
M  V30 8417 C 777.42 -4.9784 1.92331 0
M  V30 8418 O 777.643 -5.63679 0.873074 0
M  V30 8419 O 776.577 -5.33418 2.78835 0
M  V30 8420 H 780.403 -2.07708 2.21565 0
M  V30 8421 H 777.988 -0.972852 1.13384 0
M  V30 8422 H 779.87 -4.12433 0.864711 0
M  V30 8423 H 778.545 -3.23637 0.0636596 0
M  V30 8424 H 777.452 -2.90497 2.35716 0
M  V30 8425 H 778.785 -3.83442 3.08598 0
M  V30 8426 N 780.437 -1.16799 -1.0581 0
M  V30 8427 C 781.384 -0.87902 -2.13405 0
M  V30 8428 C 782.354 0.174541 -1.6518 0
M  V30 8429 O 783.539 0.0386843 -1.90761 0
M  V30 8430 C 780.679 -0.391616 -3.42871 0
M  V30 8431 C 779.792 -1.50857 -4.04804 0
M  V30 8432 C 778.927 -0.975682 -5.22163 0
M  V30 8433 C 777.966 -2.06851 -5.76089 0
M  V30 8434 N 777.103 -1.55085 -6.84758 0
M  V30 8435 H 781.943 -1.80043 -2.37463 0
M  V30 8436 H 779.48 -0.898083 -1.16503 0
M  V30 8437 H 781.438 -0.0906247 -4.17102 0
M  V30 8438 H 780.068 0.49284 -3.19016 0
M  V30 8439 H 779.12 -1.92542 -3.28073 0
M  V30 8440 H 780.432 -2.33305 -4.40874 0
M  V30 8441 H 779.586 -0.628165 -6.03439 0
M  V30 8442 H 778.325 -0.120566 -4.87551 0
M  V30 8443 H 777.33 -2.42467 -4.93447 0
M  V30 8444 H 778.555 -2.92768 -6.12751 0
M  V30 8445 H 776.501 -0.718345 -6.52055 0
M  V30 8446 H 776.418 -2.31145 -7.19797 0
M  V30 8447 H 777.686 -1.23206 -7.69702 0
M  V30 8448 N 781.915 1.24427 -0.967243 0
M  V30 8449 C 782.878 2.23637 -0.501927 0
M  V30 8450 C 783.878 1.55712 0.401283 0
M  V30 8451 O 785.068 1.73085 0.196808 0
M  V30 8452 C 782.2 3.39804 0.273176 0
M  V30 8453 H 783.393 2.66317 -1.37897 0
M  V30 8454 H 780.946 1.37033 -0.751783 0
M  V30 8455 H 781.681 3.02562 1.16733 0
M  V30 8456 H 781.466 3.90303 -0.37498 0
M  V30 8457 H 782.956 4.13443 0.587776 0
M  V30 8458 N 783.393 0.737304 1.3929 0
M  V30 8459 C 784.641 0.285691 2.00071 0
M  V30 8460 C 784.962 -1.13169 1.58801 0
M  V30 8461 O 784.232 -1.77104 0.837308 0
M  V30 8462 H 782.812 0.102638 0.739915 0
M  V30 8463 H 785.474 0.947775 1.70303 0
M  V30 8464 H 784.57 0.335906 3.10287 0
M  V30 8465 N 784.871 -1.49948 0.485112 0
M  V30 8466 C 785.781 -2.32587 -0.306697 0
M  V30 8467 C 786.797 -1.43598 -0.982632 0
M  V30 8468 O 787.973 -1.76638 -0.967519 0
M  V30 8469 C 785.038 -3.18638 -1.3664 0
M  V30 8470 C 784.099 -4.23462 -0.705589 0
M  V30 8471 C 783.332 -5.05401 -1.7148 0
M  V30 8472 O 783.555 -4.88618 -2.94293 0
M  V30 8473 O 782.489 -5.88157 -1.27889 0
M  V30 8474 H 786.315 -3.01447 0.369272 0
M  V30 8475 H 783.9 -1.47349 0.246709 0
M  V30 8476 H 785.782 -3.71992 -1.9799 0
M  V30 8477 H 784.457 -2.52491 -2.02559 0
M  V30 8478 H 783.364 -3.74063 -0.0527733 0
M  V30 8479 H 784.697 -4.92119 -0.0891187 0
M  V30 8480 N 786.349 -0.21828 -1.56081 0
M  V30 8481 C 787.597 0.413488 -1.97825 0
M  V30 8482 C 787.918 1.60527 -1.10707 0
M  V30 8483 O 787.188 1.9504 -0.183378 0
M  V30 8484 H 785.768 0.155757 -0.730581 0
M  V30 8485 H 788.43 -0.310413 -1.92412 0
M  V30 8486 H 787.526 0.742024 -3.03151 0
M  V30 8487 N 787.827 1.57504 0.0551401 0
M  V30 8488 C 789.052 1.92682 0.767352 0
M  V30 8489 C 789.477 0.81614 1.69472 0
M  V30 8490 O 788.835 -0.229989 1.79835 0
M  V30 8491 C 788.883 3.26866 1.52286 0
M  V30 8492 O 787.987 3.17274 2.63459 0
M  V30 8493 H 787.328 0.630502 0.208238 0
M  V30 8494 H 789.858 2.04592 0.0184026 0
M  V30 8495 H 789.868 3.61138 1.8985 0
M  V30 8496 H 788.543 4.07276 0.842541 0
M  V30 8497 H 787.12 2.94589 2.2863 0
M  V30 8498 N 789.305 -0.326896 1.54172 0
M  V30 8499 C 790.238 -1.42591 1.78166 0
M  V30 8500 C 791.216 -1.49837 0.631484 0
M  V30 8501 O 792.4 -1.67298 0.868544 0
M  V30 8502 C 789.527 -2.8071 1.89524 0
M  V30 8503 C 788.573 -2.91012 3.11792 0
M  V30 8504 S 789.406 -2.55763 4.70474 0
M  V30 8505 C 790.562 -3.9596 4.84733 0
M  V30 8506 H 790.795 -1.22024 2.71104 0
M  V30 8507 H 788.328 -0.523539 1.45253 0
M  V30 8508 H 790.286 -3.60276 1.96753 0
M  V30 8509 H 788.947 -2.98562 0.975696 0
M  V30 8510 H 788.14 -3.92258 3.16464 0
M  V30 8511 H 787.742 -2.19414 3.02876 0
M  V30 8512 H 790.034 -4.90676 4.67166 0
M  V30 8513 H 790.977 -3.96273 5.86833 0
M  V30 8514 H 791.385 -3.8476 4.13062 0
M  V30 8515 N 790.784 -1.46188 -0.588786 0
M  V30 8516 C 791.714 -1.59148 -1.70863 0
M  V30 8517 C 792.695 -0.442083 -1.64255 0
M  V30 8518 O 793.88 -0.667575 -1.82365 0
M  V30 8519 C 791.01 -1.5757 -3.09498 0
M  V30 8520 C 789.964 -2.71418 -3.30932 0
M  V30 8521 C 789.29 -2.549 -4.70032 0
M  V30 8522 C 790.59 -4.1329 -3.19356 0
M  V30 8523 H 792.284 -2.52889 -1.60274 0
M  V30 8524 H 789.83 -1.21707 -0.769638 0
M  V30 8525 H 791.783 -1.65231 -3.87655 0
M  V30 8526 H 790.507 -0.603705 -3.20972 0
M  V30 8527 H 789.166 -2.63216 -2.55172 0
M  V30 8528 H 788.814 -1.55797 -4.78264 0
M  V30 8529 H 788.514 -3.31257 -4.85327 0
M  V30 8530 H 790.038 -2.64443 -5.50366 0
M  V30 8531 H 791.452 -4.22636 -3.87365 0
M  V30 8532 H 789.849 -4.90187 -3.46175 0
M  V30 8533 H 790.919 -4.33874 -2.16522 0
M  V30 8534 N 792.262 0.832906 -1.33792 0
M  V30 8535 C 793.678 1.1245 -1.13257 0
M  V30 8536 C 793.878 2.01369 0.0725832 0
M  V30 8537 O 792.934 2.41071 0.751082 0
M  V30 8538 C 794.247 1.78084 -2.42294 0
M  V30 8539 C 795.795 1.90624 -2.48257 0
M  V30 8540 C 796.27 2.59673 -3.77271 0
M  V30 8541 N 797.761 2.67181 -3.78376 0
M  V30 8542 C 798.496 3.21313 -4.74916 0
M  V30 8543 N 797.992 3.76086 -5.81835 0
M  V30 8544 N 799.785 3.19621 -4.62384 0
M  V30 8545 H 791.936 0.241244 -2.11026 0
M  V30 8546 H 794.199 0.169557 -0.932713 0
M  V30 8547 H 793.905 1.20209 -3.30519 0
M  V30 8548 H 793.779 2.78049 -2.5489 0
M  V30 8549 H 796.166 2.4765 -1.60478 0
M  V30 8550 H 796.247 0.89591 -2.39598 0
M  V30 8551 H 795.891 2.03304 -4.65435 0
M  V30 8552 H 795.821 3.61189 -3.8321 0
M  V30 8553 H 798.312 2.28346 -3.01108 0
M  V30 8554 H 798.625 4.15612 -6.51526 0
M  V30 8555 H 796.97 3.74357 -5.85561 0
M  V30 8556 H 800.161 2.76091 -3.7801 0
M  V30 8557 H 800.334 3.61504 -5.37791 0
M  V30 8558 N 793.74 1.17359 1.05189 0
M  V30 8559 C 794.67 0.91365 2.14883 0
M  V30 8560 C 795.651 -0.144365 1.69486 0
M  V30 8561 O 796.836 0.00587861 1.94199 0
M  V30 8562 C 793.966 0.426196 3.44675 0
M  V30 8563 C 792.92 1.4234 4.03638 0
M  V30 8564 C 792.246 0.793902 5.28773 0
M  V30 8565 C 793.546 2.7966 4.41121 0
M  V30 8566 H 795.24 1.831 2.36885 0
M  V30 8567 H 792.786 0.881781 1.13845 0
M  V30 8568 H 794.739 0.231767 4.20762 0
M  V30 8569 H 793.463 -0.526693 3.22325 0
M  V30 8570 H 792.122 1.60457 3.2962 0
M  V30 8571 H 791.77 -0.165824 5.02727 0
M  V30 8572 H 791.47 1.45959 5.69183 0
M  V30 8573 H 792.994 0.609747 6.07548 0
M  V30 8574 H 794.408 2.6526 5.08242 0
M  V30 8575 H 792.805 3.42807 4.92548 0
M  V30 8576 H 793.875 3.34068 3.51464 0
M  V30 8577 N 795.218 -1.23913 0.973828 0
M  V30 8578 C 796.128 -2.28838 0.516735 0
M  V30 8579 C 797.144 -1.68723 -0.425282 0
M  V30 8580 O 798.32 -1.99201 -0.296819 0
M  V30 8581 C 795.385 -3.46233 -0.179914 0
M  V30 8582 C 794.446 -4.21729 0.80269 0
M  V30 8583 C 793.679 -5.33518 0.139191 0
M  V30 8584 O 793.902 -5.60252 -1.07118 0
M  V30 8585 O 792.836 -5.96088 0.834447 0
M  V30 8586 H 796.662 -2.70067 1.38916 0
M  V30 8587 H 794.247 -1.2972 0.74115 0
M  V30 8588 H 796.129 -4.17514 -0.570991 0
M  V30 8589 H 794.804 -3.06969 -1.02721 0
M  V30 8590 H 793.711 -3.52799 1.24434 0
M  V30 8591 H 795.044 -4.64825 1.61859 0
M  V30 8592 N 796.696 -0.74468 -1.38897 0
M  V30 8593 C 797.973 -0.222773 -1.94327 0
M  V30 8594 C 798.353 1.27731 -1.68071 0
M  V30 8595 O 797.701 2.04754 -1.01429 0
M  V30 8596 C 797.911 -0.566836 -3.44366 0
M  V30 8597 C 799.259 -0.521531 -4.21385 0
M  V30 8598 O 800.283 -0.504599 -3.52608 0
M  V30 8599 O 799.142 -0.524595 -5.43976 0
M  V30 8600 H 796.236 -0.0439259 -0.825833 0
M  V30 8601 H 798.782 -0.824197 -1.48341 0
M  V30 8602 H 797.554 -1.60321 -3.56949 0
M  V30 8603 H 797.177 0.0630577 -3.9755 0
M  V30 8604 N 798.174 1.49689 -0.493057 0
M  V30 8605 C 799.104 2.31826 0.279073 0
M  V30 8606 C 800.085 1.39733 0.969987 0
M  V30 8607 O 801.27 1.68646 0.962925 0
M  V30 8608 C 798.4 3.20046 1.34862 0
M  V30 8609 C 797.354 4.20869 0.77805 0
M  V30 8610 C 796.68 4.97971 1.94753 0
M  V30 8611 C 797.98 5.21813 -0.225543 0
M  V30 8612 H 799.674 2.96627 -0.406512 0
M  V30 8613 H 797.22 1.42647 -0.196943 0
M  V30 8614 H 799.173 3.76315 1.89645 0
M  V30 8615 H 797.897 2.53172 2.06328 0
M  V30 8616 H 796.556 3.65733 0.252036 0
M  V30 8617 H 796.204 4.27552 2.64969 0
M  V30 8618 H 795.904 5.66186 1.57187 0
M  V30 8619 H 797.428 5.57082 2.49984 0
M  V30 8620 H 798.842 5.72823 0.233864 0
M  V30 8621 H 797.239 5.97872 -0.516622 0
M  V30 8622 H 798.309 4.71209 -1.14412 0
M  V30 8623 N 799.652 0.226554 1.55963 0
M  V30 8624 C 800.9 -0.402991 1.98041 0
M  V30 8625 C 801.221 -1.59938 1.11557 0
M  V30 8626 O 800.491 -1.9494 0.193719 0
M  V30 8627 H 799.071 -0.15188 0.731397 0
M  V30 8628 H 801.733 0.320613 1.92245 0
M  V30 8629 H 800.829 -0.725937 3.0354 0
M  V30 8630 N 801.13 -1.57531 -0.0467866 0
M  V30 8631 C 802.407 -1.79568 -0.775536 0
M  V30 8632 C 802.787 -0.820322 -1.94509 0
M  V30 8633 O 802.135 0.14134 -2.28062 0
M  V30 8634 C 802.345 -3.26789 -1.22516 0
M  V30 8635 C 803.693 -3.91299 -1.64835 0
M  V30 8636 O 804.717 -3.30831 -1.3202 0
M  V30 8637 O 803.576 -4.97727 -2.25677 0
M  V30 8638 H 800.67 -0.737817 -0.373572 0
M  V30 8639 H 803.216 -1.69682 -0.0249302 0
M  V30 8640 H 801.988 -3.89357 -0.389446 0
M  V30 8641 H 801.611 -3.41496 -2.03633 0
M  V30 8642 N 802.608 0.318715 -1.54344 0
M  V30 8643 C 803.54 1.41364 -1.80413 0
M  V30 8644 C 804.553 1.47627 -0.686294 0
M  V30 8645 O 805.742 1.50264 -0.963486 0
M  V30 8646 C 802.842 2.79867 -1.91123 0
M  V30 8647 C 802.015 2.96749 -3.21339 0
M  V30 8648 C 801.074 4.15642 -3.22689 0
M  V30 8649 O 800.1 4.08571 -3.96306 0
M  V30 8650 N 801.302 5.25416 -2.46817 0
M  V30 8651 H 804.067 1.19363 -2.74905 0
M  V30 8652 H 801.628 0.508722 -1.537 0
M  V30 8653 H 803.62 3.57619 -1.89448 0
M  V30 8654 H 802.19 2.94896 -1.03706 0
M  V30 8655 H 801.41 2.06257 -3.35934 0
M  V30 8656 H 802.698 3.04927 -4.07304 0
M  V30 8657 H 802.096 5.34037 -1.86605 0
M  V30 8658 H 800.653 6.01569 -2.50915 0
M  V30 8659 N 804.086 1.46499 0.581025 0
M  V30 8660 C 805.502 1.31491 0.904563 0
M  V30 8661 C 805.702 0.287598 1.99437 0
M  V30 8662 O 804.758 -0.309247 2.50599 0
M  V30 8663 C 806.071 2.70163 1.32032 0
M  V30 8664 C 807.619 2.78266 1.43308 0
M  V30 8665 C 808.094 4.17524 1.8825 0
M  V30 8666 N 809.585 4.19949 1.9544 0
M  V30 8667 C 810.32 5.24594 2.31493 0
M  V30 8668 N 809.816 6.39564 2.66326 0
M  V30 8669 N 811.609 5.11961 2.32062 0
M  V30 8670 H 803.76 2.11946 -0.138856 0
M  V30 8671 H 806.023 0.948 0.000548528 0
M  V30 8672 H 805.729 3.46655 0.593554 0
M  V30 8673 H 805.603 3.00379 2.2815 0
M  V30 8674 H 807.99 2.02061 2.15071 0
M  V30 8675 H 808.071 2.51732 0.45438 0
M  V30 8676 H 807.715 4.94225 1.17065 0
M  V30 8677 H 807.645 4.41466 2.87081 0
M  V30 8678 H 810.136 3.36996 1.71004 0
M  V30 8679 H 810.449 7.15187 2.92793 0
M  V30 8680 H 808.794 6.42923 2.6396 0
M  V30 8681 H 811.985 4.21177 2.04272 0
M  V30 8682 H 812.158 5.93626 2.5983 0
M  V30 8683 N 805.565 -0.825799 1.34232 0
M  V30 8684 C 806.795 -1.61129 1.29309 0
M  V30 8685 C 807.203 -1.88714 -0.135589 0
M  V30 8686 O 806.546 -1.47703 -1.09222 0
M  V30 8687 C 806.608 -2.97866 2.01287 0
M  V30 8688 C 806.272 -2.9319 3.50555 0
M  V30 8689 C 807.269 -2.67978 4.45515 0
M  V30 8690 C 804.954 -3.12913 3.92926 0
M  V30 8691 C 806.948 -2.62536 5.80822 0
M  V30 8692 C 804.635 -3.07096 5.28333 0
M  V30 8693 C 805.633 -2.8194 6.22092 0
M  V30 8694 O 805.321 -2.7605 7.55018 0
M  V30 8695 H 805.053 -0.507652 0.446391 0
M  V30 8696 H 807.607 -1.03575 1.77374 0
M  V30 8697 H 805.837 -3.57327 1.47832 0
M  V30 8698 H 807.526 -3.58848 1.89691 0
M  V30 8699 H 808.292 -2.52478 4.14101 0
M  V30 8700 H 804.171 -3.3151 3.20347 0
M  V30 8701 H 807.715 -2.42821 6.53975 0
M  V30 8702 H 803.612 -3.22148 5.59367 0
M  V30 8703 H 804.38 -2.91798 7.6472 0
M  V30 8704 N 807.043 -1.17915 -1.04565 0
M  V30 8705 C 808.006 -0.903787 -2.10628 0
M  V30 8706 C 809.006 0.10873 -1.60432 0
M  V30 8707 O 810.196 -0.124152 -1.73757 0
M  V30 8708 C 807.328 -0.355017 -3.39046 0
M  V30 8709 H 808.521 -1.84425 -2.3649 0
M  V30 8710 H 806.074 -0.990477 -1.2091 0
M  V30 8711 H 806.809 0.592297 -3.18845 0
M  V30 8712 H 806.594 -1.08484 -3.76794 0
M  V30 8713 H 808.084 -0.180891 -4.17208 0
M  V30 8714 N 808.521 1.23394 -0.980386 0
M  V30 8715 C 809.932 1.73631 -0.686239 0
M  V30 8716 C 810.283 1.79259 0.797541 0
M  V30 8717 O 809.408 1.43046 1.62379 0
M  V30 8718 C 810.003 3.15332 -1.239 0
M  V30 8719 C 808.562 3.63024 -0.994494 0
M  V30 8720 C 807.709 2.41279 -1.36673 0
M  V30 8721 H 810.66 1.08918 -1.15423 0
M  V30 8722 H 810.681 3.75556 -0.611414 0
M  V30 8723 H 810.193 3.11204 -2.31892 0
M  V30 8724 H 808.294 3.72535 0.0693492 0
M  V30 8725 H 808.407 4.49825 -1.64906 0
M  V30 8726 H 806.771 2.42295 -0.785195 0
M  V30 8727 H 807.554 2.39822 -2.45642 0
M  V30 8728 N 809.999 0.752036 1.385 0
M  V30 8729 C 811.229 0.317812 2.04141 0
M  V30 8730 C 811.637 -1.05822 1.56839 0
M  V30 8731 O 810.98 -1.68311 0.736016 0
M  V30 8732 C 811.042 0.260205 3.58557 0
M  V30 8733 C 810.706 1.57753 4.28909 0
M  V30 8734 C 811.703 2.52642 4.54387 0
M  V30 8735 C 809.388 1.84653 4.67128 0
M  V30 8736 C 811.382 3.72653 5.17116 0
M  V30 8737 C 809.069 3.04938 5.29581 0
M  V30 8738 C 810.067 3.98759 5.54509 0
M  V30 8739 O 809.755 5.16929 6.15662 0
M  V30 8740 H 809.487 0.133931 0.6626 0
M  V30 8741 H 812.041 1.02138 1.78205 0
M  V30 8742 H 810.271 -0.499596 3.83459 0
M  V30 8743 H 811.96 -0.144295 4.05643 0
M  V30 8744 H 812.726 2.33135 4.25292 0
M  V30 8745 H 808.605 1.12464 4.47071 0
M  V30 8746 H 812.149 4.45898 5.36489 0
M  V30 8747 H 808.046 3.24339 5.58099 0
M  V30 8748 H 808.814 5.1749 6.3415 0
M  V30 8749 N 811.477 -1.49425 0.500989 0
M  V30 8750 C 812.424 -2.29126 -0.277443 0
M  V30 8751 C 813.394 -1.35522 -0.960363 0
M  V30 8752 O 814.579 -1.64479 -0.967027 0
M  V30 8753 C 811.719 -3.18193 -1.33593 0
M  V30 8754 C 810.832 -4.26854 -0.664791 0
M  V30 8755 C 809.967 -5.03137 -1.70372 0
M  V30 8756 C 809.006 -6.03635 -1.01445 0
M  V30 8757 N 808.143 -6.73083 -1.99758 0
M  V30 8758 H 812.983 -2.95187 0.408458 0
M  V30 8759 H 810.52 -1.45546 0.213275 0
M  V30 8760 H 812.478 -3.68207 -1.96161 0
M  V30 8761 H 811.108 -2.54116 -1.9906 0
M  V30 8762 H 810.16 -3.80328 0.0741708 0
M  V30 8763 H 811.472 -4.9865 -0.122197 0
M  V30 8764 H 810.626 -5.5702 -2.40445 0
M  V30 8765 H 809.365 -4.31114 -2.28017 0
M  V30 8766 H 808.37 -5.48984 -0.299496 0
M  V30 8767 H 809.595 -6.77644 -0.444497 0
M  V30 8768 H 807.541 -6.03832 -2.56365 0
M  V30 8769 H 807.458 -7.40855 -1.50565 0
M  V30 8770 H 808.726 -7.3157 -2.69119 0
M  V30 8771 N 812.955 -0.234822 -1.55841 0
M  V30 8772 C 814.185 0.397168 -2.02746 0
M  V30 8773 C 814.593 1.52951 -1.11367 0
M  V30 8774 O 813.936 1.8332 -0.118133 0
M  V30 8775 C 813.998 0.977748 -3.45948 0
M  V30 8776 C 813.662 -0.0208193 -4.56995 0
M  V30 8777 C 814.659 -0.826015 -5.13296 0
M  V30 8778 C 812.344 -0.143416 -5.02095 0
M  V30 8779 C 814.338 -1.74038 -6.1318 0
M  V30 8780 C 812.025 -1.0613 -6.01814 0
M  V30 8781 C 813.023 -1.85832 -6.57233 0
M  V30 8782 O 812.711 -2.76075 -7.55008 0
M  V30 8783 H 812.443 0.0999802 -0.668566 0
M  V30 8784 H 814.997 -0.352673 -2.0235 0
M  V30 8785 H 813.227 1.77693 -3.43456 0
M  V30 8786 H 814.916 1.51854 -3.76424 0
M  V30 8787 H 815.682 -0.741822 -4.79293 0
M  V30 8788 H 811.561 0.466857 -4.5863 0
M  V30 8789 H 815.105 -2.36291 -6.56363 0
M  V30 8790 H 811.002 -1.14646 -6.35237 0
M  V30 8791 H 811.77 -2.703 -7.7258 0
M  V30 8792 N 814.433 1.57553 0.0384317 0
M  V30 8793 C 815.366 2.01307 1.07475 0
M  V30 8794 C 816.344 0.895717 1.35704 0
M  V30 8795 O 817.528 1.16079 1.48519 0
M  V30 8796 C 814.655 2.37817 2.41165 0
M  V30 8797 C 813.701 3.599 2.28855 0
M  V30 8798 S 814.534 5.09418 1.65086 0
M  V30 8799 C 815.69 5.49162 3.00286 0
M  V30 8800 H 815.923 2.88892 0.702034 0
M  V30 8801 H 813.456 1.52394 0.248103 0
M  V30 8802 H 815.414 2.59524 3.18053 0
M  V30 8803 H 814.075 1.507 2.75587 0
M  V30 8804 H 813.268 3.83071 3.27525 0
M  V30 8805 H 812.87 3.37996 1.60109 0
M  V30 8806 H 815.162 5.49274 3.96617 0
M  V30 8807 H 816.105 6.49586 2.81858 0
M  V30 8808 H 816.513 4.76653 3.02427 0
M  V30 8809 N 815.911 -0.310526 1.54511 0
M  V30 8810 C 816.841 -1.38757 1.878 0
M  V30 8811 C 817.822 -1.53353 0.735991 0
M  V30 8812 O 819.007 -1.67018 0.990887 0
M  V30 8813 C 816.137 -2.75327 2.11689 0
M  V30 8814 C 815.091 -2.75506 3.27537 0
M  V30 8815 C 814.417 -4.15275 3.36824 0
M  V30 8816 C 815.717 -2.38093 4.64875 0
M  V30 8817 H 817.411 -1.11146 2.78005 0
M  V30 8818 H 814.957 -0.533232 1.33763 0
M  V30 8819 H 816.91 -3.50752 2.33562 0
M  V30 8820 H 815.634 -3.04443 1.18245 0
M  V30 8821 H 814.293 -2.02538 3.05572 0
M  V30 8822 H 813.941 -4.41553 2.40915 0
M  V30 8823 H 813.641 -4.16299 4.14692 0
M  V30 8824 H 815.165 -4.92493 3.60947 0
M  V30 8825 H 816.579 -3.03232 4.86542 0
M  V30 8826 H 814.976 -2.50345 5.45387 0
M  V30 8827 H 816.046 -1.33227 4.66239 0
M  V30 8828 N 817.389 -1.46805 -0.573248 0
M  V30 8829 C 818.805 -1.31969 -0.897577 0
M  V30 8830 C 819.005 -0.298171 -1.99282 0
M  V30 8831 O 818.061 0.295953 -2.5076 0
M  V30 8832 C 819.374 -2.70859 -1.30598 0
M  V30 8833 C 820.922 -2.79022 -1.4183 0
M  V30 8834 C 821.397 -4.18516 -1.86033 0
M  V30 8835 N 822.888 -4.2098 -1.9321 0
M  V30 8836 C 823.623 -5.25814 -2.28707 0
M  V30 8837 N 823.119 -6.40968 -2.6293 0
M  V30 8838 N 824.912 -5.13184 -2.29343 0
M  V30 8839 H 817.063 -2.11869 0.150094 0
M  V30 8840 H 819.326 -0.947989 0.00447895 0
M  V30 8841 H 819.032 -3.46965 -0.575161 0
M  V30 8842 H 818.906 -3.01585 -2.26554 0
M  V30 8843 H 821.293 -2.03198 -2.13996 0
M  V30 8844 H 821.374 -2.51969 -0.441024 0
M  V30 8845 H 821.018 -4.94839 -1.14442 0
M  V30 8846 H 820.948 -4.42982 -2.84735 0
M  V30 8847 H 823.439 -3.37898 -1.69214 0
M  V30 8848 H 823.752 -7.16729 -2.88996 0
M  V30 8849 H 822.097 -6.44314 -2.60547 0
M  V30 8850 H 825.288 -4.22255 -2.02036 0
M  V30 8851 H 825.461 -5.94996 -2.56679 0
M  V30 8852 N 818.867 0.818669 -1.34668 0
M  V30 8853 C 819.797 1.94468 -1.29245 0
M  V30 8854 C 820.778 1.69257 -0.169101 0
M  V30 8855 O 821.963 1.90794 -0.362143 0
M  V30 8856 C 819.093 3.31001 -1.05145 0
M  V30 8857 C 818.047 3.70663 -2.13992 0
M  V30 8858 C 817.373 5.05226 -1.75074 0
M  V30 8859 C 818.673 3.82312 -3.55858 0
M  V30 8860 H 820.367 1.99263 -2.2346 0
M  V30 8861 H 817.913 0.957304 -1.07572 0
M  V30 8862 H 819.866 4.09364 -0.999949 0
M  V30 8863 H 818.59 3.26517 -0.0737312 0
M  V30 8864 H 817.249 2.94578 -2.18219 0
M  V30 8865 H 816.897 4.97233 -0.759518 0
M  V30 8866 H 816.597 5.32734 -2.47928 0
M  V30 8867 H 818.121 5.86042 -1.71427 0
M  V30 8868 H 819.535 4.50935 -3.5402 0
M  V30 8869 H 817.932 4.21278 -4.2737 0
M  V30 8870 H 819.002 2.84193 -3.9289 0
M  V30 8871 N 820.346 1.18468 1.03938 0
M  V30 8872 C 821.586 0.991823 1.78724 0
M  V30 8873 C 821.95 -0.470115 1.86156 0
M  V30 8874 O 823.151 -0.782451 2.5716 0
M  V30 8875 C 821.422 1.63018 3.18056 0
M  V30 8876 S 822.981 1.58527 4.09163 0
M  V30 8877 H 819.799 0.356137 0.615376 0
M  V30 8878 H 822.401 1.50634 1.24618 0
M  V30 8879 H 821.105 2.68642 3.10258 0
M  V30 8880 H 820.636 1.11601 3.77238 0
M  V30 8881 H 822.651 0.602059 4.92534 0
M  V30 8882 N 821.824 -1.22873 0.986916 0
M  V30 8883 C 823.054 -1.95204 0.67668 0
M  V30 8884 C 823.462 -1.73193 -0.761641 0
M  V30 8885 O 822.805 -1.0243 -1.52492 0
M  V30 8886 C 822.867 -3.48173 0.895302 0
M  V30 8887 C 822.531 -3.93912 2.31695 0
M  V30 8888 C 823.528 -4.02064 3.29607 0
M  V30 8889 C 821.213 -4.26722 2.64978 0
M  V30 8890 C 823.207 -4.42391 4.58878 0
M  V30 8891 C 820.894 -4.66729 3.94471 0
M  V30 8892 C 821.892 -4.74531 4.91232 0
M  V30 8893 O 821.58 -5.13636 6.18412 0
M  V30 8894 H 821.312 -0.628105 0.24992 0
M  V30 8895 H 823.866 -1.5714 1.32274 0
M  V30 8896 H 822.096 -3.86223 0.192072 0
M  V30 8897 H 823.785 -4.01717 0.581233 0
M  V30 8898 H 824.551 -3.76912 3.05225 0
M  V30 8899 H 820.43 -4.19858 1.9037 0
M  V30 8900 H 823.974 -4.48395 5.34404 0
M  V30 8901 H 819.871 -4.91332 4.18645 0
M  V30 8902 H 820.639 -5.31728 6.2226 0
M  V30 8903 N 823.302 -0.75937 -1.38099 0
M  V30 8904 C 824.718 -0.437606 -1.53483 0
M  V30 8905 C 824.918 1.04849 -1.72072 0
M  V30 8906 O 823.974 1.83448 -1.73502 0
M  V30 8907 C 825.287 -1.24189 -2.73857 0
M  V30 8908 C 826.835 -1.23255 -2.8771 0
M  V30 8909 C 827.31 -2.01992 -4.11051 0
M  V30 8910 N 828.801 -1.99282 -4.1814 0
M  V30 8911 C 829.536 -2.56996 -5.12583 0
M  V30 8912 N 829.032 -3.23446 -6.12662 0
M  V30 8913 N 830.825 -2.46894 -5.04975 0
M  V30 8914 H 822.976 -1.72242 -1.24283 0
M  V30 8915 H 825.239 -0.730507 -0.604205 0
M  V30 8916 H 824.945 -2.29449 -2.66545 0
M  V30 8917 H 824.819 -0.862672 -3.67203 0
M  V30 8918 H 827.206 -0.187988 -2.94501 0
M  V30 8919 H 827.287 -1.65132 -1.95359 0
M  V30 8920 H 826.931 -3.06462 -4.05023 0
M  V30 8921 H 826.861 -1.57505 -5.02494 0
M  V30 8922 H 829.352 -1.50893 -3.46467 0
M  V30 8923 H 829.665 -3.6489 -6.81231 0
M  V30 8924 H 828.01 -3.27543 -6.12977 0
M  V30 8925 H 831.201 -1.94604 -4.25731 0
M  V30 8926 H 831.374 -2.92168 -5.78396 0
M  V30 8927 N 824.78 1.49157 -0.508906 0
M  V30 8928 C 826.026 2.02773 0.0328469 0
M  V30 8929 C 826.359 1.38714 1.35912 0
M  V30 8930 O 825.634 0.525536 1.87266 0
M  V30 8931 C 825.917 3.59664 0.177088 0
M  V30 8932 C 825.77 4.34239 -1.17287 0
M  V30 8933 C 827.089 4.30505 0.913977 0
M  V30 8934 H 824.208 0.736926 0.0104631 0
M  V30 8935 H 826.85 1.781 -0.661851 0
M  V30 8936 H 825 3.80818 0.768774 0
M  V30 8937 H 826.672 4.24561 -1.80404 0
M  V30 8938 H 824.915 3.96486 -1.76016 0
M  V30 8939 H 825.586 5.42397 -1.02516 0
M  V30 8940 H 828.062 4.14054 0.412084 0
M  V30 8941 H 826.938 5.40012 0.983759 0
M  V30 8942 H 827.199 3.96302 1.95951 0
M  V30 8943 N 826.258 0.243083 1.55714 0
M  V30 8944 C 827.188 -0.652336 2.24203 0
M  V30 8945 C 828.169 -1.1843 1.221 0
M  V30 8946 O 829.354 -1.22435 1.50743 0
M  V30 8947 C 826.484 -1.85111 2.93856 0
M  V30 8948 C 825.438 -1.45208 4.02615 0
M  V30 8949 C 824.764 -2.73137 4.59674 0
M  V30 8950 C 826.064 -0.625988 5.18535 0
M  V30 8951 H 827.758 -0.0812504 2.9929 0
M  V30 8952 H 825.304 -0.0376388 1.43951 0
M  V30 8953 H 827.257 -2.48314 3.40468 0
M  V30 8954 H 825.981 -2.44751 2.16251 0
M  V30 8955 H 824.64 -0.843406 3.56766 0
M  V30 8956 H 824.288 -3.30967 3.78774 0
M  V30 8957 H 823.988 -2.47163 5.33089 0
M  V30 8958 H 825.512 -3.37245 5.09017 0
M  V30 8959 H 826.926 -1.16223 5.61396 0
M  V30 8960 H 825.323 -0.462465 5.98315 0
M  V30 8961 H 826.393 0.362652 4.83542 0
M  V30 8962 N 827.736 -1.57571 -0.0300757 0
M  V30 8963 C 829.152 -1.54869 -0.385703 0
M  V30 8964 C 829.352 -0.969068 -1.76667 0
M  V30 8965 O 828.408 -0.589676 -2.45518 0
M  V30 8966 C 829.721 -2.99313 -0.288482 0
M  V30 8967 C 831.269 -3.10857 -0.365638 0
M  V30 8968 C 831.744 -4.5703 -0.297878 0
M  V30 8969 N 833.235 -4.61825 -0.356703 0
M  V30 8970 C 833.97 -5.72466 -0.327146 0
M  V30 8971 N 833.466 -6.92349 -0.249941 0
M  V30 8972 N 835.259 -5.60836 -0.376801 0
M  V30 8973 H 827.41 -1.936 0.87367 0
M  V30 8974 H 829.673 -0.887924 0.332106 0
M  V30 8975 H 829.379 -3.45443 0.66047 0
M  V30 8976 H 829.253 -3.61332 -1.08253 0
M  V30 8977 H 831.64 -2.64676 -1.30502 0
M  V30 8978 H 831.721 -2.51671 0.457744 0
M  V30 8979 H 831.365 -5.03879 0.637835 0
M  V30 8980 H 831.295 -5.14127 -1.13935 0
M  V30 8981 H 833.786 -3.75571 -0.418926 0
M  V30 8982 H 834.099 -7.7245 -0.23246 0
M  V30 8983 H 832.444 -6.94664 -0.216004 0
M  V30 8984 H 835.635 -4.66073 -0.435101 0
M  V30 8985 H 835.808 -6.47052 -0.350298 0
M  V30 8986 N 829.214 0.302327 -1.54673 0
M  V30 8987 C 830.164 1.37443 -1.81916 0
M  V30 8988 C 831.148 1.45999 -0.676251 0
M  V30 8989 O 832.34 1.50174 -0.93685 0
M  V30 8990 C 829.469 2.73966 -2.06876 0
M  V30 8991 C 828.555 2.69637 -3.27348 0
M  V30 8992 N 828.946 2.34926 -4.47933 0
M  V30 8993 C 827.244 3.00742 -3.29348 0
M  V30 8994 C 827.945 2.39862 -5.29944 0
M  V30 8995 N 826.921 2.77163 -4.67634 0
M  V30 8996 H 830.723 1.09567 -2.72713 0
M  V30 8997 H 828.237 0.5109 -1.54154 0
M  V30 8998 H 830.234 3.51265 -2.2454 0
M  V30 8999 H 828.894 3.02754 -1.17346 0
M  V30 9000 H 829.905 2.07403 -4.74557 0
M  V30 9001 H 826.582 3.34434 -2.49921 0
M  V30 9002 H 827.972 2.15835 -6.3629 0
M  V30 9003 N 830.692 1.47107 0.565454 0
M  V30 9004 C 831.917 1.57153 1.35343 0
M  V30 9005 C 832.342 0.219247 1.86818 0
M  V30 9006 O 831.7 -0.803539 1.62521 0
M  V30 9007 C 831.748 2.59387 2.50501 0
M  V30 9008 O 830.852 2.14086 3.52478 0
M  V30 9009 H 830.193 0.528209 0.402357 0
M  V30 9010 H 832.723 1.92821 0.684189 0
M  V30 9011 H 832.733 2.79546 2.97184 0
M  V30 9012 H 831.408 3.57579 2.12391 0
M  V30 9013 H 829.985 2.03991 3.12157 0
M  V30 9014 N 832.17 -0.811516 1.35101 0
M  V30 9015 C 833.102 -1.93102 1.23468 0
M  V30 9016 C 834.115 -1.62021 0.159095 0
M  V30 9017 O 835.304 -1.73682 0.411945 0
M  V30 9018 C 832.404 -3.27345 0.877404 0
M  V30 9019 C 831.577 -3.86368 2.05033 0
M  V30 9020 C 830.636 -4.99009 1.66963 0
M  V30 9021 O 829.662 -5.16698 2.38772 0
M  V30 9022 N 830.864 -5.7749 0.590394 0
M  V30 9023 H 833.629 -2.0361 2.19916 0
M  V30 9024 H 831.19 -0.988687 1.28205 0
M  V30 9025 H 833.182 -4.00163 0.604298 0
M  V30 9026 H 831.752 -3.126 0.00275267 0
M  V30 9027 H 830.972 -3.05804 2.48752 0
M  V30 9028 H 832.26 -4.22533 2.83449 0
M  V30 9029 H 831.658 -5.657 -0.00633259 0
M  V30 9030 H 830.215 -6.50708 0.377055 0
M  V30 9031 N 833.648 -1.19017 -1.03309 0
M  V30 9032 C 834.58 -0.881847 -2.11556 0
M  V30 9033 C 835.593 0.123711 -1.62329 0
M  V30 9034 O 836.782 -0.105141 -1.7819 0
M  V30 9035 C 833.882 -0.297634 -3.37591 0
M  V30 9036 C 833.055 -1.35072 -4.16022 0
M  V30 9037 C 832.114 -0.780812 -5.20375 0
M  V30 9038 O 831.14 -1.45745 -5.50224 0
M  V30 9039 N 832.342 0.417964 -5.78993 0
M  V30 9040 H 835.107 -1.81359 -2.38598 0
M  V30 9041 H 832.668 -1.0916 -1.19565 0
M  V30 9042 H 834.66 0.097374 -4.04583 0
M  V30 9043 H 833.23 0.538299 -3.0793 0
M  V30 9044 H 832.45 -1.92074 -3.4424 0
M  V30 9045 H 833.738 -2.06044 -4.65213 0
M  V30 9046 H 833.136 0.985281 -5.57054 0
M  V30 9047 H 831.693 0.754802 -6.47415 0
M  V30 9048 N 835.127 1.22348 -0.993418 0
M  V30 9049 C 836.404 1.86632 -0.585495 0
M  V30 9050 C 836.784 1.89156 0.937187 0
M  V30 9051 O 836.132 1.38247 1.81934 0
M  V30 9052 C 836.342 3.27481 -1.20652 0
M  V30 9053 C 837.69 4.03971 -1.30738 0
M  V30 9054 O 838.714 3.3675 -1.16096 0
M  V30 9055 O 837.573 5.24302 -1.54173 0
M  V30 9056 H 834.667 0.802704 -0.198984 0
M  V30 9057 H 837.213 1.30122 -1.08933 0
M  V30 9058 H 835.985 3.20281 -2.24802 0
M  V30 9059 H 835.608 3.91597 -0.688312 0
M  V30 9060 N 836.605 0.766683 1.37694 0
M  V30 9061 C 837.835 0.339446 2.03792 0
M  V30 9062 C 838.243 -1.04153 1.57952 0
M  V30 9063 O 837.586 -1.67521 0.753826 0
M  V30 9064 C 837.648 0.29822 3.58261 0
M  V30 9065 C 837.312 1.62293 4.27212 0
M  V30 9066 C 838.309 2.57447 4.51682 0
M  V30 9067 C 835.994 1.89597 4.65143 0
M  V30 9068 C 837.988 3.78117 5.13134 0
M  V30 9069 C 835.675 3.10538 5.26317 0
M  V30 9070 C 836.673 4.04617 5.50249 0
M  V30 9071 O 836.361 5.23429 6.10145 0
M  V30 9072 H 836.093 0.140952 0.661142 0
M  V30 9073 H 838.647 1.04022 1.77111 0
M  V30 9074 H 836.877 -0.458897 3.83967 0
M  V30 9075 H 838.566 -0.101263 4.05774 0
M  V30 9076 H 839.332 2.37633 4.22795 0
M  V30 9077 H 835.211 1.17199 4.45854 0
M  V30 9078 H 838.755 4.51563 5.3173 0
M  V30 9079 H 834.652 3.3024 5.54628 0
M  V30 9080 H 835.42 5.24187 6.28626 0
M  V30 9081 N 838.083 -1.48885 0.516809 0
M  V30 9082 C 839.499 -1.58651 0.173788 0
M  V30 9083 C 839.699 -1.52033 -1.32243 0
M  V30 9084 O 838.755 -1.40251 -2.09967 0
M  V30 9085 C 840.068 -2.90816 0.764628 0
M  V30 9086 C 841.616 -3.04316 0.732164 0
M  V30 9087 C 842.091 -4.39123 1.30135 0
M  V30 9088 N 843.582 -4.45656 1.26273 0
M  V30 9089 C 844.317 -5.48446 1.67317 0
M  V30 9090 N 843.813 -6.58258 2.16028 0
M  V30 9091 N 845.606 -5.39251 1.58635 0
M  V30 9092 H 837.757 -1.5143 1.48939 0
M  V30 9093 H 840.02 -0.718243 0.618733 0
M  V30 9094 H 839.726 -3.01275 1.81456 0
M  V30 9095 H 839.6 -3.76473 0.234113 0
M  V30 9096 H 841.987 -2.93478 -0.308975 0
M  V30 9097 H 842.068 -2.20303 1.3 0
M  V30 9098 H 841.712 -4.50714 2.34135 0
M  V30 9099 H 841.642 -5.21801 0.709305 0
M  V30 9100 H 844.133 -3.66879 0.906006 0
M  V30 9101 H 844.446 -7.32811 2.45374 0
M  V30 9102 H 842.791 -6.59257 2.20013 0
M  V30 9103 H 845.982 -4.52354 1.20387 0
M  V30 9104 H 846.155 -6.19229 1.90944 0
M  V30 9105 N 839.561 -0.251338 -1.55583 0
M  V30 9106 C 840.508 0.646337 -2.21565 0
M  V30 9107 C 841.478 1.16796 -1.18102 0
M  V30 9108 O 842.663 1.22162 -1.46564 0
M  V30 9109 C 839.803 1.83557 -2.92234 0
M  V30 9110 C 838.916 1.35006 -4.10363 0
M  V30 9111 C 838.051 2.4992 -4.68736 0
M  V30 9112 C 837.09 1.98253 -5.79105 0
M  V30 9113 N 836.227 3.06551 -6.31642 0
M  V30 9114 H 841.067 0.0769881 -2.97901 0
M  V30 9115 H 838.604 0.026238 -1.47077 0
M  V30 9116 H 840.562 2.53425 -3.31408 0
M  V30 9117 H 839.192 2.37733 -2.18364 0
M  V30 9118 H 838.244 0.545274 -3.76472 0
M  V30 9119 H 839.556 0.931435 -4.90026 0
M  V30 9120 H 838.71 3.27823 -5.10507 0
M  V30 9121 H 837.449 2.95086 -3.88298 0
M  V30 9122 H 836.454 1.18822 -5.36807 0
M  V30 9123 H 837.679 1.54051 -6.61396 0
M  V30 9124 H 835.625 3.51143 -5.54107 0
M  V30 9125 H 835.542 2.69033 -7.06511 0
M  V30 9126 H 836.81 3.84499 -6.78071 0
M  V30 9127 N 841.039 1.57585 0.0217189 0
M  V30 9128 C 841.987 2.08134 1.03842 0
M  V30 9129 C 842.981 0.996662 1.36978 0
M  V30 9130 O 844.187 1.18149 1.35797 0
M  V30 9131 H 840.562 0.664298 0.352438 0
M  V30 9132 H 842.533 2.92583 0.58634 0
M  V30 9133 C 841.282 2.58218 2.32849 0
M  V30 9134 H 840.605 3.41302 2.08214 0
M  V30 9135 H 842.045 2.97289 3.02316 0
M  V30 9136 C 840.504 1.48664 3.02325 0
M  V30 9137 O 841.034 0.857075 3.9245 0
M  V30 9138 N 839.24 1.21938 2.63779 0
M  V30 9139 H 838.787 1.73319 1.90574 0
M  V30 9140 H 838.745 0.488523 3.10581 0
M  V30 9141 N 842.517 -0.29412 1.54831 0
M  V30 9142 C 843.449 -1.38476 1.82639 0
M  V30 9143 C 844.462 -1.46517 0.709694 0
M  V30 9144 O 845.651 -1.48712 0.987269 0
M  V30 9145 C 842.751 -2.76791 1.95551 0
M  V30 9146 C 841.924 -2.91599 3.26019 0
M  V30 9147 C 840.983 -4.10456 3.29261 0
M  V30 9148 O 840.009 -4.02214 4.02756 0
M  V30 9149 N 841.211 -5.21422 2.55145 0
M  V30 9150 H 843.976 -1.14974 2.76769 0
M  V30 9151 H 841.537 -0.484206 1.5449 0
M  V30 9152 H 843.529 -3.5456 1.95113 0
M  V30 9153 H 842.099 -2.93209 1.08384 0
M  V30 9154 H 841.319 -2.00886 3.39173 0
M  V30 9155 H 842.607 -2.98409 4.12104 0
M  V30 9156 H 842.005 -5.31 1.95078 0
M  V30 9157 H 840.562 -5.97501 2.60454 0
M  V30 9158 N 843.995 -1.47404 -0.557645 0
M  V30 9159 C 844.905 -1.62491 -1.69216 0
M  V30 9160 C 845.921 -0.507764 -1.66426 0
M  V30 9161 O 847.097 -0.775241 -1.85882 0
M  V30 9162 C 844.162 -1.63511 -3.05721 0
M  V30 9163 C 843.223 -2.86648 -3.1958 0
M  V30 9164 C 842.456 -2.87609 -4.49574 0
M  V30 9165 O 842.679 -1.97799 -5.35006 0
M  V30 9166 O 841.613 -3.79465 -4.67215 0
M  V30 9167 H 845.439 -2.58487 -1.59431 0
M  V30 9168 H 843.024 -1.30485 -0.7276 0
M  V30 9169 H 844.906 -1.66863 -3.86956 0
M  V30 9170 H 843.581 -0.706812 -3.15889 0
M  V30 9171 H 842.488 -2.8884 -2.37744 0
M  V30 9172 H 843.821 -3.7877 -3.14316 0
M  V30 9173 N 845.473 0.80434 -1.35529 0
M  V30 9174 C 846.703 1.59052 -1.31856 0
M  V30 9175 C 847.111 1.88905 0.105549 0
M  V30 9176 O 846.454 1.49422 1.06858 0
M  V30 9177 C 846.516 2.94626 -2.06 0
M  V30 9178 C 846.18 2.87576 -3.55175 0
M  V30 9179 C 847.177 2.60856 -4.49722 0
M  V30 9180 C 844.862 3.06623 -3.97854 0
M  V30 9181 C 846.856 2.53262 -5.84925 0
M  V30 9182 C 844.543 2.98652 -5.33151 0
M  V30 9183 C 845.541 2.72007 -6.26499 0
M  V30 9184 O 845.229 2.64003 -7.59314 0
M  V30 9185 H 844.961 0.500486 -0.454411 0
M  V30 9186 H 847.515 1.0074 -1.78999 0
M  V30 9187 H 845.745 3.5493 -1.53498 0
M  V30 9188 H 847.434 3.55785 -1.95376 0
M  V30 9189 H 848.2 2.45858 -4.18066 0
M  V30 9190 H 844.079 3.26372 -3.2558 0
M  V30 9191 H 847.623 2.32386 -6.57756 0
M  V30 9192 H 843.52 3.13208 -5.64421 0
M  V30 9193 H 844.288 2.79595 -7.69265 0
M  V30 9194 N 846.951 1.19563 1.02676 0
M  V30 9195 C 848.2 0.993864 1.75514 0
M  V30 9196 C 848.513 -0.475882 1.89723 0
M  V30 9197 O 849.719 -0.796525 2.59553 0
M  V30 9198 C 848.175 1.72937 3.15628 0
M  V30 9199 C 847.783 3.23937 3.09466 0
M  V30 9200 C 849.527 1.61092 3.92746 0
M  V30 9201 C 847.434 3.90067 4.44524 0
M  V30 9202 H 846.364 0.368244 0.657961 0
M  V30 9203 H 849.015 1.43081 1.14891 0
M  V30 9204 H 847.397 1.22025 3.76731 0
M  V30 9205 H 848.571 3.81983 2.57731 0
M  V30 9206 H 846.886 3.3608 2.45843 0
M  V30 9207 H 849.483 2.07848 4.92649 0
M  V30 9208 H 849.826 0.565415 4.12442 0
M  V30 9209 H 850.359 2.09361 3.3825 0
M  V30 9210 H 847.098 4.94725 4.30032 0
M  V30 9211 H 846.618 3.36809 4.96306 0
M  V30 9212 H 848.297 3.93736 5.13401 0
M  V30 9213 N 848.429 -1.21819 0.999893 0
M  V30 9214 C 849.392 -2.22227 0.561044 0
M  V30 9215 C 850.392 -1.56722 -0.359858 0
M  V30 9216 O 851.582 -1.73546 -0.150848 0
M  V30 9217 C 848.714 -3.40409 -0.182987 0
M  V30 9218 H 849.907 -2.62567 1.44909 0
M  V30 9219 H 847.46 -1.34991 0.78785 0
M  V30 9220 H 848.195 -3.05551 -1.08671 0
M  V30 9221 H 847.98 -3.89171 0.47833 0
M  V30 9222 H 849.47 -4.14856 -0.477952 0
M  V30 9223 N 849.908 -0.773975 -1.37286 0
M  V30 9224 C 850.855 -0.159938 -2.30245 0
M  V30 9225 C 851.825 0.687356 -1.51211 0
M  V30 9226 O 853.01 0.639255 -1.79773 0
M  V30 9227 C 850.15 0.711452 -3.37687 0
M  V30 9228 C 849.263 -0.152692 -4.3173 0
M  V30 9229 C 848.398 0.723613 -5.26248 0
M  V30 9230 C 847.437 -0.14293 -6.11933 0
M  V30 9231 N 846.574 0.691479 -6.98687 0
M  V30 9232 H 851.414 -0.958182 -2.82175 0
M  V30 9233 H 848.951 -0.48411 -1.38906 0
M  V30 9234 H 850.909 1.2315 -3.9861 0
M  V30 9235 H 849.539 1.47528 -2.87116 0
M  V30 9236 H 848.591 -0.790574 -3.72094 0
M  V30 9237 H 849.903 -0.821027 -4.91997 0
M  V30 9238 H 849.057 1.31006 -5.92387 0
M  V30 9239 H 847.796 1.42562 -4.66398 0
M  V30 9240 H 846.801 -0.7419 -5.44771 0
M  V30 9241 H 848.026 -0.842305 -6.73856 0
M  V30 9242 H 845.972 1.37806 -6.41362 0
M  V30 9243 H 845.889 0.0804911 -7.55957 0
M  V30 9244 H 847.157 1.26225 -7.69212 0
M  V30 9245 N 851.386 1.48609 -0.524698 0
M  V30 9246 C 852.334 2.31205 0.254398 0
M  V30 9247 C 853.328 1.40894 0.940491 0
M  V30 9248 O 854.534 1.57827 0.865478 0
M  V30 9249 H 850.909 0.745199 0.100907 0
M  V30 9250 H 852.88 2.94804 -0.461876 0
M  V30 9251 C 851.629 3.2282 1.2916 0
M  V30 9252 H 850.952 3.92255 0.773074 0
M  V30 9253 H 852.392 3.83508 1.80825 0
M  V30 9254 C 850.851 2.4406 2.32242 0
M  V30 9255 O 851.381 2.16163 3.3858 0
M  V30 9256 N 849.587 2.05651 2.05319 0
M  V30 9257 H 849.134 2.28539 1.18861 0
M  V30 9258 H 849.092 1.53265 2.74513 0
M  V30 9259 N 852.864 0.259585 1.55447 0
M  V30 9260 C 854.111 -0.361607 1.99245 0
M  V30 9261 C 854.439 -1.57017 1.14787 0
M  V30 9262 O 853.694 -1.94658 0.201724 0
M  V30 9263 C 853.993 -0.802727 3.48269 0
M  V30 9264 C 853.659 0.299472 4.49904 0
M  V30 9265 C 852.321 0.602157 4.77418 0
M  V30 9266 C 854.673 1.04295 5.10658 0
M  V30 9267 C 852.001 1.65217 5.62957 0
M  V30 9268 C 854.353 2.08257 5.97337 0
M  V30 9269 C 853.017 2.39177 6.23178 0
M  V30 9270 H 852.287 -0.132322 0.72909 0
M  V30 9271 H 854.934 0.370059 1.8789 0
M  V30 9272 H 853.239 -1.61381 3.5702 0
M  V30 9273 H 854.936 -1.29385 3.79553 0
M  V30 9274 H 851.526 0.0534256 4.28567 0
M  V30 9275 H 855.71 0.822358 4.89439 0
M  V30 9276 H 850.966 1.89692 5.81229 0
M  V30 9277 H 855.14 2.6635 6.43452 0
M  V30 9278 H 852.767 3.20677 6.89253 0
M  V30 9279 N 854.342 -1.57594 -0.0133615 0
M  V30 9280 C 855.582 -1.91834 -0.705639 0
M  V30 9281 C 855.946 -0.859801 -1.71672 0
M  V30 9282 O 857.147 -1.08702 -2.4584 0
M  V30 9283 C 855.418 -3.31174 -1.34383 0
M  V30 9284 S 856.977 -3.87275 -2.06309 0
M  V30 9285 H 853.795 -0.671598 -0.233404 0
M  V30 9286 H 856.397 -1.95459 0.0401173 0
M  V30 9287 H 855.101 -4.06065 -0.594939 0
M  V30 9288 H 854.632 -3.3089 -2.12781 0
M  V30 9289 H 856.647 -3.67271 -3.33657 0
M  V30 9290 N 855.82 0.285905 -1.54985 0
M  V30 9291 C 857.066 1.02071 -1.75241 0
M  V30 9292 C 857.399 1.864 -0.544842 0
M  V30 9293 O 856.674 1.89034 0.457844 0
M  V30 9294 C 856.957 1.91409 -3.05016 0
M  V30 9295 C 856.81 1.10158 -4.36102 0
M  V30 9296 C 858.129 2.90335 -3.30747 0
M  V30 9297 H 855.248 0.369663 -0.637588 0
M  V30 9298 H 857.89 0.294114 -1.8771 0
M  V30 9299 H 856.04 2.53362 -2.94517 0
M  V30 9300 H 857.712 0.503756 -4.58541 0
M  V30 9301 H 855.955 0.404675 -4.31908 0
M  V30 9302 H 856.626 1.75956 -5.23205 0
M  V30 9303 H 859.102 2.38514 -3.40955 0
M  V30 9304 H 857.978 3.49997 -4.2284 0
M  V30 9305 H 858.239 3.64787 -2.49765 0
M  V30 9306 N 857.298 1.47698 0.54982 0
M  V30 9307 C 858.231 1.55288 1.67215 0
M  V30 9308 C 859.209 0.404533 1.57487 0
M  V30 9309 O 860.393 0.613372 1.78241 0
M  V30 9310 C 857.52 1.46233 3.05505 0
M  V30 9311 C 856.566 2.65662 3.33655 0
M  V30 9312 S 857.399 4.278 3.22098 0
M  V30 9313 C 858.555 4.21311 4.62869 0
M  V30 9314 H 858.788 2.50238 1.60524 0
M  V30 9315 H 856.321 1.35987 0.731227 0
M  V30 9316 H 858.279 1.41696 3.85269 0
M  V30 9317 H 856.94 0.526543 3.09655 0
M  V30 9318 H 856.133 2.55411 4.3449 0
M  V30 9319 H 855.735 2.67359 2.61524 0
M  V30 9320 H 858.027 3.90021 5.53977 0
M  V30 9321 H 858.97 5.22257 4.78177 0
M  V30 9322 H 859.378 3.52063 4.41262 0
M  V30 9323 N 858.776 -0.797141 1.35954 0
M  V30 9324 C 859.708 -1.91782 1.25509 0
M  V30 9325 C 860.721 -1.61843 0.176271 0
M  V30 9326 O 861.91 -1.73235 0.430343 0
M  V30 9327 C 859.01 -3.26396 0.912073 0
M  V30 9328 C 858.183 -3.84171 2.0912 0
M  V30 9329 C 857.242 -4.9721 1.72246 0
M  V30 9330 O 856.268 -5.14136 2.44239 0
M  V30 9331 N 857.47 -5.76831 0.651611 0
M  V30 9332 H 860.235 -2.01266 2.22063 0
M  V30 9333 H 857.796 -0.975033 1.29247 0
M  V30 9334 H 859.788 -3.99499 0.646707 0
M  V30 9335 H 858.358 -3.12579 0.0359079 0
M  V30 9336 H 857.578 -3.03148 2.51982 0
M  V30 9337 H 858.866 -4.19503 2.87914 0
M  V30 9338 H 858.264 -5.65675 0.0536678 0
M  V30 9339 H 856.821 -6.50272 0.44605 0
M  V30 9340 N 860.254 -1.20106 -1.0204 0
M  V30 9341 C 861.479 -1.0351 -1.79723 0
M  V30 9342 C 861.904 0.411328 -1.83548 0
M  V30 9343 O 861.262 1.29608 -1.26773 0
M  V30 9344 C 861.31 -1.61876 -3.22224 0
M  V30 9345 O 860.414 -0.853813 -4.03465 0
M  V30 9346 H 859.755 -0.365299 -0.554484 0
M  V30 9347 H 862.285 -1.59316 -1.28373 0
M  V30 9348 H 862.295 -1.65451 -3.72948 0
M  V30 9349 H 860.97 -2.67148 -3.18755 0
M  V30 9350 H 859.547 -0.891983 -3.62075 0
M  V30 9351 N 861.732 1.21287 -1.00634 0
M  V30 9352 C 862.664 2.2308 -0.526094 0
M  V30 9353 C 863.677 1.58157 0.386031 0
M  V30 9354 O 864.866 1.77528 0.186016 0
M  V30 9355 C 861.966 3.37937 0.255289 0
M  V30 9356 C 861.139 4.32449 -0.656236 0
M  V30 9357 C 860.198 5.26145 0.0757714 0
M  V30 9358 O 859.224 5.66601 -0.543325 0
M  V30 9359 N 860.426 5.6449 1.35391 0
M  V30 9360 H 863.191 2.64913 -1.40147 0
M  V30 9361 H 860.752 1.35724 -0.882641 0
M  V30 9362 H 862.744 3.97614 0.753977 0
M  V30 9363 H 861.314 2.95078 1.03187 0
M  V30 9364 H 860.534 3.70892 -1.3354 0
M  V30 9365 H 861.822 4.92526 -1.27653 0
M  V30 9366 H 861.22 5.33617 1.878 0
M  V30 9367 H 859.777 6.26524 1.79753 0
M  V30 9368 N 863.21 0.781244 1.36873 0
M  V30 9369 C 864.459 0.34652 1.98701 0
M  V30 9370 C 864.772 -1.08555 1.62712 0
M  V30 9371 O 865.978 -1.62213 2.17713 0
M  V30 9372 C 864.434 0.568611 3.5538 0
M  V30 9373 C 864.042 2.01156 4.003 0
M  V30 9374 C 865.786 0.197983 4.24038 0
M  V30 9375 C 863.693 2.18074 5.49725 0
M  V30 9376 H 862.623 0.125821 0.743428 0
M  V30 9377 H 865.274 0.961721 1.56279 0
M  V30 9378 H 863.656 -0.116185 3.9583 0
M  V30 9379 H 864.83 2.73209 3.71071 0
M  V30 9380 H 863.145 2.33967 3.44454 0
M  V30 9381 H 865.742 0.302778 5.33842 0
M  V30 9382 H 866.085 -0.852927 4.07469 0
M  V30 9383 H 866.618 0.835696 3.88923 0
M  V30 9384 H 863.357 3.21519 5.71232 0
M  V30 9385 H 862.877 1.50517 5.80607 0
M  V30 9386 H 864.556 1.98393 6.15832 0
M  V30 9387 N 864.689 -1.48329 0.532571 0
M  V30 9388 C 865.937 -2.021 -0.000581206 0
M  V30 9389 C 866.258 -1.4117 -1.34522 0
M  V30 9390 O 865.528 -0.578005 -1.87179 0
M  V30 9391 H 864.108 -0.746993 -0.00320281 0
M  V30 9392 H 866.77 -1.82011 0.696991 0
M  V30 9393 H 865.866 -3.11917 -0.106991 0
M  V30 9394 N 866.167 -0.267825 -1.55308 0
M  V30 9395 C 867.397 0.354073 -2.03543 0
M  V30 9396 C 867.805 1.50554 -1.14586 0
M  V30 9397 O 867.148 1.83028 -0.156991 0
M  V30 9398 C 867.21 0.904148 -3.47945 0
M  V30 9399 C 866.874 -0.11775 -4.56848 0
M  V30 9400 C 867.871 -0.934707 -5.11429 0
M  V30 9401 C 865.556 -0.249885 -5.01678 0
M  V30 9402 C 867.55 -1.87005 -6.0935 0
M  V30 9403 C 865.237 -1.18872 -5.99427 0
M  V30 9404 C 866.235 -1.99731 -6.53144 0
M  V30 9405 O 865.923 -2.92028 -7.48983 0
M  V30 9406 H 865.655 0.0857765 -0.670536 0
M  V30 9407 H 868.209 -0.395515 -2.01556 0
M  V30 9408 H 866.439 1.70368 -3.47148 0
M  V30 9409 H 868.128 1.43835 -3.79561 0
M  V30 9410 H 868.894 -0.84332 -4.77612 0
M  V30 9411 H 864.773 0.369469 -4.59517 0
M  V30 9412 H 868.317 -2.5016 -6.51203 0
M  V30 9413 H 864.214 -1.28095 -6.32663 0
M  V30 9414 H 864.982 -2.86627 -7.66673 0
M  V30 9415 N 867.645 1.57599 0.00500368 0
M  V30 9416 C 868.922 1.81561 0.727654 0
M  V30 9417 C 869.302 0.871604 1.92266 0
M  V30 9418 O 868.65 -0.0808232 2.28357 0
M  V30 9419 C 868.86 3.29922 1.13809 0
M  V30 9420 C 870.208 3.95531 1.54403 0
M  V30 9421 O 871.232 3.34215 1.23202 0
M  V30 9422 O 870.091 5.03535 2.12402 0
M  V30 9423 H 867.185 0.747462 0.353878 0
M  V30 9424 H 869.731 1.69688 -0.0200667 0
M  V30 9425 H 868.503 3.90253 0.286078 0
M  V30 9426 H 868.126 3.46775 1.94507 0
M  V30 9427 N 869.123 -0.277682 1.55134 0
M  V30 9428 C 870.372 -1.00766 1.74726 0
M  V30 9429 C 870.685 -1.87617 0.553092 0
M  V30 9430 O 871.891 -2.64058 0.631318 0
M  V30 9431 C 870.347 -1.84147 3.09221 0
M  V30 9432 C 869.955 -1.02186 4.3619 0
M  V30 9433 C 871.699 -2.56604 3.38164 0
M  V30 9434 C 869.606 -1.84978 5.61727 0
M  V30 9435 H 868.536 -0.379948 0.651273 0
M  V30 9436 H 871.187 -0.263543 1.81598 0
M  V30 9437 H 869.569 -2.62637 2.96375 0
M  V30 9438 H 870.743 -0.281459 4.5994 0
M  V30 9439 H 869.058 -0.412054 4.14356 0
M  V30 9440 H 871.655 -3.18942 4.29162 0
M  V30 9441 H 871.998 -3.26647 2.58085 0
M  V30 9442 H 872.531 -1.85147 3.52087 0
M  V30 9443 H 869.27 -1.19365 6.4454 0
M  V30 9444 H 868.79 -2.56628 5.42128 0
M  V30 9445 H 870.469 -2.42458 5.99853 0
M  V30 9446 N 870.601 -1.47988 -0.541979 0
M  V30 9447 C 871.531 -1.64503 -1.65713 0
M  V30 9448 C 872.512 -0.494116 -1.62765 0
M  V30 9449 O 873.697 -0.725256 -1.80149 0
M  V30 9450 C 870.827 -1.67337 -3.04328 0
M  V30 9451 C 869.781 -2.81809 -3.2213 0
M  V30 9452 C 869.107 -2.69724 -4.61685 0
M  V30 9453 C 870.407 -4.23241 -3.06046 0
M  V30 9454 H 872.101 -2.5786 -1.52147 0
M  V30 9455 H 869.647 -1.24094 -0.730529 0
M  V30 9456 H 871.6 -1.77481 -3.82202 0
M  V30 9457 H 870.324 -0.705514 -3.18889 0
M  V30 9458 H 868.983 -2.71201 -2.46669 0
M  V30 9459 H 868.631 -1.70934 -4.73065 0
M  V30 9460 H 868.331 -3.4653 -4.74543 0
M  V30 9461 H 869.855 -2.81818 -5.41674 0
M  V30 9462 H 871.269 -4.34746 -3.73723 0
M  V30 9463 H 869.666 -5.00952 -3.30405 0
M  V30 9464 H 870.736 -4.40543 -2.02609 0
M  V30 9465 N 872.079 0.78992 -1.36375 0
M  V30 9466 C 873.042 1.88414 -1.30509 0
M  V30 9467 C 874.042 1.59384 -0.2129 0
M  V30 9468 O 875.232 1.67805 -0.467651 0
M  V30 9469 C 872.364 3.25188 -1.02302 0
M  V30 9470 H 873.557 1.95031 -2.27822 0
M  V30 9471 H 871.11 0.987664 -1.2114 0
M  V30 9472 H 871.845 3.24254 -0.0544486 0
M  V30 9473 H 871.63 3.47647 -1.81338 0
M  V30 9474 H 873.12 4.05252 -1.00801 0
M  V30 9475 N 873.557 1.20646 1.01402 0
M  V30 9476 C 874.467 0.973385 2.13453 0
M  V30 9477 C 875.483 -0.0715865 1.73853 0
M  V30 9478 O 876.659 0.116438 2.01063 0
M  V30 9479 C 873.724 0.531285 3.42605 0
M  V30 9480 C 872.785 1.64741 3.96433 0
M  V30 9481 C 872.018 1.22631 5.1942 0
M  V30 9482 O 872.241 0.0960891 5.70319 0
M  V30 9483 O 871.175 2.03474 5.66465 0
M  V30 9484 H 875.001 1.91164 2.35987 0
M  V30 9485 H 872.586 0.990553 1.11841 0
M  V30 9486 H 874.468 0.294095 4.20373 0
M  V30 9487 H 873.143 -0.378358 3.21481 0
M  V30 9488 H 872.05 1.93891 3.19933 0
M  V30 9489 H 873.383 2.53415 4.2195 0
M  V30 9490 N 875.035 -1.20752 1.01276 0
M  V30 9491 C 876.312 -1.85676 0.615112 0
M  V30 9492 C 876.692 -1.90623 -0.906976 0
M  V30 9493 O 876.04 -1.41124 -1.79712 0
M  V30 9494 C 876.25 -3.2552 1.25847 0
M  V30 9495 C 877.598 -4.0184 1.37148 0
M  V30 9496 O 878.622 -3.3486 1.21438 0
M  V30 9497 O 877.481 -5.21783 1.62495 0
M  V30 9498 H 874.575 -0.799437 0.211729 0
M  V30 9499 H 877.121 -1.28372 1.10989 0
M  V30 9500 H 875.893 -3.16664 2.29869 0
M  V30 9501 H 875.516 -3.90452 0.750524 0
M  V30 9502 N 876.513 -0.788492 -1.36457 0
M  V30 9503 C 877.741 -0.372365 -2.03522 0
M  V30 9504 C 878.156 1.01093 -1.59454 0
M  V30 9505 O 877.513 1.64824 -0.783535 0
M  V30 9506 C 877.564 -0.425435 -3.58988 0
M  V30 9507 O 877.285 -1.75418 -4.01448 0
M  V30 9508 C 878.786 0.000180167 -4.433 0
M  V30 9509 H 876.006 -0.1536 -0.653183 0
M  V30 9510 H 878.55 -1.06708 -1.74452 0
M  V30 9511 H 876.705 0.220856 -3.8677 0
M  V30 9512 H 877.119 -1.70437 -4.96036 0
M  V30 9513 H 878.593 -0.0880919 -5.5193 0
M  V30 9514 H 879.07 1.05269 -4.26398 0
M  V30 9515 H 879.676 -0.618563 -4.20778 0
M  V30 9516 N 877.991 1.48044 -0.54043 0
M  V30 9517 C 879.24 2.01698 -0.00809961 0
M  V30 9518 C 879.553 1.42184 1.34325 0
M  V30 9519 O 880.759 1.87398 1.96454 0
M  V30 9520 C 879.215 3.59882 0.035933 0
M  V30 9521 C 878.823 4.28384 -1.31115 0
M  V30 9522 C 880.567 4.21346 0.51654 0
M  V30 9523 C 878.474 5.78529 -1.22714 0
M  V30 9524 H 877.404 0.754 0.000742174 0
M  V30 9525 H 880.055 1.70204 -0.685775 0
M  V30 9526 H 878.437 3.88264 0.778906 0
M  V30 9527 H 879.611 4.11663 -2.07051 0
M  V30 9528 H 877.926 3.78837 -1.72834 0
M  V30 9529 H 880.523 5.31351 0.597529 0
M  V30 9530 H 880.866 3.87373 1.52473 0
M  V30 9531 H 881.399 3.97432 -0.171064 0
M  V30 9532 H 878.138 6.17093 -2.21081 0
M  V30 9533 H 877.658 5.97634 -0.50931 0
M  V30 9534 H 879.337 6.40395 -0.92216 0
M  V30 9535 N 879.47 0.276058 1.55163 0
M  V30 9536 C 880.698 -0.343772 2.04024 0
M  V30 9537 C 881.113 -1.49397 1.15438 0
M  V30 9538 O 880.47 -1.81662 0.174692 0
M  V30 9539 C 880.521 -0.823885 3.51986 0
M  V30 9540 O 880.242 0.280507 4.37201 0
M  V30 9541 C 881.743 -1.51143 4.16738 0
M  V30 9542 H 878.963 -0.07828 0.666418 0
M  V30 9543 H 881.507 0.408427 2.0038 0
M  V30 9544 H 879.662 -1.52617 3.56071 0
M  V30 9545 H 880.076 -0.0887831 5.24425 0
M  V30 9546 H 881.55 -1.79878 5.2187 0
M  V30 9547 H 882.027 -2.44327 3.64967 0
M  V30 9548 H 882.633 -0.852975 4.16659 0
M  V30 9549 N 880.948 -1.576 0.00335426 0
M  V30 9550 C 881.911 -2.07576 -0.971838 0
M  V30 9551 C 882.911 -0.985796 -1.27038 0
M  V30 9552 O 884.101 -1.24833 -1.21501 0
M  V30 9553 C 881.233 -2.52003 -2.29581 0
M  V30 9554 H 882.426 -2.95008 -0.539481 0
M  V30 9555 H 879.979 -1.54381 -0.244186 0
M  V30 9556 H 880.714 -1.67825 -2.77498 0
M  V30 9557 H 880.499 -3.31609 -2.09231 0
M  V30 9558 H 881.989 -2.90983 -2.99531 0
M  V30 9559 N 882.426 0.269451 -1.5528 0
M  V30 9560 C 883.356 1.33729 -1.91413 0
M  V30 9561 C 884.337 1.51348 -0.776391 0
M  V30 9562 O 885.522 1.64332 -1.03482 0
M  V30 9563 C 882.652 2.69618 -2.18914 0
M  V30 9564 C 881.606 2.66725 -3.34726 0
M  V30 9565 C 880.932 4.06199 -3.47716 0
M  V30 9566 C 882.232 2.25684 -4.71025 0
M  V30 9567 H 883.926 1.03736 -2.80854 0
M  V30 9568 H 881.472 0.497579 -1.3513 0
M  V30 9569 H 883.425 3.44436 -2.42779 0
M  V30 9570 H 882.149 3.01201 -1.26275 0
M  V30 9571 H 880.808 1.94365 -3.10834 0
M  V30 9572 H 880.456 4.3501 -2.52537 0
M  V30 9573 H 880.156 4.05157 -4.25583 0
M  V30 9574 H 881.68 4.8275 -3.73877 0
M  V30 9575 H 883.094 2.90225 -4.94411 0
M  V30 9576 H 881.491 2.35797 -5.51833 0
M  V30 9577 H 882.561 1.20819 -4.69607 0
M  V30 9578 N 883.904 1.48273 0.534124 0
M  V30 9579 C 884.834 1.6538 1.64839 0
M  V30 9580 C 885.815 0.502741 1.62501 0
M  V30 9581 O 887 0.734799 1.79762 0
M  V30 9582 C 884.13 1.68949 3.03436 0
M  V30 9583 C 883.084 2.83513 3.20631 0
M  V30 9584 C 882.41 2.72169 4.60248 0
M  V30 9585 C 883.71 4.24858 3.03797 0
M  V30 9586 H 885.404 2.58663 1.50777 0
M  V30 9587 H 882.95 1.24479 0.723937 0
M  V30 9588 H 884.903 1.79505 3.81256 0
M  V30 9589 H 883.627 0.722415 3.1851 0
M  V30 9590 H 882.286 2.72505 2.45227 0
M  V30 9591 H 881.934 1.7344 4.72152 0
M  V30 9592 H 881.634 3.49042 4.72698 0
M  V30 9593 H 883.158 2.84687 5.40172 0
M  V30 9594 H 884.572 4.36721 3.71413 0
M  V30 9595 H 882.969 5.02697 3.27743 0
M  V30 9596 H 884.039 4.41611 2.0027 0
M  V30 9597 N 885.382 -0.782676 1.36792 0
M  V30 9598 C 886.332 -1.8855 1.28191 0
M  V30 9599 C 887.316 -1.59978 0.171984 0
M  V30 9600 O 888.508 -1.72295 0.405405 0
M  V30 9601 C 885.637 -3.25862 1.08021 0
M  V30 9602 C 884.723 -3.60422 2.2351 0
M  V30 9603 N 885.114 -3.66241 3.48857 0
M  V30 9604 C 883.412 -3.90523 2.15424 0
M  V30 9605 C 884.113 -3.97233 4.24948 0
M  V30 9606 N 883.089 -4.12567 3.53963 0
M  V30 9607 H 886.891 -1.91285 2.23131 0
M  V30 9608 H 884.405 -0.978554 1.29607 0
M  V30 9609 H 886.402 -4.04742 0.999458 0
M  V30 9610 H 885.062 -3.24399 0.139882 0
M  V30 9611 H 886.073 -3.48717 3.82906 0
M  V30 9612 H 882.75 -3.96945 1.29386 0
M  V30 9613 H 884.14 -4.08602 5.33379 0
M  V30 9614 N 886.86 -1.21182 -1.00761 0
M  V30 9615 C 887.808 -0.965728 -2.11604 0
M  V30 9616 C 888.802 0.0861028 -1.69181 0
M  V30 9617 O 890.008 -0.0650558 -1.79882 0
M  V30 9618 H 886.383 -0.295023 -0.691712 0
M  V30 9619 H 888.354 -1.90667 -2.2954 0
M  V30 9620 C 887.103 -0.544164 -3.43415 0
M  V30 9621 H 886.426 -1.34515 -3.76491 0
M  V30 9622 H 887.866 -0.411268 -4.22001 0
M  V30 9623 C 886.325 0.744583 -3.28569 0
M  V30 9624 O 886.855 1.80078 -3.59075 0
M  V30 9625 N 885.061 0.710083 -2.81791 0
M  V30 9626 H 884.608 -0.14971 -2.57165 0
M  V30 9627 H 884.566 1.57268 -2.72239 0
M  V30 9628 N 888.338 1.20213 -1.01915 0
M  V30 9629 C 889.286 2.25125 -0.584936 0
M  V30 9630 C 890.28 1.65138 0.377602 0
M  V30 9631 O 891.486 1.78294 0.247245 0
M  V30 9632 H 887.861 0.732333 -0.170858 0
M  V30 9633 H 889.832 2.59075 -1.48063 0
M  V30 9634 C 888.581 3.47651 0.058389 0
M  V30 9635 H 887.904 3.9409 -0.673263 0
M  V30 9636 H 889.344 4.2275 0.325285 0
M  V30 9637 C 887.803 3.10725 1.30199 0
M  V30 9638 O 888.333 3.22491 2.39505 0
M  V30 9639 N 886.539 2.6525 1.18706 0
M  V30 9640 H 886.086 2.55875 0.297618 0
M  V30 9641 H 886.044 2.40913 2.02011 0
M  V30 9642 N 889.816 0.795718 1.36037 0
M  V30 9643 C 891.232 0.478145 1.52269 0
M  V30 9644 C 891.432 -1.0025 1.74792 0
M  V30 9645 O 890.488 -1.78783 1.78305 0
M  V30 9646 C 891.801 1.31406 2.70468 0
M  V30 9647 C 893.349 1.3084 2.84341 0
M  V30 9648 C 893.824 2.12819 4.05551 0
M  V30 9649 N 895.315 2.10298 4.12709 0
M  V30 9650 C 896.05 2.70495 5.05589 0
M  V30 9651 N 895.546 3.39576 6.03871 0
M  V30 9652 N 897.339 2.60195 4.98252 0
M  V30 9653 H 889.49 1.75477 1.19673 0
M  V30 9654 H 891.753 0.74627 0.584624 0
M  V30 9655 H 891.459 2.36435 2.60368 0
M  V30 9656 H 891.333 0.959726 3.64786 0
M  V30 9657 H 893.72 0.266003 2.93899 0
M  V30 9658 H 893.801 1.70254 1.90912 0
M  V30 9659 H 893.445 3.17093 3.96755 0
M  V30 9660 H 893.375 1.70772 4.98141 0
M  V30 9661 H 895.866 1.60026 3.42345 0
M  V30 9662 H 896.179 3.82823 6.71317 0
M  V30 9663 H 894.524 3.43679 6.04077 0
M  V30 9664 H 897.715 2.05823 4.20422 0
M  V30 9665 H 897.888 3.074 5.70447 0
M  V30 9666 N 891.294 -1.47756 0.548274 0
M  V30 9667 C 892.241 -2.29893 -0.204408 0
M  V30 9668 C 893.211 -1.38509 -0.916761 0
M  V30 9669 O 894.396 -1.67472 -0.91421 0
M  V30 9670 C 891.536 -3.22282 -1.23403 0
M  V30 9671 C 890.649 -4.28753 -0.528654 0
M  V30 9672 C 889.784 -5.08303 -1.54279 0
M  V30 9673 C 888.823 -6.06557 -0.821893 0
M  V30 9674 N 887.96 -6.79098 -1.78243 0
M  V30 9675 H 892.8 -2.93739 0.502163 0
M  V30 9676 H 890.337 -1.44793 0.259471 0
M  V30 9677 H 892.295 -3.74262 -1.84348 0
M  V30 9678 H 890.925 -2.6032 -1.90875 0
M  V30 9679 H 889.977 -3.79899 0.195132 0
M  V30 9680 H 891.289 -4.98787 0.0365066 0
M  V30 9681 H 890.443 -5.64388 -2.22602 0
M  V30 9682 H 889.182 -4.3815 -2.14186 0
M  V30 9683 H 888.187 -5.49659 -0.12469 0
M  V30 9684 H 889.412 -6.78715 -0.228685 0
M  V30 9685 H 887.358 -6.11682 -2.37025 0
M  V30 9686 H 887.275 -7.4527 -1.26919 0
M  V30 9687 H 888.543 -7.39762 -2.45709 0
M  V30 9688 N 892.772 -0.284283 -1.55015 0
M  V30 9689 C 893.702 0.592663 -2.25853 0
M  V30 9690 C 894.683 1.15151 -1.25197 0
M  V30 9691 O 895.868 1.18395 -1.53936 0
M  V30 9692 C 892.998 1.77254 -2.98661 0
M  V30 9693 C 891.952 1.34482 -4.06323 0
M  V30 9694 C 891.278 2.60853 -4.66754 0
M  V30 9695 C 892.578 0.488288 -5.20013 0
M  V30 9696 H 894.272 0.00187041 -2.994 0
M  V30 9697 H 891.818 -0.000540402 -1.44 0
M  V30 9698 H 893.771 2.39199 -3.46932 0
M  V30 9699 H 892.495 2.38931 -2.22664 0
M  V30 9700 H 891.154 0.748519 -3.58877 0
M  V30 9701 H 890.802 3.20808 -3.87416 0
M  V30 9702 H 890.502 2.32942 -5.39455 0
M  V30 9703 H 892.026 3.23631 -5.1778 0
M  V30 9704 H 893.44 1.01298 -5.6428 0
M  V30 9705 H 891.837 0.303669 -5.99331 0
M  V30 9706 H 892.907 -0.490727 -4.8241 0
M  V30 9707 N 894.251 1.57596 -0.0117121 0
M  V30 9708 C 895.181 2.12188 0.9746 0
M  V30 9709 C 896.162 1.03379 1.35081 0
M  V30 9710 O 897.347 1.31123 1.4325 0
M  V30 9711 C 894.477 2.63477 2.26268 0
M  V30 9712 C 893.431 3.76917 2.02774 0
M  V30 9713 C 892.757 4.14566 3.37697 0
M  V30 9714 C 894.057 5.03715 1.38089 0
M  V30 9715 H 895.751 2.9485 0.520007 0
M  V30 9716 H 893.297 1.41836 0.248685 0
M  V30 9717 H 895.25 3.00299 2.95633 0
M  V30 9718 H 893.974 1.77953 2.73862 0
M  V30 9719 H 892.633 3.40507 1.35832 0
M  V30 9720 H 892.281 3.26048 3.83016 0
M  V30 9721 H 891.981 4.91 3.22789 0
M  V30 9722 H 893.505 4.53956 4.08358 0
M  V30 9723 H 894.919 5.38233 1.97428 0
M  V30 9724 H 893.316 5.85032 1.33634 0
M  V30 9725 H 894.386 4.83624 0.351575 0
M  V30 9726 N 895.729 -0.261212 1.5542 0
M  V30 9727 C 896.639 -1.34493 1.92221 0
M  V30 9728 C 897.655 -1.53421 0.82086 0
M  V30 9729 O 898.831 -1.6732 1.12099 0
M  V30 9730 C 895.896 -2.68209 2.19692 0
M  V30 9731 C 894.957 -2.57927 3.43179 0
M  V30 9732 C 894.19 -3.85266 3.69331 0
M  V30 9733 O 894.413 -4.86493 2.97793 0
M  V30 9734 O 893.347 -3.8476 4.62865 0
M  V30 9735 H 897.173 -1.06278 2.84497 0
M  V30 9736 H 894.758 -0.460752 1.42118 0
M  V30 9737 H 896.64 -3.47252 2.38734 0
M  V30 9738 H 895.315 -2.96186 1.30597 0
M  V30 9739 H 894.222 -1.77219 3.2946 0
M  V30 9740 H 895.555 -2.34898 4.32532 0
M  V30 9741 N 897.207 -1.48554 -0.526253 0
M  V30 9742 C 898.154 -1.63354 -1.63046 0
M  V30 9743 C 899.124 -0.475509 -1.59148 0
M  V30 9744 O 900.309 -0.699453 -1.77517 0
M  V30 9745 C 897.449 -1.68271 -3.01295 0
M  V30 9746 C 896.562 -2.95207 -3.15399 0
M  V30 9747 C 895.697 -2.91262 -4.4423 0
M  V30 9748 C 894.736 -4.12886 -4.51876 0
M  V30 9749 N 893.873 -4.06996 -5.721 0
M  V30 9750 H 898.713 -2.57649 -1.49737 0
M  V30 9751 H 896.25 -1.27769 -0.728938 0
M  V30 9752 H 898.208 -1.69104 -3.81392 0
M  V30 9753 H 896.838 -0.774641 -3.13367 0
M  V30 9754 H 895.89 -3.04102 -2.2853 0
M  V30 9755 H 897.202 -3.85187 -3.1691 0
M  V30 9756 H 896.356 -2.90516 -5.32621 0
M  V30 9757 H 895.095 -1.99016 -4.45246 0
M  V30 9758 H 894.1 -4.13902 -3.61891 0
M  V30 9759 H 895.325 -5.06294 -4.52596 0
M  V30 9760 H 893.271 -3.17573 -5.74006 0
M  V30 9761 H 893.188 -4.90685 -5.75121 0
M  V30 9762 H 894.456 -4.10315 -6.62768 0
M  V30 9763 N 898.685 0.775411 -1.37205 0
M  V30 9764 C 899.635 1.87867 -1.29189 0
M  V30 9765 C 900.619 1.59885 -0.180466 0
M  V30 9766 O 901.811 1.72077 -0.414536 0
M  V30 9767 C 898.94 3.25285 -1.09748 0
M  V30 9768 C 898.026 3.59231 -2.25419 0
M  V30 9769 N 898.417 3.64386 -3.50795 0
M  V30 9770 C 896.715 3.89375 -2.17492 0
M  V30 9771 C 897.416 3.94974 -4.27048 0
M  V30 9772 N 896.392 4.10684 -3.56146 0
M  V30 9773 H 900.194 1.90099 -2.24142 0
M  V30 9774 H 897.708 0.971667 -1.30125 0
M  V30 9775 H 899.705 4.04207 -1.02091 0
M  V30 9776 H 898.365 3.2432 -0.157083 0
M  V30 9777 H 899.376 3.46682 -3.8475 0
M  V30 9778 H 896.053 3.96254 -1.31489 0
M  V30 9779 H 897.443 4.05768 -5.35539 0
M  V30 9780 N 900.163 1.21714 1.00117 0
M  V30 9781 C 901.412 1.03087 1.73367 0
M  V30 9782 C 901.725 -0.435532 1.90689 0
M  V30 9783 O 902.931 -0.741291 2.61184 0
M  V30 9784 C 901.387 1.79593 3.11888 0
M  V30 9785 C 900.995 3.30428 3.02525 0
M  V30 9786 C 902.739 1.69386 3.89241 0
M  V30 9787 C 900.646 3.99408 4.3615 0
M  V30 9788 H 899.576 0.382117 0.650002 0
M  V30 9789 H 902.227 1.45486 1.11831 0
M  V30 9790 H 900.609 1.29988 3.74058 0
M  V30 9791 H 901.783 3.87364 2.49571 0
M  V30 9792 H 900.098 3.4122 2.38659 0
M  V30 9793 H 902.695 2.18251 4.8813 0
M  V30 9794 H 903.038 0.652773 4.1115 0
M  V30 9795 H 903.571 2.16489 3.33733 0
M  V30 9796 H 900.31 5.03735 4.19442 0
M  V30 9797 H 899.83 3.47261 4.8905 0
M  V30 9798 H 901.509 4.04537 5.04934 0
M  V30 9799 N 901.641 -1.19671 1.02551 0
M  V30 9800 C 902.869 -1.93233 0.739513 0
M  V30 9801 C 903.284 -1.75298 -0.701158 0
M  V30 9802 O 902.641 -1.07269 -1.47647 0
M  V30 9803 C 902.692 -3.45085 1.07697 0
M  V30 9804 O 902.413 -3.62441 2.46106 0
M  V30 9805 C 903.914 -4.35776 0.813298 0
M  V30 9806 H 901.134 -0.613905 0.270853 0
M  V30 9807 H 903.678 -1.51909 1.36909 0
M  V30 9808 H 901.833 -3.84255 0.492635 0
M  V30 9809 H 902.247 -4.56337 2.58567 0
M  V30 9810 H 903.721 -5.40941 1.09941 0
M  V30 9811 H 904.198 -4.38474 -0.252359 0
M  V30 9812 H 904.804 -4.02282 1.38021 0
M  V30 9813 N 903.119 -0.802921 -1.35613 0
M  V30 9814 C 904.082 -0.216422 -2.28176 0
M  V30 9815 C 905.082 0.594101 -1.49422 0
M  V30 9816 O 906.272 0.41312 -1.6923 0
M  V30 9817 C 903.404 0.698746 -3.33662 0
M  V30 9818 H 904.597 -1.03276 -2.81557 0
M  V30 9819 H 902.15 -0.573307 -1.45406 0
M  V30 9820 H 902.885 1.53891 -2.85461 0
M  V30 9821 H 902.67 0.119314 -3.91918 0
M  V30 9822 H 904.16 1.10354 -4.02755 0
M  V30 9823 N 904.597 1.47463 -0.556102 0
M  V30 9824 C 905.544 2.29998 0.192213 0
M  V30 9825 C 906.514 1.38993 0.909403 0
M  V30 9826 O 907.699 1.67954 0.905316 0
M  V30 9827 C 904.839 3.22932 1.21692 0
M  V30 9828 C 903.952 4.29027 0.505908 0
M  V30 9829 C 903.087 5.09114 1.51581 0
M  V30 9830 C 902.126 6.06984 0.789714 0
M  V30 9831 N 901.263 6.80033 1.74639 0
M  V30 9832 H 906.103 2.93468 -0.517734 0
M  V30 9833 H 903.64 1.44654 -0.267147 0
M  V30 9834 H 905.598 3.75234 1.8236 0
M  V30 9835 H 904.228 2.61329 1.89491 0
M  V30 9836 H 903.28 3.7979 -0.215276 0
M  V30 9837 H 904.592 4.9876 -0.062958 0
M  V30 9838 H 903.746 5.6556 2.19606 0
M  V30 9839 H 902.485 4.3928 2.11859 0
M  V30 9840 H 901.49 5.49717 0.0955382 0
M  V30 9841 H 902.715 6.78827 0.192688 0
M  V30 9842 H 900.661 6.12931 2.33777 0
M  V30 9843 H 900.578 7.45933 1.22965 0
M  V30 9844 H 901.846 7.41054 2.41782 0
M  V30 9845 N 906.075 0.2925 1.54862 0
M  V30 9846 C 906.985 -0.597036 2.26876 0
M  V30 9847 C 908.001 -1.15558 1.30086 0
M  V30 9848 O 909.177 -1.18217 1.63054 0
M  V30 9849 C 906.242 -1.75664 2.98903 0
M  V30 9850 C 905.303 -1.23303 4.11212 0
M  V30 9851 C 904.536 -2.33736 4.79795 0
M  V30 9852 O 904.759 -3.53459 4.47686 0
M  V30 9853 O 903.693 -2.00908 5.67379 0
M  V30 9854 H 907.519 -0.0131242 3.03697 0
M  V30 9855 H 905.104 0.0592642 1.49282 0
M  V30 9856 H 906.986 -2.43241 3.4411 0
M  V30 9857 H 905.661 -2.32731 2.24984 0
M  V30 9858 H 904.568 -0.523222 3.70423 0
M  V30 9859 H 905.901 -0.707887 4.87083 0
M  V30 9860 N 907.553 -1.57587 0.0200696 0
M  V30 9861 C 908.802 -1.90602 -0.659822 0
M  V30 9862 C 909.115 -0.897216 -1.73808 0
M  V30 9863 O 910.321 -1.11829 -2.47399 0
M  V30 9864 C 908.777 -3.38416 -1.22484 0
M  V30 9865 C 908.385 -4.47637 -0.180339 0
M  V30 9866 C 910.129 -3.80513 -1.88176 0
M  V30 9867 C 908.036 -5.86542 -0.756482 0
M  V30 9868 H 906.966 -0.711272 -0.250216 0
M  V30 9869 H 909.617 -1.83308 0.0838942 0
M  V30 9870 H 907.999 -3.40613 -2.01987 0
M  V30 9871 H 909.173 -4.56987 0.591573 0
M  V30 9872 H 907.488 -4.14687 0.377302 0
M  V30 9873 H 910.085 -4.8164 -2.32222 0
M  V30 9874 H 910.428 -3.15091 -2.72073 0
M  V30 9875 H 910.961 -3.80701 -1.15377 0
M  V30 9876 H 907.7 -6.55485 0.0441468 0
M  V30 9877 H 907.22 -5.80816 -1.49709 0
M  V30 9878 H 908.899 -6.3483 -1.249 0
M  V30 9879 N 909.032 0.252966 -1.55557 0
M  V30 9880 C 909.942 1.33472 -1.92931 0
M  V30 9881 C 910.958 1.52983 -0.828985 0
M  V30 9882 O 912.134 1.66723 -1.12984 0
M  V30 9883 C 909.199 2.6704 -2.21112 0
M  V30 9884 C 908.26 2.56103 -3.44542 0
M  V30 9885 C 907.493 3.83302 -3.71369 0
M  V30 9886 O 907.716 4.84907 -3.00368 0
M  V30 9887 O 906.65 3.823 -4.64898 0
M  V30 9888 H 910.476 1.04768 -2.85057 0
M  V30 9889 H 908.061 0.453208 -1.4236 0
M  V30 9890 H 909.943 3.45981 -2.40572 0
M  V30 9891 H 908.618 2.95489 -1.32166 0
M  V30 9892 H 907.525 1.7547 -3.30396 0
M  V30 9893 H 908.858 2.32601 -4.33772 0
M  V30 9894 N 910.51 1.48831 0.518367 0
M  V30 9895 C 911.738 1.6112 1.298 0
M  V30 9896 C 912.153 0.275872 1.86774 0
M  V30 9897 O 911.51 -0.736416 1.66983 0
M  V30 9898 C 911.561 2.66675 2.44063 0
M  V30 9899 O 911.282 3.95027 1.89434 0
M  V30 9900 C 912.783 2.8951 3.35706 0
M  V30 9901 H 910.003 0.542916 0.394314 0
M  V30 9902 H 912.547 1.94743 0.624142 0
M  V30 9903 H 910.702 2.35879 3.07311 0
M  V30 9904 H 911.116 4.53031 2.64316 0
M  V30 9905 H 912.59 3.67142 4.12202 0
M  V30 9906 H 913.067 1.98768 3.91648 0
M  V30 9907 H 913.673 3.21656 2.7824 0
M  V30 9908 N 911.988 -0.768124 1.37614 0
M  V30 9909 C 913.235 -1.5268 1.33022 0
M  V30 9910 C 913.563 -1.94318 -0.0841918 0
M  V30 9911 O 912.818 -1.64623 -1.0582 0
M  V30 9912 C 913.117 -2.80204 2.21856 0
M  V30 9913 C 912.783 -2.57602 3.7007 0
M  V30 9914 C 911.445 -2.51146 4.10462 0
M  V30 9915 C 913.797 -2.37482 4.63952 0
M  V30 9916 C 911.125 -2.22566 5.42846 0
M  V30 9917 C 913.477 -2.10425 5.96577 0
M  V30 9918 C 912.141 -2.02416 6.36069 0
M  V30 9919 H 911.411 -0.558697 0.486763 0
M  V30 9920 H 914.058 -0.88447 1.69851 0
M  V30 9921 H 912.363 -3.49014 1.78034 0
M  V30 9922 H 914.06 -3.38099 2.15615 0
M  V30 9923 H 910.65 -2.63491 3.38039 0
M  V30 9924 H 914.834 -2.41457 4.33604 0
M  V30 9925 H 910.09 -2.14863 5.72402 0
M  V30 9926 H 914.264 -1.93857 6.68874 0
M  V30 9927 H 911.891 -1.80034 7.38574 0
M  V30 9928 N 913.466 -1.22244 -0.994698 0
M  V30 9929 C 914.712 -1.04746 -1.73655 0
M  V30 9930 C 915.045 0.41668 -1.89677 0
M  V30 9931 O 914.32 1.30897 -1.43862 0
M  V30 9932 C 914.603 -1.75716 -3.14318 0
M  V30 9933 C 914.456 -3.29714 -3.05955 0
M  V30 9934 C 915.775 -1.50809 -4.13455 0
M  V30 9935 H 912.894 -0.381921 -0.630322 0
M  V30 9936 H 915.536 -1.50559 -1.15897 0
M  V30 9937 H 913.686 -1.3677 -3.63629 0
M  V30 9938 H 915.358 -3.78093 -2.64279 0
M  V30 9939 H 913.601 -3.59484 -2.42804 0
M  V30 9940 H 914.272 -3.74547 -4.05485 0
M  V30 9941 H 916.748 -1.84636 -3.72892 0
M  V30 9942 H 915.624 -2.02964 -5.09997 0
M  V30 9943 H 915.885 -0.440292 -4.39902 0
M  V30 9944 N 914.944 1.19125 -1.03184 0
M  V30 9945 C 916.169 1.93379 -0.749628 0
M  V30 9946 C 916.594 1.75153 0.685785 0
M  V30 9947 O 915.952 1.05579 1.47386 0
M  V30 9948 C 916 3.43101 -1.1097 0
M  V30 9949 O 915.104 4.11758 -0.230053 0
M  V30 9950 H 914.445 0.603605 -0.276689 0
M  V30 9951 H 916.975 1.51116 -1.37931 0
M  V30 9952 H 916.985 3.93778 -1.06785 0
M  V30 9953 H 915.66 3.55688 -2.15544 0
M  V30 9954 H 914.237 3.7143 -0.330748 0
M  V30 9955 N 916.422 0.810101 1.35185 0
M  V30 9956 C 917.352 0.237453 2.32289 0
M  V30 9957 C 918.333 -0.639032 1.5764 0
M  V30 9958 O 919.518 -0.568575 1.8569 0
M  V30 9959 C 916.648 -0.611964 3.41866 0
M  V30 9960 C 915.602 0.166318 4.27677 0
M  V30 9961 C 914.928 -0.805024 5.28605 0
M  V30 9962 C 916.228 1.36729 5.04086 0
M  V30 9963 H 917.922 1.04874 2.80432 0
M  V30 9964 H 915.468 0.505751 1.34826 0
M  V30 9965 H 917.421 -1.02267 4.08802 0
M  V30 9966 H 916.145 -1.45617 2.92341 0
M  V30 9967 H 914.804 0.558238 3.62325 0
M  V30 9968 H 914.452 -1.64483 4.75347 0
M  V30 9969 H 914.152 -0.288577 5.86891 0
M  V30 9970 H 915.676 -1.21386 5.98413 0
M  V30 9971 H 917.09 1.03128 5.63948 0
M  V30 9972 H 915.487 1.81848 5.71884 0
M  V30 9973 H 916.557 2.15214 4.34524 0
M  V30 9974 N 917.9 -1.47166 0.563914 0
M  V30 9975 C 918.83 -2.32894 -0.168148 0
M  V30 9976 C 919.811 -1.44202 -0.902214 0
M  V30 9977 O 920.996 -1.73048 -0.881365 0
M  V30 9978 C 918.126 -3.26116 -1.19439 0
M  V30 9979 C 917.08 -4.24101 -0.576363 0
M  V30 9980 C 916.406 -5.06696 -1.70772 0
M  V30 9981 C 917.706 -5.20142 0.47425 0
M  V30 9982 H 919.4 -2.9435 0.547573 0
M  V30 9983 H 916.946 -1.41545 0.264778 0
M  V30 9984 H 918.899 -3.84935 -1.71474 0
M  V30 9985 H 917.623 -2.62728 -1.94014 0
M  V30 9986 H 916.282 -3.66519 -0.0772534 0
M  V30 9987 H 915.93 -4.39707 -2.44268 0
M  V30 9988 H 915.63 -5.7304 -1.29994 0
M  V30 9989 H 917.154 -5.68375 -2.2312 0
M  V30 9990 H 918.568 -5.73286 0.0397035 0
M  V30 9991 H 916.965 -5.94726 0.801287 0
M  V30 9992 H 918.035 -4.65214 1.36764 0
M  V30 9993 N 919.378 -0.300708 -1.54705 0
M  V30 9994 C 920.794 0.0526874 -1.59513 0
M  V30 9995 C 920.994 1.52444 -1.31769 0
M  V30 9996 O 920.05 2.27716 -1.09096 0
M  V30 9997 C 921.363 -0.344989 -2.98714 0
M  V30 9998 C 922.911 -0.29373 -3.11619 0
M  V30 9999 C 923.386 -0.666225 -4.53129 0
M  V30 10000 N 924.877 -0.618749 -4.59049 0
M  V30 10001 C 925.612 -0.879447 -5.66616 0
M  V30 10002 N 925.108 -1.2061 -6.82221 0
M  V30 10003 N 926.901 -0.806528 -5.56284 0
M  V30 10004 H 919.052 -1.25988 -1.71 0
M  V30 10005 H 921.315 -0.510758 -0.798643 0
M  V30 10006 H 921.021 -1.36953 -3.2394 0
M  V30 10007 H 920.895 0.301507 -3.75993 0
M  V30 10008 H 923.282 0.72156 -2.86142 0
M  V30 10009 H 923.363 -0.974844 -2.36496 0
M  V30 10010 H 923.007 -1.67932 -4.79334 0
M  V30 10011 H 922.937 0.0369575 -5.26587 0
M  V30 10012 H 925.428 -0.377202 -3.76013 0
M  V30 10013 H 925.741 -1.391 -7.60178 0
M  V30 10014 H 924.086 -1.24413 -6.83774 0
M  V30 10015 H 927.277 -0.550993 -4.64846 0
M  V30 10016 H 927.45 -1.01307 -6.40032 0
M  V30 10017 N 920.856 1.57574 -0.0284266 0
M  V30 10018 C 922.272 1.56194 0.327958 0
M  V30 10019 C 922.472 1.03397 1.72949 0
M  V30 10020 O 921.528 0.680392 2.4316 0
M  V30 10021 C 922.841 3.00177 0.177196 0
M  V30 10022 C 924.389 3.12 0.250014 0
M  V30 10023 C 924.864 4.57821 0.128049 0
M  V30 10024 N 926.355 4.6283 0.185054 0
M  V30 10025 C 927.09 5.73286 0.114454 0
M  V30 10026 N 926.586 6.928 -0.00719225 0
M  V30 10027 N 928.379 5.61848 0.16839 0
M  V30 10028 H 920.53 1.90224 -0.944921 0
M  V30 10029 H 922.793 0.874987 -0.364832 0
M  V30 10030 H 922.499 3.42753 -0.788224 0
M  V30 10031 H 922.373 3.65101 0.94768 0
M  V30 10032 H 924.76 2.69337 1.20589 0
M  V30 10033 H 924.841 2.49799 -0.550835 0
M  V30 10034 H 924.485 5.01165 -0.824407 0
M  V30 10035 H 924.415 5.18001 0.947753 0
M  V30 10036 H 926.906 3.76867 0.279247 0
M  V30 10037 H 927.219 7.72781 -0.0543903 0
M  V30 10038 H 925.564 6.94987 -0.0419648 0
M  V30 10039 H 928.755 4.67367 0.261821 0
M  V30 10040 H 928.928 6.47907 0.109908 0
M  V30 10041 N 922.334 -0.244713 1.55689 0
M  V30 10042 C 923.282 -1.32276 1.91326 0
M  V30 10043 C 924.276 -1.49714 0.792589 0
M  V30 10044 O 925.482 -1.51163 0.977227 0
M  V30 10045 H 921.857 -0.442979 0.607679 0
M  V30 10046 H 923.828 -0.99486 2.81327 0
M  V30 10047 C 922.577 -2.67077 2.22633 0
M  V30 10048 H 921.9 -2.54458 3.08368 0
M  V30 10049 H 923.34 -3.41378 2.5147 0
M  V30 10050 C 921.799 -3.20335 1.04342 0
M  V30 10051 O 922.329 -4.00633 0.292543 0
M  V30 10052 N 920.535 -2.78392 0.833457 0
M  V30 10053 H 920.082 -2.13202 1.44577 0
M  V30 10054 H 920.04 -3.1437 0.0436713 0
M  V30 10055 N 923.813 -1.49104 -0.510467 0
M  V30 10056 C 925.229 -1.35657 -0.840797 0
M  V30 10057 C 925.429 -0.382425 -1.97838 0
M  V30 10058 O 924.485 0.189331 -2.51789 0
M  V30 10059 C 925.798 -2.76155 -1.18992 0
M  V30 10060 C 927.346 -2.84786 -1.29868 0
M  V30 10061 C 927.821 -4.2603 -1.68115 0
M  V30 10062 N 929.312 -4.28796 -1.75181 0
M  V30 10063 C 930.047 -5.35041 -2.062 0
M  V30 10064 N 929.543 -6.51543 -2.35508 0
M  V30 10065 N 931.336 -5.2245 -2.07371 0
M  V30 10066 H 923.487 -2.11042 0.23982 0
M  V30 10067 H 925.75 -0.946946 0.0446824 0
M  V30 10068 H 925.456 -3.49092 -0.427484 0
M  V30 10069 H 925.33 -3.10922 -2.13558 0
M  V30 10070 H 927.717 -2.12092 -2.05186 0
M  V30 10071 H 927.798 -2.53613 -0.333758 0
M  V30 10072 H 927.442 -4.99247 -0.933512 0
M  V30 10073 H 927.372 -4.5466 -2.65691 0
M  V30 10074 H 929.863 -3.44771 -1.5473 0
M  V30 10075 H 930.176 -7.28342 -2.58337 0
M  V30 10076 H 928.521 -6.54785 -2.32985 0
M  V30 10077 H 931.712 -4.30444 -1.83945 0
M  V30 10078 H 931.885 -6.05347 -2.31212 0
M  V30 10079 N 925.291 0.760815 -1.38019 0
M  V30 10080 C 926.201 1.90526 -1.36884 0
M  V30 10081 C 927.217 1.71941 -0.266908 0
M  V30 10082 O 928.393 1.94988 -0.50413 0
M  V30 10083 C 925.458 3.25799 -1.18558 0
M  V30 10084 C 924.519 3.56961 -2.3849 0
M  V30 10085 C 923.752 4.8578 -2.21029 0
M  V30 10086 O 923.975 5.57629 -1.20023 0
M  V30 10087 O 922.909 5.16254 -3.0946 0
M  V30 10088 H 926.735 1.94437 -2.33298 0
M  V30 10089 H 924.32 0.905091 -1.18863 0
M  V30 10090 H 926.202 4.0669 -1.1037 0
M  V30 10091 H 924.877 3.22716 -0.252241 0
M  V30 10092 H 923.784 2.7626 -2.52252 0
M  V30 10093 H 925.117 3.64798 -3.30429 0
M  V30 10094 N 926.769 1.22769 0.988202 0
M  V30 10095 C 928.18 1.0512 1.54294 0
M  V30 10096 C 928.531 -0.383904 1.92407 0
M  V30 10097 O 927.656 -1.26955 1.75246 0
M  V30 10098 C 928.251 1.90198 2.80375 0
M  V30 10099 C 926.81 1.76831 3.32276 0
M  V30 10100 C 925.957 1.86377 2.05326 0
M  V30 10101 H 928.908 1.36546 0.808758 0
M  V30 10102 H 928.929 1.42216 3.52923 0
M  V30 10103 H 928.441 2.9464 2.52605 0
M  V30 10104 H 926.542 0.751412 3.64945 0
M  V30 10105 H 926.655 2.59771 4.02562 0
M  V30 10106 H 925.019 1.2987 2.19103 0
M  V30 10107 H 925.802 2.9236 1.79946 0
M  V30 10108 N 928.247 -1.18576 1.03814 0
M  V30 10109 C 929.663 -1.4051 0.756909 0
M  V30 10110 C 929.863 -1.9057 -0.654631 0
M  V30 10111 O 928.919 -2.0884 -1.41922 0
M  V30 10112 C 930.232 -2.4081 1.80087 0
M  V30 10113 C 931.78 -2.54541 1.82148 0
M  V30 10114 C 932.255 -3.58102 2.85529 0
M  V30 10115 N 933.746 -3.65607 2.84404 0
M  V30 10116 C 934.481 -4.45458 3.61047 0
M  V30 10117 N 933.977 -5.28937 4.47434 0
M  V30 10118 N 935.77 -4.40196 3.49548 0
M  V30 10119 H 927.921 -0.844075 1.94908 0
M  V30 10120 H 930.184 -0.433287 0.843188 0
M  V30 10121 H 929.89 -2.1107 2.81322 0
M  V30 10122 H 929.764 -3.4012 1.63089 0
M  V30 10123 H 932.151 -2.83598 0.815855 0
M  V30 10124 H 932.232 -1.55352 2.03223 0
M  V30 10125 H 931.876 -3.29786 3.86269 0
M  V30 10126 H 931.806 -4.56963 2.6171 0
M  V30 10127 H 934.297 -3.05994 2.21756 0
M  V30 10128 H 934.61 -5.8701 5.02632 0
M  V30 10129 H 932.955 -5.28366 4.51503 0
M  V30 10130 H 936.146 -3.74026 2.81464 0
M  V30 10131 H 936.319 -5.02186 4.09528 0
M  V30 10132 N 929.725 -0.817259 -1.34754 0
M  V30 10133 C 930.972 -0.402648 -1.98457 0
M  V30 10134 C 931.3 1.03287 -1.64809 0
M  V30 10135 O 930.555 1.73316 -0.908851 0
M  V30 10136 C 930.854 -0.5453 -3.53216 0
M  V30 10137 C 930.52 -1.9457 -4.06759 0
M  V30 10138 C 929.182 -2.32881 -4.21094 0
M  V30 10139 C 931.534 -2.86141 -4.35629 0
M  V30 10140 C 928.862 -3.62108 -4.61622 0
M  V30 10141 C 931.214 -4.14826 -4.776 0
M  V30 10142 C 929.878 -4.53121 -4.9014 0
M  V30 10143 H 929.148 -0.147339 -0.726204 0
M  V30 10144 H 931.795 -1.04011 -1.60791 0
M  V30 10145 H 930.1 0.175576 -3.91406 0
M  V30 10146 H 931.797 -0.205112 -4.00475 0
M  V30 10147 H 928.387 -1.6381 -3.96061 0
M  V30 10148 H 932.571 -2.57788 -4.24098 0
M  V30 10149 H 927.827 -3.91613 -4.69521 0
M  V30 10150 H 932.001 -4.85874 -4.98899 0
M  V30 10151 H 929.628 -5.53307 -5.21302 0
M  V30 10152 N 931.203 1.46865 -0.571711 0
M  V30 10153 C 932.133 2.3298 0.155795 0
M  V30 10154 C 933.114 1.44678 0.894553 0
M  V30 10155 O 934.299 1.73513 0.872176 0
M  V30 10156 C 931.429 3.26745 1.17708 0
M  V30 10157 C 930.383 4.24401 0.553863 0
M  V30 10158 C 929.709 5.07595 1.68083 0
M  V30 10159 C 931.009 5.19884 -0.501827 0
M  V30 10160 H 932.703 2.94056 -0.563176 0
M  V30 10161 H 930.249 1.41402 -0.27228 0
M  V30 10162 H 932.202 3.85838 1.6943 0
M  V30 10163 H 930.926 2.63753 1.92618 0
M  V30 10164 H 929.585 3.66554 0.057815 0
M  V30 10165 H 929.233 4.40996 2.41933 0
M  V30 10166 H 928.933 5.73722 1.26953 0
M  V30 10167 H 930.457 5.6955 2.20103 0
M  V30 10168 H 931.871 5.73257 -0.0701057 0
M  V30 10169 H 930.268 5.94293 -0.832815 0
M  V30 10170 H 931.338 4.64482 -1.39229 0
M  V30 10171 N 932.681 0.308908 1.54543 0
M  V30 10172 C 933.958 -0.351558 1.92415 0
M  V30 10173 C 934.338 -1.71061 1.23699 0
M  V30 10174 O 933.686 -2.25394 0.3755 0
M  V30 10175 C 933.896 -0.458357 3.45977 0
M  V30 10176 C 935.244 -0.725524 4.18355 0
M  V30 10177 O 936.268 -0.541859 3.52054 0
M  V30 10178 O 935.127 -1.07884 5.35745 0
M  V30 10179 H 932.221 -0.197957 0.802958 0
M  V30 10180 H 934.767 0.357548 1.65891 0
M  V30 10181 H 933.539 0.496723 3.88134 0
M  V30 10182 H 933.162 -1.21562 3.78561 0
M  V30 10183 N 934.159 -1.57557 0.0367827 0
M  V30 10184 C 935.389 -1.96134 -0.649225 0
M  V30 10185 C 935.797 -0.912279 -1.65753 0
M  V30 10186 O 935.14 0.113569 -1.83349 0
M  V30 10187 C 935.202 -3.30889 -1.40545 0
M  V30 10188 C 934.866 -4.53622 -0.554609 0
M  V30 10189 C 935.863 -5.19611 0.17331 0
M  V30 10190 C 933.548 -4.99907 -0.48976 0
M  V30 10191 C 935.542 -6.3021 0.95467 0
M  V30 10192 C 933.229 -6.10386 0.295299 0
M  V30 10193 C 934.227 -6.75398 1.01621 0
M  V30 10194 O 933.915 -7.83755 1.78839 0
M  V30 10195 H 933.647 -0.650662 -0.183344 0
M  V30 10196 H 936.201 -2.05179 0.0951512 0
M  V30 10197 H 934.431 -3.18356 -2.19513 0
M  V30 10198 H 936.12 -3.54315 -1.9803 0
M  V30 10199 H 936.886 -4.84819 0.132589 0
M  V30 10200 H 932.765 -4.49105 -1.04046 0
M  V30 10201 H 936.309 -6.80886 1.51789 0
M  V30 10202 H 932.206 -6.44616 0.33771 0
M  V30 10203 H 932.974 -8.0046 1.70898 0
M  V30 10204 N 935.637 0.236453 -1.55816 0
M  V30 10205 C 936.567 1.29639 -1.94206 0
M  V30 10206 C 937.548 1.49667 -0.808319 0
M  V30 10207 O 938.733 1.621 -1.06945 0
M  V30 10208 C 935.863 2.64914 -2.24584 0
M  V30 10209 C 934.817 2.59565 -3.40308 0
M  V30 10210 C 934.143 3.98732 -3.56254 0
M  V30 10211 C 935.443 2.15642 -4.75706 0
M  V30 10212 H 937.137 0.977552 -2.82992 0
M  V30 10213 H 934.683 0.468804 -1.36155 0
M  V30 10214 H 936.636 3.39209 -2.50031 0
M  V30 10215 H 935.36 2.98455 -1.32636 0
M  V30 10216 H 934.019 1.87728 -3.14887 0
M  V30 10217 H 933.667 4.29556 -2.61707 0
M  V30 10218 H 933.367 3.96039 -4.34082 0
M  V30 10219 H 934.891 4.74711 -3.84033 0
M  V30 10220 H 936.305 2.79673 -5.00456 0
M  V30 10221 H 934.702 2.24039 -5.56711 0
M  V30 10222 H 935.772 1.10831 -4.72064 0
M  V30 10223 N 937.115 1.49373 0.502552 0
M  V30 10224 C 938.34 1.62752 1.28556 0
M  V30 10225 C 938.765 0.298285 1.8572 0
M  V30 10226 O 938.123 -0.733885 1.65782 0
M  V30 10227 C 938.171 2.69778 2.39274 0
M  V30 10228 O 937.275 2.28843 3.43081 0
M  V30 10229 H 936.616 0.544799 0.379592 0
M  V30 10230 H 939.146 1.9555 0.601792 0
M  V30 10231 H 939.156 2.91899 2.8506 0
M  V30 10232 H 937.831 3.66266 1.97033 0
M  V30 10233 H 936.408 2.17047 3.03224 0
M  V30 10234 N 938.594 -0.753485 1.38421 0
M  V30 10235 C 939.871 -1.50318 1.25155 0
M  V30 10236 C 940.251 -2.10588 -0.147003 0
M  V30 10237 O 939.599 -1.97071 -1.15651 0
M  V30 10238 C 939.809 -2.56946 2.36177 0
M  V30 10239 C 941.157 -3.23846 2.74607 0
M  V30 10240 O 942.181 -2.67251 2.3549 0
M  V30 10241 O 941.04 -4.2621 3.42064 0
M  V30 10242 H 938.134 -0.666624 0.48943 0
M  V30 10243 H 940.68 -0.788887 1.50249 0
M  V30 10244 H 939.452 -2.1066 3.29754 0
M  V30 10245 H 939.075 -3.35956 2.12648 0
M  V30 10246 N 940.072 -1.23292 -0.981677 0
M  V30 10247 C 941.002 -1.03738 -2.09191 0
M  V30 10248 C 941.983 0.0453041 -1.7004 0
M  V30 10249 O 943.168 -0.119092 -1.93834 0
M  V30 10250 C 940.298 -0.626426 -3.41604 0
M  V30 10251 C 939.252 -1.65631 -3.94652 0
M  V30 10252 C 938.578 -1.10084 -5.23245 0
M  V30 10253 C 939.878 -3.04903 -4.24066 0
M  V30 10254 H 941.572 -1.966 -2.25807 0
M  V30 10255 H 939.118 -0.946656 -1.0851 0
M  V30 10256 H 941.071 -0.476689 -4.18695 0
M  V30 10257 H 939.795 0.337873 -3.24848 0
M  V30 10258 H 938.454 -1.79402 -3.19704 0
M  V30 10259 H 938.102 -0.127562 -5.02838 0
M  V30 10260 H 937.802 -1.78896 -5.59705 0
M  V30 10261 H 939.326 -0.962928 -6.02959 0
M  V30 10262 H 940.74 -2.94441 -4.91912 0
M  V30 10263 H 939.137 -3.70941 -4.71724 0
M  V30 10264 H 940.207 -3.53991 -3.31389 0
M  V30 10265 N 941.55 1.18024 -1.04442 0
M  V30 10266 C 942.79 1.89787 -0.758957 0
M  V30 10267 C 943.154 1.78757 0.700707 0
M  V30 10268 O 944.355 2.45265 1.09994 0
M  V30 10269 C 942.626 3.36047 -1.21685 0
M  V30 10270 S 944.185 4.25864 -1.05761 0
M  V30 10271 H 941.003 0.655311 -0.275841 0
M  V30 10272 H 943.605 1.42589 -1.33749 0
M  V30 10273 H 942.309 3.41606 -2.2745 0
M  V30 10274 H 941.84 3.88286 -0.63227 0
M  V30 10275 H 943.855 4.96195 0.022729 0
M  V30 10276 N 943.028 0.824394 1.34319 0
M  V30 10277 C 944.274 0.413779 1.98534 0
M  V30 10278 C 944.607 -1.02089 1.65201 0
M  V30 10279 O 943.882 -1.71129 0.924402 0
M  V30 10280 C 944.165 0.61801 3.54757 0
M  V30 10281 C 944.018 2.0989 3.97827 0
M  V30 10282 C 945.337 0.0549041 4.40066 0
M  V30 10283 H 942.456 0.151815 0.721194 0
M  V30 10284 H 945.098 1.03723 1.5919 0
M  V30 10285 H 943.248 0.0873107 3.88402 0
M  V30 10286 H 944.92 2.69335 3.74508 0
M  V30 10287 H 943.163 2.58881 3.48085 0
M  V30 10288 H 943.834 2.1926 5.06586 0
M  V30 10289 H 946.31 0.508348 4.12983 0
M  V30 10290 H 945.186 0.227595 5.48428 0
M  V30 10291 H 945.447 -1.04025 4.29687 0
M  V30 10292 N 944.506 -1.46559 0.579492 0
M  V30 10293 C 945.731 -2.0729 0.0674595 0
M  V30 10294 C 946.156 -1.4259 -1.22677 0
M  V30 10295 O 945.514 -0.50857 -1.74021 0
M  V30 10296 C 945.562 -3.60492 -0.0882227 0
M  V30 10297 O 944.666 -3.96172 -1.14551 0
M  V30 10298 H 944.007 -0.661159 0.0613536 0
M  V30 10299 H 946.537 -1.88247 0.801519 0
M  V30 10300 H 946.547 -4.06929 -0.295411 0
M  V30 10301 H 945.222 -4.06976 0.856943 0
M  V30 10302 H 943.799 -3.61448 -0.917033 0
M  V30 10303 N 945.984 -0.3171 -1.54377 0
M  V30 10304 C 946.932 0.567371 -2.25574 0
M  V30 10305 C 947.926 1.12387 -1.2675 0
M  V30 10306 O 949.132 1.07266 -1.44548 0
M  V30 10307 H 945.507 0.201605 -0.724472 0
M  V30 10308 H 947.478 -0.0554644 -2.98348 0
M  V30 10309 C 946.227 1.71984 -3.02187 0
M  V30 10310 H 945.55 1.30086 -3.78044 0
M  V30 10311 H 946.99 2.31443 -3.5526 0
M  V30 10312 C 945.449 2.6336 -2.10103 0
M  V30 10313 O 945.979 3.64899 -1.67962 0
M  V30 10314 N 944.185 2.3145 -1.75725 0
M  V30 10315 H 943.732 1.48921 -2.10191 0
M  V30 10316 H 943.69 2.92852 -1.14391 0
M  V30 10317 N 947.462 1.57535 -0.0451378 0
M  V30 10318 C 948.69 1.96761 0.639742 0
M  V30 10319 C 949.105 0.922405 1.64734 0
M  V30 10320 O 948.462 -0.0940535 1.82257 0
M  V30 10321 C 948.513 3.36066 1.33199 0
M  V30 10322 O 948.234 4.36579 0.364757 0
M  V30 10323 C 949.735 3.90015 2.1072 0
M  V30 10324 H 946.955 0.64769 0.175324 0
M  V30 10325 H 949.499 2.04206 -0.109651 0
M  V30 10326 H 947.654 3.2979 2.03266 0
M  V30 10327 H 948.068 5.17432 0.858168 0
M  V30 10328 H 949.542 4.89785 2.54586 0
M  V30 10329 H 950.019 3.25117 2.95288 0
M  V30 10330 H 950.625 3.99609 1.45577 0
M  V30 10331 N 948.94 -0.228186 1.55939 0
M  V30 10332 C 950.168 -0.970618 1.8272 0
M  V30 10333 C 950.583 -1.78212 0.623385 0
M  V30 10334 O 949.94 -1.77879 -0.408063 0
M  V30 10335 C 949.991 -1.89352 3.07942 0
M  V30 10336 O 949.712 -1.11483 4.23678 0
M  V30 10337 C 951.213 -2.75039 3.47661 0
M  V30 10338 H 948.433 -0.284772 0.607574 0
M  V30 10339 H 950.977 -0.245419 2.03022 0
M  V30 10340 H 949.132 -2.57275 2.89635 0
M  V30 10341 H 949.546 -1.74073 4.94772 0
M  V30 10342 H 951.02 -3.35511 4.38334 0
M  V30 10343 H 951.497 -3.471 2.69106 0
M  V30 10344 H 952.103 -2.1254 3.68384 0
M  V30 10345 N 950.418 -1.49637 -0.494624 0
M  V30 10346 C 951.381 -1.66252 -1.57775 0
M  V30 10347 C 952.381 -0.534054 -1.51672 0
M  V30 10348 O 953.571 -0.800637 -1.54711 0
M  V30 10349 C 950.703 -1.66584 -2.97426 0
M  V30 10350 H 951.896 -2.62864 -1.4437 0
M  V30 10351 H 949.449 -1.38764 -0.719323 0
M  V30 10352 H 950.184 -0.715798 -3.16302 0
M  V30 10353 H 949.969 -2.48543 -3.03264 0
M  V30 10354 H 951.459 -1.81474 -3.76108 0
M  V30 10355 N 951.896 0.746133 -1.38819 0
M  V30 10356 C 953.145 1.50085 -1.34749 0
M  V30 10357 C 953.458 1.95516 0.0574786 0
M  V30 10358 O 954.664 2.70601 0.22073 0
M  V30 10359 C 953.12 2.71141 -2.36665 0
M  V30 10360 C 952.728 2.32706 -3.82821 0
M  V30 10361 C 954.472 3.49005 -2.41652 0
M  V30 10362 C 952.379 3.50418 -4.76405 0
M  V30 10363 H 951.309 0.563563 -0.500912 0
M  V30 10364 H 953.96 0.814951 -1.6441 0
M  V30 10365 H 952.342 3.4175 -2.00058 0
M  V30 10366 H 953.516 1.69715 -4.28408 0
M  V30 10367 H 951.831 1.67959 -3.81023 0
M  V30 10368 H 954.428 4.36541 -3.08766 0
M  V30 10369 H 954.771 3.90687 -1.43769 0
M  V30 10370 H 955.304 2.85416 -2.77097 0
M  V30 10371 H 952.043 3.13795 -5.75511 0
M  V30 10372 H 951.563 4.12426 -4.35505 0
M  V30 10373 H 953.242 4.16901 -4.94775 0
M  V30 10374 N 953.375 1.23811 0.975125 0
M  V30 10375 C 954.786 1.0675 1.53171 0
M  V30 10376 C 955.137 -0.363475 1.92804 0
M  V30 10377 O 954.262 -1.25089 1.76583 0
M  V30 10378 C 954.857 1.93161 2.78342 0
M  V30 10379 C 953.416 1.80346 3.30382 0
M  V30 10380 C 952.563 1.88544 2.03338 0
M  V30 10381 H 955.514 1.37396 0.79423 0
M  V30 10382 H 955.535 1.45951 3.51395 0
M  V30 10383 H 955.047 2.97302 2.49465 0
M  V30 10384 H 953.148 0.790077 3.64127 0
M  V30 10385 H 953.261 2.64026 3.99784 0
M  V30 10386 H 951.625 1.32186 2.17713 0
M  V30 10387 H 952.408 2.94252 1.76836 0
M  V30 10388 N 954.853 -1.17469 1.05066 0
M  V30 10389 C 956.099 -1.87976 0.761113 0
M  V30 10390 C 956.432 -1.80756 -0.709995 0
M  V30 10391 O 955.707 -1.21469 -1.51906 0
M  V30 10392 C 955.99 -3.38055 1.2406 0
M  V30 10393 C 955.843 -3.54032 2.77455 0
M  V30 10394 C 957.162 -4.32036 0.838612 0
M  V30 10395 H 954.281 -0.682573 0.277963 0
M  V30 10396 H 956.923 -1.38147 1.30443 0
M  V30 10397 H 955.073 -3.80622 0.778388 0
M  V30 10398 H 956.745 -3.20489 3.3179 0
M  V30 10399 H 954.988 -2.96352 3.16793 0
M  V30 10400 H 955.659 -4.59377 3.06066 0
M  V30 10401 H 958.135 -3.97303 1.23651 0
M  V30 10402 H 957.011 -5.35583 1.20173 0
M  V30 10403 H 957.272 -4.41349 -0.257498 0
M  V30 10404 N 956.331 -0.831506 -1.3388 0
M  V30 10405 C 957.559 -0.436925 -2.02234 0
M  V30 10406 C 957.974 0.959689 -1.6259 0
M  V30 10407 O 957.331 1.62248 -0.835576 0
M  V30 10408 C 957.382 -0.539429 -3.57453 0
M  V30 10409 O 957.103 -1.88101 -3.95664 0
M  V30 10410 C 958.604 -0.140852 -4.43076 0
M  V30 10411 H 955.824 -0.174302 -0.647966 0
M  V30 10412 H 958.368 -1.12204 -1.70969 0
M  V30 10413 H 956.523 0.0976959 -3.87277 0
M  V30 10414 H 956.937 -1.86131 -4.90363 0
M  V30 10415 H 958.411 -0.26364 -5.5137 0
M  V30 10416 H 958.888 0.916505 -4.29531 0
M  V30 10417 H 959.494 -0.752117 -4.18597 0
M  V30 10418 N 957.809 1.4625 -0.587256 0
M  V30 10419 C 958.741 2.28482 0.181256 0
M  V30 10420 C 959.754 1.38777 0.851163 0
M  V30 10421 O 960.943 1.63336 0.719963 0
M  V30 10422 C 958.043 3.13944 1.27643 0
M  V30 10423 C 957.216 4.31802 0.697569 0
M  V30 10424 C 956.275 4.98626 1.68102 0
M  V30 10425 O 955.301 5.56075 1.21529 0
M  V30 10426 N 956.503 4.96051 3.0152 0
M  V30 10427 H 959.268 2.95079 -0.524267 0
M  V30 10428 H 956.829 1.56213 -0.425336 0
M  V30 10429 H 958.821 3.55513 1.93371 0
M  V30 10430 H 957.391 2.49391 1.88475 0
M  V30 10431 H 956.611 3.93961 -0.137293 0
M  V30 10432 H 957.899 5.07969 0.290696 0
M  V30 10433 H 957.297 4.5063 3.41978 0
M  V30 10434 H 955.854 5.41547 3.62725 0
M  V30 10435 N 959.287 0.325282 1.54207 0
M  V30 10436 C 960.197 -0.548778 2.28091 0
M  V30 10437 C 961.213 -1.12772 1.32508 0
M  V30 10438 O 962.389 -1.14732 1.65525 0
M  V30 10439 C 959.454 -1.69284 3.02562 0
M  V30 10440 C 958.515 -1.14553 4.13734 0
M  V30 10441 C 957.748 -2.23506 4.84645 0
M  V30 10442 O 957.971 -3.43884 4.55082 0
M  V30 10443 O 956.905 -1.88828 5.71513 0
M  V30 10444 H 960.731 0.0512974 3.03657 0
M  V30 10445 H 958.316 0.0909159 1.49123 0
M  V30 10446 H 960.198 -2.35887 3.49192 0
M  V30 10447 H 958.873 -2.27906 2.2987 0
M  V30 10448 H 957.78 -0.444532 3.71449 0
M  V30 10449 H 959.113 -0.60441 4.88475 0
M  V30 10450 N 960.765 -1.57509 0.0534917 0
M  V30 10451 C 961.695 -2.14698 -0.917999 0
M  V30 10452 C 962.676 -1.06924 -1.32292 0
M  V30 10453 O 963.861 -1.34875 -1.39723 0
M  V30 10454 C 960.991 -2.69383 -2.19203 0
M  V30 10455 C 959.945 -3.82161 -1.9271 0
M  V30 10456 C 959.271 -4.23373 -3.26587 0
M  V30 10457 C 960.571 -5.07199 -1.24686 0
M  V30 10458 H 962.265 -2.96125 -0.44165 0
M  V30 10459 H 959.811 -1.42446 -0.210993 0
M  V30 10460 H 961.764 -3.08031 -2.87567 0
M  V30 10461 H 960.488 -1.85151 -2.69048 0
M  V30 10462 H 959.147 -3.43989 -1.26757 0
M  V30 10463 H 958.795 -3.36089 -3.74237 0
M  V30 10464 H 958.495 -4.99385 -3.09658 0
M  V30 10465 H 960.019 -4.64623 -3.96178 0
M  V30 10466 H 961.433 -5.43279 -1.83088 0
M  V30 10467 H 959.83 -5.88369 -1.18076 0
M  V30 10468 H 960.9 -4.84386 -0.223227 0
M  V30 10469 N 962.243 0.219913 -1.56058 0
M  V30 10470 C 963.492 0.942119 -1.78345 0
M  V30 10471 C 963.805 1.85435 -0.622344 0
M  V30 10472 O 965.011 2.61533 -0.728886 0
M  V30 10473 C 963.467 1.72544 -3.15843 0
M  V30 10474 C 963.075 0.859263 -4.39682 0
M  V30 10475 C 964.819 2.43876 -3.47455 0
M  V30 10476 C 962.726 1.64003 -5.68205 0
M  V30 10477 H 961.656 0.355514 -0.664925 0
M  V30 10478 H 964.307 0.195963 -1.82451 0
M  V30 10479 H 962.689 2.51456 -3.05918 0
M  V30 10480 H 963.863 0.110562 -4.60667 0
M  V30 10481 H 962.178 0.257985 -4.156 0
M  V30 10482 H 964.775 3.02794 -4.40704 0
M  V30 10483 H 965.118 3.16843 -2.7003 0
M  V30 10484 H 965.651 1.71952 -3.58716 0
M  V30 10485 H 962.39 0.953606 -6.48526 0
M  V30 10486 H 961.91 2.3633 -5.51279 0
M  V30 10487 H 963.589 2.20028 -6.08438 0
M  V30 10488 N 963.721 1.49897 0.486681 0
M  V30 10489 C 964.961 1.61732 1.24988 0
M  V30 10490 C 965.325 0.303724 1.89582 0
M  V30 10491 O 966.526 0.297373 2.6715 0
M  V30 10492 C 964.797 2.75429 2.27757 0
M  V30 10493 S 966.356 3.07304 3.13225 0
M  V30 10494 H 963.174 0.570316 0.424571 0
M  V30 10495 H 965.776 1.87617 0.549549 0
M  V30 10496 H 964.48 3.69376 1.78857 0
M  V30 10497 H 964.011 2.51582 3.0244 0
M  V30 10498 H 966.026 2.49928 4.28661 0
M  V30 10499 N 965.199 -0.738761 1.39212 0
M  V30 10500 C 966.146 -1.85273 1.37631 0
M  V30 10501 C 967.116 -1.64407 0.236572 0
M  V30 10502 O 968.301 -1.85866 0.431104 0
M  V30 10503 C 965.441 -3.22745 1.22188 0
M  V30 10504 C 964.554 -3.55342 2.45674 0
M  V30 10505 C 963.689 -4.82195 2.22847 0
M  V30 10506 C 962.728 -5.07625 3.42029 0
M  V30 10507 N 961.865 -6.25679 3.18543 0
M  V30 10508 H 966.705 -1.85959 2.32859 0
M  V30 10509 H 964.242 -0.908716 1.15675 0
M  V30 10510 H 966.2 -4.02095 1.11245 0
M  V30 10511 H 964.83 -3.21347 0.30592 0
M  V30 10512 H 963.882 -2.70722 2.67233 0
M  V30 10513 H 965.194 -3.70054 3.34457 0
M  V30 10514 H 964.348 -5.69518 2.09126 0
M  V30 10515 H 963.087 -4.6965 1.31454 0
M  V30 10516 H 962.092 -4.18765 3.56253 0
M  V30 10517 H 963.317 -5.22058 4.34319 0
M  V30 10518 H 961.263 -6.14429 2.2981 0
M  V30 10519 H 961.18 -6.40961 4.0088 0
M  V30 10520 H 962.448 -7.15851 3.08508 0
M  V30 10521 N 966.677 -1.24326 -0.968545 0
M  V30 10522 C 967.924 -1.08245 -1.71141 0
M  V30 10523 C 968.252 0.378842 -1.90775 0
M  V30 10524 O 967.507 1.29634 -1.46607 0
M  V30 10525 C 967.806 -1.76644 -3.10695 0
M  V30 10526 C 967.472 -3.26572 -3.10905 0
M  V30 10527 C 966.134 -3.67475 -3.10669 0
M  V30 10528 C 968.486 -4.22422 -3.05302 0
M  V30 10529 C 965.814 -5.02666 -3.02562 0
M  V30 10530 C 968.166 -5.57619 -2.98737 0
M  V30 10531 C 966.83 -5.9787 -2.9683 0
M  V30 10532 H 966.1 -0.396098 -0.626249 0
M  V30 10533 H 968.747 -1.54418 -1.13258 0
M  V30 10534 H 967.052 -1.22864 -3.72037 0
M  V30 10535 H 968.749 -1.61668 -3.66967 0
M  V30 10536 H 965.339 -2.94017 -3.11852 0
M  V30 10537 H 969.523 -3.91821 -3.04614 0
M  V30 10538 H 964.779 -5.3305 -2.99446 0
M  V30 10539 H 968.953 -6.31595 -2.93361 0
M  V30 10540 H 966.58 -7.02587 -2.90303 0
M  V30 10541 N 968.156 1.1691 -1.05688 0
M  V30 10542 C 969.089 2.19992 -0.606539 0
M  V30 10543 C 970.067 1.58393 0.367483 0
M  V30 10544 O 971.251 1.8644 0.277914 0
M  V30 10545 C 968.378 3.38516 0.111663 0
M  V30 10546 C 967.424 4.18579 -0.818153 0
M  V30 10547 S 968.257 4.83111 -2.31006 0
M  V30 10548 C 969.413 6.0502 -1.60317 0
M  V30 10549 H 969.646 2.57851 -1.47987 0
M  V30 10550 H 967.179 1.27604 -0.869291 0
M  V30 10551 H 969.137 4.07195 0.519829 0
M  V30 10552 H 967.798 2.99034 0.961103 0
M  V30 10553 H 966.991 5.03318 -0.262092 0
M  V30 10554 H 966.593 3.55362 -1.16592 0
M  V30 10555 H 968.885 6.71424 -0.905309 0
M  V30 10556 H 969.828 6.65164 -2.42823 0
M  V30 10557 H 970.236 5.53908 -1.08842 0
M  V30 10558 N 969.634 0.838594 1.33437 0
M  V30 10559 C 970.564 0.286672 2.31734 0
M  V30 10560 C 971.545 -0.605451 1.5896 0
M  V30 10561 O 972.73 -0.529059 1.86854 0
M  V30 10562 C 969.86 -0.539311 3.43087 0
M  V30 10563 C 968.814 0.256997 4.27228 0
M  V30 10564 C 968.14 -0.692718 5.30194 0
M  V30 10565 C 969.44 1.47391 5.01072 0
M  V30 10566 H 971.134 1.10798 2.78144 0
M  V30 10567 H 968.68 0.534235 1.33723 0
M  V30 10568 H 970.633 -0.935724 4.1088 0
M  V30 10569 H 969.357 -1.39383 2.95364 0
M  V30 10570 H 968.016 0.634967 3.61059 0
M  V30 10571 H 967.664 -1.54363 4.78729 0
M  V30 10572 H 967.364 -0.164023 5.87371 0
M  V30 10573 H 968.888 -1.08665 6.00853 0
M  V30 10574 H 970.302 1.15067 5.61634 0
M  V30 10575 H 968.699 1.93937 5.67898 0
M  V30 10576 H 969.769 2.24382 4.29861 0
M  V30 10577 N 971.112 -1.45937 0.595003 0
M  V30 10578 C 972.337 -2.07207 0.0894416 0
M  V30 10579 C 972.762 -1.43884 -1.21157 0
M  V30 10580 O 972.12 -0.526998 -1.73472 0
M  V30 10581 C 972.168 -3.60565 -0.0499828 0
M  V30 10582 O 971.272 -3.97364 -1.10342 0
M  V30 10583 H 970.613 -0.660471 0.0683627 0
M  V30 10584 H 973.143 -1.87386 0.82144 0
M  V30 10585 H 973.153 -4.0722 -0.252234 0
M  V30 10586 H 971.828 -4.06044 0.90006 0
M  V30 10587 H 970.405 -3.62401 -0.878645 0
M  V30 10588 N 972.59 -0.333456 -1.54032 0
M  V30 10589 C 974.001 0.15256 -1.86076 0
M  V30 10590 C 974.352 1.50819 -1.25492 0
M  V30 10591 O 973.477 2.08903 -0.564665 0
M  V30 10592 C 974.072 0.283599 -3.37611 0
M  V30 10593 C 972.631 0.713841 -3.69569 0
M  V30 10594 C 971.778 -0.158515 -2.76847 0
M  V30 10595 H 974.729 -0.553404 -1.48738 0
M  V30 10596 H 974.75 1.11284 -3.63863 0
M  V30 10597 H 974.262 -0.703193 -3.81676 0
M  V30 10598 H 972.363 1.71002 -3.31042 0
M  V30 10599 H 972.476 0.510731 -4.7637 0
M  V30 10600 H 970.84 0.367531 -2.52034 0
M  V30 10601 H 971.623 -1.14226 -3.2374 0
M  V30 10602 N 974.068 1.57479 -0.061844 0
M  V30 10603 C 975.316 1.92727 0.608336 0
M  V30 10604 C 975.637 0.941799 1.70749 0
M  V30 10605 O 974.907 -0.0116608 1.95897 0
M  V30 10606 H 973.487 0.71145 0.2277 0
M  V30 10607 H 976.149 1.94546 -0.117359 0
M  V30 10608 H 975.245 2.9426 1.04007 0
M  V30 10609 N 975.546 -0.211634 1.56173 0
M  V30 10610 C 976.494 -1.28188 1.94089 0
M  V30 10611 C 977.488 -1.47999 0.824167 0
M  V30 10612 O 978.694 -1.49056 1.00907 0
M  V30 10613 H 975.069 -0.42999 0.616938 0
M  V30 10614 H 977.04 -0.934962 2.83374 0
M  V30 10615 C 975.789 -2.62294 2.28248 0
M  V30 10616 H 975.112 -2.4786 3.13696 0
M  V30 10617 H 976.552 -3.35967 2.58655 0
M  V30 10618 C 975.011 -3.18049 1.11113 0
M  V30 10619 O 975.541 -3.99923 0.377458 0
M  V30 10620 N 973.747 -2.76561 0.892321 0
M  V30 10621 H 973.294 -2.10088 1.49067 0
M  V30 10622 H 973.252 -3.14206 0.110344 0
M  V30 10623 N 977.024 -1.50153 -0.478725 0
M  V30 10624 C 977.987 -1.67916 -1.56003 0
M  V30 10625 C 978.987 -0.550111 -1.51097 0
M  V30 10626 O 980.177 -0.817001 -1.53853 0
M  V30 10627 C 977.309 -1.6973 -2.95643 0
M  V30 10628 H 978.502 -2.6438 -1.41573 0
M  V30 10629 H 976.055 -1.39519 -0.704565 0
M  V30 10630 H 976.79 -0.749306 -3.15525 0
M  V30 10631 H 976.575 -2.51745 -3.00611 0
M  V30 10632 H 978.065 -1.85453 -3.74162 0
M  V30 10633 N 978.502 0.731368 -1.39602 0
M  V30 10634 C 979.779 1.48308 -1.27531 0
M  V30 10635 C 980.159 2.10795 0.113482 0
M  V30 10636 O 979.507 1.98886 1.12501 0
M  V30 10637 C 979.717 2.53156 -2.40235 0
M  V30 10638 C 981.065 3.19436 -2.79725 0
M  V30 10639 O 982.089 2.6347 -2.39712 0
M  V30 10640 O 980.948 4.20714 -3.48801 0
M  V30 10641 H 978.042 0.658753 -0.499973 0
M  V30 10642 H 980.588 0.764884 -1.51485 0
M  V30 10643 H 979.36 2.05387 -3.33064 0
M  V30 10644 H 978.983 3.3253 -2.17966 0
M  V30 10645 N 979.98 1.24838 0.961938 0
M  V30 10646 C 981.229 1.0855 1.69999 0
M  V30 10647 C 981.542 -0.374645 1.91979 0
M  V30 10648 O 982.748 -0.657822 2.6341 0
M  V30 10649 C 981.204 1.89424 3.06017 0
M  V30 10650 C 980.812 3.39885 2.9186 0
M  V30 10651 C 982.556 1.81684 3.83655 0
M  V30 10652 C 980.463 4.13082 4.23223 0
M  V30 10653 H 979.393 0.402603 0.637516 0
M  V30 10654 H 982.044 1.4897 1.07146 0
M  V30 10655 H 980.426 1.41823 3.69733 0
M  V30 10656 H 981.6 3.95108 2.37121 0
M  V30 10657 H 979.915 3.4864 2.27683 0
M  V30 10658 H 982.512 2.3367 4.80939 0
M  V30 10659 H 982.855 0.783247 4.08865 0
M  V30 10660 H 983.388 2.26997 3.26676 0
M  V30 10661 H 980.127 5.16824 4.03204 0
M  V30 10662 H 979.647 3.62644 4.77755 0
M  V30 10663 H 981.326 4.20397 4.91808 0
M  V30 10664 N 981.458 -1.16348 1.06306 0
M  V30 10665 C 982.388 -2.2291 0.695234 0
M  V30 10666 C 983.369 -1.67208 -0.312343 0
M  V30 10667 O 984.554 -1.93293 -0.187442 0
M  V30 10668 C 981.684 -3.47205 0.0810149 0
M  V30 10669 C 980.638 -4.15801 1.01458 0
M  V30 10670 C 979.964 -5.3405 0.263656 0
M  V30 10671 C 981.264 -4.66766 2.34365 0
M  V30 10672 H 982.958 -2.53934 1.58613 0
M  V30 10673 H 980.504 -1.22056 0.76409 0
M  V30 10674 H 982.457 -4.2098 -0.18818 0
M  V30 10675 H 981.181 -3.15482 -0.844897 0
M  V30 10676 H 979.84 -3.43954 1.26852 0
M  V30 10677 H 979.488 -4.9858 -0.665378 0
M  V30 10678 H 979.188 -5.80885 0.88582 0
M  V30 10679 H 980.712 -6.106 0.00200994 0
M  V30 10680 H 982.126 -5.3212 2.13356 0
M  V30 10681 H 980.523 -5.24223 2.9208 0
M  V30 10682 H 981.593 -3.82969 2.97426 0
M  V30 10683 N 982.937 -0.845659 -1.3299 0
M  V30 10684 C 984.186 -0.440928 -1.96822 0
M  V30 10685 C 984.499 1.00668 -1.67706 0
M  V30 10686 O 985.705 1.51641 -2.25205 0
M  V30 10687 C 984.161 -0.73752 -3.52262 0
M  V30 10688 C 983.769 -2.20026 -3.90247 0
M  V30 10689 C 985.513 -0.400072 -4.22611 0
M  V30 10690 C 983.42 -2.44054 -5.38694 0
M  V30 10691 H 982.35 -0.161148 -0.736578 0
M  V30 10692 H 985.001 -1.03519 -1.51513 0
M  V30 10693 H 983.383 -0.0728025 -3.95933 0
M  V30 10694 H 984.557 -2.90602 -3.57613 0
M  V30 10695 H 982.872 -2.50135 -3.32899 0
M  V30 10696 H 985.469 -0.557136 -5.3179 0
M  V30 10697 H 985.812 0.657547 -4.11074 0
M  V30 10698 H 986.345 -1.0203 -3.84493 0
M  V30 10699 H 983.084 -3.48407 -5.55241 0
M  V30 10700 H 982.604 -1.78047 -5.72765 0
M  V30 10701 H 984.283 -2.27549 -6.05665 0
M  V30 10702 N 984.415 1.45619 -0.602734 0
M  V30 10703 C 985.347 2.28662 0.157012 0
M  V30 10704 C 986.36 1.39672 0.836396 0
M  V30 10705 O 987.549 1.64091 0.702599 0
M  V30 10706 C 984.649 3.1528 1.24306 0
M  V30 10707 C 983.822 4.32517 0.651731 0
M  V30 10708 C 982.881 5.00381 1.62804 0
M  V30 10709 O 981.907 5.57333 1.15624 0
M  V30 10710 N 983.109 4.99221 2.96241 0
M  V30 10711 H 985.874 2.94506 -0.555535 0
M  V30 10712 H 983.435 1.55753 -0.441881 0
M  V30 10713 H 985.427 3.57544 1.8959 0
M  V30 10714 H 983.997 2.51376 1.85819 0
M  V30 10715 H 983.217 3.93793 -0.17907 0
M  V30 10716 H 984.505 5.08249 0.236802 0
M  V30 10717 H 983.903 4.54232 3.37179 0
M  V30 10718 H 982.46 5.45364 3.56961 0
M  V30 10719 N 985.893 0.34162 1.53853 0
M  V30 10720 C 987.121 -0.256929 2.05299 0
M  V30 10721 C 987.536 -1.44366 1.21671 0
M  V30 10722 O 986.893 -1.80758 0.251584 0
M  V30 10723 C 986.944 -0.673854 3.55164 0
M  V30 10724 O 986.665 0.465687 4.35618 0
M  V30 10725 C 988.166 -1.33332 4.22773 0
M  V30 10726 H 985.386 -0.0499445 0.669139 0
M  V30 10727 H 987.93 0.493048 1.98467 0
M  V30 10728 H 986.085 -1.37378 3.62224 0
M  V30 10729 H 986.499 0.133723 5.2433 0
M  V30 10730 H 987.973 -1.57582 5.29029 0
M  V30 10731 H 988.45 -2.28628 3.75001 0
M  V30 10732 H 989.056 -0.675489 4.19901 0
M  V30 10733 N 987.371 -1.57444 0.0701946 0
M  V30 10734 C 988.318 -2.12631 -0.897599 0
M  V30 10735 C 989.288 -1.03841 -1.29639 0
M  V30 10736 O 990.473 -1.31495 -1.38253 0
M  V30 10737 C 987.613 -2.6911 -2.16041 0
M  V30 10738 C 986.726 -3.9205 -1.8144 0
M  V30 10739 C 985.861 -4.36778 -3.02321 0
M  V30 10740 C 984.9 -5.52371 -2.63729 0
M  V30 10741 N 984.037 -5.92065 -3.77364 0
M  V30 10742 H 988.877 -2.95024 -0.420104 0
M  V30 10743 H 986.414 -1.45792 -0.195716 0
M  V30 10744 H 988.372 -2.99963 -2.89962 0
M  V30 10745 H 987.002 -1.89484 -2.61334 0
M  V30 10746 H 986.054 -3.67669 -0.975896 0
M  V30 10747 H 987.366 -4.76011 -1.49046 0
M  V30 10748 H 986.52 -4.69285 -3.84521 0
M  V30 10749 H 985.259 -3.51668 -3.37907 0
M  V30 10750 H 984.264 -5.19517 -1.7995 0
M  V30 10751 H 985.489 -6.39212 -2.29315 0
M  V30 10752 H 983.435 -5.09904 -4.12715 0
M  V30 10753 H 983.352 -6.70762 -3.48733 0
M  V30 10754 H 984.62 -6.29193 -4.60148 0
M  V30 10755 N 988.849 0.203349 -1.56283 0
M  V30 10756 C 990.095 0.926381 -1.80405 0
M  V30 10757 C 990.428 1.8325 -0.642883 0
M  V30 10758 O 989.703 1.91196 0.356998 0
M  V30 10759 C 989.986 1.74972 -3.14733 0
M  V30 10760 C 989.839 0.868866 -4.41328 0
M  V30 10761 C 991.158 2.72394 -3.45672 0
M  V30 10762 H 988.277 0.335346 -0.656286 0
M  V30 10763 H 990.919 0.1942 -1.89005 0
M  V30 10764 H 989.069 2.37394 -3.07533 0
M  V30 10765 H 990.741 0.259986 -4.60567 0
M  V30 10766 H 988.984 0.175161 -4.33446 0
M  V30 10767 H 989.655 1.47975 -5.31796 0
M  V30 10768 H 992.131 2.20105 -3.53119 0
M  V30 10769 H 991.007 3.27091 -4.40798 0
M  V30 10770 H 991.268 3.51035 -2.6875 0
M  V30 10771 N 990.327 1.50405 0.470755 0
M  V30 10772 C 991.573 1.6165 1.22462 0
M  V30 10773 C 991.906 0.316034 1.91611 0
M  V30 10774 O 991.181 -0.682509 1.82132 0
M  V30 10775 C 991.464 2.79702 2.26801 0
M  V30 10776 C 991.317 4.19631 1.61955 0
M  V30 10777 C 992.636 2.93313 3.28109 0
M  V30 10778 H 989.755 0.588345 0.443868 0
M  V30 10779 H 992.397 1.82792 0.518376 0
M  V30 10780 H 990.547 2.61807 2.87036 0
M  V30 10781 H 992.219 4.49117 1.05316 0
M  V30 10782 H 990.462 4.23874 0.922674 0
M  V30 10783 H 991.133 4.98162 2.37779 0
M  V30 10784 H 993.609 3.09697 2.77897 0
M  V30 10785 H 992.485 3.77537 3.98443 0
M  V30 10786 H 992.746 2.03942 3.9225 0
M  V30 10787 N 991.805 -0.723954 1.39988 0
M  V30 10788 C 993.03 -1.5182 1.41299 0
M  V30 10789 C 993.455 -1.88096 0.0122636 0
M  V30 10790 O 992.813 -1.52687 -0.977559 0
M  V30 10791 C 992.861 -2.77532 2.30235 0
M  V30 10792 O 991.965 -3.73903 1.73984 0
M  V30 10793 H 991.306 -0.458058 0.480707 0
M  V30 10794 H 993.836 -0.892291 1.84118 0
M  V30 10795 H 993.846 -3.2615 2.45132 0
M  V30 10796 H 992.521 -2.50462 3.32026 0
M  V30 10797 H 991.098 -3.32715 1.68389 0
M  V30 10798 N 993.283 -1.25346 -0.955304 0
M  V30 10799 C 994.216 -0.999933 -2.05126 0
M  V30 10800 C 995.194 0.070585 -1.62447 0
M  V30 10801 O 996.378 -0.0689306 -1.88374 0
M  V30 10802 C 993.505 -0.511425 -3.34817 0
M  V30 10803 C 992.551 -1.57237 -3.96458 0
M  V30 10804 S 993.384 -3.15736 -4.32517 0
M  V30 10805 C 994.54 -2.68619 -5.65327 0
M  V30 10806 H 994.773 -1.92791 -2.26316 0
M  V30 10807 H 992.306 -1.08869 -1.09485 0
M  V30 10808 H 994.264 -0.236219 -4.0982 0
M  V30 10809 H 992.925 0.39604 -3.11593 0
M  V30 10810 H 992.118 -1.18125 -4.89962 0
M  V30 10811 H 991.72 -1.79822 -3.27933 0
M  V30 10812 H 994.012 -2.12203 -6.4341 0
M  V30 10813 H 994.955 -3.6076 -6.09309 0
M  V30 10814 H 995.363 -2.08638 -5.24529 0
M  V30 10815 N 994.761 1.15782 -1.06922 0
M  V30 10816 C 995.693 2.19978 -0.643604 0
M  V30 10817 C 996.706 1.59981 0.301653 0
M  V30 10818 O 997.895 1.78265 0.0916508 0
M  V30 10819 C 994.995 3.38815 0.0757973 0
M  V30 10820 C 994.168 4.28363 -0.884545 0
M  V30 10821 C 993.227 5.25807 -0.203233 0
M  V30 10822 O 992.253 5.62924 -0.842904 0
M  V30 10823 N 993.455 5.70874 1.05279 0
M  V30 10824 H 996.22 2.57112 -1.53992 0
M  V30 10825 H 993.781 1.30855 -0.953344 0
M  V30 10826 H 995.773 4.01052 0.542151 0
M  V30 10827 H 994.343 3.00133 0.874 0
M  V30 10828 H 993.563 3.63292 -1.53012 0
M  V30 10829 H 994.851 4.85067 -1.53581 0
M  V30 10830 H 994.249 5.42822 1.5925 0
M  V30 10831 H 992.806 6.35171 1.46289 0
M  V30 10832 N 996.239 0.8527 1.3254 0
M  V30 10833 C 997.202 0.300959 2.27215 0
M  V30 10834 C 998.202 -0.538235 1.51525 0
M  V30 10835 O 999.392 -0.350027 1.70647 0
M  V30 10836 C 996.524 -0.574428 3.36025 0
M  V30 10837 H 997.717 1.13655 2.77529 0
M  V30 10838 H 995.27 0.626878 1.43178 0
M  V30 10839 H 996.005 -1.43191 2.90976 0
M  V30 10840 H 995.79 0.0262265 3.92091 0
M  V30 10841 H 997.28 -0.9533 4.06573 0
M  V30 10842 N 997.718 -1.45297 0.610449 0
M  V30 10843 C 998.995 -1.95562 0.0386189 0
M  V30 10844 C 999.375 -1.55284 -1.43004 0
M  V30 10845 O 998.723 -0.816785 -2.13403 0
M  V30 10846 C 998.933 -3.48176 0.239731 0
M  V30 10847 C 1000.28 -4.24425 0.122035 0
M  V30 10848 O 1001.3 -3.55794 0.170003 0
M  V30 10849 O 1000.16 -5.46499 0.00953695 0
M  V30 10850 H 997.258 -0.826296 -0.0341081 0
M  V30 10851 H 999.804 -1.55449 0.68071 0
M  V30 10852 H 998.576 -3.70471 1.25963 0
M  V30 10853 H 998.199 -3.95186 -0.437486 0
M  V30 10854 N 999.196 -0.349774 -1.5367 0
M  V30 10855 C 1000.14 0.519396 -2.26727 0
M  V30 10856 C 1001.14 1.09673 -1.29105 0
M  V30 10857 O 1002.34 1.04176 -1.46791 0
M  V30 10858 H 998.719 0.186192 -0.728585 0
M  V30 10859 H 1000.69 -0.118736 -2.98164 0
M  V30 10860 C 999.439 1.65535 -3.05767 0
M  V30 10861 H 998.762 1.22038 -3.80719 0
M  V30 10862 H 1000.2 2.23856 -3.6009 0
M  V30 10863 C 998.661 2.58844 -2.15642 0
M  V30 10864 O 999.191 3.61254 -1.75665 0
M  V30 10865 N 997.397 2.27671 -1.80595 0
M  V30 10866 H 996.944 1.44429 -2.13302 0
M  V30 10867 H 996.902 2.90359 -1.20577 0
M  V30 10868 N 1000.67 1.57404 -0.0785433 0
M  V30 10869 C 1002.08 1.81118 0.45311 0
M  V30 10870 C 1002.44 0.992963 1.69218 0
M  V30 10871 O 1001.56 0.217448 2.15305 0
M  V30 10872 C 1002.16 3.28506 0.82882 0
M  V30 10873 C 1000.71 3.53042 1.3053 0
M  V30 10874 C 999.862 2.75739 0.29378 0
M  V30 10875 H 1002.81 1.55758 -0.304171 0
M  V30 10876 H 1002.83 3.40924 1.68971 0
M  V30 10877 H 1002.35 3.88031 -0.0731826 0
M  V30 10878 H 1000.45 2.98829 2.22558 0
M  V30 10879 H 1000.56 4.61724 1.27857 0
M  V30 10880 H 998.924 2.42703 0.772477 0
M  V30 10881 H 999.707 3.38005 -0.600613 0
M  V30 10882 N 1002.15 -0.195058 1.56388 0
M  V30 10883 C 1003.08 -1.26978 1.8961 0
M  V30 10884 C 1004.06 -1.43946 0.756199 0
M  V30 10885 O 1005.25 -1.59335 1.0072 0
M  V30 10886 C 1002.37 -2.63638 2.12632 0
M  V30 10887 C 1001.42 -2.6354 3.35334 0
M  V30 10888 S 1002.25 -2.1497 4.90457 0
M  V30 10889 C 1003.41 -3.53454 5.16547 0
M  V30 10890 H 1003.64 -0.986091 2.8047 0
M  V30 10891 H 1001.17 -0.398552 1.49167 0
M  V30 10892 H 1003.13 -3.42304 2.26579 0
M  V30 10893 H 1001.79 -2.89218 1.22522 0
M  V30 10894 H 1000.99 -3.64027 3.48569 0
M  V30 10895 H 1000.59 -1.92956 3.20381 0
M  V30 10896 H 1002.88 -4.49318 5.0707 0
M  V30 10897 H 1003.82 -3.45113 6.18306 0
M  V30 10898 H 1004.23 -3.48368 4.44185 0
M  V30 10899 N 1003.63 -1.50653 -0.462772 0
M  V30 10900 C 1004.54 -1.72923 -1.58539 0
M  V30 10901 C 1005.56 -0.612577 -1.6286 0
M  V30 10902 O 1006.73 -0.891885 -1.80575 0
M  V30 10903 C 1003.8 -1.82623 -2.94703 0
M  V30 10904 C 1002.86 -3.06392 -3.00704 0
M  V30 10905 C 1002.09 -3.15618 -4.30373 0
M  V30 10906 O 1002.31 -2.31423 -5.21344 0
M  V30 10907 O 1001.25 -4.0841 -4.42136 0
M  V30 10908 H 1005.07 -2.68103 -1.42669 0
M  V30 10909 H 1002.66 -1.34848 -0.643144 0
M  V30 10910 H 1004.54 -1.91134 -3.7556 0
M  V30 10911 H 1003.22 -0.906275 -3.10754 0
M  V30 10912 H 1002.12 -3.03375 -2.18894 0
M  V30 10913 H 1003.46 -3.97992 -2.89591 0
M  V30 10914 N 1005.11 0.71652 -1.4037 0
M  V30 10915 C 1006.33 1.51069 -1.42102 0
M  V30 10916 C 1006.76 1.88087 -0.0222387 0
M  V30 10917 O 1006.12 1.53204 0.969448 0
M  V30 10918 C 1006.16 2.76307 -2.31704 0
M  V30 10919 O 1005.27 3.72975 -1.75964 0
M  V30 10920 H 1004.61 0.455502 -0.483129 0
M  V30 10921 H 1007.14 0.882514 -1.84588 0
M  V30 10922 H 1007.15 3.24846 -2.46859 0
M  V30 10923 H 1005.82 2.48698 -3.3335 0
M  V30 10924 H 1004.4 3.31818 -1.70151 0
M  V30 10925 N 1006.59 1.25851 0.948643 0
M  V30 10926 C 1007.81 1.13813 1.73382 0
M  V30 10927 C 1008.24 -0.303615 1.85633 0
M  V30 10928 O 1007.59 -1.21997 1.34114 0
M  V30 10929 C 1007.64 1.80388 3.12238 0
M  V30 10930 O 1006.75 1.08759 3.978 0
M  V30 10931 H 1006.09 0.397006 0.532243 0
M  V30 10932 H 1008.62 1.66529 1.18866 0
M  V30 10933 H 1008.63 1.86913 3.62667 0
M  V30 10934 H 1007.3 2.85278 3.02637 0
M  V30 10935 H 1005.88 1.10157 3.56258 0
M  V30 10936 N 1008.06 -1.15214 1.07534 0
M  V30 10937 C 1009.31 -1.85388 0.794617 0
M  V30 10938 C 1009.63 -1.83331 -0.681838 0
M  V30 10939 O 1010.83 -2.49207 -1.0774 0
M  V30 10940 C 1009.29 -3.32747 1.37141 0
M  V30 10941 C 1008.9 -3.43244 2.87902 0
M  V30 10942 C 1010.64 -4.08093 1.16879 0
M  V30 10943 C 1008.55 -4.84762 3.38763 0
M  V30 10944 H 1007.48 -0.694499 0.293577 0
M  V30 10945 H 1010.13 -1.29944 1.29564 0
M  V30 10946 H 1008.51 -3.87874 0.798121 0
M  V30 10947 H 1009.68 -2.98214 3.51291 0
M  V30 10948 H 1008 -2.81345 3.06975 0
M  V30 10949 H 1010.6 -5.12535 1.52353 0
M  V30 10950 H 1010.94 -4.1616 0.107958 0
M  V30 10951 H 1011.47 -3.59241 1.70854 0
M  V30 10952 H 1008.21 -4.81879 4.4438 0
M  V30 10953 H 1007.73 -5.30366 2.80128 0
M  V30 10954 H 1009.41 -5.53624 3.34827 0
M  V30 10955 N 1009.54 -0.859717 -1.32086 0
M  V30 10956 C 1010.47 -0.323502 -2.31248 0
M  V30 10957 C 1011.45 0.580085 -1.59903 0
M  V30 10958 O 1012.64 0.499265 -1.87673 0
M  V30 10959 C 1009.77 0.484661 -3.43902 0
M  V30 10960 C 1008.72 -0.324933 -4.26765 0
M  V30 10961 C 1008.05 0.608281 -5.31229 0
M  V30 10962 C 1009.35 -1.55344 -4.98664 0
M  V30 10963 H 1011.04 -1.15209 -2.76346 0
M  V30 10964 H 1008.59 -0.555442 -1.32856 0
M  V30 10965 H 1010.54 0.870238 -4.12316 0
M  V30 10966 H 1009.27 1.34666 -2.97544 0
M  V30 10967 H 1007.92 -0.692328 -3.60003 0
M  V30 10968 H 1007.57 1.46727 -4.81124 0
M  V30 10969 H 1007.27 0.0705571 -5.87558 0
M  V30 10970 H 1008.8 0.990925 -6.02506 0
M  V30 10971 H 1010.21 -1.23987 -5.59732 0
M  V30 10972 H 1008.61 -2.02947 -5.64741 0
M  V30 10973 H 1009.68 -2.31192 -4.26237 0
M  V30 10974 N 1011.02 1.44971 -0.618145 0
M  V30 10975 C 1012.25 2.07039 -0.122395 0
M  V30 10976 C 1012.67 1.45793 1.18853 0
M  V30 10977 O 1012.03 0.55453 1.72611 0
M  V30 10978 C 1012.08 3.60599 -0.0073864 0
M  V30 10979 O 1011.18 3.99069 1.04007 0
M  V30 10980 H 1010.52 0.6593 -0.0788615 0
M  V30 10981 H 1013.05 1.86055 -0.851147 0
M  V30 10982 H 1013.06 4.07569 0.187417 0
M  V30 10983 H 1011.74 4.04561 -0.964544 0
M  V30 10984 H 1010.31 3.63753 0.820879 0
M  V30 10985 N 1012.5 0.357919 1.53482 0
M  V30 10986 C 1013.78 -0.290164 1.93436 0
M  V30 10987 C 1014.16 -1.67039 1.29079 0
M  V30 10988 O 1013.5 -2.24085 0.447017 0
M  V30 10989 C 1013.71 -0.348055 3.4726 0
M  V30 10990 C 1015.06 -0.59206 4.20452 0
M  V30 10991 O 1016.09 -0.429581 3.536 0
M  V30 10992 O 1014.94 -0.907855 5.38907 0
M  V30 10993 H 1012.04 -0.172312 0.80885 0
M  V30 10994 H 1014.58 0.410144 1.64669 0
M  V30 10995 H 1013.36 0.619953 3.86358 0
M  V30 10996 H 1012.98 -1.09457 3.82237 0
M  V30 10997 N 1013.98 -1.5736 0.0868897 0
M  V30 10998 C 1015.25 -1.85495 -0.620561 0
M  V30 10999 C 1015.63 -0.982218 -1.86857 0
M  V30 11000 O 1014.98 -0.0524529 -2.2844 0
M  V30 11001 C 1015.19 -3.35996 -0.943798 0
M  V30 11002 C 1016.54 -4.03861 -1.31079 0
M  V30 11003 O 1017.56 -3.4083 -1.03507 0
M  V30 11004 O 1016.42 -5.15062 -1.82683 0
M  V30 11005 H 1013.52 -0.766822 -0.309697 0
M  V30 11006 H 1016.06 -1.69282 0.118966 0
M  V30 11007 H 1014.83 -3.91257 -0.0580628 0
M  V30 11008 H 1014.46 -3.57525 -1.73958 0
M  V30 11009 N 1015.45 0.186762 -1.56489 0
M  V30 11010 C 1016.7 0.904077 -1.80303 0
M  V30 11011 C 1017.02 1.84073 -0.661538 0
M  V30 11012 O 1018.22 2.59928 -0.784197 0
M  V30 11013 C 1016.68 1.65806 -3.19432 0
M  V30 11014 C 1016.29 0.765807 -4.41406 0
M  V30 11015 C 1018.03 2.36451 -3.52549 0
M  V30 11016 C 1015.94 1.51913 -5.71556 0
M  V30 11017 H 1014.87 0.34133 -0.672317 0
M  V30 11018 H 1017.52 0.157218 -1.82825 0
M  V30 11019 H 1015.9 2.44911 -3.11183 0
M  V30 11020 H 1017.07 0.0128225 -4.60798 0
M  V30 11021 H 1015.39 0.169772 -4.16054 0
M  V30 11022 H 1017.99 2.93378 -4.47027 0
M  V30 11023 H 1018.33 3.11044 -2.7669 0
M  V30 11024 H 1018.86 1.64305 -3.62283 0
M  V30 11025 H 1015.6 0.815829 -6.50403 0
M  V30 11026 H 1015.12 2.24583 -5.56168 0
M  V30 11027 H 1016.8 2.07073 -6.12968 0
M  V30 11028 N 1016.93 1.50896 0.454776 0
M  V30 11029 C 1018.21 1.53227 1.21576 0
M  V30 11030 C 1018.59 0.286358 2.09149 0
M  V30 11031 O 1017.94 -0.729469 2.16543 0
M  V30 11032 C 1018.15 2.83693 2.03271 0
M  V30 11033 C 1019.5 3.34981 2.60908 0
M  V30 11034 O 1020.52 2.85126 2.13499 0
M  V30 11035 O 1019.38 4.21929 3.4733 0
M  V30 11036 H 1016.47 0.615306 0.552564 0
M  V30 11037 H 1019.02 1.63197 0.465266 0
M  V30 11038 H 1017.79 3.65839 1.38843 0
M  V30 11039 H 1017.41 2.76803 2.85422 0
M  V30 11040 N 1018.41 -0.709066 1.40748 0
M  V30 11041 C 1019.69 -1.4626 1.29874 0
M  V30 11042 C 1020.07 -2.10949 -0.0799322 0
M  V30 11043 O 1019.42 -2.00651 -1.09323 0
M  V30 11044 C 1019.63 -2.49302 2.44232 0
M  V30 11045 C 1020.97 -3.14945 2.84771 0
M  V30 11046 O 1022 -2.59623 2.43873 0
M  V30 11047 O 1020.86 -4.15111 3.5545 0
M  V30 11048 H 1017.95 -0.650716 0.51039 0
M  V30 11049 H 1020.5 -0.740687 1.52682 0
M  V30 11050 H 1019.27 -2.00063 3.36289 0
M  V30 11051 H 1018.89 -3.29021 2.23229 0
M  V30 11052 N 1019.89 -1.26353 -0.941956 0
M  V30 11053 C 1020.8 -1.09618 -2.07415 0
M  V30 11054 C 1021.82 -0.0298963 -1.73974 0
M  V30 11055 O 1022.99 -0.233466 -2.00042 0
M  V30 11056 C 1020.06 -0.73013 -3.38925 0
M  V30 11057 C 1019.12 -1.87574 -3.86153 0
M  V30 11058 C 1018.35 -1.52706 -5.11387 0
M  V30 11059 O 1018.57 -0.428438 -5.68789 0
M  V30 11060 O 1017.51 -2.36154 -5.53638 0
M  V30 11061 H 1021.33 -2.04598 -2.2444 0
M  V30 11062 H 1018.92 -1.05407 -1.05876 0
M  V30 11063 H 1020.8 -0.538684 -4.17943 0
M  V30 11064 H 1019.48 0.190282 -3.2314 0
M  V30 11065 H 1018.38 -2.12214 -3.08084 0
M  V30 11066 H 1019.72 -2.77585 -4.06457 0
M  V30 11067 N 1021.37 1.14642 -1.08144 0
M  V30 11068 C 1022.28 2.23257 -0.720668 0
M  V30 11069 C 1023.29 1.71866 0.271648 0
M  V30 11070 O 1024.47 2.01064 0.116266 0
M  V30 11071 C 1021.53 3.46447 -0.132542 0
M  V30 11072 C 1020.6 4.12789 -1.17913 0
M  V30 11073 C 1019.83 5.30099 -0.618971 0
M  V30 11074 O 1020.05 5.6762 0.562418 0
M  V30 11075 O 1018.99 5.86154 -1.36774 0
M  V30 11076 H 1022.81 2.56463 -1.62667 0
M  V30 11077 H 1020.4 1.22521 -0.854932 0
M  V30 11078 H 1022.28 4.20959 0.19277 0
M  V30 11079 H 1020.95 3.14971 0.746662 0
M  V30 11080 H 1019.86 3.40163 -1.55693 0
M  V30 11081 H 1021.19 4.48365 -2.03051 0
M  V30 11082 N 1022.85 0.866709 1.31628 0
M  V30 11083 C 1024.09 0.476731 1.97117 0
M  V30 11084 C 1024.42 -0.967813 1.68366 0
M  V30 11085 O 1023.7 -1.68101 0.978377 0
M  V30 11086 C 1023.98 0.730561 3.52611 0
M  V30 11087 C 1023.84 2.2244 3.90948 0
M  V30 11088 C 1025.15 0.19488 4.39668 0
M  V30 11089 H 1022.27 0.174682 0.715999 0
M  V30 11090 H 1024.92 1.08735 1.5581 0
M  V30 11091 H 1023.07 0.210834 3.87927 0
M  V30 11092 H 1024.74 2.81113 3.6575 0
M  V30 11093 H 1022.98 2.69824 3.39673 0
M  V30 11094 H 1023.65 2.35266 4.99353 0
M  V30 11095 H 1026.13 0.639478 4.11157 0
M  V30 11096 H 1025 0.401958 5.47426 0
M  V30 11097 H 1025.26 -0.90302 4.32779 0
M  V30 11098 N 1024.32 -1.44642 0.625825 0
M  V30 11099 C 1025.57 -2.02939 0.13689 0
M  V30 11100 C 1025.92 -1.48308 -1.22566 0
M  V30 11101 O 1025.22 -0.655458 -1.8004 0
M  V30 11102 C 1025.41 -3.57352 0.0584381 0
M  V30 11103 C 1025.24 -4.26963 1.41184 0
M  V30 11104 C 1024.01 -4.64153 1.99725 0
M  V30 11105 C 1026.21 -4.5775 2.34455 0
M  V30 11106 N 1024.19 -5.18706 3.28356 0
M  V30 11107 C 1025.56 -5.1333 3.47696 0
M  V30 11108 C 1027.62 -4.39699 2.336 0
M  V30 11109 C 1026.32 -5.5276 4.60271 0
M  V30 11110 C 1028.35 -4.80173 3.45235 0
M  V30 11111 C 1027.71 -5.35862 4.572 0
M  V30 11112 H 1023.81 -0.776343 0.0938879 0
M  V30 11113 H 1026.39 -1.76209 0.828162 0
M  V30 11114 H 1024.56 -3.83705 -0.6021 0
M  V30 11115 H 1026.29 -4.02314 -0.438835 0
M  V30 11116 H 1023.05 -4.48298 1.52728 0
M  V30 11117 H 1023.47 -5.50464 3.94105 0
M  V30 11118 H 1028.11 -3.95942 1.48289 0
M  V30 11119 H 1025.83 -5.95473 5.46294 0
M  V30 11120 H 1029.42 -4.67924 3.45743 0
M  V30 11121 H 1028.3 -5.66602 5.42154 0
M  V30 11122 N 1025.8 -0.366053 -1.5329 0
M  V30 11123 C 1026.73 0.47211 -2.28677 0
M  V30 11124 C 1027.71 1.08353 -1.31125 0
M  V30 11125 O 1028.9 1.10069 -1.59995 0
M  V30 11126 C 1026.03 1.61174 -3.07637 0
M  V30 11127 C 1024.98 1.12755 -4.12881 0
M  V30 11128 C 1024.31 2.35745 -4.79925 0
M  V30 11129 C 1025.61 0.211954 -5.2187 0
M  V30 11130 H 1027.3 -0.156838 -2.98989 0
M  V30 11131 H 1024.85 -0.0768709 -1.43795 0
M  V30 11132 H 1026.8 2.20473 -3.59123 0
M  V30 11133 H 1025.52 2.26793 -2.35016 0
M  V30 11134 H 1024.18 0.557234 -3.6234 0
M  V30 11135 H 1023.83 2.99821 -4.03877 0
M  V30 11136 H 1023.53 2.04019 -5.51044 0
M  V30 11137 H 1025.06 2.95729 -5.34207 0
M  V30 11138 H 1026.47 0.71244 -5.68856 0
M  V30 11139 H 1024.87 -0.0144501 -6.00098 0
M  V30 11140 H 1025.94 -0.745753 -4.79131 0
M  V30 11141 N 1027.28 1.57312 -0.0952337 0
M  V30 11142 C 1028.51 1.98409 0.575984 0
M  V30 11143 C 1028.92 0.973168 1.62253 0
M  V30 11144 O 1028.26 -0.0454416 1.83644 0
M  V30 11145 C 1028.32 3.35877 1.28167 0
M  V30 11146 C 1027.99 4.55368 0.385868 0
M  V30 11147 C 1028.98 5.1861 -0.366041 0
M  V30 11148 C 1026.67 5.0138 0.303885 0
M  V30 11149 C 1028.66 6.26233 -1.18791 0
M  V30 11150 C 1026.35 6.0887 -0.521637 0
M  V30 11151 C 1027.35 6.71161 -1.26618 0
M  V30 11152 O 1027.04 7.76577 -2.07804 0
M  V30 11153 H 1026.77 0.657018 0.159068 0
M  V30 11154 H 1029.32 2.04685 -0.171237 0
M  V30 11155 H 1027.55 3.26284 2.07547 0
M  V30 11156 H 1029.24 3.6142 1.84744 0
M  V30 11157 H 1030.01 4.83993 -0.312435 0
M  V30 11158 H 1025.89 4.52657 0.873065 0
M  V30 11159 H 1029.43 6.74784 -1.76955 0
M  V30 11160 H 1025.33 6.42918 -0.576722 0
M  V30 11161 H 1026.09 7.93566 -2.00489 0
M  V30 11162 N 1028.76 -0.17846 1.56586 0
M  V30 11163 C 1030 -0.892915 1.82753 0
M  V30 11164 C 1030.36 -1.8018 0.674744 0
M  V30 11165 O 1029.65 -1.8875 -0.329219 0
M  V30 11166 C 1029.85 -1.73063 3.12704 0
M  V30 11167 C 1029.67 -0.904341 4.40513 0
M  V30 11168 C 1028.44 -0.582221 5.01935 0
M  V30 11169 C 1030.64 -0.249232 5.13696 0
M  V30 11170 N 1028.62 0.260955 6.13345 0
M  V30 11171 C 1030 0.455417 6.18325 0
M  V30 11172 C 1032.05 -0.166663 4.97621 0
M  V30 11173 C 1030.75 1.23479 7.08622 0
M  V30 11174 C 1032.78 0.599362 5.88355 0
M  V30 11175 C 1032.14 1.2924 6.92442 0
M  V30 11176 H 1028.24 -0.30559 0.719818 0
M  V30 11177 H 1030.82 -0.160405 1.94038 0
M  V30 11178 H 1029 -2.43461 3.02624 0
M  V30 11179 H 1030.73 -2.38584 3.26894 0
M  V30 11180 H 1027.48 -0.910612 4.64763 0
M  V30 11181 H 1027.91 0.672643 6.7365 0
M  V30 11182 H 1032.55 -0.688116 4.17163 0
M  V30 11183 H 1030.27 1.76762 7.88531 0
M  V30 11184 H 1033.85 0.664826 5.77989 0
M  V30 11185 H 1032.73 1.87564 7.61439 0
M  V30 11186 N 1030.24 -1.51135 -0.446768 0
M  V30 11187 C 1031.48 -1.62571 -1.19388 0
M  V30 11188 C 1031.8 -0.3432 -1.92566 0
M  V30 11189 O 1033 -0.336804 -2.69403 0
M  V30 11190 C 1031.46 -2.87071 -2.17068 0
M  V30 11191 C 1031.07 -4.22291 -1.49581 0
M  V30 11192 C 1032.81 -3.07862 -2.9227 0
M  V30 11193 C 1030.72 -5.3795 -2.45689 0
M  V30 11194 H 1029.65 -0.60549 -0.449331 0
M  V30 11195 H 1032.3 -1.77593 -0.461846 0
M  V30 11196 H 1030.68 -2.65662 -2.93666 0
M  V30 11197 H 1031.86 -4.54046 -0.786054 0
M  V30 11198 H 1030.17 -4.07302 -0.865677 0
M  V30 11199 H 1032.77 -3.91444 -3.64246 0
M  V30 11200 H 1033.11 -2.20559 -3.53072 0
M  V30 11201 H 1033.64 -3.29566 -2.2278 0
M  V30 11202 H 1030.38 -6.27484 -1.89591 0
M  V30 11203 H 1029.9 -5.10583 -3.14746 0
M  V30 11204 H 1031.58 -5.69517 -3.07017 0
M  V30 11205 N 1031.71 0.701592 -1.41122 0
M  V30 11206 C 1032.99 1.45569 -1.30648 0
M  V30 11207 C 1033.37 2.10988 0.068744 0
M  V30 11208 O 1032.72 2.01228 1.08257 0
M  V30 11209 C 1032.93 2.48003 -2.45551 0
M  V30 11210 C 1034.28 3.13431 -2.86437 0
M  V30 11211 O 1035.3 2.58327 -2.45247 0
M  V30 11212 O 1034.16 4.13221 -3.57646 0
M  V30 11213 H 1031.25 0.648 -0.513834 0
M  V30 11214 H 1033.8 0.73258 -1.53073 0
M  V30 11215 H 1032.57 1.98276 -3.37346 0
M  V30 11216 H 1032.19 3.27832 -2.24971 0
M  V30 11217 N 1033.19 1.2685 0.935242 0
M  V30 11218 C 1034.42 1.15645 1.72165 0
M  V30 11219 C 1034.84 -0.283909 1.85945 0
M  V30 11220 O 1034.2 -1.20567 1.354 0
M  V30 11221 C 1034.25 1.83689 3.10307 0
M  V30 11222 O 1033.35 1.12972 3.96625 0
M  V30 11223 H 1032.69 0.402629 0.528002 0
M  V30 11224 H 1035.22 1.67781 1.17093 0
M  V30 11225 H 1035.23 1.90749 3.60664 0
M  V30 11226 H 1033.91 2.88472 2.99595 0
M  V30 11227 H 1032.48 1.13929 3.5507 0
M  V30 11228 N 1034.67 -1.14067 1.0875 0
M  V30 11229 C 1035.62 -2.21332 0.715195 0
M  V30 11230 C 1036.61 -1.67059 -0.280679 0
M  V30 11231 O 1037.82 -1.79432 -0.142874 0
M  V30 11232 H 1034.19 -0.721126 0.213264 0
M  V30 11233 H 1036.16 -2.50002 1.62916 0
M  V30 11234 C 1034.91 -3.474 0.144401 0
M  V30 11235 H 1034.24 -3.89495 0.901884 0
M  V30 11236 H 1035.68 -4.23928 -0.0782564 0
M  V30 11237 C 1034.14 -3.17787 -1.11862 0
M  V30 11238 O 1034.67 -3.35906 -2.20295 0
M  V30 11239 N 1032.87 -2.71719 -1.03039 0
M  V30 11240 H 1032.42 -2.57175 -0.14793 0
M  V30 11241 H 1032.38 -2.52281 -1.87621 0
M  V30 11242 N 1036.15 -0.873678 -1.31166 0
M  V30 11243 C 1037.1 -0.330288 -2.28424 0
M  V30 11244 C 1038.07 0.573299 -1.55893 0
M  V30 11245 O 1039.25 0.504143 -1.84019 0
M  V30 11246 C 1036.39 0.459004 -3.42034 0
M  V30 11247 C 1035.5 -0.472519 -4.29408 0
M  V30 11248 C 1034.64 0.331261 -5.30166 0
M  V30 11249 C 1033.68 -0.596453 -6.09187 0
M  V30 11250 N 1032.81 0.171305 -7.01891 0
M  V30 11251 H 1037.65 -1.16485 -2.7429 0
M  V30 11252 H 1035.19 -0.585813 -1.34932 0
M  V30 11253 H 1037.15 0.932432 -4.06647 0
M  V30 11254 H 1035.78 1.25824 -2.97268 0
M  V30 11255 H 1034.83 -1.06441 -3.65205 0
M  V30 11256 H 1036.14 -1.18372 -4.84551 0
M  V30 11257 H 1035.3 0.867038 -6.00473 0
M  V30 11258 H 1034.04 1.07573 -4.75688 0
M  V30 11259 H 1033.04 -1.14395 -5.37767 0
M  V30 11260 H 1034.27 -1.33983 -6.65752 0
M  V30 11261 H 1032.21 0.89852 -6.49817 0
M  V30 11262 H 1032.13 -0.480481 -7.54472 0
M  V30 11263 H 1033.4 0.688192 -7.76456 0
M  V30 11264 N 1037.63 1.44308 -0.633487 0
M  V30 11265 C 1038.54 2.34492 0.0711787 0
M  V30 11266 C 1039.55 1.52754 0.8332 0
M  V30 11267 O 1040.73 1.85475 0.784929 0
M  V30 11268 C 1037.79 3.30767 1.03895 0
M  V30 11269 C 1036.85 4.28412 0.276043 0
M  V30 11270 C 1036.09 5.20087 1.19772 0
M  V30 11271 O 1036.31 5.15743 2.4365 0
M  V30 11272 O 1035.24 5.98038 0.680764 0
M  V30 11273 H 1039.07 2.96203 -0.67063 0
M  V30 11274 H 1036.66 1.4412 -0.393678 0
M  V30 11275 H 1038.54 3.90021 1.59566 0
M  V30 11276 H 1037.21 2.71586 1.76133 0
M  V30 11277 H 1036.12 3.72696 -0.32377 0
M  V30 11278 H 1037.45 4.9052 -0.406364 0
M  V30 11279 N 1039.1 0.374177 1.53094 0
M  V30 11280 C 1040.52 -0.103172 1.86415 0
M  V30 11281 C 1040.87 -1.47439 1.29446 0
M  V30 11282 O 1039.99 -2.07333 0.619853 0
M  V30 11283 C 1040.59 -0.193988 3.38244 0
M  V30 11284 C 1039.15 -0.615605 3.71332 0
M  V30 11285 C 1038.29 0.23186 2.76329 0
M  V30 11286 H 1041.24 0.592644 1.47219 0
M  V30 11287 H 1041.26 -1.01597 3.66686 0
M  V30 11288 H 1040.78 0.80414 3.79678 0
M  V30 11289 H 1038.88 -1.62165 3.3546 0
M  V30 11290 H 1038.99 -0.38425 4.77557 0
M  V30 11291 H 1037.35 -0.300579 2.5292 0
M  V30 11292 H 1038.14 1.22769 3.20597 0
M  V30 11293 N 1040.58 -1.57259 0.103575 0
M  V30 11294 C 1041.53 -2.11032 -0.863101 0
M  V30 11295 C 1042.52 -1.02737 -1.2383 0
M  V30 11296 O 1043.71 -1.28997 -1.21197 0
M  V30 11297 C 1040.84 -2.70099 -2.11899 0
M  V30 11298 C 1039.92 -3.85451 -1.76885 0
M  V30 11299 N 1040.31 -4.93137 -1.12469 0
M  V30 11300 C 1038.61 -3.95346 -2.06441 0
M  V30 11301 C 1039.31 -5.73681 -0.962527 0
M  V30 11302 N 1038.29 -5.22992 -1.48258 0
M  V30 11303 H 1042.09 -2.91671 -0.361264 0
M  V30 11304 H 1039.61 -1.62096 -0.0993794 0
M  V30 11305 H 1041.6 -3.06957 -2.82104 0
M  V30 11306 H 1040.26 -1.90918 -2.62641 0
M  V30 11307 H 1041.27 -5.11832 -0.790489 0
M  V30 11308 H 1037.95 -3.27185 -2.59338 0
M  V30 11309 H 1039.34 -6.70337 -0.458098 0
M  V30 11310 N 1042.06 0.170153 -1.56679 0
M  V30 11311 C 1043.31 0.884841 -1.817 0
M  V30 11312 C 1043.63 1.82731 -0.680763 0
M  V30 11313 O 1042.9 1.936 0.299294 0
M  V30 11314 H 1041.48 0.329738 -0.670285 0
M  V30 11315 H 1044.14 0.169691 -1.9416 0
M  V30 11316 H 1043.24 1.46104 -2.7579 0
M  V30 11317 N 1043.54 1.5137 0.438746 0
M  V30 11318 C 1044.49 1.72582 1.53245 0
M  V30 11319 C 1045.46 0.567488 1.56105 0
M  V30 11320 O 1046.64 0.80176 1.73137 0
M  V30 11321 C 1043.78 1.85551 2.90972 0
M  V30 11322 C 1042.89 3.13094 2.97652 0
M  V30 11323 C 1042.03 3.16666 4.26493 0
M  V30 11324 C 1041.07 4.38529 4.27035 0
M  V30 11325 N 1040.2 4.39659 5.47398 0
M  V30 11326 H 1045.04 2.65941 1.3446 0
M  V30 11327 H 1042.58 1.31801 0.653206 0
M  V30 11328 H 1044.54 1.91053 3.70884 0
M  V30 11329 H 1043.17 0.956025 3.08318 0
M  V30 11330 H 1042.22 3.16909 2.10412 0
M  V30 11331 H 1043.53 4.03009 2.93914 0
M  V30 11332 H 1042.69 3.21075 5.14777 0
M  V30 11333 H 1041.43 2.24637 4.32885 0
M  V30 11334 H 1040.43 4.34297 3.37144 0
M  V30 11335 H 1041.66 5.31821 4.22307 0
M  V30 11336 H 1039.6 3.50499 5.54514 0
M  V30 11337 H 1039.52 5.23382 5.45534 0
M  V30 11338 H 1040.79 4.48259 6.37718 0
M  V30 11339 N 1045.02 -0.694098 1.41492 0
M  V30 11340 C 1045.98 -1.78976 1.43179 0
M  V30 11341 C 1046.98 -1.57539 0.322191 0
M  V30 11342 O 1048.17 -1.64185 0.582138 0
M  V30 11343 C 1045.3 -3.17368 1.2446 0
M  V30 11344 H 1046.49 -1.78874 2.40716 0
M  V30 11345 H 1044.05 -0.901867 1.27656 0
M  V30 11346 H 1044.78 -3.23109 0.277691 0
M  V30 11347 H 1044.57 -3.3433 2.04856 0
M  V30 11348 H 1046.06 -3.97345 1.28479 0
M  V30 11349 N 1046.49 -1.27344 -0.928501 0
M  V30 11350 C 1047.74 -1.13019 -1.67061 0
M  V30 11351 C 1048.06 0.323614 -1.92904 0
M  V30 11352 O 1049.26 0.587752 -2.65062 0
M  V30 11353 C 1047.72 -1.97471 -3.00887 0
M  V30 11354 C 1047.33 -3.47504 -2.82746 0
M  V30 11355 C 1049.07 -1.91792 -3.78703 0
M  V30 11356 C 1046.98 -4.24158 -4.12122 0
M  V30 11357 H 1045.91 -0.419364 -0.626618 0
M  V30 11358 H 1048.56 -1.51759 -1.03158 0
M  V30 11359 H 1046.94 -1.51576 -3.65843 0
M  V30 11360 H 1048.11 -4.01256 -2.26562 0
M  V30 11361 H 1046.43 -3.54554 -2.18359 0
M  V30 11362 H 1049.03 -2.46339 -4.74575 0
M  V30 11363 H 1049.37 -0.891375 -4.06645 0
M  V30 11364 H 1049.9 -2.35578 -3.20543 0
M  V30 11365 H 1046.64 -5.27333 -3.89359 0
M  V30 11366 H 1046.16 -3.75183 -4.67972 0
M  V30 11367 H 1047.84 -4.33288 -4.80489 0
M  V30 11368 N 1047.97 1.13488 -1.09353 0
M  V30 11369 C 1049.39 1.36739 -0.823086 0
M  V30 11370 C 1049.59 1.93476 0.562963 0
M  V30 11371 O 1048.64 2.15374 1.31796 0
M  V30 11372 C 1049.96 2.31943 -1.91371 0
M  V30 11373 C 1051.51 2.4556 -1.94085 0
M  V30 11374 C 1051.98 3.44072 -3.02289 0
M  V30 11375 N 1053.47 3.51622 -3.01524 0
M  V30 11376 C 1054.21 4.27724 -3.8189 0
M  V30 11377 N 1053.7 5.06987 -4.72161 0
M  V30 11378 N 1055.5 4.23018 -3.70152 0
M  V30 11379 H 1047.65 0.75012 -1.98713 0
M  V30 11380 H 1049.91 0.392564 -0.862901 0
M  V30 11381 H 1049.62 1.97408 -2.91072 0
M  V30 11382 H 1049.49 3.31952 -1.79131 0
M  V30 11383 H 1051.88 2.79382 -0.950234 0
M  V30 11384 H 1051.96 1.45479 -2.10403 0
M  V30 11385 H 1051.6 3.10981 -4.01564 0
M  V30 11386 H 1051.53 4.43956 -2.83214 0
M  V30 11387 H 1054.02 2.95066 -2.36103 0
M  V30 11388 H 1054.34 5.6236 -5.30067 0
M  V30 11389 H 1052.68 5.06222 -4.76197 0
M  V30 11390 H 1055.87 3.60171 -2.98989 0
M  V30 11391 H 1056.04 4.82075 -4.33022 0
M  V30 11392 N 1049.45 0.880621 1.30701 0
M  V30 11393 C 1050.4 0.315679 2.25804 0
M  V30 11394 C 1051.39 -0.553382 1.51084 0
M  V30 11395 O 1052.58 -0.398518 1.72455 0
M  V30 11396 C 1049.71 -0.472586 3.40032 0
M  V30 11397 C 1048.79 0.410318 4.2211 0
M  V30 11398 N 1049.18 1.50876 4.82773 0
M  V30 11399 C 1047.48 0.20465 4.4553 0
M  V30 11400 C 1048.18 2.05409 5.44226 0
M  V30 11401 N 1047.16 1.34964 5.26579 0
M  V30 11402 H 1050.96 1.15505 2.70251 0
M  V30 11403 H 1048.47 0.729547 1.45091 0
M  V30 11404 H 1050.47 -0.893918 4.07204 0
M  V30 11405 H 1049.13 -1.30945 2.97125 0
M  V30 11406 H 1050.14 1.89163 4.82118 0
M  V30 11407 H 1046.82 -0.595398 4.13233 0
M  V30 11408 H 1048.21 2.97627 6.02385 0
M  V30 11409 N 1050.93 -1.4397 0.641131 0
M  V30 11410 C 1051.86 -2.33458 -0.04446 0
M  V30 11411 C 1052.84 -1.48781 -0.824507 0
M  V30 11412 O 1054.03 -1.77477 -0.788397 0
M  V30 11413 C 1051.16 -3.31989 -1.01984 0
M  V30 11414 C 1050.11 -4.2656 -0.350745 0
M  V30 11415 C 1049.44 -5.15036 -1.43673 0
M  V30 11416 C 1050.74 -5.16897 0.749299 0
M  V30 11417 H 1052.43 -2.91034 0.702832 0
M  V30 11418 H 1049.98 -1.39942 0.339435 0
M  V30 11419 H 1051.93 -3.93483 -1.50828 0
M  V30 11420 H 1050.65 -2.72643 -1.79815 0
M  V30 11421 H 1049.31 -3.66413 0.117139 0
M  V30 11422 H 1048.96 -4.52037 -2.20617 0
M  V30 11423 H 1048.66 -5.79125 -0.994358 0
M  V30 11424 H 1050.18 -5.79403 -1.92678 0
M  V30 11425 H 1051.6 -5.7227 0.343534 0
M  V30 11426 H 1049.99 -5.89643 1.11541 0
M  V30 11427 H 1051.06 -4.5731 1.61232 0
M  V30 11428 N 1052.41 -0.382291 -1.52893 0
M  V30 11429 C 1053.37 0.44408 -2.24857 0
M  V30 11430 C 1054.37 0.996004 -1.26239 0
M  V30 11431 O 1055.56 0.879114 -1.5039 0
M  V30 11432 C 1052.69 1.62234 -2.99822 0
M  V30 11433 H 1053.89 -0.185862 -2.99324 0
M  V30 11434 H 1051.44 -0.134275 -1.55722 0
M  V30 11435 H 1052.17 2.28991 -2.29638 0
M  V30 11436 H 1051.96 1.23336 -3.72197 0
M  V30 11437 H 1053.45 2.20756 -3.54481 0
M  V30 11438 N 1053.89 1.57202 -0.111913 0
M  V30 11439 C 1054.82 2.11995 0.871242 0
M  V30 11440 C 1055.83 1.06102 1.23475 0
M  V30 11441 O 1057.02 1.33497 1.18494 0
M  V30 11442 C 1054.12 2.59874 2.17528 0
M  V30 11443 C 1053.29 3.89788 1.98455 0
M  V30 11444 C 1052.35 4.23339 3.12523 0
M  V30 11445 O 1051.38 4.92277 2.85748 0
M  V30 11446 N 1052.58 3.80089 4.38762 0
M  V30 11447 H 1055.34 2.96976 0.403157 0
M  V30 11448 H 1052.91 1.61737 0.0727159 0
M  V30 11449 H 1054.9 2.79354 2.9282 0
M  V30 11450 H 1053.47 1.79812 2.55707 0
M  V30 11451 H 1052.69 3.79288 1.07396 0
M  V30 11452 H 1053.98 4.74748 1.83007 0
M  V30 11453 H 1053.37 3.24473 4.63394 0
M  V30 11454 H 1051.93 4.04691 5.10949 0
M  V30 11455 N 1055.36 -0.161842 1.56767 0
M  V30 11456 C 1056.27 -1.21996 2.00385 0
M  V30 11457 C 1057.29 -1.4789 0.916768 0
M  V30 11458 O 1058.47 -1.59852 1.22513 0
M  V30 11459 C 1055.53 -2.53695 2.36305 0
M  V30 11460 C 1054.59 -2.3558 3.58888 0
M  V30 11461 C 1053.82 -3.60998 3.93085 0
M  V30 11462 O 1054.05 -4.6657 3.28129 0
M  V30 11463 O 1052.98 -3.54544 4.86397 0
M  V30 11464 H 1056.81 -0.879701 2.9068 0
M  V30 11465 H 1054.39 -0.369437 1.4476 0
M  V30 11466 H 1056.27 -3.31366 2.60335 0
M  V30 11467 H 1054.95 -2.87281 1.49169 0
M  V30 11468 H 1053.86 -1.55908 3.40064 0
M  V30 11469 H 1055.19 -2.06915 4.46595 0
M  V30 11470 N 1056.84 -1.516 -0.430713 0
M  V30 11471 C 1057.8 -1.72794 -1.50582 0
M  V30 11472 C 1058.8 -0.597903 -1.49271 0
M  V30 11473 O 1059.99 -0.865535 -1.51176 0
M  V30 11474 C 1057.13 -1.79049 -2.90093 0
M  V30 11475 H 1058.32 -2.68751 -1.33091 0
M  V30 11476 H 1055.87 -1.4169 -0.659822 0
M  V30 11477 H 1056.61 -0.849309 -3.12981 0
M  V30 11478 H 1056.39 -2.61181 -2.92449 0
M  V30 11479 H 1057.88 -1.97262 -3.68072 0
M  V30 11480 N 1058.32 0.686584 -1.41858 0
M  V30 11481 C 1059.27 1.80038 -1.44413 0
M  V30 11482 C 1060.24 1.63415 -0.297427 0
M  V30 11483 O 1061.42 1.84138 -0.499789 0
M  V30 11484 C 1058.56 3.17988 -1.34082 0
M  V30 11485 C 1057.67 3.45979 -2.58693 0
M  V30 11486 C 1056.81 4.73592 -2.4059 0
M  V30 11487 C 1055.85 4.94581 -3.60633 0
M  V30 11488 N 1054.99 6.13426 -3.41545 0
M  V30 11489 H 1059.83 1.77189 -2.396 0
M  V30 11490 H 1057.36 0.865158 -1.18968 0
M  V30 11491 H 1059.32 3.97689 -1.26092 0
M  V30 11492 H 1057.95 3.1999 -0.424975 0
M  V30 11493 H 1057 2.60617 -2.77097 0
M  V30 11494 H 1058.31 3.57386 -3.47961 0
M  V30 11495 H 1057.47 5.61364 -2.30119 0
M  V30 11496 H 1056.21 4.64448 -1.48794 0
M  V30 11497 H 1055.21 4.05254 -3.71549 0
M  V30 11498 H 1056.44 5.05578 -4.53395 0
M  V30 11499 H 1054.38 6.05477 -2.52456 0
M  V30 11500 H 1054.3 6.25641 -4.24393 0
M  V30 11501 H 1055.57 7.03908 -3.34864 0
M  V30 11502 N 1059.8 1.27835 0.921735 0
M  V30 11503 C 1060.71 1.12904 2.05645 0
M  V30 11504 C 1061.72 0.0575704 1.73905 0
M  V30 11505 O 1062.9 0.265261 1.99645 0
M  V30 11506 C 1059.96 0.783957 3.3772 0
M  V30 11507 C 1059.03 1.93694 3.8312 0
M  V30 11508 C 1058.26 1.60823 5.08893 0
M  V30 11509 O 1058.48 0.518873 5.68035 0
M  V30 11510 O 1057.42 2.44932 5.49811 0
M  V30 11511 H 1061.24 2.08143 2.21157 0
M  V30 11512 H 1058.83 1.07078 1.04185 0
M  V30 11513 H 1060.71 0.605107 4.17033 0
M  V30 11514 H 1059.38 -0.138849 3.23402 0
M  V30 11515 H 1058.29 2.17089 3.04669 0
M  V30 11516 H 1059.62 2.84016 4.0199 0
M  V30 11517 N 1061.28 -1.12907 1.09954 0
M  V30 11518 C 1062.52 -1.83941 0.837255 0
M  V30 11519 C 1062.84 -1.84234 -0.638984 0
M  V30 11520 O 1062.11 -1.30193 -1.46378 0
M  V30 11521 H 1060.69 -0.681115 0.306743 0
M  V30 11522 H 1063.36 -1.36743 1.38879 0
M  V30 11523 H 1062.45 -2.88289 1.19565 0
M  V30 11524 N 1062.75 -0.88754 -1.30232 0
M  V30 11525 C 1063.98 -0.522306 -2.00199 0
M  V30 11526 C 1064.4 0.889866 -1.66514 0
M  V30 11527 O 1063.75 1.58558 -0.903639 0
M  V30 11528 C 1063.8 -0.690551 -3.54843 0
M  V30 11529 O 1063.53 -2.04713 -3.8733 0
M  V30 11530 C 1065.03 -0.328649 -4.4208 0
M  V30 11531 H 1062.25 -0.201628 -0.63999 0
M  V30 11532 H 1064.79 -1.19355 -1.66056 0
M  V30 11533 H 1062.95 -0.0666493 -3.87343 0
M  V30 11534 H 1063.36 -2.06762 -4.82027 0
M  V30 11535 H 1064.83 -0.497257 -5.49756 0
M  V30 11536 H 1065.31 0.733502 -4.33032 0
M  V30 11537 H 1065.92 -0.928982 -4.1503 0
M  V30 11538 N 1064.23 1.43628 -0.648757 0
M  V30 11539 C 1065.18 2.30755 0.0455536 0
M  V30 11540 C 1066.15 1.44495 0.819168 0
M  V30 11541 O 1067.33 1.73372 0.79667 0
M  V30 11542 C 1064.47 3.30017 1.00908 0
M  V30 11543 C 1063.59 4.31376 0.232039 0
M  V30 11544 C 1062.72 5.17723 1.18897 0
M  V30 11545 C 1061.76 6.10778 0.402096 0
M  V30 11546 N 1060.9 6.89763 1.31038 0
M  V30 11547 H 1065.74 2.89581 -0.70332 0
M  V30 11548 H 1063.28 1.42662 -0.3586 0
M  V30 11549 H 1065.23 3.86072 1.58128 0
M  V30 11550 H 1063.86 2.72851 1.72488 0
M  V30 11551 H 1062.92 3.77652 -0.456373 0
M  V30 11552 H 1064.23 4.9735 -0.380023 0
M  V30 11553 H 1063.38 5.78381 1.83194 0
M  V30 11554 H 1062.12 4.51864 1.83494 0
M  V30 11555 H 1061.13 5.49212 -0.254255 0
M  V30 11556 H 1062.35 6.78678 -0.239411 0
M  V30 11557 H 1060.3 6.26557 1.94324 0
M  V30 11558 H 1060.21 7.52243 0.752774 0
M  V30 11559 H 1061.48 7.54931 1.94164 0
M  V30 11560 N 1065.71 0.390394 1.52688 0
M  V30 11561 C 1066.67 -0.432149 2.25089 0
M  V30 11562 C 1067.67 -0.989296 1.26766 0
M  V30 11563 O 1068.86 -0.871126 1.50854 0
M  V30 11564 C 1066 -1.60642 3.00678 0
M  V30 11565 H 1067.19 0.201734 2.99221 0
M  V30 11566 H 1064.74 0.142531 1.55649 0
M  V30 11567 H 1065.48 -2.2777 2.3085 0
M  V30 11568 H 1065.26 -1.21361 3.72846 0
M  V30 11569 H 1066.75 -2.18873 3.55647 0
M  V30 11570 N 1067.19 -1.57141 0.120249 0
M  V30 11571 C 1068.47 -1.8677 -0.581075 0
M  V30 11572 C 1068.85 -1.02163 -1.84732 0
M  V30 11573 O 1068.19 -0.100897 -2.28277 0
M  V30 11574 C 1068.4 -3.37923 -0.872316 0
M  V30 11575 C 1069.75 -4.0655 -1.22483 0
M  V30 11576 O 1070.78 -3.42948 -0.962539 0
M  V30 11577 O 1069.63 -5.18821 -1.71717 0
M  V30 11578 H 1066.73 -0.773219 -0.293362 0
M  V30 11579 H 1069.27 -1.68992 0.154846 0
M  V30 11580 H 1068.05 -3.91292 0.0249416 0
M  V30 11581 H 1067.67 -3.61135 -1.66335 0
M  V30 11582 N 1068.67 0.153526 -1.5685 0
M  V30 11583 C 1069.6 1.19162 -2.00805 0
M  V30 11584 C 1070.58 1.45172 -0.886518 0
M  V30 11585 O 1071.76 1.56203 -1.15387 0
M  V30 11586 C 1068.89 2.52637 -2.38311 0
M  V30 11587 C 1067.85 2.41161 -3.53589 0
M  V30 11588 C 1067.17 3.79287 -3.76889 0
M  V30 11589 C 1068.47 1.90122 -4.86468 0
M  V30 11590 H 1070.17 0.82617 -2.87776 0
M  V30 11591 H 1067.71 0.395972 -1.38449 0
M  V30 11592 H 1069.67 3.25478 -2.6766 0
M  V30 11593 H 1068.39 2.91005 -1.4827 0
M  V30 11594 H 1067.05 1.70772 -3.24395 0
M  V30 11595 H 1066.7 4.15079 -2.84109 0
M  V30 11596 H 1066.4 3.72472 -4.54465 0
M  V30 11597 H 1067.92 4.53687 -4.08657 0
M  V30 11598 H 1069.33 2.52752 -5.14577 0
M  V30 11599 H 1067.73 1.94214 -5.67804 0
M  V30 11600 H 1068.8 0.856517 -4.77275 0
M  V30 11601 N 1070.14 1.51827 0.422667 0
M  V30 11602 C 1071.05 1.77066 1.53899 0
M  V30 11603 C 1072.07 0.655541 1.61179 0
M  V30 11604 O 1073.25 0.939448 1.78147 0
M  V30 11605 C 1070.31 1.90372 2.89758 0
M  V30 11606 C 1069.37 3.14256 2.92475 0
M  V30 11607 C 1068.61 3.26918 4.21853 0
M  V30 11608 O 1068.83 2.45164 5.15025 0
M  V30 11609 O 1067.76 4.19989 4.31153 0
M  V30 11610 H 1071.59 2.71791 1.35511 0
M  V30 11611 H 1069.17 1.36506 0.607165 0
M  V30 11612 H 1071.06 2.01024 3.70361 0
M  V30 11613 H 1069.73 0.988347 3.08242 0
M  V30 11614 H 1068.64 3.09072 2.10773 0
M  V30 11615 H 1069.97 4.0553 2.78937 0
M  V30 11616 N 1071.62 -0.679052 1.4222 0
M  V30 11617 C 1072.87 -1.44125 1.42674 0
M  V30 11618 C 1073.2 -1.94156 0.041438 0
M  V30 11619 O 1072.48 -1.70628 -0.93361 0
M  V30 11620 C 1072.76 -2.64133 2.44756 0
M  V30 11621 C 1072.61 -2.19761 3.9246 0
M  V30 11622 C 1073.93 -3.66347 2.43881 0
M  V30 11623 H 1071.05 -0.522729 0.519541 0
M  V30 11624 H 1073.69 -0.772067 1.73606 0
M  V30 11625 H 1071.84 -3.21225 2.1851 0
M  V30 11626 H 1073.51 -1.67869 4.29671 0
M  V30 11627 H 1071.76 -1.51377 4.06531 0
M  V30 11628 H 1072.43 -3.05944 4.59459 0
M  V30 11629 H 1074.9 -3.18963 2.67211 0
M  V30 11630 H 1073.78 -4.47902 3.17293 0
M  V30 11631 H 1074.04 -4.17183 1.46325 0
M  V30 11632 N 1073.1 -1.28322 -0.914942 0
M  V30 11633 C 1074.03 -1.14681 -2.03398 0
M  V30 11634 C 1075.01 -0.0448939 -1.70041 0
M  V30 11635 O 1076.2 -0.221672 -1.92931 0
M  V30 11636 C 1073.33 -0.806623 -3.37803 0
M  V30 11637 C 1072.28 -1.86318 -3.85318 0
M  V30 11638 C 1071.61 -1.37665 -5.16674 0
M  V30 11639 C 1072.91 -3.26953 -4.07307 0
M  V30 11640 H 1074.6 -2.08293 -2.15068 0
M  V30 11641 H 1072.15 -1.00284 -1.03339 0
M  V30 11642 H 1074.1 -0.69796 -4.1558 0
M  V30 11643 H 1072.82 0.165203 -3.26182 0
M  V30 11644 H 1071.48 -1.96096 -3.09745 0
M  V30 11645 H 1071.13 -0.393927 -5.01455 0
M  V30 11646 H 1070.83 -2.08313 -5.49435 0
M  V30 11647 H 1072.35 -1.28119 -5.97007 0
M  V30 11648 H 1073.77 -3.20102 -4.75613 0
M  V30 11649 H 1072.17 -3.95424 -4.51398 0
M  V30 11650 H 1073.24 -3.71059 -3.12159 0
M  V30 11651 N 1074.58 1.12322 -1.10551 0
M  V30 11652 C 1075.81 1.87679 -0.87087 0
M  V30 11653 C 1076.22 1.79711 0.578733 0
M  V30 11654 O 1075.58 1.17185 1.39907 0
M  V30 11655 C 1075.63 3.36846 -1.31213 0
M  V30 11656 O 1075.35 3.44626 -2.70489 0
M  V30 11657 C 1076.85 4.29138 -1.11156 0
M  V30 11658 H 1074.07 0.593788 -0.3125 0
M  V30 11659 H 1076.62 1.42116 -1.47048 0
M  V30 11660 H 1074.77 3.79948 -0.756169 0
M  V30 11661 H 1075.18 4.37441 -2.89389 0
M  V30 11662 H 1076.66 5.32082 -1.46944 0
M  V30 11663 H 1077.14 4.39171 -0.0502963 0
M  V30 11664 H 1077.74 3.91818 -1.65405 0
M  V30 11665 N 1076.06 0.894434 1.2976 0
M  V30 11666 C 1077.29 0.532143 1.99629 0
M  V30 11667 C 1077.69 -0.886234 1.6716 0
M  V30 11668 O 1077.04 -1.59573 0.910065 0
M  V30 11669 C 1077.1 0.638335 3.53787 0
M  V30 11670 C 1076.76 2.02273 4.09798 0
M  V30 11671 C 1077.76 2.99327 4.25087 0
M  V30 11672 C 1075.45 2.33069 4.44954 0
M  V30 11673 C 1077.44 4.25304 4.74758 0
M  V30 11674 C 1075.13 3.59289 4.94322 0
M  V30 11675 C 1076.12 4.55222 5.09178 0
M  V30 11676 O 1075.81 5.79202 5.57477 0
M  V30 11677 H 1075.54 0.203326 0.644697 0
M  V30 11678 H 1078.1 1.2043 1.6639 0
M  V30 11679 H 1076.33 -0.0908338 3.86593 0
M  V30 11680 H 1078.02 0.285956 4.04891 0
M  V30 11681 H 1078.78 2.76849 3.9822 0
M  V30 11682 H 1074.66 1.59162 4.32653 0
M  V30 11683 H 1078.21 5.00189 4.86269 0
M  V30 11684 H 1074.1 3.816 5.20626 0
M  V30 11685 H 1074.87 5.81717 5.75802 0
M  V30 11686 N 1077.53 -1.43282 0.656365 0
M  V30 11687 C 1078.76 -2.05826 0.178619 0
M  V30 11688 C 1079.17 -1.493 -1.16216 0
M  V30 11689 O 1078.52 -0.620163 -1.72915 0
M  V30 11690 C 1078.58 -3.59496 0.0164101 0
M  V30 11691 C 1078.24 -4.38621 1.28298 0
M  V30 11692 C 1079.24 -4.70477 2.21241 0
M  V30 11693 C 1076.92 -4.78577 1.52544 0
M  V30 11694 C 1078.92 -5.412 3.36721 0
M  V30 11695 C 1076.6 -5.49044 2.68316 0
M  V30 11696 C 1077.6 -5.80279 3.6023 0
M  V30 11697 O 1077.29 -6.49306 4.7398 0
M  V30 11698 H 1077.02 -0.670158 0.0886814 0
M  V30 11699 H 1079.58 -1.84722 0.89816 0
M  V30 11700 H 1077.81 -3.79188 -0.758532 0
M  V30 11701 H 1079.5 -4.03731 -0.419096 0
M  V30 11702 H 1080.26 -4.40125 2.03753 0
M  V30 11703 H 1076.14 -4.5367 0.818816 0
M  V30 11704 H 1079.68 -5.65497 4.08483 0
M  V30 11705 H 1075.58 -5.78813 2.85738 0
M  V30 11706 H 1076.35 -6.67789 4.73286 0
M  V30 11707 N 1079.01 -0.398486 -1.52479 0
M  V30 11708 C 1080.43 -0.0488635 -1.59525 0
M  V30 11709 C 1080.63 1.43756 -1.41197 0
M  V30 11710 O 1079.69 2.20317 -1.23357 0
M  V30 11711 C 1081 -0.534262 -2.95916 0
M  V30 11712 C 1082.55 -0.491314 -3.0912 0
M  V30 11713 C 1083.02 -0.953049 -4.47974 0
M  V30 11714 N 1084.51 -0.909434 -4.54184 0
M  V30 11715 C 1085.25 -1.23801 -5.59876 0
M  V30 11716 N 1084.74 -1.63752 -6.73169 0
M  V30 11717 N 1086.54 -1.15867 -5.50028 0
M  V30 11718 H 1078.69 -1.36608 -1.62641 0
M  V30 11719 H 1080.95 -0.560515 -0.764544 0
M  V30 11720 H 1080.66 -1.57277 -3.14574 0
M  V30 11721 H 1080.53 0.0617787 -3.77149 0
M  V30 11722 H 1082.92 0.538123 -2.90152 0
M  V30 11723 H 1083 -1.12327 -2.29818 0
M  V30 11724 H 1082.64 -1.98076 -4.67684 0
M  V30 11725 H 1082.57 -0.298007 -5.25756 0
M  V30 11726 H 1085.06 -0.615569 -3.72853 0
M  V30 11727 H 1085.38 -1.87163 -7.49793 0
M  V30 11728 H 1083.72 -1.67647 -6.74477 0
M  V30 11729 H 1086.91 -0.845502 -4.60401 0
M  V30 11730 H 1087.09 -1.41805 -6.32294 0
M  V30 11731 N 1080.49 1.57075 -0.12858 0
M  V30 11732 C 1081.72 1.99586 0.533769 0
M  V30 11733 C 1082.13 1.00737 1.60152 0
M  V30 11734 O 1081.47 -0.00647783 1.83699 0
M  V30 11735 C 1081.53 3.3852 1.21014 0
M  V30 11736 C 1081.2 4.56084 0.289191 0
M  V30 11737 C 1082.2 5.17717 -0.475963 0
M  V30 11738 C 1079.88 5.01912 0.197467 0
M  V30 11739 C 1081.87 6.23572 -1.32048 0
M  V30 11740 C 1079.56 6.07626 -0.65067 0
M  V30 11741 C 1080.56 6.68324 -1.40826 0
M  V30 11742 O 1080.25 7.71995 -2.2423 0
M  V30 11743 H 1079.98 0.660245 0.145096 0
M  V30 11744 H 1082.53 2.04276 -0.214615 0
M  V30 11745 H 1080.76 3.30613 2.00579 0
M  V30 11746 H 1082.45 3.65258 1.77036 0
M  V30 11747 H 1083.22 4.83221 -0.415027 0
M  V30 11748 H 1079.1 4.54407 0.776853 0
M  V30 11749 H 1082.64 6.70878 -1.91228 0
M  V30 11750 H 1078.54 6.41551 -0.712965 0
M  V30 11751 H 1079.31 7.89135 -2.17276 0
M  V30 11752 N 1081.97 -0.145205 1.5693 0
M  V30 11753 C 1082.9 -1.20438 1.95006 0
M  V30 11754 C 1083.91 -1.39085 0.846114 0
M  V30 11755 O 1085.1 -1.38625 1.12452 0
M  V30 11756 C 1082.2 -2.56892 2.21043 0
M  V30 11757 C 1081.38 -2.59197 3.52329 0
M  V30 11758 C 1080.44 -3.77204 3.66884 0
M  V30 11759 O 1079.46 -3.61995 4.39259 0
M  V30 11760 N 1080.66 -4.9473 3.03682 0
M  V30 11761 H 1083.43 -0.880709 2.86467 0
M  V30 11762 H 1080.99 -0.334751 1.58401 0
M  V30 11763 H 1082.98 -3.34349 2.2802 0
M  V30 11764 H 1081.55 -2.81544 1.35838 0
M  V30 11765 H 1080.77 -1.67644 3.56776 0
M  V30 11766 H 1082.06 -2.57771 4.3867 0
M  V30 11767 H 1081.46 -5.09989 2.44801 0
M  V30 11768 H 1080.01 -5.69956 3.16218 0
M  V30 11769 N 1083.45 -1.52049 -0.414609 0
M  V30 11770 C 1084.38 -1.77956 -1.51175 0
M  V30 11771 C 1085.36 -0.630282 -1.57992 0
M  V30 11772 O 1086.54 -0.875324 -1.73354 0
M  V30 11773 C 1083.67 -1.92527 -2.89051 0
M  V30 11774 C 1082.63 -3.08096 -2.97087 0
M  V30 11775 C 1081.95 -3.07882 -4.37164 0
M  V30 11776 C 1083.25 -4.47656 -2.69075 0
M  V30 11777 H 1084.95 -2.69827 -1.29746 0
M  V30 11778 H 1082.49 -1.29839 -0.62273 0
M  V30 11779 H 1084.45 -2.09234 -3.65786 0
M  V30 11780 H 1083.17 -0.973235 -3.11762 0
M  V30 11781 H 1081.83 -2.91131 -2.22797 0
M  V30 11782 H 1081.48 -2.10411 -4.56877 0
M  V30 11783 H 1081.18 -3.85501 -4.43467 0
M  V30 11784 H 1082.7 -3.26712 -5.15841 0
M  V30 11785 H 1084.12 -4.64855 -3.35534 0
M  V30 11786 H 1082.51 -5.27151 -2.8676 0
M  V30 11787 H 1083.58 -4.56129 -1.64544 0
M  V30 11788 N 1084.93 0.6715 -1.42579 0
M  V30 11789 C 1085.87 1.80623 -1.46554 0
M  V30 11790 C 1086.87 1.65934 -0.340932 0
M  V30 11791 O 1088.07 1.72502 -0.514098 0
M  V30 11792 H 1084.45 0.595619 -0.459067 0
M  V30 11793 H 1086.42 1.74388 -2.42139 0
M  V30 11794 C 1085.17 3.18794 -1.38801 0
M  V30 11795 H 1084.49 3.30725 -2.24635 0
M  V30 11796 H 1085.93 3.98201 -1.45645 0
M  V30 11797 C 1084.39 3.36742 -0.103219 0
M  V30 11798 O 1084.92 3.92761 0.842715 0
M  V30 11799 N 1083.13 2.90594 -0.0193034 0
M  V30 11800 H 1082.67 2.45192 -0.78986 0
M  V30 11801 H 1082.63 3.0298 0.839686 0
M  V30 11802 N 1086.4 1.28806 0.908124 0
M  V30 11803 C 1087.33 1.15758 2.02787 0
M  V30 11804 C 1088.31 0.053911 1.70015 0
M  V30 11805 O 1089.5 0.231901 1.9281 0
M  V30 11806 C 1086.63 0.824526 3.37371 0
M  V30 11807 C 1085.58 1.88359 3.84324 0
M  V30 11808 C 1084.91 1.40404 5.15937 0
M  V30 11809 C 1086.21 3.29108 4.05568 0
M  V30 11810 H 1087.9 2.09431 2.13961 0
M  V30 11811 H 1085.45 1.00831 1.02806 0
M  V30 11812 H 1087.4 0.71999 4.15204 0
M  V30 11813 H 1086.13 -0.147902 3.26265 0
M  V30 11814 H 1084.79 1.97736 3.087 0
M  V30 11815 H 1084.43 0.420515 5.01239 0
M  V30 11816 H 1084.13 2.11224 5.48323 0
M  V30 11817 H 1085.66 1.31283 5.9632 0
M  V30 11818 H 1087.07 3.2262 4.73909 0
M  V30 11819 H 1085.47 3.97812 4.49294 0
M  V30 11820 H 1086.54 3.72709 3.10187 0
M  V30 11821 N 1087.88 -1.11734 1.11145 0
M  V30 11822 C 1089.13 -1.83405 0.858413 0
M  V30 11823 C 1089.46 -1.84488 -0.615975 0
M  V30 11824 O 1088.71 -1.29123 -1.47057 0
M  V30 11825 C 1089.01 -3.3046 1.36129 0
M  V30 11826 C 1088.68 -3.4954 2.84837 0
M  V30 11827 C 1087.34 -3.54456 3.25445 0
M  V30 11828 C 1089.69 -3.56048 3.8063 0
M  V30 11829 C 1087.02 -3.63431 4.60581 0
M  V30 11830 C 1089.37 -3.66554 5.15579 0
M  V30 11831 C 1088.03 -3.69728 5.55749 0
M  V30 11832 H 1087.3 -0.671128 0.314115 0
M  V30 11833 H 1089.95 -1.31795 1.38933 0
M  V30 11834 H 1088.26 -3.84544 0.750547 0
M  V30 11835 H 1089.95 -3.84398 1.14188 0
M  V30 11836 H 1086.54 -3.46382 2.52423 0
M  V30 11837 H 1090.73 -3.51513 3.5036 0
M  V30 11838 H 1085.98 -3.64164 4.91116 0
M  V30 11839 H 1090.16 -3.70532 5.89643 0
M  V30 11840 H 1087.78 -3.76435 6.60455 0
M  V30 11841 N 1089.36 -0.901303 -1.29284 0
M  V30 11842 C 1090.32 -0.385081 -2.25942 0
M  V30 11843 C 1091.32 0.481626 -1.53418 0
M  V30 11844 O 1092.51 0.286451 -1.71829 0
M  V30 11845 C 1089.64 0.449319 -3.37926 0
M  V30 11846 H 1090.84 -1.23877 -2.7312 0
M  V30 11847 H 1088.39 -0.679586 -1.40753 0
M  V30 11848 H 1089.13 1.32292 -2.9609 0
M  V30 11849 H 1088.91 -0.171731 -3.91724 0
M  V30 11850 H 1090.4 0.801746 -4.09831 0
M  V30 11851 N 1090.84 1.42931 -0.663954 0
M  V30 11852 C 1092.25 1.56098 -0.332496 0
M  V30 11853 C 1092.45 1.64564 1.16279 0
M  V30 11854 O 1091.51 1.6066 1.94794 0
M  V30 11855 C 1092.82 2.81649 -1.05329 0
M  V30 11856 C 1094.37 2.95408 -1.03457 0
M  V30 11857 C 1094.85 4.23805 -1.73647 0
M  V30 11858 N 1096.34 4.30693 -1.70462 0
M  V30 11859 C 1097.07 5.28833 -2.21637 0
M  V30 11860 N 1096.57 6.33189 -2.81147 0
M  V30 11861 N 1098.36 5.20558 -2.12075 0
M  V30 11862 H 1090.51 1.3568 -1.63416 0
M  V30 11863 H 1092.77 0.652361 -0.687844 0
M  V30 11864 H 1092.48 2.81494 -2.10842 0
M  V30 11865 H 1092.35 3.72208 -0.611626 0
M  V30 11866 H 1094.74 2.95097 0.0121936 0
M  V30 11867 H 1094.82 2.06109 -1.51502 0
M  V30 11868 H 1094.47 4.24876 -2.78285 0
M  V30 11869 H 1094.4 5.12019 -1.2306 0
M  V30 11870 H 1096.89 3.55904 -1.27046 0
M  V30 11871 H 1097.2 7.04411 -3.17844 0
M  V30 11872 H 1095.55 6.33781 -2.85212 0
M  V30 11873 H 1098.74 4.3795 -1.6528 0
M  V30 11874 H 1098.91 5.96881 -2.52264 0
M  V30 11875 N 1092.32 0.406567 1.52266 0
M  V30 11876 C 1093.25 -0.464709 2.23418 0
M  V30 11877 C 1094.23 -1.05008 1.24146 0
M  V30 11878 O 1095.41 -1.09843 1.53188 0
M  V30 11879 C 1092.54 -1.64481 2.96081 0
M  V30 11880 C 1091.58 -1.18307 4.09763 0
M  V30 11881 S 1092.42 -0.150326 5.35289 0
M  V30 11882 C 1093.57 -1.3358 6.11479 0
M  V30 11883 H 1093.81 0.139455 2.96973 0
M  V30 11884 H 1091.34 0.19085 1.53216 0
M  V30 11885 H 1093.3 -2.3215 3.38551 0
M  V30 11886 H 1091.96 -2.22031 2.22174 0
M  V30 11887 H 1091.15 -2.06466 4.59769 0
M  V30 11888 H 1090.75 -0.58505 3.69396 0
M  V30 11889 H 1093.04 -2.25986 6.38699 0
M  V30 11890 H 1093.99 -0.876328 7.02656 0
M  V30 11891 H 1094.4 -1.56044 5.42504 0
M  V30 11892 N 1093.79 -1.57004 0.136909 0
M  V30 11893 C 1095.03 -1.97686 -0.519583 0
M  V30 11894 C 1095.4 -1.01951 -1.62696 0
M  V30 11895 O 1096.6 -1.31639 -2.3436 0
M  V30 11896 C 1094.87 -3.42474 -1.02206 0
M  V30 11897 S 1096.43 -4.05176 -1.68457 0
M  V30 11898 H 1093.25 -0.690787 -0.168329 0
M  V30 11899 H 1095.85 -1.94187 0.226234 0
M  V30 11900 H 1094.55 -4.09887 -0.205194 0
M  V30 11901 H 1094.08 -3.49664 -1.80273 0
M  V30 11902 H 1096.1 -3.97401 -2.97131 0
M  V30 11903 N 1095.27 0.136881 -1.57004 0
M  V30 11904 C 1096.2 1.17026 -2.02057 0
M  V30 11905 C 1097.18 1.44223 -0.901866 0
M  V30 11906 O 1098.37 1.54971 -1.17037 0
M  V30 11907 C 1095.5 2.50095 -2.40977 0
M  V30 11908 C 1094.45 2.37398 -3.56127 0
M  V30 11909 C 1093.78 3.75268 -3.80891 0
M  V30 11910 C 1095.08 1.84952 -4.88457 0
M  V30 11911 H 1096.77 0.795601 -2.88636 0
M  V30 11912 H 1094.32 0.381266 -1.38861 0
M  V30 11913 H 1096.27 3.22621 -2.71097 0
M  V30 11914 H 1095 2.89416 -1.51348 0
M  V30 11915 H 1093.65 1.67322 -3.26188 0
M  V30 11916 H 1093.3 4.12043 -2.88496 0
M  V30 11917 H 1093 3.67631 -4.5839 0
M  V30 11918 H 1094.53 4.49327 -4.13446 0
M  V30 11919 H 1095.94 2.4728 -5.17229 0
M  V30 11920 H 1094.34 1.88181 -5.69832 0
M  V30 11921 H 1095.41 0.805848 -4.78157 0
M  V30 11922 N 1096.75 1.52266 0.40654 0
M  V30 11923 C 1098.03 1.57018 1.1664 0
M  V30 11924 C 1098.41 0.352752 2.08132 0
M  V30 11925 O 1097.76 -0.660208 2.18754 0
M  V30 11926 C 1097.97 2.90016 1.94143 0
M  V30 11927 C 1099.31 3.43112 2.50119 0
M  V30 11928 O 1100.34 2.91773 2.0432 0
M  V30 11929 O 1099.2 4.32765 3.33731 0
M  V30 11930 H 1096.29 0.632574 0.532709 0
M  V30 11931 H 1098.84 1.64595 0.413111 0
M  V30 11932 H 1097.61 3.70071 1.27134 0
M  V30 11933 H 1097.23 2.85744 2.76471 0
M  V30 11934 N 1098.23 -0.663929 1.42933 0
M  V30 11935 C 1099.64 -0.978346 1.26097 0
M  V30 11936 C 1099.84 -2.00756 0.172968 0
M  V30 11937 O 1098.9 -2.48418 -0.452184 0
M  V30 11938 C 1100.21 -1.4728 2.62162 0
M  V30 11939 C 1101.76 -1.59001 2.69606 0
M  V30 11940 C 1102.24 -2.1184 4.06064 0
M  V30 11941 N 1103.73 -2.19158 4.08074 0
M  V30 11942 C 1104.46 -2.61141 5.10483 0
M  V30 11943 N 1103.96 -3.02498 6.23271 0
M  V30 11944 N 1105.75 -2.60986 4.97838 0
M  V30 11945 H 1097.9 0.0173096 2.12393 0
M  V30 11946 H 1100.17 -0.0548116 0.946414 0
M  V30 11947 H 1099.87 -0.791008 3.42689 0
M  V30 11948 H 1099.75 -2.4497 2.86827 0
M  V30 11949 H 1102.13 -2.26284 1.89418 0
M  V30 11950 H 1102.21 -0.597728 2.48718 0
M  V30 11951 H 1101.86 -1.45162 4.86714 0
M  V30 11952 H 1101.79 -3.1188 4.2431 0
M  V30 11953 H 1104.28 -1.90013 3.26655 0
M  V30 11954 H 1104.59 -3.33251 6.97254 0
M  V30 11955 H 1102.94 -3.00328 6.2676 0
M  V30 11956 H 1106.13 -2.28046 4.08794 0
M  V30 11957 H 1106.3 -2.93384 5.7778 0
M  V30 11958 N 1099.71 -1.29285 -0.901281 0
M  V30 11959 C 1100.64 -1.10086 -2.01032 0
M  V30 11960 C 1101.65 -0.0488364 -1.62727 0
M  V30 11961 O 1102.84 -0.293194 -1.76076 0
M  V30 11962 C 1099.94 -0.653357 -3.32542 0
M  V30 11963 C 1099.11 -1.78355 -3.99385 0
M  V30 11964 C 1098.17 -1.32733 -5.09184 0
M  V30 11965 O 1097.2 -2.03177 -5.31703 0
M  V30 11966 N 1098.4 -0.197345 -5.80164 0
M  V30 11967 H 1101.17 -2.056 -2.18057 0
M  V30 11968 H 1098.73 -1.21204 -1.07337 0
M  V30 11969 H 1100.72 -0.331491 -4.0334 0
M  V30 11970 H 1099.29 0.209278 -3.11899 0
M  V30 11971 H 1098.51 -2.27438 -3.21972 0
M  V30 11972 H 1099.8 -2.54137 -4.40785 0
M  V30 11973 H 1099.19 0.390011 -5.64354 0
M  V30 11974 H 1097.75 0.0651642 -6.51767 0
M  V30 11975 N 1101.18 1.11143 -1.11736 0
M  V30 11976 C 1102.41 1.86474 -0.889435 0
M  V30 11977 C 1102.82 1.80584 0.564438 0
M  V30 11978 O 1102.17 1.18743 1.40163 0
M  V30 11979 C 1102.23 3.36066 -1.27671 0
M  V30 11980 C 1101.89 3.65721 -2.74038 0
M  V30 11981 C 1102.89 3.62941 -3.7225 0
M  V30 11982 C 1100.57 3.94629 -3.10762 0
M  V30 11983 C 1102.57 3.88651 -5.05202 0
M  V30 11984 C 1100.25 4.19997 -4.43899 0
M  V30 11985 C 1101.25 4.16996 -5.40928 0
M  V30 11986 O 1100.94 4.41724 -6.71666 0
M  V30 11987 H 1100.67 0.596438 -0.318178 0
M  V30 11988 H 1103.23 1.41465 -1.48918 0
M  V30 11989 H 1101.46 3.81695 -0.620124 0
M  V30 11990 H 1103.15 3.92769 -1.02409 0
M  V30 11991 H 1103.91 3.40655 -3.45223 0
M  V30 11992 H 1099.79 3.96099 -2.35853 0
M  V30 11993 H 1103.33 3.86224 -5.80927 0
M  V30 11994 H 1099.23 4.4176 -4.70657 0
M  V30 11995 H 1100 4.59276 -6.77501 0
M  V30 11996 N 1102.66 0.908147 1.28804 0
M  V30 11997 C 1103.59 0.409106 2.29888 0
M  V30 11998 C 1104.57 -0.520338 1.61946 0
M  V30 11999 O 1105.76 -0.429268 1.89396 0
M  V30 12000 C 1102.89 -0.35669 3.45463 0
M  V30 12001 C 1101.84 0.4831 4.25265 0
M  V30 12002 C 1101.17 -0.4107 5.3312 0
M  V30 12003 C 1102.47 1.73744 4.92555 0
M  V30 12004 H 1104.16 1.25386 2.7188 0
M  V30 12005 H 1101.71 0.604368 1.30703 0
M  V30 12006 H 1103.66 -0.71661 4.15262 0
M  V30 12007 H 1102.39 -1.2353 3.02337 0
M  V30 12008 H 1101.04 0.825464 3.57186 0
M  V30 12009 H 1100.69 -1.28769 4.86238 0
M  V30 12010 H 1100.39 0.14756 5.87415 0
M  V30 12011 H 1101.92 -0.766626 6.05768 0
M  V30 12012 H 1103.33 1.44676 5.54745 0
M  V30 12013 H 1101.73 2.23767 5.5682 0
M  V30 12014 H 1102.8 2.46853 4.17363 0
M  V30 12015 N 1104.14 -1.42577 0.671525 0
M  V30 12016 C 1105.1 -2.292 0.000392482 0
M  V30 12017 C 1106.1 -1.43158 -0.732294 0
M  V30 12018 O 1107.29 -1.64583 -0.570789 0
M  V30 12019 C 1104.43 -3.25591 -1.01013 0
M  V30 12020 H 1105.62 -2.90037 0.762783 0
M  V30 12021 H 1103.17 -1.50162 0.433703 0
M  V30 12022 H 1103.91 -2.69685 -1.80112 0
M  V30 12023 H 1103.69 -3.89049 -0.488183 0
M  V30 12024 H 1105.18 -3.90561 -1.47824 0
M  V30 12025 N 1105.62 -0.414636 -1.52048 0
M  V30 12026 C 1106.87 0.16073 -2.01059 0
M  V30 12027 C 1107.18 1.45753 -1.30443 0
M  V30 12028 O 1108.39 2.11448 -1.703 0
M  V30 12029 C 1106.84 0.336993 -3.58319 0
M  V30 12030 C 1106.45 -0.948037 -4.37854 0
M  V30 12031 C 1108.19 0.867353 -4.15545 0
M  V30 12032 C 1106.1 -0.738662 -5.86769 0
M  V30 12033 H 1105.03 0.0638419 -0.751292 0
M  V30 12034 H 1107.68 -0.540925 -1.75346 0
M  V30 12035 H 1106.06 1.10111 -3.80383 0
M  V30 12036 H 1107.24 -1.71873 -4.27547 0
M  V30 12037 H 1105.55 -1.40522 -3.91972 0
M  V30 12038 H 1108.15 1.04012 -5.24486 0
M  V30 12039 H 1108.49 1.84358 -3.73253 0
M  V30 12040 H 1109.03 0.162148 -3.97469 0
M  V30 12041 H 1105.77 -1.6866 -6.3343 0
M  V30 12042 H 1105.29 -0.00736294 -5.998 0
M  V30 12043 H 1106.96 -0.382978 -6.45866 0
M  V30 12044 N 1107.1 1.56929 -0.145233 0
M  V30 12045 C 1108.04 2.17958 0.812237 0
M  V30 12046 C 1109.04 1.13608 1.25657 0
M  V30 12047 O 1110.24 1.31861 1.22526 0
M  V30 12048 H 1106.62 0.697876 0.28013 0
M  V30 12049 H 1108.59 2.97146 0.273297 0
M  V30 12050 C 1107.34 2.81418 2.04203 0
M  V30 12051 H 1106.66 3.61427 1.70911 0
M  V30 12052 H 1108.1 3.27624 2.69144 0
M  V30 12053 C 1106.56 1.79835 2.84888 0
M  V30 12054 O 1107.09 1.26773 3.81171 0
M  V30 12055 N 1105.3 1.49179 2.49387 0
M  V30 12056 H 1104.84 1.9252 1.71154 0
M  V30 12057 H 1104.8 0.81458 3.03664 0
M  V30 12058 N 1108.58 -0.128553 1.57075 0
M  V30 12059 C 1109.51 -1.18362 1.96273 0
M  V30 12060 C 1110.52 -1.3818 0.860818 0
M  V30 12061 O 1111.71 -1.37424 1.13916 0
M  V30 12062 C 1108.81 -2.54533 2.23755 0
M  V30 12063 C 1107.98 -2.55446 3.55058 0
M  V30 12064 C 1107.04 -3.73291 3.70864 0
M  V30 12065 O 1106.07 -3.57315 4.43074 0
M  V30 12066 N 1107.27 -4.91481 3.08912 0
M  V30 12067 H 1110.03 -0.850276 2.87385 0
M  V30 12068 H 1107.6 -0.317931 1.58748 0
M  V30 12069 H 1109.59 -3.31912 2.31553 0
M  V30 12070 H 1108.16 -2.80087 1.38816 0
M  V30 12071 H 1107.38 -1.6385 3.58534 0
M  V30 12072 H 1108.67 -2.53104 4.4138 0
M  V30 12073 H 1108.06 -5.07364 2.50196 0
M  V30 12074 H 1106.62 -5.6657 3.22245 0
M  V30 12075 N 1110.05 -1.5248 -0.398459 0
M  V30 12076 C 1111.3 -1.66287 -1.14155 0
M  V30 12077 C 1111.62 -0.40429 -1.91376 0
M  V30 12078 O 1112.82 -0.422341 -2.68195 0
M  V30 12079 C 1111.28 -2.93831 -2.07825 0
M  V30 12080 C 1110.89 -4.26836 -1.3607 0
M  V30 12081 C 1112.63 -3.17004 -2.82327 0
M  V30 12082 C 1110.54 -5.45495 -2.28451 0
M  V30 12083 H 1109.47 -0.619478 -0.42984 0
M  V30 12084 H 1112.12 -1.78972 -0.405112 0
M  V30 12085 H 1110.5 -2.7487 -2.85065 0
M  V30 12086 H 1111.67 -4.56317 -0.641205 0
M  V30 12087 H 1109.99 -4.0985 -0.735659 0
M  V30 12088 H 1112.59 -4.02834 -3.51609 0
M  V30 12089 H 1112.93 -2.3168 -3.45876 0
M  V30 12090 H 1113.46 -3.36487 -2.12183 0
M  V30 12091 H 1110.2 -6.33198 -1.69532 0
M  V30 12092 H 1109.72 -5.20338 -2.98343 0
M  V30 12093 H 1111.4 -5.78996 -2.88743 0
M  V30 12094 N 1111.53 0.65634 -1.43283 0
M  V30 12095 C 1112.76 1.44906 -1.48382 0
M  V30 12096 C 1113.18 1.87823 -0.101993 0
M  V30 12097 O 1112.54 1.57178 0.903597 0
M  V30 12098 C 1112.59 2.66231 -2.43215 0
M  V30 12099 O 1111.69 3.65176 -1.91625 0
M  V30 12100 H 1111.03 0.434601 -0.502014 0
M  V30 12101 H 1113.56 0.803429 -1.88165 0
M  V30 12102 H 1113.57 3.14083 -2.60414 0
M  V30 12103 H 1112.25 2.34336 -3.43598 0
M  V30 12104 H 1110.82 3.24302 -1.84072 0
M  V30 12105 N 1113.01 1.29761 0.894412 0
M  V30 12106 C 1114.24 1.2094 1.67872 0
M  V30 12107 C 1114.65 -0.229192 1.87404 0
M  V30 12108 O 1114.01 -1.15278 1.41482 0
M  V30 12109 C 1114.06 1.92424 3.06032 0
M  V30 12110 O 1113.78 3.30665 2.87388 0
M  V30 12111 C 1115.28 1.90144 4.0045 0
M  V30 12112 H 1112.5 0.418942 0.524145 0
M  V30 12113 H 1115.05 1.71226 1.11813 0
M  V30 12114 H 1113.2 1.4596 3.58851 0
M  V30 12115 H 1113.62 3.66741 3.74969 0
M  V30 12116 H 1115.09 2.44716 4.94791 0
M  V30 12117 H 1115.57 0.878175 4.30331 0
M  V30 12118 H 1116.17 2.36375 3.53563 0
M  V30 12119 N 1114.49 -1.10549 1.12324 0
M  V30 12120 C 1115.42 -2.16657 0.747826 0
M  V30 12121 C 1116.43 -1.61238 -0.224981 0
M  V30 12122 O 1117.62 -1.78499 -0.00649408 0
M  V30 12123 C 1114.72 -3.38791 0.0859421 0
M  V30 12124 C 1113.89 -4.23655 1.08792 0
M  V30 12125 C 1112.95 -5.24239 0.453871 0
M  V30 12126 O 1111.98 -5.58262 1.11052 0
M  V30 12127 N 1113.18 -5.75246 -0.779215 0
M  V30 12128 H 1115.95 -2.49472 1.66084 0
M  V30 12129 H 1113.51 -1.26157 1.01469 0
M  V30 12130 H 1115.5 -4.03182 -0.350186 0
M  V30 12131 H 1114.07 -3.03961 -0.729807 0
M  V30 12132 H 1113.29 -3.55578 1.70171 0
M  V30 12133 H 1114.58 -4.77187 1.76549 0
M  V30 12134 H 1113.98 -5.49802 -1.3317 0
M  V30 12135 H 1112.53 -6.41428 -1.15818 0
M  V30 12136 N 1115.97 -0.914965 -1.28321 0
M  V30 12137 C 1116.9 -0.421292 -2.29668 0
M  V30 12138 C 1117.88 0.511743 -1.6222 0
M  V30 12139 O 1119.06 0.419218 -1.89621 0
M  V30 12140 C 1116.19 0.338364 -3.45648 0
M  V30 12141 C 1115.15 -0.505646 -4.25003 0
M  V30 12142 C 1114.47 0.382421 -5.33331 0
M  V30 12143 C 1115.77 -1.76354 -4.91626 0
M  V30 12144 H 1117.47 -1.26826 -2.71211 0
M  V30 12145 H 1115.01 -0.611291 -1.30381 0
M  V30 12146 H 1116.96 0.694578 -4.15636 0
M  V30 12147 H 1115.69 1.21925 -3.02988 0
M  V30 12148 H 1114.35 -0.844395 -3.56743 0
M  V30 12149 H 1114 1.26189 -4.86914 0
M  V30 12150 H 1113.7 -0.17871 -5.87328 0
M  V30 12151 H 1115.22 0.73449 -6.06166 0
M  V30 12152 H 1116.63 -1.47616 -5.5397 0
M  V30 12153 H 1115.03 -2.26717 -5.55625 0
M  V30 12154 H 1116.1 -2.49063 -4.16048 0
M  V30 12155 N 1117.44 1.42219 -0.679077 0
M  V30 12156 C 1118.67 2.06333 -0.210097 0
M  V30 12157 C 1119.09 1.50703 1.12562 0
M  V30 12158 O 1118.45 0.627241 1.70104 0
M  V30 12159 C 1118.5 3.60243 -0.160322 0
M  V30 12160 O 1117.6 4.03122 0.869872 0
M  V30 12161 H 1116.94 0.655362 -0.106754 0
M  V30 12162 H 1119.47 1.82278 -0.929294 0
M  V30 12163 H 1119.48 4.07997 0.014384 0
M  V30 12164 H 1118.16 4.00106 -1.13526 0
M  V30 12165 H 1116.74 3.66907 0.66586 0
M  V30 12166 N 1118.92 0.422693 1.51826 0
M  V30 12167 C 1120.17 -0.148861 2.02253 0
M  V30 12168 C 1120.5 -1.43629 1.30707 0
M  V30 12169 O 1119.78 -1.89967 0.417482 0
M  V30 12170 C 1120.06 -0.382672 3.58061 0
M  V30 12171 C 1119.91 0.922386 4.40241 0
M  V30 12172 C 1121.23 -1.1589 4.24567 0
M  V30 12173 H 1118.35 -0.0526279 0.735119 0
M  V30 12174 H 1120.99 0.558821 1.81596 0
M  V30 12175 H 1119.14 -0.985495 3.75793 0
M  V30 12176 H 1120.81 1.55806 4.34191 0
M  V30 12177 H 1119.06 1.53032 4.05911 0
M  V30 12178 H 1119.73 0.713012 5.47376 0
M  V30 12179 H 1122.2 -0.648415 4.11017 0
M  V30 12180 H 1121.08 -1.29125 5.33496 0
M  V30 12181 H 1121.34 -2.18315 3.84436 0
M  V30 12182 N 1120.4 -1.5685 0.153553 0
M  V30 12183 C 1121.68 -1.8796 -0.541328 0
M  V30 12184 C 1122.06 -1.06059 -1.82523 0
M  V30 12185 O 1121.4 -0.149295 -2.28012 0
M  V30 12186 C 1121.61 -3.39697 -0.800442 0
M  V30 12187 C 1122.96 -4.09057 -1.13832 0
M  V30 12188 O 1123.99 -3.44913 -0.889578 0
M  V30 12189 O 1122.85 -5.22347 -1.60673 0
M  V30 12190 H 1119.94 -0.779268 -0.276895 0
M  V30 12191 H 1122.49 -1.68626 0.190657 0
M  V30 12192 H 1121.26 -3.91151 0.107935 0
M  V30 12193 H 1120.88 -3.64582 -1.58638 0
M  V30 12194 N 1121.88 0.120221 -1.57141 0
M  V30 12195 C 1122.81 1.14876 -2.03287 0
M  V30 12196 C 1123.79 1.43259 -0.917112 0
M  V30 12197 O 1124.97 1.53721 -1.18674 0
M  V30 12198 C 1122.1 2.47525 -2.43616 0
M  V30 12199 C 1121.06 2.33607 -3.58625 0
M  V30 12200 C 1120.38 3.71207 -3.84849 0
M  V30 12201 C 1121.68 1.79761 -4.90391 0
M  V30 12202 H 1123.38 0.764943 -2.89463 0
M  V30 12203 H 1120.92 0.366516 -1.39258 0
M  V30 12204 H 1122.88 3.19728 -2.74504 0
M  V30 12205 H 1121.6 2.87794 -1.54409 0
M  V30 12206 H 1120.26 1.63853 -3.27945 0
M  V30 12207 H 1119.91 4.0896 -2.9285 0
M  V30 12208 H 1119.61 3.62749 -4.62263 0
M  V30 12209 H 1121.13 4.44917 -4.18188 0
M  V30 12210 H 1122.55 2.4178 -5.19822 0
M  V30 12211 H 1120.94 1.82126 -5.71795 0
M  V30 12212 H 1122.01 0.755087 -4.78985 0
M  V30 12213 N 1123.36 1.52689 0.390367 0
M  V30 12214 C 1124.61 1.6689 1.13272 0
M  V30 12215 C 1124.92 0.414433 1.91159 0
M  V30 12216 O 1126.12 0.436559 2.67967 0
M  V30 12217 C 1124.58 2.94929 2.06264 0
M  V30 12218 C 1124.19 4.27551 1.33805 0
M  V30 12219 C 1125.93 3.18497 2.80642 0
M  V30 12220 C 1123.84 5.46698 2.25554 0
M  V30 12221 H 1122.77 0.621749 0.426549 0
M  V30 12222 H 1125.42 1.79185 0.395615 0
M  V30 12223 H 1123.8 2.76378 2.83604 0
M  V30 12224 H 1124.98 4.56651 0.616997 0
M  V30 12225 H 1123.29 4.10234 0.713913 0
M  V30 12226 H 1125.89 4.04693 3.49467 0
M  V30 12227 H 1126.23 2.33511 3.44642 0
M  V30 12228 H 1126.76 3.37607 2.10395 0
M  V30 12229 H 1123.5 6.34088 1.66171 0
M  V30 12230 H 1123.02 5.21913 2.95579 0
M  V30 12231 H 1124.7 5.80519 2.85668 0
M  V30 12232 N 1124.83 -0.648732 1.43629 0
M  V30 12233 C 1125.76 -1.77298 1.51947 0
M  V30 12234 C 1126.75 -1.65942 0.373785 0
M  V30 12235 O 1127.93 -1.8497 0.591596 0
M  V30 12236 C 1125.06 -3.15749 1.44638 0
M  V30 12237 C 1124.01 -3.41872 2.57502 0
M  V30 12238 C 1123.34 -4.8017 2.35246 0
M  V30 12239 C 1124.64 -3.36173 3.99731 0
M  V30 12240 H 1126.33 -1.70594 2.46045 0
M  V30 12241 H 1123.88 -0.819306 1.1842 0
M  V30 12242 H 1125.83 -3.94156 1.4906 0
M  V30 12243 H 1124.56 -3.23194 0.470466 0
M  V30 12244 H 1123.22 -2.65838 2.5244 0
M  V30 12245 H 1122.86 -4.84297 1.35887 0
M  V30 12246 H 1122.56 -4.9861 3.10906 0
M  V30 12247 H 1124.09 -5.6083 2.41459 0
M  V30 12248 H 1125.5 -4.0451 4.06257 0
M  V30 12249 H 1123.9 -3.66148 4.75453 0
M  V30 12250 H 1124.97 -2.34277 4.24549 0
M  V30 12251 N 1126.31 -1.30234 -0.887518 0
M  V30 12252 C 1127.73 -1.0851 -1.17037 0
M  V30 12253 C 1127.93 0.155788 -2.00897 0
M  V30 12254 O 1126.98 0.850123 -2.37759 0
M  V30 12255 C 1128.3 -2.34723 -1.87951 0
M  V30 12256 C 1129.85 -2.40163 -2.00726 0
M  V30 12257 C 1130.32 -3.66211 -2.75051 0
M  V30 12258 N 1131.81 -3.67004 -2.82599 0
M  V30 12259 C 1132.55 -4.61224 -3.40676 0
M  V30 12260 N 1132.04 -5.65786 -3.99823 0
M  V30 12261 N 1133.84 -4.48772 -3.38467 0
M  V30 12262 H 1125.99 -2.09847 -0.328297 0
M  V30 12263 H 1128.25 -0.924904 -0.20798 0
M  V30 12264 H 1127.96 -3.25265 -1.33773 0
M  V30 12265 H 1127.83 -2.43175 -2.8835 0
M  V30 12266 H 1130.22 -1.50101 -2.54074 0
M  V30 12267 H 1130.3 -2.35688 -0.994218 0
M  V30 12268 H 1129.94 -4.56631 -2.22376 0
M  V30 12269 H 1129.87 -3.67947 -3.76726 0
M  V30 12270 H 1132.36 -2.91409 -2.40602 0
M  V30 12271 H 1132.68 -6.33783 -4.42197 0
M  V30 12272 H 1131.02 -5.69581 -3.9825 0
M  V30 12273 H 1134.21 -3.6627 -2.91485 0
M  V30 12274 H 1134.38 -5.22382 -3.83433 0
M  V30 12275 N 1127.79 1.09952 -1.12909 0
M  V30 12276 C 1129.03 1.83635 -0.897646 0
M  V30 12277 C 1129.39 1.83462 0.566179 0
M  V30 12278 O 1130.6 2.52748 0.914977 0
M  V30 12279 C 1128.87 3.26095 -1.46277 0
M  V30 12280 S 1130.43 4.16846 -1.37059 0
M  V30 12281 H 1127.24 0.633045 -0.32369 0
M  V30 12282 H 1129.85 1.32275 -1.43957 0
M  V30 12283 H 1128.55 3.23793 -2.52163 0
M  V30 12284 H 1128.08 3.82526 -0.918549 0
M  V30 12285 H 1130.1 4.94996 -0.345399 0
M  V30 12286 N 1129.27 0.921757 1.27833 0
M  V30 12287 C 1130.51 0.559906 1.94918 0
M  V30 12288 C 1130.85 -0.895532 1.72319 0
M  V30 12289 O 1130.12 -1.638 1.04879 0
M  V30 12290 C 1130.41 0.879458 3.49196 0
M  V30 12291 C 1130.26 2.38821 3.81162 0
M  V30 12292 C 1131.58 0.381183 4.38446 0
M  V30 12293 H 1128.7 0.204893 0.707946 0
M  V30 12294 H 1131.34 1.15246 1.51058 0
M  V30 12295 H 1129.49 0.375177 3.86684 0
M  V30 12296 H 1131.16 2.96373 3.53498 0
M  V30 12297 H 1129.4 2.83988 3.27923 0
M  V30 12298 H 1130.07 2.56234 4.88926 0
M  V30 12299 H 1132.55 0.813289 4.08075 0
M  V30 12300 H 1131.43 0.633778 5.45229 0
M  V30 12301 H 1131.69 -0.718651 4.3622 0
M  V30 12302 N 1130.75 -1.41857 0.686609 0
M  V30 12303 C 1131.97 -2.06219 0.221037 0
M  V30 12304 C 1132.4 -1.51298 -1.11762 0
M  V30 12305 O 1131.75 -0.636253 -1.69769 0
M  V30 12306 C 1131.8 -3.60153 0.179425 0
M  V30 12307 O 1130.91 -4.03577 -0.848481 0
M  V30 12308 H 1130.25 -0.654787 0.110228 0
M  V30 12309 H 1132.78 -1.81783 0.938948 0
M  V30 12310 H 1132.79 -4.07999 0.00725332 0
M  V30 12311 H 1131.46 -3.99498 1.15647 0
M  V30 12312 H 1130.04 -3.67255 -0.646393 0
M  V30 12313 N 1132.22 -0.430739 -1.51599 0
M  V30 12314 C 1133.5 0.197543 -1.946 0
M  V30 12315 C 1133.88 1.6069 -1.36901 0
M  V30 12316 O 1133.23 2.21697 -0.553422 0
M  V30 12317 C 1133.44 0.181976 -3.48525 0
M  V30 12318 C 1134.79 0.390783 -4.22798 0
M  V30 12319 O 1135.81 0.260384 -3.55247 0
M  V30 12320 O 1134.67 0.649701 -5.42624 0
M  V30 12321 H 1131.76 0.133524 -0.81615 0
M  V30 12322 H 1134.31 -0.488243 -1.62525 0
M  V30 12323 H 1133.08 -0.803584 -3.8296 0
M  V30 12324 H 1132.71 0.910952 -3.87024 0
M  V30 12325 N 1133.7 1.56767 -0.161869 0
M  V30 12326 C 1134.61 2.21083 0.784814 0
M  V30 12327 C 1135.63 1.19959 1.26039 0
M  V30 12328 O 1136.8 1.52588 1.31449 0
M  V30 12329 C 1133.87 2.83153 2.00063 0
M  V30 12330 C 1132.93 3.9945 1.57285 0
M  V30 12331 C 1132.16 4.5855 2.7307 0
M  V30 12332 O 1132.39 4.16534 3.89686 0
M  V30 12333 O 1131.32 5.48575 2.47688 0
M  V30 12334 H 1135.15 3.02522 0.267243 0
M  V30 12335 H 1132.73 1.49255 0.0658783 0
M  V30 12336 H 1134.61 3.22546 2.71186 0
M  V30 12337 H 1133.29 2.04718 2.50744 0
M  V30 12338 H 1132.2 3.64745 0.831393 0
M  V30 12339 H 1133.53 4.7945 1.11304 0
M  V30 12340 N 1135.18 -0.111886 1.57202 0
M  V30 12341 C 1136.41 -0.836317 1.89791 0
M  V30 12342 C 1136.83 -1.72304 0.754513 0
M  V30 12343 O 1136.19 -1.78889 -0.294672 0
M  V30 12344 C 1136.24 -1.63971 3.21164 0
M  V30 12345 O 1135.34 -2.74726 3.0757 0
M  V30 12346 H 1134.68 -0.230833 0.622585 0
M  V30 12347 H 1137.21 -0.0921478 2.04392 0
M  V30 12348 H 1137.22 -2.02746 3.54059 0
M  V30 12349 H 1135.9 -0.98882 4.03974 0
M  V30 12350 H 1134.47 -2.39101 2.86156 0
M  V30 12351 N 1136.66 -1.52894 -0.382264 0
M  V30 12352 C 1137.59 -1.81122 -1.47367 0
M  V30 12353 C 1138.57 -0.663653 -1.56619 0
M  V30 12354 O 1139.75 -0.911898 -1.71459 0
M  V30 12355 C 1136.88 -1.98615 -2.84902 0
M  V30 12356 C 1135.84 -3.14328 -2.90485 0
M  V30 12357 C 1135.16 -3.17086 -4.30535 0
M  V30 12358 C 1136.46 -4.53263 -2.59519 0
M  V30 12359 H 1138.16 -2.72518 -1.23993 0
M  V30 12360 H 1135.7 -1.3113 -0.595049 0
M  V30 12361 H 1137.66 -2.16946 -3.61265 0
M  V30 12362 H 1136.38 -1.03915 -3.09628 0
M  V30 12363 H 1135.04 -2.95791 -2.16572 0
M  V30 12364 H 1134.69 -2.20055 -4.52311 0
M  V30 12365 H 1134.39 -3.94821 -4.3519 0
M  V30 12366 H 1135.91 -3.3758 -5.08795 0
M  V30 12367 H 1137.33 -4.71867 -3.25598 0
M  V30 12368 H 1135.72 -5.33115 -2.75514 0
M  V30 12369 H 1136.79 -4.59516 -1.54831 0
M  V30 12370 N 1138.14 0.641106 -1.43971 0
M  V30 12371 C 1139.55 1.22254 -1.41106 0
M  V30 12372 C 1139.9 1.95825 -0.121284 0
M  V30 12373 O 1139.02 2.01901 0.77879 0
M  V30 12374 C 1139.62 2.22364 -2.55617 0
M  V30 12375 C 1138.18 2.75957 -2.55978 0
M  V30 12376 C 1137.33 1.50792 -2.32717 0
M  V30 12377 H 1140.28 0.432381 -1.52696 0
M  V30 12378 H 1140.3 3.04775 -2.27799 0
M  V30 12379 H 1139.81 1.68789 -3.49474 0
M  V30 12380 H 1137.91 3.33562 -1.66034 0
M  V30 12381 H 1138.02 3.22676 -3.54142 0
M  V30 12382 H 1136.39 1.7857 -1.81617 0
M  V30 12383 H 1137.17 0.991343 -3.28675 0
M  V30 12384 N 1139.62 1.30703 0.880598 0
M  V30 12385 C 1140.86 1.19778 1.63277 0
M  V30 12386 C 1141.19 -0.246521 1.92931 0
M  V30 12387 O 1140.45 -1.19226 1.55189 0
M  V30 12388 C 1140.74 1.97628 2.97789 0
M  V30 12389 C 1140.41 3.47213 2.87669 0
M  V30 12390 C 1139.07 3.88004 2.84617 0
M  V30 12391 C 1141.42 4.4245 2.75477 0
M  V30 12392 C 1138.75 5.22315 2.67216 0
M  V30 12393 C 1141.1 5.76874 2.59614 0
M  V30 12394 C 1139.77 6.16898 2.54939 0
M  V30 12395 H 1139.04 0.438298 0.597475 0
M  V30 12396 H 1141.69 1.61853 1.02352 0
M  V30 12397 H 1139.99 1.48201 3.6269 0
M  V30 12398 H 1141.69 1.86563 3.54958 0
M  V30 12399 H 1138.28 3.14802 2.90857 0
M  V30 12400 H 1142.46 4.11875 2.76899 0
M  V30 12401 H 1137.72 5.52412 2.62014 0
M  V30 12402 H 1141.89 6.50304 2.49155 0
M  V30 12403 H 1139.52 7.20916 2.41214 0
M  V30 12404 N 1141.09 -1.09351 1.1349 0
M  V30 12405 C 1142.37 -1.78121 0.808225 0
M  V30 12406 C 1142.75 -1.99154 -0.700072 0
M  V30 12407 O 1142.1 -1.59356 -1.63762 0
M  V30 12408 C 1142.31 -3.10368 1.59601 0
M  V30 12409 C 1143.66 -3.85063 1.78919 0
M  V30 12410 O 1144.68 -3.20122 1.56206 0
M  V30 12411 O 1143.54 -5.01648 2.16821 0
M  V30 12412 H 1140.63 -0.77253 0.295173 0
M  V30 12413 H 1143.18 -1.15901 1.23956 0
M  V30 12414 H 1141.95 -2.90549 2.62101 0
M  V30 12415 H 1141.57 -3.80312 1.15967 0
M  V30 12416 N 1142.57 -0.928524 -1.27343 0
M  V30 12417 C 1143.5 -0.445627 -2.29208 0
M  V30 12418 C 1144.48 0.494508 -1.62753 0
M  V30 12419 O 1145.67 0.399082 -1.90055 0
M  V30 12420 C 1142.8 0.301684 -3.45987 0
M  V30 12421 C 1141.75 -0.550695 -4.24442 0
M  V30 12422 C 1141.08 0.325833 -5.33706 0
M  V30 12423 C 1142.38 -1.81559 -4.89728 0
M  V30 12424 H 1144.07 -1.29696 -2.69851 0
M  V30 12425 H 1141.62 -0.625085 -1.29725 0
M  V30 12426 H 1143.57 0.650455 -4.1635 0
M  V30 12427 H 1142.29 1.18705 -3.04264 0
M  V30 12428 H 1140.95 -0.882185 -3.55827 0
M  V30 12429 H 1140.6 1.21018 -4.88225 0
M  V30 12430 H 1140.3 -0.240994 -5.87106 0
M  V30 12431 H 1141.83 0.670156 -6.06911 0
M  V30 12432 H 1143.24 -1.53483 -5.52373 0
M  V30 12433 H 1141.64 -2.32598 -5.53189 0
M  V30 12434 H 1142.71 -2.53461 -4.13383 0
M  V30 12435 N 1144.05 1.41491 -0.694123 0
M  V30 12436 C 1145.47 1.55358 -0.365532 0
M  V30 12437 C 1145.67 1.66994 1.12762 0
M  V30 12438 O 1144.72 1.64756 1.91342 0
M  V30 12439 C 1146.03 2.79352 -1.11279 0
M  V30 12440 C 1147.58 2.93147 -1.097 0
M  V30 12441 C 1148.06 4.20027 -1.82597 0
M  V30 12442 N 1149.55 4.26981 -1.7956 0
M  V30 12443 C 1150.28 5.24013 -2.32805 0
M  V30 12444 N 1149.78 6.27083 -2.94515 0
M  V30 12445 N 1151.57 5.15943 -2.23069 0
M  V30 12446 H 1143.72 1.32183 -1.66257 0
M  V30 12447 H 1145.99 0.637624 -0.701527 0
M  V30 12448 H 1145.69 2.76958 -2.16765 0
M  V30 12449 H 1145.57 3.70827 -0.690439 0
M  V30 12450 H 1147.95 2.95057 -0.0504037 0
M  V30 12451 H 1148.03 2.02849 -1.55839 0
M  V30 12452 H 1147.68 4.18878 -2.87235 0
M  V30 12453 H 1147.61 5.09294 -1.33893 0
M  V30 12454 H 1150.1 3.53129 -1.34567 0
M  V30 12455 H 1150.41 6.97511 -3.32714 0
M  V30 12456 H 1148.76 6.27589 -2.98592 0
M  V30 12457 H 1151.95 4.34346 -1.74532 0
M  V30 12458 H 1152.12 5.91396 -2.64868 0
M  V30 12459 N 1145.53 0.438773 1.51369 0
M  V30 12460 C 1146.49 -0.36032 2.2635 0
M  V30 12461 C 1147.49 -0.948465 1.29849 0
M  V30 12462 O 1148.68 -0.822692 1.53549 0
M  V30 12463 C 1145.81 -1.50994 3.05636 0
M  V30 12464 H 1147.01 0.296826 2.98427 0
M  V30 12465 H 1144.56 0.191978 1.55117 0
M  V30 12466 H 1145.29 -2.2031 2.37979 0
M  V30 12467 H 1145.08 -1.09437 3.76518 0
M  V30 12468 H 1146.57 -2.07447 3.6243 0
M  V30 12469 N 1147.01 -1.56678 0.170181 0
M  V30 12470 C 1148.23 -2.0166 -0.484543 0
M  V30 12471 C 1148.66 -1.04962 -1.56091 0
M  V30 12472 O 1148.01 -0.0289887 -1.81277 0
M  V30 12473 C 1148.06 -3.45252 -1.04084 0
M  V30 12474 O 1147.17 -3.51623 -2.15488 0
M  V30 12475 H 1146.51 -0.653765 -0.116135 0
M  V30 12476 H 1149.04 -2.02761 0.273737 0
M  V30 12477 H 1149.05 -3.84534 -1.36373 0
M  V30 12478 H 1147.72 -4.15131 -0.252738 0
M  V30 12479 H 1146.3 -3.242 -1.84252 0
M  V30 12480 N 1148.48 0.103547 -1.57259 0
M  V30 12481 C 1149.73 0.808576 -1.85656 0
M  V30 12482 C 1150.06 1.79143 -0.757502 0
M  V30 12483 O 1149.31 1.941 0.249723 0
M  V30 12484 C 1149.61 1.57946 -3.20605 0
M  V30 12485 C 1149.28 0.739502 -4.44795 0
M  V30 12486 C 1147.94 0.507921 -4.78512 0
M  V30 12487 C 1150.29 0.155034 -5.20969 0
M  V30 12488 C 1147.62 -0.318129 -5.85837 0
M  V30 12489 C 1149.97 -0.658292 -6.29166 0
M  V30 12490 C 1148.64 -0.900044 -6.61404 0
M  V30 12491 H 1147.91 0.295879 -0.679365 0
M  V30 12492 H 1150.55 0.0703604 -1.91371 0
M  V30 12493 H 1148.86 2.38902 -3.10537 0
M  V30 12494 H 1150.56 2.12921 -3.39803 0
M  V30 12495 H 1147.15 0.930103 -4.18386 0
M  V30 12496 H 1151.33 0.32113 -4.9526 0
M  V30 12497 H 1146.59 -0.514495 -6.09231 0
M  V30 12498 H 1150.76 -1.11809 -6.87366 0
M  V30 12499 H 1148.39 -1.54194 -7.44398 0
M  V30 12500 N 1149.96 1.53094 0.37415 0
M  V30 12501 C 1151.2 1.70558 1.12647 0
M  V30 12502 C 1151.57 0.443515 1.86807 0
M  V30 12503 O 1152.77 0.49472 2.64208 0
M  V30 12504 C 1151.04 2.91565 2.06699 0
M  V30 12505 S 1152.6 3.29692 2.89567 0
M  V30 12506 H 1149.41 0.600238 0.381097 0
M  V30 12507 H 1152.02 1.91177 0.408865 0
M  V30 12508 H 1150.72 3.81625 1.50965 0
M  V30 12509 H 1150.25 2.73323 2.82945 0
M  V30 12510 H 1152.27 2.81036 4.08942 0
M  V30 12511 N 1151.44 -0.633461 1.44309 0
M  V30 12512 C 1152.86 -0.951379 1.28144 0
M  V30 12513 C 1153.06 -2.00344 0.215512 0
M  V30 12514 O 1152.11 -2.49321 -0.399389 0
M  V30 12515 C 1153.42 -1.41686 2.65227 0
M  V30 12516 C 1154.97 -1.53247 2.72918 0
M  V30 12517 C 1155.45 -2.03179 4.10466 0
M  V30 12518 N 1156.94 -2.10453 4.1263 0
M  V30 12519 C 1157.67 -2.50254 5.15907 0
M  V30 12520 N 1157.17 -2.89209 6.29547 0
M  V30 12521 N 1158.96 -2.50368 5.03262 0
M  V30 12522 H 1151.11 0.0623574 2.12308 0
M  V30 12523 H 1153.38 -0.0347244 0.947364 0
M  V30 12524 H 1153.08 -0.71814 3.4429 0
M  V30 12525 H 1152.96 -2.3883 2.91959 0
M  V30 12526 H 1155.34 -2.22216 1.94176 0
M  V30 12527 H 1155.42 -0.544836 2.4993 0
M  V30 12528 H 1155.07 -1.34806 4.89683 0
M  V30 12529 H 1155 -3.02809 4.3083 0
M  V30 12530 H 1157.49 -1.83042 3.30612 0
M  V30 12531 H 1157.8 -3.18386 7.04166 0
M  V30 12532 H 1156.15 -2.86966 6.32989 0
M  V30 12533 H 1159.34 -2.19324 4.13539 0
M  V30 12534 H 1159.51 -2.81062 5.83873 0
M  V30 12535 N 1152.92 -1.31168 -0.873655 0
M  V30 12536 C 1153.85 -1.21094 -1.99646 0
M  V30 12537 C 1154.83 -0.0989684 -1.69812 0
M  V30 12538 O 1156.01 -0.282939 -1.92128 0
M  V30 12539 C 1153.14 -0.913684 -3.35066 0
M  V30 12540 C 1152.1 -1.98482 -3.79195 0
M  V30 12541 C 1151.42 -1.54033 -5.12033 0
M  V30 12542 C 1152.72 -3.39745 -3.96699 0
M  V30 12543 H 1154.42 -2.1503 -2.08333 0
M  V30 12544 H 1151.96 -1.03521 -1.00097 0
M  V30 12545 H 1153.92 -0.829821 -4.13149 0
M  V30 12546 H 1152.64 0.0613471 -3.26542 0
M  V30 12547 H 1151.3 -2.05851 -3.03349 0
M  V30 12548 H 1150.95 -0.553261 -4.99948 0
M  V30 12549 H 1150.65 -2.25688 -5.4253 0
M  V30 12550 H 1152.17 -1.47047 -5.92629 0
M  V30 12551 H 1153.59 -3.35071 -4.65188 0
M  V30 12552 H 1151.98 -4.09585 -4.38589 0
M  V30 12553 H 1153.05 -3.80802 -3.00196 0
M  V30 12554 N 1154.4 1.08748 -1.14068 0
M  V30 12555 C 1155.33 2.14886 -0.768052 0
M  V30 12556 C 1156.31 1.60682 0.248979 0
M  V30 12557 O 1157.49 1.87988 0.138852 0
M  V30 12558 C 1154.62 3.38412 -0.139747 0
M  V30 12559 C 1153.66 4.11357 -1.12639 0
M  V30 12560 S 1154.5 4.64645 -2.66206 0
M  V30 12561 C 1155.65 5.91461 -2.04755 0
M  V30 12562 H 1155.89 2.46163 -1.66706 0
M  V30 12563 H 1153.42 1.20804 -0.961549 0
M  V30 12564 H 1155.38 4.09929 0.21635 0
M  V30 12565 H 1154.04 3.0534 0.736638 0
M  V30 12566 H 1153.23 4.99987 -0.634719 0
M  V30 12567 H 1152.83 3.45735 -1.4263 0
M  V30 12568 H 1155.13 6.62859 -1.40086 0
M  V30 12569 H 1156.07 6.45319 -2.91494 0
M  V30 12570 H 1156.48 5.44308 -1.49629 0
M  V30 12571 N 1155.87 0.935264 1.26849 0
M  V30 12572 C 1156.8 0.457776 2.28969 0
M  V30 12573 C 1157.79 -0.48587 1.63013 0
M  V30 12574 O 1158.97 -0.388998 1.90264 0
M  V30 12575 C 1156.1 -0.283332 3.46142 0
M  V30 12576 C 1155.05 0.573196 4.24144 0
M  V30 12577 C 1154.38 -0.297525 5.33872 0
M  V30 12578 C 1155.68 1.84153 4.88759 0
M  V30 12579 H 1157.37 1.31125 2.69159 0
M  V30 12580 H 1154.92 0.631956 1.29392 0
M  V30 12581 H 1156.87 -0.628366 4.16689 0
M  V30 12582 H 1155.6 -1.1709 3.04889 0
M  V30 12583 H 1154.26 0.901043 3.55354 0
M  V30 12584 H 1153.9 -1.18427 4.8886 0
M  V30 12585 H 1153.6 0.272126 5.8697 0
M  V30 12586 H 1155.13 -0.637961 6.07258 0
M  V30 12587 H 1156.54 1.5641 5.51551 0
M  V30 12588 H 1154.94 2.35528 5.51948 0
M  V30 12589 H 1156.01 2.5565 4.12033 0
M  V30 12590 N 1157.35 -1.41121 0.701616 0
M  V30 12591 C 1158.3 -2.27994 0.0168361 0
M  V30 12592 C 1159.29 -1.42523 -0.746733 0
M  V30 12593 O 1160.48 -1.6574 -0.621232 0
M  V30 12594 C 1157.61 -3.30898 -0.914417 0
M  V30 12595 C 1156.69 -4.23846 -0.146776 0
M  V30 12596 N 1157.08 -4.9839 0.862624 0
M  V30 12597 C 1155.38 -4.44366 -0.38138 0
M  V30 12598 C 1156.08 -5.66463 1.32266 0
M  V30 12599 N 1155.06 -5.39731 0.647433 0
M  V30 12600 H 1158.86 -2.83065 0.790675 0
M  V30 12601 H 1156.38 -1.53405 0.532977 0
M  V30 12602 H 1158.37 -3.91964 -1.4202 0
M  V30 12603 H 1157.03 -2.77387 -1.68779 0
M  V30 12604 H 1158.04 -5.02761 1.24305 0
M  V30 12605 H 1154.72 -4.01856 -1.13216 0
M  V30 12606 H 1156.11 -6.36213 2.16061 0
M  V30 12607 N 1158.83 -0.446794 -1.51134 0
M  V30 12608 C 1159.76 0.405311 -2.24572 0
M  V30 12609 C 1160.74 1.01679 -1.26886 0
M  V30 12610 O 1161.93 1.05743 -1.56047 0
M  V30 12611 C 1159.05 1.56573 -3.00338 0
M  V30 12612 C 1158.1 1.07401 -4.12756 0
M  V30 12613 S 1158.93 0.00835038 -5.35499 0
M  V30 12614 C 1160.09 1.17321 -6.14806 0
M  V30 12615 H 1160.32 -0.218143 -2.96499 0
M  V30 12616 H 1157.85 -0.231405 -1.52656 0
M  V30 12617 H 1159.81 2.23092 -3.44587 0
M  V30 12618 H 1158.47 2.16062 -2.27982 0
M  V30 12619 H 1157.67 1.94204 -4.65082 0
M  V30 12620 H 1157.27 0.486906 -3.70817 0
M  V30 12621 H 1159.56 2.08972 -6.44466 0
M  V30 12622 H 1160.5 0.689723 -7.04733 0
M  V30 12623 H 1160.91 1.41605 -5.4645 0
M  V30 12624 N 1160.31 1.56586 -0.178487 0
M  V30 12625 C 1161.26 2.1491 0.761432 0
M  V30 12626 C 1162.24 1.08528 1.18788 0
M  V30 12627 O 1163.43 1.34633 1.14904 0
M  V30 12628 C 1160.56 2.79902 1.98771 0
M  V30 12629 C 1159.65 3.93452 1.58293 0
M  V30 12630 N 1160.04 4.97942 0.888124 0
M  V30 12631 C 1158.34 4.04745 1.87343 0
M  V30 12632 C 1159.04 5.7762 0.68772 0
M  V30 12633 N 1158.02 5.2947 1.23136 0
M  V30 12634 H 1161.82 2.93063 0.221693 0
M  V30 12635 H 1159.33 1.62385 0.0219283 0
M  V30 12636 H 1161.33 3.20067 2.67138 0
M  V30 12637 H 1159.99 2.03232 2.53233 0
M  V30 12638 H 1161 5.1502 0.545387 0
M  V30 12639 H 1157.68 3.39186 2.43432 0
M  V30 12640 H 1159.07 6.71759 0.13775 0
M  V30 12641 N 1161.79 -0.095206 1.57312 0
M  V30 12642 C 1163.03 -0.799903 1.86358 0
M  V30 12643 C 1163.37 -1.78386 0.767593 0
M  V30 12644 O 1162.64 -1.93201 -0.224439 0
M  V30 12645 C 1162.92 -1.52875 3.26039 0
M  V30 12646 C 1162.78 -0.562781 4.46265 0
M  V30 12647 C 1164.1 -2.47935 3.63616 0
M  V30 12648 H 1161.21 -0.289339 0.677829 0
M  V30 12649 H 1163.86 -0.0635369 1.89894 0
M  V30 12650 H 1162.01 -2.15645 3.23156 0
M  V30 12651 H 1163.68 0.0579068 4.61264 0
M  V30 12652 H 1161.92 0.123847 4.33623 0
M  V30 12653 H 1162.59 -1.10989 5.40727 0
M  V30 12654 H 1165.07 -1.95257 3.67442 0
M  V30 12655 H 1163.94 -2.95948 4.62283 0
M  V30 12656 H 1164.21 -3.31687 2.92294 0
M  V30 12657 N 1163.26 -1.53291 -0.366026 0
M  V30 12658 C 1164.54 -1.60055 -1.12436 0
M  V30 12659 C 1164.92 -0.407811 -2.07123 0
M  V30 12660 O 1164.27 0.601977 -2.20428 0
M  V30 12661 C 1164.48 -2.95062 -1.86385 0
M  V30 12662 C 1165.83 -3.49623 -2.40934 0
M  V30 12663 O 1166.85 -2.97088 -1.96512 0
M  V30 12664 O 1165.71 -4.41461 -3.2214 0
M  V30 12665 H 1162.8 -0.646476 -0.51575 0
M  V30 12666 H 1165.35 -1.65632 -0.369326 0
M  V30 12667 H 1164.12 -3.73312 -1.17277 0
M  V30 12668 H 1163.75 -2.92973 -2.68798 0
M  V30 12669 N 1164.74 0.6258 -1.44643 0
M  V30 12670 C 1166.16 0.944569 -1.28647 0
M  V30 12671 C 1166.36 2.00227 -0.226134 0
M  V30 12672 O 1165.41 2.4953 0.386161 0
M  V30 12673 C 1166.73 1.40278 -2.65975 0
M  V30 12674 C 1168.28 1.51797 -2.73727 0
M  V30 12675 C 1168.75 2.01 -4.11537 0
M  V30 12676 N 1170.24 2.08262 -4.13741 0
M  V30 12677 C 1170.98 2.47515 -5.17227 0
M  V30 12678 N 1170.47 2.85867 -6.31072 0
M  V30 12679 N 1172.27 2.47695 -5.04583 0
M  V30 12680 H 1164.42 -0.0736157 -2.12272 0
M  V30 12681 H 1166.68 0.0296998 -0.947535 0
M  V30 12682 H 1166.39 0.699871 -3.44666 0
M  V30 12683 H 1166.26 2.37279 -2.93221 0
M  V30 12684 H 1168.65 2.21183 -1.95351 0
M  V30 12685 H 1168.73 0.531574 -2.50216 0
M  V30 12686 H 1168.37 1.32207 -4.90391 0
M  V30 12687 H 1168.3 3.0052 -4.32429 0
M  V30 12688 H 1170.79 1.81286 -3.31578 0
M  V30 12689 H 1171.11 3.14647 -7.05845 0
M  V30 12690 H 1169.45 2.83605 -6.34502 0
M  V30 12691 H 1172.64 2.17127 -4.14697 0
M  V30 12692 H 1172.81 2.77962 -5.85356 0
M  V30 12693 N 1166.22 1.31629 0.866686 0
M  V30 12694 C 1167.5 1.12136 1.60265 0
M  V30 12695 C 1167.88 -0.322729 2.08618 0
M  V30 12696 O 1167.23 -1.31738 1.86701 0
M  V30 12697 C 1167.44 2.13845 2.7581 0
M  V30 12698 C 1168.78 2.46541 3.45692 0
M  V30 12699 O 1169.81 2.12298 2.86021 0
M  V30 12700 O 1168.67 3.05194 4.53342 0
M  V30 12701 H 1165.76 0.431923 0.705246 0
M  V30 12702 H 1168.31 1.43119 0.911863 0
M  V30 12703 H 1167.08 3.10967 2.37518 0
M  V30 12704 H 1166.7 1.83786 3.52574 0
M  V30 12705 N 1167.7 -1.08142 1.14644 0
M  V30 12706 C 1169.11 -1.62061 0.926986 0
M  V30 12707 C 1169.46 -1.88805 -0.533578 0
M  V30 12708 O 1168.59 -1.64753 -1.40305 0
M  V30 12709 C 1169.18 -2.94425 1.67629 0
M  V30 12710 C 1167.74 -3.45118 1.50235 0
M  V30 12711 C 1166.89 -2.19307 1.69705 0
M  V30 12712 H 1169.84 -0.913326 1.29785 0
M  V30 12713 H 1169.86 -3.62987 1.14107 0
M  V30 12714 H 1169.37 -2.74928 2.73927 0
M  V30 12715 H 1167.47 -3.69713 0.462967 0
M  V30 12716 H 1167.59 -4.2169 2.27408 0
M  V30 12717 H 1165.95 -2.28611 1.12291 0
M  V30 12718 H 1166.73 -2.02315 2.77351 0
M  V30 12719 N 1169.18 -0.941978 -1.26351 0
M  V30 12720 C 1170.11 -0.409504 -2.25512 0
M  V30 12721 C 1171.12 0.467665 -1.55938 0
M  V30 12722 O 1172.31 0.277982 -1.76322 0
M  V30 12723 C 1169.41 0.430487 -3.36155 0
M  V30 12724 C 1168.58 -0.430714 -4.35274 0
M  V30 12725 C 1167.64 0.348976 -5.25042 0
M  V30 12726 O 1166.67 -0.24827 -5.68658 0
M  V30 12727 N 1167.87 1.64531 -5.56695 0
M  V30 12728 H 1170.64 -1.26196 -2.71836 0
M  V30 12729 H 1168.2 -0.810947 -1.40126 0
M  V30 12730 H 1170.19 0.959501 -3.93161 0
M  V30 12731 H 1168.76 1.18375 -2.8932 0
M  V30 12732 H 1167.98 -1.14093 -3.77328 0
M  V30 12733 H 1169.27 -1.01896 -4.98492 0
M  V30 12734 H 1168.67 2.15266 -5.23142 0
M  V30 12735 H 1167.22 2.12055 -6.16341 0
M  V30 12736 N 1170.66 1.40747 -0.709091 0
M  V30 12737 C 1171.57 2.3454 -0.0532205 0
M  V30 12738 C 1172.58 1.56956 0.751057 0
M  V30 12739 O 1173.76 1.89375 0.685509 0
M  V30 12740 C 1170.82 3.35809 0.862157 0
M  V30 12741 C 1169.88 4.29273 0.0485632 0
M  V30 12742 C 1169.12 5.25705 0.920345 0
M  V30 12743 O 1169.34 5.27933 2.15969 0
M  V30 12744 O 1168.27 6.00806 0.3628 0
M  V30 12745 H 1172.1 2.92232 -0.826698 0
M  V30 12746 H 1169.68 1.4183 -0.469519 0
M  V30 12747 H 1171.57 3.97931 1.38668 0
M  V30 12748 H 1170.24 2.8054 1.61489 0
M  V30 12749 H 1169.15 3.70456 -0.520873 0
M  V30 12750 H 1170.48 4.87676 -0.665807 0
M  V30 12751 N 1172.13 0.454803 1.50895 0
M  V30 12752 C 1173.36 -0.106259 2.07128 0
M  V30 12753 C 1173.78 -1.3418 1.31823 0
M  V30 12754 O 1173.14 -1.77667 0.361147 0
M  V30 12755 C 1173.19 -0.389609 3.58489 0
M  V30 12756 O 1172.29 -1.47305 3.85195 0
M  V30 12757 H 1171.63 0.00580588 0.663975 0
M  V30 12758 H 1174.16 0.641163 1.94294 0
M  V30 12759 H 1174.17 -0.634934 4.03029 0
M  V30 12760 H 1172.85 0.513338 4.1272 0
M  V30 12761 H 1171.43 -1.21631 3.52506 0
M  V30 12762 N 1173.61 -1.56489 0.186789 0
M  V30 12763 C 1174.86 -1.97634 -0.454831 0
M  V30 12764 C 1175.19 -1.07334 -1.61843 0
M  V30 12765 O 1174.47 -0.123612 -1.94107 0
M  V30 12766 C 1174.75 -3.48071 -0.922962 0
M  V30 12767 C 1174.6 -4.49149 0.241877 0
M  V30 12768 C 1175.92 -4.01994 -1.79134 0
M  V30 12769 H 1173.04 -0.718555 -0.163854 0
M  V30 12770 H 1175.68 -1.87984 0.27604 0
M  V30 12771 H 1173.83 -3.56425 -1.54575 0
M  V30 12772 H 1175.5 -4.52841 0.87936 0
M  V30 12773 H 1173.75 -4.24468 0.894964 0
M  V30 12774 H 1174.42 -5.51851 -0.128051 0
M  V30 12775 H 1176.89 -3.96367 -1.26618 0
M  V30 12776 H 1175.77 -5.07641 -2.08787 0
M  V30 12777 H 1176.03 -3.46747 -2.74261 0
M  V30 12778 N 1175.09 0.086862 -1.5736 0
M  V30 12779 C 1176.34 0.790008 -1.8678 0
M  V30 12780 C 1176.67 1.77977 -0.777042 0
M  V30 12781 O 1175.94 1.93317 0.21419 0
M  V30 12782 C 1176.23 1.51143 -3.26845 0
M  V30 12783 C 1176.08 0.539106 -4.46558 0
M  V30 12784 C 1177.4 2.46003 -3.64926 0
M  V30 12785 H 1174.52 0.285741 -0.679354 0
M  V30 12786 H 1177.16 0.0534655 -1.89925 0
M  V30 12787 H 1175.31 2.13928 -3.24295 0
M  V30 12788 H 1176.98 -0.0823679 -4.61226 0
M  V30 12789 H 1175.22 -0.146842 -4.33551 0
M  V30 12790 H 1175.9 1.0812 -5.41308 0
M  V30 12791 H 1178.37 1.93306 -3.68473 0
M  V30 12792 H 1177.25 2.93493 -4.63846 0
M  V30 12793 H 1177.51 3.30133 -2.94049 0
M  V30 12794 N 1176.57 1.53483 0.357892 0
M  V30 12795 C 1177.98 1.61641 0.934289 0
M  V30 12796 C 1178.33 0.488655 1.90017 0
M  V30 12797 O 1177.45 -0.38378 2.1297 0
M  V30 12798 C 1178.05 2.92987 1.7013 0
M  V30 12799 C 1176.61 3.03456 2.22692 0
M  V30 12800 C 1175.76 2.56992 1.04165 0
M  V30 12801 H 1178.71 1.58112 0.136452 0
M  V30 12802 H 1178.73 2.81221 2.5631 0
M  V30 12803 H 1178.24 3.75047 0.998056 0
M  V30 12804 H 1176.34 2.25999 2.96235 0
M  V30 12805 H 1176.45 4.08673 2.50046 0
M  V30 12806 H 1174.82 2.12052 1.41088 0
M  V30 12807 H 1175.6 3.41477 0.353272 0
M  V30 12808 N 1178.05 -0.61812 1.44973 0
M  V30 12809 C 1179.29 -1.37944 1.48658 0
M  V30 12810 C 1179.62 -1.93805 0.123749 0
M  V30 12811 O 1178.9 -1.74434 -0.860401 0
M  V30 12812 C 1179.18 -2.53515 2.55739 0
M  V30 12813 C 1179.04 -2.02918 4.01428 0
M  V30 12814 C 1180.35 -3.55674 2.59199 0
M  V30 12815 H 1177.47 -0.500223 0.541244 0
M  V30 12816 H 1180.12 -0.69774 1.76725 0
M  V30 12817 H 1178.27 -3.11669 2.31937 0
M  V30 12818 H 1179.94 -1.49494 4.36405 0
M  V30 12819 H 1178.18 -1.33999 4.12586 0
M  V30 12820 H 1178.85 -2.86181 4.72021 0
M  V30 12821 H 1181.33 -3.07343 2.80499 0
M  V30 12822 H 1180.2 -4.34042 3.36004 0
M  V30 12823 H 1180.46 -4.10601 1.63888 0
M  V30 12824 N 1179.52 -1.32087 -0.859693 0
M  V30 12825 C 1180.94 -1.10968 -1.14709 0
M  V30 12826 C 1181.14 0.113139 -2.01182 0
M  V30 12827 O 1180.2 0.799499 -2.39508 0
M  V30 12828 C 1181.51 -2.38657 -1.8293 0
M  V30 12829 C 1183.06 -2.44366 -1.95587 0
M  V30 12830 C 1183.53 -3.71963 -2.67222 0
M  V30 12831 N 1185.02 -3.72916 -2.7475 0
M  V30 12832 C 1185.76 -4.68346 -3.30816 0
M  V30 12833 N 1185.25 -5.74139 -3.87732 0
M  V30 12834 N 1187.05 -4.55851 -3.28872 0
M  V30 12835 H 1179.2 -2.10497 -0.283711 0
M  V30 12836 H 1181.46 -0.929108 -0.188315 0
M  V30 12837 H 1181.17 -3.2803 -1.26844 0
M  V30 12838 H 1181.04 -2.49236 -2.83128 0
M  V30 12839 H 1183.43 -1.55456 -2.50833 0
M  V30 12840 H 1183.51 -2.37744 -0.944001 0
M  V30 12841 H 1183.15 -4.61245 -2.1264 0
M  V30 12842 H 1183.08 -3.75855 -3.68837 0
M  V30 12843 H 1185.57 -2.96447 -2.34367 0
M  V30 12844 H 1185.89 -6.43021 -4.28654 0
M  V30 12845 H 1184.23 -5.779 -3.86078 0
M  V30 12846 H 1187.42 -3.72371 -2.83651 0
M  V30 12847 H 1187.6 -5.30398 -3.72266 0
M  V30 12848 N 1181 1.07532 -1.15215 0
M  V30 12849 C 1182.23 1.8355 -0.94831 0
M  V30 12850 C 1182.64 1.82289 0.506701 0
M  V30 12851 O 1181.98 1.23142 1.36314 0
M  V30 12852 C 1182.04 3.31834 -1.38298 0
M  V30 12853 C 1181.71 3.56818 -2.85535 0
M  V30 12854 C 1182.71 3.50915 -3.83608 0
M  V30 12855 C 1180.39 3.84543 -3.23159 0
M  V30 12856 C 1182.38 3.72382 -5.17311 0
M  V30 12857 C 1180.07 4.05662 -4.57036 0
M  V30 12858 C 1181.07 3.99576 -5.53921 0
M  V30 12859 O 1180.76 4.20132 -6.85379 0
M  V30 12860 H 1180.49 0.586014 -0.336992 0
M  V30 12861 H 1183.04 1.36656 -1.53344 0
M  V30 12862 H 1181.27 3.79529 -0.741244 0
M  V30 12863 H 1182.96 3.89312 -1.14853 0
M  V30 12864 H 1183.73 3.295 -3.55886 0
M  V30 12865 H 1179.61 3.88395 -2.48335 0
M  V30 12866 H 1183.15 3.67547 -5.92921 0
M  V30 12867 H 1179.05 4.26563 -4.84473 0
M  V30 12868 H 1179.82 4.3749 -6.91769 0
M  V30 12869 N 1182.48 0.948665 1.2585 0
M  V30 12870 C 1183.44 0.468673 2.24357 0
M  V30 12871 C 1184.44 -0.424355 1.551 0
M  V30 12872 O 1185.63 -0.222481 1.72773 0
M  V30 12873 C 1182.77 -0.32359 3.39361 0
M  V30 12874 H 1183.96 1.33928 2.68334 0
M  V30 12875 H 1181.51 0.731357 1.38133 0
M  V30 12876 H 1182.25 -1.21212 3.00796 0
M  V30 12877 H 1182.03 0.316998 3.90816 0
M  V30 12878 H 1183.52 -0.649087 4.12525 0
M  V30 12879 N 1183.96 -1.40369 0.716545 0
M  V30 12880 C 1185.37 -1.54757 0.390202 0
M  V30 12881 C 1185.57 -1.68767 -1.10091 0
M  V30 12882 O 1184.63 -1.67779 -1.88697 0
M  V30 12883 C 1185.94 -2.77546 1.15709 0
M  V30 12884 C 1187.49 -2.91364 1.14349 0
M  V30 12885 C 1187.97 -4.17068 1.89256 0
M  V30 12886 N 1189.46 -4.2407 1.8633 0
M  V30 12887 C 1190.19 -5.20243 2.41112 0
M  V30 12888 N 1189.69 -6.22318 3.04454 0
M  V30 12889 N 1191.48 -5.12328 2.31249 0
M  V30 12890 H 1183.63 -1.29521 1.68339 0
M  V30 12891 H 1185.9 -0.626382 0.711582 0
M  V30 12892 H 1185.6 -2.73474 2.21144 0
M  V30 12893 H 1185.48 -3.69682 0.749347 0
M  V30 12894 H 1187.86 -2.94939 0.0973383 0
M  V30 12895 H 1187.94 -2.00344 1.59047 0
M  V30 12896 H 1187.59 -4.14255 2.93863 0
M  V30 12897 H 1187.52 -5.07099 1.41978 0
M  V30 12898 H 1190.01 -3.50944 1.40168 0
M  V30 12899 H 1190.32 -6.92129 3.43769 0
M  V30 12900 H 1188.67 -6.22759 3.08538 0
M  V30 12901 H 1191.86 -4.31514 1.8142 0
M  V30 12902 H 1192.03 -5.87107 2.74243 0
M  V30 12903 N 1185.44 -0.462799 -1.50652 0
M  V30 12904 C 1186.37 0.325724 -2.31217 0
M  V30 12905 C 1187.35 0.997942 -1.3775 0
M  V30 12906 O 1188.53 0.996707 -1.66671 0
M  V30 12907 C 1185.66 1.41283 -3.17264 0
M  V30 12908 C 1184.62 0.862687 -4.19216 0
M  V30 12909 C 1183.94 2.04746 -4.93946 0
M  V30 12910 C 1185.24 -0.120365 -5.22161 0
M  V30 12911 H 1186.94 -0.346666 -2.97386 0
M  V30 12912 H 1184.48 -0.168163 -1.43015 0
M  V30 12913 H 1186.44 1.97188 -3.72418 0
M  V30 12914 H 1185.16 2.11387 -2.48964 0
M  V30 12915 H 1183.82 0.325671 -3.65151 0
M  V30 12916 H 1183.47 2.73529 -4.22127 0
M  V30 12917 H 1183.17 1.68562 -5.62904 0
M  V30 12918 H 1184.69 2.61157 -5.51932 0
M  V30 12919 H 1186.1 0.349226 -5.72235 0
M  V30 12920 H 1184.5 -0.396061 -5.98792 0
M  V30 12921 H 1185.57 -1.04895 -4.73418 0
M  V30 12922 N 1186.91 1.56388 -0.195085 0
M  V30 12923 C 1188.16 1.98634 0.437717 0
M  V30 12924 C 1188.52 1.07985 1.59239 0
M  V30 12925 O 1187.81 0.124261 1.91197 0
M  V30 12926 C 1188 3.44651 0.946051 0
M  V30 12927 C 1187.83 4.49423 -0.157828 0
M  V30 12928 C 1186.6 5.01538 -0.615457 0
M  V30 12929 C 1188.8 5.05132 -0.966773 0
M  V30 12930 N 1186.78 5.89974 -1.69716 0
M  V30 12931 C 1188.15 5.90238 -1.89788 0
M  V30 12932 C 1190.21 4.87565 -1.00919 0
M  V30 12933 C 1188.91 6.59655 -2.86788 0
M  V30 12934 C 1190.94 5.57722 -1.96724 0
M  V30 12935 C 1190.3 6.42574 -2.88579 0
M  V30 12936 H 1186.4 0.77152 0.127594 0
M  V30 12937 H 1188.98 1.92363 -0.300777 0
M  V30 12938 H 1187.15 3.51423 1.65399 0
M  V30 12939 H 1188.88 3.73863 1.54946 0
M  V30 12940 H 1185.64 4.73139 -0.208806 0
M  V30 12941 H 1186.06 6.38896 -2.23921 0
M  V30 12942 H 1190.71 4.2164 -0.313023 0
M  V30 12943 H 1188.42 7.24779 -3.57381 0
M  V30 12944 H 1192.01 5.46106 -2.00647 0
M  V30 12945 H 1190.89 6.95906 -3.61503 0
M  V30 12946 N 1188.39 -0.0785156 1.57404 0
M  V30 12947 C 1189.62 -0.792042 1.9114 0
M  V30 12948 C 1190.04 -1.71458 0.790408 0
M  V30 12949 O 1189.39 -1.80959 -0.236662 0
M  V30 12950 C 1189.44 -1.59138 3.24588 0
M  V30 12951 O 1189.16 -0.705931 4.32375 0
M  V30 12952 C 1190.67 -2.4065 3.72293 0
M  V30 12953 H 1187.89 -0.225566 0.63195 0
M  V30 12954 H 1190.43 -0.0507929 2.04437 0
M  V30 12955 H 1188.58 -2.28498 3.12838 0
M  V30 12956 H 1189 -1.26121 5.09111 0
M  V30 12957 H 1190.47 -2.92204 4.68317 0
M  V30 12958 H 1190.95 -3.1987 3.00965 0
M  V30 12959 H 1191.56 -1.7646 3.86965 0
M  V30 12960 N 1189.87 -1.5367 -0.349747 0
M  V30 12961 C 1190.78 -1.84207 -1.45275 0
M  V30 12962 C 1191.8 -0.731695 -1.57868 0
M  V30 12963 O 1192.97 -1.02337 -1.73462 0
M  V30 12964 C 1190.04 -2.0398 -2.80345 0
M  V30 12965 C 1189.1 -3.27853 -2.77148 0
M  V30 12966 C 1188.33 -3.46673 -4.05775 0
M  V30 12967 O 1188.55 -2.69457 -5.02741 0
M  V30 12968 O 1187.49 -4.40082 -4.10623 0
M  V30 12969 H 1191.31 -2.77947 -1.22389 0
M  V30 12970 H 1188.9 -1.39247 -0.541345 0
M  V30 12971 H 1190.78 -2.18466 -3.60348 0
M  V30 12972 H 1189.46 -1.13429 -3.03176 0
M  V30 12973 H 1188.36 -3.18776 -1.95787 0
M  V30 12974 H 1189.7 -4.18377 -2.59271 0
M  V30 12975 N 1191.35 0.610423 -1.45298 0
M  V30 12976 C 1192.6 1.36558 -1.48441 0
M  V30 12977 C 1192.91 1.95173 -0.129137 0
M  V30 12978 O 1194.12 2.71473 -0.0381956 0
M  V30 12979 C 1192.57 2.47349 -2.61431 0
M  V30 12980 C 1192.18 1.95158 -4.03258 0
M  V30 12981 C 1193.92 3.24383 -2.73817 0
M  V30 12982 C 1191.83 3.03414 -5.07635 0
M  V30 12983 H 1190.76 0.513253 -0.552347 0
M  V30 12984 H 1193.41 0.654535 -1.7143 0
M  V30 12985 H 1191.79 3.21125 -2.31721 0
M  V30 12986 H 1192.97 1.2811 -4.42634 0
M  V30 12987 H 1191.28 1.30878 -3.95297 0
M  V30 12988 H 1193.88 4.05123 -3.48969 0
M  V30 12989 H 1194.22 3.75205 -1.80352 0
M  V30 12990 H 1194.76 2.57705 -3.03039 0
M  V30 12991 H 1191.5 2.57512 -6.028 0
M  V30 12992 H 1191.02 3.69039 -4.72833 0
M  V30 12993 H 1192.69 3.67844 -5.32259 0
M  V30 12994 N 1192.83 1.32541 0.852676 0
M  V30 12995 C 1194.24 1.20863 1.42299 0
M  V30 12996 C 1194.59 -0.178051 1.9539 0
M  V30 12997 O 1193.71 -1.07689 1.87702 0
M  V30 12998 C 1194.31 2.18811 2.58664 0
M  V30 12999 C 1192.87 2.11015 3.11689 0
M  V30 13000 C 1192.01 2.07067 1.84441 0
M  V30 13001 H 1194.97 1.44341 0.659657 0
M  V30 13002 H 1194.99 1.78779 3.35884 0
M  V30 13003 H 1194.5 3.19726 2.19993 0
M  V30 13004 H 1192.6 1.13354 3.54939 0
M  V30 13005 H 1192.71 3.00929 3.72799 0
M  V30 13006 H 1191.08 1.52335 2.04123 0
M  V30 13007 H 1191.86 3.09767 1.47984 0
M  V30 13008 N 1194.3 -1.0692 1.15784 0
M  V30 13009 C 1195.53 -1.8331 0.959422 0
M  V30 13010 C 1195.95 -1.82268 -0.492332 0
M  V30 13011 O 1195.3 -1.23727 -1.34156 0
M  V30 13012 C 1195.36 -3.30202 1.47135 0
M  V30 13013 O 1195.08 -3.31328 2.86624 0
M  V30 13014 C 1196.58 -4.23346 1.31504 0
M  V30 13015 H 1193.8 -0.578202 0.340475 0
M  V30 13016 H 1196.34 -1.34939 1.53661 0
M  V30 13017 H 1194.5 -3.75908 0.936587 0
M  V30 13018 H 1194.91 -4.23135 3.0993 0
M  V30 13019 H 1196.38 -5.24465 1.72163 0
M  V30 13020 H 1196.86 -4.38431 0.259773 0
M  V30 13021 H 1197.47 -3.8348 1.83911 0
M  V30 13022 N 1195.78 -0.955326 -1.25345 0
M  V30 13023 C 1196.73 -0.474888 -2.25862 0
M  V30 13024 C 1197.7 0.472996 -1.59223 0
M  V30 13025 O 1198.88 0.386094 -1.86853 0
M  V30 13026 C 1196.02 0.240554 -3.44261 0
M  V30 13027 C 1195.14 -0.74465 -4.25534 0
M  V30 13028 C 1194.27 -0.00657513 -5.312 0
M  V30 13029 C 1193.31 -0.982666 -6.04161 0
M  V30 13030 N 1192.45 -0.275418 -7.0156 0
M  V30 13031 H 1197.29 -1.33693 -2.66327 0
M  V30 13032 H 1194.83 -0.670439 -1.30933 0
M  V30 13033 H 1196.78 0.671933 -4.11753 0
M  V30 13034 H 1195.41 1.06664 -3.04668 0
M  V30 13035 H 1194.47 -1.29451 -3.57696 0
M  V30 13036 H 1195.78 -1.48948 -4.76042 0
M  V30 13037 H 1194.93 0.483404 -6.04771 0
M  V30 13038 H 1193.67 0.771035 -4.81567 0
M  V30 13039 H 1192.68 -1.48364 -5.29404 0
M  V30 13040 H 1193.9 -1.76052 -6.55883 0
M  V30 13041 H 1191.85 0.483441 -6.54216 0
M  V30 13042 H 1191.76 -0.959324 -7.49889 0
M  V30 13043 H 1193.03 0.193002 -7.79261 0
M  V30 13044 N 1197.26 1.39987 -0.723979 0
M  V30 13045 C 1198.51 1.99964 -0.26406 0
M  V30 13046 C 1198.82 1.58084 1.1519 0
M  V30 13047 O 1200.03 2.10819 1.71077 0
M  V30 13048 C 1198.49 3.57427 -0.421174 0
M  V30 13049 C 1198.09 4.08276 -1.84432 0
M  V30 13050 C 1199.84 4.24494 -0.0224734 0
M  V30 13051 C 1197.74 5.58272 -1.95157 0
M  V30 13052 H 1196.67 0.747995 -0.0949728 0
M  V30 13053 H 1199.33 1.60122 -0.896276 0
M  V30 13054 H 1197.71 3.95011 0.279762 0
M  V30 13055 H 1198.88 3.82051 -2.57631 0
M  V30 13056 H 1197.2 3.53834 -2.19523 0
M  V30 13057 H 1199.79 5.34637 -0.0817744 0
M  V30 13058 H 1200.14 4.03593 1.02069 0
M  V30 13059 H 1200.67 3.92046 -0.67416 0
M  V30 13060 H 1197.41 5.84038 -2.97623 0
M  V30 13061 H 1196.93 5.86335 -1.2638 0
M  V30 13062 H 1198.61 6.23509 -1.72759 0
M  V30 13063 N 1198.74 0.470782 1.50404 0
M  V30 13064 C 1199.97 -0.0820134 2.06737 0
M  V30 13065 C 1200.38 -1.33535 1.33468 0
M  V30 13066 O 1199.74 -1.77975 0.403872 0
M  V30 13067 C 1199.79 -0.370427 3.59597 0
M  V30 13068 O 1199.51 0.8332 4.30104 0
M  V30 13069 C 1201.01 -0.970222 4.32552 0
M  V30 13070 H 1198.23 0.00694502 0.670964 0
M  V30 13071 H 1200.78 0.659476 1.93575 0
M  V30 13072 H 1198.93 -1.06185 3.72563 0
M  V30 13073 H 1199.35 0.577614 5.2131 0
M  V30 13074 H 1200.82 -1.1218 5.40481 0
M  V30 13075 H 1201.3 -1.96024 3.93028 0
M  V30 13076 H 1201.9 -0.31719 4.24116 0
M  V30 13077 N 1200.22 -1.56282 0.203376 0
M  V30 13078 C 1201.47 -1.96987 -0.433461 0
M  V30 13079 C 1201.78 -1.09344 -1.62183 0
M  V30 13080 O 1202.99 -1.39868 -2.327 0
M  V30 13081 C 1201.44 -3.50374 -0.82257 0
M  V30 13082 C 1201.05 -4.46693 0.341969 0
M  V30 13083 C 1202.79 -3.99831 -1.42603 0
M  V30 13084 C 1200.7 -5.9136 -0.0685608 0
M  V30 13085 H 1199.63 -0.735564 -0.165717 0
M  V30 13086 H 1202.28 -1.81085 0.296708 0
M  V30 13087 H 1200.66 -3.6181 -1.60964 0
M  V30 13088 H 1201.84 -4.46994 1.11952 0
M  V30 13089 H 1200.15 -4.07476 0.857463 0
M  V30 13090 H 1202.75 -5.05398 -1.74577 0
M  V30 13091 H 1203.09 -3.4462 -2.33544 0
M  V30 13092 H 1203.63 -3.91543 -0.702758 0
M  V30 13093 H 1200.36 -6.50515 0.80688 0
M  V30 13094 H 1199.88 -5.94295 -0.810798 0
M  V30 13095 H 1201.56 -6.45053 -0.501525 0
M  V30 13096 N 1201.7 0.070167 -1.57444 0
M  V30 13097 C 1202.65 1.09016 -2.00249 0
M  V30 13098 C 1203.63 1.34387 -0.884809 0
M  V30 13099 O 1204.82 1.34661 -1.14872 0
M  V30 13100 C 1201.95 2.40344 -2.45132 0
M  V30 13101 C 1201.04 2.1824 -3.63637 0
M  V30 13102 N 1201.43 1.6607 -4.7776 0
M  V30 13103 C 1199.73 2.48706 -3.70218 0
M  V30 13104 C 1200.43 1.58819 -5.59599 0
M  V30 13105 N 1199.4 2.04928 -5.03493 0
M  V30 13106 H 1203.2 0.680143 -2.85922 0
M  V30 13107 H 1200.72 0.277212 -1.60017 0
M  V30 13108 H 1202.72 3.1418 -2.74037 0
M  V30 13109 H 1201.38 2.82061 -1.60846 0
M  V30 13110 H 1202.39 1.34911 -5.00019 0
M  V30 13111 H 1199.06 2.93778 -2.96649 0
M  V30 13112 H 1200.45 1.19323 -6.6122 0
M  V30 13113 N 1203.17 1.53854 0.341593 0
M  V30 13114 C 1204.08 1.84975 1.44297 0
M  V30 13115 C 1205.1 0.740057 1.57477 0
M  V30 13116 O 1206.28 1.03256 1.72917 0
M  V30 13117 C 1203.34 2.05464 2.79259 0
M  V30 13118 C 1202.4 3.29318 2.75405 0
M  V30 13119 C 1201.63 3.4882 4.03931 0
M  V30 13120 O 1201.86 2.7212 5.01305 0
M  V30 13121 O 1200.79 4.42253 4.08284 0
M  V30 13122 H 1204.62 2.78592 1.20913 0
M  V30 13123 H 1202.2 1.39532 0.533953 0
M  V30 13124 H 1204.08 2.20374 3.59184 0
M  V30 13125 H 1202.76 1.15035 3.0257 0
M  V30 13126 H 1201.67 3.1981 1.94094 0
M  V30 13127 H 1203 4.19746 2.57049 0
M  V30 13128 N 1204.65 -0.602709 1.4562 0
M  V30 13129 C 1205.88 -1.38608 1.53203 0
M  V30 13130 C 1206.29 -1.88478 0.165098 0
M  V30 13131 O 1205.63 -1.63142 -0.844421 0
M  V30 13132 C 1205.69 -2.62214 2.45935 0
M  V30 13133 C 1205.36 -2.3395 3.92577 0
M  V30 13134 C 1206.36 -1.94011 4.82344 0
M  V30 13135 C 1204.04 -2.46711 4.37537 0
M  V30 13136 C 1206.03 -1.67202 6.15079 0
M  V30 13137 C 1203.72 -2.19515 5.70313 0
M  V30 13138 C 1204.72 -1.79823 6.58903 0
M  V30 13139 O 1204.41 -1.52948 7.89216 0
M  V30 13140 H 1204.14 -0.43052 0.52118 0
M  V30 13141 H 1206.69 -0.741655 1.91543 0
M  V30 13142 H 1204.92 -3.29394 2.02575 0
M  V30 13143 H 1206.61 -3.24264 2.44147 0
M  V30 13144 H 1207.38 -1.83684 4.48871 0
M  V30 13145 H 1203.26 -2.76572 3.68821 0
M  V30 13146 H 1206.8 -1.36146 6.84186 0
M  V30 13147 H 1202.7 -2.2946 6.03339 0
M  V30 13148 H 1203.47 -1.6696 8.01291 0
M  V30 13149 N 1206.13 -1.32992 -0.845635 0
M  V30 13150 C 1207.41 -1.14671 -1.58461 0
M  V30 13151 C 1207.79 0.289498 -2.09106 0
M  V30 13152 O 1207.13 1.28751 -1.88773 0
M  V30 13153 C 1207.34 -2.18206 -2.72373 0
M  V30 13154 C 1208.69 -2.5201 -3.41726 0
M  V30 13155 O 1209.72 -2.16821 -2.82608 0
M  V30 13156 O 1208.58 -3.12368 -4.48429 0
M  V30 13157 H 1205.67 -0.443088 -0.698285 0
M  V30 13158 H 1208.22 -1.44552 -0.888978 0
M  V30 13159 H 1206.99 -3.14707 -2.32541 0
M  V30 13160 H 1206.61 -1.89372 -3.49605 0
M  V30 13161 N 1207.61 1.06304 -1.1635 0
M  V30 13162 C 1208.83 1.83338 -0.969639 0
M  V30 13163 C 1209.26 1.81945 0.477231 0
M  V30 13164 O 1208.62 1.22018 1.34094 0
M  V30 13165 C 1208.66 3.2785 -1.50155 0
M  V30 13166 O 1207.77 4.06281 -0.707805 0
M  V30 13167 H 1207.11 0.567293 -0.345072 0
M  V30 13168 H 1209.64 1.34033 -1.54584 0
M  V30 13169 H 1209.65 3.7867 -1.51898 0
M  V30 13170 H 1208.32 3.28179 -2.55483 0
M  V30 13171 H 1206.9 3.65055 -0.760872 0
M  V30 13172 N 1209.09 0.96196 1.24836 0
M  V30 13173 C 1210.33 0.616342 1.92052 0
M  V30 13174 C 1210.65 -0.851601 1.76088 0
M  V30 13175 O 1211.85 -1.3075 2.37943 0
M  V30 13176 C 1210.31 1.05168 3.44191 0
M  V30 13177 C 1209.92 2.54268 3.68852 0
M  V30 13178 C 1211.66 0.778938 4.17292 0
M  V30 13179 C 1209.57 2.91564 5.14533 0
M  V30 13180 H 1208.5 0.22681 0.719078 0
M  V30 13181 H 1211.15 1.1674 1.41577 0
M  V30 13182 H 1209.53 0.428979 3.9367 0
M  V30 13183 H 1210.71 3.21619 3.29997 0
M  V30 13184 H 1209.02 2.79091 3.09026 0
M  V30 13185 H 1211.62 1.03366 5.24614 0
M  V30 13186 H 1211.96 -0.284772 4.15325 0
M  V30 13187 H 1212.49 1.36233 3.73745 0
M  V30 13188 H 1209.23 3.96982 5.21618 0
M  V30 13189 H 1208.75 2.28892 5.54408 0
M  V30 13190 H 1210.43 2.81155 5.82718 0
M  V30 13191 N 1210.56 -1.39601 0.731392 0
M  V30 13192 C 1211.79 -2.04887 0.28789 0
M  V30 13193 C 1212.21 -1.55138 -1.076 0
M  V30 13194 O 1211.56 -0.71471 -1.67923 0
M  V30 13195 C 1211.61 -3.6044 0.276629 0
M  V30 13196 O 1211.34 -4.08358 1.58668 0
M  V30 13197 C 1212.84 -4.4292 -0.183485 0
M  V30 13198 H 1210.06 -0.658976 0.126459 0
M  V30 13199 H 1212.6 -1.78716 0.994031 0
M  V30 13200 H 1210.76 -3.85526 -0.380597 0
M  V30 13201 H 1211.17 -5.02659 1.4978 0
M  V30 13202 H 1212.64 -5.51822 -0.140207 0
M  V30 13203 H 1213.12 -4.2168 -1.22811 0
M  V30 13204 H 1213.73 -4.22976 0.444042 0
M  V30 13205 N 1212.04 -0.478751 -1.50152 0
M  V30 13206 C 1213.32 0.135533 -1.9513 0
M  V30 13207 C 1213.7 1.56253 -1.41944 0
M  V30 13208 O 1213.05 2.19824 -0.623673 0
M  V30 13209 C 1213.26 0.0710037 -3.48928 0
M  V30 13210 C 1214.61 0.256075 -4.23827 0
M  V30 13211 O 1215.63 0.147234 -3.55896 0
M  V30 13212 O 1214.49 0.476741 -5.44417 0
M  V30 13213 H 1211.58 0.107491 -0.819985 0
M  V30 13214 H 1214.13 -0.539701 -1.60889 0
M  V30 13215 H 1212.9 -0.925012 -3.80209 0
M  V30 13216 H 1212.52 0.787362 -3.89726 0
M  V30 13217 N 1213.52 1.56172 -0.211661 0
M  V30 13218 C 1214.75 2.02874 0.430905 0
M  V30 13219 C 1215.17 1.09064 1.53254 0
M  V30 13220 O 1214.53 0.0770408 1.81136 0
M  V30 13221 C 1214.58 3.4789 0.948933 0
M  V30 13222 O 1213.68 3.57213 2.0609 0
M  V30 13223 H 1213.02 0.656614 0.0987607 0
M  V30 13224 H 1215.55 2.01964 -0.327399 0
M  V30 13225 H 1215.56 3.88015 1.2613 0
M  V30 13226 H 1214.24 4.15656 0.142584 0
M  V30 13227 H 1212.81 3.28971 1.75592 0
M  V30 13228 N 1215 -0.0618163 1.57479 0
M  V30 13229 C 1216.22 -0.775513 1.92355 0
M  V30 13230 C 1216.65 -1.69816 0.808949 0
M  V30 13231 O 1216.01 -1.79736 -0.23761 0
M  V30 13232 C 1216.05 -1.5367 3.26218 0
M  V30 13233 O 1215.16 -2.64802 3.16155 0
M  V30 13234 H 1214.5 -0.210909 0.629614 0
M  V30 13235 H 1217.03 -0.0270752 2.04582 0
M  V30 13236 H 1217.04 -1.91379 3.6033 0
M  V30 13237 H 1215.71 -0.859798 4.06916 0
M  V30 13238 H 1214.29 -2.29876 2.93618 0
M  V30 13239 N 1216.48 -1.54033 -0.333429 0
M  V30 13240 C 1217.89 -1.44522 -0.677166 0
M  V30 13241 C 1218.09 -0.610122 -1.92041 0
M  V30 13242 O 1217.15 -0.105058 -2.52281 0
M  V30 13243 C 1218.46 -2.88129 -0.860369 0
M  V30 13244 C 1220.01 -2.97968 -0.958342 0
M  V30 13245 C 1220.48 -4.42703 -1.17379 0
M  V30 13246 N 1221.98 -4.46273 -1.24075 0
M  V30 13247 C 1222.71 -5.55407 -1.42515 0
M  V30 13248 N 1222.21 -6.74528 -1.58062 0
M  V30 13249 N 1224 -5.43037 -1.45144 0
M  V30 13250 H 1216.15 -2.06815 0.483858 0
M  V30 13251 H 1218.41 -0.935307 0.15461 0
M  V30 13252 H 1218.12 -3.51695 -0.0182085 0
M  V30 13253 H 1217.99 -3.33668 -1.75913 0
M  V30 13254 H 1220.38 -2.34535 -1.79102 0
M  V30 13255 H 1220.46 -2.55774 -0.0362643 0
M  V30 13256 H 1220.11 -5.0672 -0.346004 0
M  V30 13257 H 1220.04 -4.82498 -2.10959 0
M  V30 13258 H 1222.53 -3.60439 -1.13545 0
M  V30 13259 H 1222.84 -7.53462 -1.71797 0
M  V30 13260 H 1221.18 -6.77454 -1.55179 0
M  V30 13261 H 1224.38 -4.4893 -1.32588 0
M  V30 13262 H 1224.55 -6.28146 -1.59173 0
M  V30 13263 N 1217.95 0.594978 -1.45938 0
M  V30 13264 C 1218.9 1.726 -1.55923 0
M  V30 13265 C 1219.9 1.63893 -0.428411 0
M  V30 13266 O 1221.1 1.69535 -0.604815 0
M  V30 13267 H 1217.48 0.570447 -0.489994 0
M  V30 13268 H 1219.45 1.61308 -2.51043 0
M  V30 13269 C 1218.2 3.10988 -1.55505 0
M  V30 13270 H 1217.52 3.18353 -2.4185 0
M  V30 13271 H 1218.96 3.8992 -1.66548 0
M  V30 13272 C 1217.42 3.35721 -0.281573 0
M  V30 13273 O 1217.95 3.96676 0.633336 0
M  V30 13274 N 1216.16 2.90083 -0.173314 0
M  V30 13275 H 1215.7 2.4066 -0.91872 0
M  V30 13276 H 1215.66 3.07005 0.677903 0
M  V30 13277 N 1219.43 1.33438 0.838571 0
M  V30 13278 C 1220.71 1.1551 1.5785 0
M  V30 13279 C 1221.09 -0.278405 2.09256 0
M  V30 13280 O 1220.44 -1.27748 1.89453 0
M  V30 13281 C 1220.65 2.19647 2.71212 0
M  V30 13282 C 1222 2.53818 3.40384 0
M  V30 13283 O 1223.02 2.18317 2.81454 0
M  V30 13284 O 1221.88 3.14741 4.46766 0
M  V30 13285 H 1218.97 0.446785 0.695925 0
M  V30 13286 H 1221.52 1.45021 0.8813 0
M  V30 13287 H 1220.29 3.15936 2.30869 0
M  V30 13288 H 1219.91 1.91224 3.48596 0
M  V30 13289 N 1220.91 -1.05686 1.16912 0
M  V30 13290 C 1221.84 -2.12775 0.824755 0
M  V30 13291 C 1222.82 -1.61286 -0.206289 0
M  V30 13292 O 1224.01 -1.8829 -0.0889616 0
M  V30 13293 C 1221.13 -3.37922 0.229422 0
M  V30 13294 C 1220.18 -4.08226 1.23506 0
M  V30 13295 S 1221.01 -4.57424 2.78431 0
M  V30 13296 C 1222.17 -5.85825 2.20364 0
M  V30 13297 H 1222.4 -2.41657 1.73174 0
M  V30 13298 H 1219.93 -1.18212 0.99324 0
M  V30 13299 H 1221.89 -4.10359 -0.107588 0
M  V30 13300 H 1220.55 -3.07186 -0.655424 0
M  V30 13301 H 1219.75 -4.98129 0.767059 0
M  V30 13302 H 1219.35 -3.41832 1.51747 0
M  V30 13303 H 1221.64 -6.58912 1.57611 0
M  V30 13304 H 1222.58 -6.37364 3.08501 0
M  V30 13305 H 1222.99 -5.4015 1.64008 0
M  V30 13306 N 1222.39 -0.968567 -1.24324 0
M  V30 13307 C 1223.34 -0.498817 -2.25345 0
M  V30 13308 C 1224.31 0.456082 -1.59716 0
M  V30 13309 O 1225.49 0.366254 -1.87252 0
M  V30 13310 C 1222.63 0.204027 -3.44496 0
M  V30 13311 C 1221.74 -0.789741 -4.2472 0
M  V30 13312 C 1220.88 -0.0629156 -5.31163 0
M  V30 13313 C 1219.92 -1.04669 -6.03084 0
M  V30 13314 N 1219.05 -0.349812 -7.01228 0
M  V30 13315 H 1223.89 -1.36511 -2.64894 0
M  V30 13316 H 1221.43 -0.684288 -1.30215 0
M  V30 13317 H 1223.39 0.628223 -4.12443 0
M  V30 13318 H 1222.02 1.03426 -3.05782 0
M  V30 13319 H 1221.07 -1.33237 -3.56303 0
M  V30 13320 H 1222.38 -1.53988 -4.74436 0
M  V30 13321 H 1221.54 0.419233 -6.0525 0
M  V30 13322 H 1220.28 0.719915 -4.82357 0
M  V30 13323 H 1219.28 -1.53971 -5.278 0
M  V30 13324 H 1220.51 -1.82998 -6.53979 0
M  V30 13325 H 1218.45 0.414026 -6.54692 0
M  V30 13326 H 1218.37 -1.03881 -7.48829 0
M  V30 13327 H 1219.64 0.11034 -7.79422 0
M  V30 13328 N 1223.87 1.39211 -0.738786 0
M  V30 13329 C 1225.28 1.54116 -0.414773 0
M  V30 13330 C 1225.48 1.70497 1.07392 0
M  V30 13331 O 1224.54 1.7076 1.86003 0
M  V30 13332 C 1225.85 2.7567 -1.2011 0
M  V30 13333 C 1227.4 2.89508 -1.1897 0
M  V30 13334 C 1227.87 4.14005 -1.95868 0
M  V30 13335 N 1229.37 4.21052 -1.93053 0
M  V30 13336 C 1230.1 5.16341 -2.49358 0
M  V30 13337 N 1229.6 6.17396 -3.14316 0
M  V30 13338 N 1231.39 5.08585 -2.3937 0
M  V30 13339 H 1223.54 1.26827 -1.70378 0
M  V30 13340 H 1225.8 0.614983 -0.721457 0
M  V30 13341 H 1225.51 2.69922 -2.25467 0
M  V30 13342 H 1225.38 3.68443 -0.808065 0
M  V30 13343 H 1227.77 2.94747 -0.144248 0
M  V30 13344 H 1227.85 1.97788 -1.62214 0
M  V30 13345 H 1227.5 4.09527 -3.00416 0
M  V30 13346 H 1227.43 5.04776 -1.50028 0
M  V30 13347 H 1229.92 3.48669 -1.45733 0
M  V30 13348 H 1230.23 6.86572 -3.54737 0
M  V30 13349 H 1228.57 6.17772 -3.18407 0
M  V30 13350 H 1231.77 4.28573 -1.88262 0
M  V30 13351 H 1231.94 5.8267 -2.83549 0
M  V30 13352 N 1225.34 0.486708 1.49896 0
M  V30 13353 C 1226.29 -0.299294 2.28851 0
M  V30 13354 C 1227.26 -0.973251 1.346 0
M  V30 13355 O 1228.45 -0.982678 1.63548 0
M  V30 13356 C 1225.59 -1.36624 3.16904 0
M  V30 13357 C 1224.7 -0.705492 4.262 0
M  V30 13358 C 1223.83 -1.75165 5.01488 0
M  V30 13359 C 1222.87 -1.072 6.0264 0
M  V30 13360 N 1222.01 -2.06172 6.71147 0
M  V30 13361 H 1226.85 0.380272 2.95564 0
M  V30 13362 H 1224.39 0.199377 1.45743 0
M  V30 13363 H 1226.35 -1.99666 3.66319 0
M  V30 13364 H 1224.98 -2.01476 2.52205 0
M  V30 13365 H 1224.03 0.0378757 3.80381 0
M  V30 13366 H 1225.34 -0.169774 4.98511 0
M  V30 13367 H 1224.49 -2.45749 5.547 0
M  V30 13368 H 1223.23 -2.3212 4.28919 0
M  V30 13369 H 1222.24 -0.351868 5.48673 0
M  V30 13370 H 1223.46 -0.509139 6.77189 0
M  V30 13371 H 1221.41 -2.62115 6.01358 0
M  V30 13372 H 1221.33 -1.57627 7.39385 0
M  V30 13373 H 1222.59 -2.76088 7.28969 0
M  V30 13374 N 1226.82 -1.56058 0.219941 0
M  V30 13375 C 1228.07 -1.9826 -0.412197 0
M  V30 13376 C 1228.4 -1.10754 -1.59887 0
M  V30 13377 O 1227.65 -0.15212 -1.95108 0
M  V30 13378 C 1227.95 -3.46113 -0.8911 0
M  V30 13379 C 1227.62 -4.50521 0.184877 0
M  V30 13380 C 1226.28 -4.78795 0.480462 0
M  V30 13381 C 1228.63 -5.13147 0.912652 0
M  V30 13382 C 1225.96 -5.66979 1.50837 0
M  V30 13383 C 1228.31 -6.02444 1.92988 0
M  V30 13384 C 1226.98 -6.29063 2.2324 0
M  V30 13385 H 1226.25 -0.725486 -0.150834 0
M  V30 13386 H 1228.89 -1.88771 0.322122 0
M  V30 13387 H 1227.2 -3.52797 -1.70415 0
M  V30 13388 H 1228.9 -3.76137 -1.39003 0
M  V30 13389 H 1225.49 -4.28564 -0.0556594 0
M  V30 13390 H 1229.67 -4.91374 0.697532 0
M  V30 13391 H 1224.93 -5.85868 1.74839 0
M  V30 13392 H 1229.1 -6.50022 2.49889 0
M  V30 13393 H 1226.73 -6.97191 3.03032 0
M  V30 13394 N 1228.3 0.053464 -1.57509 0
M  V30 13395 C 1229.26 1.04604 -2.03938 0
M  V30 13396 C 1230.26 1.30509 -0.939357 0
M  V30 13397 O 1231.45 1.25922 -1.20371 0
M  V30 13398 C 1228.59 2.38516 -2.43563 0
M  V30 13399 H 1229.78 0.645484 -2.92871 0
M  V30 13400 H 1227.33 0.299683 -1.534 0
M  V30 13401 H 1228.07 2.83368 -1.57712 0
M  V30 13402 H 1227.85 2.2105 -3.23851 0
M  V30 13403 H 1229.34 3.09826 -2.79996 0
M  V30 13404 N 1229.78 1.54207 0.325255 0
M  V30 13405 C 1230.71 1.86467 1.40543 0
M  V30 13406 C 1231.69 0.721324 1.54048 0
M  V30 13407 O 1232.88 0.974905 1.67956 0
M  V30 13408 C 1230.01 2.09052 2.77335 0
M  V30 13409 C 1228.96 3.24893 2.78619 0
M  V30 13410 C 1228.29 3.32846 4.1847 0
M  V30 13411 C 1229.59 4.62582 2.42518 0
M  V30 13412 H 1231.28 2.76932 1.13794 0
M  V30 13413 H 1228.83 1.33248 0.545971 0
M  V30 13414 H 1230.78 2.30204 3.52964 0
M  V30 13415 H 1229.5 1.15335 3.05558 0
M  V30 13416 H 1228.16 3.03625 2.05444 0
M  V30 13417 H 1227.81 2.3669 4.43832 0
M  V30 13418 H 1227.51 4.10701 4.20237 0
M  V30 13419 H 1229.03 3.56231 4.95915 0
M  V30 13420 H 1230.45 4.83627 3.07861 0
M  V30 13421 H 1228.84 5.42974 2.55538 0
M  V30 13422 H 1229.91 4.64946 1.3767 0
M  V30 13423 N 1231.26 -0.58723 1.46251 0
M  V30 13424 C 1232.49 -1.37174 1.5489 0
M  V30 13425 C 1232.9 -1.87857 0.188445 0
M  V30 13426 O 1232.26 -1.63365 -0.813509 0
M  V30 13427 C 1232.31 -2.56237 2.55 0
M  V30 13428 O 1232.03 -2.07655 3.8576 0
M  V30 13429 C 1233.53 -3.48846 2.73535 0
M  V30 13430 H 1230.75 -0.419211 0.523931 0
M  V30 13431 H 1233.29 -0.714307 1.91619 0
M  V30 13432 H 1231.45 -3.1798 2.21287 0
M  V30 13433 H 1231.86 -2.85161 4.40208 0
M  V30 13434 H 1233.34 -4.2888 3.47514 0
M  V30 13435 H 1233.81 -4.00493 1.80282 0
M  V30 13436 H 1234.42 -2.92942 3.08326 0
M  V30 13437 N 1232.74 -1.33881 -0.831482 0
M  V30 13438 C 1233.67 -1.19089 -1.94661 0
M  V30 13439 C 1234.65 -0.0845706 -1.6238 0
M  V30 13440 O 1235.83 -0.248163 -1.86859 0
M  V30 13441 C 1232.96 -0.828223 -3.28418 0
M  V30 13442 C 1232 -1.94309 -3.79666 0
M  V30 13443 S 1232.84 -3.55524 -4.00454 0
M  V30 13444 C 1233.99 -3.21279 -5.3715 0
M  V30 13445 H 1234.23 -2.13484 -2.0691 0
M  V30 13446 H 1231.76 -1.18809 -0.986098 0
M  V30 13447 H 1233.72 -0.625759 -4.05702 0
M  V30 13448 H 1232.38 0.0972457 -3.13949 0
M  V30 13449 H 1231.57 -1.64288 -4.76472 0
M  V30 13450 H 1231.17 -2.1026 -3.093 0
M  V30 13451 H 1233.46 -2.72563 -6.20255 0
M  V30 13452 H 1234.41 -4.17193 -5.7215 0
M  V30 13453 H 1234.82 -2.57683 -5.02255 0
M  V30 13454 N 1234.21 1.05064 -1.1747 0
M  V30 13455 C 1235.12 2.16346 -0.907286 0
M  V30 13456 C 1236.14 1.7355 0.125013 0
M  V30 13457 O 1237.32 2.01326 -0.0545551 0
M  V30 13458 C 1234.38 3.44077 -0.425681 0
M  V30 13459 C 1233.44 4.01311 -1.52473 0
M  V30 13460 C 1232.67 5.22946 -1.06601 0
M  V30 13461 O 1232.9 5.70345 0.0793329 0
M  V30 13462 O 1231.83 5.72454 -1.85958 0
M  V30 13463 H 1235.66 2.41754 -1.83817 0
M  V30 13464 H 1233.24 1.14834 -0.955693 0
M  V30 13465 H 1235.12 4.21078 -0.164689 0
M  V30 13466 H 1233.8 3.20166 0.477037 0
M  V30 13467 H 1232.71 3.25744 -1.83961 0
M  V30 13468 H 1234.04 4.29543 -2.4032 0
M  V30 13469 N 1235.69 0.975146 1.23809 0
M  V30 13470 C 1236.94 0.641124 1.92083 0
M  V30 13471 C 1237.27 -0.824671 1.76152 0
M  V30 13472 O 1236.52 -1.6097 1.11298 0
M  V30 13473 C 1236.82 0.971016 3.43956 0
M  V30 13474 C 1236.49 2.42616 3.80063 0
M  V30 13475 C 1235.15 2.82386 3.8963 0
M  V30 13476 C 1237.5 3.37019 3.97577 0
M  V30 13477 C 1234.83 4.15585 4.14133 0
M  V30 13478 C 1237.18 4.69855 4.23579 0
M  V30 13479 C 1235.84 5.09391 4.31366 0
M  V30 13480 H 1235.11 0.234604 0.702881 0
M  V30 13481 H 1237.76 1.22803 1.46941 0
M  V30 13482 H 1236.07 0.301965 3.90635 0
M  V30 13483 H 1237.76 0.690858 3.95004 0
M  V30 13484 H 1234.35 2.10782 3.73187 0
M  V30 13485 H 1238.54 3.07474 3.89581 0
M  V30 13486 H 1233.79 4.45831 4.18383 0
M  V30 13487 H 1237.97 5.42966 4.36074 0
M  V30 13488 H 1235.59 6.12624 4.50106 0
M  V30 13489 N 1237.17 -1.38817 0.746158 0
M  V30 13490 C 1238.42 -2.00577 0.299458 0
M  V30 13491 C 1238.75 -1.59087 -1.11378 0
M  V30 13492 O 1238.02 -0.824932 -1.7614 0
M  V30 13493 C 1238.31 -3.57713 0.413932 0
M  V30 13494 C 1238.16 -4.09189 1.86774 0
M  V30 13495 C 1239.48 -4.39659 -0.197082 0
M  V30 13496 H 1236.6 -0.728702 0.110285 0
M  V30 13497 H 1239.24 -1.64866 0.944408 0
M  V30 13498 H 1237.39 -3.88265 -0.135155 0
M  V30 13499 H 1239.06 -3.89311 2.47456 0
M  V30 13500 H 1237.3 -3.62333 2.38532 0
M  V30 13501 H 1237.98 -5.18305 1.89904 0
M  V30 13502 H 1240.45 -4.15216 0.271121 0
M  V30 13503 H 1239.33 -5.48832 -0.0867011 0
M  V30 13504 H 1239.59 -4.23028 -1.2845 0
M  V30 13505 N 1238.65 -0.49465 -1.49636 0
M  V30 13506 C 1239.56 0.291881 -2.32777 0
M  V30 13507 C 1240.57 0.973468 -1.44221 0
M  V30 13508 O 1241.75 0.956252 -1.77251 0
M  V30 13509 C 1238.81 1.34609 -3.19502 0
M  V30 13510 C 1237.88 0.678611 -4.23903 0
M  V30 13511 C 1237.11 1.68259 -5.06483 0
M  V30 13512 O 1237.33 2.91176 -4.90482 0
M  V30 13513 O 1236.27 1.24141 -5.88959 0
M  V30 13514 H 1240.09 -0.388459 -3.01205 0
M  V30 13515 H 1237.68 -0.256086 -1.47189 0
M  V30 13516 H 1239.56 1.95617 -3.73245 0
M  V30 13517 H 1238.23 2.00947 -2.53775 0
M  V30 13518 H 1237.14 0.0289541 -3.74089 0
M  V30 13519 H 1238.47 0.0577817 -4.92166 0
M  V30 13520 N 1240.13 1.55939 -0.228214 0
M  V30 13521 C 1241.04 2.24213 0.690339 0
M  V30 13522 C 1242.05 1.25197 1.20838 0
M  V30 13523 O 1243.23 1.58026 1.24859 0
M  V30 13524 C 1240.29 2.91384 1.87873 0
M  V30 13525 C 1239.35 4.05761 1.40201 0
M  V30 13526 C 1238.59 4.6972 2.53376 0
M  V30 13527 O 1238.81 4.32687 3.71669 0
M  V30 13528 O 1237.74 5.58587 2.24198 0
M  V30 13529 H 1241.57 3.03383 0.138692 0
M  V30 13530 H 1239.15 1.494 0.00251504 0
M  V30 13531 H 1241.04 3.33758 2.57262 0
M  V30 13532 H 1239.71 2.15168 2.41835 0
M  V30 13533 H 1238.62 3.67943 0.675945 0
M  V30 13534 H 1239.95 4.83739 0.908691 0
M  V30 13535 N 1241.6 -0.0451101 1.57535 0
M  V30 13536 C 1242.83 -0.750231 1.92497 0
M  V30 13537 C 1243.24 -1.70268 0.824946 0
M  V30 13538 O 1242.59 -1.82511 -0.208656 0
M  V30 13539 C 1242.65 -1.57543 3.23141 0
M  V30 13540 C 1242.31 -0.789495 4.50129 0
M  V30 13541 C 1243.31 -0.0968367 5.1981 0
M  V30 13542 C 1240.99 -0.748776 4.96688 0
M  V30 13543 C 1242.99 0.626018 6.34318 0
M  V30 13544 C 1240.67 -0.0221652 6.11096 0
M  V30 13545 C 1241.67 0.664006 6.79765 0
M  V30 13546 O 1241.36 1.37885 7.91987 0
M  V30 13547 H 1241.09 -0.216895 0.64026 0
M  V30 13548 H 1243.65 -0.011558 2.05397 0
M  V30 13549 H 1241.88 -2.35754 3.06524 0
M  V30 13550 H 1243.57 -2.16168 3.4355 0
M  V30 13551 H 1244.33 -0.119429 4.84853 0
M  V30 13552 H 1240.21 -1.27235 4.43094 0
M  V30 13553 H 1243.75 1.16215 6.87852 0
M  V30 13554 H 1239.65 0.00240707 6.455 0
M  V30 13555 H 1240.42 1.29087 8.08257 0
M  V30 13556 N 1243.08 -1.54377 -0.317073 0
M  V30 13557 C 1244.01 -1.8721 -1.39552 0
M  V30 13558 C 1244.99 -0.729483 -1.53664 0
M  V30 13559 O 1246.18 -0.983799 -1.67437 0
M  V30 13560 C 1243.31 -2.1052 -2.76222 0
M  V30 13561 C 1242.26 -3.26366 -2.76892 0
M  V30 13562 C 1241.59 -3.35061 -4.16699 0
M  V30 13563 C 1242.89 -4.63862 -2.40061 0
M  V30 13564 H 1244.58 -2.77532 -1.12323 0
M  V30 13565 H 1242.13 -1.33536 -0.538897 0
M  V30 13566 H 1244.08 -2.32073 -3.51739 0
M  V30 13567 H 1242.81 -1.16953 -3.04942 0
M  V30 13568 H 1241.46 -3.0471 -2.03831 0
M  V30 13569 H 1241.11 -2.39041 -4.4257 0
M  V30 13570 H 1240.81 -4.12923 -4.18053 0
M  V30 13571 H 1242.34 -3.58856 -4.94019 0
M  V30 13572 H 1243.75 -4.85252 -3.05292 0
M  V30 13573 H 1242.15 -5.44321 -2.52655 0
M  V30 13574 H 1243.22 -4.6567 -1.35202 0
M  V30 13575 N 1244.56 0.579466 -1.4656 0
M  V30 13576 C 1245.51 1.68829 -1.5737 0
M  V30 13577 C 1246.48 1.60759 -0.417825 0
M  V30 13578 O 1247.66 1.79923 -0.635001 0
M  V30 13579 C 1244.8 3.07166 -1.573 0
M  V30 13580 C 1243.92 3.25837 -2.83645 0
M  V30 13581 C 1243.05 4.54441 -2.75057 0
M  V30 13582 C 1242.09 4.66467 -3.96327 0
M  V30 13583 N 1241.23 5.86401 -3.86107 0
M  V30 13584 H 1246.07 1.58928 -2.52083 0
M  V30 13585 H 1243.6 0.774526 -1.25058 0
M  V30 13586 H 1245.56 3.8724 -1.55245 0
M  V30 13587 H 1244.19 3.15956 -0.661166 0
M  V30 13588 H 1243.24 2.39345 -2.95666 0
M  V30 13589 H 1244.56 3.30591 -3.73512 0
M  V30 13590 H 1243.71 5.42748 -2.71126 0
M  V30 13591 H 1242.45 4.52131 -1.82836 0
M  V30 13592 H 1241.45 3.76577 -4.00587 0
M  V30 13593 H 1242.68 4.70554 -4.89649 0
M  V30 13594 H 1240.62 5.85082 -2.96673 0
M  V30 13595 H 1240.54 5.92437 -4.69632 0
M  V30 13596 H 1241.81 6.7713 -3.86155 0
M  V30 13597 N 1246.04 1.3432 0.824371 0
M  V30 13598 C 1246.95 1.27847 1.96704 0
M  V30 13599 C 1247.96 0.18641 1.72999 0
M  V30 13600 O 1249.14 0.412623 1.97128 0
M  V30 13601 C 1246.21 1.03231 3.30975 0
M  V30 13602 C 1245.27 2.21579 3.67697 0
M  V30 13603 C 1244.5 1.98128 4.95561 0
M  V30 13604 O 1244.72 0.938798 5.62621 0
M  V30 13605 O 1243.66 2.85041 5.30128 0
M  V30 13606 H 1247.48 2.23974 2.05108 0
M  V30 13607 H 1245.07 1.14512 0.959554 0
M  V30 13608 H 1246.95 0.912784 4.11395 0
M  V30 13609 H 1245.62 0.101425 3.23541 0
M  V30 13610 H 1244.53 2.3909 2.87727 0
M  V30 13611 H 1245.86 3.13052 3.79815 0
M  V30 13612 N 1247.52 -1.0444 1.18026 0
M  V30 13613 C 1248.76 -1.77838 0.974756 0
M  V30 13614 C 1249.1 -1.87792 -0.494755 0
M  V30 13615 O 1248.37 -1.38327 -1.36733 0
M  V30 13616 C 1248.65 -3.21315 1.62569 0
M  V30 13617 C 1248.51 -3.19327 3.16781 0
M  V30 13618 C 1249.83 -4.19337 1.33583 0
M  V30 13619 H 1246.94 -0.645575 0.35553 0
M  V30 13620 H 1249.59 -1.22023 1.45638 0
M  V30 13621 H 1247.74 -3.68974 1.21617 0
M  V30 13622 H 1249.41 -2.79687 3.66842 0
M  V30 13623 H 1247.65 -2.57461 3.49137 0
M  V30 13624 H 1248.32 -4.20626 3.5746 0
M  V30 13625 H 1250.8 -3.80208 1.69059 0
M  V30 13626 H 1249.67 -5.17953 1.81702 0
M  V30 13627 H 1249.94 -4.41346 0.258016 0
M  V30 13628 N 1248.99 -0.981699 -1.2329 0
M  V30 13629 C 1250.24 -0.652266 -1.92024 0
M  V30 13630 C 1250.57 0.812297 -1.76396 0
M  V30 13631 O 1249.85 1.5861 -1.12575 0
M  V30 13632 C 1250.13 -1.04506 -3.44602 0
M  V30 13633 C 1249.98 -2.56735 -3.69333 0
M  V30 13634 C 1251.3 -0.589937 -4.36128 0
M  V30 13635 H 1248.42 -0.238437 -0.697364 0
M  V30 13636 H 1251.06 -1.22322 -1.45387 0
M  V30 13637 H 1249.21 -0.559242 -3.84454 0
M  V30 13638 H 1250.89 -3.12901 -3.38955 0
M  V30 13639 H 1249.13 -2.9931 -3.14 0
M  V30 13640 H 1249.8 -2.79269 -4.76144 0
M  V30 13641 H 1252.28 -1.00706 -4.0373 0
M  V30 13642 H 1251.15 -0.893192 -5.41584 0
M  V30 13643 H 1251.41 0.509707 -4.39152 0
M  V30 13644 N 1250.47 1.3842 -0.753509 0
M  V30 13645 C 1251.42 2.32315 -0.115107 0
M  V30 13646 C 1252.41 1.54015 0.705398 0
M  V30 13647 O 1253.62 1.69546 0.604505 0
M  V30 13648 H 1250 0.751774 -0.0184276 0
M  V30 13649 H 1251.97 2.83763 -0.923094 0
M  V30 13650 C 1250.72 3.39206 0.763849 0
M  V30 13651 H 1250.04 3.99548 0.14187 0
M  V30 13652 H 1251.48 4.07312 1.17783 0
M  V30 13653 C 1249.94 2.77771 1.90643 0
M  V30 13654 O 1250.47 2.67073 3.00058 0
M  V30 13655 N 1248.67 2.35582 1.70145 0
M  V30 13656 H 1248.22 2.44483 0.811528 0
M  V30 13657 H 1248.18 1.9482 2.46764 0
M  V30 13658 N 1251.95 0.502579 1.49372 0
M  V30 13659 C 1252.88 -0.311743 2.2707 0
M  V30 13660 C 1253.9 -0.929204 1.33677 0
M  V30 13661 O 1255.08 -0.812277 1.58948 0
M  V30 13662 C 1252.18 -1.45404 3.06122 0
M  V30 13663 C 1251.36 -0.943591 4.27101 0
M  V30 13664 C 1250.42 -1.96368 4.88186 0
M  V30 13665 O 1249.44 -1.5316 5.48207 0
M  V30 13666 N 1250.64 -3.29419 4.77978 0
M  V30 13667 H 1253.41 0.354503 2.97596 0
M  V30 13668 H 1250.97 0.335222 1.58392 0
M  V30 13669 H 1252.96 -2.13404 3.43862 0
M  V30 13670 H 1251.53 -2.02441 2.38194 0
M  V30 13671 H 1250.75 -0.0884372 3.94101 0
M  V30 13672 H 1252.04 -0.580983 5.05472 0
M  V30 13673 H 1251.44 -3.67211 4.30317 0
M  V30 13674 H 1250 -3.93129 5.19897 0
M  V30 13675 N 1253.43 -1.55816 0.23648 0
M  V30 13676 C 1254.84 -1.84757 -0.268622 0
M  V30 13677 C 1255.19 -1.15815 -1.58371 0
M  V30 13678 O 1254.32 -0.432923 -2.12025 0
M  V30 13679 C 1254.91 -3.35177 -0.494167 0
M  V30 13680 C 1253.47 -3.64382 -0.943551 0
M  V30 13681 C 1252.62 -2.77296 -0.0149191 0
M  V30 13682 H 1255.57 -1.51908 0.459308 0
M  V30 13683 H 1255.59 -3.56192 -1.3382 0
M  V30 13684 H 1255.1 -3.85327 0.463138 0
M  V30 13685 H 1253.2 -3.19701 -1.91369 0
M  V30 13686 H 1253.31 -4.72244 -0.807626 0
M  V30 13687 H 1251.68 -2.49243 -0.524419 0
M  V30 13688 H 1252.46 -3.30249 0.937571 0
M  V30 13689 N 1254.91 0.036755 -1.57557 0
M  V30 13690 C 1256.15 0.729106 -1.88919 0
M  V30 13691 C 1256.48 1.75769 -0.832801 0
M  V30 13692 O 1255.74 1.94985 0.167173 0
M  V30 13693 C 1256.04 1.44206 -3.27016 0
M  V30 13694 C 1255.7 0.550184 -4.47531 0
M  V30 13695 C 1254.36 0.304511 -4.80236 0
M  V30 13696 C 1256.72 -0.0660664 -5.21158 0
M  V30 13697 C 1254.04 -0.566316 -5.8396 0
M  V30 13698 C 1256.4 -0.92455 -6.25807 0
M  V30 13699 C 1255.06 -1.17976 -6.56992 0
M  V30 13700 H 1254.33 0.266799 -0.691303 0
M  V30 13701 H 1256.98 -0.0108698 -1.91497 0
M  V30 13702 H 1255.28 2.25516 -3.2039 0
M  V30 13703 H 1256.98 1.98317 -3.48527 0
M  V30 13704 H 1253.57 0.751814 -4.21955 0
M  V30 13705 H 1257.75 0.110784 -4.96176 0
M  V30 13706 H 1253.01 -0.772428 -6.06501 0
M  V30 13707 H 1257.18 -1.40861 -6.82005 0
M  V30 13708 H 1254.81 -1.85627 -7.37188 0
M  V30 13709 N 1256.39 1.54543 0.308881 0
M  V30 13710 C 1257.8 1.64532 0.882392 0
M  V30 13711 C 1258.15 0.54886 1.88367 0
M  V30 13712 O 1257.27 -0.315832 2.14083 0
M  V30 13713 C 1257.87 2.98251 1.60722 0
M  V30 13714 C 1256.43 3.10387 2.12925 0
M  V30 13715 C 1255.57 2.60176 0.959362 0
M  V30 13716 H 1258.52 1.58466 0.0860803 0
M  V30 13717 H 1258.55 2.89233 2.47233 0
M  V30 13718 H 1258.06 3.78033 0.878233 0
M  V30 13719 H 1256.16 2.35309 2.88895 0
M  V30 13720 H 1256.27 4.16421 2.36918 0
M  V30 13721 H 1254.64 2.16434 1.3427 0
M  V30 13722 H 1255.42 3.42429 0.244454 0
M  V30 13723 N 1257.86 -0.571685 1.46866 0
M  V30 13724 C 1259.11 -1.32948 1.52745 0
M  V30 13725 C 1259.44 -1.93631 0.183694 0
M  V30 13726 O 1258.69 -1.77605 -0.821886 0
M  V30 13727 C 1258.99 -2.47051 2.58264 0
M  V30 13728 C 1258.66 -2.04291 4.01965 0
M  V30 13729 C 1257.32 -1.92345 4.41086 0
M  V30 13730 C 1259.67 -1.71458 4.9219 0
M  V30 13731 C 1257 -1.4584 5.68285 0
M  V30 13732 C 1259.35 -1.26429 6.19837 0
M  V30 13733 C 1258.02 -1.13068 6.57854 0
M  V30 13734 H 1257.29 -0.48649 0.558935 0
M  V30 13735 H 1259.93 -0.642618 1.80396 0
M  V30 13736 H 1258.24 -3.21231 2.24316 0
M  V30 13737 H 1259.94 -3.05254 2.6004 0
M  V30 13738 H 1256.53 -2.14527 3.71047 0
M  V30 13739 H 1260.71 -1.79567 4.62676 0
M  V30 13740 H 1255.97 -1.34148 5.96502 0
M  V30 13741 H 1260.14 -1.00081 6.89171 0
M  V30 13742 H 1257.77 -0.768094 7.5631 0
M  V30 13743 N 1259.34 -1.34755 -0.817236 0
M  V30 13744 C 1260.59 -1.2718 -1.57066 0
M  V30 13745 C 1260.91 0.156531 -1.94371 0
M  V30 13746 O 1260.18 1.09049 -1.62742 0
M  V30 13747 H 1258.76 -0.467755 -0.582421 0
M  V30 13748 H 1261.42 -1.68734 -0.975438 0
M  V30 13749 H 1260.52 -1.88043 -2.49091 0
M  V30 13750 N 1260.82 1.03812 -1.18578 0
M  V30 13751 C 1262.1 1.74062 -0.892288 0
M  V30 13752 C 1262.48 2.02267 0.604256 0
M  V30 13753 O 1261.82 1.66988 1.55972 0
M  V30 13754 C 1262.03 3.024 -1.74228 0
M  V30 13755 C 1263.38 3.76088 -1.97087 0
M  V30 13756 O 1264.41 3.12305 -1.71302 0
M  V30 13757 O 1263.27 4.90732 -2.40509 0
M  V30 13758 H 1260.36 0.757567 -0.331695 0
M  V30 13759 H 1262.91 1.09855 -1.29345 0
M  V30 13760 H 1261.68 2.77713 -2.75665 0
M  V30 13761 H 1261.3 3.74346 -1.3398 0
M  V30 13762 N 1262.3 0.988223 1.22768 0
M  V30 13763 C 1263.24 0.534605 2.24523 0
M  V30 13764 C 1264.21 -0.430615 1.60421 0
M  V30 13765 O 1265.4 -0.336417 1.87811 0
M  V30 13766 C 1262.54 -0.149195 3.44777 0
M  V30 13767 C 1261.65 0.85721 4.2341 0
M  V30 13768 C 1260.79 0.147411 5.30995 0
M  V30 13769 C 1259.83 1.1425 6.01343 0
M  V30 13770 N 1258.96 0.461327 7.00583 0
M  V30 13771 H 1263.8 1.40708 2.62689 0
M  V30 13772 H 1261.34 0.704918 1.2911 0
M  V30 13773 H 1263.3 -0.562527 4.1339 0
M  V30 13774 H 1261.93 -0.985485 3.07389 0
M  V30 13775 H 1260.98 1.38889 3.54138 0
M  V30 13776 H 1262.29 1.61517 4.71926 0
M  V30 13777 H 1261.45 -0.32289 6.0584 0
M  V30 13778 H 1260.19 -0.643085 4.83442 0
M  V30 13779 H 1259.19 1.62348 5.25284 0
M  V30 13780 H 1260.42 1.93379 6.50985 0
M  V30 13781 H 1258.36 -0.309818 6.55268 0
M  V30 13782 H 1258.28 1.15781 7.47082 0
M  V30 13783 H 1259.55 0.0136734 7.79499 0
M  V30 13784 N 1263.78 -1.38018 0.760839 0
M  V30 13785 C 1264.69 -2.34181 0.140232 0
M  V30 13786 C 1265.7 -1.59635 -0.692287 0
M  V30 13787 O 1266.88 -1.91788 -0.614752 0
M  V30 13788 C 1263.94 -3.38778 -0.73693 0
M  V30 13789 C 1263 -4.29157 0.110792 0
M  V30 13790 C 1262.24 -5.28758 -0.724599 0
M  V30 13791 O 1262.46 -5.35585 -1.96226 0
M  V30 13792 O 1261.39 -6.01738 -0.139565 0
M  V30 13793 H 1265.22 -2.88962 0.934588 0
M  V30 13794 H 1262.8 -1.3999 0.521835 0
M  V30 13795 H 1264.69 -4.02804 -1.23803 0
M  V30 13796 H 1263.36 -2.86341 -1.50966 0
M  V30 13797 H 1262.27 -3.68268 0.658007 0
M  V30 13798 H 1263.6 -4.84869 0.846346 0
M  V30 13799 N 1265.25 -0.510493 -1.49103 0
M  V30 13800 C 1266.2 0.262848 -2.29298 0
M  V30 13801 C 1267.17 0.951714 -1.36131 0
M  V30 13802 O 1268.36 0.956534 -1.65091 0
M  V30 13803 C 1265.5 1.31565 -3.19037 0
M  V30 13804 C 1264.61 0.637598 -4.27269 0
M  V30 13805 C 1263.74 1.67165 -5.04212 0
M  V30 13806 C 1262.78 0.975992 -6.04269 0
M  V30 13807 N 1261.92 1.95468 -6.74342 0
M  V30 13808 H 1266.76 -0.427246 -2.94921 0
M  V30 13809 H 1264.3 -0.222538 -1.45407 0
M  V30 13810 H 1266.25 1.93813 -3.69449 0
M  V30 13811 H 1264.88 1.97438 -2.55379 0
M  V30 13812 H 1263.94 -0.0983863 -3.80273 0
M  V30 13813 H 1265.25 0.0904435 -4.98718 0
M  V30 13814 H 1264.4 2.36893 -5.5854 0
M  V30 13815 H 1263.14 2.25267 -4.32557 0
M  V30 13816 H 1262.15 0.264534 -5.49163 0
M  V30 13817 H 1263.37 0.40134 -6.77913 0
M  V30 13818 H 1261.32 2.52515 -6.05452 0
M  V30 13819 H 1261.23 1.45845 -7.41799 0
M  V30 13820 H 1262.5 2.64455 -7.33269 0
M  V30 13821 N 1266.73 1.55688 -0.24474 0
M  V30 13822 C 1267.68 2.22682 0.67198 0
M  V30 13823 C 1268.67 1.21369 1.18178 0
M  V30 13824 O 1269.88 1.39387 1.13892 0
M  V30 13825 H 1266.25 0.714279 0.235181 0
M  V30 13826 H 1268.23 2.98282 0.0837704 0
M  V30 13827 C 1266.97 2.93835 1.85893 0
M  V30 13828 H 1266.3 3.71565 1.4758 0
M  V30 13829 H 1267.74 3.44077 2.47764 0
M  V30 13830 C 1266.2 1.97589 2.72874 0
M  V30 13831 O 1266.73 1.50758 3.72337 0
M  V30 13832 N 1264.93 1.64737 2.39395 0
M  V30 13833 H 1264.48 2.03015 1.58564 0
M  V30 13834 H 1264.44 1.00605 2.97869 0
M  V30 13835 N 1268.21 -0.0283989 1.57574 0
M  V30 13836 C 1269.16 -1.02881 2.06601 0
M  V30 13837 C 1270.13 -1.35879 0.955308 0
M  V30 13838 O 1271.31 -1.46205 1.22592 0
M  V30 13839 C 1268.45 -2.32447 2.55073 0
M  V30 13840 C 1267.56 -2.05602 3.79937 0
M  V30 13841 C 1266.7 -3.29043 4.17018 0
M  V30 13842 C 1265.74 -2.97755 5.34797 0
M  V30 13843 N 1264.88 -4.1365 5.67308 0
M  V30 13844 H 1269.72 -0.603772 2.91819 0
M  V30 13845 H 1267.25 -0.286503 1.44283 0
M  V30 13846 H 1269.21 -3.08152 2.81244 0
M  V30 13847 H 1267.84 -2.72672 1.72771 0
M  V30 13848 H 1266.89 -1.2039 3.60847 0
M  V30 13849 H 1268.2 -1.78522 4.65759 0
M  V30 13850 H 1267.36 -4.13115 4.4432 0
M  V30 13851 H 1266.1 -3.59237 3.29849 0
M  V30 13852 H 1265.1 -2.12085 5.07247 0
M  V30 13853 H 1266.33 -2.68839 6.23621 0
M  V30 13854 H 1264.27 -4.43794 4.83097 0
M  V30 13855 H 1264.19 -3.89996 6.47641 0
M  V30 13856 H 1265.46 -4.98594 5.99186 0
M  V30 13857 N 1269.69 -1.54705 -0.300681 0
M  V30 13858 C 1270.62 -1.88679 -1.37559 0
M  V30 13859 C 1271.6 -0.74574 -1.52881 0
M  V30 13860 O 1272.78 -1.0015 -1.66384 0
M  V30 13861 C 1269.91 -2.13438 -2.73974 0
M  V30 13862 C 1268.87 -3.29284 -2.73415 0
M  V30 13863 C 1268.19 -3.39462 -4.13122 0
M  V30 13864 C 1269.49 -4.66382 -2.35128 0
M  V30 13865 H 1271.19 -2.78707 -1.09373 0
M  V30 13866 H 1268.73 -1.341 -0.524704 0
M  V30 13867 H 1270.69 -2.35791 -3.49257 0
M  V30 13868 H 1269.41 -1.20181 -3.03684 0
M  V30 13869 H 1268.07 -3.06855 -2.00588 0
M  V30 13870 H 1267.72 -2.43721 -4.4001 0
M  V30 13871 H 1267.42 -4.17334 -4.1365 0
M  V30 13872 H 1268.94 -3.64075 -4.90185 0
M  V30 13873 H 1270.36 -4.88463 -3.00128 0
M  V30 13874 H 1268.75 -5.4697 -2.46867 0
M  V30 13875 H 1269.82 -4.67078 -1.30256 0
M  V30 13876 N 1271.17 0.563888 -1.47167 0
M  V30 13877 C 1272.39 1.34693 -1.57052 0
M  V30 13878 C 1272.81 1.87534 -0.218308 0
M  V30 13879 O 1272.17 1.64639 0.787416 0
M  V30 13880 C 1272.22 2.52148 -2.59044 0
M  V30 13881 O 1271.94 2.01492 -3.89015 0
M  V30 13882 C 1273.44 3.4445 -2.7905 0
M  V30 13883 H 1270.66 0.410822 -0.530534 0
M  V30 13884 H 1273.2 0.683731 -1.92731 0
M  V30 13885 H 1271.36 3.14419 -2.26317 0
M  V30 13886 H 1271.77 2.78122 -4.44689 0
M  V30 13887 H 1273.25 4.23297 -3.54293 0
M  V30 13888 H 1273.72 3.97575 -1.86631 0
M  V30 13889 H 1274.33 2.88 -3.12948 0
M  V30 13890 N 1272.64 1.35187 0.810078 0
M  V30 13891 C 1273.89 1.28264 1.56699 0
M  V30 13892 C 1274.22 -0.143906 1.93967 0
M  V30 13893 O 1273.47 -1.10832 1.61291 0
M  V30 13894 C 1273.77 2.13135 2.86894 0
M  V30 13895 C 1273.44 3.61974 2.6886 0
M  V30 13896 C 1272.1 4.02545 2.63649 0
M  V30 13897 C 1274.45 4.5643 2.51636 0
M  V30 13898 C 1271.78 5.35745 2.39154 0
M  V30 13899 C 1274.13 5.89824 2.2867 0
M  V30 13900 C 1272.8 6.29544 2.2188 0
M  V30 13901 H 1272.07 0.469353 0.573401 0
M  V30 13902 H 1274.71 1.67051 0.936282 0
M  V30 13903 H 1273.02 1.67218 3.54324 0
M  V30 13904 H 1274.72 2.05117 3.44569 0
M  V30 13905 H 1271.31 3.29777 2.73761 0
M  V30 13906 H 1275.49 4.25974 2.54677 0
M  V30 13907 H 1270.75 5.65524 2.32363 0
M  V30 13908 H 1274.92 6.62597 2.14333 0
M  V30 13909 H 1272.55 7.32689 2.0266 0
M  V30 13910 N 1274.12 -1.03182 1.19127 0
M  V30 13911 C 1275.03 -2.14875 0.94159 0
M  V30 13912 C 1276.05 -1.73727 -0.0973872 0
M  V30 13913 O 1277.22 -2.01214 0.0865775 0
M  V30 13914 C 1274.29 -3.43356 0.480366 0
M  V30 13915 C 1273.35 -3.98835 1.58838 0
M  V30 13916 C 1272.58 -5.21183 1.14907 0
M  V30 13917 O 1272.81 -5.70399 0.0114141 0
M  V30 13918 O 1271.74 -5.69423 1.95042 0
M  V30 13919 H 1275.57 -2.38799 1.8764 0
M  V30 13920 H 1273.15 -1.13299 0.973841 0
M  V30 13921 H 1275.03 -4.20763 0.231658 0
M  V30 13922 H 1273.71 -3.20884 -0.426041 0
M  V30 13923 H 1272.62 -3.22776 1.8912 0
M  V30 13924 H 1273.95 -4.25665 2.47123 0
M  V30 13925 N 1275.6 -0.99472 -1.22242 0
M  V30 13926 C 1276.85 -0.672596 -1.91322 0
M  V30 13927 C 1277.18 0.793542 -1.77247 0
M  V30 13928 O 1276.45 1.57407 -1.14251 0
M  V30 13929 C 1276.74 -1.08155 -3.43474 0
M  V30 13930 C 1276.59 -2.60638 -3.6659 0
M  V30 13931 C 1277.91 -0.636161 -4.35478 0
M  V30 13932 H 1275.03 -0.24582 -0.694796 0
M  V30 13933 H 1277.67 -1.23857 -1.44082 0
M  V30 13934 H 1275.82 -0.599987 -3.83839 0
M  V30 13935 H 1277.49 -3.16479 -3.35617 0
M  V30 13936 H 1275.74 -3.02624 -3.10808 0
M  V30 13937 H 1276.41 -2.84304 -4.73155 0
M  V30 13938 H 1278.88 -1.04982 -4.02639 0
M  V30 13939 H 1277.76 -0.950584 -5.40606 0
M  V30 13940 H 1278.02 0.4631 -4.39668 0
M  V30 13941 N 1277.08 1.37613 -0.768148 0
M  V30 13942 C 1278.32 2.00075 -0.331331 0
M  V30 13943 C 1278.66 1.60839 1.08833 0
M  V30 13944 O 1277.93 0.852849 1.74805 0
M  V30 13945 C 1278.22 3.57009 -0.470789 0
M  V30 13946 C 1278.07 4.06166 -1.9326 0
M  V30 13947 C 1279.39 4.39916 0.127111 0
M  V30 13948 H 1276.51 0.726855 -0.121864 0
M  V30 13949 H 1279.15 1.63343 -0.970518 0
M  V30 13950 H 1277.3 3.88431 0.0733688 0
M  V30 13951 H 1278.97 3.85325 -2.53618 0
M  V30 13952 H 1277.21 3.58492 -2.44266 0
M  V30 13953 H 1277.88 5.15219 -1.98125 0
M  V30 13954 H 1280.36 4.14732 -0.337144 0
M  V30 13955 H 1279.24 5.489 -0.000624226 0
M  V30 13956 H 1279.5 4.25018 1.21704 0
M  V30 13957 N 1278.56 0.518393 1.4883 0
M  V30 13958 C 1279.51 -0.270295 2.26392 0
M  V30 13959 C 1280.49 -0.9202 1.31989 0
M  V30 13960 O 1281.68 -0.824923 1.56601 0
M  V30 13961 C 1278.81 -1.32368 3.16755 0
M  V30 13962 C 1277.9 -0.679143 4.18627 0
M  V30 13963 N 1278.29 0.228392 5.05284 0
M  V30 13964 C 1276.59 -0.937712 4.36031 0
M  V30 13965 C 1277.29 0.599076 5.78607 0
M  V30 13966 N 1276.26 -0.0371273 5.43587 0
M  V30 13967 H 1280.07 0.428066 2.90766 0
M  V30 13968 H 1277.58 0.335632 1.58894 0
M  V30 13969 H 1279.58 -1.9023 3.70969 0
M  V30 13970 H 1278.24 -2.02354 2.53935 0
M  V30 13971 H 1279.25 0.600292 5.14409 0
M  V30 13972 H 1275.92 -1.62901 3.84408 0
M  V30 13973 H 1277.31 1.34256 6.5835 0
M  V30 13974 N 1280.03 -1.55556 0.252993 0
M  V30 13975 C 1280.96 -2.24613 -0.638047 0
M  V30 13976 C 1281.95 -1.22852 -1.1765 0
M  V30 13977 O 1283.13 -1.51519 -1.21472 0
M  V30 13978 C 1280.26 -2.95029 -1.83236 0
M  V30 13979 C 1279.21 -4.03531 -1.42641 0
M  V30 13980 C 1278.54 -4.61404 -2.70204 0
M  V30 13981 C 1279.84 -5.18923 -0.592958 0
M  V30 13982 H 1281.53 -2.99335 -0.0621918 0
M  V30 13983 H 1279.08 -1.43972 -0.0284722 0
M  V30 13984 H 1281.03 -3.42042 -2.46141 0
M  V30 13985 H 1279.76 -2.17805 -2.43369 0
M  V30 13986 H 1278.42 -3.57296 -0.820672 0
M  V30 13987 H 1278.06 -3.80874 -3.28548 0
M  V30 13988 H 1277.76 -5.34652 -2.43764 0
M  V30 13989 H 1279.29 -5.11154 -3.33997 0
M  V30 13990 H 1280.7 -5.62124 -1.12646 0
M  V30 13991 H 1279.1 -5.98598 -0.424358 0
M  V30 13992 H 1280.17 -4.83301 0.393434 0
M  V30 13993 N 1281.51 0.0200419 -1.57587 0
M  V30 13994 C 1282.48 1.00255 -2.06111 0
M  V30 13995 C 1283.48 1.28488 -0.966829 0
M  V30 13996 O 1284.67 1.2334 -1.23015 0
M  V30 13997 C 1281.8 2.33296 -2.48567 0
M  V30 13998 H 1282.99 0.583216 -2.94174 0
M  V30 13999 H 1280.54 0.267077 -1.54001 0
M  V30 14000 H 1281.28 2.79959 -1.63687 0
M  V30 14001 H 1281.06 2.14131 -3.28467 0
M  V30 14002 H 1282.55 3.03817 -2.86505 0
M  V30 14003 N 1282.99 1.54862 0.292472 0
M  V30 14004 C 1284.41 1.46267 0.638611 0
M  V30 14005 C 1284.61 0.660824 1.90356 0
M  V30 14006 O 1283.66 0.171909 2.51914 0
M  V30 14007 C 1284.98 2.90309 0.783675 0
M  V30 14008 C 1286.52 3.00404 0.879004 0
M  V30 14009 C 1287 4.4566 1.056 0
M  V30 14010 N 1288.49 4.49406 1.122 0
M  V30 14011 C 1289.22 5.5899 1.2774 0
M  V30 14012 N 1288.72 6.78482 1.40123 0
M  V30 14013 N 1290.51 5.46695 1.30696 0
M  V30 14014 H 1282.66 2.0546 -0.538521 0
M  V30 14015 H 1284.93 0.930879 -0.179354 0
M  V30 14016 H 1284.63 3.5162 -0.0750437 0
M  V30 14017 H 1284.51 3.38215 1.67004 0
M  V30 14018 H 1286.89 2.39201 1.7282 0
M  V30 14019 H 1286.98 2.55781 -0.0315624 0
M  V30 14020 H 1286.62 5.07459 0.211535 0
M  V30 14021 H 1286.55 4.87921 1.98092 0
M  V30 14022 H 1289.04 3.63322 1.03948 0
M  V30 14023 H 1289.35 7.57752 1.5176 0
M  V30 14024 H 1287.7 6.81331 1.37163 0
M  V30 14025 H 1290.89 4.52288 1.20638 0
M  V30 14026 H 1291.06 6.32146 1.42463 0
M  V30 14027 N 1284.47 -0.556076 1.47464 0
M  V30 14028 C 1285.42 -1.68406 1.60444 0
M  V30 14029 C 1286.41 -1.627 0.471713 0
M  V30 14030 O 1287.62 -1.67871 0.649551 0
M  V30 14031 H 1283.99 -0.557255 0.504946 0
M  V30 14032 H 1285.96 -1.54595 2.55231 0
M  V30 14033 C 1284.71 -3.06756 1.63695 0
M  V30 14034 H 1284.03 -3.11829 2.50206 0
M  V30 14035 H 1285.47 -3.85368 1.76827 0
M  V30 14036 C 1283.93 -3.34857 0.370485 0
M  V30 14037 O 1284.46 -3.98216 -0.527942 0
M  V30 14038 N 1282.67 -2.89521 0.250163 0
M  V30 14039 H 1282.22 -2.3814 0.982204 0
M  V30 14040 H 1282.17 -3.08694 -0.596268 0
M  V30 14041 N 1285.95 -1.35615 -0.802897 0
M  V30 14042 C 1286.88 -1.31506 -1.92947 0
M  V30 14043 C 1287.86 -0.188843 -1.69048 0
M  V30 14044 O 1289.04 -0.384384 -1.90358 0
M  V30 14045 C 1286.17 -1.09001 -3.29752 0
M  V30 14046 C 1285.13 -2.18303 -3.68141 0
M  V30 14047 C 1284.45 -1.80959 -5.03148 0
M  V30 14048 C 1285.75 -3.60296 -3.78132 0
M  V30 14049 H 1287.45 -2.25771 -1.96642 0
M  V30 14050 H 1284.99 -1.08682 -0.944685 0
M  V30 14051 H 1286.95 -1.04766 -4.08169 0
M  V30 14052 H 1285.67 -0.111832 -3.26408 0
M  V30 14053 H 1284.33 -2.21642 -2.92011 0
M  V30 14054 H 1283.98 -0.817495 -4.96312 0
M  V30 14055 H 1283.68 -2.54129 -5.29804 0
M  V30 14056 H 1285.2 -1.78255 -5.84001 0
M  V30 14057 H 1286.62 -3.59259 -4.46773 0
M  V30 14058 H 1285.01 -4.32258 -4.16261 0
M  V30 14059 H 1286.08 -3.9618 -2.79588 0
M  V30 14060 N 1287.43 1.02549 -1.19673 0
M  V30 14061 C 1288.67 1.75408 -0.995732 0
M  V30 14062 C 1288.99 1.89773 0.473863 0
M  V30 14063 O 1290.19 2.59638 0.793762 0
M  V30 14064 C 1288.65 3.15444 -1.73273 0
M  V30 14065 C 1288.26 3.09121 -3.24266 0
M  V30 14066 C 1290 3.92575 -1.61509 0
M  V30 14067 C 1287.91 4.44109 -3.9054 0
M  V30 14068 H 1286.84 0.657569 -0.368944 0
M  V30 14069 H 1289.49 1.14739 -1.43203 0
M  V30 14070 H 1287.87 3.76601 -1.22425 0
M  V30 14071 H 1289.05 2.57325 -3.82257 0
M  V30 14072 H 1287.36 2.45485 -3.36342 0
M  V30 14073 H 1289.96 4.92428 -2.08372 0
M  V30 14074 H 1290.3 4.12382 -0.569804 0
M  V30 14075 H 1290.83 3.38027 -2.09721 0
M  V30 14076 H 1287.57 4.29506 -4.95182 0
M  V30 14077 H 1287.09 4.95947 -3.37337 0
M  V30 14078 H 1288.77 5.12982 -3.94282 0
M  V30 14079 N 1288.9 1.00119 1.21713 0
M  V30 14080 C 1290.13 0.699416 1.94401 0
M  V30 14081 C 1290.54 -0.741376 1.7407 0
M  V30 14082 O 1289.88 -1.51286 1.04203 0
M  V30 14083 C 1289.95 0.935875 3.47105 0
M  V30 14084 C 1289.61 2.36276 3.91181 0
M  V30 14085 C 1290.61 3.34276 3.9819 0
M  V30 14086 C 1288.29 2.6994 4.23601 0
M  V30 14087 C 1290.29 4.6401 4.37005 0
M  V30 14088 C 1287.97 3.99891 4.62094 0
M  V30 14089 C 1288.97 4.96737 4.68766 0
M  V30 14090 O 1288.66 6.24364 5.06384 0
M  V30 14091 H 1288.39 0.257233 0.625146 0
M  V30 14092 H 1290.95 1.34098 1.55585 0
M  V30 14093 H 1289.18 0.237133 3.85972 0
M  V30 14094 H 1290.86 0.628075 4.01011 0
M  V30 14095 H 1291.63 3.09603 3.73324 0
M  V30 14096 H 1287.51 1.95257 4.17607 0
M  V30 14097 H 1291.05 5.39601 4.42128 0
M  V30 14098 H 1286.95 4.2435 4.86412 0
M  V30 14099 H 1287.72 6.28424 5.24429 0
M  V30 14100 N 1290.38 -1.37203 0.775435 0
M  V30 14101 C 1291.63 -1.99601 0.341431 0
M  V30 14102 C 1291.96 -1.61555 -1.08306 0
M  V30 14103 O 1291.21 -0.855126 -1.76029 0
M  V30 14104 C 1291.51 -3.54725 0.436426 0
M  V30 14105 C 1291.18 -4.1255 1.8197 0
M  V30 14106 C 1289.84 -4.28056 2.19822 0
M  V30 14107 C 1292.19 -4.44222 2.7261 0
M  V30 14108 C 1289.52 -4.72538 3.47742 0
M  V30 14109 C 1291.87 -4.90131 3.99943 0
M  V30 14110 C 1290.53 -5.03842 4.37835 0
M  V30 14111 H 1289.8 -0.730391 0.124938 0
M  V30 14112 H 1292.45 -1.63914 0.990177 0
M  V30 14113 H 1290.76 -3.90681 -0.295852 0
M  V30 14114 H 1292.45 -4.00916 0.0818664 0
M  V30 14115 H 1289.04 -4.00911 1.51553 0
M  V30 14116 H 1293.23 -4.31824 2.44625 0
M  V30 14117 H 1288.48 -4.81341 3.76989 0
M  V30 14118 H 1292.66 -5.13604 4.70302 0
M  V30 14119 H 1290.28 -5.3807 5.37015 0
M  V30 14120 N 1291.86 -0.526279 -1.48553 0
M  V30 14121 C 1293.11 0.00914839 -2.02098 0
M  V30 14122 C 1293.43 1.35119 -1.40598 0
M  V30 14123 O 1292.7 1.87422 -0.570065 0
M  V30 14124 H 1291.28 0.00636935 -0.746973 0
M  V30 14125 H 1293.94 -0.689269 -1.82305 0
M  V30 14126 H 1293.04 0.120212 -3.11868 0
M  V30 14127 N 1293.34 1.5542 -0.261239 0
M  V30 14128 C 1294.58 1.99284 0.359487 0
M  V30 14129 C 1294.91 1.14954 1.56894 0
M  V30 14130 O 1294.17 0.203796 1.94636 0
M  V30 14131 C 1294.47 3.48354 0.799021 0
M  V30 14132 C 1294.13 4.49872 -0.30426 0
M  V30 14133 C 1292.79 4.77353 -0.607237 0
M  V30 14134 C 1295.15 5.10547 -1.04838 0
M  V30 14135 C 1292.47 5.62781 -1.65816 0
M  V30 14136 C 1294.83 5.97115 -2.08893 0
M  V30 14137 C 1293.49 6.22923 -2.3984 0
M  V30 14138 H 1292.76 0.72923 0.131546 0
M  V30 14139 H 1295.41 1.87851 -0.372058 0
M  V30 14140 H 1293.71 3.57192 1.61001 0
M  V30 14141 H 1295.41 3.7969 1.28981 0
M  V30 14142 H 1292 4.28561 -0.0579863 0
M  V30 14143 H 1296.18 4.89352 -0.827566 0
M  V30 14144 H 1291.44 5.81026 -1.90311 0
M  V30 14145 H 1295.61 6.43168 -2.67035 0
M  V30 14146 H 1293.24 6.88912 -3.2141 0
M  V30 14147 N 1294.82 -0.0116844 1.57596 0
M  V30 14148 C 1296.05 -0.70923 1.94045 0
M  V30 14149 C 1296.45 -1.6848 0.860877 0
M  V30 14150 O 1295.8 -1.82913 -0.169896 0
M  V30 14151 C 1295.86 -1.50653 3.2641 0
M  V30 14152 C 1295.52 -0.693838 4.51702 0
M  V30 14153 C 1296.52 0.0134445 5.19898 0
M  V30 14154 C 1294.2 -0.643252 4.98164 0
M  V30 14155 C 1296.2 0.760426 6.32848 0
M  V30 14156 C 1293.89 0.107462 6.11006 0
M  V30 14157 C 1294.88 0.808045 6.78203 0
M  V30 14158 O 1294.57 1.54654 7.88884 0
M  V30 14159 H 1294.3 -0.203265 0.644716 0
M  V30 14160 H 1296.86 0.0320123 2.05375 0
M  V30 14161 H 1295.09 -2.29199 3.11456 0
M  V30 14162 H 1296.78 -2.08832 3.48058 0
M  V30 14163 H 1297.54 -0.016558 4.84997 0
M  V30 14164 H 1293.42 -1.17807 4.45693 0
M  V30 14165 H 1296.97 1.30779 6.85232 0
M  V30 14166 H 1292.86 0.139327 6.4535 0
M  V30 14167 H 1293.63 1.46202 8.05337 0
M  V30 14168 N 1296.29 -1.55015 -0.284256 0
M  V30 14169 C 1297.52 -1.79431 -1.04016 0
M  V30 14170 C 1297.94 -0.560254 -1.79563 0
M  V30 14171 O 1297.3 0.489804 -1.74558 0
M  V30 14172 C 1297.35 -3.01162 -1.98328 0
M  V30 14173 O 1296.45 -2.75459 -3.06914 0
M  V30 14174 H 1295.79 -0.593391 -0.297965 0
M  V30 14175 H 1298.32 -2.02136 -0.316585 0
M  V30 14176 H 1298.33 -3.29589 -2.40489 0
M  V30 14177 H 1297.01 -3.90634 -1.42751 0
M  V30 14178 H 1295.59 -2.58096 -2.69148 0
M  V30 14179 N 1297.77 0.548248 -1.47757 0
M  V30 14180 C 1299.02 1.30501 -1.54841 0
M  V30 14181 C 1299.35 1.93314 -0.214476 0
M  V30 14182 O 1298.6 1.7889 0.793526 0
M  V30 14183 C 1298.9 2.42911 -2.62162 0
M  V30 14184 C 1298.57 1.97871 -4.05164 0
M  V30 14185 C 1297.23 1.85304 -4.4409 0
M  V30 14186 C 1299.58 1.63606 -4.94856 0
M  V30 14187 C 1296.91 1.36781 -5.70533 0
M  V30 14188 C 1299.26 1.16552 -6.2177 0
M  V30 14189 C 1297.92 1.02588 -6.5957 0
M  V30 14190 H 1297.19 0.477536 -0.566604 0
M  V30 14191 H 1299.84 0.613837 -1.81395 0
M  V30 14192 H 1298.15 3.17622 -2.29398 0
M  V30 14193 H 1299.84 3.01078 -2.64864 0
M  V30 14194 H 1296.43 2.08597 -3.74413 0
M  V30 14195 H 1300.62 1.72184 -4.65474 0
M  V30 14196 H 1295.87 1.24641 -5.9856 0
M  V30 14197 H 1300.05 0.891041 -6.90676 0
M  V30 14198 H 1297.67 0.647675 -7.57436 0
M  V30 14199 N 1299.25 1.36039 0.795694 0
M  V30 14200 C 1300.47 1.33222 1.58955 0
M  V30 14201 C 1300.9 -0.0854596 1.87906 0
M  V30 14202 O 1300.26 -1.05555 1.47403 0
M  V30 14203 C 1300.31 2.15508 2.89117 0
M  V30 14204 O 1299.41 1.54327 3.82436 0
M  V30 14205 H 1298.75 0.456264 0.48241 0
M  V30 14206 H 1301.28 1.79234 0.986726 0
M  V30 14207 H 1301.29 2.2786 3.38444 0
M  V30 14208 H 1299.97 3.18568 2.67371 0
M  V30 14209 H 1298.54 1.50879 3.41013 0
M  V30 14210 N 1300.73 -1.01913 1.20215 0
M  V30 14211 C 1301.64 -2.13864 0.964328 0
M  V30 14212 C 1302.65 -1.73821 -0.0789556 0
M  V30 14213 O 1303.83 -2.01111 0.107914 0
M  V30 14214 C 1300.9 -3.42827 0.516757 0
M  V30 14215 C 1299.96 -3.97127 1.63059 0
M  V30 14216 C 1299.19 -5.19935 1.20428 0
M  V30 14217 O 1299.41 -5.70355 0.0719119 0
M  V30 14218 O 1298.35 -5.67322 2.01071 0
M  V30 14219 H 1302.17 -2.36795 1.90162 0
M  V30 14220 H 1299.76 -1.1226 0.985803 0
M  V30 14221 H 1301.64 -4.20493 0.276272 0
M  V30 14222 H 1300.31 -3.21318 -0.391983 0
M  V30 14223 H 1299.22 -3.20752 1.92533 0
M  V30 14224 H 1300.55 -4.2302 2.51624 0
M  V30 14225 N 1302.21 -1.00763 -1.2118 0
M  V30 14226 C 1303.14 -0.590493 -2.2591 0
M  V30 14227 C 1304.12 0.390002 -1.65569 0
M  V30 14228 O 1305.3 0.277406 -1.92208 0
M  V30 14229 C 1302.43 0.0810388 -3.47205 0
M  V30 14230 C 1301.39 -0.81951 -4.20081 0
M  V30 14231 C 1300.71 -0.014244 -5.34698 0
M  V30 14232 C 1302.01 -2.12336 -4.7719 0
M  V30 14233 H 1303.71 -1.46595 -2.61056 0
M  V30 14234 H 1301.25 -0.706321 -1.25487 0
M  V30 14235 H 1303.21 0.384355 -4.19644 0
M  V30 14236 H 1301.93 0.991145 -3.11197 0
M  V30 14237 H 1300.59 -1.10669 -3.49497 0
M  V30 14238 H 1300.24 0.897233 -4.94933 0
M  V30 14239 H 1299.94 -0.613883 -5.84384 0
M  V30 14240 H 1301.46 0.282827 -6.09945 0
M  V30 14241 H 1302.87 -1.88301 -5.41494 0
M  V30 14242 H 1301.27 -2.67308 -5.37277 0
M  V30 14243 H 1302.34 -2.79238 -3.96427 0
M  V30 14244 N 1303.68 1.3679 -0.7827 0
M  V30 14245 C 1304.61 2.32721 -0.190604 0
M  V30 14246 C 1305.6 1.56321 0.670663 0
M  V30 14247 O 1306.78 1.84507 0.605871 0
M  V30 14248 C 1303.91 3.40564 0.680717 0
M  V30 14249 C 1302.86 4.27925 -0.080118 0
M  V30 14250 C 1302.19 5.26876 0.911361 0
M  V30 14251 C 1303.49 5.06738 -1.26545 0
M  V30 14252 H 1305.18 2.82488 -0.992023 0
M  V30 14253 H 1302.73 1.35818 -0.478484 0
M  V30 14254 H 1304.68 4.06659 1.10482 0
M  V30 14255 H 1303.41 2.89348 1.51477 0
M  V30 14256 H 1302.07 3.63376 -0.485125 0
M  V30 14257 H 1301.71 4.71936 1.74026 0
M  V30 14258 H 1301.41 5.8619 0.406762 0
M  V30 14259 H 1302.94 5.95846 1.33418 0
M  V30 14260 H 1304.35 5.65911 -0.917448 0
M  V30 14261 H 1302.75 5.75432 -1.70289 0
M  V30 14262 H 1303.82 4.38772 -2.06415 0
M  V30 14263 N 1305.16 0.53415 1.48272 0
M  V30 14264 C 1306.58 0.192291 1.58437 0
M  V30 14265 C 1306.78 -1.3046 1.53566 0
M  V30 14266 O 1305.83 -2.08316 1.42692 0
M  V30 14267 C 1307.15 0.798515 2.89904 0
M  V30 14268 C 1308.7 0.76763 3.03441 0
M  V30 14269 C 1309.17 1.3525 4.37574 0
M  V30 14270 N 1310.66 1.31466 4.44152 0
M  V30 14271 C 1311.4 1.73706 5.46456 0
M  V30 14272 N 1310.89 2.23695 6.55692 0
M  V30 14273 N 1312.69 1.64918 5.37363 0
M  V30 14274 H 1304.84 1.50696 1.49681 0
M  V30 14275 H 1307.1 0.627073 0.710973 0
M  V30 14276 H 1306.81 1.8496 2.99136 0
M  V30 14277 H 1306.68 0.278033 3.76174 0
M  V30 14278 H 1309.07 -0.274704 2.93819 0
M  V30 14279 H 1309.15 1.32562 2.18771 0
M  V30 14280 H 1308.79 2.39379 4.47951 0
M  V30 14281 H 1308.72 0.770153 5.20938 0
M  V30 14282 H 1311.21 0.948761 3.65796 0
M  V30 14283 H 1311.53 2.5391 7.29897 0
M  V30 14284 H 1309.87 2.27691 6.56644 0
M  V30 14285 H 1313.06 1.25658 4.50919 0
M  V30 14286 H 1313.23 1.98157 6.16958 0
M  V30 14287 N 1306.64 -1.55279 0.269478 0
M  V30 14288 C 1307.57 -2.25278 -0.614188 0
M  V30 14289 C 1308.55 -1.24092 -1.1634 0
M  V30 14290 O 1309.74 -1.52799 -1.19858 0
M  V30 14291 C 1306.87 -2.96956 -1.80096 0
M  V30 14292 C 1305.82 -4.05021 -1.38353 0
M  V30 14293 C 1305.15 -4.64244 -2.65295 0
M  V30 14294 C 1306.45 -5.19523 -0.537886 0
M  V30 14295 H 1308.14 -2.99385 -0.0304397 0
M  V30 14296 H 1305.69 -1.43994 -0.0132004 0
M  V30 14297 H 1307.64 -3.44633 -2.42499 0
M  V30 14298 H 1306.36 -2.20374 -2.41045 0
M  V30 14299 H 1305.02 -3.58146 -0.78273 0
M  V30 14300 H 1304.67 -3.84337 -3.2449 0
M  V30 14301 H 1304.37 -5.37208 -2.38079 0
M  V30 14302 H 1305.89 -5.14668 -3.28557 0
M  V30 14303 H 1307.31 -5.63287 -1.06677 0
M  V30 14304 H 1305.71 -5.99014 -0.360845 0
M  V30 14305 H 1306.78 -4.82857 0.444672 0
M  V30 14306 N 1308.12 0.00332656 -1.576 0
M  V30 14307 C 1309.35 0.699945 -1.94701 0
M  V30 14308 C 1309.76 1.67492 -0.871312 0
M  V30 14309 O 1309.12 1.81882 0.150054 0
M  V30 14310 C 1309.17 1.43471 -3.31811 0
M  V30 14311 O 1308.89 0.498835 -4.35251 0
M  V30 14312 C 1310.39 2.22614 -3.83351 0
M  V30 14313 H 1307.61 0.195158 -0.641993 0
M  V30 14314 H 1310.16 -0.0468044 -2.04446 0
M  V30 14315 H 1308.31 2.13311 -3.23384 0
M  V30 14316 H 1308.72 1.01688 -5.14548 0
M  V30 14317 H 1310.2 2.69527 -4.81725 0
M  V30 14318 H 1310.68 3.05146 -3.15883 0
M  V30 14319 H 1311.28 1.57796 -3.94944 0
M  V30 14320 N 1309.6 1.55164 0.276031 0
M  V30 14321 C 1311.01 1.46936 0.623061 0
M  V30 14322 C 1311.21 0.680977 1.89644 0
M  V30 14323 O 1310.27 0.198618 2.51718 0
M  V30 14324 C 1311.58 2.91123 0.752839 0
M  V30 14325 C 1313.13 3.01319 0.847093 0
M  V30 14326 C 1313.6 4.46755 1.00867 0
M  V30 14327 N 1315.1 4.5057 1.07427 0
M  V30 14328 C 1315.83 5.60314 1.21804 0
M  V30 14329 N 1315.33 6.7993 1.32919 0
M  V30 14330 N 1317.12 5.4805 1.2489 0
M  V30 14331 H 1309.27 2.04877 -0.560282 0
M  V30 14332 H 1311.53 0.928925 -0.189217 0
M  V30 14333 H 1311.24 3.51521 -0.112333 0
M  V30 14334 H 1311.11 3.39967 1.63408 0
M  V30 14335 H 1313.5 2.41021 1.70274 0
M  V30 14336 H 1313.58 2.55733 -0.0586896 0
M  V30 14337 H 1313.23 5.07655 0.1577 0
M  V30 14338 H 1313.16 4.89995 1.92906 0
M  V30 14339 H 1315.65 3.64404 1.00089 0
M  V30 14340 H 1315.96 7.59319 1.43714 0
M  V30 14341 H 1314.3 6.82747 1.29929 0
M  V30 14342 H 1317.5 4.53542 1.15834 0
M  V30 14343 H 1317.67 6.33621 1.3575 0
M  V30 14344 N 1311.07 -0.540404 1.48045 0
M  V30 14345 C 1312.3 -1.32177 1.59175 0
M  V30 14346 C 1312.72 -1.87163 0.248115 0
M  V30 14347 O 1312.07 -1.65871 -0.761124 0
M  V30 14348 C 1312.13 -2.47995 2.63023 0
M  V30 14349 O 1311.85 -1.95278 3.92171 0
M  V30 14350 C 1313.35 -3.39967 2.84495 0
M  V30 14351 H 1310.57 -0.40233 0.537002 0
M  V30 14352 H 1313.11 -0.652983 1.93795 0
M  V30 14353 H 1311.27 -3.10779 2.31291 0
M  V30 14354 H 1311.68 -2.71012 4.49058 0
M  V30 14355 H 1313.15 -4.17607 3.60982 0
M  V30 14356 H 1313.63 -3.94555 1.92932 0
M  V30 14357 H 1314.24 -2.82985 3.1749 0
M  V30 14358 N 1312.55 -1.36459 -0.788468 0
M  V30 14359 C 1313.48 -1.33545 -1.91541 0
M  V30 14360 C 1314.46 -0.206762 -1.68839 0
M  V30 14361 O 1315.65 -0.404553 -1.89939 0
M  V30 14362 C 1312.78 -1.12492 -3.28577 0
M  V30 14363 C 1311.73 -2.22196 -3.65805 0
M  V30 14364 C 1311.06 -1.86285 -5.01201 0
M  V30 14365 C 1312.36 -3.64286 -3.7429 0
M  V30 14366 H 1314.05 -2.27844 -1.94236 0
M  V30 14367 H 1311.6 -1.09677 -0.933105 0
M  V30 14368 H 1313.55 -1.09089 -4.07035 0
M  V30 14369 H 1312.28 -0.146446 -3.26272 0
M  V30 14370 H 1310.93 -2.24727 -2.89644 0
M  V30 14371 H 1310.58 -0.87009 -4.95417 0
M  V30 14372 H 1310.28 -2.59734 -5.27079 0
M  V30 14373 H 1311.81 -1.84439 -5.82078 0
M  V30 14374 H 1313.22 -3.63977 -4.42937 0
M  V30 14375 H 1311.62 -4.36648 -4.11653 0
M  V30 14376 H 1312.69 -3.99123 -2.75371 0
M  V30 14377 N 1314.03 1.01274 -1.20754 0
M  V30 14378 C 1314.96 2.11763 -0.983805 0
M  V30 14379 C 1315.94 1.69869 0.0885635 0
M  V30 14380 O 1317.13 1.94075 -0.0697239 0
M  V30 14381 C 1314.26 3.43087 -0.539287 0
M  V30 14382 C 1313.21 3.9874 -1.55534 0
M  V30 14383 C 1312.54 5.25877 -0.967322 0
M  V30 14384 C 1313.84 4.31688 -2.94012 0
M  V30 14385 H 1315.53 2.30737 -1.90789 0
M  V30 14386 H 1313.08 1.10884 -0.918734 0
M  V30 14387 H 1315.03 4.19773 -0.369979 0
M  V30 14388 H 1313.75 3.23883 0.420435 0
M  V30 14389 H 1312.41 3.24166 -1.71207 0
M  V30 14390 H 1312.06 5.03 0.000448307 0
M  V30 14391 H 1311.76 5.64077 -1.64594 0
M  V30 14392 H 1313.28 6.05215 -0.809167 0
M  V30 14393 H 1314.7 4.99246 -2.81827 0
M  V30 14394 H 1313.1 4.81011 -3.58815 0
M  V30 14395 H 1314.17 3.4029 -3.45442 0
M  V30 14396 N 1315.51 1.01404 1.20644 0
M  V30 14397 C 1316.47 0.586941 2.21557 0
M  V30 14398 C 1317.47 -0.341543 1.57131 0
M  V30 14399 O 1318.66 -0.130585 1.7371 0
M  V30 14400 C 1315.79 -0.143248 3.40599 0
M  V30 14401 H 1316.99 1.47964 2.60858 0
M  V30 14402 H 1314.54 0.803551 1.34063 0
M  V30 14403 H 1315.28 -1.05097 3.06798 0
M  V30 14404 H 1315.06 0.523716 3.88587 0
M  V30 14405 H 1316.55 -0.429504 4.15385 0
M  V30 14406 N 1316.99 -1.36373 0.789944 0
M  V30 14407 C 1318.24 -1.98476 0.359165 0
M  V30 14408 C 1318.55 -1.634 -1.07517 0
M  V30 14409 O 1319.76 -2.18742 -1.60824 0
M  V30 14410 C 1318.21 -3.55011 0.591228 0
M  V30 14411 C 1317.82 -3.99011 2.03701 0
M  V30 14412 C 1319.56 -4.23903 0.224979 0
M  V30 14413 C 1317.47 -5.48325 2.2157 0
M  V30 14414 H 1316.4 -0.742612 0.130552 0
M  V30 14415 H 1319.05 -1.55664 0.971652 0
M  V30 14416 H 1317.43 -3.95895 -0.0909788 0
M  V30 14417 H 1318.61 -3.69324 2.75566 0
M  V30 14418 H 1316.92 -3.42957 2.36155 0
M  V30 14419 H 1319.52 -5.33638 0.336764 0
M  V30 14420 H 1319.86 -4.08004 -0.826964 0
M  V30 14421 H 1320.4 -3.88383 0.860443 0
M  V30 14422 H 1317.13 -5.69173 3.25149 0
M  V30 14423 H 1316.65 -5.79637 1.54211 0
M  V30 14424 H 1318.33 -6.14556 2.0231 0
M  V30 14425 N 1318.47 -0.542005 -1.47987 0
M  V30 14426 C 1319.4 0.202703 -2.32618 0
M  V30 14427 C 1320.38 0.923521 -1.42846 0
M  V30 14428 O 1321.56 0.906957 -1.7172 0
M  V30 14429 C 1318.69 1.24267 -3.24307 0
M  V30 14430 C 1317.65 0.639257 -4.23199 0
M  V30 14431 C 1316.97 1.78275 -5.04105 0
M  V30 14432 C 1318.27 -0.396982 -5.20789 0
M  V30 14433 H 1319.97 -0.503817 -2.95131 0
M  V30 14434 H 1317.51 -0.243736 -1.41922 0
M  V30 14435 H 1319.46 1.7717 -3.82347 0
M  V30 14436 H 1318.19 1.97893 -2.59819 0
M  V30 14437 H 1316.85 0.131655 -3.66364 0
M  V30 14438 H 1316.5 2.50768 -4.36032 0
M  V30 14439 H 1316.2 1.38487 -5.71047 0
M  V30 14440 H 1317.72 2.31533 -5.65 0
M  V30 14441 H 1319.13 0.0454057 -5.73282 0
M  V30 14442 H 1317.53 -0.712911 -5.9585 0
M  V30 14443 H 1318.6 -1.29843 -4.67193 0
M  V30 14444 N 1319.94 1.55134 -0.277709 0
M  V30 14445 C 1321.22 1.91667 0.390253 0
M  V30 14446 C 1321.6 1.20228 1.73518 0
M  V30 14447 O 1320.95 0.330013 2.26104 0
M  V30 14448 C 1321.16 3.44983 0.52797 0
M  V30 14449 C 1322.51 4.16809 0.809665 0
M  V30 14450 O 1323.53 3.50891 0.612679 0
M  V30 14451 O 1322.39 5.33463 1.18656 0
M  V30 14452 H 1319.48 0.798807 0.214095 0
M  V30 14453 H 1322.03 1.66577 -0.324053 0
M  V30 14454 H 1320.8 3.89056 -0.418422 0
M  V30 14455 H 1320.42 3.76035 1.29164 0
M  V30 14456 N 1321.42 0.00503138 1.57599 0
M  V30 14457 C 1322.67 -0.677979 1.89964 0
M  V30 14458 C 1322.98 -1.74657 0.88059 0
M  V30 14459 O 1324.19 -2.48455 1.09463 0
M  V30 14460 C 1322.65 -1.25708 3.37232 0
M  V30 14461 C 1322.25 -0.223045 4.47444 0
M  V30 14462 C 1324 -1.91799 3.787 0
M  V30 14463 C 1321.9 -0.812416 5.85793 0
M  V30 14464 H 1320.83 -0.256991 0.708852 0
M  V30 14465 H 1323.49 0.0663988 1.8338 0
M  V30 14466 H 1321.87 -2.05228 3.3867 0
M  V30 14467 H 1323.04 0.54794 4.57531 0
M  V30 14468 H 1321.36 0.337714 4.15028 0
M  V30 14469 H 1323.95 -2.36808 4.79402 0
M  V30 14470 H 1324.3 -2.75067 3.1248 0
M  V30 14471 H 1324.83 -1.19004 3.79583 0
M  V30 14472 H 1321.57 -0.0184031 6.55497 0
M  V30 14473 H 1321.09 -1.55244 5.79361 0
M  V30 14474 H 1322.77 -1.30952 6.33609 0
M  V30 14475 N 1322.9 -1.55308 -0.267798 0
M  V30 14476 C 1324.15 -1.7642 -1.00019 0
M  V30 14477 C 1324.48 -0.566559 -1.85752 0
M  V30 14478 O 1323.75 0.435752 -1.89556 0
M  V30 14479 C 1324.04 -3.07229 -1.87836 0
M  V30 14480 C 1323.89 -4.37358 -1.05061 0
M  V30 14481 C 1325.21 -3.34113 -2.86455 0
M  V30 14482 H 1322.33 -0.641859 -0.362197 0
M  V30 14483 H 1324.97 -1.8804 -0.272188 0
M  V30 14484 H 1323.12 -2.97454 -2.49907 0
M  V30 14485 H 1324.79 -4.59098 -0.450208 0
M  V30 14486 H 1323.03 -4.32351 -0.354242 0
M  V30 14487 H 1323.71 -5.25223 -1.69838 0
M  V30 14488 H 1326.18 -3.43715 -2.34519 0
M  V30 14489 H 1325.06 -4.26896 -3.45038 0
M  V30 14490 H 1325.32 -2.54005 -3.61848 0
M  V30 14491 N 1324.38 0.532545 -1.4833 0
M  V30 14492 C 1325.31 1.65325 -1.58746 0
M  V30 14493 C 1326.32 1.5581 -0.471925 0
M  V30 14494 O 1327.51 1.62317 -0.742656 0
M  V30 14495 C 1324.61 3.03957 -1.49877 0
M  V30 14496 C 1323.78 3.38979 -2.76427 0
M  V30 14497 C 1322.84 4.56881 -2.61048 0
M  V30 14498 O 1321.87 4.6023 -3.34928 0
M  V30 14499 N 1323.07 5.54898 -1.70496 0
M  V30 14500 H 1325.84 1.56827 -2.55393 0
M  V30 14501 H 1323.4 0.71976 -1.45021 0
M  V30 14502 H 1325.39 3.80702 -1.37288 0
M  V30 14503 H 1323.96 3.06548 -0.612158 0
M  V30 14504 H 1323.18 2.51438 -3.03599 0
M  V30 14505 H 1324.47 3.59163 -3.60388 0
M  V30 14506 H 1323.87 5.54968 -1.0967 0
M  V30 14507 H 1322.42 6.3087 -1.63847 0
M  V30 14508 N 1325.86 1.36875 0.78122 0
M  V30 14509 C 1326.82 1.31706 1.8758 0
M  V30 14510 C 1327.82 0.223044 1.59246 0
M  V30 14511 O 1329.01 0.478327 1.67504 0
M  V30 14512 C 1326.14 1.0437 3.2453 0
M  V30 14513 H 1327.33 2.29059 1.93576 0
M  V30 14514 H 1324.89 1.21766 0.979931 0
M  V30 14515 H 1325.62 0.0750941 3.24213 0
M  V30 14516 H 1325.41 1.83548 3.46486 0
M  V30 14517 H 1326.9 1.0338 4.04602 0
M  V30 14518 N 1327.33 -1.00632 1.21289 0
M  V30 14519 C 1328.74 -1.55838 1.02817 0
M  V30 14520 C 1329.1 -1.91816 -0.412425 0
M  V30 14521 O 1328.22 -1.73342 -1.29543 0
M  V30 14522 C 1328.82 -2.83168 1.86014 0
M  V30 14523 C 1327.37 -3.34865 1.71879 0
M  V30 14524 C 1326.52 -2.0807 1.83309 0
M  V30 14525 H 1329.47 -0.828939 1.3533 0
M  V30 14526 H 1329.49 -3.54996 1.36961 0
M  V30 14527 H 1329.01 -2.56951 2.90857 0
M  V30 14528 H 1327.11 -3.6602 0.697153 0
M  V30 14529 H 1327.22 -4.06374 2.53766 0
M  V30 14530 H 1325.58 -2.21006 1.26603 0
M  V30 14531 H 1326.37 -1.84267 2.89656 0
M  V30 14532 N 1328.81 -1.02043 -1.20104 0
M  V30 14533 C 1329.74 -0.538603 -2.21753 0
M  V30 14534 C 1330.72 0.416016 -1.57188 0
M  V30 14535 O 1331.91 0.335114 -1.85497 0
M  V30 14536 C 1329.03 0.215706 -3.38012 0
M  V30 14537 C 1328.08 -0.68905 -4.20897 0
M  V30 14538 S 1328.91 -2.16041 -4.89986 0
M  V30 14539 C 1330.07 -1.41637 -6.09664 0
M  V30 14540 H 1330.3 -1.39988 -2.6228 0
M  V30 14541 H 1327.83 -0.829641 -1.30216 0
M  V30 14542 H 1329.79 0.644798 -4.05404 0
M  V30 14543 H 1328.45 1.0526 -2.95938 0
M  V30 14544 H 1327.65 -0.107195 -5.03886 0
M  V30 14545 H 1327.25 -1.05609 -3.5878 0
M  V30 14546 H 1329.54 -0.698414 -6.73891 0
M  V30 14547 H 1330.48 -2.22254 -6.72316 0
M  V30 14548 H 1330.89 -0.917572 -5.56993 0
M  V30 14549 N 1330.29 1.35952 -0.797165 0
M  V30 14550 C 1331.52 2.0381 -0.38421 0
M  V30 14551 C 1331.94 1.597 0.993854 0
M  V30 14552 O 1331.3 0.769148 1.64176 0
M  V30 14553 C 1331.35 3.57589 -0.465054 0
M  V30 14554 O 1330.45 4.09043 0.525095 0
M  V30 14555 H 1329.79 0.643957 -0.161912 0
M  V30 14556 H 1332.32 1.73746 -1.08043 0
M  V30 14557 H 1332.33 4.06651 -0.331448 0
M  V30 14558 H 1331.01 3.89045 -1.47027 0
M  V30 14559 H 1329.58 3.7123 0.352509 0
M  V30 14560 N 1331.77 0.549846 1.47697 0
M  V30 14561 C 1332.99 0.0256819 2.07384 0
M  V30 14562 C 1333.42 -1.25525 1.4009 0
M  V30 14563 O 1332.78 -1.7501 0.473406 0
M  V30 14564 C 1332.82 -0.160835 3.60241 0
M  V30 14565 O 1331.93 -1.22509 3.93783 0
M  V30 14566 H 1331.27 0.0480204 0.662261 0
M  V30 14567 H 1333.8 0.763429 1.89823 0
M  V30 14568 H 1333.81 -0.377337 4.06251 0
M  V30 14569 H 1332.48 0.774774 4.0862 0
M  V30 14570 H 1331.06 -0.98967 3.59527 0
M  V30 14571 N 1333.25 -1.54984 0.285932 0
M  V30 14572 C 1334.48 -2.03943 -0.330295 0
M  V30 14573 C 1334.88 -1.16336 -1.49207 0
M  V30 14574 O 1334.23 -0.178341 -1.82832 0
M  V30 14575 C 1334.29 -3.48976 -0.863479 0
M  V30 14576 C 1333.95 -4.5668 0.171058 0
M  V30 14577 C 1334.95 -5.10303 0.994329 0
M  V30 14578 C 1332.64 -5.01352 0.308416 0
M  V30 14579 C 1334.63 -6.07126 1.94104 0
M  V30 14580 C 1332.32 -5.97999 1.25859 0
M  V30 14581 C 1333.31 -6.50768 2.0734 0
M  V30 14582 O 1333 -7.45524 3.00749 0
M  V30 14583 H 1332.73 -0.671491 -0.0779452 0
M  V30 14584 H 1335.29 -2.01081 0.419011 0
M  V30 14585 H 1333.52 -3.49113 -1.66305 0
M  V30 14586 H 1335.21 -3.81213 -1.39396 0
M  V30 14587 H 1335.97 -4.76595 0.899002 0
M  V30 14588 H 1331.85 -4.59917 -0.315817 0
M  V30 14589 H 1335.4 -6.48239 2.57743 0
M  V30 14590 H 1331.29 -6.31125 1.35469 0
M  V30 14591 H 1332.06 -7.63276 2.95554 0
M  V30 14592 N 1334.72 -0.0133892 -1.57594 0
M  V30 14593 C 1335.97 0.668634 -1.91143 0
M  V30 14594 C 1336.3 1.7303 -0.888299 0
M  V30 14595 O 1335.55 1.95418 0.105056 0
M  V30 14596 C 1335.85 1.33729 -3.31438 0
M  V30 14597 C 1335.52 0.407527 -4.49055 0
M  V30 14598 C 1334.18 0.151573 -4.80961 0
M  V30 14599 C 1336.53 -0.231835 -5.20684 0
M  V30 14600 C 1333.86 -0.751812 -5.81863 0
M  V30 14601 C 1336.21 -1.12318 -6.22549 0
M  V30 14602 C 1334.88 -1.38818 -6.52906 0
M  V30 14603 H 1334.15 0.24467 -0.699441 0
M  V30 14604 H 1336.79 -0.0717876 -1.91365 0
M  V30 14605 H 1335.1 2.15209 -3.27403 0
M  V30 14606 H 1336.8 1.87128 -3.5466 0
M  V30 14607 H 1333.39 0.617192 -4.24133 0
M  V30 14608 H 1337.57 -0.0471268 -4.96278 0
M  V30 14609 H 1332.83 -0.964991 -6.03737 0
M  V30 14610 H 1337 -1.62488 -6.77179 0
M  V30 14611 H 1334.63 -2.08986 -7.3091 0
M  V30 14612 N 1336.2 1.55448 0.259558 0
M  V30 14613 C 1337.11 1.92364 1.34289 0
M  V30 14614 C 1338.13 0.822492 1.53333 0
M  V30 14615 O 1339.3 1.12277 1.672 0
M  V30 14616 C 1336.37 2.19978 2.67975 0
M  V30 14617 C 1335.43 3.43454 2.57562 0
M  V30 14618 C 1334.66 3.69741 3.84873 0
M  V30 14619 O 1334.89 2.9831 4.86176 0
M  V30 14620 O 1333.82 4.63274 3.84267 0
M  V30 14621 H 1337.65 2.8461 1.05975 0
M  V30 14622 H 1335.23 1.42167 0.459239 0
M  V30 14623 H 1337.11 2.39104 3.46998 0
M  V30 14624 H 1335.79 1.30912 2.96047 0
M  V30 14625 H 1334.7 3.29649 1.76869 0
M  V30 14626 H 1336.03 4.32782 2.34437 0
M  V30 14627 N 1337.68 -0.524672 1.4861 0
M  V30 14628 C 1339.1 -0.853703 1.34848 0
M  V30 14629 C 1339.3 -1.98194 0.363529 0
M  V30 14630 O 1338.35 -2.51597 -0.213348 0
M  V30 14631 C 1339.67 -1.21622 2.75006 0
M  V30 14632 C 1341.21 -1.3258 2.83534 0
M  V30 14633 C 1341.69 -1.72172 4.24406 0
M  V30 14634 N 1343.18 -1.79265 4.27105 0
M  V30 14635 C 1343.91 -2.11296 5.33049 0
M  V30 14636 N 1343.41 -2.41714 6.49266 0
M  V30 14637 N 1345.2 -2.12347 5.20447 0
M  V30 14638 H 1337.35 0.219671 2.11261 0
M  V30 14639 H 1339.62 0.0356444 0.94733 0
M  V30 14640 H 1339.32 -0.460776 3.48669 0
M  V30 14641 H 1339.2 -2.16516 3.0887 0
M  V30 14642 H 1341.58 -2.072 2.10124 0
M  V30 14643 H 1341.67 -0.357943 2.53283 0
M  V30 14644 H 1341.31 -0.981108 4.98334 0
M  V30 14645 H 1341.24 -2.70017 4.52104 0
M  V30 14646 H 1343.73 -1.58013 3.43279 0
M  V30 14647 H 1344.04 -2.65276 7.25843 0
M  V30 14648 H 1342.39 -2.39222 6.52532 0
M  V30 14649 H 1345.58 -1.88044 4.28669 0
M  V30 14650 H 1345.75 -2.36978 6.03113 0
M  V30 14651 N 1339.16 -1.37287 -0.77395 0
M  V30 14652 C 1340.09 -1.35569 -1.90114 0
M  V30 14653 C 1341.07 -0.224658 -1.6861 0
M  V30 14654 O 1342.25 -0.424676 -1.895 0
M  V30 14655 C 1339.38 -1.15971 -3.27365 0
M  V30 14656 C 1338.34 -2.26063 -3.63427 0
M  V30 14657 C 1337.66 -1.9159 -4.99197 0
M  V30 14658 C 1338.96 -3.68236 -3.70405 0
M  V30 14659 H 1340.66 -2.29891 -1.91808 0
M  V30 14660 H 1338.2 -1.10661 -0.92142 0
M  V30 14661 H 1340.16 -1.134 -4.05855 0
M  V30 14662 H 1338.88 -0.181043 -3.26098 0
M  V30 14663 H 1337.54 -2.27786 -2.87244 0
M  V30 14664 H 1337.19 -0.922586 -4.94467 0
M  V30 14665 H 1336.89 -2.65309 -5.24294 0
M  V30 14666 H 1338.41 -1.90602 -5.80089 0
M  V30 14667 H 1339.83 -3.68655 -4.39052 0
M  V30 14668 H 1338.22 -4.4099 -4.06999 0
M  V30 14669 H 1339.29 -4.02021 -2.71122 0
M  V30 14670 N 1340.64 0.999871 -1.21821 0
M  V30 14671 C 1341.86 1.7794 -1.06546 0
M  V30 14672 C 1342.29 1.84219 0.380115 0
M  V30 14673 O 1341.64 1.28955 1.27438 0
M  V30 14674 C 1341.69 3.1943 -1.67322 0
M  V30 14675 O 1340.8 4.01957 -0.922171 0
M  V30 14676 H 1340.14 0.548204 -0.374658 0
M  V30 14677 H 1342.67 1.2565 -1.61472 0
M  V30 14678 H 1342.68 3.70086 -1.71757 0
M  V30 14679 H 1341.35 3.14175 -2.7252 0
M  V30 14680 H 1339.93 3.60509 -0.95331 0
M  V30 14681 N 1342.11 1.02678 1.19562 0
M  V30 14682 C 1343.06 0.605764 2.22709 0
M  V30 14683 C 1344.03 -0.37936 1.6171 0
M  V30 14684 O 1345.22 -0.276496 1.88786 0
M  V30 14685 C 1342.36 -0.0394312 3.45077 0
M  V30 14686 C 1341.47 0.991481 4.20468 0
M  V30 14687 C 1340.6 0.316269 5.30258 0
M  V30 14688 C 1339.64 1.33324 5.97404 0
M  V30 14689 N 1338.78 0.683979 6.9876 0
M  V30 14690 H 1343.62 1.48994 2.58079 0
M  V30 14691 H 1341.16 0.745636 1.26802 0
M  V30 14692 H 1343.12 -0.430726 4.14971 0
M  V30 14693 H 1341.75 -0.887193 3.10369 0
M  V30 14694 H 1340.8 1.50085 3.49541 0
M  V30 14695 H 1342.11 1.76449 4.66548 0
M  V30 14696 H 1341.26 -0.129983 6.06561 0
M  V30 14697 H 1340 -0.488956 4.85243 0
M  V30 14698 H 1339.01 1.78977 5.19853 0
M  V30 14699 H 1340.23 2.13992 6.44503 0
M  V30 14700 H 1338.18 -0.101192 6.55922 0
M  V30 14701 H 1338.1 1.3949 7.4302 0
M  V30 14702 H 1339.36 0.261658 7.79061 0
M  V30 14703 N 1343.59 -1.35528 0.804364 0
M  V30 14704 C 1344.84 -1.98832 0.383692 0
M  V30 14705 C 1345.17 -1.63816 -1.04855 0
M  V30 14706 O 1344.42 -0.892272 -1.74175 0
M  V30 14707 C 1344.72 -3.5372 0.511571 0
M  V30 14708 C 1344.39 -4.08597 1.9068 0
M  V30 14709 C 1343.05 -4.23297 2.28852 0
M  V30 14710 C 1345.4 -4.3834 2.81971 0
M  V30 14711 C 1342.73 -4.65056 3.57687 0
M  V30 14712 C 1345.08 -4.81537 4.1025 0
M  V30 14713 C 1343.75 -4.94442 4.48423 0
M  V30 14714 H 1343.02 -0.727577 0.140403 0
M  V30 14715 H 1345.66 -1.61777 1.02472 0
M  V30 14716 H 1343.97 -3.91221 -0.212916 0
M  V30 14717 H 1345.66 -4.00653 0.166888 0
M  V30 14718 H 1342.25 -3.97606 1.60023 0
M  V30 14719 H 1346.44 -4.26538 2.5373 0
M  V30 14720 H 1341.69 -4.73236 3.87115 0
M  V30 14721 H 1345.87 -5.03512 4.81091 0
M  V30 14722 H 1343.5 -5.26558 5.48307 0
M  V30 14723 N 1345.07 -0.557671 -1.47404 0
M  V30 14724 C 1346 0.227253 -2.28071 0
M  V30 14725 C 1347.02 0.878951 -1.37034 0
M  V30 14726 O 1348.21 0.752725 -1.61853 0
M  V30 14727 C 1345.31 1.33942 -3.11308 0
M  V30 14728 C 1344.48 0.784425 -4.30309 0
M  V30 14729 C 1343.54 1.78114 -4.95138 0
M  V30 14730 O 1342.56 1.32708 -5.53514 0
M  V30 14731 N 1343.77 3.11453 -4.89875 0
M  V30 14732 H 1346.53 -0.464709 -2.96075 0
M  V30 14733 H 1344.09 -0.393777 -1.57038 0
M  V30 14734 H 1346.08 2.00495 -3.51545 0
M  V30 14735 H 1344.65 1.93461 -2.45543 0
M  V30 14736 H 1343.87 -0.0578917 -3.94157 0
M  V30 14737 H 1345.16 0.39298 -5.0728 0
M  V30 14738 H 1344.56 3.50987 -4.43649 0
M  V30 14739 H 1343.12 3.73563 -5.34129 0
M  V30 14740 N 1346.55 1.54831 -0.294147 0
M  V30 14741 C 1347.83 1.92071 0.369902 0
M  V30 14742 C 1348.21 1.22061 1.72233 0
M  V30 14743 O 1347.55 0.353975 2.25742 0
M  V30 14744 C 1347.76 3.45524 0.49135 0
M  V30 14745 C 1349.11 4.17644 0.765411 0
M  V30 14746 O 1350.14 3.51521 0.575428 0
M  V30 14747 O 1349 5.34692 1.12992 0
M  V30 14748 H 1346.09 0.801033 0.20561 0
M  V30 14749 H 1348.64 1.66224 -0.341702 0
M  V30 14750 H 1347.41 3.88591 -0.459663 0
M  V30 14751 H 1347.03 3.77384 1.25169 0
M  V30 14752 N 1348.03 0.0217466 1.57585 0
M  V30 14753 C 1349.28 -0.657187 1.91116 0
M  V30 14754 C 1349.6 -1.7309 0.898039 0
M  V30 14755 O 1348.87 -1.95803 -0.0615116 0
M  V30 14756 H 1347.45 -0.245732 0.705425 0
M  V30 14757 H 1350.11 0.0678096 1.94782 0
M  V30 14758 H 1349.2 -1.11462 2.91518 0
M  V30 14759 N 1349.51 -1.55583 -0.251311 0
M  V30 14760 C 1350.75 -1.76859 -0.978031 0
M  V30 14761 C 1351.07 -0.584924 -1.86021 0
M  V30 14762 O 1350.34 0.399456 -1.91784 0
M  V30 14763 H 1348.92 -0.652252 -0.364111 0
M  V30 14764 H 1351.59 -1.93016 -0.270319 0
M  V30 14765 H 1350.68 -2.67828 -1.60233 0
M  V30 14766 N 1350.98 0.516783 -1.48886 0
M  V30 14767 C 1351.93 1.64093 -1.64853 0
M  V30 14768 C 1352.93 1.61392 -0.514685 0
M  V30 14769 O 1354.13 1.6609 -0.693831 0
M  V30 14770 H 1350.51 0.543672 -0.519543 0
M  V30 14771 H 1352.48 1.47774 -2.5924 0
M  V30 14772 C 1351.23 3.02308 -1.71771 0
M  V30 14773 H 1350.55 3.05085 -2.58385 0
M  V30 14774 H 1351.99 3.80544 -1.86982 0
M  V30 14775 C 1350.45 3.33757 -0.459136 0
M  V30 14776 O 1350.98 3.99475 0.422177 0
M  V30 14777 N 1349.18 2.88756 -0.326837 0
M  V30 14778 H 1348.73 2.35452 -1.045 0
M  V30 14779 H 1348.69 3.10166 0.514213 0
M  V30 14780 N 1352.46 1.37696 0.766659 0
M  V30 14781 C 1353.41 1.33966 1.90147 0
M  V30 14782 C 1354.4 0.2276 1.67864 0
M  V30 14783 O 1355.61 0.395912 1.75592 0
M  V30 14784 H 1351.98 0.417611 0.625384 0
M  V30 14785 H 1353.96 2.29753 1.9041 0
M  V30 14786 C 1352.7 1.16859 3.27474 0
M  V30 14787 H 1352.03 2.01686 3.452 0
M  V30 14788 H 1353.47 1.18301 4.07162 0
M  V30 14789 C 1351.93 -0.125418 3.36666 0
M  V30 14790 O 1352.46 -1.10717 3.86141 0
M  V30 14791 N 1350.66 -0.17784 2.90055 0
M  V30 14792 H 1350.21 0.621737 2.49984 0
M  V30 14793 H 1350.17 -1.04325 2.96587 0
M  V30 14794 N 1353.94 -0.993397 1.22349 0
M  V30 14795 C 1355.19 -1.73544 1.04931 0
M  V30 14796 C 1355.52 -1.89721 -0.414661 0
M  V30 14797 O 1354.79 -1.44001 -1.30743 0
M  V30 14798 C 1355.08 -3.14131 1.7605 0
M  V30 14799 C 1354.93 -3.05604 3.30039 0
M  V30 14800 C 1356.25 -4.13294 1.51249 0
M  V30 14801 H 1353.37 -0.629915 0.382591 0
M  V30 14802 H 1356.01 -1.15737 1.50682 0
M  V30 14803 H 1354.16 -3.63483 1.37157 0
M  V30 14804 H 1355.83 -2.63876 3.78374 0
M  V30 14805 H 1354.07 -2.42421 3.59742 0
M  V30 14806 H 1354.75 -4.05086 3.74979 0
M  V30 14807 H 1357.22 -3.72696 1.85033 0
M  V30 14808 H 1356.1 -5.09781 2.03507 0
M  V30 14809 H 1356.36 -4.39855 0.444973 0
M  V30 14810 N 1355.42 -1.03311 -1.19015 0
M  V30 14811 C 1356.35 -0.562092 -2.21169 0
M  V30 14812 C 1357.33 0.399321 -1.5762 0
M  V30 14813 O 1358.51 0.315421 -1.85842 0
M  V30 14814 C 1355.64 0.179843 -3.38222 0
M  V30 14815 C 1354.69 -0.733653 -4.20143 0
M  V30 14816 S 1355.52 -2.21226 -4.87667 0
M  V30 14817 C 1356.67 -1.48095 -6.08127 0
M  V30 14818 H 1356.91 -1.42762 -2.6078 0
M  V30 14819 H 1354.44 -0.843405 -1.29329 0
M  V30 14820 H 1356.4 0.601764 -4.06065 0
M  V30 14821 H 1355.06 1.02116 -2.97037 0
M  V30 14822 H 1354.25 -0.160633 -5.03744 0
M  V30 14823 H 1353.85 -1.09408 -3.57639 0
M  V30 14824 H 1356.15 -0.76985 -6.73112 0
M  V30 14825 H 1357.09 -2.29372 -6.69921 0
M  V30 14826 H 1357.5 -0.976597 -5.55988 0
M  V30 14827 N 1356.9 1.35099 -0.81154 0
M  V30 14828 C 1358.31 1.51701 -0.495883 0
M  V30 14829 C 1358.51 1.7595 0.982035 0
M  V30 14830 O 1357.57 1.8038 1.7669 0
M  V30 14831 C 1358.88 2.68916 -1.34554 0
M  V30 14832 C 1360.43 2.82795 -1.34149 0
M  V30 14833 C 1360.9 4.0304 -2.17538 0
M  V30 14834 N 1362.39 4.10227 -2.151 0
M  V30 14835 C 1363.13 5.02397 -2.76377 0
M  V30 14836 N 1362.63 5.99866 -3.46601 0
M  V30 14837 N 1364.42 4.95181 -2.65992 0
M  V30 14838 H 1356.57 1.17617 -1.76862 0
M  V30 14839 H 1358.83 0.575875 -0.753042 0
M  V30 14840 H 1358.54 2.57591 -2.39458 0
M  V30 14841 H 1358.41 3.63641 -1.00223 0
M  V30 14842 H 1360.8 2.93568 -0.300285 0
M  V30 14843 H 1360.88 1.88912 -1.7247 0
M  V30 14844 H 1360.52 3.93027 -3.21702 0
M  V30 14845 H 1360.45 4.96114 -1.76574 0
M  V30 14846 H 1362.95 3.40454 -1.6401 0
M  V30 14847 H 1363.26 6.66803 -3.90632 0
M  V30 14848 H 1361.6 6.00025 -3.50706 0
M  V30 14849 H 1364.79 4.17991 -2.10715 0
M  V30 14850 H 1364.97 5.6682 -3.14036 0
M  V30 14851 N 1358.37 0.56548 1.47106 0
M  V30 14852 C 1359.6 0.0496298 2.0684 0
M  V30 14853 C 1360.02 -1.24777 1.4169 0
M  V30 14854 O 1359.37 -1.75046 0.516239 0
M  V30 14855 C 1359.42 -0.140987 3.61225 0
M  V30 14856 O 1359.15 1.10504 4.23934 0
M  V30 14857 C 1360.65 -0.693171 4.37847 0
M  V30 14858 H 1357.87 0.0496018 0.669164 0
M  V30 14859 H 1360.41 0.781247 1.88989 0
M  V30 14860 H 1358.57 -0.822762 3.78562 0
M  V30 14861 H 1358.98 0.907978 5.16581 0
M  V30 14862 H 1360.45 -0.7758 5.46521 0
M  V30 14863 H 1360.93 -1.70632 4.04699 0
M  V30 14864 H 1361.54 -0.046826 4.25274 0
M  V30 14865 N 1359.85 -1.54672 0.302354 0
M  V30 14866 C 1361.1 -1.99345 -0.307307 0
M  V30 14867 C 1361.41 -1.19437 -1.549 0
M  V30 14868 O 1362.62 -1.54384 -2.23334 0
M  V30 14869 C 1361.08 -3.54896 -0.59808 0
M  V30 14870 C 1360.68 -4.43614 0.625357 0
M  V30 14871 C 1362.43 -4.08091 -1.16886 0
M  V30 14872 C 1360.34 -5.90599 0.307661 0
M  V30 14873 H 1359.27 -0.744614 -0.118603 0
M  V30 14874 H 1361.92 -1.78832 0.411271 0
M  V30 14875 H 1360.3 -3.71314 -1.37629 0
M  V30 14876 H 1361.47 -4.38969 1.40152 0
M  V30 14877 H 1359.79 -4.01198 1.11487 0
M  V30 14878 H 1362.38 -5.15477 -1.42082 0
M  V30 14879 H 1362.73 -3.58775 -2.11155 0
M  V30 14880 H 1363.26 -3.9522 -0.452329 0
M  V30 14881 H 1360 -6.44067 1.21895 0
M  V30 14882 H 1359.52 -5.98248 -0.431208 0
M  V30 14883 H 1361.2 -6.46937 -0.0902796 0
M  V30 14884 N 1361.33 -0.0301034 -1.57571 0
M  V30 14885 C 1362.28 0.960604 -2.06776 0
M  V30 14886 C 1363.26 1.28488 -0.968483 0
M  V30 14887 O 1364.46 1.27083 -1.23203 0
M  V30 14888 C 1361.59 2.24268 -2.59921 0
M  V30 14889 C 1360.67 1.94673 -3.7678 0
M  V30 14890 N 1361.06 1.3535 -4.87354 0
M  V30 14891 C 1359.36 2.24658 -3.85285 0
M  V30 14892 C 1360.06 1.22909 -5.68567 0
M  V30 14893 N 1359.04 1.72493 -5.15507 0
M  V30 14894 H 1362.84 0.496931 -2.89668 0
M  V30 14895 H 1360.35 0.174886 -1.61456 0
M  V30 14896 H 1362.35 2.96116 -2.93463 0
M  V30 14897 H 1361.01 2.71261 -1.78459 0
M  V30 14898 H 1362.02 1.02839 -5.07587 0
M  V30 14899 H 1358.7 2.74318 -3.14731 0
M  V30 14900 H 1360.09 0.7703 -6.6747 0
M  V30 14901 N 1362.81 1.55714 0.243056 0
M  V30 14902 C 1364.06 1.77375 0.968638 0
M  V30 14903 C 1364.38 0.594781 1.85708 0
M  V30 14904 O 1363.65 -0.38928 1.91993 0
M  V30 14905 H 1362.23 0.654174 0.360646 0
M  V30 14906 H 1364.89 1.93157 0.260079 0
M  V30 14907 H 1363.99 2.68674 1.5881 0
M  V30 14908 N 1364.29 -0.50888 1.49158 0
M  V30 14909 C 1365.53 -1.26537 1.58481 0
M  V30 14910 C 1365.87 -1.92353 0.267168 0
M  V30 14911 O 1365.14 -1.80336 -0.728639 0
M  V30 14912 C 1365.42 -2.33846 2.73839 0
M  V30 14913 C 1365.28 -1.72582 4.15374 0
M  V30 14914 C 1366.6 -3.35467 2.84868 0
M  V30 14915 H 1363.71 -0.458697 0.576859 0
M  V30 14916 H 1366.36 -0.564728 1.81413 0
M  V30 14917 H 1364.51 -2.93605 2.54417 0
M  V30 14918 H 1366.18 -1.16711 4.46292 0
M  V30 14919 H 1364.42 -1.03025 4.21389 0
M  V30 14920 H 1365.09 -2.5038 4.91949 0
M  V30 14921 H 1367.57 -2.85689 3.02524 0
M  V30 14922 H 1366.44 -4.07922 3.67275 0
M  V30 14923 H 1366.71 -3.97313 1.93894 0
M  V30 14924 N 1365.76 -1.381 -0.759346 0
M  V30 14925 C 1367.01 -1.33727 -1.5153 0
M  V30 14926 C 1367.33 0.0739504 -1.9486 0
M  V30 14927 O 1366.6 1.02049 -1.67221 0
M  V30 14928 H 1365.18 -0.492037 -0.562058 0
M  V30 14929 H 1367.85 -1.72719 -0.902995 0
M  V30 14930 H 1366.94 -1.98439 -2.40891 0
M  V30 14931 N 1367.24 0.986894 -1.22875 0
M  V30 14932 C 1368.15 2.11232 -1.02069 0
M  V30 14933 C 1369.17 1.73969 0.0328424 0
M  V30 14934 O 1370.34 2.00754 -0.161197 0
M  V30 14935 C 1367.41 3.41337 -0.60747 0
M  V30 14936 C 1366.47 3.92665 -1.73531 0
M  V30 14937 C 1365.7 5.1656 -1.34171 0
M  V30 14938 O 1365.93 5.69964 -0.223106 0
M  V30 14939 O 1364.86 5.61791 -2.16041 0
M  V30 14940 H 1368.69 2.3167 -1.96374 0
M  V30 14941 H 1366.27 1.09607 -1.01522 0
M  V30 14942 H 1368.15 4.19613 -0.387661 0
M  V30 14943 H 1366.83 3.22244 0.306653 0
M  V30 14944 H 1365.74 3.15534 -2.0097 0
M  V30 14945 H 1367.07 4.162 -2.62751 0
M  V30 14946 N 1368.72 1.0394 1.18466 0
M  V30 14947 C 1369.65 0.573814 2.20868 0
M  V30 14948 C 1370.63 -0.390956 1.5783 0
M  V30 14949 O 1371.82 -0.305561 1.86007 0
M  V30 14950 C 1368.94 -0.161904 3.38313 0
M  V30 14951 C 1367.99 0.755924 4.19748 0
M  V30 14952 S 1368.82 2.23809 4.86487 0
M  V30 14953 C 1369.98 1.51318 6.07333 0
M  V30 14954 H 1370.21 1.44143 2.60019 0
M  V30 14955 H 1367.74 0.850252 1.2888 0
M  V30 14956 H 1369.7 -0.58022 4.06379 0
M  V30 14957 H 1368.36 -1.00539 2.97575 0
M  V30 14958 H 1367.56 0.187345 5.03652 0
M  V30 14959 H 1367.16 1.11303 3.57054 0
M  V30 14960 H 1369.45 0.805536 6.72694 0
M  V30 14961 H 1370.39 2.32922 6.68695 0
M  V30 14962 H 1370.8 1.00607 5.55462 0
M  V30 14963 N 1370.2 -1.34667 0.818693 0
M  V30 14964 C 1371.13 -2.27466 0.182904 0
M  V30 14965 C 1372.11 -1.48682 -0.65821 0
M  V30 14966 O 1373.29 -1.77912 -0.622868 0
M  V30 14967 C 1370.42 -3.30406 -0.744971 0
M  V30 14968 C 1369.47 -4.26496 0.018069 0
M  V30 14969 S 1370.3 -5.1788 1.36236 0
M  V30 14970 C 1371.46 -6.24357 0.43925 0
M  V30 14971 H 1371.69 -2.81042 0.969668 0
M  V30 14972 H 1369.22 -1.4165 0.614372 0
M  V30 14973 H 1371.18 -3.90205 -1.27478 0
M  V30 14974 H 1369.84 -2.75684 -1.50522 0
M  V30 14975 H 1369.03 -4.99294 -0.687141 0
M  V30 14976 H 1368.64 -3.70929 0.478291 0
M  V30 14977 H 1370.93 -6.76484 -0.370837 0
M  V30 14978 H 1371.87 -6.98916 1.13678 0
M  V30 14979 H 1372.28 -5.64492 0.0295605 0
M  V30 14980 N 1371.68 -0.573274 -1.46804 0
M  V30 14981 C 1372.9 -0.0605984 -2.06811 0
M  V30 14982 C 1373.32 1.24024 -1.4235 0
M  V30 14983 O 1372.68 1.7477 -0.525515 0
M  V30 14984 C 1372.73 0.121828 -3.61295 0
M  V30 14985 O 1372.45 -1.12751 -4.23342 0
M  V30 14986 C 1373.95 0.669941 -4.38208 0
M  V30 14987 H 1371.17 -0.0531498 -0.668892 0
M  V30 14988 H 1373.71 -0.791259 -1.88572 0
M  V30 14989 H 1371.87 0.802674 -3.78993 0
M  V30 14990 H 1372.28 -0.935361 -5.16092 0
M  V30 14991 H 1373.76 0.746806 -5.46925 0
M  V30 14992 H 1374.23 1.68483 -4.05598 0
M  V30 14993 H 1374.84 0.0242721 -4.25293 0
M  V30 14994 N 1373.15 1.5451 -0.310553 0
M  V30 14995 C 1374.09 2.2134 0.595098 0
M  V30 14996 C 1375.1 1.20917 1.09009 0
M  V30 14997 O 1376.29 1.47458 1.0059 0
M  V30 14998 C 1373.39 2.85384 1.82782 0
M  V30 14999 C 1372.56 4.11826 1.47372 0
M  V30 15000 C 1371.62 4.59584 2.56259 0
M  V30 15001 O 1370.65 5.24567 2.20949 0
M  V30 15002 N 1371.85 4.32709 3.86967 0
M  V30 15003 H 1374.61 2.99691 0.0229291 0
M  V30 15004 H 1372.17 1.61351 -0.133173 0
M  V30 15005 H 1374.17 3.14263 2.54992 0
M  V30 15006 H 1372.74 2.10816 2.30815 0
M  V30 15007 H 1371.96 3.89853 0.583826 0
M  V30 15008 H 1373.24 4.94138 1.21265 0
M  V30 15009 H 1372.64 3.80669 4.18458 0
M  V30 15010 H 1371.2 4.66275 4.55446 0
M  V30 15011 N 1374.63 0.0384594 1.57553 0
M  V30 15012 C 1375.57 -0.975285 2.06309 0
M  V30 15013 C 1376.54 -1.31174 0.96084 0
M  V30 15014 O 1377.73 -1.4268 1.23185 0
M  V30 15015 C 1374.86 -2.29279 2.49297 0
M  V30 15016 C 1373.9 -2.11028 3.70634 0
M  V30 15017 S 1374.73 -1.40043 5.16864 0
M  V30 15018 C 1375.89 -2.73143 5.63155 0
M  V30 15019 H 1376.12 -0.560293 2.91973 0
M  V30 15020 H 1373.66 -0.173479 1.53422 0
M  V30 15021 H 1375.61 -3.05016 2.74728 0
M  V30 15022 H 1374.28 -2.67909 1.63962 0
M  V30 15023 H 1373.47 -3.08451 3.9859 0
M  V30 15024 H 1373.07 -1.43433 3.45403 0
M  V30 15025 H 1375.36 -3.69354 5.67965 0
M  V30 15026 H 1376.31 -2.49839 6.6256 0
M  V30 15027 H 1376.71 -2.78819 4.90836 0
M  V30 15028 N 1376.11 -1.55841 -0.234795 0
M  V30 15029 C 1377.36 -1.78502 -0.96254 0
M  V30 15030 C 1377.69 -0.605832 -1.84508 0
M  V30 15031 O 1376.97 0.395446 -1.90438 0
M  V30 15032 C 1377.25 -3.11144 -1.81277 0
M  V30 15033 C 1377.1 -4.39488 -0.957607 0
M  V30 15034 C 1378.42 -3.40114 -2.79304 0
M  V30 15035 H 1375.54 -0.649397 -0.348501 0
M  V30 15036 H 1378.18 -1.88575 -0.23224 0
M  V30 15037 H 1376.33 -3.02687 -2.43542 0
M  V30 15038 H 1378 -4.59949 -0.352726 0
M  V30 15039 H 1376.25 -4.33005 -0.262454 0
M  V30 15040 H 1376.92 -5.28707 -1.58659 0
M  V30 15041 H 1379.39 -3.48612 -2.27175 0
M  V30 15042 H 1378.27 -4.34118 -3.35906 0
M  V30 15043 H 1378.53 -2.61623 -3.56378 0
M  V30 15044 N 1377.59 0.500963 -1.49426 0
M  V30 15045 C 1378.52 1.61114 -1.69011 0
M  V30 15046 C 1379.5 1.61341 -0.538813 0
M  V30 15047 O 1380.69 1.78081 -0.77466 0
M  V30 15048 C 1377.82 2.99598 -1.75666 0
M  V30 15049 C 1376.77 3.14236 -2.90585 0
M  V30 15050 C 1376.1 4.54071 -2.82354 0
M  V30 15051 C 1377.4 2.94258 -4.3152 0
M  V30 15052 H 1379.09 1.44978 -2.61957 0
M  V30 15053 H 1376.64 0.69603 -1.26061 0
M  V30 15054 H 1378.59 3.77163 -1.87953 0
M  V30 15055 H 1377.31 3.16822 -0.793186 0
M  V30 15056 H 1375.97 2.39096 -2.779 0
M  V30 15057 H 1375.62 4.68172 -1.83914 0
M  V30 15058 H 1375.32 4.64806 -3.59485 0
M  V30 15059 H 1376.84 5.33696 -2.96649 0
M  V30 15060 H 1378.26 3.61592 -4.44886 0
M  V30 15061 H 1376.65 3.16464 -5.09873 0
M  V30 15062 H 1377.72 1.90383 -4.45962 0
M  V30 15063 N 1379.07 1.38501 0.752011 0
M  V30 15064 C 1380.29 1.38212 1.54636 0
M  V30 15065 C 1380.72 -0.0256356 1.88083 0
M  V30 15066 O 1380.08 -1.00812 1.50687 0
M  V30 15067 C 1380.12 2.24597 2.82114 0
M  V30 15068 O 1379.23 1.66415 3.77332 0
M  V30 15069 H 1378.57 0.47138 0.46765 0
M  V30 15070 H 1381.1 1.82283 0.929205 0
M  V30 15071 H 1381.11 2.38511 3.31023 0
M  V30 15072 H 1379.78 3.26913 2.57101 0
M  V30 15073 H 1378.36 1.61651 3.36041 0
M  V30 15074 N 1380.55 -0.980364 1.23396 0
M  V30 15075 C 1381.96 -1.24658 0.996622 0
M  V30 15076 C 1382.16 -1.9922 -0.302259 0
M  V30 15077 O 1381.22 -2.30906 -1.02169 0
M  V30 15078 C 1382.53 -2.0461 2.20353 0
M  V30 15079 C 1384.08 -2.17749 2.24843 0
M  V30 15080 C 1384.55 -3.01091 3.4512 0
M  V30 15081 N 1386.04 -3.08676 3.4536 0
M  V30 15082 C 1386.78 -3.73487 4.3508 0
M  V30 15083 N 1386.28 -4.40121 5.35038 0
M  V30 15084 N 1388.07 -3.70373 4.22824 0
M  V30 15085 H 1380.22 -0.480851 2.06885 0
M  V30 15086 H 1382.48 -0.275049 0.907222 0
M  V30 15087 H 1382.19 -1.57197 3.14614 0
M  V30 15088 H 1382.06 -3.05359 2.21441 0
M  V30 15089 H 1384.45 -2.64369 1.31122 0
M  V30 15090 H 1384.53 -1.16388 2.27788 0
M  V30 15091 H 1384.17 -2.55168 4.39149 0
M  V30 15092 H 1384.1 -4.02621 3.39417 0
M  V30 15093 H 1386.6 -2.61265 2.73037 0
M  V30 15094 H 1386.91 -4.87354 5.99755 0
M  V30 15095 H 1385.25 -4.38829 5.38938 0
M  V30 15096 H 1388.44 -3.17486 3.43977 0
M  V30 15097 H 1388.62 -4.20601 4.92949 0
M  V30 15098 N 1382.02 -1.04567 -1.17913 0
M  V30 15099 C 1383.27 -0.750538 -1.87647 0
M  V30 15100 C 1383.59 0.72423 -1.81052 0
M  V30 15101 O 1382.86 1.52292 -1.23223 0
M  V30 15102 H 1381.44 -0.274636 -0.694683 0
M  V30 15103 H 1384.1 -1.32349 -1.43072 0
M  V30 15104 H 1383.2 -1.05987 -2.93553 0
M  V30 15105 N 1383.5 1.34231 -0.825823 0
M  V30 15106 C 1384.73 2.02949 -0.427354 0
M  V30 15107 C 1385.15 1.61772 0.959755 0
M  V30 15108 O 1384.51 0.803799 1.62508 0
M  V30 15109 C 1384.56 3.56522 -0.540799 0
M  V30 15110 O 1383.66 4.10065 0.438213 0
M  V30 15111 H 1383 0.640378 -0.175535 0
M  V30 15112 H 1385.53 1.71416 -1.11704 0
M  V30 15113 H 1385.54 4.05857 -0.41763 0
M  V30 15114 H 1384.22 3.85839 -1.55246 0
M  V30 15115 H 1382.79 3.71894 0.273687 0
M  V30 15116 N 1384.98 0.581051 1.46498 0
M  V30 15117 C 1386.23 0.0637189 2.01599 0
M  V30 15118 C 1386.54 -1.30353 1.45834 0
M  V30 15119 O 1387.75 -1.91211 1.92745 0
M  V30 15120 C 1386.2 0.0633254 3.59844 0
M  V30 15121 C 1385.81 1.42879 4.24605 0
M  V30 15122 C 1387.56 -0.400149 4.2261 0
M  V30 15123 C 1385.46 1.38621 5.74924 0
M  V30 15124 H 1384.39 0.0200512 0.753733 0
M  V30 15125 H 1387.04 0.732451 1.68248 0
M  V30 15126 H 1385.43 -0.671538 3.90264 0
M  V30 15127 H 1386.6 2.18325 4.05796 0
M  V30 15128 H 1384.91 1.83215 3.73927 0
M  V30 15129 H 1387.51 -0.450771 5.32797 0
M  V30 15130 H 1387.85 -1.41733 3.9143 0
M  V30 15131 H 1388.39 0.280598 3.96809 0
M  V30 15132 H 1385.13 2.38014 6.10761 0
M  V30 15133 H 1384.65 0.673926 5.96002 0
M  V30 15134 H 1386.33 1.09841 6.37608 0
M  V30 15135 N 1386.46 -1.54343 0.318742 0
M  V30 15136 C 1387.7 -2.0048 -0.285276 0
M  V30 15137 C 1388.03 -1.20698 -1.5252 0
M  V30 15138 O 1387.29 -0.275893 -1.93746 0
M  V30 15139 C 1387.59 -3.51079 -0.669181 0
M  V30 15140 C 1387.25 -4.48433 0.471017 0
M  V30 15141 C 1385.91 -4.74771 0.783985 0
M  V30 15142 C 1388.27 -5.06304 1.23715 0
M  V30 15143 C 1385.59 -5.56239 1.86589 0
M  V30 15144 C 1387.95 -5.88951 2.30911 0
M  V30 15145 C 1386.61 -6.13592 2.62794 0
M  V30 15146 H 1385.88 -0.73361 -0.10439 0
M  V30 15147 H 1388.53 -1.86341 0.441521 0
M  V30 15148 H 1386.83 -3.62921 -1.47633 0
M  V30 15149 H 1388.53 -3.84216 -1.148 0
M  V30 15150 H 1385.12 -4.2805 0.217004 0
M  V30 15151 H 1389.3 -4.85943 1.00862 0
M  V30 15152 H 1384.56 -5.73563 2.11744 0
M  V30 15153 H 1388.73 -6.32814 2.90722 0
M  V30 15154 H 1386.36 -6.76508 3.46757 0
M  V30 15155 N 1387.94 -0.0468143 -1.5753 0
M  V30 15156 C 1389.35 0.489509 -1.80169 0
M  V30 15157 C 1389.7 1.71184 -0.958669 0
M  V30 15158 O 1388.82 2.15699 -0.174025 0
M  V30 15159 C 1389.42 0.894838 -3.26769 0
M  V30 15160 C 1387.98 1.37617 -3.50341 0
M  V30 15161 C 1387.12 0.349275 -2.75092 0
M  V30 15162 H 1390.07 -0.272728 -1.56339 0
M  V30 15163 H 1390.1 1.75805 -3.3745 0
M  V30 15164 H 1389.61 0.00501096 -3.881 0
M  V30 15165 H 1387.71 2.28533 -2.94285 0
M  V30 15166 H 1387.82 1.37133 -4.59055 0
M  V30 15167 H 1386.19 0.821219 -2.41098 0
M  V30 15168 H 1386.97 -0.532391 -3.39147 0
M  V30 15169 N 1389.41 1.55964 0.226527 0
M  V30 15170 C 1390.35 1.87013 1.30772 0
M  V30 15171 C 1391.33 0.727044 1.4544 0
M  V30 15172 O 1392.51 0.974898 1.61332 0
M  V30 15173 C 1389.64 2.07278 2.67869 0
M  V30 15174 C 1388.68 3.29956 2.70243 0
M  V30 15175 S 1389.52 4.86026 2.24808 0
M  V30 15176 C 1390.67 5.09321 3.6379 0
M  V30 15177 H 1390.9 2.78427 1.0424 0
M  V30 15178 H 1388.44 1.48334 0.428525 0
M  V30 15179 H 1390.4 2.19636 3.468 0
M  V30 15180 H 1389.06 1.1667 2.91628 0
M  V30 15181 H 1388.25 3.41164 3.70975 0
M  V30 15182 H 1387.85 3.16429 1.99371 0
M  V30 15183 H 1390.14 4.97914 4.59443 0
M  V30 15184 H 1391.09 6.11227 3.57501 0
M  V30 15185 H 1391.49 4.37076 3.57247 0
M  V30 15186 N 1390.89 -0.493031 1.4969 0
M  V30 15187 C 1392.12 -1.27517 1.63567 0
M  V30 15188 C 1392.54 -1.85526 0.310105 0
M  V30 15189 O 1391.9 -1.66246 -0.723314 0
M  V30 15190 C 1391.95 -2.37551 2.71296 0
M  V30 15191 O 1391.05 -3.41617 2.31023 0
M  V30 15192 H 1390.39 -0.376116 0.547205 0
M  V30 15193 H 1392.92 -0.589328 1.95929 0
M  V30 15194 H 1392.93 -2.83196 2.93708 0
M  V30 15195 H 1391.61 -1.94697 3.67513 0
M  V30 15196 H 1390.19 -3.01836 2.18974 0
M  V30 15197 N 1392.37 -1.38898 -0.744656 0
M  V30 15198 C 1393.62 -1.35795 -1.50623 0
M  V30 15199 C 1393.95 0.0491775 -1.94138 0
M  V30 15200 O 1393.22 1.01219 -1.66087 0
M  V30 15201 C 1393.51 -2.32168 -2.75263 0
M  V30 15202 C 1393.36 -3.81781 -2.3783 0
M  V30 15203 C 1394.68 -2.26526 -3.77325 0
M  V30 15204 H 1391.8 -0.494591 -0.546396 0
M  V30 15205 H 1394.44 -1.69816 -0.852211 0
M  V30 15206 H 1392.59 -2.03287 -3.31069 0
M  V30 15207 H 1394.26 -4.21373 -1.8773 0
M  V30 15208 H 1392.51 -3.99027 -1.70176 0
M  V30 15209 H 1393.18 -4.44687 -3.27044 0
M  V30 15210 H 1395.65 -2.52041 -3.31081 0
M  V30 15211 H 1394.53 -2.96053 -4.62216 0
M  V30 15212 H 1394.79 -1.26705 -4.23554 0
M  V30 15213 N 1393.85 0.973806 -1.23914 0
M  V30 15214 C 1395.26 1.53057 -1.06913 0
M  V30 15215 C 1395.61 1.92842 0.361423 0
M  V30 15216 O 1394.74 1.76716 1.24901 0
M  V30 15217 C 1395.33 2.78137 -1.93457 0
M  V30 15218 C 1393.89 3.3019 -1.80697 0
M  V30 15219 C 1393.04 2.03137 -1.88761 0
M  V30 15220 H 1395.99 0.792767 -1.37481 0
M  V30 15221 H 1396.01 3.5124 -1.46325 0
M  V30 15222 H 1395.52 2.49149 -2.97568 0
M  V30 15223 H 1393.62 3.64043 -0.793951 0
M  V30 15224 H 1393.73 3.99503 -2.64451 0
M  V30 15225 H 1392.1 2.17572 -1.32418 0
M  V30 15226 H 1392.88 1.76522 -2.9444 0
M  V30 15227 N 1395.33 1.05191 1.17357 0
M  V30 15228 C 1396.6 0.675826 1.83554 0
M  V30 15229 C 1396.98 -0.843812 1.93502 0
M  V30 15230 O 1396.33 -1.74975 1.46956 0
M  V30 15231 C 1396.54 1.36481 3.21207 0
M  V30 15232 C 1397.89 1.50285 3.97114 0
M  V30 15233 O 1398.91 1.32382 3.30686 0
M  V30 15234 O 1397.77 1.79562 5.16159 0
M  V30 15235 H 1394.87 0.237898 0.792044 0
M  V30 15236 H 1397.41 1.1515 1.24654 0
M  V30 15237 H 1396.18 2.40156 3.08935 0
M  V30 15238 H 1395.81 0.878491 3.87774 0
M  V30 15239 N 1396.8 -1.33791 0.83293 0
M  V30 15240 C 1398.05 -1.98266 0.426412 0
M  V30 15241 C 1398.38 -1.65848 -1.01035 0
M  V30 15242 O 1397.66 -0.93528 -1.70537 0
M  V30 15243 C 1397.94 -3.54356 0.640586 0
M  V30 15244 C 1397.79 -3.96482 2.12419 0
M  V30 15245 C 1399.11 -4.40022 0.0829237 0
M  V30 15246 H 1396.23 -0.720213 0.156404 0
M  V30 15247 H 1398.87 -1.58527 1.04735 0
M  V30 15248 H 1397.02 -3.88338 0.11204 0
M  V30 15249 H 1398.7 -3.72786 2.71714 0
M  V30 15250 H 1396.94 -3.46429 2.61092 0
M  V30 15251 H 1397.61 -5.05179 2.22482 0
M  V30 15252 H 1400.09 -4.12651 0.534634 0
M  V30 15253 H 1398.96 -5.48272 0.262511 0
M  V30 15254 H 1399.22 -4.30341 -1.01287 0
M  V30 15255 N 1398.28 -0.588812 -1.46187 0
M  V30 15256 C 1399.69 -0.163897 -1.85979 0
M  V30 15257 C 1400.04 1.27458 -1.49161 0
M  V30 15258 O 1399.17 1.96365 -0.909372 0
M  V30 15259 C 1399.76 -0.29067 -3.37551 0
M  V30 15260 C 1398.32 0.0794165 -3.76316 0
M  V30 15261 C 1397.47 -0.623807 -2.70192 0
M  V30 15262 H 1400.42 -0.79666 -1.37255 0
M  V30 15263 H 1400.44 0.482316 -3.77431 0
M  V30 15264 H 1399.95 -1.33771 -3.64317 0
M  V30 15265 H 1398.06 1.12636 -3.55168 0
M  V30 15266 H 1398.17 -0.301153 -4.78153 0
M  V30 15267 H 1396.53 -0.0634124 -2.54621 0
M  V30 15268 H 1397.32 -1.67261 -2.99797 0
M  V30 15269 N 1399.76 1.54172 -0.326923 0
M  V30 15270 C 1401.17 1.86009 0.160446 0
M  V30 15271 C 1401.52 1.24851 1.51349 0
M  V30 15272 O 1400.65 0.555804 2.09141 0
M  V30 15273 C 1401.24 3.37488 0.297909 0
M  V30 15274 C 1399.8 3.69263 0.7295 0
M  V30 15275 C 1398.95 2.76911 -0.146778 0
M  V30 15276 H 1401.9 1.48972 -0.547093 0
M  V30 15277 H 1401.92 3.63388 1.12825 0
M  V30 15278 H 1401.43 3.81971 -0.687007 0
M  V30 15279 H 1399.53 3.30314 1.72404 0
M  V30 15280 H 1399.65 4.76149 0.53092 0
M  V30 15281 H 1398.01 2.51876 0.378212 0
M  V30 15282 H 1398.79 3.24221 -1.12852 0
M  V30 15283 N 1401.24 0.0551678 1.57503 0
M  V30 15284 C 1402.46 -0.630692 1.97578 0
M  V30 15285 C 1402.89 -1.63348 0.932686 0
M  V30 15286 O 1402.25 -1.81004 -0.103632 0
M  V30 15287 C 1402.29 -1.29049 3.36718 0
M  V30 15288 O 1401.4 -2.40621 3.34926 0
M  V30 15289 H 1400.74 -0.163625 0.643524 0
M  V30 15290 H 1403.27 0.124753 2.04219 0
M  V30 15291 H 1403.28 -1.64124 3.73534 0
M  V30 15292 H 1401.95 -0.55559 4.12172 0
M  V30 15293 H 1400.53 -2.07463 3.0986 0
M  V30 15294 N 1402.72 -1.56081 -0.218252 0
M  V30 15295 C 1403.97 -1.78445 -0.94022 0
M  V30 15296 C 1404.28 -0.624317 -1.85369 0
M  V30 15297 O 1405.48 -0.731669 -2.61455 0
M  V30 15298 C 1403.94 -3.16026 -1.72208 0
M  V30 15299 C 1403.55 -4.39774 -0.854584 0
M  V30 15300 C 1405.29 -3.47714 -2.43506 0
M  V30 15301 C 1403.2 -5.68379 -1.63398 0
M  V30 15302 H 1402.13 -0.665303 -0.354806 0
M  V30 15303 H 1404.78 -1.82471 -0.194021 0
M  V30 15304 H 1403.16 -3.06185 -2.5113 0
M  V30 15305 H 1404.34 -4.60679 -0.105659 0
M  V30 15306 H 1402.65 -4.15627 -0.253562 0
M  V30 15307 H 1405.25 -4.41026 -3.02325 0
M  V30 15308 H 1405.59 -2.70367 -3.16555 0
M  V30 15309 H 1406.12 -3.58899 -1.71571 0
M  V30 15310 H 1402.86 -6.48628 -0.946704 0
M  V30 15311 H 1402.38 -5.5153 -2.35743 0
M  V30 15312 H 1404.06 -6.08672 -2.1938 0
M  V30 15313 N 1404.2 0.485086 -1.49949 0
M  V30 15314 C 1405.15 1.58207 -1.64179 0
M  V30 15315 C 1406.13 1.53037 -0.496844 0
M  V30 15316 O 1407.32 1.60297 -0.750582 0
M  V30 15317 C 1404.45 2.96735 -1.72637 0
M  V30 15318 C 1403.54 3.06841 -2.92762 0
M  V30 15319 N 1403.93 2.86795 -4.16632 0
M  V30 15320 C 1402.23 3.37961 -2.91029 0
M  V30 15321 C 1402.93 3.01502 -4.97465 0
M  V30 15322 N 1401.9 3.31085 -4.31142 0
M  V30 15323 H 1405.7 1.41387 -2.57657 0
M  V30 15324 H 1403.22 0.691542 -1.4694 0
M  V30 15325 H 1405.22 3.75592 -1.80932 0
M  V30 15326 H 1403.88 3.14612 -0.803072 0
M  V30 15327 H 1404.89 2.62653 -4.46356 0
M  V30 15328 H 1401.56 3.61915 -2.08143 0
M  V30 15329 H 1402.95 2.90361 -6.05921 0
M  V30 15330 N 1405.67 1.39291 0.737279 0
M  V30 15331 C 1407.08 1.32489 1.31543 0
M  V30 15332 C 1407.44 -0.0118162 1.96196 0
M  V30 15333 O 1406.56 -0.913938 1.96153 0
M  V30 15334 C 1407.16 2.39946 2.39189 0
M  V30 15335 C 1405.71 2.36671 2.92684 0
M  V30 15336 C 1404.86 2.21953 1.66229 0
M  V30 15337 H 1407.81 1.49412 0.534954 0
M  V30 15338 H 1407.83 2.06603 3.19524 0
M  V30 15339 H 1407.35 3.3722 1.92104 0
M  V30 15340 H 1405.45 1.43028 3.44055 0
M  V30 15341 H 1405.56 3.31441 3.45953 0
M  V30 15342 H 1403.92 1.69087 1.90478 0
M  V30 15343 H 1404.71 3.21194 1.21199 0
M  V30 15344 N 1407.15 -0.967221 1.24429 0
M  V30 15345 C 1408.38 -1.75053 1.11226 0
M  V30 15346 C 1408.8 -1.85162 -0.331139 0
M  V30 15347 O 1408.16 -1.32288 -1.23974 0
M  V30 15348 C 1408.21 -3.14882 1.75733 0
M  V30 15349 O 1407.31 -3.99371 1.02842 0
M  V30 15350 H 1406.65 -0.538078 0.389061 0
M  V30 15351 H 1409.18 -1.21325 1.64746 0
M  V30 15352 H 1409.19 -3.65402 1.81509 0
M  V30 15353 H 1407.87 -3.06839 2.80754 0
M  V30 15354 H 1406.44 -3.57854 1.04856 0
M  V30 15355 N 1408.63 -1.05812 -1.16797 0
M  V30 15356 C 1409.58 -0.664599 -2.21024 0
M  V30 15357 C 1410.55 0.336352 -1.62659 0
M  V30 15358 O 1411.73 0.226346 -1.89453 0
M  V30 15359 C 1408.87 -0.0520739 -3.45061 0
M  V30 15360 C 1407.98 -1.10261 -4.17692 0
M  V30 15361 C 1407.12 -0.456746 -5.29233 0
M  V30 15362 C 1406.16 -1.49116 -5.93659 0
M  V30 15363 N 1405.3 -0.869002 -6.96701 0
M  V30 15364 H 1410.14 -1.55784 -2.54038 0
M  V30 15365 H 1407.67 -0.778993 -1.2478 0
M  V30 15366 H 1409.63 0.320552 -4.15967 0
M  V30 15367 H 1408.26 0.804592 -3.12612 0
M  V30 15368 H 1407.31 -1.593 -3.45438 0
M  V30 15369 H 1408.62 -1.88757 -4.61706 0
M  V30 15370 H 1407.78 -0.0308814 -6.06692 0
M  V30 15371 H 1406.52 0.360131 -4.86369 0
M  V30 15372 H 1405.52 -1.92697 -5.14925 0
M  V30 15373 H 1406.75 -2.31005 -6.38603 0
M  V30 15374 H 1404.69 -0.0727494 -6.5596 0
M  V30 15375 H 1404.61 -1.59141 -7.3906 0
M  V30 15376 H 1405.88 -0.46812 -7.78093 0
M  V30 15377 N 1410.11 1.33347 -0.840014 0
M  V30 15378 C 1411.04 2.28029 -0.231432 0
M  V30 15379 C 1412.05 1.51792 0.588488 0
M  V30 15380 O 1413.24 1.736 0.415371 0
M  V30 15381 C 1410.34 3.31745 0.692721 0
M  V30 15382 C 1409.51 4.37311 -0.0881144 0
M  V30 15383 C 1408.57 5.20689 0.759557 0
M  V30 15384 O 1407.6 5.68854 0.198347 0
M  V30 15385 N 1408.8 5.42082 2.07672 0
M  V30 15386 H 1411.57 2.80893 -1.04495 0
M  V30 15387 H 1409.13 1.46053 -0.698586 0
M  V30 15388 H 1411.12 3.84428 1.2648 0
M  V30 15389 H 1409.69 2.79148 1.40695 0
M  V30 15390 H 1408.91 3.85112 -0.841579 0
M  V30 15391 H 1410.2 5.04947 -0.624986 0
M  V30 15392 H 1409.6 5.04654 2.55619 0
M  V30 15393 H 1408.15 5.97817 2.59726 0
M  V30 15394 N 1411.59 0.596556 1.45873 0
M  V30 15395 C 1412.83 0.0872856 2.01911 0
M  V30 15396 C 1413.15 -1.28257 1.46885 0
M  V30 15397 O 1412.42 -1.84489 0.658837 0
M  V30 15398 H 1411 0.0292769 0.746426 0
M  V30 15399 H 1413.67 0.775464 1.78809 0
M  V30 15400 H 1412.76 0.0287213 3.12087 0
M  V30 15401 N 1413.06 -1.53996 0.335095 0
M  V30 15402 C 1414.29 -2.05657 -0.268328 0
M  V30 15403 C 1414.71 -1.20897 -1.44102 0
M  V30 15404 O 1414.07 -0.220737 -1.79951 0
M  V30 15405 C 1414.12 -3.54331 -0.669481 0
M  V30 15406 O 1413.22 -3.7246 -1.77052 0
M  V30 15407 H 1412.56 -0.662386 -0.0462705 0
M  V30 15408 H 1415.09 -1.98723 0.486854 0
M  V30 15409 H 1415.1 -3.9681 -0.948971 0
M  V30 15410 H 1413.78 -4.15474 0.188168 0
M  V30 15411 H 1412.36 -3.41884 -1.48895 0
M  V30 15412 N 1414.54 -0.0635198 -1.57472 0
M  V30 15413 C 1415.95 0.470372 -1.80678 0
M  V30 15414 C 1416.3 1.70158 -0.976771 0
M  V30 15415 O 1415.43 2.15502 -0.196893 0
M  V30 15416 C 1416.02 0.860129 -3.277 0
M  V30 15417 C 1414.58 1.33893 -3.51781 0
M  V30 15418 C 1413.73 0.320078 -2.75447 0
M  V30 15419 H 1416.68 -0.289295 -1.56041 0
M  V30 15420 H 1416.7 1.72216 -3.39296 0
M  V30 15421 H 1416.21 -0.0361525 -3.88083 0
M  V30 15422 H 1414.31 2.25399 -2.96692 0
M  V30 15423 H 1414.43 1.32257 -4.60483 0
M  V30 15424 H 1412.79 0.795601 -2.41955 0
M  V30 15425 H 1413.57 -0.568332 -3.38563 0
M  V30 15426 N 1416.02 1.56195 0.209972 0
M  V30 15427 C 1417.25 1.8384 0.949228 0
M  V30 15428 C 1417.66 0.644141 1.77472 0
M  V30 15429 O 1417.02 -0.387276 1.78344 0
M  V30 15430 C 1417.07 3.10131 1.85745 0
M  V30 15431 O 1416.79 4.2495 1.06531 0
M  V30 15432 C 1418.29 3.50847 2.70963 0
M  V30 15433 H 1415.51 0.610856 0.277662 0
M  V30 15434 H 1418.06 2.03295 0.221708 0
M  V30 15435 H 1416.21 2.92618 2.53877 0
M  V30 15436 H 1416.63 4.96769 1.68287 0
M  V30 15437 H 1418.1 4.4222 3.30372 0
M  V30 15438 H 1418.58 2.73139 3.43936 0
M  V30 15439 H 1419.18 3.7084 2.08226 0
M  V30 15440 N 1417.5 -0.477127 1.50204 0
M  V30 15441 C 1418.41 -1.60182 1.71403 0
M  V30 15442 C 1419.42 -1.63437 0.597009 0
M  V30 15443 O 1420.6 -1.81418 0.874614 0
M  V30 15444 C 1417.66 -2.96432 1.79802 0
M  V30 15445 C 1416.73 -3.03614 3.03508 0
M  V30 15446 C 1415.96 -4.33365 3.11497 0
M  V30 15447 O 1416.18 -5.23529 2.26438 0
M  V30 15448 O 1415.12 -4.46013 4.04173 0
M  V30 15449 H 1418.94 -1.45221 2.66729 0
M  V30 15450 H 1416.53 -0.655982 1.34228 0
M  V30 15451 H 1418.41 -3.77367 1.87542 0
M  V30 15452 H 1417.08 -3.11605 0.876581 0
M  V30 15453 H 1415.99 -2.21779 3.01272 0
M  V30 15454 H 1417.32 -2.93376 3.95211 0
M  V30 15455 N 1418.98 -1.3968 -0.729882 0
M  V30 15456 C 1419.93 -1.35296 -1.83518 0
M  V30 15457 C 1420.91 -0.232935 -1.59205 0
M  V30 15458 O 1422.1 -0.470887 -1.70621 0
M  V30 15459 C 1419.23 -1.20383 -3.21501 0
M  V30 15460 C 1418.32 -2.37108 -3.51626 0
M  V30 15461 N 1418.71 -3.62585 -3.52655 0
M  V30 15462 C 1417.01 -2.30177 -3.82014 0
M  V30 15463 C 1417.71 -4.39803 -3.8072 0
M  V30 15464 N 1416.68 -3.69456 -3.98752 0
M  V30 15465 H 1420.49 -2.30271 -1.82627 0
M  V30 15466 H 1418 -1.33249 -0.92836 0
M  V30 15467 H 1420 -1.15325 -4.00632 0
M  V30 15468 H 1418.66 -0.263628 -3.23628 0
M  V30 15469 H 1419.67 -3.9594 -3.33845 0
M  V30 15470 H 1416.34 -1.44446 -3.91716 0
M  V30 15471 H 1417.73 -5.4859 -3.87941 0
M  V30 15472 N 1420.45 0.960609 -1.2494 0
M  V30 15473 C 1421.36 2.0902 -1.06527 0
M  V30 15474 C 1422.38 1.74 -0.00406641 0
M  V30 15475 O 1423.56 2.00367 -0.203744 0
M  V30 15476 C 1420.62 3.39971 -0.679736 0
M  V30 15477 C 1419.68 3.88895 -1.81821 0
M  V30 15478 C 1418.92 5.13597 -1.45098 0
M  V30 15479 O 1419.14 5.69362 -0.343954 0
M  V30 15480 O 1418.07 5.57083 -2.27909 0
M  V30 15481 H 1421.9 2.27453 -2.01243 0
M  V30 15482 H 1419.48 1.07429 -1.03824 0
M  V30 15483 H 1421.37 4.18696 -0.47658 0
M  V30 15484 H 1420.04 3.22822 0.238231 0
M  V30 15485 H 1418.95 3.11201 -2.07617 0
M  V30 15486 H 1420.28 4.10533 -2.7152 0
M  V30 15487 N 1421.93 1.0643 1.16234 0
M  V30 15488 C 1423.21 0.695256 1.82827 0
M  V30 15489 C 1423.59 -0.823242 1.94386 0
M  V30 15490 O 1422.94 -1.73406 1.48804 0
M  V30 15491 C 1423.15 1.3988 3.19741 0
M  V30 15492 C 1424.5 1.54489 3.95498 0
M  V30 15493 O 1425.52 1.35882 3.29264 0
M  V30 15494 O 1424.38 1.85027 5.14225 0
M  V30 15495 H 1421.47 0.246285 0.789476 0
M  V30 15496 H 1424.02 1.16466 1.23426 0
M  V30 15497 H 1422.79 2.43419 3.06371 0
M  V30 15498 H 1422.41 0.91957 3.8682 0
M  V30 15499 N 1423.41 -1.329 0.847073 0
M  V30 15500 C 1424.66 -1.97803 0.447417 0
M  V30 15501 C 1424.99 -1.6691 -0.9927 0
M  V30 15502 O 1424.26 -0.953315 -1.69535 0
M  V30 15503 C 1424.55 -3.53657 0.678135 0
M  V30 15504 C 1424.4 -3.94207 2.16612 0
M  V30 15505 C 1425.72 -4.39909 0.129589 0
M  V30 15506 H 1422.84 -0.718514 0.164034 0
M  V30 15507 H 1425.48 -1.57407 1.0641 0
M  V30 15508 H 1423.63 -3.88198 0.153222 0
M  V30 15509 H 1425.3 -3.69883 2.75653 0
M  V30 15510 H 1423.55 -3.43641 2.64752 0
M  V30 15511 H 1424.22 -5.02791 2.27827 0
M  V30 15512 H 1426.69 -4.12061 0.578371 0
M  V30 15513 H 1425.57 -5.47963 0.320648 0
M  V30 15514 H 1425.83 -4.31391 -0.967167 0
M  V30 15515 N 1424.89 -0.604284 -1.45555 0
M  V30 15516 C 1426.12 -0.104452 -2.06636 0
M  V30 15517 C 1426.53 1.20976 -1.44949 0
M  V30 15518 O 1425.89 1.73616 -0.562468 0
M  V30 15519 C 1425.94 0.0451646 -3.61472 0
M  V30 15520 O 1425.66 -1.21705 -4.20856 0
M  V30 15521 C 1427.16 0.57684 -4.39531 0
M  V30 15522 H 1424.38 -0.067326 -0.667614 0
M  V30 15523 H 1426.93 -0.831079 -1.86851 0
M  V30 15524 H 1425.08 0.722104 -3.80611 0
M  V30 15525 H 1425.49 -1.04462 -5.13992 0
M  V30 15526 H 1426.97 0.630627 -5.48386 0
M  V30 15527 H 1427.45 1.59842 -4.09081 0
M  V30 15528 H 1428.05 -0.0659444 -4.25249 0
M  V30 15529 N 1426.37 1.53816 -0.343257 0
M  V30 15530 C 1427.61 2.01207 0.253721 0
M  V30 15531 C 1427.95 1.23069 1.50225 0
M  V30 15532 O 1427.22 0.31824 1.91879 0
M  V30 15533 C 1427.5 3.5559 0.56815 0
M  V30 15534 C 1427.36 4.44438 -0.692457 0
M  V30 15535 C 1428.68 4.17974 1.37788 0
M  V30 15536 H 1425.79 0.731392 0.0907427 0
M  V30 15537 H 1428.44 1.84254 -0.463736 0
M  V30 15538 H 1426.59 3.70166 1.17937 0
M  V30 15539 H 1428.26 4.41698 -1.33042 0
M  V30 15540 H 1426.5 4.13312 -1.3174 0
M  V30 15541 H 1427.17 5.5034 -0.427715 0
M  V30 15542 H 1429.65 4.07094 0.861043 0
M  V30 15543 H 1428.52 5.26068 1.56663 0
M  V30 15544 H 1428.79 3.72577 2.3799 0
M  V30 15545 N 1427.84 0.0718701 1.57436 0
M  V30 15546 C 1428.78 -0.931304 2.08331 0
M  V30 15547 C 1429.76 -1.29106 0.988448 0
M  V30 15548 O 1430.94 -1.40035 1.26184 0
M  V30 15549 C 1428.07 -2.23939 2.54104 0
M  V30 15550 C 1427.11 -2.03119 3.75026 0
M  V30 15551 S 1427.95 -1.29048 5.19718 0
M  V30 15552 C 1429.1 -2.61136 5.68822 0
M  V30 15553 H 1429.33 -0.498236 2.93095 0
M  V30 15554 H 1426.87 -0.140897 1.53756 0
M  V30 15555 H 1428.83 -2.9912 2.81136 0
M  V30 15556 H 1427.49 -2.64371 1.69608 0
M  V30 15557 H 1426.68 -2.99927 4.05043 0
M  V30 15558 H 1426.28 -1.36074 3.48367 0
M  V30 15559 H 1428.57 -3.57224 5.75671 0
M  V30 15560 H 1429.52 -2.35729 6.67711 0
M  V30 15561 H 1429.92 -2.68345 4.9664 0
M  V30 15562 N 1429.32 -1.56304 -0.201686 0
M  V30 15563 C 1430.6 -1.71059 -0.948595 0
M  V30 15564 C 1430.98 -0.624794 -2.01642 0
M  V30 15565 O 1430.33 0.365235 -2.25562 0
M  V30 15566 C 1430.54 -3.13136 -1.54101 0
M  V30 15567 C 1431.89 -3.73165 -2.02567 0
M  V30 15568 O 1432.91 -3.16223 -1.63956 0
M  V30 15569 O 1431.77 -4.73084 -2.73594 0
M  V30 15570 H 1428.86 -0.697443 -0.444412 0
M  V30 15571 H 1431.41 -1.68611 -0.191901 0
M  V30 15572 H 1430.18 -3.8363 -0.770968 0
M  V30 15573 H 1429.8 -3.19784 -2.36271 0
M  V30 15574 N 1430.8 0.469154 -1.50455 0
M  V30 15575 C 1432.03 1.24432 -1.653 0
M  V30 15576 C 1432.44 1.85766 -0.33713 0
M  V30 15577 O 1431.8 1.69313 0.681118 0
M  V30 15578 C 1431.85 2.35163 -2.74555 0
M  V30 15579 O 1431.57 1.76344 -4.01042 0
M  V30 15580 C 1433.07 3.26006 -3.00391 0
M  V30 15581 H 1430.29 0.376251 -0.555587 0
M  V30 15582 H 1432.84 0.559777 -1.96689 0
M  V30 15583 H 1430.99 2.99389 -2.45855 0
M  V30 15584 H 1431.41 2.49278 -4.61477 0
M  V30 15585 H 1432.88 3.99909 -3.80496 0
M  V30 15586 H 1433.36 3.84901 -2.11537 0
M  V30 15587 H 1433.96 2.67515 -3.3063 0
M  V30 15588 N 1432.28 1.40065 0.722464 0
M  V30 15589 C 1433.23 1.39784 1.83655 0
M  V30 15590 C 1434.2 0.255743 1.64119 0
M  V30 15591 O 1435.38 0.452766 1.8535 0
M  V30 15592 C 1432.52 1.25946 3.21297 0
M  V30 15593 C 1431.63 2.49805 3.52451 0
M  V30 15594 C 1430.77 2.2846 4.79562 0
M  V30 15595 C 1429.81 3.4793 5.03598 0
M  V30 15596 N 1428.94 3.25823 6.21919 0
M  V30 15597 H 1433.78 2.35013 1.83229 0
M  V30 15598 H 1431.32 1.16728 0.895154 0
M  V30 15599 H 1433.28 1.15931 4.00769 0
M  V30 15600 H 1431.91 0.343402 3.20968 0
M  V30 15601 H 1430.96 2.70375 2.67585 0
M  V30 15602 H 1432.27 3.38753 3.66126 0
M  V30 15603 H 1431.43 2.15758 5.67039 0
M  V30 15604 H 1430.17 1.36926 4.68084 0
M  V30 15605 H 1429.17 3.61116 4.14579 0
M  V30 15606 H 1430.4 4.40382 5.16953 0
M  V30 15607 H 1428.34 2.36965 6.11705 0
M  V30 15608 H 1428.26 4.08333 6.36239 0
M  V30 15609 H 1429.53 3.16841 7.12202 0
M  V30 15610 N 1433.76 -0.95397 1.25448 0
M  V30 15611 C 1434.69 -2.06828 1.08372 0
M  V30 15612 C 1435.67 -1.70098 -0.00741585 0
M  V30 15613 O 1436.85 -1.93521 0.16224 0
M  V30 15614 C 1433.98 -3.40124 0.702365 0
M  V30 15615 C 1432.94 -3.90865 1.74381 0
M  V30 15616 C 1432.26 -5.20663 1.21712 0
M  V30 15617 C 1433.56 -4.17169 3.14273 0
M  V30 15618 H 1435.26 -2.21372 2.01581 0
M  V30 15619 H 1432.8 -1.06374 0.970592 0
M  V30 15620 H 1434.76 -4.17529 0.569837 0
M  V30 15621 H 1433.48 -3.2552 -0.265428 0
M  V30 15622 H 1432.14 -3.15628 1.86479 0
M  V30 15623 H 1431.79 -5.02429 0.23954 0
M  V30 15624 H 1431.49 -5.55581 1.91319 0
M  V30 15625 H 1433.01 -6.00665 1.097 0
M  V30 15626 H 1434.43 -4.85231 3.05325 0
M  V30 15627 H 1432.82 -4.63344 3.81356 0
M  V30 15628 H 1433.89 -3.23421 3.61285 0
M  V30 15629 N 1435.24 -1.07045 -1.15668 0
M  V30 15630 C 1436.18 -0.688004 -2.20307 0
M  V30 15631 C 1437.15 0.319081 -1.63006 0
M  V30 15632 O 1438.34 0.206239 -1.89682 0
M  V30 15633 C 1435.48 -0.0886692 -3.44986 0
M  V30 15634 C 1434.59 -1.14685 -4.16499 0
M  V30 15635 C 1433.73 -0.512852 -5.28719 0
M  V30 15636 C 1432.76 -1.55404 -5.92044 0
M  V30 15637 N 1431.9 -0.942848 -6.9574 0
M  V30 15638 H 1436.74 -1.58469 -2.52372 0
M  V30 15639 H 1434.28 -0.792184 -1.23947 0
M  V30 15640 H 1436.24 0.276415 -4.16283 0
M  V30 15641 H 1434.87 0.77139 -3.13448 0
M  V30 15642 H 1433.92 -1.62955 -3.43729 0
M  V30 15643 H 1435.23 -1.93643 -4.59678 0
M  V30 15644 H 1434.38 -0.0952274 -6.06625 0
M  V30 15645 H 1433.12 0.308524 -4.86723 0
M  V30 15646 H 1432.13 -1.98148 -5.12852 0
M  V30 15647 H 1433.35 -2.37765 -6.36117 0
M  V30 15648 H 1431.3 -0.142319 -6.55846 0
M  V30 15649 H 1431.22 -1.6697 -7.37331 0
M  V30 15650 H 1432.48 -0.550621 -7.77553 0
M  V30 15651 N 1436.71 1.32449 -0.85411 0
M  V30 15652 C 1437.96 1.96537 -0.453451 0
M  V30 15653 C 1438.28 1.68344 0.995982 0
M  V30 15654 O 1439.48 2.26166 1.50204 0
M  V30 15655 C 1437.94 3.51785 -0.759934 0
M  V30 15656 C 1437.55 3.88838 -2.22506 0
M  V30 15657 C 1439.29 4.22347 -0.426973 0
M  V30 15658 C 1437.2 5.37129 -2.47479 0
M  V30 15659 H 1436.13 0.735537 -0.165835 0
M  V30 15660 H 1438.78 1.50851 -1.04481 0
M  V30 15661 H 1437.16 3.95879 -0.0980116 0
M  V30 15662 H 1438.33 3.55756 -2.92873 0
M  V30 15663 H 1436.65 3.31299 -2.52249 0
M  V30 15664 H 1439.25 5.31424 -0.590986 0
M  V30 15665 H 1439.59 4.11485 0.631359 0
M  V30 15666 H 1440.12 3.83835 -1.04477 0
M  V30 15667 H 1436.86 5.53012 -3.51935 0
M  V30 15668 H 1436.38 5.71619 -1.8169 0
M  V30 15669 H 1438.06 6.04204 -2.31401 0
M  V30 15670 N 1438.19 0.611994 1.45232 0
M  V30 15671 C 1439.44 0.106467 2.01419 0
M  V30 15672 C 1439.75 -1.2723 1.48566 0
M  V30 15673 O 1440.96 -1.8708 1.96757 0
M  V30 15674 C 1439.42 0.139639 3.59629 0
M  V30 15675 C 1439.02 1.51853 4.21479 0
M  V30 15676 C 1440.77 -0.310417 4.23364 0
M  V30 15677 C 1438.67 1.50785 5.71855 0
M  V30 15678 H 1437.6 0.0360345 0.753138 0
M  V30 15679 H 1440.26 0.767974 1.66657 0
M  V30 15680 H 1438.64 -0.588606 3.91601 0
M  V30 15681 H 1439.81 2.26884 4.01074 0
M  V30 15682 H 1438.13 1.91105 3.69956 0
M  V30 15683 H 1440.72 -0.337656 5.33633 0
M  V30 15684 H 1441.07 -1.33398 3.94348 0
M  V30 15685 H 1441.6 0.364704 3.96125 0
M  V30 15686 H 1438.34 2.50916 6.05575 0
M  V30 15687 H 1437.86 0.800195 5.94438 0
M  V30 15688 H 1439.54 1.23341 6.35135 0
M  V30 15689 N 1439.67 -1.53632 0.351409 0
M  V30 15690 C 1440.58 -2.2899 -0.509985 0
M  V30 15691 C 1441.6 -1.34403 -1.10507 0
M  V30 15692 O 1442.77 -1.67448 -1.11906 0
M  V30 15693 C 1439.84 -3.05392 -1.64124 0
M  V30 15694 C 1438.9 -4.15619 -1.07514 0
M  V30 15695 C 1438.13 -4.88369 -2.15248 0
M  V30 15696 O 1438.35 -4.60854 -3.3611 0
M  V30 15697 O 1437.29 -5.74636 -1.79101 0
M  V30 15698 H 1441.11 -3.03526 0.10283 0
M  V30 15699 H 1438.7 -1.48947 0.116214 0
M  V30 15700 H 1440.58 -3.53146 -2.29926 0
M  V30 15701 H 1439.26 -2.33705 -2.23972 0
M  V30 15702 H 1438.16 -3.7215 -0.381421 0
M  V30 15703 H 1439.5 -4.8943 -0.521413 0
M  V30 15704 N 1441.15 -0.0802183 -1.57396 0
M  V30 15705 C 1442.4 0.586573 -1.92982 0
M  V30 15706 C 1442.71 1.70256 -0.962918 0
M  V30 15707 O 1443.92 2.4295 -1.21193 0
M  V30 15708 C 1442.37 1.09475 -3.42846 0
M  V30 15709 C 1441.98 0.0093098 -4.47999 0
M  V30 15710 C 1443.72 1.73512 -3.87419 0
M  V30 15711 C 1441.63 0.532002 -5.89002 0
M  V30 15712 H 1440.56 0.222878 -0.720306 0
M  V30 15713 H 1443.21 -0.153816 -1.82854 0
M  V30 15714 H 1441.59 1.88836 -3.48076 0
M  V30 15715 H 1442.77 -0.765609 -4.54395 0
M  V30 15716 H 1441.08 -0.535345 -4.12944 0
M  V30 15717 H 1443.68 2.13665 -4.90154 0
M  V30 15718 H 1444.02 2.59845 -3.25248 0
M  V30 15719 H 1444.56 1.00758 -3.84828 0
M  V30 15720 H 1441.29 -0.294364 -6.54839 0
M  V30 15721 H 1440.81 1.27425 -5.86108 0
M  V30 15722 H 1442.49 1.00573 -6.39135 0
M  V30 15723 N 1442.63 1.56409 0.193394 0
M  V30 15724 C 1443.56 1.97707 1.24234 0
M  V30 15725 C 1444.54 0.849286 1.47381 0
M  V30 15726 O 1445.72 1.11374 1.59089 0
M  V30 15727 C 1442.85 2.31804 2.5862 0
M  V30 15728 C 1441.81 3.47337 2.50082 0
M  V30 15729 C 1441.13 3.67114 3.88756 0
M  V30 15730 C 1442.43 4.81472 2.02441 0
M  V30 15731 H 1444.13 2.8558 0.89914 0
M  V30 15732 H 1441.67 1.37396 0.431078 0
M  V30 15733 H 1443.62 2.5929 3.32185 0
M  V30 15734 H 1442.35 1.40816 2.94684 0
M  V30 15735 H 1441.01 3.19944 1.78973 0
M  V30 15736 H 1440.66 2.73454 4.22175 0
M  V30 15737 H 1440.36 4.44838 3.83918 0
M  V30 15738 H 1441.88 3.96978 4.6394 0
M  V30 15739 H 1443.29 5.07978 2.65766 0
M  V30 15740 H 1441.69 5.62677 2.08601 0
M  V30 15741 H 1442.76 4.74941 0.977704 0
M  V30 15742 N 1444.1 -0.461169 1.50702 0
M  V30 15743 C 1445.04 -1.57562 1.66453 0
M  V30 15744 C 1446.05 -1.53381 0.545726 0
M  V30 15745 O 1447.24 -1.58589 0.819254 0
M  V30 15746 C 1444.34 -2.9646 1.64209 0
M  V30 15747 C 1443.51 -3.25405 2.92285 0
M  V30 15748 C 1442.57 -4.43906 2.82549 0
M  V30 15749 O 1441.6 -4.43726 3.56505 0
M  V30 15750 N 1442.8 -5.46131 1.96777 0
M  V30 15751 H 1445.56 -1.44463 2.62584 0
M  V30 15752 H 1443.12 -0.649749 1.4829 0
M  V30 15753 H 1445.12 -3.73719 1.55295 0
M  V30 15754 H 1443.69 -3.03278 0.757718 0
M  V30 15755 H 1442.91 -2.36666 3.1525 0
M  V30 15756 H 1444.19 -3.41559 3.77114 0
M  V30 15757 H 1443.59 -5.49103 1.36023 0
M  V30 15758 H 1442.15 -6.22335 1.9376 0
M  V30 15759 N 1445.58 -1.40446 -0.715026 0
M  V30 15760 C 1446.83 -1.38754 -1.47491 0
M  V30 15761 C 1447.16 0.0099443 -1.94497 0
M  V30 15762 O 1446.41 0.99458 -1.68543 0
M  V30 15763 C 1446.71 -2.32392 -2.7153 0
M  V30 15764 C 1446.38 -3.79635 -2.43286 0
M  V30 15765 C 1445.04 -4.19751 -2.35293 0
M  V30 15766 C 1447.39 -4.72681 -2.19596 0
M  V30 15767 C 1444.72 -5.50947 -2.01679 0
M  V30 15768 C 1447.07 -6.04176 -1.87495 0
M  V30 15769 C 1445.73 -6.43333 -1.77985 0
M  V30 15770 H 1445 -0.507738 -0.539706 0
M  V30 15771 H 1447.65 -1.73104 -0.81898 0
M  V30 15772 H 1445.96 -1.91229 -3.41963 0
M  V30 15773 H 1447.65 -2.28366 -3.29621 0
M  V30 15774 H 1444.24 -3.47852 -2.50393 0
M  V30 15775 H 1448.43 -4.42506 -2.24727 0
M  V30 15776 H 1443.68 -5.80187 -1.92854 0
M  V30 15777 H 1447.86 -6.75788 -1.68179 0
M  V30 15778 H 1445.48 -7.44909 -1.51706 0
M  V30 15779 N 1447.06 0.947303 -1.25952 0
M  V30 15780 C 1448.31 1.68721 -1.10527 0
M  V30 15781 C 1448.62 1.92403 0.352215 0
M  V30 15782 O 1449.83 2.6416 0.627036 0
M  V30 15783 C 1448.28 3.03785 -1.92983 0
M  V30 15784 C 1447.89 2.87873 -3.43268 0
M  V30 15785 C 1449.64 3.81509 -1.86149 0
M  V30 15786 C 1447.54 4.18373 -4.17993 0
M  V30 15787 H 1446.47 0.632774 -0.410016 0
M  V30 15788 H 1449.12 1.054 -1.5021 0
M  V30 15789 H 1447.51 3.68052 -1.46128 0
M  V30 15790 H 1448.68 2.32493 -3.97848 0
M  V30 15791 H 1446.99 2.23598 -3.51273 0
M  V30 15792 H 1449.59 4.78179 -2.39267 0
M  V30 15793 H 1449.93 4.07923 -0.83091 0
M  V30 15794 H 1450.47 3.24005 -2.30794 0
M  V30 15795 H 1447.21 3.97145 -5.21494 0
M  V30 15796 H 1446.73 4.7349 -3.68194 0
M  V30 15797 H 1448.41 4.86869 -4.26108 0
M  V30 15798 N 1448.54 1.07657 1.15099 0
M  V30 15799 C 1449.47 0.721201 2.22083 0
M  V30 15800 C 1450.45 -0.292808 1.67561 0
M  V30 15801 O 1451.63 -0.164872 1.93499 0
M  V30 15802 C 1448.76 0.12153 3.47087 0
M  V30 15803 C 1447.72 1.06303 4.14588 0
M  V30 15804 C 1447.04 0.325964 5.33706 0
M  V30 15805 C 1448.34 2.39796 4.63999 0
M  V30 15806 H 1450.04 1.61566 2.52065 0
M  V30 15807 H 1447.58 0.778282 1.21156 0
M  V30 15808 H 1449.54 -0.139037 4.21171 0
M  V30 15809 H 1448.26 -0.808022 3.16447 0
M  V30 15810 H 1446.92 1.30858 3.4245 0
M  V30 15811 H 1446.57 -0.607147 4.99322 0
M  V30 15812 H 1446.27 0.953552 5.79811 0
M  V30 15813 H 1447.79 0.0732695 6.10556 0
M  V30 15814 H 1449.21 2.19552 5.29594 0
M  V30 15815 H 1447.6 2.98178 5.20778 0
M  V30 15816 H 1448.67 3.01876 3.79472 0
M  V30 15817 N 1450.02 -1.31994 0.861122 0
M  V30 15818 C 1451.24 -2.01745 0.481013 0
M  V30 15819 C 1451.67 -1.6426 -0.916527 0
M  V30 15820 O 1451.02 -0.846603 -1.60319 0
M  V30 15821 C 1451.07 -3.54963 0.635134 0
M  V30 15822 O 1450.18 -4.11083 -0.329337 0
M  V30 15823 H 1449.52 -0.635499 0.192452 0
M  V30 15824 H 1452.05 -1.68394 1.1621 0
M  V30 15825 H 1452.06 -4.04607 0.525089 0
M  V30 15826 H 1450.73 -3.81587 1.65422 0
M  V30 15827 H 1449.31 -3.72489 -0.174989 0
M  V30 15828 N 1451.49 -0.619688 -1.44906 0
M  V30 15829 C 1452.74 -0.11981 -2.02446 0
M  V30 15830 C 1453.07 1.2509 -1.48546 0
M  V30 15831 O 1452.35 1.82781 -0.664942 0
M  V30 15832 C 1452.63 -0.0940205 -3.59977 0
M  V30 15833 C 1452.48 -1.49626 -4.24184 0
M  V30 15834 C 1453.8 0.58748 -4.36161 0
M  V30 15835 H 1450.92 -0.0450119 -0.735624 0
M  V30 15836 H 1453.56 -0.793975 -1.72615 0
M  V30 15837 H 1451.71 0.480073 -3.85522 0
M  V30 15838 H 1453.39 -2.11836 -4.09784 0
M  V30 15839 H 1451.63 -2.05348 -3.82119 0
M  V30 15840 H 1452.3 -1.43035 -5.33146 0
M  V30 15841 H 1454.78 0.0993863 -4.15981 0
M  V30 15842 H 1453.65 0.574672 -5.45883 0
M  V30 15843 H 1453.91 1.65579 -4.09922 0
M  V30 15844 N 1452.97 1.53444 -0.359552 0
M  V30 15845 C 1454.39 1.59598 -0.00824946 0
M  V30 15846 C 1454.59 1.37492 1.47303 0
M  V30 15847 O 1453.64 1.1771 2.23385 0
M  V30 15848 C 1454.96 2.9718 -0.45878 0
M  V30 15849 C 1456.51 3.1027 -0.412485 0
M  V30 15850 C 1456.98 4.50255 -0.838733 0
M  V30 15851 N 1458.47 4.56352 -0.793552 0
M  V30 15852 C 1459.21 5.62845 -1.09513 0
M  V30 15853 N 1458.7 6.77119 -1.46567 0
M  V30 15854 N 1460.5 5.52799 -1.01832 0
M  V30 15855 H 1452.65 1.66065 -1.32424 0
M  V30 15856 H 1454.91 0.778561 -0.540876 0
M  V30 15857 H 1454.62 3.18475 -1.4922 0
M  V30 15858 H 1454.49 3.7687 0.157741 0
M  V30 15859 H 1456.88 2.88689 0.611791 0
M  V30 15860 H 1456.96 2.32602 -1.06442 0
M  V30 15861 H 1456.6 4.72573 -1.8611 0
M  V30 15862 H 1456.53 5.26344 -0.164109 0
M  V30 15863 H 1459.02 3.74299 -0.52048 0
M  V30 15864 H 1459.34 7.54313 -1.68021 0
M  V30 15865 H 1457.68 6.78525 -1.50427 0
M  V30 15866 H 1460.87 4.62403 -0.728059 0
M  V30 15867 H 1461.04 6.35698 -1.25668 0
M  V30 15868 N 1454.45 0.0885642 1.57351 0
M  V30 15869 C 1455.38 -0.869946 2.16689 0
M  V30 15870 C 1456.36 -1.29878 1.09844 0
M  V30 15871 O 1457.55 -1.36684 1.37954 0
M  V30 15872 C 1454.68 -2.13148 2.74199 0
M  V30 15873 C 1453.63 -1.84149 3.86359 0
M  V30 15874 C 1452.96 -3.17075 4.30543 0
M  V30 15875 C 1454.26 -1.13357 5.09851 0
M  V30 15876 H 1455.95 -0.375578 2.97035 0
M  V30 15877 H 1453.5 -0.17921 1.42881 0
M  V30 15878 H 1455.45 -2.80634 3.14361 0
M  V30 15879 H 1454.17 -2.64856 1.91098 0
M  V30 15880 H 1452.83 -1.19063 3.46727 0
M  V30 15881 H 1452.48 -3.66658 3.44342 0
M  V30 15882 H 1452.18 -2.98457 5.06159 0
M  V30 15883 H 1453.7 -3.85731 4.73333 0
M  V30 15884 H 1455.12 -1.70941 5.47222 0
M  V30 15885 H 1453.52 -1.0494 5.90853 0
M  V30 15886 H 1454.59 -0.115273 4.84763 0
M  V30 15887 N 1455.93 -1.56509 -0.185096 0
M  V30 15888 C 1457.21 -1.72055 -0.930398 0
M  V30 15889 C 1457.59 -0.646145 -2.00968 0
M  V30 15890 O 1456.93 0.34129 -2.25937 0
M  V30 15891 C 1457.14 -3.14752 -1.50771 0
M  V30 15892 C 1458.49 -3.75292 -1.98597 0
M  V30 15893 O 1459.52 -3.17944 -1.60593 0
M  V30 15894 O 1458.37 -4.7596 -2.68561 0
M  V30 15895 H 1455.47 -0.702118 -0.436989 0
M  V30 15896 H 1458.01 -1.68806 -0.174007 0
M  V30 15897 H 1456.79 -3.84426 -0.730236 0
M  V30 15898 H 1456.41 -3.22272 -2.32866 0
M  V30 15899 N 1457.41 0.45317 -1.50944 0
M  V30 15900 C 1458.64 1.22494 -1.66369 0
M  V30 15901 C 1459.04 1.85862 -0.353854 0
M  V30 15902 O 1458.39 1.70808 0.676031 0
M  V30 15903 C 1458.45 2.36145 -2.71064 0
M  V30 15904 C 1458.11 1.93273 -4.14119 0
M  V30 15905 C 1459.11 1.44508 -4.99413 0
M  V30 15906 C 1456.8 2.01447 -4.60135 0
M  V30 15907 C 1458.79 1.04482 -6.28778 0
M  V30 15908 C 1456.48 1.61033 -5.89501 0
M  V30 15909 C 1457.47 1.1263 -6.73649 0
M  V30 15910 O 1457.16 0.727835 -8.00598 0
M  V30 15911 H 1456.89 0.37591 -0.561843 0
M  V30 15912 H 1459.45 0.545218 -1.98032 0
M  V30 15913 H 1457.68 3.07345 -2.34682 0
M  V30 15914 H 1459.37 2.9806 -2.75527 0
M  V30 15915 H 1460.13 1.376 -4.65071 0
M  V30 15916 H 1456.01 2.38068 -3.94771 0
M  V30 15917 H 1459.56 0.666322 -6.9441 0
M  V30 15918 H 1455.45 1.67606 -6.23361 0
M  V30 15919 H 1456.22 0.855097 -8.14021 0
M  V30 15920 N 1458.88 1.40823 0.707568 0
M  V30 15921 C 1460.3 1.23029 1.01666 0
M  V30 15922 C 1460.5 0.111152 2.01193 0
M  V30 15923 O 1459.56 -0.52836 2.4691 0
M  V30 15924 C 1460.87 2.57509 1.55272 0
M  V30 15925 C 1462.42 2.6459 1.67216 0
M  V30 15926 C 1462.89 3.99357 2.24227 0
M  V30 15927 N 1464.38 4.01141 2.31603 0
M  V30 15928 C 1465.12 5.02211 2.76715 0
M  V30 15929 N 1464.61 6.13674 3.21521 0
M  V30 15930 N 1466.41 4.89577 2.76172 0
M  V30 15931 H 1458.56 2.12346 0.0480107 0
M  V30 15932 H 1460.82 0.944281 0.0838885 0
M  V30 15933 H 1460.53 3.40095 0.896012 0
M  V30 15934 H 1460.4 2.79158 2.53674 0
M  V30 15935 H 1462.79 1.8237 2.32002 0
M  V30 15936 H 1462.87 2.46763 0.673927 0
M  V30 15937 H 1462.51 4.8202 1.6006 0
M  V30 15938 H 1462.44 4.14518 3.2478 0
M  V30 15939 H 1464.93 3.20657 1.99968 0
M  V30 15940 H 1465.25 6.86677 3.54534 0
M  V30 15941 H 1463.59 6.17228 3.1946 0
M  V30 15942 H 1466.78 4.01588 2.40509 0
M  V30 15943 H 1466.96 5.68485 3.11012 0
M  V30 15944 N 1460.36 -0.94061 1.26453 0
M  V30 15945 C 1461.61 -1.68132 1.1142 0
M  V30 15946 C 1461.92 -1.92587 -0.342006 0
M  V30 15947 O 1463.13 -2.64489 -0.613018 0
M  V30 15948 C 1461.59 -3.02758 1.94591 0
M  V30 15949 C 1461.19 -2.86049 3.4479 0
M  V30 15950 C 1462.94 -3.80516 1.88169 0
M  V30 15951 C 1460.85 -4.1615 4.20206 0
M  V30 15952 H 1459.78 -0.630591 0.413366 0
M  V30 15953 H 1462.43 -1.04602 1.50767 0
M  V30 15954 H 1460.81 -3.67272 1.48078 0
M  V30 15955 H 1461.98 -2.3038 3.99076 0
M  V30 15956 H 1460.3 -2.21732 3.52454 0
M  V30 15957 H 1462.89 -4.76904 2.41799 0
M  V30 15958 H 1463.24 -4.07477 0.852531 0
M  V30 15959 H 1463.77 -3.22776 2.32509 0
M  V30 15960 H 1460.51 -3.94373 5.23593 0
M  V30 15961 H 1460.03 -4.71531 3.707 0
M  V30 15962 H 1461.71 -4.84602 4.28684 0
M  V30 15963 N 1461.84 -1.08266 -1.14527 0
M  V30 15964 C 1463.07 -0.832994 -1.89937 0
M  V30 15965 C 1463.49 0.608985 -1.77969 0
M  V30 15966 O 1462.85 1.42657 -1.11887 0
M  V30 15967 C 1462.9 -1.25782 -3.37952 0
M  V30 15968 O 1462 -0.408853 -4.10368 0
M  V30 15969 H 1461.34 -0.30267 -0.591005 0
M  V30 15970 H 1463.87 -1.44371 -1.44977 0
M  V30 15971 H 1463.88 -1.23804 -3.88763 0
M  V30 15972 H 1462.56 -2.30804 -3.4598 0
M  V30 15973 H 1461.13 -0.49192 -3.69641 0
M  V30 15974 N 1463.32 1.31536 -0.86811 0
M  V30 15975 C 1464.55 2.00661 -0.491815 0
M  V30 15976 C 1464.96 1.65341 0.919733 0
M  V30 15977 O 1464.3 0.87773 1.61374 0
M  V30 15978 C 1464.36 3.55002 -0.566926 0
M  V30 15979 C 1464.03 4.1379 -1.93976 0
M  V30 15980 C 1465.02 4.31032 -2.90702 0
M  V30 15981 C 1462.71 4.4956 -2.24056 0
M  V30 15982 C 1464.7 4.8323 -4.15653 0
M  V30 15983 C 1462.39 5.01461 -3.49257 0
M  V30 15984 C 1463.39 5.18246 -4.44871 0
M  V30 15985 O 1463.08 5.69033 -5.67852 0
M  V30 15986 H 1462.81 0.648663 -0.190296 0
M  V30 15987 H 1465.36 1.68783 -1.17053 0
M  V30 15988 H 1463.59 3.86332 0.168704 0
M  V30 15989 H 1465.28 4.05385 -0.204323 0
M  V30 15990 H 1466.05 4.03717 -2.6877 0
M  V30 15991 H 1461.93 4.35772 -1.50412 0
M  V30 15992 H 1465.47 4.96247 -4.9029 0
M  V30 15993 H 1461.37 5.28209 -3.71033 0
M  V30 15994 H 1462.13 5.87405 -5.69998 0
M  V30 15995 N 1464.8 0.627364 1.44575 0
M  V30 15996 C 1465.73 -0.129056 2.27835 0
M  V30 15997 C 1466.71 -0.854852 1.38315 0
M  V30 15998 O 1467.89 -0.859709 1.67754 0
M  V30 15999 C 1465.02 -1.18866 3.17157 0
M  V30 16000 C 1464.07 -0.563816 4.22757 0
M  V30 16001 S 1464.9 0.643269 5.31622 0
M  V30 16002 C 1466.05 -0.416443 6.24513 0
M  V30 16003 H 1466.29 0.577281 2.91641 0
M  V30 16004 H 1463.82 0.415427 1.48706 0
M  V30 16005 H 1465.78 -1.79508 3.69171 0
M  V30 16006 H 1464.44 -1.86717 2.52578 0
M  V30 16007 H 1463.63 -1.36173 4.85256 0
M  V30 16008 H 1463.23 -0.0321045 3.73986 0
M  V30 16009 H 1465.53 -1.29006 6.65104 0
M  V30 16010 H 1466.47 0.172871 7.07889 0
M  V30 16011 H 1466.88 -0.740651 5.5962 0
M  V30 16012 N 1466.28 -1.53251 0.367684 0
M  V30 16013 C 1467.21 -2.28728 -0.469676 0
M  V30 16014 C 1468.19 -1.3124 -1.08213 0
M  V30 16015 O 1469.37 -1.60112 -1.09898 0
M  V30 16016 C 1466.5 -3.07808 -1.60846 0
M  V30 16017 C 1465.46 -4.13 -1.12315 0
M  V30 16018 C 1464.78 -4.80176 -2.35234 0
M  V30 16019 C 1466.08 -5.21892 -0.2064 0
M  V30 16020 H 1467.78 -2.98972 0.160019 0
M  V30 16021 H 1465.32 -1.43786 0.0784011 0
M  V30 16022 H 1467.27 -3.59358 -2.20091 0
M  V30 16023 H 1466 -2.35258 -2.26542 0
M  V30 16024 H 1464.66 -3.62399 -0.553378 0
M  V30 16025 H 1464.31 -4.04196 -2.99391 0
M  V30 16026 H 1464.01 -5.51261 -2.03433 0
M  V30 16027 H 1465.53 -5.34521 -2.9516 0
M  V30 16028 H 1466.94 -5.68932 -0.706386 0
M  V30 16029 H 1465.34 -6.00096 0.0208362 0
M  V30 16030 H 1466.41 -4.79051 0.750851 0
M  V30 16031 N 1467.75 -0.0969077 -1.57302 0
M  V30 16032 C 1468.98 0.578086 -1.99181 0
M  V30 16033 C 1469.4 1.60818 -0.975667 0
M  V30 16034 O 1468.76 1.81215 0.0556054 0
M  V30 16035 C 1468.81 1.20076 -3.40021 0
M  V30 16036 O 1467.91 2.31656 -3.41188 0
M  V30 16037 H 1467.25 0.146506 -0.647636 0
M  V30 16038 H 1469.78 -0.178855 -2.03817 0
M  V30 16039 H 1469.79 1.54162 -3.77754 0
M  V30 16040 H 1468.47 0.446114 -4.135 0
M  V30 16041 H 1467.05 1.99175 -3.15252 0
M  V30 16042 N 1469.23 1.56605 0.176793 0
M  V30 16043 C 1470.48 1.80875 0.892578 0
M  V30 16044 C 1470.79 0.673245 1.83648 0
M  V30 16045 O 1472 0.800732 2.59423 0
M  V30 16046 C 1470.46 3.20481 1.63768 0
M  V30 16047 C 1470.06 4.41885 0.737685 0
M  V30 16048 C 1471.81 3.54048 2.34202 0
M  V30 16049 C 1469.71 5.72512 1.48271 0
M  V30 16050 H 1468.64 0.674476 0.337042 0
M  V30 16051 H 1471.3 1.82922 0.145574 0
M  V30 16052 H 1469.68 3.12736 2.42924 0
M  V30 16053 H 1470.85 4.60797 -0.0165186 0
M  V30 16054 H 1469.17 4.16153 0.143277 0
M  V30 16055 H 1471.76 4.48886 2.90526 0
M  V30 16056 H 1472.11 2.78665 3.09276 0
M  V30 16057 H 1472.64 3.63322 1.61995 0
M  V30 16058 H 1469.38 6.5091 0.774399 0
M  V30 16059 H 1468.9 5.57586 2.21038 0
M  V30 16060 H 1470.58 6.14274 2.03165 0
M  V30 16061 N 1470.71 -0.445159 1.51182 0
M  V30 16062 C 1471.94 -1.2161 1.67016 0
M  V30 16063 C 1472.35 -1.85671 0.363705 0
M  V30 16064 O 1471.69 -1.71165 -0.666963 0
M  V30 16065 C 1471.75 -2.34705 2.72312 0
M  V30 16066 C 1471.42 -1.91074 4.15138 0
M  V30 16067 C 1472.41 -1.41857 5.00173 0
M  V30 16068 C 1470.1 -1.99004 4.61197 0
M  V30 16069 C 1472.09 -1.01146 6.29324 0
M  V30 16070 C 1469.78 -1.57904 5.90347 0
M  V30 16071 C 1470.78 -1.09056 6.74237 0
M  V30 16072 O 1470.47 -0.685367 8.00973 0
M  V30 16073 H 1470.2 -0.372925 0.563829 0
M  V30 16074 H 1472.75 -0.534708 1.98318 0
M  V30 16075 H 1470.98 -3.06097 2.36309 0
M  V30 16076 H 1472.67 -2.96594 2.77104 0
M  V30 16077 H 1473.44 -1.35132 4.65794 0
M  V30 16078 H 1469.32 -2.35972 3.96028 0
M  V30 16079 H 1472.86 -0.629486 6.94754 0
M  V30 16080 H 1468.76 -1.64297 6.24241 0
M  V30 16081 H 1469.52 -0.811915 8.14463 0
M  V30 16082 N 1472.19 -1.41197 -0.700089 0
M  V30 16083 C 1473.13 -1.42688 -1.81407 0
M  V30 16084 C 1474.1 -0.28182 -1.63692 0
M  V30 16085 O 1475.29 -0.482196 -1.84606 0
M  V30 16086 C 1472.43 -1.31041 -3.19252 0
M  V30 16087 C 1471.54 -2.5538 -3.48432 0
M  V30 16088 C 1470.68 -2.3606 -4.75867 0
M  V30 16089 C 1469.72 -3.55898 -4.97999 0
M  V30 16090 N 1468.85 -3.35676 -6.16657 0
M  V30 16091 H 1473.69 -2.37898 -1.79467 0
M  V30 16092 H 1471.23 -1.18137 -0.87647 0
M  V30 16093 H 1473.19 -1.22292 -3.98874 0
M  V30 16094 H 1471.82 -0.394422 -3.20381 0
M  V30 16095 H 1470.87 -2.74598 -2.6325 0
M  V30 16096 H 1472.18 -3.44535 -3.6069 0
M  V30 16097 H 1471.34 -2.24752 -5.63535 0
M  V30 16098 H 1470.08 -1.44355 -4.65846 0
M  V30 16099 H 1469.08 -3.67665 -4.08781 0
M  V30 16100 H 1470.31 -4.4855 -5.09882 0
M  V30 16101 H 1468.25 -2.46667 -6.07858 0
M  V30 16102 H 1468.17 -4.18404 -6.29662 0
M  V30 16103 H 1469.44 -3.28132 -7.07071 0
M  V30 16104 N 1473.67 0.933891 -1.2695 0
M  V30 16105 C 1474.61 2.03365 -1.09139 0
M  V30 16106 C 1475.58 1.66099 0.00573029 0
M  V30 16107 O 1476.77 1.90166 -0.155425 0
M  V30 16108 C 1473.91 3.37114 -0.738117 0
M  V30 16109 C 1473.02 3.87372 -1.91224 0
M  V30 16110 C 1472.16 5.0954 -1.50141 0
M  V30 16111 C 1471.19 5.52079 -2.64339 0
M  V30 16112 N 1470.33 6.65446 -2.23887 0
M  V30 16113 H 1475.17 2.17932 -2.03248 0
M  V30 16114 H 1472.71 1.0677 -1.01186 0
M  V30 16115 H 1474.67 4.1402 -0.514141 0
M  V30 16116 H 1473.3 3.22373 0.166007 0
M  V30 16117 H 1472.35 3.06801 -2.24894 0
M  V30 16118 H 1473.66 4.14875 -2.76912 0
M  V30 16119 H 1472.81 5.93928 -1.23831 0
M  V30 16120 H 1471.55 4.838 -0.615539 0
M  V30 16121 H 1470.56 4.66244 -2.9137 0
M  V30 16122 H 1471.78 5.79817 -3.53537 0
M  V30 16123 H 1469.73 6.41376 -1.37744 0
M  V30 16124 H 1469.65 6.92573 -3.03116 0
M  V30 16125 H 1470.91 7.53191 -2.00809 0
M  V30 16126 N 1475.14 1.08871 1.13951 0
M  V30 16127 C 1476.05 0.734869 2.22793 0
M  V30 16128 C 1477.07 -0.260699 1.72036 0
M  V30 16129 O 1478.25 -0.103461 2.01134 0
M  V30 16130 C 1475.31 0.154599 3.46355 0
M  V30 16131 C 1474.37 1.20539 4.1203 0
M  V30 16132 C 1473.6 0.652712 5.29694 0
M  V30 16133 O 1473.83 -0.526264 5.67967 0
M  V30 16134 O 1472.76 1.40503 5.85271 0
M  V30 16135 H 1476.59 1.64297 2.55422 0
M  V30 16136 H 1474.17 0.862716 1.21974 0
M  V30 16137 H 1476.05 -0.165962 4.21073 0
M  V30 16138 H 1474.73 -0.726592 3.1544 0
M  V30 16139 H 1473.64 1.57855 3.39164 0
M  V30 16140 H 1474.97 2.05902 4.47063 0
M  V30 16141 N 1476.62 -1.31073 0.875073 0
M  V30 16142 C 1477.87 -1.96518 0.488549 0
M  V30 16143 C 1478.2 -1.69144 -0.960243 0
M  V30 16144 O 1477.45 -0.983344 -1.69201 0
M  V30 16145 C 1477.75 -3.50511 0.698351 0
M  V30 16146 C 1477.42 -3.97915 2.12071 0
M  V30 16147 C 1476.08 -4.10571 2.50968 0
M  V30 16148 C 1478.43 -4.22777 3.0481 0
M  V30 16149 C 1475.76 -4.45442 3.81836 0
M  V30 16150 C 1478.11 -4.59114 4.35198 0
M  V30 16151 C 1476.77 -4.69977 4.74002 0
M  V30 16152 H 1476.04 -0.719111 0.178773 0
M  V30 16153 H 1478.69 -1.56117 1.10904 0
M  V30 16154 H 1477 -3.918 -0.00523937 0
M  V30 16155 H 1478.69 -3.99205 0.379031 0
M  V30 16156 H 1475.28 -3.88565 1.80874 0
M  V30 16157 H 1479.47 -4.12489 2.75983 0
M  V30 16158 H 1474.72 -4.52051 4.11655 0
M  V30 16159 H 1478.9 -4.77303 5.07105 0
M  V30 16160 H 1476.52 -4.96753 5.75448 0
M  V30 16161 N 1478.1 -0.635022 -1.4424 0
M  V30 16162 C 1479.35 -0.140788 -2.01609 0
M  V30 16163 C 1479.67 1.24317 -1.50234 0
M  V30 16164 O 1478.94 1.82677 -0.707519 0
M  V30 16165 H 1477.52 -0.0490568 -0.745387 0
M  V30 16166 H 1480.18 -0.8226 -1.7669 0
M  V30 16167 H 1479.28 -0.111456 -3.11901 0
M  V30 16168 N 1479.58 1.53054 -0.375806 0
M  V30 16169 C 1480.49 2.29772 0.47349 0
M  V30 16170 C 1481.5 1.36144 1.08355 0
M  V30 16171 O 1482.68 1.69208 1.09228 0
M  V30 16172 C 1479.75 3.07964 1.59245 0
M  V30 16173 C 1478.81 4.17277 1.00888 0
M  V30 16174 C 1478.04 4.91731 2.07451 0
M  V30 16175 O 1478.26 4.66143 3.28736 0
M  V30 16176 O 1477.2 5.77413 1.69936 0
M  V30 16177 H 1481.02 3.03324 -0.151105 0
M  V30 16178 H 1478.61 1.48744 -0.139895 0
M  V30 16179 H 1480.49 3.56759 2.24279 0
M  V30 16180 H 1479.16 2.37239 2.20226 0
M  V30 16181 H 1478.07 3.7271 0.322167 0
M  V30 16182 H 1479.4 4.90198 0.443483 0
M  V30 16183 N 1481.06 0.105248 1.57248 0
M  V30 16184 C 1482.33 -0.598871 1.86207 0
M  V30 16185 C 1482.71 -1.85698 1.00396 0
M  V30 16186 O 1482.06 -2.28363 0.0791093 0
M  V30 16187 C 1482.27 -0.904522 3.37075 0
M  V30 16188 C 1483.62 -1.26357 4.05363 0
M  V30 16189 O 1484.64 -0.99522 3.42014 0
M  V30 16190 O 1483.5 -1.76659 5.17159 0
M  V30 16191 H 1480.6 -0.300727 0.770384 0
M  V30 16192 H 1483.14 0.138713 1.69132 0
M  V30 16193 H 1481.91 -0.0123974 3.91298 0
M  V30 16194 H 1481.54 -1.69774 3.59531 0
M  V30 16195 N 1482.53 -1.56697 -0.168486 0
M  V30 16196 C 1483.48 -1.9755 -1.22787 0
M  V30 16197 C 1484.48 -0.864668 -1.4567 0
M  V30 16198 O 1485.68 -1.04979 -1.46217 0
M  V30 16199 H 1482.06 -0.628561 -0.412813 0
M  V30 16200 H 1484.03 -2.85845 -0.85646 0
M  V30 16201 C 1482.78 -2.35394 -2.559 0
M  V30 16202 H 1482.1 -3.20412 -2.39115 0
M  V30 16203 H 1483.54 -2.67821 -3.28706 0
M  V30 16204 C 1482 -1.19842 -3.14864 0
M  V30 16205 O 1482.53 -0.487601 -3.9873 0
M  V30 16206 N 1480.74 -0.968249 -2.73995 0
M  V30 16207 H 1480.28 -1.54804 -2.05897 0
M  V30 16208 H 1480.24 -0.196951 -3.13783 0
M  V30 16209 N 1484.01 0.437135 -1.51416 0
M  V30 16210 C 1485.29 1.1978 -1.54636 0
M  V30 16211 C 1485.67 2.088 -0.310747 0
M  V30 16212 O 1485.02 2.1738 0.704148 0
M  V30 16213 C 1485.23 1.99947 -2.86046 0
M  V30 16214 C 1486.58 2.56981 -3.38003 0
M  V30 16215 O 1487.6 2.10157 -2.87598 0
M  V30 16216 O 1486.46 3.42383 -4.25953 0
M  V30 16217 H 1483.55 0.545346 -0.621713 0
M  V30 16218 H 1486.1 0.446189 -1.63729 0
M  V30 16219 H 1484.87 1.34564 -3.67435 0
M  V30 16220 H 1484.49 2.82172 -2.80115 0
M  V30 16221 N 1485.49 1.41566 0.692592 0
M  V30 16222 C 1486.44 1.43857 1.82779 0
M  V30 16223 C 1487.43 0.316262 1.66422 0
M  V30 16224 O 1488.64 0.488433 1.73246 0
M  V30 16225 H 1485.01 0.450174 0.602368 0
M  V30 16226 H 1486.98 2.39524 1.77964 0
M  V30 16227 C 1485.73 1.34054 3.20819 0
M  V30 16228 H 1485.06 2.19701 3.34023 0
M  V30 16229 H 1486.5 1.39717 4.00319 0
M  V30 16230 C 1484.96 0.053218 3.36858 0
M  V30 16231 O 1485.49 -0.900928 3.91467 0
M  V30 16232 N 1483.69 -0.0238376 2.9059 0
M  V30 16233 H 1483.24 0.753374 2.46337 0
M  V30 16234 H 1483.2 -0.884571 3.017 0
M  V30 16235 N 1486.97 -0.927146 1.27443 0
M  V30 16236 C 1487.93 -2.00938 1.10257 0
M  V30 16237 C 1488.93 -1.60733 0.0463898 0
M  V30 16238 O 1490.12 -1.71752 0.291029 0
M  V30 16239 C 1487.25 -3.34047 0.680115 0
M  V30 16240 H 1488.45 -2.17615 2.06358 0
M  V30 16241 H 1486 -1.10802 1.10239 0
M  V30 16242 H 1486.73 -3.23069 -0.282259 0
M  V30 16243 H 1486.52 -3.64585 1.44291 0
M  V30 16244 H 1488.01 -4.13523 0.582126 0
M  V30 16245 N 1488.45 -1.09474 -1.13372 0
M  V30 16246 C 1489.36 -0.746674 -2.224 0
M  V30 16247 C 1490.37 0.251572 -1.72172 0
M  V30 16248 O 1491.55 0.092793 -2.01186 0
M  V30 16249 C 1488.61 -0.172965 -3.46268 0
M  V30 16250 C 1487.67 -1.22722 -4.11385 0
M  V30 16251 C 1486.91 -0.680794 -5.2934 0
M  V30 16252 O 1487.13 0.496135 -5.68238 0
M  V30 16253 O 1486.06 -1.43605 -5.84518 0
M  V30 16254 H 1489.89 -1.65649 -2.54547 0
M  V30 16255 H 1487.48 -0.869172 -1.21514 0
M  V30 16256 H 1489.36 0.143629 -4.21155 0
M  V30 16257 H 1488.03 0.709853 -3.15821 0
M  V30 16258 H 1486.94 -1.59652 -3.38323 0
M  V30 16259 H 1488.27 -2.0827 -4.45965 0
M  V30 16260 N 1489.92 1.30607 -0.882012 0
M  V30 16261 C 1491.15 2.00418 -0.513815 0
M  V30 16262 C 1491.57 1.66135 0.896916 0
M  V30 16263 O 1490.92 0.89691 1.5894 0
M  V30 16264 C 1490.98 3.55133 -0.675503 0
M  V30 16265 O 1490.7 3.88194 -2.03069 0
M  V30 16266 C 1492.2 4.42215 -0.309906 0
M  V30 16267 H 1489.42 0.640839 -0.198913 0
M  V30 16268 H 1491.96 1.66561 -1.1865 0
M  V30 16269 H 1490.12 3.87367 -0.0502289 0
M  V30 16270 H 1490.53 4.82899 -2.04717 0
M  V30 16271 H 1492 5.49962 -0.473948 0
M  V30 16272 H 1492.48 4.32717 0.751852 0
M  V30 16273 H 1493.09 4.1542 -0.91138 0
M  V30 16274 N 1491.4 0.642663 1.43901 0
M  V30 16275 C 1492.63 0.157518 2.06801 0
M  V30 16276 C 1493.05 -1.16361 1.47789 0
M  V30 16277 O 1492.41 -1.71645 0.583747 0
M  V30 16278 C 1492.46 0.0685904 3.60535 0
M  V30 16279 O 1491.56 -0.972183 4.00777 0
M  V30 16280 H 1490.9 0.0900406 0.657867 0
M  V30 16281 H 1493.43 0.882604 1.84584 0
M  V30 16282 H 1493.44 -0.118212 4.07829 0
M  V30 16283 H 1492.12 1.03307 4.02865 0
M  V30 16284 H 1490.7 -0.75902 3.65094 0
M  V30 16285 N 1492.88 -1.52852 0.383918 0
M  V30 16286 C 1493.84 -2.24904 -0.441687 0
M  V30 16287 C 1494.84 -1.26345 -0.99466 0
M  V30 16288 O 1496.03 -1.50484 -0.877513 0
M  V30 16289 C 1493.17 -2.99994 -1.61915 0
M  V30 16290 H 1494.36 -2.99304 0.189047 0
M  V30 16291 H 1491.91 -1.55708 0.135932 0
M  V30 16292 H 1492.65 -2.29882 -2.28746 0
M  V30 16293 H 1492.43 -3.72328 -1.2294 0
M  V30 16294 H 1493.92 -3.54716 -2.20378 0
M  V30 16295 N 1494.36 -0.113586 -1.5719 0
M  V30 16296 C 1495.58 0.556928 -1.99783 0
M  V30 16297 C 1496.01 1.59774 -0.992669 0
M  V30 16298 O 1495.37 1.81263 0.0363821 0
M  V30 16299 C 1495.42 1.16463 -3.41275 0
M  V30 16300 O 1494.52 2.28024 -3.43626 0
M  V30 16301 H 1493.86 0.139628 -0.649153 0
M  V30 16302 H 1496.39 -0.200462 -2.03616 0
M  V30 16303 H 1496.4 1.50147 -3.79368 0
M  V30 16304 H 1495.08 0.402232 -4.1395 0
M  V30 16305 H 1493.65 1.9582 -3.17347 0
M  V30 16306 N 1495.84 1.56784 0.160173 0
M  V30 16307 C 1497.09 1.8226 0.873253 0
M  V30 16308 C 1497.41 0.692384 1.82294 0
M  V30 16309 O 1496.68 -0.286961 1.93787 0
M  V30 16310 H 1495.26 0.672371 0.325463 0
M  V30 16311 H 1497.92 1.94264 0.157325 0
M  V30 16312 H 1497.01 2.76714 1.44345 0
M  V30 16313 N 1497.32 -0.429099 1.51646 0
M  V30 16314 C 1498.54 -1.20465 1.68828 0
M  V30 16315 C 1498.97 -1.84044 0.388514 0
M  V30 16316 O 1498.32 -1.69165 -0.652152 0
M  V30 16317 C 1498.37 -2.25831 2.81128 0
M  V30 16318 O 1497.48 -3.31511 2.45305 0
M  V30 16319 H 1496.82 -0.352568 0.562665 0
M  V30 16320 H 1499.35 -0.505698 1.98252 0
M  V30 16321 H 1499.36 -2.70484 3.05455 0
M  V30 16322 H 1498.03 -1.78934 3.7544 0
M  V30 16323 H 1496.61 -2.92277 2.31579 0
M  V30 16324 N 1498.79 -1.41931 -0.685074 0
M  V30 16325 C 1500.2 -1.37279 -1.26536 0
M  V30 16326 C 1500.56 -0.0610089 -1.96105 0
M  V30 16327 O 1499.68 0.840508 -1.9941 0
M  V30 16328 C 1500.28 -2.48658 -2.30119 0
M  V30 16329 C 1498.83 -2.47371 -2.83698 0
M  V30 16330 C 1497.98 -2.2797 -1.57876 0
M  V30 16331 H 1500.93 -1.51294 -0.479132 0
M  V30 16332 H 1500.95 -2.18319 -3.11636 0
M  V30 16333 H 1500.47 -3.44118 -1.79456 0
M  V30 16334 H 1498.57 -1.55699 -3.3851 0
M  V30 16335 H 1498.68 -3.44052 -3.33414 0
M  V30 16336 H 1497.04 -1.7604 -1.84071 0
M  V30 16337 H 1497.83 -3.25471 -1.09194 0
M  V30 16338 N 1500.27 0.920374 -1.27933 0
M  V30 16339 C 1501.55 1.64765 -1.05413 0
M  V30 16340 C 1501.93 2.07106 0.408717 0
M  V30 16341 O 1501.28 1.81094 1.39346 0
M  V30 16342 C 1501.49 2.84417 -2.02257 0
M  V30 16343 C 1502.83 3.5559 -2.32036 0
M  V30 16344 O 1503.86 2.94555 -2.00289 0
M  V30 16345 O 1502.72 4.65574 -2.86187 0
M  V30 16346 H 1499.81 0.722503 -0.402391 0
M  V30 16347 H 1502.36 0.970263 -1.39226 0
M  V30 16348 H 1501.13 2.50174 -3.0088 0
M  V30 16349 H 1500.75 3.59872 -1.6905 0
M  V30 16350 N 1501.75 1.10074 1.1279 0
M  V30 16351 C 1502.98 0.862906 1.88047 0
M  V30 16352 C 1503.39 -0.586346 1.79464 0
M  V30 16353 O 1502.75 -1.40402 1.16591 0
M  V30 16354 C 1502.8 1.29784 3.37399 0
M  V30 16355 O 1502.52 2.69026 3.4577 0
M  V30 16356 C 1504.02 1.09336 4.29605 0
M  V30 16357 H 1501.24 0.309981 0.595108 0
M  V30 16358 H 1503.79 1.46444 1.42738 0
M  V30 16359 H 1501.94 0.740056 3.80266 0
M  V30 16360 H 1502.36 2.87532 4.38663 0
M  V30 16361 H 1503.83 1.44687 5.327 0
M  V30 16362 H 1504.31 0.031679 4.39189 0
M  V30 16363 H 1504.91 1.63743 3.92516 0
M  V30 16364 N 1503.23 -1.30138 0.888926 0
M  V30 16365 C 1504.16 -2.3047 0.374934 0
M  V30 16366 C 1505.14 -1.61156 -0.544322 0
M  V30 16367 O 1506.32 -1.88738 -0.457337 0
M  V30 16368 C 1503.45 -3.44896 -0.407935 0
M  V30 16369 C 1502.41 -4.25935 0.419916 0
M  V30 16370 C 1501.73 -5.32452 -0.489797 0
M  V30 16371 C 1503.03 -4.9508 1.66413 0
M  V30 16372 H 1504.73 -2.73711 1.21337 0
M  V30 16373 H 1502.27 -1.31586 0.584899 0
M  V30 16374 H 1504.23 -4.14153 -0.778177 0
M  V30 16375 H 1502.95 -3.0047 -1.28005 0
M  V30 16376 H 1501.61 -3.58372 0.772348 0
M  V30 16377 H 1501.26 -4.84273 -1.35974 0
M  V30 16378 H 1500.96 -5.87569 0.0603412 0
M  V30 16379 H 1502.48 -6.04563 -0.856468 0
M  V30 16380 H 1503.9 -5.56831 1.36425 0
M  V30 16381 H 1502.29 -5.6008 2.15477 0
M  V30 16382 H 1503.36 -4.20981 2.4063 0
M  V30 16383 N 1504.71 -0.650285 -1.43559 0
M  V30 16384 C 1505.64 0.0295939 -2.33481 0
M  V30 16385 C 1506.62 0.815017 -1.49303 0
M  V30 16386 O 1507.8 0.77708 -1.77975 0
M  V30 16387 C 1504.93 0.998683 -3.32631 0
M  V30 16388 C 1503.89 0.323577 -4.26775 0
M  V30 16389 C 1503.21 1.40391 -5.1594 0
M  V30 16390 C 1504.51 -0.782197 -5.1641 0
M  V30 16391 H 1506.21 -0.721349 -2.9058 0
M  V30 16392 H 1503.75 -0.348339 -1.39723 0
M  V30 16393 H 1505.7 1.4832 -3.94435 0
M  V30 16394 H 1504.43 1.78075 -2.73782 0
M  V30 16395 H 1503.09 -0.140467 -3.66331 0
M  V30 16396 H 1502.74 2.17734 -4.53432 0
M  V30 16397 H 1502.44 0.957462 -5.79747 0
M  V30 16398 H 1503.96 1.88985 -5.80618 0
M  V30 16399 H 1505.37 -0.379966 -5.72039 0
M  V30 16400 H 1503.77 -1.15293 -5.88921 0
M  V30 16401 H 1504.84 -1.6414 -4.56274 0
M  V30 16402 N 1506.18 1.52647 -0.392018 0
M  V30 16403 C 1507.59 1.86522 0.0814091 0
M  V30 16404 C 1507.95 1.31158 1.45918 0
M  V30 16405 O 1507.07 0.644007 2.06595 0
M  V30 16406 C 1507.67 3.38448 0.1545 0
M  V30 16407 C 1506.22 3.72025 0.572227 0
M  V30 16408 C 1505.37 2.7604 -0.264093 0
M  V30 16409 H 1508.32 1.46517 -0.609785 0
M  V30 16410 H 1508.34 3.67846 0.973109 0
M  V30 16411 H 1507.86 3.78713 -0.848396 0
M  V30 16412 H 1505.96 3.37329 1.58239 0
M  V30 16413 H 1506.07 4.77973 0.328491 0
M  V30 16414 H 1504.43 2.53254 0.271042 0
M  V30 16415 H 1505.22 3.19143 -1.26502 0
M  V30 16416 N 1507.66 0.121921 1.57128 0
M  V30 16417 C 1508.89 -0.546325 2.00075 0
M  V30 16418 C 1509.31 -1.59245 1.00113 0
M  V30 16419 O 1508.67 -1.8128 -0.0267687 0
M  V30 16420 C 1508.72 -1.14651 3.41888 0
M  V30 16421 O 1507.82 -2.26199 3.4483 0
M  V30 16422 H 1507.16 -0.136184 0.649885 0
M  V30 16423 H 1509.69 0.211257 2.03506 0
M  V30 16424 H 1509.7 -1.48133 3.80159 0
M  V30 16425 H 1508.38 -0.380273 4.14158 0
M  V30 16426 H 1506.96 -1.94134 3.18381 0
M  V30 16427 N 1509.14 -1.56867 -0.151857 0
M  V30 16428 C 1510.1 -1.96997 -1.17152 0
M  V30 16429 C 1511.1 -0.855905 -1.36128 0
M  V30 16430 O 1512.29 -1.12261 -1.33203 0
M  V30 16431 C 1509.43 -2.28171 -2.5328 0
M  V30 16432 H 1510.62 -2.88261 -0.827365 0
M  V30 16433 H 1508.17 -1.51226 -0.395024 0
M  V30 16434 H 1508.91 -1.39683 -2.92676 0
M  V30 16435 H 1508.69 -3.09394 -2.40869 0
M  V30 16436 H 1510.18 -2.60073 -3.26729 0
M  V30 16437 N 1510.62 0.421051 -1.51871 0
M  V30 16438 C 1511.87 1.16611 -1.64574 0
M  V30 16439 C 1512.18 1.91955 -0.375835 0
M  V30 16440 O 1513.39 2.68792 -0.382481 0
M  V30 16441 C 1511.84 2.12164 -2.90714 0
M  V30 16442 C 1511.45 1.42392 -4.24769 0
M  V30 16443 C 1513.19 2.87002 -3.12778 0
M  V30 16444 C 1511.1 2.36523 -5.42043 0
M  V30 16445 H 1510.03 0.438989 -0.613029 0
M  V30 16446 H 1512.68 0.431636 -1.78351 0
M  V30 16447 H 1511.06 2.89114 -2.70608 0
M  V30 16448 H 1512.24 0.708875 -4.55315 0
M  V30 16449 H 1510.55 0.796421 -4.08713 0
M  V30 16450 H 1513.15 3.5755 -3.9757 0
M  V30 16451 H 1513.49 3.49277 -2.2652 0
M  V30 16452 H 1514.03 2.17154 -3.333 0
M  V30 16453 H 1510.77 1.78913 -6.30611 0
M  V30 16454 H 1510.29 3.06034 -5.15852 0
M  V30 16455 H 1511.96 2.97306 -5.74646 0
M  V30 16456 N 1512.1 1.42293 0.677538 0
M  V30 16457 C 1513.34 1.42827 1.43973 0
M  V30 16458 C 1513.68 0.0435041 1.94151 0
M  V30 16459 O 1512.95 -0.931794 1.70727 0
M  V30 16460 C 1513.23 2.45037 2.63873 0
M  V30 16461 C 1513.09 3.92694 2.19344 0
M  V30 16462 C 1514.41 2.4427 3.66087 0
M  V30 16463 H 1511.52 0.520097 0.522176 0
M  V30 16464 H 1514.17 1.73688 0.770219 0
M  V30 16465 H 1512.32 2.18851 3.20993 0
M  V30 16466 H 1513.99 4.2985 1.67412 0
M  V30 16467 H 1512.23 4.06692 1.50944 0
M  V30 16468 H 1512.9 4.59784 3.05455 0
M  V30 16469 H 1515.38 2.67551 3.18678 0
M  V30 16470 H 1514.25 3.17769 4.47564 0
M  V30 16471 H 1514.52 1.46769 4.17027 0
M  V30 16472 N 1513.57 -0.913576 1.28419 0
M  V30 16473 C 1514.99 -1.47782 1.14094 0
M  V30 16474 C 1515.34 -1.94347 -0.269004 0
M  V30 16475 O 1514.46 -1.82474 -1.16328 0
M  V30 16476 C 1515.06 -2.6859 2.06507 0
M  V30 16477 C 1513.62 -3.21193 1.96245 0
M  V30 16478 C 1512.76 -1.939 1.98238 0
M  V30 16479 H 1515.71 -0.726271 1.41106 0
M  V30 16480 H 1515.73 -3.43858 1.62916 0
M  V30 16481 H 1515.25 -2.34668 3.09116 0
M  V30 16482 H 1513.35 -3.5984 0.966737 0
M  V30 16483 H 1513.46 -3.8643 2.83211 0
M  V30 16484 H 1511.82 -2.11006 1.42648 0
M  V30 16485 H 1512.61 -1.62273 3.02527 0
M  V30 16486 N 1515.05 -1.1067 -1.12204 0
M  V30 16487 C 1516.33 -0.762632 -1.8012 0
M  V30 16488 C 1516.71 0.750529 -1.97308 0
M  V30 16489 O 1516.06 1.67764 -1.55137 0
M  V30 16490 C 1516.27 -1.51651 -3.14329 0
M  V30 16491 C 1517.62 -1.69061 -3.89491 0
M  V30 16492 O 1518.64 -1.48009 -3.23994 0
M  V30 16493 O 1517.5 -2.03984 -5.07004 0
M  V30 16494 H 1514.59 -0.275417 -0.779791 0
M  V30 16495 H 1517.14 -1.20966 -1.19018 0
M  V30 16496 H 1515.91 -2.54622 -2.97125 0
M  V30 16497 H 1515.53 -1.0625 -3.83141 0
M  V30 16498 N 1516.53 1.29665 -0.895815 0
M  V30 16499 C 1517.78 1.94995 -0.515749 0
M  V30 16500 C 1518.09 1.71427 0.94192 0
M  V30 16501 O 1519.3 2.3083 1.42933 0
M  V30 16502 C 1517.75 3.4919 -0.871468 0
M  V30 16503 C 1517.36 3.81562 -2.34764 0
M  V30 16504 C 1519.11 4.20775 -0.561123 0
M  V30 16505 C 1517.01 5.28984 -2.64442 0
M  V30 16506 H 1515.94 0.729889 -0.189151 0
M  V30 16507 H 1518.59 1.4745 -1.09228 0
M  V30 16508 H 1516.98 3.95366 -0.223908 0
M  V30 16509 H 1518.15 3.46258 -3.04043 0
M  V30 16510 H 1516.47 3.23107 -2.62661 0
M  V30 16511 H 1519.06 5.29275 -0.759755 0
M  V30 16512 H 1519.41 4.13285 0.500129 0
M  V30 16513 H 1519.94 3.80317 -1.16635 0
M  V30 16514 H 1516.68 5.41535 -3.69351 0
M  V30 16515 H 1516.2 5.6555 -1.99784 0
M  V30 16516 H 1517.88 5.96536 -2.50506 0
M  V30 16517 N 1518.01 0.657889 1.43212 0
M  V30 16518 C 1519.29 0.102895 1.95329 0
M  V30 16519 C 1519.67 -1.37821 1.59901 0
M  V30 16520 O 1519.01 -2.10602 0.886505 0
M  V30 16521 C 1519.22 0.354075 3.47199 0
M  V30 16522 C 1520.57 0.261511 4.23794 0
M  V30 16523 O 1521.6 0.286889 3.55043 0
M  V30 16524 O 1520.45 0.189209 5.46172 0
M  V30 16525 H 1517.55 -0.00692284 0.826971 0
M  V30 16526 H 1520.09 0.73145 1.53127 0
M  V30 16527 H 1518.87 1.38075 3.6613 0
M  V30 16528 H 1518.49 -0.307321 3.96411 0
M  V30 16529 N 1519.49 -1.52437 0.400108 0
M  V30 16530 C 1520.4 -2.30496 -0.436875 0
M  V30 16531 C 1521.41 -1.37851 -1.06175 0
M  V30 16532 O 1522.59 -1.70924 -1.06522 0
M  V30 16533 C 1519.65 -3.10459 -1.54325 0
M  V30 16534 C 1518.71 -4.18829 -0.942367 0
M  V30 16535 C 1517.95 -4.94969 -1.99602 0
M  V30 16536 O 1518.17 -4.71314 -3.21278 0
M  V30 16537 O 1517.1 -5.80043 -1.60728 0
M  V30 16538 H 1520.93 -3.03045 0.199343 0
M  V30 16539 H 1518.52 -1.48502 0.163541 0
M  V30 16540 H 1520.4 -3.60282 -2.18575 0
M  V30 16541 H 1519.07 -2.40713 -2.16423 0
M  V30 16542 H 1517.98 -3.73176 -0.262831 0
M  V30 16543 H 1519.31 -4.90841 -0.365441 0
M  V30 16544 N 1520.96 -0.130252 -1.57061 0
M  V30 16545 C 1522.21 0.52488 -1.94751 0
M  V30 16546 C 1522.53 1.67107 -1.0166 0
M  V30 16547 O 1523.73 2.38971 -1.28861 0
M  V30 16548 C 1522.19 0.985118 -3.46155 0
M  V30 16549 C 1521.8 -0.133222 -4.47802 0
M  V30 16550 C 1523.54 1.61099 -3.92743 0
M  V30 16551 C 1521.45 0.344346 -5.90397 0
M  V30 16552 H 1520.38 0.19985 -0.727032 0
M  V30 16553 H 1523.03 -0.211912 -1.82272 0
M  V30 16554 H 1521.41 1.77667 -3.53907 0
M  V30 16555 H 1522.58 -0.909784 -4.5173 0
M  V30 16556 H 1520.9 -0.666449 -4.11032 0
M  V30 16557 H 1523.5 1.97963 -4.96704 0
M  V30 16558 H 1523.84 2.49366 -3.3335 0
M  V30 16559 H 1524.37 0.884641 -3.87839 0
M  V30 16560 H 1521.11 -0.502547 -6.53571 0
M  V30 16561 H 1520.63 1.08714 -5.89865 0
M  V30 16562 H 1522.31 0.801885 -6.42012 0
M  V30 16563 N 1522.44 1.56945 0.143535 0
M  V30 16564 C 1523.41 1.97616 1.16106 0
M  V30 16565 C 1524.41 0.863113 1.35672 0
M  V30 16566 O 1525.6 1.12966 1.32606 0
M  V30 16567 C 1522.73 2.29511 2.52067 0
M  V30 16568 H 1523.92 2.88696 0.812066 0
M  V30 16569 H 1521.47 1.51433 0.386999 0
M  V30 16570 H 1522.21 1.41233 2.91931 0
M  V30 16571 H 1521.99 3.10667 2.39225 0
M  V30 16572 H 1523.48 2.61802 3.25345 0
M  V30 16573 N 1523.92 -0.412991 1.52093 0
M  V30 16574 C 1524.88 -1.48555 1.7454 0
M  V30 16575 C 1525.88 -1.48563 0.615283 0
M  V30 16576 O 1527.07 -1.50155 0.883119 0
M  V30 16577 C 1524.21 -2.87984 1.82423 0
M  V30 16578 H 1525.4 -1.29945 2.70285 0
M  V30 16579 H 1522.95 -0.643241 1.4245 0
M  V30 16580 H 1523.69 -3.11969 0.885777 0
M  V30 16581 H 1523.47 -2.89381 2.64577 0
M  V30 16582 H 1524.96 -3.65745 2.01545 0
M  V30 16583 N 1525.4 -1.4265 -0.669982 0
M  V30 16584 C 1526.33 -1.42457 -1.79551 0
M  V30 16585 C 1527.34 -0.322966 -1.59564 0
M  V30 16586 O 1528.53 -0.586359 -1.68594 0
M  V30 16587 C 1525.63 -1.20561 -3.16731 0
M  V30 16588 C 1524.81 -2.43246 -3.63525 0
M  V30 16589 C 1523.87 -2.16823 -4.79452 0
M  V30 16590 O 1522.89 -2.90058 -4.8975 0
M  V30 16591 N 1524.09 -1.17436 -5.68497 0
M  V30 16592 H 1526.86 -2.39474 -1.80201 0
M  V30 16593 H 1524.42 -1.37591 -0.853244 0
M  V30 16594 H 1526.41 -1.00794 -3.91947 0
M  V30 16595 H 1524.98 -0.320497 -3.10953 0
M  V30 16596 H 1524.2 -2.78549 -2.78934 0
M  V30 16597 H 1525.49 -3.24931 -3.91532 0
M  V30 16598 H 1524.89 -0.568736 -5.62834 0
M  V30 16599 H 1523.44 -1.03655 -6.43505 0
M  V30 16600 N 1526.88 0.906753 -1.28902 0
M  V30 16601 C 1527.84 1.99158 -1.1344 0
M  V30 16602 C 1528.84 1.60639 -0.0719551 0
M  V30 16603 O 1530.03 1.71267 -0.318317 0
M  V30 16604 C 1527.16 3.32923 -0.733172 0
M  V30 16605 H 1528.36 2.14305 -2.09794 0
M  V30 16606 H 1525.91 1.09034 -1.11988 0
M  V30 16607 H 1526.64 3.23477 0.230826 0
M  V30 16608 H 1526.43 3.62244 -1.50073 0
M  V30 16609 H 1527.92 4.12544 -0.64784 0
M  V30 16610 N 1528.36 1.11264 1.11616 0
M  V30 16611 C 1529.27 0.781961 2.21184 0
M  V30 16612 C 1530.28 -0.224149 1.7255 0
M  V30 16613 O 1531.46 -0.0607743 2.01308 0
M  V30 16614 C 1528.52 0.228031 3.45949 0
M  V30 16615 C 1527.58 1.29251 4.09381 0
M  V30 16616 C 1526.82 0.764921 5.2819 0
M  V30 16617 O 1527.04 -0.405671 5.68956 0
M  V30 16618 O 1525.97 1.52886 5.82159 0
M  V30 16619 H 1529.8 1.69678 2.51879 0
M  V30 16620 H 1527.38 0.888394 1.20116 0
M  V30 16621 H 1529.27 -0.0766085 4.2133 0
M  V30 16622 H 1527.94 -0.659519 3.1691 0
M  V30 16623 H 1526.85 1.65014 3.3574 0
M  V30 16624 H 1528.18 2.15339 4.42595 0
M  V30 16625 N 1529.83 -1.29188 0.902679 0
M  V30 16626 C 1531.06 -1.99576 0.545635 0
M  V30 16627 C 1531.48 -1.67541 -0.870372 0
M  V30 16628 O 1530.83 -0.922082 -1.57493 0
M  V30 16629 C 1530.88 -3.54013 0.731916 0
M  V30 16630 O 1530.61 -3.84914 2.09219 0
M  V30 16631 C 1532.11 -4.41666 0.38022 0
M  V30 16632 H 1529.33 -0.637593 0.209083 0
M  V30 16633 H 1531.87 -1.64652 1.21284 0
M  V30 16634 H 1530.03 -3.87239 0.111849 0
M  V30 16635 H 1530.44 -4.79581 2.12373 0
M  V30 16636 H 1531.91 -5.49138 0.561382 0
M  V30 16637 H 1532.39 -4.33858 -0.682915 0
M  V30 16638 H 1533 -4.13918 0.977354 0
M  V30 16639 N 1531.31 -0.665475 -1.42861 0
M  V30 16640 C 1532.24 0.0686045 -2.28097 0
M  V30 16641 C 1533.22 0.81788 -1.40533 0
M  V30 16642 O 1534.41 0.81493 -1.69974 0
M  V30 16643 C 1531.53 1.10416 -3.20197 0
M  V30 16644 C 1530.58 0.451532 -4.24103 0
M  V30 16645 S 1531.41 -0.783994 -5.2973 0
M  V30 16646 C 1532.57 0.250718 -6.25398 0
M  V30 16647 H 1532.8 -0.654401 -2.90008 0
M  V30 16648 H 1530.33 -0.454708 -1.47553 0
M  V30 16649 H 1532.29 1.69657 -3.738 0
M  V30 16650 H 1530.95 1.79955 -2.57439 0
M  V30 16651 H 1530.15 1.23259 -4.88695 0
M  V30 16652 H 1529.75 -0.0670626 -3.7394 0
M  V30 16653 H 1532.04 1.11326 -6.68291 0
M  V30 16654 H 1532.98 -0.360495 -7.07182 0
M  V30 16655 H 1533.39 0.592017 -5.61387 0
M  V30 16656 N 1532.79 1.52222 -0.408187 0
M  V30 16657 C 1534.04 2.01803 0.167905 0
M  V30 16658 C 1534.36 1.29385 1.45223 0
M  V30 16659 O 1533.62 0.388383 1.91807 0
M  V30 16660 C 1533.92 3.54384 0.463353 0
M  V30 16661 C 1533.58 4.44924 -0.731665 0
M  V30 16662 C 1532.25 4.69392 -1.05946 0
M  V30 16663 C 1534.6 4.9823 -1.53023 0
M  V30 16664 C 1531.93 5.44414 -2.18702 0
M  V30 16665 C 1534.28 5.74486 -2.64855 0
M  V30 16666 C 1532.94 5.97227 -2.98121 0
M  V30 16667 H 1532.21 0.738448 0.0614409 0
M  V30 16668 H 1534.86 1.83449 -0.549412 0
M  V30 16669 H 1533.16 3.70911 1.26223 0
M  V30 16670 H 1534.86 3.90256 0.922042 0
M  V30 16671 H 1531.45 4.26057 -0.4662 0
M  V30 16672 H 1535.64 4.79236 -1.29022 0
M  V30 16673 H 1530.89 5.60242 -2.44824 0
M  V30 16674 H 1535.07 6.14788 -3.27122 0
M  V30 16675 H 1532.69 6.5514 -3.8561 0
M  V30 16676 N 1534.27 0.138579 1.5699 0
M  V30 16677 C 1535.23 -0.79013 2.1515 0
M  V30 16678 C 1536.23 -1.1811 1.09117 0
M  V30 16679 O 1537.42 -1.1034 1.34798 0
M  V30 16680 C 1534.55 -2.07109 2.70774 0
M  V30 16681 H 1535.75 -0.284343 2.98549 0
M  V30 16682 H 1533.3 -0.11081 1.55907 0
M  V30 16683 H 1534.03 -2.62074 1.91018 0
M  V30 16684 H 1533.82 -1.80004 3.4834 0
M  V30 16685 H 1535.31 -2.73456 3.15613 0
M  V30 16686 N 1535.75 -1.57019 -0.13521 0
M  V30 16687 C 1536.99 -1.83626 -0.844147 0
M  V30 16688 C 1537.31 -0.721298 -1.81169 0
M  V30 16689 O 1536.58 0.256095 -1.94219 0
M  V30 16690 H 1535.16 -0.677464 -0.314725 0
M  V30 16691 H 1537.83 -1.9449 -0.126399 0
M  V30 16692 H 1536.92 -2.78976 -1.39925 0
M  V30 16693 N 1537.22 0.404919 -1.52309 0
M  V30 16694 C 1538.64 0.743846 -1.41206 0
M  V30 16695 C 1538.84 1.94678 -0.519874 0
M  V30 16696 O 1537.9 2.52497 0.0127417 0
M  V30 16697 C 1539.21 0.99384 -2.83802 0
M  V30 16698 C 1540.76 1.0963 -2.93173 0
M  V30 16699 C 1541.23 1.37902 -4.36746 0
M  V30 16700 N 1542.72 1.44758 -4.39999 0
M  V30 16701 C 1543.46 1.68269 -5.48154 0
M  V30 16702 N 1542.95 1.89356 -6.6642 0
M  V30 16703 N 1544.75 1.70318 -5.35675 0
M  V30 16704 H 1536.9 -0.386855 -2.08847 0
M  V30 16705 H 1539.16 -0.110811 -0.941501 0
M  V30 16706 H 1538.87 0.182249 -3.51227 0
M  V30 16707 H 1538.74 1.91287 -3.25099 0
M  V30 16708 H 1541.13 1.89847 -2.25925 0
M  V30 16709 H 1541.21 0.155539 -2.55327 0
M  V30 16710 H 1540.85 0.582004 -5.04554 0
M  V30 16711 H 1540.78 2.33237 -4.72132 0
M  V30 16712 H 1543.27 1.30235 -3.5475 0
M  V30 16713 H 1543.59 2.06758 -7.44628 0
M  V30 16714 H 1541.93 1.86612 -6.69478 0
M  V30 16715 H 1545.12 1.53385 -4.42256 0
M  V30 16716 H 1545.3 1.88302 -6.20037 0
M  V30 16717 N 1538.7 1.43003 0.662408 0
M  V30 16718 C 1539.65 1.47448 1.77561 0
M  V30 16719 C 1540.62 0.325121 1.62887 0
M  V30 16720 O 1541.8 0.530971 1.83263 0
M  V30 16721 C 1538.94 1.3946 3.15666 0
M  V30 16722 C 1538.06 2.64529 3.41539 0
M  V30 16723 C 1537.19 2.48594 4.69441 0
M  V30 16724 C 1536.23 3.68976 4.88388 0
M  V30 16725 N 1535.37 3.51908 6.0754 0
M  V30 16726 H 1540.21 2.42573 1.73097 0
M  V30 16727 H 1537.75 1.2042 0.84484 0
M  V30 16728 H 1539.7 1.32824 3.95492 0
M  V30 16729 H 1538.33 0.479227 3.19223 0
M  V30 16730 H 1537.39 2.81481 2.55877 0
M  V30 16731 H 1538.7 3.53977 3.51429 0
M  V30 16732 H 1537.85 2.39614 5.57378 0
M  V30 16733 H 1536.59 1.56656 4.61855 0
M  V30 16734 H 1535.6 3.78374 3.9889 0
M  V30 16735 H 1536.82 4.61911 4.9781 0
M  V30 16736 H 1534.77 2.62697 6.01104 0
M  V30 16737 H 1534.68 4.34951 6.18347 0
M  V30 16738 H 1535.95 3.46763 6.98123 0
M  V30 16739 N 1540.18 -0.899904 1.29381 0
M  V30 16740 C 1541.09 -2.03699 1.16378 0
M  V30 16741 C 1542.11 -1.73782 0.0870792 0
M  V30 16742 O 1543.28 -1.99167 0.299109 0
M  V30 16743 C 1540.35 -3.36341 0.841166 0
M  V30 16744 C 1539.41 -3.79778 2.00168 0
M  V30 16745 C 1538.64 -5.0609 1.69437 0
M  V30 16746 O 1538.86 -5.67073 0.615212 0
M  V30 16747 O 1537.8 -5.45574 2.54229 0
M  V30 16748 H 1541.62 -2.17592 2.11866 0
M  V30 16749 H 1539.21 -1.02353 1.08831 0
M  V30 16750 H 1541.09 -4.15946 0.675803 0
M  V30 16751 H 1539.77 -3.23591 -0.0839376 0
M  V30 16752 H 1538.67 -3.00941 2.22229 0
M  V30 16753 H 1540.01 -3.97111 2.90798 0
M  V30 16754 N 1541.66 -1.11854 -1.11024 0
M  V30 16755 C 1542.61 -0.780825 -2.17191 0
M  V30 16756 C 1543.58 0.249657 -1.64213 0
M  V30 16757 O 1544.76 0.125603 -1.90386 0
M  V30 16758 C 1541.9 -0.23491 -3.443 0
M  V30 16759 C 1541.01 -1.32247 -4.1126 0
M  V30 16760 C 1540.15 -0.736638 -5.26068 0
M  V30 16761 C 1539.19 -1.80375 -5.8492 0
M  V30 16762 N 1538.32 -1.23709 -6.91115 0
M  V30 16763 H 1543.16 -1.69031 -2.45423 0
M  V30 16764 H 1540.7 -0.844041 -1.20476 0
M  V30 16765 H 1542.66 0.0996064 -4.17081 0
M  V30 16766 H 1541.29 0.637752 -3.16437 0
M  V30 16767 H 1540.34 -1.77387 -3.36509 0
M  V30 16768 H 1541.65 -2.12965 -4.51051 0
M  V30 16769 H 1540.81 -0.352432 -6.05675 0
M  V30 16770 H 1539.55 0.101811 -4.87594 0
M  V30 16771 H 1538.55 -2.19721 -5.03987 0
M  V30 16772 H 1539.78 -2.64531 -6.2546 0
M  V30 16773 H 1537.72 -0.420357 -6.54652 0
M  V30 16774 H 1537.64 -1.98093 -7.29586 0
M  V30 16775 H 1538.91 -0.879912 -7.74518 0
M  V30 16776 N 1543.14 1.28707 -0.909517 0
M  V30 16777 C 1544.08 2.29396 -0.384756 0
M  V30 16778 C 1545.08 1.61179 0.521318 0
M  V30 16779 O 1546.28 1.7543 0.403032 0
M  V30 16780 H 1542.66 0.744518 -0.105814 0
M  V30 16781 H 1544.63 2.71089 -1.24714 0
M  V30 16782 C 1543.38 3.45792 0.363795 0
M  V30 16783 H 1542.7 3.98483 -0.324198 0
M  V30 16784 H 1544.14 4.18254 0.695681 0
M  V30 16785 C 1542.6 2.98075 1.57012 0
M  V30 16786 O 1543.13 3.00187 2.66929 0
M  V30 16787 N 1541.34 2.53787 1.41565 0
M  V30 16788 H 1540.88 2.52268 0.521415 0
M  V30 16789 H 1540.84 2.2222 2.22408 0
M  V30 16790 N 1544.61 0.673042 1.42506 0
M  V30 16791 C 1546.03 0.272049 1.84707 0
M  V30 16792 C 1546.38 -1.18545 1.56338 0
M  V30 16793 O 1545.5 -1.9073 1.02231 0
M  V30 16794 C 1546.1 0.486977 3.35282 0
M  V30 16795 C 1544.66 0.140122 3.76139 0
M  V30 16796 C 1543.8 0.780276 2.66096 0
M  V30 16797 H 1546.75 0.875329 1.32377 0
M  V30 16798 H 1546.77 -0.261443 3.79601 0
M  V30 16799 H 1546.29 1.54784 3.55898 0
M  V30 16800 H 1544.39 -0.917366 3.6113 0
M  V30 16801 H 1544.5 0.579417 4.75583 0
M  V30 16802 H 1542.86 0.211756 2.53818 0
M  V30 16803 H 1543.65 1.84456 2.89536 0
M  V30 16804 N 1546.09 -1.52004 0.416254 0
M  V30 16805 C 1547.34 -2.02188 -0.157434 0
M  V30 16806 C 1547.67 -1.30097 -1.44182 0
M  V30 16807 O 1546.95 -0.409426 -1.90142 0
M  V30 16808 C 1547.23 -3.57896 -0.397847 0
M  V30 16809 C 1547.08 -4.40628 0.903715 0
M  V30 16810 C 1548.4 -4.24072 -1.17689 0
M  V30 16811 H 1545.52 -0.734889 -0.0557437 0
M  V30 16812 H 1548.16 -1.81831 0.551118 0
M  V30 16813 H 1546.31 -3.75372 -1.00142 0
M  V30 16814 H 1547.98 -4.34848 1.53964 0
M  V30 16815 H 1546.23 -4.06556 1.5131 0
M  V30 16816 H 1546.9 -5.47673 0.689802 0
M  V30 16817 H 1549.37 -4.10738 -0.665832 0
M  V30 16818 H 1548.25 -5.32944 -1.31386 0
M  V30 16819 H 1548.51 -3.83507 -2.19942 0
M  V30 16820 N 1547.57 -0.146903 -1.56914 0
M  V30 16821 C 1548.5 0.823803 -2.13883 0
M  V30 16822 C 1549.52 1.21081 -1.08826 0
M  V30 16823 O 1550.7 1.15491 -1.36103 0
M  V30 16824 C 1547.8 2.11686 -2.64655 0
M  V30 16825 C 1546.98 1.89723 -3.94112 0
M  V30 16826 C 1546.04 3.03016 -4.30195 0
M  V30 16827 O 1545.06 2.74711 -4.9852 0
M  V30 16828 N 1546.26 4.30187 -3.89768 0
M  V30 16829 H 1549.03 0.336904 -2.978 0
M  V30 16830 H 1546.59 0.0366704 -1.61858 0
M  V30 16831 H 1548.58 2.86525 -2.85807 0
M  V30 16832 H 1547.15 2.51639 -1.85464 0
M  V30 16833 H 1546.37 0.989208 -3.81587 0
M  V30 16834 H 1547.66 1.72387 -4.78707 0
M  V30 16835 H 1547.06 4.56051 -3.34715 0
M  V30 16836 H 1545.62 5.01807 -4.15972 0
M  V30 16837 N 1549.05 1.57088 0.126881 0
M  V30 16838 C 1549.98 2.02799 1.15737 0
M  V30 16839 C 1550.96 0.911031 1.43646 0
M  V30 16840 O 1552.14 1.18021 1.54223 0
M  V30 16841 C 1549.27 2.42565 2.48555 0
M  V30 16842 C 1548.23 3.57631 2.35125 0
M  V30 16843 C 1547.55 3.83272 3.72836 0
M  V30 16844 C 1548.85 4.89625 1.81838 0
M  V30 16845 H 1550.55 2.89136 0.777207 0
M  V30 16846 H 1548.09 1.39101 0.372416 0
M  V30 16847 H 1550.05 2.73146 3.20888 0
M  V30 16848 H 1548.77 1.53188 2.88446 0
M  V30 16849 H 1547.43 3.27247 1.65242 0
M  V30 16850 H 1547.08 2.91114 4.10197 0
M  V30 16851 H 1546.78 4.60721 3.64705 0
M  V30 16852 H 1548.3 4.16298 4.46686 0
M  V30 16853 H 1549.72 5.18793 2.43981 0
M  V30 16854 H 1548.11 5.71018 1.84548 0
M  V30 16855 H 1549.18 4.7866 0.775385 0
M  V30 16856 N 1550.53 -0.396836 1.52522 0
M  V30 16857 C 1551.8 -1.15638 1.57757 0
M  V30 16858 C 1552.18 -2.07903 0.365998 0
M  V30 16859 O 1551.53 -2.1917 -0.646266 0
M  V30 16860 C 1551.74 -1.92292 2.91247 0
M  V30 16861 C 1553.09 -2.47929 3.44697 0
M  V30 16862 O 1554.11 -2.02458 2.93069 0
M  V30 16863 O 1552.97 -3.30969 4.34881 0
M  V30 16864 H 1550.07 -0.52867 0.635953 0
M  V30 16865 H 1552.61 -0.402622 1.64855 0
M  V30 16866 H 1551.38 -1.24775 3.70873 0
M  V30 16867 H 1551.01 -2.74646 2.87498 0
M  V30 16868 N 1552.01 -1.43353 -0.654814 0
M  V30 16869 C 1553.28 -1.35363 -1.41195 0
M  V30 16870 C 1553.66 -0.000661523 -2.111 0
M  V30 16871 O 1553.01 1.01583 -2.04678 0
M  V30 16872 C 1553.22 -2.53572 -2.39796 0
M  V30 16873 C 1554.57 -2.96587 -3.03844 0
M  V30 16874 O 1555.59 -2.53607 -2.50124 0
M  V30 16875 O 1554.45 -3.71039 -4.01239 0
M  V30 16876 H 1551.55 -0.534861 -0.630756 0
M  V30 16877 H 1554.09 -1.55399 -0.681857 0
M  V30 16878 H 1552.86 -3.43682 -1.87078 0
M  V30 16879 H 1552.49 -2.35628 -3.20258 0
M  V30 16880 N 1553.48 0.89303 -1.29857 0
M  V30 16881 C 1554.39 2.03079 -1.17457 0
M  V30 16882 C 1555.41 1.73733 -0.0962941 0
M  V30 16883 O 1556.59 1.99005 -0.309667 0
M  V30 16884 C 1553.65 3.3589 -0.858991 0
M  V30 16885 C 1552.71 3.78711 -2.0218 0
M  V30 16886 C 1551.94 5.05184 -1.72118 0
M  V30 16887 O 1552.17 5.66738 -0.645276 0
M  V30 16888 O 1551.1 5.44218 -2.57119 0
M  V30 16889 H 1554.93 2.16465 -2.13017 0
M  V30 16890 H 1552.51 1.01774 -1.09373 0
M  V30 16891 H 1554.39 4.15582 -0.697852 0
M  V30 16892 H 1553.07 3.23631 0.0667756 0
M  V30 16893 H 1551.98 2.99758 -2.23822 0
M  V30 16894 H 1553.31 3.95563 -2.929 0
M  V30 16895 N 1554.96 1.12442 1.10429 0
M  V30 16896 C 1556.21 0.878021 1.82031 0
M  V30 16897 C 1556.53 -0.597787 1.85611 0
M  V30 16898 O 1555.8 -1.43442 1.33422 0
M  V30 16899 H 1554.38 0.321839 0.674113 0
M  V30 16900 H 1557.04 1.41891 1.33615 0
M  V30 16901 H 1556.14 1.25957 2.85554 0
M  V30 16902 N 1556.44 -1.28223 0.91633 0
M  V30 16903 C 1557.69 -1.9448 0.549734 0
M  V30 16904 C 1558.01 -1.72465 -0.909999 0
M  V30 16905 O 1557.28 -1.06583 -1.64368 0
M  V30 16906 H 1555.86 -0.719641 0.200315 0
M  V30 16907 H 1558.52 -1.56156 1.16625 0
M  V30 16908 H 1557.62 -3.03044 0.746363 0
M  V30 16909 N 1557.92 -0.68059 -1.42147 0
M  V30 16910 C 1559.33 -0.350691 -1.55699 0
M  V30 16911 C 1559.53 1.1435 -1.6591 0
M  V30 16912 O 1558.59 1.92905 -1.62923 0
M  V30 16913 C 1559.9 -1.08608 -2.80401 0
M  V30 16914 C 1561.45 -1.06897 -2.9418 0
M  V30 16915 C 1561.93 -1.78581 -4.2175 0
M  V30 16916 N 1563.42 -1.75477 -4.28675 0
M  V30 16917 C 1564.15 -2.27794 -5.26211 0
M  V30 16918 N 1563.65 -2.88518 -6.29865 0
M  V30 16919 N 1565.44 -2.18135 -5.18048 0
M  V30 16920 H 1557.59 -1.64988 -1.33763 0
M  V30 16921 H 1559.85 -0.695411 -0.644289 0
M  V30 16922 H 1559.56 -2.14113 -2.79014 0
M  V30 16923 H 1559.43 -0.655022 -3.71469 0
M  V30 16924 H 1561.82 -0.0222464 -2.95092 0
M  V30 16925 H 1561.9 -1.53897 -2.04327 0
M  V30 16926 H 1561.55 -2.83225 -4.21599 0
M  V30 16927 H 1561.48 -1.29027 -5.10548 0
M  V30 16928 H 1563.97 -1.31191 -3.54397 0
M  V30 16929 H 1564.28 -3.26043 -7.00654 0
M  V30 16930 H 1562.63 -2.92589 -6.3041 0
M  V30 16931 H 1565.82 -1.7038 -4.35991 0
M  V30 16932 H 1565.99 -2.59213 -5.93896 0
M  V30 16933 N 1559.4 1.51781 -0.424309 0
M  V30 16934 C 1560.62 2.06387 0.145548 0
M  V30 16935 C 1561.04 1.29299 1.37576 0
M  V30 16936 O 1560.4 0.348952 1.79133 0
M  V30 16937 C 1560.45 3.58288 0.48083 0
M  V30 16938 O 1560.17 4.32463 -0.700546 0
M  V30 16939 C 1561.67 4.29364 1.10278 0
M  V30 16940 H 1558.89 0.67086 0.0136908 0
M  V30 16941 H 1561.43 1.95511 -0.599639 0
M  V30 16942 H 1559.59 3.69122 1.17591 0
M  V30 16943 H 1560 5.22839 -0.417035 0
M  V30 16944 H 1561.48 5.36776 1.28747 0
M  V30 16945 H 1561.95 3.86815 2.08017 0
M  V30 16946 H 1562.56 4.2294 0.447458 0
M  V30 16947 N 1560.87 0.155222 1.56834 0
M  V30 16948 C 1562.12 -0.493826 1.96386 0
M  V30 16949 C 1562.45 -1.6433 1.04048 0
M  V30 16950 O 1561.7 -1.9557 0.0713123 0
M  V30 16951 C 1562 -1.03346 3.42132 0
M  V30 16952 C 1561.67 -0.00157215 4.509 0
M  V30 16953 C 1560.33 0.282068 4.80373 0
M  V30 16954 C 1562.68 0.699684 5.16482 0
M  V30 16955 C 1560.01 1.27263 5.72731 0
M  V30 16956 C 1562.36 1.67912 6.09908 0
M  V30 16957 C 1561.03 1.97037 6.37756 0
M  V30 16958 H 1560.3 -0.180704 0.718629 0
M  V30 16959 H 1562.94 0.243789 1.89942 0
M  V30 16960 H 1561.25 -1.84857 3.45449 0
M  V30 16961 H 1562.95 -1.54437 3.70068 0
M  V30 16962 H 1559.54 -0.232824 4.27967 0
M  V30 16963 H 1563.72 0.493751 4.93838 0
M  V30 16964 H 1558.98 1.50464 5.92597 0
M  V30 16965 H 1563.15 2.22796 6.59799 0
M  V30 16966 H 1560.78 2.73944 7.09125 0
M  V30 16967 N 1562.35 -1.57153 -0.118549 0
M  V30 16968 C 1563.28 -2.03409 -1.1466 0
M  V30 16969 C 1564.26 -0.918636 -1.43161 0
M  V30 16970 O 1565.45 -1.18838 -1.53594 0
M  V30 16971 C 1562.58 -2.43879 -2.47265 0
M  V30 16972 C 1561.53 -3.58873 -2.33225 0
M  V30 16973 C 1560.86 -3.85244 -3.70798 0
M  V30 16974 C 1562.16 -4.90582 -1.79239 0
M  V30 16975 H 1563.85 -2.89545 -0.761862 0
M  V30 16976 H 1561.4 -1.39296 -0.365034 0
M  V30 16977 H 1563.35 -2.74844 -3.19435 0
M  V30 16978 H 1562.07 -1.54715 -2.8763 0
M  V30 16979 H 1560.73 -3.28119 -1.63504 0
M  V30 16980 H 1560.38 -2.93285 -4.08648 0
M  V30 16981 H 1560.08 -4.62649 -3.62257 0
M  V30 16982 H 1561.61 -4.18661 -4.44472 0
M  V30 16983 H 1563.02 -5.20079 -2.41227 0
M  V30 16984 H 1561.42 -5.71989 -1.81518 0
M  V30 16985 H 1562.49 -4.79065 -0.74999 0
M  V30 16986 N 1563.83 0.388742 -1.5273 0
M  V30 16987 C 1565.25 0.728828 -1.41987 0
M  V30 16988 C 1565.45 1.94116 -0.540493 0
M  V30 16989 O 1564.5 2.52496 -0.0140397 0
M  V30 16990 C 1565.81 0.963683 -2.8484 0
M  V30 16991 C 1567.36 1.06514 -2.94319 0
M  V30 16992 C 1567.84 1.33262 -4.38184 0
M  V30 16993 N 1569.33 1.40083 -4.4151 0
M  V30 16994 C 1570.06 1.62446 -5.49908 0
M  V30 16995 N 1569.56 1.82277 -6.68391 0
M  V30 16996 N 1571.35 1.64627 -5.37452 0
M  V30 16997 H 1563.5 -0.408984 -2.08425 0
M  V30 16998 H 1565.77 -0.120791 -0.940273 0
M  V30 16999 H 1565.47 0.144986 -3.51401 0
M  V30 17000 H 1565.35 1.87828 -3.27109 0
M  V30 17001 H 1567.73 1.8744 -2.27926 0
M  V30 17002 H 1567.81 0.12845 -2.55477 0
M  V30 17003 H 1567.46 0.528457 -5.05143 0
M  V30 17004 H 1567.39 2.28216 -4.74579 0
M  V30 17005 H 1569.88 1.26465 -3.56111 0
M  V30 17006 H 1570.19 1.98848 -7.46779 0
M  V30 17007 H 1568.54 1.79501 -6.7142 0
M  V30 17008 H 1571.73 1.48686 -4.43858 0
M  V30 17009 H 1571.9 1.81715 -6.22 0
M  V30 17010 N 1565.31 1.43698 0.647203 0
M  V30 17011 C 1566.55 1.45849 1.40911 0
M  V30 17012 C 1566.89 0.0846767 1.94015 0
M  V30 17013 O 1566.16 -0.89537 1.72665 0
M  V30 17014 C 1566.44 2.50579 2.58616 0
M  V30 17015 C 1566.3 3.97258 2.10965 0
M  V30 17016 C 1567.62 2.51981 3.60824 0
M  V30 17017 H 1564.74 0.531056 0.511027 0
M  V30 17018 H 1567.38 1.75283 0.733204 0
M  V30 17019 H 1565.53 2.25611 3.16278 0
M  V30 17020 H 1567.2 4.33304 1.58257 0
M  V30 17021 H 1565.44 4.09802 1.42284 0
M  V30 17022 H 1566.11 4.6616 2.95633 0
M  V30 17023 H 1568.59 2.7425 3.12932 0
M  V30 17024 H 1567.47 3.27191 4.40723 0
M  V30 17025 H 1567.73 1.55582 4.1382 0
M  V30 17026 N 1566.79 -0.886131 1.30328 0
M  V30 17027 C 1567.72 -2.00793 1.19183 0
M  V30 17028 C 1568.7 -1.69899 0.08276 0
M  V30 17029 O 1569.88 -1.92389 0.264593 0
M  V30 17030 C 1567.01 -3.35922 0.881669 0
M  V30 17031 C 1565.97 -3.81072 1.94855 0
M  V30 17032 C 1565.29 -5.1348 1.4914 0
M  V30 17033 C 1566.59 -3.99923 3.35944 0
M  V30 17034 H 1568.29 -2.10375 2.13032 0
M  V30 17035 H 1565.83 -1.0108 1.02561 0
M  V30 17036 H 1567.79 -4.13922 0.790359 0
M  V30 17037 H 1566.51 -3.26469 -0.0925037 0
M  V30 17038 H 1565.17 -3.053 2.02947 0
M  V30 17039 H 1564.82 -5.00453 0.50553 0
M  V30 17040 H 1564.52 -5.44659 2.205 0
M  V30 17041 H 1566.04 -5.94005 1.41386 0
M  V30 17042 H 1567.45 -4.68364 3.30617 0
M  V30 17043 H 1565.85 -4.42477 4.05381 0
M  V30 17044 H 1566.92 -3.03816 3.77921 0
M  V30 17045 N 1568.26 -1.13026 -1.09832 0
M  V30 17046 C 1569.51 -0.884093 -1.81292 0
M  V30 17047 C 1569.83 0.591608 -1.86439 0
M  V30 17048 O 1571.03 0.954571 -2.54166 0
M  V30 17049 C 1569.49 -1.53207 -3.25662 0
M  V30 17050 C 1569.1 -3.043 -3.28794 0
M  V30 17051 C 1570.84 -1.36644 -4.01906 0
M  V30 17052 C 1568.75 -3.62003 -4.67662 0
M  V30 17053 H 1567.68 -0.327101 -0.679353 0
M  V30 17054 H 1570.33 -1.35748 -1.2347 0
M  V30 17055 H 1568.71 -0.986353 -3.83519 0
M  V30 17056 H 1569.88 -3.65418 -2.80725 0
M  V30 17057 H 1568.2 -3.20332 -2.66038 0
M  V30 17058 H 1570.8 -1.7717 -5.04495 0
M  V30 17059 H 1571.14 -0.310809 -4.15138 0
M  V30 17060 H 1571.67 -1.88172 -3.5048 0
M  V30 17061 H 1568.41 -4.67354 -4.59631 0
M  V30 17062 H 1567.93 -3.05663 -5.16072 0
M  V30 17063 H 1569.61 -3.61432 -5.36634 0
M  V30 17064 N 1569.74 1.27735 -0.923117 0
M  V30 17065 C 1570.69 2.24644 -0.389748 0
M  V30 17066 C 1571.68 1.52822 0.50341 0
M  V30 17067 O 1572.87 1.73672 0.341602 0
M  V30 17068 C 1570 3.41402 0.360535 0
M  V30 17069 C 1569.08 4.20533 -0.548877 0
M  V30 17070 N 1569.47 4.77552 -1.66667 0
M  V30 17071 C 1567.77 4.44617 -0.35102 0
M  V30 17072 C 1568.47 5.37179 -2.23191 0
M  V30 17073 N 1567.45 5.21857 -1.52204 0
M  V30 17074 H 1571.25 2.66308 -1.24328 0
M  V30 17075 H 1568.77 1.42614 -0.776856 0
M  V30 17076 H 1570.76 4.09922 0.759555 0
M  V30 17077 H 1569.42 3.0127 1.21105 0
M  V30 17078 H 1570.43 4.75638 -2.04912 0
M  V30 17079 H 1567.11 4.14967 0.459214 0
M  V30 17080 H 1568.5 5.92274 -3.17272 0
M  V30 17081 N 1571.22 0.688118 1.41784 0
M  V30 17082 C 1572.15 0.0323199 2.33478 0
M  V30 17083 C 1573.13 -0.775145 1.51412 0
M  V30 17084 O 1574.32 -0.72962 1.79973 0
M  V30 17085 C 1571.45 -0.910141 3.35162 0
M  V30 17086 C 1570.4 -0.210312 4.27483 0
M  V30 17087 C 1569.73 -1.26662 5.19481 0
M  V30 17088 C 1571.03 0.918839 5.14154 0
M  V30 17089 H 1572.72 0.798138 2.88566 0
M  V30 17090 H 1570.27 0.385262 1.38751 0
M  V30 17091 H 1572.22 -1.3781 3.98229 0
M  V30 17092 H 1570.94 -1.70754 2.78408 0
M  V30 17093 H 1569.6 0.237544 3.6583 0
M  V30 17094 H 1569.25 -2.05635 4.59046 0
M  V30 17095 H 1568.95 -0.803416 5.82082 0
M  V30 17096 H 1570.47 -1.73524 5.85424 0
M  V30 17097 H 1571.89 0.531499 5.70831 0
M  V30 17098 H 1570.29 1.30867 5.85657 0
M  V30 17099 H 1571.36 1.7618 4.51762 0
M  V30 17100 N 1572.7 -1.51554 0.432352 0
M  V30 17101 C 1573.95 -2.01232 -0.137255 0
M  V30 17102 C 1574.26 -1.32135 -1.44221 0
M  V30 17103 O 1575.47 -1.72756 -2.09446 0
M  V30 17104 C 1573.92 -3.58688 -0.295152 0
M  V30 17105 C 1573.53 -4.36718 0.999072 0
M  V30 17106 C 1575.27 -4.16528 -0.818798 0
M  V30 17107 C 1573.18 -5.85867 0.80709 0
M  V30 17108 H 1572.11 -0.751986 -0.0550696 0
M  V30 17109 H 1574.76 -1.74703 0.561352 0
M  V30 17110 H 1573.14 -3.81643 -1.05664 0
M  V30 17111 H 1574.32 -4.25512 1.76851 0
M  V30 17112 H 1572.63 -3.90306 1.45087 0
M  V30 17113 H 1575.23 -5.25664 -0.978841 0
M  V30 17114 H 1575.57 -3.75379 -1.79989 0
M  V30 17115 H 1576.11 -3.97632 -0.11575 0
M  V30 17116 H 1572.85 -6.31419 1.76041 0
M  V30 17117 H 1572.37 -5.9975 0.0773617 0
M  V30 17118 H 1574.04 -6.45375 0.458328 0
M  V30 17119 N 1574.18 -0.163538 -1.56749 0
M  V30 17120 C 1575.11 0.808257 -2.13407 0
M  V30 17121 C 1576.09 1.23124 -1.06204 0
M  V30 17122 O 1577.27 1.3244 -1.34134 0
M  V30 17123 C 1574.4 2.08743 -2.66728 0
M  V30 17124 C 1573.44 1.80909 -3.86231 0
M  V30 17125 S 1574.28 0.985273 -5.26358 0
M  V30 17126 C 1575.43 2.27528 -5.8308 0
M  V30 17127 H 1575.67 0.326505 -2.95502 0
M  V30 17128 H 1573.2 0.0510128 -1.54316 0
M  V30 17129 H 1575.16 2.8222 -2.98097 0
M  V30 17130 H 1573.82 2.54032 -1.84733 0
M  V30 17131 H 1573.01 2.75802 -4.21841 0
M  V30 17132 H 1572.61 1.15532 -3.55708 0
M  V30 17133 H 1574.91 3.23053 -5.95519 0
M  V30 17134 H 1575.85 1.96399 -6.80318 0
M  V30 17135 H 1576.26 2.38933 -5.1144 0
M  V30 17136 N 1575.65 1.57214 0.110213 0
M  V30 17137 C 1576.6 1.97409 1.14077 0
M  V30 17138 C 1577.59 0.850322 1.36596 0
M  V30 17139 O 1578.78 1.11407 1.3754 0
M  V30 17140 C 1575.91 2.38936 2.46505 0
M  V30 17141 C 1575 3.57965 2.27424 0
M  V30 17142 N 1575.39 4.73379 1.78175 0
M  V30 17143 C 1573.68 3.63768 2.58048 0
M  V30 17144 C 1574.39 5.55376 1.73009 0
M  V30 17145 N 1573.36 4.98115 2.17675 0
M  V30 17146 H 1577.16 2.84098 0.752688 0
M  V30 17147 H 1574.68 1.59259 0.317845 0
M  V30 17148 H 1576.67 2.65953 3.21052 0
M  V30 17149 H 1575.33 1.53616 2.86063 0
M  V30 17150 H 1576.35 4.96424 1.47593 0
M  V30 17151 H 1573.02 2.89076 3.01233 0
M  V30 17152 H 1574.41 6.57969 1.36112 0
M  V30 17153 N 1577.13 -0.380637 1.52934 0
M  V30 17154 C 1578.41 -1.13958 1.58975 0
M  V30 17155 C 1578.79 -2.07503 0.388028 0
M  V30 17156 O 1578.14 -2.19844 -0.622984 0
M  V30 17157 C 1578.35 -1.89192 2.9327 0
M  V30 17158 C 1579.7 -2.44259 3.47308 0
M  V30 17159 O 1580.72 -1.99338 2.95199 0
M  V30 17160 O 1579.58 -3.26338 4.38367 0
M  V30 17161 H 1576.67 -0.521896 0.641525 0
M  V30 17162 H 1579.22 -0.385114 1.65272 0
M  V30 17163 H 1577.99 -1.20834 3.72176 0
M  V30 17164 H 1577.61 -2.71581 2.90395 0
M  V30 17165 N 1578.61 -1.44039 -0.639573 0
M  V30 17166 C 1579.84 -1.49626 -1.42462 0
M  V30 17167 C 1580.25 -0.117078 -1.88837 0
M  V30 17168 O 1579.59 0.885666 -1.6094 0
M  V30 17169 C 1579.65 -2.39182 -2.68388 0
M  V30 17170 C 1579.32 -3.86496 -2.43865 0
M  V30 17171 C 1580.31 -4.7725 -2.06224 0
M  V30 17172 C 1578 -4.31117 -2.57766 0
M  V30 17173 C 1579.99 -6.10625 -1.82801 0
M  V30 17174 C 1577.68 -5.64541 -2.33958 0
M  V30 17175 C 1578.68 -6.54113 -1.96533 0
M  V30 17176 O 1578.37 -7.85068 -1.72983 0
M  V30 17177 H 1578.1 -0.510054 -0.443645 0
M  V30 17178 H 1580.65 -1.89593 -0.790162 0
M  V30 17179 H 1578.88 -1.94127 -3.34442 0
M  V30 17180 H 1580.57 -2.35816 -3.30372 0
M  V30 17181 H 1581.34 -4.44051 -1.95048 0
M  V30 17182 H 1577.22 -3.61663 -2.85868 0
M  V30 17183 H 1580.76 -6.80499 -1.53514 0
M  V30 17184 H 1576.66 -5.97304 -2.44741 0
M  V30 17185 H 1577.43 -7.96782 -1.87298 0
M  V30 17186 N 1580.09 0.879207 -1.30796 0
M  V30 17187 C 1581.5 1.44705 -1.17972 0
M  V30 17188 C 1581.85 1.94992 0.217381 0
M  V30 17189 O 1580.98 1.85494 1.11449 0
M  V30 17190 C 1581.57 2.6302 -2.13555 0
M  V30 17191 C 1580.13 3.15877 -2.04692 0
M  V30 17192 C 1579.28 1.88576 -2.03309 0
M  V30 17193 H 1582.23 0.688604 -1.42982 0
M  V30 17194 H 1582.25 3.39418 -1.71976 0
M  V30 17195 H 1581.76 2.2639 -3.15229 0
M  V30 17196 H 1579.86 3.57151 -1.0618 0
M  V30 17197 H 1579.97 3.78786 -2.93357 0
M  V30 17198 H 1578.34 2.0715 -1.48192 0
M  V30 17199 H 1579.12 1.54195 -3.06723 0
M  V30 17200 N 1581.57 1.13606 1.09231 0
M  V30 17201 C 1582.98 0.91148 1.62938 0
M  V30 17202 C 1583.33 -0.55157 1.88287 0
M  V30 17203 O 1582.45 -1.4187 1.63407 0
M  V30 17204 C 1583.05 1.64812 2.96011 0
M  V30 17205 C 1581.61 1.46935 3.46536 0
M  V30 17206 C 1580.76 1.67605 2.20916 0
M  V30 17207 H 1583.71 1.28907 0.925669 0
M  V30 17208 H 1583.73 1.10638 3.6406 0
M  V30 17209 H 1583.24 2.71291 2.77529 0
M  V30 17210 H 1581.34 0.427667 3.70138 0
M  V30 17211 H 1581.45 2.23374 4.2384 0
M  V30 17212 H 1579.82 1.10105 2.29672 0
M  V30 17213 H 1580.6 2.75408 2.04952 0
M  V30 17214 N 1583.05 -1.27244 0.929878 0
M  V30 17215 C 1583.98 -2.29161 0.448066 0
M  V30 17216 C 1584.96 -1.62806 -0.492776 0
M  V30 17217 O 1586.14 -1.90098 -0.39706 0
M  V30 17218 C 1583.27 -3.46019 -0.298002 0
M  V30 17219 C 1582.23 -4.24384 0.555211 0
M  V30 17220 C 1581.55 -5.33741 -0.320153 0
M  V30 17221 C 1582.85 -4.89535 1.8208 0
M  V30 17222 H 1584.55 -2.69712 1.29983 0
M  V30 17223 H 1582.09 -1.29659 0.626466 0
M  V30 17224 H 1584.04 -4.16419 -0.646024 0
M  V30 17225 H 1582.77 -3.0439 -1.18381 0
M  V30 17226 H 1581.43 -3.55733 0.885971 0
M  V30 17227 H 1581.08 -4.88354 -1.20498 0
M  V30 17228 H 1580.78 -5.8708 0.247241 0
M  V30 17229 H 1582.3 -6.06982 -0.663697 0
M  V30 17230 H 1583.71 -5.52209 1.54071 0
M  V30 17231 H 1582.11 -5.52941 2.33186 0
M  V30 17232 H 1583.18 -4.13113 2.53901 0
M  V30 17233 N 1584.52 -0.695628 -1.41417 0
M  V30 17234 C 1585.45 -0.0447013 -2.33457 0
M  V30 17235 C 1586.43 0.767104 -1.51821 0
M  V30 17236 O 1587.62 0.720066 -1.80357 0
M  V30 17237 C 1584.75 0.892353 -3.3564 0
M  V30 17238 C 1583.7 0.187638 -4.27588 0
M  V30 17239 C 1583.03 1.23906 -5.20146 0
M  V30 17240 C 1584.33 -0.946093 -5.1366 0
M  V30 17241 H 1586.02 -0.81343 -2.88138 0
M  V30 17242 H 1583.57 -0.392614 -1.38544 0
M  V30 17243 H 1585.52 1.35696 -3.98954 0
M  V30 17244 H 1584.25 1.69275 -2.79309 0
M  V30 17245 H 1582.91 -0.256942 -3.65698 0
M  V30 17246 H 1582.55 2.03198 -4.6013 0
M  V30 17247 H 1582.25 0.772536 -5.82499 0
M  V30 17248 H 1583.78 1.70417 -5.86336 0
M  V30 17249 H 1585.19 -0.561764 -5.70541 0
M  V30 17250 H 1583.59 -1.33971 -5.84954 0
M  V30 17251 H 1584.66 -1.78573 -4.50821 0
M  V30 17252 N 1586 1.51322 -0.440383 0
M  V30 17253 C 1587.23 2.07017 0.126018 0
M  V30 17254 C 1587.65 1.30537 1.35431 0
M  V30 17255 O 1587.01 0.344178 1.78003 0
M  V30 17256 C 1587.06 3.58101 0.4238 0
M  V30 17257 O 1586.16 3.83772 1.50973 0
M  V30 17258 H 1585.5 0.664 0.000530178 0
M  V30 17259 H 1588.03 1.94897 -0.622594 0
M  V30 17260 H 1588.04 4.02405 0.673363 0
M  V30 17261 H 1586.72 4.13191 -0.473932 0
M  V30 17262 H 1585.29 3.51329 1.24989 0
M  V30 17263 N 1587.48 0.171848 1.5666 0
M  V30 17264 C 1588.73 -0.472034 1.9651 0
M  V30 17265 C 1589.05 -1.63743 1.05893 0
M  V30 17266 O 1588.32 -1.95498 0.125396 0
M  V30 17267 H 1586.9 -0.177377 0.725635 0
M  V30 17268 H 1589.56 0.253155 1.93249 0
M  V30 17269 H 1588.66 -0.831693 3.00814 0
M  V30 17270 N 1588.96 -1.5727 -0.101874 0
M  V30 17271 C 1589.92 -2.00625 -1.10826 0
M  V30 17272 C 1590.92 -0.89878 -1.33336 0
M  V30 17273 O 1592.11 -1.16442 -1.29564 0
M  V30 17274 C 1589.24 -2.36113 -2.45893 0
M  V30 17275 H 1590.44 -2.90748 -0.735238 0
M  V30 17276 H 1587.99 -1.52406 -0.346713 0
M  V30 17277 H 1588.72 -1.48923 -2.88084 0
M  V30 17278 H 1588.51 -3.169 -2.30904 0
M  V30 17279 H 1590 -2.70336 -3.1829 0
M  V30 17280 N 1590.44 0.372521 -1.53134 0
M  V30 17281 C 1591.37 1.4621 -1.82057 0
M  V30 17282 C 1592.35 1.56194 -0.673612 0
M  V30 17283 O 1593.53 1.70875 -0.922797 0
M  V30 17284 C 1590.66 2.83632 -2.00425 0
M  V30 17285 C 1589.62 2.88478 -3.16171 0
M  V30 17286 C 1588.94 4.28508 -3.19821 0
M  V30 17287 C 1590.24 2.56628 -4.54906 0
M  V30 17288 H 1591.94 1.22256 -2.73302 0
M  V30 17289 H 1589.48 0.586688 -1.31507 0
M  V30 17290 H 1591.43 3.59876 -2.19242 0
M  V30 17291 H 1590.16 3.0896 -1.05884 0
M  V30 17292 H 1588.82 2.14684 -2.97164 0
M  V30 17293 H 1588.47 4.509 -2.2293 0
M  V30 17294 H 1588.17 4.32667 -3.97584 0
M  V30 17295 H 1589.69 5.06635 -3.40813 0
M  V30 17296 H 1591.1 3.22587 -4.73931 0
M  V30 17297 H 1589.5 2.72114 -5.34859 0
M  V30 17298 H 1590.57 1.51902 -4.60493 0
M  V30 17299 N 1591.91 1.44376 0.631925 0
M  V30 17300 C 1592.85 1.47167 1.75711 0
M  V30 17301 C 1593.86 0.365158 1.58652 0
M  V30 17302 O 1595.05 0.630852 1.66981 0
M  V30 17303 C 1592.15 1.28916 3.13423 0
M  V30 17304 C 1591.32 2.52798 3.56948 0
M  V30 17305 C 1590.38 2.29458 4.73535 0
M  V30 17306 O 1589.41 3.02941 4.81887 0
M  V30 17307 N 1590.61 1.32467 5.65184 0
M  V30 17308 H 1593.37 2.44168 1.73788 0
M  V30 17309 H 1590.93 1.39805 0.816465 0
M  V30 17310 H 1592.93 1.1115 3.89137 0
M  V30 17311 H 1591.5 0.402828 3.09994 0
M  V30 17312 H 1590.72 2.85846 2.71451 0
M  V30 17313 H 1592 3.35198 3.82779 0
M  V30 17314 H 1591.4 0.717762 5.61128 0
M  V30 17315 H 1589.96 1.2068 6.40531 0
M  V30 17316 N 1593.39 -0.872258 1.31261 0
M  V30 17317 C 1594.32 -1.99517 1.21306 0
M  V30 17318 C 1595.3 -1.69801 0.100775 0
M  V30 17319 O 1596.49 -1.92098 0.284984 0
M  V30 17320 C 1593.62 -3.34968 0.917249 0
M  V30 17321 C 1592.57 -3.78984 1.98885 0
M  V30 17322 C 1591.9 -5.11869 1.54578 0
M  V30 17323 C 1593.2 -3.96338 3.40167 0
M  V30 17324 H 1594.89 -2.08104 2.15251 0
M  V30 17325 H 1592.44 -0.999865 1.03628 0
M  V30 17326 H 1594.39 -4.1306 0.834217 0
M  V30 17327 H 1593.11 -3.26549 -0.0578721 0
M  V30 17328 H 1591.77 -3.0313 2.06174 0
M  V30 17329 H 1591.42 -4.99889 0.558581 0
M  V30 17330 H 1591.12 -5.4229 2.26265 0
M  V30 17331 H 1592.65 -5.92472 1.47678 0
M  V30 17332 H 1594.06 -4.64831 3.35566 0
M  V30 17333 H 1592.46 -4.38153 4.10051 0
M  V30 17334 H 1593.53 -2.9979 3.81122 0
M  V30 17335 N 1594.87 -1.14184 -1.08627 0
M  V30 17336 C 1595.8 -0.849455 -2.17501 0
M  V30 17337 C 1596.78 0.194617 -1.68983 0
M  V30 17338 O 1597.97 0.0517757 -1.94131 0
M  V30 17339 C 1595.1 -0.323685 -3.45788 0
M  V30 17340 C 1594.05 -1.30294 -4.07685 0
M  V30 17341 C 1593.38 -0.636575 -5.30897 0
M  V30 17342 C 1594.68 -2.66441 -4.49229 0
M  V30 17343 H 1596.37 -1.75987 -2.42217 0
M  V30 17344 H 1593.92 -0.847595 -1.16412 0
M  V30 17345 H 1595.87 -0.106754 -4.21265 0
M  V30 17346 H 1594.59 0.62215 -3.20619 0
M  V30 17347 H 1593.25 -1.50601 -3.34238 0
M  V30 17348 H 1592.9 0.314995 -5.02013 0
M  V30 17349 H 1592.6 -1.28998 -5.73266 0
M  V30 17350 H 1594.12 -0.429117 -6.0909 0
M  V30 17351 H 1595.54 -2.50055 -5.15893 0
M  V30 17352 H 1593.93 -3.28033 -5.02508 0
M  V30 17353 H 1595 -3.23486 -3.61226 0
M  V30 17354 N 1596.35 1.26749 -0.936613 0
M  V30 17355 C 1597.6 1.93964 -0.581754 0
M  V30 17356 C 1597.92 1.73532 0.878449 0
M  V30 17357 O 1597.18 1.06295 1.64316 0
M  V30 17358 C 1597.48 3.4678 -0.864789 0
M  V30 17359 C 1597.14 3.87344 -2.30815 0
M  V30 17360 C 1595.81 3.98129 -2.70271 0
M  V30 17361 C 1598.16 4.07752 -3.24634 0
M  V30 17362 C 1595.49 4.26717 -4.02653 0
M  V30 17363 C 1597.84 4.37827 -4.56607 0
M  V30 17364 C 1596.5 4.46826 -4.95886 0
M  V30 17365 H 1595.77 0.709763 -0.212879 0
M  V30 17366 H 1598.42 1.50648 -1.18226 0
M  V30 17367 H 1596.72 3.91378 -0.181699 0
M  V30 17368 H 1598.42 3.96942 -0.569065 0
M  V30 17369 H 1595.01 3.79492 -1.99207 0
M  V30 17370 H 1599.19 3.98852 -2.95349 0
M  V30 17371 H 1594.45 4.31895 -4.32755 0
M  V30 17372 H 1598.62 4.52565 -5.293 0
M  V30 17373 H 1596.25 4.68732 -5.98494 0
M  V30 17374 N 1597.83 0.703118 1.41046 0
M  V30 17375 C 1598.77 0.0425767 2.30761 0
M  V30 17376 C 1599.74 -0.763406 1.47517 0
M  V30 17377 O 1600.93 -0.7299 1.76287 0
M  V30 17378 C 1598.07 -0.882353 3.33629 0
M  V30 17379 C 1597.18 -0.0671799 4.31948 0
M  V30 17380 C 1596.32 -0.990443 5.21885 0
M  V30 17381 C 1595.36 -0.168622 6.11868 0
M  V30 17382 N 1594.49 -1.04609 6.94263 0
M  V30 17383 H 1599.33 0.813363 2.86685 0
M  V30 17384 H 1596.87 0.412804 1.41189 0
M  V30 17385 H 1598.83 -1.43273 3.91827 0
M  V30 17386 H 1597.46 -1.61946 2.79237 0
M  V30 17387 H 1596.51 0.600219 3.75635 0
M  V30 17388 H 1597.82 0.569624 4.95537 0
M  V30 17389 H 1596.98 -1.60979 5.84954 0
M  V30 17390 H 1595.71 -1.66109 4.5854 0
M  V30 17391 H 1594.72 0.463746 5.47841 0
M  V30 17392 H 1595.94 0.49834 6.77269 0
M  V30 17393 H 1593.89 -1.70262 6.33519 0
M  V30 17394 H 1593.81 -0.465036 7.54568 0
M  V30 17395 H 1595.08 -1.65201 7.61793 0
M  V30 17396 N 1599.3 -1.51086 0.448402 0
M  V30 17397 C 1600.25 -2.24885 -0.375609 0
M  V30 17398 C 1601.24 -1.27553 -0.980769 0
M  V30 17399 O 1602.43 -1.52583 -0.897076 0
M  V30 17400 C 1599.56 -3.10235 -1.47 0
M  V30 17401 C 1598.65 -4.15003 -0.873686 0
M  V30 17402 N 1599.04 -5.05799 -0.00756268 0
M  V30 17403 C 1597.33 -4.31182 -1.14009 0
M  V30 17404 C 1598.04 -5.80772 0.328514 0
M  V30 17405 N 1597.01 -5.42822 -0.290661 0
M  V30 17406 H 1600.81 -2.92446 0.291962 0
M  V30 17407 H 1598.33 -1.60287 0.261145 0
M  V30 17408 H 1600.32 -3.61691 -2.07328 0
M  V30 17409 H 1598.98 -2.44219 -2.13979 0
M  V30 17410 H 1600 -5.1665 0.359676 0
M  V30 17411 H 1596.67 -3.7639 -1.80656 0
M  V30 17412 H 1598.06 -6.63896 1.03399 0
M  V30 17413 N 1600.78 -0.180154 -1.56567 0
M  V30 17414 C 1602.03 0.46252 -1.97147 0
M  V30 17415 C 1602.36 1.62654 -1.06649 0
M  V30 17416 O 1601.61 1.95432 -0.102417 0
M  V30 17417 C 1601.91 0.978895 -3.43733 0
M  V30 17418 C 1601.58 -0.0701623 -4.50845 0
M  V30 17419 C 1600.24 -0.358456 -4.79863 0
M  V30 17420 C 1602.59 -0.781763 -5.15304 0
M  V30 17421 C 1599.92 -1.36359 -5.70634 0
M  V30 17422 C 1602.27 -1.77594 -6.0716 0
M  V30 17423 C 1600.94 -2.07159 -6.3454 0
M  V30 17424 H 1600.21 0.169248 -0.721413 0
M  V30 17425 H 1602.85 -0.273976 -1.8953 0
M  V30 17426 H 1601.16 1.79338 -3.48346 0
M  V30 17427 H 1602.85 1.4853 -3.72478 0
M  V30 17428 H 1599.44 0.164708 -4.28283 0
M  V30 17429 H 1603.63 -0.572254 -4.9299 0
M  V30 17430 H 1598.88 -1.59872 -5.90128 0
M  V30 17431 H 1603.06 -2.33265 -6.56171 0
M  V30 17432 H 1600.69 -2.85191 -7.04677 0
M  V30 17433 N 1602.26 1.57322 0.0935319 0
M  V30 17434 C 1603.49 1.90754 0.814111 0
M  V30 17435 C 1603.91 0.774571 1.71412 0
M  V30 17436 O 1603.27 -0.273775 1.79221 0
M  V30 17437 C 1603.32 3.23055 1.60211 0
M  V30 17438 O 1602.42 3.10755 2.71118 0
M  V30 17439 H 1601.76 0.625237 0.223552 0
M  V30 17440 H 1604.29 2.04486 0.068288 0
M  V30 17441 H 1604.3 3.56401 1.986 0
M  V30 17442 H 1602.98 4.05101 0.941607 0
M  V30 17443 H 1601.55 2.88926 2.35745 0
M  V30 17444 N 1603.74 -0.364395 1.53329 0
M  V30 17445 C 1604.67 -1.46658 1.76137 0
M  V30 17446 C 1605.68 -1.496 0.642166 0
M  V30 17447 O 1606.87 -1.53058 0.918452 0
M  V30 17448 C 1603.97 -2.85417 1.8273 0
M  V30 17449 C 1603.15 -3.06158 3.12388 0
M  V30 17450 C 1602.2 -4.25038 3.10208 0
M  V30 17451 O 1601.23 -4.20156 3.84002 0
M  V30 17452 N 1602.43 -5.32511 2.31111 0
M  V30 17453 H 1605.2 -1.27471 2.7124 0
M  V30 17454 H 1602.76 -0.554127 1.52122 0
M  V30 17455 H 1604.75 -3.63086 1.78748 0
M  V30 17456 H 1603.32 -2.97845 0.949058 0
M  V30 17457 H 1602.54 -2.16139 3.29663 0
M  V30 17458 H 1603.83 -3.16885 3.98072 0
M  V30 17459 H 1603.23 -5.39341 1.70669 0
M  V30 17460 H 1601.78 -6.08752 2.32946 0
M  V30 17461 N 1605.22 -1.44709 -0.62426 0
M  V30 17462 C 1606.63 -1.28747 -0.9432 0
M  V30 17463 C 1606.83 -0.228265 -2.00203 0
M  V30 17464 O 1605.89 0.383506 -2.49571 0
M  V30 17465 C 1607.2 -2.66124 -1.39995 0
M  V30 17466 C 1608.75 -2.73889 -1.51506 0
M  V30 17467 C 1609.22 -4.11751 -2.00562 0
M  V30 17468 N 1610.72 -4.13962 -2.07821 0
M  V30 17469 C 1611.45 -5.1749 -2.46964 0
M  V30 17470 N 1610.95 -6.31376 -2.85195 0
M  V30 17471 N 1612.74 -5.04846 -2.47158 0
M  V30 17472 H 1604.89 -2.12264 0.0758746 0
M  V30 17473 H 1607.15 -0.947566 -0.0286915 0
M  V30 17474 H 1606.86 -3.4474 -0.696203 0
M  V30 17475 H 1606.73 -2.93474 -2.36967 0
M  V30 17476 H 1609.12 -1.95587 -2.20975 0
M  V30 17477 H 1609.2 -2.50272 -0.528911 0
M  V30 17478 H 1608.85 -4.90532 -1.31685 0
M  V30 17479 H 1608.78 -4.32749 -3.0006 0
M  V30 17480 H 1611.27 -3.31771 -1.80933 0
M  V30 17481 H 1611.58 -7.06179 -3.13896 0
M  V30 17482 H 1609.92 -6.34804 -2.8293 0
M  V30 17483 H 1613.12 -4.14927 -2.16686 0
M  V30 17484 H 1613.29 -5.85651 -2.77339 0
M  V30 17485 N 1606.69 0.865285 -1.31722 0
M  V30 17486 C 1607.66 1.95449 -1.19718 0
M  V30 17487 C 1608.66 1.60329 -0.123025 0
M  V30 17488 O 1609.85 1.70168 -0.372643 0
M  V30 17489 C 1606.98 3.30421 -0.838718 0
M  V30 17490 H 1608.17 2.07522 -2.16506 0
M  V30 17491 H 1605.73 1.05416 -1.154 0
M  V30 17492 H 1606.46 3.24048 0.127797 0
M  V30 17493 H 1606.25 3.57286 -1.61522 0
M  V30 17494 H 1607.74 4.10274 -0.77876 0
M  V30 17495 N 1608.17 1.14759 1.0802 0
M  V30 17496 C 1609.08 0.851934 2.18585 0
M  V30 17497 C 1610.1 -0.16914 1.73176 0
M  V30 17498 O 1611.27 0.00330114 2.014 0
M  V30 17499 C 1608.34 0.337977 3.45049 0
M  V30 17500 C 1607.4 1.4221 4.05061 0
M  V30 17501 C 1606.63 0.932574 5.25489 0
M  V30 17502 O 1606.86 -0.224457 5.69958 0
M  V30 17503 O 1605.79 1.7133 5.77001 0
M  V30 17504 H 1609.62 1.77605 2.46354 0
M  V30 17505 H 1607.2 0.926159 1.17229 0
M  V30 17506 H 1609.08 0.0574734 4.21361 0
M  V30 17507 H 1607.76 -0.558363 3.18848 0
M  V30 17508 H 1606.67 1.75612 3.3032 0
M  V30 17509 H 1608 2.29311 4.3552 0
M  V30 17510 N 1609.65 -1.26251 0.943322 0
M  V30 17511 C 1610.9 -1.93939 0.592909 0
M  V30 17512 C 1611.23 -1.73814 -0.866155 0
M  V30 17513 O 1610.5 -1.07645 -1.61997 0
M  V30 17514 C 1610.79 -3.47653 0.938601 0
M  V30 17515 C 1610.64 -3.77053 2.45257 0
M  V30 17516 C 1611.96 -4.37736 0.455546 0
M  V30 17517 H 1609.08 -0.704367 0.21688 0
M  V30 17518 H 1611.72 -1.4908 1.17793 0
M  V30 17519 H 1609.87 -3.85992 0.440756 0
M  V30 17520 H 1611.54 -3.48417 3.0233 0
M  V30 17521 H 1609.79 -3.23055 2.89513 0
M  V30 17522 H 1610.46 -4.84506 2.64495 0
M  V30 17523 H 1612.93 -4.06635 0.882435 0
M  V30 17524 H 1611.81 -5.44075 0.72623 0
M  V30 17525 H 1612.07 -4.37377 -0.644508 0
M  V30 17526 N 1611.13 -0.710588 -1.40671 0
M  V30 17527 C 1612.06 -0.0694601 -2.33397 0
M  V30 17528 C 1613.04 0.750959 -1.52626 0
M  V30 17529 O 1614.23 0.700896 -1.81111 0
M  V30 17530 C 1611.36 0.856704 -3.36568 0
M  V30 17531 C 1610.31 0.142276 -4.27763 0
M  V30 17532 C 1609.64 1.18382 -5.21431 0
M  V30 17533 C 1610.94 -1.00052 -5.12627 0
M  V30 17534 H 1612.63 -0.843945 -2.87259 0
M  V30 17535 H 1610.18 -0.407287 -1.3812 0
M  V30 17536 H 1612.13 1.31457 -4.00371 0
M  V30 17537 H 1610.85 1.66303 -2.81089 0
M  V30 17538 H 1609.51 -0.295714 -3.65405 0
M  V30 17539 H 1609.16 1.98306 -4.62259 0
M  V30 17540 H 1608.86 0.71071 -5.83286 0
M  V30 17541 H 1610.38 1.64189 -5.88111 0
M  V30 17542 H 1611.8 -0.622246 -5.69913 0
M  V30 17543 H 1610.19 -1.40168 -5.83501 0
M  V30 17544 H 1611.26 -1.83345 -4.48902 0
M  V30 17545 N 1612.61 1.50847 -0.456408 0
M  V30 17546 C 1613.54 2.26004 0.381421 0
M  V30 17547 C 1614.55 1.30757 0.969872 0
M  V30 17548 O 1615.74 1.56375 0.86077 0
M  V30 17549 C 1612.84 3.01506 1.54748 0
M  V30 17550 C 1612.01 4.23997 1.07448 0
M  V30 17551 C 1611.07 4.81917 2.11288 0
M  V30 17552 O 1610.1 5.43238 1.69945 0
M  V30 17553 N 1611.3 4.67622 3.43962 0
M  V30 17554 H 1614.07 2.98545 -0.262823 0
M  V30 17555 H 1611.63 1.59347 -0.286357 0
M  V30 17556 H 1613.62 3.37137 2.23877 0
M  V30 17557 H 1612.19 2.31856 2.0967 0
M  V30 17558 H 1611.41 3.93642 0.209584 0
M  V30 17559 H 1612.7 5.03446 0.736144 0
M  V30 17560 H 1612.1 4.18821 3.8027 0
M  V30 17561 H 1610.65 5.07562 4.0893 0
M  V30 17562 N 1614.09 0.188454 1.56469 0
M  V30 17563 C 1615.05 -0.721282 2.17555 0
M  V30 17564 C 1616.05 -1.14579 1.1282 0
M  V30 17565 O 1617.24 -1.05996 1.38241 0
M  V30 17566 C 1614.37 -1.9839 2.77226 0
M  V30 17567 H 1615.56 -0.189218 2.99302 0
M  V30 17568 H 1613.12 -0.0611533 1.5618 0
M  V30 17569 H 1613.85 -2.55864 1.99259 0
M  V30 17570 H 1613.64 -1.68831 3.53891 0
M  V30 17571 H 1615.13 -2.63277 3.24153 0
M  V30 17572 N 1615.56 -1.5737 -0.0851874 0
M  V30 17573 C 1616.81 -1.86587 -0.786855 0
M  V30 17574 C 1617.14 -0.778357 -1.78247 0
M  V30 17575 O 1616.39 0.227053 -1.94378 0
M  V30 17576 C 1616.69 -3.22427 -1.54194 0
M  V30 17577 C 1616.36 -4.45627 -0.687542 0
M  V30 17578 C 1615.02 -4.79072 -0.452042 0
M  V30 17579 C 1617.37 -5.21115 -0.094224 0
M  V30 17580 C 1614.7 -5.85426 0.386477 0
M  V30 17581 C 1617.05 -6.28354 0.731673 0
M  V30 17582 C 1615.72 -6.60309 0.977172 0
M  V30 17583 H 1614.99 -0.682772 -0.28793 0
M  V30 17584 H 1617.63 -1.9144 -0.0480218 0
M  V30 17585 H 1615.94 -3.13304 -2.35261 0
M  V30 17586 H 1617.64 -3.42264 -2.08941 0
M  V30 17587 H 1614.23 -4.19443 -0.881212 0
M  V30 17588 H 1618.41 -4.95601 -0.263309 0
M  V30 17589 H 1613.67 -6.08589 0.58556 0
M  V30 17590 H 1617.84 -6.86014 1.19823 0
M  V30 17591 H 1615.47 -7.42548 1.6287 0
M  V30 17592 N 1617.04 0.356258 -1.53521 0
M  V30 17593 C 1617.99 1.43689 -1.80616 0
M  V30 17594 C 1618.96 1.52808 -0.651064 0
M  V30 17595 O 1620.14 1.68549 -0.894203 0
M  V30 17596 C 1617.28 2.80513 -2.01013 0
M  V30 17597 C 1616.4 2.80287 -3.2873 0
M  V30 17598 C 1615.53 4.08747 -3.39263 0
M  V30 17599 C 1614.57 4.02699 -4.60977 0
M  V30 17600 N 1613.71 5.22825 -4.68614 0
M  V30 17601 H 1618.55 1.19884 -2.72822 0
M  V30 17602 H 1616.08 0.580984 -1.35141 0
M  V30 17603 H 1618.04 3.60011 -2.10827 0
M  V30 17604 H 1616.67 3.02698 -1.12134 0
M  V30 17605 H 1615.72 1.92968 -3.27822 0
M  V30 17606 H 1617.04 2.71693 -4.18311 0
M  V30 17607 H 1616.19 4.96663 -3.4844 0
M  V30 17608 H 1614.93 4.20106 -2.47715 0
M  V30 17609 H 1613.93 3.13168 -4.51892 0
M  V30 17610 H 1615.16 3.92934 -5.53877 0
M  V30 17611 H 1613.11 5.34752 -3.79969 0
M  V30 17612 H 1613.02 5.16437 -5.52113 0
M  V30 17613 H 1614.29 6.12548 -4.82085 0
M  V30 17614 N 1618.52 1.45038 0.616577 0
M  V30 17615 C 1619.45 1.49023 1.7414 0
M  V30 17616 C 1620.46 0.381965 1.58256 0
M  V30 17617 O 1621.65 0.648527 1.66302 0
M  V30 17618 C 1618.75 1.32233 3.12038 0
M  V30 17619 C 1617.93 2.5657 3.54246 0
M  V30 17620 C 1616.99 2.34468 4.71075 0
M  V30 17621 O 1616.01 3.08035 4.78647 0
M  V30 17622 N 1617.21 1.38454 5.63747 0
M  V30 17623 H 1619.98 2.45997 1.71189 0
M  V30 17624 H 1617.54 1.40663 0.80159 0
M  V30 17625 H 1619.53 1.15271 3.87936 0
M  V30 17626 H 1618.1 0.435685 3.09549 0
M  V30 17627 H 1617.32 2.88709 2.68404 0
M  V30 17628 H 1618.61 3.39239 3.79203 0
M  V30 17629 H 1618.01 0.777236 5.60335 0
M  V30 17630 H 1616.56 1.27467 6.39215 0
M  V30 17631 N 1620 -0.858287 1.32179 0
M  V30 17632 C 1621.24 -1.6146 1.22713 0
M  V30 17633 C 1621.58 -1.93045 -0.211479 0
M  V30 17634 O 1620.85 -1.57034 -1.14764 0
M  V30 17635 C 1621.13 -2.93728 2.08317 0
M  V30 17636 C 1620.99 -2.68947 3.60538 0
M  V30 17637 C 1622.31 -3.94959 1.94153 0
M  V30 17638 H 1619.43 -0.585872 0.447128 0
M  V30 17639 H 1622.07 -0.99134 1.62088 0
M  V30 17640 H 1620.22 -3.4692 1.74867 0
M  V30 17641 H 1621.89 -2.22336 4.04183 0
M  V30 17642 H 1620.13 -2.02974 3.83385 0
M  V30 17643 H 1620.8 -3.63112 4.15756 0
M  V30 17644 H 1623.28 -3.51013 2.23449 0
M  V30 17645 H 1622.16 -4.85371 2.56332 0
M  V30 17646 H 1622.42 -4.32672 0.908132 0
M  V30 17647 N 1621.48 -1.1533 -1.07409 0
M  V30 17648 C 1622.41 -0.807289 -2.14512 0
M  V30 17649 C 1623.42 0.18043 -1.61797 0
M  V30 17650 O 1624.61 -0.042733 -1.78449 0
M  V30 17651 C 1621.71 -0.179338 -3.38425 0
M  V30 17652 C 1620.88 -1.20433 -4.20493 0
M  V30 17653 C 1619.94 -0.598268 -5.22788 0
M  V30 17654 O 1618.97 -1.26405 -5.54987 0
M  V30 17655 N 1620.17 0.620283 -5.77177 0
M  V30 17656 H 1622.93 -1.729 -2.44797 0
M  V30 17657 H 1620.5 -1.0491 -1.23311 0
M  V30 17658 H 1622.49 0.238867 -4.03994 0
M  V30 17659 H 1621.06 0.645706 -3.05858 0
M  V30 17660 H 1620.28 -1.79912 -3.5075 0
M  V30 17661 H 1621.57 -1.89642 -4.72137 0
M  V30 17662 H 1620.96 1.17958 -5.53265 0
M  V30 17663 H 1619.52 0.980853 -6.44378 0
M  V30 17664 N 1622.95 1.25748 -0.950004 0
M  V30 17665 C 1623.88 2.28419 -0.484467 0
M  V30 17666 C 1624.86 1.63569 0.466813 0
M  V30 17667 O 1626.05 1.90705 0.366766 0
M  V30 17668 C 1623.18 3.46449 0.242916 0
M  V30 17669 C 1622.13 4.23447 -0.622657 0
M  V30 17670 C 1621.46 5.34182 0.235199 0
M  V30 17671 C 1622.76 4.86576 -1.89845 0
M  V30 17672 H 1624.45 2.6761 -1.34257 0
M  V30 17673 H 1622 1.28646 -0.647014 0
M  V30 17674 H 1623.95 4.17394 0.579693 0
M  V30 17675 H 1622.68 3.06235 1.13523 0
M  V30 17676 H 1621.34 3.54279 -0.942453 0
M  V30 17677 H 1620.98 4.90209 1.12713 0
M  V30 17678 H 1620.68 5.86612 -0.340609 0
M  V30 17679 H 1622.21 6.07961 0.567048 0
M  V30 17680 H 1623.62 5.49688 -1.62837 0
M  V30 17681 H 1622.02 5.49162 -2.41954 0
M  V30 17682 H 1623.09 4.09021 -2.60441 0
M  V30 17683 N 1624.43 0.718038 1.40292 0
M  V30 17684 C 1625.36 0.0818367 2.33357 0
M  V30 17685 C 1626.34 -0.742854 1.53022 0
M  V30 17686 O 1627.53 -0.691281 1.8148 0
M  V30 17687 C 1624.66 -0.838843 3.37017 0
M  V30 17688 C 1623.61 -0.119589 4.27833 0
M  V30 17689 C 1622.94 -1.15615 5.22051 0
M  V30 17690 C 1624.24 1.02769 5.1209 0
M  V30 17691 H 1625.93 0.859167 2.86808 0
M  V30 17692 H 1623.48 0.414606 1.37902 0
M  V30 17693 H 1625.43 -1.29332 4.01063 0
M  V30 17694 H 1624.15 -1.6481 2.81967 0
M  V30 17695 H 1622.81 0.315088 3.65243 0
M  V30 17696 H 1622.46 -1.95852 4.63304 0
M  V30 17697 H 1622.16 -0.679767 5.83655 0
M  V30 17698 H 1623.69 -1.61068 5.88973 0
M  V30 17699 H 1625.1 0.652461 5.69575 0
M  V30 17700 H 1623.5 1.4326 5.82749 0
M  V30 17701 H 1624.57 1.85723 4.47923 0
M  V30 17702 N 1625.91 -1.50602 0.464402 0
M  V30 17703 C 1627.16 -2.02587 -0.0930295 0
M  V30 17704 C 1627.49 -1.34618 -1.3997 0
M  V30 17705 O 1626.76 -0.469711 -1.88743 0
M  V30 17706 C 1627.05 -3.5898 -0.283783 0
M  V30 17707 C 1626.9 -4.3753 1.04344 0
M  V30 17708 C 1628.22 -4.27602 -1.04138 0
M  V30 17709 H 1625.34 -0.73629 -0.0323356 0
M  V30 17710 H 1627.98 -1.79986 0.608687 0
M  V30 17711 H 1626.13 -3.78368 -0.881488 0
M  V30 17712 H 1627.8 -4.29729 1.67721 0
M  V30 17713 H 1626.05 -4.01536 1.64168 0
M  V30 17714 H 1626.72 -5.45201 0.863691 0
M  V30 17715 H 1629.19 -4.12649 -0.534822 0
M  V30 17716 H 1628.07 -5.36854 -1.14364 0
M  V30 17717 H 1628.33 -3.9031 -2.0763 0
M  V30 17718 N 1627.39 -0.19675 -1.56367 0
M  V30 17719 C 1628.61 0.450245 -2.02454 0
M  V30 17720 C 1629.04 1.54287 -1.07597 0
M  V30 17721 O 1628.4 1.81202 -0.0597529 0
M  V30 17722 C 1628.44 0.982087 -3.46969 0
M  V30 17723 O 1627.55 2.09489 -3.5523 0
M  V30 17724 H 1626.89 0.105022 -0.655642 0
M  V30 17725 H 1629.42 -0.308112 -2.02267 0
M  V30 17726 H 1629.43 1.29826 -3.86793 0
M  V30 17727 H 1628.1 0.18224 -4.15501 0
M  V30 17728 H 1626.68 1.78723 -3.27281 0
M  V30 17729 N 1628.87 1.57413 0.0768405 0
M  V30 17730 C 1629.81 2.04373 1.1106 0
M  V30 17731 C 1630.81 0.948127 1.40381 0
M  V30 17732 O 1632.01 1.13325 1.39848 0
M  V30 17733 H 1628.39 0.65156 0.375464 0
M  V30 17734 H 1630.36 2.90352 0.688348 0
M  V30 17735 C 1629.11 2.49914 2.41741 0
M  V30 17736 H 1628.43 3.33808 2.20027 0
M  V30 17737 H 1629.87 2.8653 3.12532 0
M  V30 17738 C 1628.33 1.37996 3.07341 0
M  V30 17739 O 1628.86 0.719242 3.95209 0
M  V30 17740 N 1627.07 1.12635 2.67884 0
M  V30 17741 H 1626.61 1.66545 1.96521 0
M  V30 17742 H 1626.57 0.37956 3.121 0
M  V30 17743 N 1630.34 -0.348112 1.53707 0
M  V30 17744 C 1631.28 -1.44781 1.77682 0
M  V30 17745 C 1632.29 -1.4891 0.657997 0
M  V30 17746 O 1633.48 -1.52075 0.934635 0
M  V30 17747 C 1630.58 -2.83463 1.85747 0
M  V30 17748 C 1629.75 -3.02827 3.15618 0
M  V30 17749 C 1628.81 -4.21724 3.14698 0
M  V30 17750 O 1627.84 -4.16059 3.88437 0
M  V30 17751 N 1629.04 -5.3003 2.36746 0
M  V30 17752 H 1631.8 -1.24587 2.72577 0
M  V30 17753 H 1629.36 -0.537961 1.52701 0
M  V30 17754 H 1631.36 -3.6117 1.82589 0
M  V30 17755 H 1629.93 -2.96822 0.980595 0
M  V30 17756 H 1629.15 -2.1263 3.31937 0
M  V30 17757 H 1630.43 -3.12645 4.01411 0
M  V30 17758 H 1629.83 -5.375 1.7638 0
M  V30 17759 H 1628.39 -6.06247 2.39389 0
M  V30 17760 N 1631.82 -1.45363 -0.608876 0
M  V30 17761 C 1633.1 -1.39787 -1.36817 0
M  V30 17762 C 1633.48 -0.067821 -2.10991 0
M  V30 17763 O 1632.83 0.950196 -2.07806 0
M  V30 17764 C 1633.04 -2.61073 -2.31608 0
M  V30 17765 C 1634.39 -3.06104 -2.94254 0
M  V30 17766 O 1635.41 -2.61436 -2.41929 0
M  V30 17767 O 1634.27 -3.83616 -3.89231 0
M  V30 17768 H 1631.36 -0.554657 -0.61342 0
M  V30 17769 H 1633.91 -1.57489 -0.632073 0
M  V30 17770 H 1632.68 -3.4946 -1.76049 0
M  V30 17771 H 1632.3 -2.45697 -3.126 0
M  V30 17772 N 1633.3 0.851265 -1.32632 0
M  V30 17773 C 1634.55 1.60807 -1.23568 0
M  V30 17774 C 1634.88 1.93155 0.201238 0
M  V30 17775 O 1634.15 1.5764 1.13929 0
M  V30 17776 C 1634.44 2.92619 -2.09872 0
M  V30 17777 C 1634.29 2.67031 -3.61959 0
M  V30 17778 C 1635.61 3.93924 -1.96244 0
M  V30 17779 H 1632.73 0.583492 -0.450229 0
M  V30 17780 H 1635.37 0.98273 -1.62611 0
M  V30 17781 H 1633.52 3.45988 -1.76704 0
M  V30 17782 H 1635.19 2.2019 -4.05357 0
M  V30 17783 H 1633.44 2.00938 -3.84456 0
M  V30 17784 H 1634.11 3.60902 -4.17676 0
M  V30 17785 H 1636.58 3.49823 -2.25307 0
M  V30 17786 H 1635.46 4.84005 -2.58902 0
M  V30 17787 H 1635.72 4.32185 -0.931065 0
M  V30 17788 N 1634.78 1.15898 1.06796 0
M  V30 17789 C 1636.06 0.847701 1.76276 0
M  V30 17790 C 1636.44 -0.655537 2.00664 0
M  V30 17791 O 1635.78 -1.60171 1.62964 0
M  V30 17792 C 1635.99 1.66475 3.06736 0
M  V30 17793 C 1637.34 1.87452 3.80982 0
M  V30 17794 O 1638.37 1.63298 3.16563 0
M  V30 17795 O 1637.22 2.27942 4.96694 0
M  V30 17796 H 1634.32 0.312308 0.765763 0
M  V30 17797 H 1636.86 1.26507 1.13111 0
M  V30 17798 H 1635.64 2.68508 2.84638 0
M  V30 17799 H 1635.26 1.24409 3.77635 0
M  V30 17800 N 1636.26 -1.25243 0.956659 0
M  V30 17801 C 1637.2 -2.2781 0.46963 0
M  V30 17802 C 1638.2 -1.63003 -0.461138 0
M  V30 17803 O 1639.4 -1.76805 -0.337644 0
M  V30 17804 H 1635.78 -0.740078 0.133374 0
M  V30 17805 H 1637.75 -2.66273 1.34689 0
M  V30 17806 C 1636.5 -3.46904 -0.235206 0
M  V30 17807 H 1635.82 -3.97006 0.471869 0
M  V30 17808 H 1637.26 -4.20548 -0.539969 0
M  V30 17809 C 1635.72 -3.03697 -1.45841 0
M  V30 17810 O 1636.25 -3.09887 -2.55603 0
M  V30 17811 N 1634.46 -2.58866 -1.32049 0
M  V30 17812 H 1634 -2.54029 -0.427428 0
M  V30 17813 H 1633.96 -2.30322 -2.14008 0
M  V30 17814 N 1637.73 -0.725468 -1.3991 0
M  V30 17815 C 1638.96 -0.278797 -2.0471 0
M  V30 17816 C 1639.37 1.08796 -1.54791 0
M  V30 17817 O 1638.72 1.69685 -0.703763 0
M  V30 17818 C 1638.78 -0.191732 -3.58988 0
M  V30 17819 C 1638.44 -1.49539 -4.31842 0
M  V30 17820 C 1639.44 -2.43925 -4.59126 0
M  V30 17821 C 1637.12 -1.75705 -4.70567 0
M  V30 17822 C 1639.12 -3.62717 -5.24133 0
M  V30 17823 C 1636.8 -2.94776 -5.35304 0
M  V30 17824 C 1637.8 -3.88104 -5.62018 0
M  V30 17825 O 1637.49 -5.05085 -6.25415 0
M  V30 17826 H 1637.22 -0.121262 -0.665035 0
M  V30 17827 H 1639.78 -0.987188 -1.80122 0
M  V30 17828 H 1638.01 0.572683 -3.82436 0
M  V30 17829 H 1639.7 0.22168 -4.05294 0
M  V30 17830 H 1640.46 -2.24977 -4.29663 0
M  V30 17831 H 1636.34 -1.03912 -4.49136 0
M  V30 17832 H 1639.88 -4.35579 -5.44901 0
M  V30 17833 H 1635.78 -3.13629 -5.64187 0
M  V30 17834 H 1636.55 -5.05294 -6.4391 0
M  V30 17835 N 1639.21 1.50354 -0.472382 0
M  V30 17836 C 1640.16 2.28555 0.321118 0
M  V30 17837 C 1641.13 1.33665 0.98605 0
M  V30 17838 O 1642.31 1.62603 0.998239 0
M  V30 17839 C 1639.45 3.15586 1.39641 0
M  V30 17840 C 1638.57 4.25508 0.746129 0
M  V30 17841 C 1637.7 4.99794 1.79943 0
M  V30 17842 C 1636.74 6.01589 1.12946 0
M  V30 17843 N 1635.88 6.69149 2.12567 0
M  V30 17844 H 1640.72 2.95913 -0.352051 0
M  V30 17845 H 1638.26 1.45926 -0.185461 0
M  V30 17846 H 1640.21 3.64397 2.03152 0
M  V30 17847 H 1638.84 2.50271 2.03873 0
M  V30 17848 H 1637.9 3.804 -0.00157718 0
M  V30 17849 H 1639.21 4.98326 0.217335 0
M  V30 17850 H 1638.36 5.5233 2.51031 0
M  V30 17851 H 1637.1 4.26684 2.36203 0
M  V30 17852 H 1636.11 5.48312 0.404207 0
M  V30 17853 H 1637.33 6.76672 0.573735 0
M  V30 17854 H 1635.28 5.9883 2.67841 0
M  V30 17855 H 1635.19 7.37847 1.64676 0
M  V30 17856 H 1636.46 7.26301 2.83031 0
M  V30 17857 N 1640.69 0.205039 1.56261 0
M  V30 17858 C 1641.62 -0.743854 2.16794 0
M  V30 17859 C 1642.64 -1.16959 1.13245 0
M  V30 17860 O 1643.83 -1.1036 1.40296 0
M  V30 17861 C 1640.93 -2.01717 2.7233 0
M  V30 17862 C 1640.1 -1.74965 4.00882 0
M  V30 17863 C 1639.16 -2.86841 4.41145 0
M  V30 17864 O 1638.18 -2.5602 5.08372 0
M  V30 17865 N 1639.39 -4.15425 4.05466 0
M  V30 17866 H 1642.15 -0.226145 2.98846 0
M  V30 17867 H 1639.71 0.0234276 1.61883 0
M  V30 17868 H 1641.7 -2.7572 2.96244 0
M  V30 17869 H 1640.27 -2.44582 1.94675 0
M  V30 17870 H 1639.49 -0.846903 3.84995 0
M  V30 17871 H 1640.78 -1.54501 4.84775 0
M  V30 17872 H 1640.18 -4.43314 3.5141 0
M  V30 17873 H 1638.74 -4.86023 4.3431 0
M  V30 17874 N 1642.17 -1.57451 -0.0684915 0
M  V30 17875 C 1643.42 -1.86595 -0.765856 0
M  V30 17876 C 1643.73 -0.798157 -1.78574 0
M  V30 17877 O 1644.94 -0.977541 -2.53291 0
M  V30 17878 C 1643.39 -3.31001 -1.41302 0
M  V30 17879 C 1643 -4.45917 -0.431528 0
M  V30 17880 C 1644.75 -3.6934 -2.09256 0
M  V30 17881 C 1642.65 -5.81366 -1.08479 0
M  V30 17882 H 1641.58 -0.696092 -0.289778 0
M  V30 17883 H 1644.23 -1.8349 -0.0192171 0
M  V30 17884 H 1642.62 -3.28728 -2.20803 0
M  V30 17885 H 1643.79 -4.59589 0.333913 0
M  V30 17886 H 1642.1 -4.16152 0.143743 0
M  V30 17887 H 1644.7 -4.67833 -2.58913 0
M  V30 17888 H 1645.04 -2.99308 -2.89344 0
M  V30 17889 H 1645.58 -3.73618 -1.36581 0
M  V30 17890 H 1642.32 -6.54698 -0.324162 0
M  V30 17891 H 1641.84 -5.71488 -1.82102 0
M  V30 17892 H 1643.52 -6.26811 -1.60367 0
M  V30 17893 N 1643.65 0.339955 -1.5389 0
M  V30 17894 C 1644.59 1.41765 -1.8213 0
M  V30 17895 C 1645.56 1.52109 -0.667235 0
M  V30 17896 O 1646.75 1.67591 -0.91203 0
M  V30 17897 C 1643.89 2.78366 -2.03977 0
M  V30 17898 C 1643 2.76785 -3.31684 0
M  V30 17899 C 1642.14 4.05125 -3.4358 0
M  V30 17900 C 1641.18 3.97787 -4.65223 0
M  V30 17901 N 1640.31 5.17825 -4.74133 0
M  V30 17902 H 1645.15 1.16984 -2.74078 0
M  V30 17903 H 1642.69 0.566618 -1.35749 0
M  V30 17904 H 1644.65 3.57755 -2.14633 0
M  V30 17905 H 1643.28 3.01491 -1.15338 0
M  V30 17906 H 1642.33 1.89481 -3.2985 0
M  V30 17907 H 1643.64 2.67241 -4.2117 0
M  V30 17908 H 1642.8 4.9294 -3.53688 0
M  V30 17909 H 1641.54 4.17455 -2.52157 0
M  V30 17910 H 1640.54 3.08357 -4.55188 0
M  V30 17911 H 1641.77 3.87037 -5.58014 0
M  V30 17912 H 1639.71 5.30691 -3.8562 0
M  V30 17913 H 1639.63 5.10552 -5.5756 0
M  V30 17914 H 1640.9 6.074 -4.88554 0
M  V30 17915 N 1645.13 1.45684 0.601159 0
M  V30 17916 C 1646.09 1.54451 1.69344 0
M  V30 17917 C 1647.09 0.423379 1.55126 0
M  V30 17918 O 1648.28 0.687079 1.60078 0
M  V30 17919 C 1645.41 1.4472 3.08657 0
M  V30 17920 H 1646.6 2.51778 1.62935 0
M  V30 17921 H 1644.16 1.3322 0.81744 0
M  V30 17922 H 1644.89 0.486027 3.20637 0
M  V30 17923 H 1644.68 2.26045 3.20384 0
M  V30 17924 H 1646.17 1.53902 3.88206 0
M  V30 17925 N 1646.6 -0.84422 1.33082 0
M  V30 17926 C 1647.88 -1.58339 1.1484 0
M  V30 17927 C 1648.26 -2.09136 -0.287273 0
M  V30 17928 O 1647.61 -1.8891 -1.2855 0
M  V30 17929 C 1647.82 -2.72141 2.18496 0
M  V30 17930 C 1649.17 -3.41457 2.52373 0
M  V30 17931 O 1650.19 -2.82377 2.17122 0
M  V30 17932 O 1649.05 -4.48096 3.12845 0
M  V30 17933 H 1646.14 -0.697813 0.443831 0
M  V30 17934 H 1648.69 -0.88744 1.44646 0
M  V30 17935 H 1647.46 -2.32206 3.14954 0
M  V30 17936 H 1647.08 -3.49404 1.89744 0
M  V30 17937 N 1648.08 -1.16463 -1.0618 0
M  V30 17938 C 1649.01 -0.895399 -2.1565 0
M  V30 17939 C 1649.99 0.158729 -1.69358 0
M  V30 17940 O 1651.18 0.010586 -1.94197 0
M  V30 17941 C 1648.31 -0.396959 -3.45024 0
M  V30 17942 C 1647.26 -1.38913 -4.0483 0
M  V30 17943 C 1646.59 -0.749043 -5.29427 0
M  V30 17944 C 1647.89 -2.7591 -4.43476 0
M  V30 17945 H 1649.58 -1.81085 -2.38429 0
M  V30 17946 H 1647.13 -0.872098 -1.14588 0
M  V30 17947 H 1649.08 -0.196086 -4.20944 0
M  V30 17948 H 1647.8 0.554002 -3.21867 0
M  V30 17949 H 1646.46 -1.57657 -3.30968 0
M  V30 17950 H 1646.11 0.208439 -5.02568 0
M  V30 17951 H 1645.81 -1.41128 -5.704 0
M  V30 17952 H 1647.34 -0.558217 -6.08043 0
M  V30 17953 H 1648.75 -2.60942 -5.10473 0
M  V30 17954 H 1647.15 -3.38618 -4.95437 0
M  V30 17955 H 1648.22 -3.31076 -3.54284 0
M  V30 17956 N 1649.56 1.24734 -0.963288 0
M  V30 17957 C 1650.84 1.88004 -0.539809 0
M  V30 17958 C 1651.22 1.86814 0.983035 0
M  V30 17959 O 1650.56 1.33769 1.85251 0
M  V30 17960 C 1650.77 3.30326 -1.1263 0
M  V30 17961 C 1652.12 4.07039 -1.20848 0
M  V30 17962 O 1653.15 3.3948 -1.07849 0
M  V30 17963 O 1652.01 5.27906 -1.41342 0
M  V30 17964 H 1649.1 0.807318 -0.17935 0
M  V30 17965 H 1651.65 1.3274 -1.05727 0
M  V30 17966 H 1650.42 3.25668 -2.16925 0
M  V30 17967 H 1650.04 3.93159 -0.592614 0
M  V30 17968 N 1651.04 0.732878 1.39523 0
M  V30 17969 C 1651.97 0.0519358 2.29141 0
M  V30 17970 C 1652.98 -0.705687 1.4671 0
M  V30 17971 O 1654.17 -0.550202 1.69809 0
M  V30 17972 C 1651.27 -0.950691 3.25292 0
M  V30 17973 C 1650.44 -0.255028 4.36656 0
M  V30 17974 C 1649.5 -1.16546 5.13131 0
M  V30 17975 O 1648.53 -0.643742 5.65548 0
M  V30 17976 N 1649.73 -2.49534 5.24131 0
M  V30 17977 H 1652.5 0.8215 2.88221 0
M  V30 17978 H 1650.06 0.581924 1.5108 0
M  V30 17979 H 1652.05 -1.56232 3.73328 0
M  V30 17980 H 1650.62 -1.62148 2.67258 0
M  V30 17981 H 1649.84 0.537045 3.90525 0
M  V30 17982 H 1651.13 0.227162 5.08293 0
M  V30 17983 H 1650.53 -2.944 4.83058 0
M  V30 17984 H 1649.08 -3.05798 5.75613 0
M  V30 17985 N 1652.52 -1.50101 0.480349 0
M  V30 17986 C 1653.45 -2.31581 -0.298718 0
M  V30 17987 C 1654.43 -1.38905 -0.981798 0
M  V30 17988 O 1655.61 -1.67823 -0.977188 0
M  V30 17989 C 1652.74 -3.18891 -1.37571 0
M  V30 17990 C 1651.7 -4.20194 -0.813704 0
M  V30 17991 C 1651.02 -4.96302 -1.98968 0
M  V30 17992 C 1652.32 -5.21985 0.181295 0
M  V30 17993 H 1654.02 -2.96961 0.381349 0
M  V30 17994 H 1651.56 -1.42809 0.184842 0
M  V30 17995 H 1653.51 -3.74694 -1.92828 0
M  V30 17996 H 1652.24 -2.51414 -2.08467 0
M  V30 17997 H 1650.9 -3.65506 -0.283034 0
M  V30 17998 H 1650.55 -4.2529 -2.68584 0
M  V30 17999 H 1650.25 -5.64833 -1.61981 0
M  V30 18000 H 1651.77 -5.54943 -2.54698 0
M  V30 18001 H 1653.18 -5.72604 -0.28242 0
M  V30 18002 H 1651.58 -5.98289 0.465916 0
M  V30 18003 H 1652.65 -4.72162 1.10413 0
M  V30 18004 N 1653.99 -0.213323 -1.5615 0
M  V30 18005 C 1655.41 0.142215 -1.58965 0
M  V30 18006 C 1655.61 1.59606 -1.22996 0
M  V30 18007 O 1654.67 2.33485 -0.961308 0
M  V30 18008 C 1655.98 -0.176632 -3.00181 0
M  V30 18009 C 1657.53 -0.118205 -3.12777 0
M  V30 18010 C 1658 -0.410614 -4.56156 0
M  V30 18011 N 1659.49 -0.359887 -4.618 0
M  V30 18012 C 1660.23 -0.559744 -5.70661 0
M  V30 18013 N 1659.72 -0.820934 -6.87919 0
M  V30 18014 N 1661.52 -0.492746 -5.59936 0
M  V30 18015 H 1653.67 -1.16182 -1.77807 0
M  V30 18016 H 1655.93 -0.465086 -0.826075 0
M  V30 18017 H 1655.64 -1.18538 -3.31122 0
M  V30 18018 H 1655.51 0.512256 -3.73705 0
M  V30 18019 H 1657.9 0.88117 -2.81637 0
M  V30 18020 H 1657.98 -0.840446 -2.41599 0
M  V30 18021 H 1657.62 -1.40739 -4.88011 0
M  V30 18022 H 1657.55 0.332725 -5.25548 0
M  V30 18023 H 1660.04 -0.16537 -3.77538 0
M  V30 18024 H 1660.36 -0.961755 -7.66792 0
M  V30 18025 H 1658.7 -0.858036 -6.89683 0
M  V30 18026 H 1661.89 -0.288981 -4.67207 0
M  V30 18027 H 1662.07 -0.651912 -6.44712 0
M  V30 18028 N 1655.47 1.57485 0.0601405 0
M  V30 18029 C 1656.4 2.07525 1.07031 0
M  V30 18030 C 1657.38 0.971136 1.39653 0
M  V30 18031 O 1658.57 1.24456 1.49078 0
M  V30 18032 C 1655.7 2.52888 2.38044 0
M  V30 18033 C 1654.65 3.67282 2.19745 0
M  V30 18034 C 1653.98 3.98741 3.56244 0
M  V30 18035 C 1655.28 4.96896 1.60908 0
M  V30 18036 H 1656.97 2.92173 0.653875 0
M  V30 18037 H 1654.52 1.40555 0.313083 0
M  V30 18038 H 1656.47 2.8651 3.09014 0
M  V30 18039 H 1655.2 1.65284 2.81689 0
M  V30 18040 H 1653.85 3.33961 1.51213 0
M  V30 18041 H 1653.5 3.08249 3.97481 0
M  V30 18042 H 1653.2 4.75775 3.44836 0
M  V30 18043 H 1654.73 4.34869 4.28627 0
M  V30 18044 H 1656.14 5.28674 2.21758 0
M  V30 18045 H 1654.54 5.78332 1.60164 0
M  V30 18046 H 1655.61 4.81518 0.571671 0
M  V30 18047 N 1656.95 -0.331789 1.54068 0
M  V30 18048 C 1658.18 -1.09044 1.75832 0
M  V30 18049 C 1658.59 -1.81976 0.503012 0
M  V30 18050 O 1657.95 -1.74758 -0.525913 0
M  V30 18051 C 1658 -2.09489 2.94613 0
M  V30 18052 O 1657.72 -1.39521 4.1529 0
M  V30 18053 C 1659.22 -2.97637 3.28522 0
M  V30 18054 H 1656.44 -0.324701 0.587205 0
M  V30 18055 H 1658.99 -0.380417 2.00931 0
M  V30 18056 H 1657.14 -2.76038 2.71812 0
M  V30 18057 H 1657.56 -2.06717 4.82046 0
M  V30 18058 H 1659.03 -3.64027 4.14956 0
M  V30 18059 H 1659.51 -3.64292 2.45332 0
M  V30 18060 H 1660.11 -2.3666 3.53372 0
M  V30 18061 N 1658.43 -1.46001 -0.593424 0
M  V30 18062 C 1659.67 -1.50978 -1.35401 0
M  V30 18063 C 1660.01 -0.156626 -1.93567 0
M  V30 18064 O 1659.28 0.83067 -1.7587 0
M  V30 18065 C 1659.57 -2.60005 -2.49137 0
M  V30 18066 C 1659.42 -4.04814 -1.96075 0
M  V30 18067 C 1660.74 -2.65199 -3.51223 0
M  V30 18068 H 1657.86 -0.549657 -0.490965 0
M  V30 18069 H 1660.5 -1.77883 -0.667644 0
M  V30 18070 H 1658.65 -2.37194 -3.07687 0
M  V30 18071 H 1660.32 -4.38879 -1.42066 0
M  V30 18072 H 1658.56 -4.148 -1.26976 0
M  V30 18073 H 1659.23 -4.76811 -2.78128 0
M  V30 18074 H 1661.71 -2.85675 -3.02537 0
M  V30 18075 H 1660.59 -3.43323 -4.28276 0
M  V30 18076 H 1660.85 -1.70833 -4.0776 0
M  V30 18077 N 1659.91 0.83715 -1.33527 0
M  V30 18078 C 1660.82 1.97915 -1.25964 0
M  V30 18079 C 1661.83 1.73169 -0.169894 0
M  V30 18080 O 1663.01 1.97513 -0.393793 0
M  V30 18081 C 1660.07 3.31945 -1.00068 0
M  V30 18082 C 1659.13 3.69795 -2.1806 0
M  V30 18083 C 1658.37 4.97429 -1.9339 0
M  V30 18084 O 1658.59 5.63492 -0.885069 0
M  V30 18085 O 1657.52 5.32823 -2.79969 0
M  V30 18086 H 1661.35 2.07236 -2.22007 0
M  V30 18087 H 1658.94 0.970437 -1.13591 0
M  V30 18088 H 1660.82 4.12248 -0.873487 0
M  V30 18089 H 1659.49 3.23623 -0.0705475 0
M  V30 18090 H 1658.4 2.89995 -2.36334 0
M  V30 18091 H 1659.73 3.82784 -3.09414 0
M  V30 18092 N 1661.38 1.17024 1.05561 0
M  V30 18093 C 1662.33 0.88356 2.13218 0
M  V30 18094 C 1663.3 -0.171025 1.65217 0
M  V30 18095 O 1664.49 -0.0346242 1.90769 0
M  V30 18096 C 1661.63 0.398912 3.42787 0
M  V30 18097 C 1660.74 1.51718 4.04482 0
M  V30 18098 C 1659.87 0.986793 5.21954 0
M  V30 18099 C 1658.91 2.08077 5.75648 0
M  V30 18100 N 1658.05 1.56542 6.84426 0
M  V30 18101 H 1662.89 1.80548 2.37079 0
M  V30 18102 H 1660.43 0.90056 1.16311 0
M  V30 18103 H 1662.39 0.0995018 4.17081 0
M  V30 18104 H 1661.02 -0.48605 3.1912 0
M  V30 18105 H 1660.07 1.9324 3.27662 0
M  V30 18106 H 1661.38 2.34243 4.40377 0
M  V30 18107 H 1660.53 0.641006 6.03304 0
M  V30 18108 H 1659.27 0.130942 4.87524 0
M  V30 18109 H 1658.28 2.43517 4.9293 0
M  V30 18110 H 1659.5 2.94071 6.12127 0
M  V30 18111 H 1657.45 0.732221 6.51901 0
M  V30 18112 H 1657.37 2.32677 7.19303 0
M  V30 18113 H 1658.63 1.24844 7.69438 0
M  V30 18114 N 1662.86 -1.24221 0.969889 0
M  V30 18115 C 1664.09 -1.96943 0.650262 0
M  V30 18116 C 1664.51 -1.71437 -0.774018 0
M  V30 18117 O 1663.87 -0.979428 -1.52568 0
M  V30 18118 C 1663.92 -3.48303 0.933682 0
M  V30 18119 O 1663.02 -4.12395 0.0202425 0
M  V30 18120 H 1662.36 -0.616902 0.245618 0
M  V30 18121 H 1664.89 -1.57939 1.30063 0
M  V30 18122 H 1664.9 -3.98701 0.866106 0
M  V30 18123 H 1663.58 -3.66194 1.97166 0
M  V30 18124 H 1662.16 -3.72632 0.141327 0
M  V30 18125 N 1664.34 -0.740267 -1.39132 0
M  V30 18126 C 1665.25 -0.105452 -2.34363 0
M  V30 18127 C 1666.27 0.715908 -1.5859 0
M  V30 18128 O 1667.44 0.643155 -1.90855 0
M  V30 18129 C 1664.51 0.787141 -3.37646 0
M  V30 18130 C 1663.57 -0.047071 -4.29274 0
M  V30 18131 C 1662.8 0.803014 -5.27624 0
M  V30 18132 O 1663.02 2.04155 -5.32613 0
M  V30 18133 O 1661.96 0.228879 -6.01465 0
M  V30 18134 H 1665.78 -0.891588 -2.90318 0
M  V30 18135 H 1663.37 -0.500996 -1.40749 0
M  V30 18136 H 1665.25 1.29769 -4.00921 0
M  V30 18137 H 1663.93 1.552 -2.84068 0
M  V30 18138 H 1662.83 -0.603265 -3.69204 0
M  V30 18139 H 1664.17 -0.774273 -4.86072 0
M  V30 18140 N 1665.82 1.49844 -0.488302 0
M  V30 18141 C 1666.75 2.31737 0.286432 0
M  V30 18142 C 1667.73 1.39424 0.974418 0
M  V30 18143 O 1668.91 1.68339 0.968274 0
M  V30 18144 C 1666.04 3.19616 1.35878 0
M  V30 18145 C 1665 4.20619 0.791409 0
M  V30 18146 C 1664.32 4.9735 1.96333 0
M  V30 18147 C 1665.62 5.21882 -0.208975 0
M  V30 18148 H 1667.32 2.96755 -0.397092 0
M  V30 18149 H 1664.86 1.42709 -0.192413 0
M  V30 18150 H 1666.82 3.75711 1.90838 0
M  V30 18151 H 1665.54 2.52516 2.07131 0
M  V30 18152 H 1664.2 3.65651 0.263647 0
M  V30 18153 H 1663.85 4.26708 2.66325 0
M  V30 18154 H 1663.55 5.65684 1.58983 0
M  V30 18155 H 1665.07 5.56286 2.51751 0
M  V30 18156 H 1666.49 5.72746 0.252049 0
M  V30 18157 H 1664.88 5.98033 -0.497638 0
M  V30 18158 H 1665.95 4.7157 -1.12916 0
M  V30 18159 N 1667.3 0.221601 1.56034 0
M  V30 18160 C 1668.54 -0.403939 1.99349 0
M  V30 18161 C 1668.9 -1.57383 1.10672 0
M  V30 18162 O 1668.19 -1.90958 0.156695 0
M  V30 18163 C 1668.38 -0.887416 3.46208 0
M  V30 18164 C 1668.21 0.234087 4.4909 0
M  V30 18165 C 1666.98 0.700495 5.00421 0
M  V30 18166 C 1669.18 1.05237 5.03418 0
M  V30 18167 N 1667.16 1.79705 5.87009 0
M  V30 18168 C 1668.53 1.99779 5.86931 0
M  V30 18169 C 1670.59 1.0918 4.85782 0
M  V30 18170 C 1669.29 2.97943 6.54693 0
M  V30 18171 C 1671.32 2.06162 5.54302 0
M  V30 18172 C 1670.68 2.99444 6.37584 0
M  V30 18173 H 1666.78 -0.114481 0.773575 0
M  V30 18174 H 1669.36 0.333384 1.91825 0
M  V30 18175 H 1667.53 -1.5941 3.54179 0
M  V30 18176 H 1669.27 -1.48578 3.7644 0
M  V30 18177 H 1666.02 0.289083 4.72717 0
M  V30 18178 H 1666.45 2.34733 6.35003 0
M  V30 18179 H 1671.09 0.384543 4.21048 0
M  V30 18180 H 1668.81 3.69631 7.18609 0
M  V30 18181 H 1672.39 2.09887 5.42622 0
M  V30 18182 H 1671.27 3.73263 6.8967 0
M  V30 18183 N 1668.77 -1.57515 -0.0517878 0
M  V30 18184 C 1670.02 -1.88493 -0.748206 0
M  V30 18185 C 1670.35 -0.816494 -1.76202 0
M  V30 18186 O 1669.63 0.171075 -1.93746 0
M  V30 18187 C 1669.91 -3.30131 -1.43825 0
M  V30 18188 C 1669.76 -4.47648 -0.4395 0
M  V30 18189 C 1671.08 -3.70315 -2.37813 0
M  V30 18190 H 1668.2 -0.68555 -0.270537 0
M  V30 18191 H 1670.84 -1.89997 -0.0111457 0
M  V30 18192 H 1668.99 -3.2898 -2.06651 0
M  V30 18193 H 1670.67 -4.60929 0.185088 0
M  V30 18194 H 1668.91 -4.33117 0.243381 0
M  V30 18195 H 1669.58 -5.43582 -0.96035 0
M  V30 18196 H 1672.06 -3.72687 -1.8505 0
M  V30 18197 H 1670.93 -4.70269 -2.83087 0
M  V30 18198 H 1671.19 -3.0133 -3.23501 0
M  V30 18199 N 1670.25 0.323614 -1.54242 0
M  V30 18200 C 1671.16 1.42128 -1.86646 0
M  V30 18201 C 1672.18 1.56603 -0.758385 0
M  V30 18202 O 1673.36 1.717 -1.05267 0
M  V30 18203 C 1670.42 2.76842 -2.08709 0
M  V30 18204 C 1669.48 2.71543 -3.3251 0
M  V30 18205 C 1668.71 3.99833 -3.5351 0
M  V30 18206 O 1668.94 4.98095 -2.77952 0
M  V30 18207 O 1667.87 4.03095 -4.46988 0
M  V30 18208 H 1671.7 1.17653 -2.79985 0
M  V30 18209 H 1669.28 0.517632 -1.40146 0
M  V30 18210 H 1671.16 3.56588 -2.24551 0
M  V30 18211 H 1669.84 3.01207 -1.18558 0
M  V30 18212 H 1668.75 1.90348 -3.22053 0
M  V30 18213 H 1670.08 2.52133 -4.22717 0
M  V30 18214 N 1671.73 1.46313 0.585673 0
M  V30 18215 C 1672.68 1.56653 1.69495 0
M  V30 18216 C 1673.65 0.411007 1.60935 0
M  V30 18217 O 1674.83 0.627369 1.80191 0
M  V30 18218 C 1671.97 1.55996 3.0783 0
M  V30 18219 C 1671.09 2.82261 3.27036 0
M  V30 18220 C 1670.22 2.73129 4.55603 0
M  V30 18221 C 1669.26 3.94346 4.68143 0
M  V30 18222 N 1668.4 3.83617 5.88032 0
M  V30 18223 H 1673.24 2.51407 1.59995 0
M  V30 18224 H 1670.77 1.24729 0.779821 0
M  V30 18225 H 1672.73 1.53602 3.87895 0
M  V30 18226 H 1671.36 0.647766 3.16234 0
M  V30 18227 H 1670.41 2.94648 2.40596 0
M  V30 18228 H 1671.73 3.72107 3.32171 0
M  V30 18229 H 1670.88 2.68823 5.43893 0
M  V30 18230 H 1669.62 1.80917 4.52902 0
M  V30 18231 H 1668.62 3.98987 3.78272 0
M  V30 18232 H 1669.85 4.8765 4.72625 0
M  V30 18233 H 1667.8 2.9419 5.86334 0
M  V30 18234 H 1667.71 4.67117 5.94422 0
M  V30 18235 H 1668.98 3.83281 6.7876 0
M  V30 18236 N 1673.21 -0.830057 1.33969 0
M  V30 18237 C 1674.43 -1.62294 1.29133 0
M  V30 18238 C 1674.86 -1.87627 -0.133253 0
M  V30 18239 O 1674.22 -1.44669 -1.09272 0
M  V30 18240 C 1674.27 -2.94508 2.0808 0
M  V30 18241 O 1673.37 -3.86239 1.44544 0
M  V30 18242 H 1672.71 -0.493865 0.443839 0
M  V30 18243 H 1675.24 -1.03202 1.76665 0
M  V30 18244 H 1675.25 -3.44133 2.19173 0
M  V30 18245 H 1673.93 -2.75392 3.1166 0
M  V30 18246 H 1672.5 -3.44743 1.42151 0
M  V30 18247 N 1674.69 -1.17582 -1.04939 0
M  V30 18248 C 1675.91 -0.99097 -1.82194 0
M  V30 18249 C 1676.34 0.455965 -1.8249 0
M  V30 18250 O 1675.7 1.32661 -1.23575 0
M  V30 18251 C 1675.74 -1.53971 -3.26076 0
M  V30 18252 O 1674.85 -0.755172 -4.05427 0
M  V30 18253 H 1674.19 -0.351669 -0.563227 0
M  V30 18254 H 1676.72 -1.56138 -1.3222 0
M  V30 18255 H 1676.73 -1.56307 -3.76872 0
M  V30 18256 H 1675.4 -2.59295 -3.25175 0
M  V30 18257 H 1673.98 -0.803423 -3.64142 0
M  V30 18258 N 1676.17 1.23705 -0.976463 0
M  V30 18259 C 1677.11 2.27034 -0.505813 0
M  V30 18260 C 1678.11 1.63716 0.435148 0
M  V30 18261 O 1679.31 1.7732 0.309474 0
M  V30 18262 H 1675.69 0.737862 -0.145131 0
M  V30 18263 H 1677.66 2.64097 -1.38908 0
M  V30 18264 C 1676.41 3.47234 0.179987 0
M  V30 18265 H 1675.73 3.96205 -0.534969 0
M  V30 18266 H 1677.17 4.21353 0.472996 0
M  V30 18267 C 1675.63 3.05979 1.40991 0
M  V30 18268 O 1676.16 3.13914 2.50641 0
M  V30 18269 N 1674.37 2.60934 1.27913 0
M  V30 18270 H 1673.91 2.54677 0.38696 0
M  V30 18271 H 1673.87 2.33697 2.10316 0
M  V30 18272 N 1677.64 0.747635 1.38738 0
M  V30 18273 C 1678.87 0.311329 2.04241 0
M  V30 18274 C 1679.28 -1.06319 1.56502 0
M  V30 18275 O 1678.62 -1.68544 0.730669 0
M  V30 18276 C 1678.69 0.24882 3.58638 0
M  V30 18277 C 1678.35 1.5639 4.29408 0
M  V30 18278 C 1679.35 2.51198 4.55187 0
M  V30 18279 C 1677.03 1.83169 4.67712 0
M  V30 18280 C 1679.03 3.71009 5.18296 0
M  V30 18281 C 1676.71 3.03255 5.30546 0
M  V30 18282 C 1677.71 3.96996 5.55773 0
M  V30 18283 O 1677.4 5.14971 6.173 0
M  V30 18284 H 1677.13 0.131827 0.663022 0
M  V30 18285 H 1679.69 1.01572 1.78528 0
M  V30 18286 H 1677.92 -0.511769 3.83299 0
M  V30 18287 H 1679.6 -0.157174 4.05596 0
M  V30 18288 H 1680.37 2.31784 4.2603 0
M  V30 18289 H 1676.25 1.11044 4.47426 0
M  V30 18290 H 1679.79 4.44193 5.37902 0
M  V30 18291 H 1675.69 3.22565 5.59126 0
M  V30 18292 H 1676.46 5.15474 6.3579 0
M  V30 18293 N 1679.12 -1.49583 0.496242 0
M  V30 18294 C 1680.03 -2.32808 -0.289404 0
M  V30 18295 C 1681.05 -1.44324 -0.971933 0
M  V30 18296 O 1682.22 -1.77352 -0.954366 0
M  V30 18297 C 1679.29 -3.19645 -1.34269 0
M  V30 18298 C 1678.35 -4.23975 -0.6741 0
M  V30 18299 C 1677.58 -5.06661 -1.6772 0
M  V30 18300 O 1677.81 -4.90792 -2.90654 0
M  V30 18301 O 1676.74 -5.89091 -1.23514 0
M  V30 18302 H 1680.57 -3.01164 0.391664 0
M  V30 18303 H 1678.15 -1.47162 0.257652 0
M  V30 18304 H 1680.03 -3.73453 -1.9522 0
M  V30 18305 H 1678.71 -2.53989 -2.00677 0
M  V30 18306 H 1677.61 -3.74092 -0.0249732 0
M  V30 18307 H 1678.95 -4.92172 -0.0525442 0
M  V30 18308 N 1680.6 -0.229873 -1.55915 0
M  V30 18309 C 1681.55 0.693198 -2.2203 0
M  V30 18310 C 1682.54 1.1933 -1.20236 0
M  V30 18311 O 1683.75 1.15217 -1.38294 0
M  V30 18312 H 1680.12 0.241986 -0.712002 0
M  V30 18313 H 1682.09 0.112229 -2.98189 0
M  V30 18314 C 1680.84 1.88688 -2.92048 0
M  V30 18315 H 1680.17 1.51119 -3.70139 0
M  V30 18316 H 1681.61 2.51036 -3.41697 0
M  V30 18317 C 1680.06 2.74747 -1.94976 0
M  V30 18318 O 1680.59 3.73759 -1.47198 0
M  V30 18319 N 1678.8 2.40956 -1.62445 0
M  V30 18320 H 1678.35 1.60494 -2.01493 0
M  V30 18321 H 1678.31 2.98816 -0.977581 0
M  V30 18322 N 1682.08 1.5754 0.0434337 0
M  V30 18323 C 1683.33 1.88235 0.735652 0
M  V30 18324 C 1683.65 0.825698 1.76656 0
M  V30 18325 O 1682.92 -0.142424 1.95382 0
M  V30 18326 H 1681.5 0.694661 0.274692 0
M  V30 18327 H 1684.16 1.94896 0.0127911 0
M  V30 18328 H 1683.25 2.86659 1.23421 0
M  V30 18329 N 1683.56 -0.31543 1.54411 0
M  V30 18330 C 1684.47 -1.41136 1.87397 0
M  V30 18331 C 1685.48 -1.56199 0.76668 0
M  V30 18332 O 1686.66 -1.71139 1.06176 0
M  V30 18333 C 1683.72 -2.75731 2.10174 0
M  V30 18334 C 1682.78 -2.69776 3.33945 0
M  V30 18335 C 1682.02 -3.97952 3.55626 0
M  V30 18336 O 1682.24 -4.96614 2.80589 0
M  V30 18337 O 1681.17 -4.00719 4.49119 0
M  V30 18338 H 1685 -1.16167 2.80605 0
M  V30 18339 H 1682.58 -0.510193 1.40419 0
M  V30 18340 H 1684.47 -3.55392 2.26439 0
M  V30 18341 H 1683.14 -3.00574 1.20154 0
M  V30 18342 H 1682.05 -1.88638 3.23058 0
M  V30 18343 H 1683.38 -2.49887 4.24049 0
M  V30 18344 N 1685.03 -1.46622 -0.577906 0
M  V30 18345 C 1686.28 -1.51446 -1.33218 0
M  V30 18346 C 1686.6 -0.17258 -1.94837 0
M  V30 18347 O 1687.8 -0.0986578 -2.71321 0
M  V30 18348 C 1686.26 -2.66876 -2.41465 0
M  V30 18349 C 1685.87 -4.07506 -1.86127 0
M  V30 18350 C 1687.61 -2.80975 -3.18203 0
M  V30 18351 C 1685.52 -5.14268 -2.92031 0
M  V30 18352 H 1684.45 -0.563643 -0.500822 0
M  V30 18353 H 1687.1 -1.72845 -0.616186 0
M  V30 18354 H 1685.48 -2.38816 -3.15884 0
M  V30 18355 H 1686.65 -4.45378 -1.18218 0
M  V30 18356 H 1684.97 -3.98115 -1.2204 0
M  V30 18357 H 1687.57 -3.57906 -3.97249 0
M  V30 18358 H 1687.91 -1.88665 -3.71095 0
M  V30 18359 H 1688.44 -3.08705 -2.50891 0
M  V30 18360 H 1685.18 -6.08386 -2.44021 0
M  V30 18361 H 1684.7 -4.80936 -3.58414 0
M  V30 18362 H 1686.38 -5.40321 -3.55896 0
M  V30 18363 N 1686.51 0.822941 -1.34408 0
M  V30 18364 C 1687.76 1.57604 -1.26513 0
M  V30 18365 C 1688.08 1.94303 0.164769 0
M  V30 18366 O 1687.35 1.62278 1.09738 0
M  V30 18367 H 1685.93 0.584399 -0.465282 0
M  V30 18368 H 1688.59 0.982582 -1.68319 0
M  V30 18369 H 1687.69 2.49886 -1.86986 0
M  V30 18370 N 1687.99 1.18137 1.04314 0
M  V30 18371 C 1688.9 0.921044 2.15764 0
M  V30 18372 C 1689.92 -0.11396 1.73626 0
M  V30 18373 O 1691.09 0.0673733 2.01287 0
M  V30 18374 C 1688.16 0.447581 3.43799 0
M  V30 18375 C 1687.22 1.55025 4.00332 0
M  V30 18376 C 1686.45 1.09928 5.22256 0
M  V30 18377 O 1686.67 -0.0430152 5.70384 0
M  V30 18378 O 1685.61 1.896 5.71258 0
M  V30 18379 H 1689.43 1.85353 2.40579 0
M  V30 18380 H 1687.02 0.962985 1.14223 0
M  V30 18381 H 1688.9 0.191497 4.20965 0
M  V30 18382 H 1687.58 -0.456641 3.20463 0
M  V30 18383 H 1686.48 1.86032 3.24566 0
M  V30 18384 H 1687.82 2.4305 4.28004 0
M  V30 18385 N 1689.47 -1.23186 0.98301 0
M  V30 18386 C 1690.69 -1.96242 0.671114 0
M  V30 18387 C 1691.12 -1.72248 -0.755792 0
M  V30 18388 O 1690.48 -0.995555 -1.5152 0
M  V30 18389 C 1690.52 -3.47293 0.970571 0
M  V30 18390 O 1689.63 -4.1235 0.0639814 0
M  V30 18391 H 1688.97 -0.614262 0.252147 0
M  V30 18392 H 1691.5 -1.56551 1.31731 0
M  V30 18393 H 1691.51 -3.9776 0.908345 0
M  V30 18394 H 1690.18 -3.64083 2.01039 0
M  V30 18395 H 1688.76 -3.72461 0.180842 0
M  V30 18396 N 1690.95 -0.754982 -1.38339 0
M  V30 18397 C 1691.88 -0.0883836 -2.2903 0
M  V30 18398 C 1692.89 0.682258 -1.47814 0
M  V30 18399 O 1694.08 0.523117 -1.70663 0
M  V30 18400 C 1691.18 0.898819 -3.26764 0
M  V30 18401 C 1690.35 0.185527 -4.37006 0
M  V30 18402 C 1689.41 1.08368 -5.1492 0
M  V30 18403 O 1688.44 0.553687 -5.66501 0
M  V30 18404 N 1689.64 2.41164 -5.28034 0
M  V30 18405 H 1692.41 -0.86725 -2.86878 0
M  V30 18406 H 1689.97 -0.605886 -1.50135 0
M  V30 18407 H 1691.96 1.50273 -3.75766 0
M  V30 18408 H 1690.53 1.57876 -2.69804 0
M  V30 18409 H 1689.75 -0.599106 -3.89621 0
M  V30 18410 H 1691.04 -0.307999 -5.07867 0
M  V30 18411 H 1690.43 2.86677 -4.87681 0
M  V30 18412 H 1688.99 2.96602 -5.80406 0
M  V30 18413 N 1692.42 1.49318 -0.504168 0
M  V30 18414 C 1693.67 2.02762 0.0392846 0
M  V30 18415 C 1694 1.38282 1.36352 0
M  V30 18416 O 1693.28 0.519587 1.87431 0
M  V30 18417 C 1693.56 3.59606 0.188507 0
M  V30 18418 C 1693.41 4.3461 -1.15908 0
M  V30 18419 C 1694.73 4.30213 0.927641 0
M  V30 18420 H 1691.85 0.736889 0.0128028 0
M  V30 18421 H 1694.49 1.78309 -0.656193 0
M  V30 18422 H 1692.64 3.80572 0.780861 0
M  V30 18423 H 1694.32 4.25132 -1.79055 0
M  V30 18424 H 1692.56 3.97043 -1.74756 0
M  V30 18425 H 1693.23 5.4272 -1.00794 0
M  V30 18426 H 1695.71 4.13922 0.425228 0
M  V30 18427 H 1694.58 5.39697 1.0009 0
M  V30 18428 H 1694.84 3.95678 1.97209 0
M  V30 18429 N 1693.9 0.238138 1.5579 0
M  V30 18430 C 1694.85 -0.665098 2.21009 0
M  V30 18431 C 1695.82 -1.17793 1.17107 0
M  V30 18432 O 1697 -1.234 1.45523 0
M  V30 18433 C 1694.14 -1.86028 2.90667 0
M  V30 18434 C 1693.26 -1.3848 4.09203 0
M  V30 18435 C 1692.39 -2.53885 4.666 0
M  V30 18436 C 1691.43 -2.03155 5.77403 0
M  V30 18437 N 1690.57 -3.11895 6.2902 0
M  V30 18438 H 1695.41 -0.102242 2.97825 0
M  V30 18439 H 1692.95 -0.0387064 1.47049 0
M  V30 18440 H 1694.9 -2.56226 3.29248 0
M  V30 18441 H 1693.53 -2.39575 2.16341 0
M  V30 18442 H 1692.59 -0.577172 3.75996 0
M  V30 18443 H 1693.9 -0.972946 4.89219 0
M  V30 18444 H 1693.05 -3.32139 5.07709 0
M  V30 18445 H 1691.79 -2.98368 3.85782 0
M  V30 18446 H 1690.8 -1.23369 5.3578 0
M  V30 18447 H 1692.02 -1.59653 6.60067 0
M  V30 18448 H 1689.97 -3.55828 5.5111 0
M  V30 18449 H 1689.88 -2.75013 7.04204 0
M  V30 18450 H 1691.15 -3.90234 6.74787 0
M  V30 18451 N 1695.38 -1.57561 -0.0350783 0
M  V30 18452 C 1696.63 -1.88623 -0.725659 0
M  V30 18453 C 1696.95 -0.835055 -1.76215 0
M  V30 18454 O 1696.22 0.13206 -1.95454 0
M  V30 18455 H 1694.8 -0.696108 -0.271004 0
M  V30 18456 H 1697.46 -1.949 -0.00245508 0
M  V30 18457 H 1696.56 -2.8731 -1.21899 0
M  V30 18458 N 1696.86 0.307236 -1.54576 0
M  V30 18459 C 1698.11 1.04115 -1.73218 0
M  V30 18460 C 1698.43 1.88008 -0.517482 0
M  V30 18461 O 1697.7 1.90219 0.468336 0
M  V30 18462 H 1696.28 0.387388 -0.638701 0
M  V30 18463 H 1698.94 0.339727 -1.91916 0
M  V30 18464 H 1698.04 1.69784 -2.61877 0
M  V30 18465 N 1698.34 1.46926 0.570122 0
M  V30 18466 C 1699.25 1.6105 1.70587 0
M  V30 18467 C 1700.26 0.493636 1.66851 0
M  V30 18468 O 1701.44 0.759454 1.86532 0
M  V30 18469 C 1698.5 1.60913 3.07096 0
M  V30 18470 C 1697.56 2.83928 3.21999 0
M  V30 18471 C 1696.8 2.83788 4.51996 0
M  V30 18472 O 1697.02 1.93256 5.36664 0
M  V30 18473 O 1695.95 3.75491 4.70415 0
M  V30 18474 H 1699.78 2.57126 1.61616 0
M  V30 18475 H 1697.37 1.29863 0.738637 0
M  V30 18476 H 1699.25 1.63576 3.88356 0
M  V30 18477 H 1697.92 0.680005 3.16477 0
M  V30 18478 H 1696.83 2.86814 2.40185 0
M  V30 18479 H 1698.16 3.76091 3.17516 0
M  V30 18480 N 1699.82 -0.815801 1.34842 0
M  V30 18481 C 1700.73 -1.95886 1.29097 0
M  V30 18482 C 1701.74 -1.72876 0.197422 0
M  V30 18483 O 1702.92 -1.96861 0.425166 0
M  V30 18484 C 1699.98 -3.30311 1.05336 0
M  V30 18485 C 1699.04 -3.66279 2.23916 0
M  V30 18486 C 1698.28 -4.9429 2.01279 0
M  V30 18487 O 1698.5 -5.62012 0.974603 0
M  V30 18488 O 1697.43 -5.28302 2.88411 0
M  V30 18489 H 1701.26 -2.03678 2.25276 0
M  V30 18490 H 1698.84 -0.952243 1.1512 0
M  V30 18491 H 1700.73 -4.10806 0.938961 0
M  V30 18492 H 1699.4 -3.2347 0.122024 0
M  V30 18493 H 1698.31 -2.86198 2.40918 0
M  V30 18494 H 1699.64 -3.77814 3.15464 0
M  V30 18495 N 1701.29 -1.18689 -1.03686 0
M  V30 18496 C 1702.7 -0.988182 -1.58404 0
M  V30 18497 C 1703.06 0.461107 -1.90705 0
M  V30 18498 O 1702.18 1.33912 -1.6999 0
M  V30 18499 C 1702.78 -1.78748 -2.8781 0
M  V30 18500 C 1701.33 -1.63301 -3.39131 0
M  V30 18501 C 1700.48 -1.77954 -2.12668 0
M  V30 18502 H 1703.43 -1.33177 -0.863112 0
M  V30 18503 H 1703.45 -1.27882 -3.58366 0
M  V30 18504 H 1702.97 -2.84224 -2.6427 0
M  V30 18505 H 1701.07 -0.603777 -3.67676 0
M  V30 18506 H 1701.18 -2.43342 -4.127 0
M  V30 18507 H 1699.54 -1.20937 -2.24157 0
M  V30 18508 H 1700.33 -2.84873 -1.91579 0
M  V30 18509 N 1702.77 1.22662 -0.989529 0
M  V30 18510 C 1704.02 1.90632 -0.65897 0
M  V30 18511 C 1704.33 1.77942 0.812165 0
M  V30 18512 O 1705.54 2.40796 1.25417 0
M  V30 18513 C 1704 3.41763 -1.12809 0
M  V30 18514 C 1703.6 3.63097 -2.62421 0
M  V30 18515 C 1705.35 4.15454 -0.871698 0
M  V30 18516 C 1703.25 5.07911 -3.02953 0
M  V30 18517 H 1702.18 0.713847 -0.242772 0
M  V30 18518 H 1704.84 1.38942 -1.19864 0
M  V30 18519 H 1703.22 3.92616 -0.516564 0
M  V30 18520 H 1704.39 3.22751 -3.2889 0
M  V30 18521 H 1702.71 3.02733 -2.85905 0
M  V30 18522 H 1705.3 5.22181 -1.15027 0
M  V30 18523 H 1705.65 4.15856 0.192186 0
M  V30 18524 H 1706.18 3.70618 -1.44525 0
M  V30 18525 H 1702.92 5.12646 -4.08503 0
M  V30 18526 H 1702.44 5.49172 -2.41185 0
M  V30 18527 H 1704.12 5.76311 -2.94066 0
M  V30 18528 N 1704.25 0.762308 1.37937 0
M  V30 18529 C 1705.16 0.142724 2.34165 0
M  V30 18530 C 1706.18 -0.690588 1.59709 0
M  V30 18531 O 1707.35 -0.61271 1.91854 0
M  V30 18532 C 1704.42 -0.733325 3.38856 0
M  V30 18533 C 1703.48 0.115359 4.29145 0
M  V30 18534 C 1702.71 -0.718972 5.28835 0
M  V30 18535 O 1702.93 -1.95656 5.35794 0
M  V30 18536 O 1701.87 -0.133162 6.01753 0
M  V30 18537 H 1705.69 0.937662 2.88863 0
M  V30 18538 H 1703.28 0.523325 1.39935 0
M  V30 18539 H 1705.16 -1.23374 4.02935 0
M  V30 18540 H 1703.84 -1.50661 2.86501 0
M  V30 18541 H 1702.74 0.661926 3.68197 0
M  V30 18542 H 1704.08 0.851505 4.84779 0
M  V30 18543 N 1705.73 -1.49049 0.51208 0
M  V30 18544 C 1706.64 -2.33102 -0.264695 0
M  V30 18545 C 1707.65 -1.45347 -0.956571 0
M  V30 18546 O 1708.83 -1.78355 -0.935501 0
M  V30 18547 C 1705.89 -3.21051 -1.30871 0
M  V30 18548 C 1704.96 -4.24666 -0.629094 0
M  V30 18549 C 1704.19 -5.08412 -1.62337 0
M  V30 18550 O 1704.41 -4.93847 -2.85432 0
M  V30 18551 O 1703.35 -5.90368 -1.17259 0
M  V30 18552 H 1707.17 -3.00732 0.423585 0
M  V30 18553 H 1704.76 -1.4688 0.273246 0
M  V30 18554 H 1706.64 -3.75503 -1.91248 0
M  V30 18555 H 1705.31 -2.56103 -1.97972 0
M  V30 18556 H 1704.22 -3.74097 0.0147056 0
M  V30 18557 H 1705.55 -4.922 -0.000339859 0
M  V30 18558 N 1707.21 -0.246397 -1.55662 0
M  V30 18559 C 1708.43 0.385607 -2.03784 0
M  V30 18560 C 1708.86 1.50786 -1.12451 0
M  V30 18561 O 1708.21 1.8092 -0.117371 0
M  V30 18562 C 1708.26 0.871204 -3.49918 0
M  V30 18563 O 1707.37 1.98082 -3.61715 0
M  V30 18564 H 1706.71 0.0841099 -0.658651 0
M  V30 18565 H 1709.24 -0.372306 -2.01184 0
M  V30 18566 H 1709.25 1.17455 -3.90728 0
M  V30 18567 H 1707.92 0.0499597 -4.1587 0
M  V30 18568 H 1706.5 1.6822 -3.32801 0
M  V30 18569 N 1708.68 1.57577 0.026722 0
M  V30 18570 C 1709.63 2.07803 1.04502 0
M  V30 18571 C 1710.63 0.992308 1.37294 0
M  V30 18572 O 1711.83 1.17717 1.36171 0
M  V30 18573 H 1708.21 0.663176 0.354545 0
M  V30 18574 H 1710.18 2.92395 0.595626 0
M  V30 18575 C 1708.93 2.57478 2.33667 0
M  V30 18576 H 1708.25 3.40639 2.09296 0
M  V30 18577 H 1709.69 2.96328 3.03258 0
M  V30 18578 C 1708.15 1.47704 3.02796 0
M  V30 18579 O 1708.68 0.844611 3.9272 0
M  V30 18580 N 1706.88 1.211 2.64165 0
M  V30 18581 H 1706.43 1.72713 1.91123 0
M  V30 18582 H 1706.39 0.47866 3.10735 0
M  V30 18583 N 1710.16 -0.299034 1.54737 0
M  V30 18584 C 1711.41 -1.03164 1.7332 0
M  V30 18585 C 1711.72 -1.88362 0.527184 0
M  V30 18586 O 1712.93 -2.64903 0.594868 0
M  V30 18587 C 1711.39 -1.88391 3.06654 0
M  V30 18588 C 1710.99 -1.08187 4.34741 0
M  V30 18589 C 1712.74 -2.6124 3.34595 0
M  V30 18590 C 1710.64 -1.92702 5.59124 0
M  V30 18591 H 1709.57 -0.388887 0.645975 0
M  V30 18592 H 1712.23 -0.288544 1.81217 0
M  V30 18593 H 1710.61 -2.66696 2.92727 0
M  V30 18594 H 1711.78 -0.344817 4.59508 0
M  V30 18595 H 1710.1 -0.469118 4.13749 0
M  V30 18596 H 1712.69 -3.24826 4.24726 0
M  V30 18597 H 1713.04 -3.30172 2.53559 0
M  V30 18598 H 1713.57 -1.89982 3.49502 0
M  V30 18599 H 1710.31 -1.28236 6.42834 0
M  V30 18600 H 1709.83 -2.64074 5.38539 0
M  V30 18601 H 1711.51 -2.50702 5.96454 0
M  V30 18602 N 1711.64 -1.47227 -0.562322 0
M  V30 18603 C 1712.57 -1.62204 -1.67965 0
M  V30 18604 C 1713.55 -0.471638 -1.63431 0
M  V30 18605 O 1714.74 -0.70036 -1.81131 0
M  V30 18606 C 1711.87 -1.63127 -3.06605 0
M  V30 18607 C 1710.82 -2.77343 -3.25983 0
M  V30 18608 C 1710.15 -2.63336 -4.65358 0
M  V30 18609 C 1711.45 -4.18983 -3.1185 0
M  V30 18610 H 1713.14 -2.55739 -1.55686 0
M  V30 18611 H 1710.69 -1.23075 -0.747561 0
M  V30 18612 H 1712.64 -1.72197 -3.84612 0
M  V30 18613 H 1711.36 -0.661501 -3.19831 0
M  V30 18614 H 1710.02 -2.67776 -2.50383 0
M  V30 18615 H 1709.67 -1.64398 -4.75376 0
M  V30 18616 H 1709.37 -3.39957 -4.79273 0
M  V30 18617 H 1710.89 -2.74327 -5.45506 0
M  V30 18618 H 1712.31 -4.29554 -3.79679 0
M  V30 18619 H 1710.7 -4.96351 -3.37277 0
M  V30 18620 H 1711.77 -4.37709 -2.08661 0
M  V30 18621 N 1713.12 0.808639 -1.35273 0
M  V30 18622 C 1714.34 1.60219 -1.31699 0
M  V30 18623 C 1714.77 1.87816 0.103386 0
M  V30 18624 O 1714.13 1.46389 1.06957 0
M  V30 18625 C 1714.17 2.9116 -2.12739 0
M  V30 18626 O 1713.28 3.83891 -1.5067 0
M  V30 18627 H 1712.62 0.486742 -0.45164 0
M  V30 18628 H 1715.15 1.00378 -1.78284 0
M  V30 18629 H 1715.16 3.40602 -2.2462 0
M  V30 18630 H 1713.83 2.70399 -3.16002 0
M  V30 18631 H 1712.41 3.42437 -1.47618 0
M  V30 18632 N 1714.6 1.19237 1.03055 0
M  V30 18633 C 1716.01 0.996569 1.57878 0
M  V30 18634 C 1716.36 -0.450987 1.90946 0
M  V30 18635 O 1715.48 -1.33009 1.70697 0
M  V30 18636 C 1716.08 1.80272 2.86858 0
M  V30 18637 C 1714.64 1.65097 3.3826 0
M  V30 18638 C 1713.78 1.79079 2.11721 0
M  V30 18639 H 1716.74 1.33633 0.856037 0
M  V30 18640 H 1716.76 1.29781 3.57683 0
M  V30 18641 H 1716.27 2.85621 2.62759 0
M  V30 18642 H 1714.37 0.623267 3.6735 0
M  V30 18643 H 1714.48 2.45527 4.11404 0
M  V30 18644 H 1712.85 1.22124 2.23512 0
M  V30 18645 H 1713.63 2.85885 1.90065 0
M  V30 18646 N 1716.07 -1.22136 0.99602 0
M  V30 18647 C 1717.32 -1.9125 0.674632 0
M  V30 18648 C 1717.65 -1.77331 -0.791655 0
M  V30 18649 O 1716.93 -1.14419 -1.57285 0
M  V30 18650 C 1717.21 -3.43359 1.08521 0
M  V30 18651 C 1717.06 -3.66312 2.61028 0
M  V30 18652 C 1718.38 -4.3541 0.640795 0
M  V30 18653 H 1715.5 -0.694534 0.246559 0
M  V30 18654 H 1718.14 -1.4395 1.2401 0
M  V30 18655 H 1716.29 -3.83775 0.604071 0
M  V30 18656 H 1717.97 -3.3528 3.16836 0
M  V30 18657 H 1716.21 -3.10485 3.02954 0
M  V30 18658 H 1716.88 -4.72852 2.84807 0
M  V30 18659 H 1719.36 -4.02527 1.05411 0
M  V30 18660 H 1718.23 -5.40505 0.956337 0
M  V30 18661 H 1718.49 -4.39717 -0.458421 0
M  V30 18662 N 1717.55 -0.769612 -1.37531 0
M  V30 18663 C 1718.48 -0.11267 -2.28923 0
M  V30 18664 C 1719.5 0.666541 -1.4853 0
M  V30 18665 O 1720.69 0.504986 -1.71208 0
M  V30 18666 C 1717.79 0.864111 -3.27699 0
M  V30 18667 C 1716.96 0.139166 -4.37179 0
M  V30 18668 C 1716.02 1.029 -5.16041 0
M  V30 18669 O 1715.04 0.493571 -5.67056 0
M  V30 18670 N 1716.25 2.3555 -5.30562 0
M  V30 18671 H 1719.01 -0.897628 -2.85942 0
M  V30 18672 H 1716.57 -0.621776 -1.49484 0
M  V30 18673 H 1718.56 1.46279 -3.77339 0
M  V30 18674 H 1717.13 1.55005 -2.71463 0
M  V30 18675 H 1716.35 -0.640396 -3.88963 0
M  V30 18676 H 1717.64 -0.361847 -5.07512 0
M  V30 18677 H 1717.04 2.81489 -4.90694 0
M  V30 18678 H 1715.6 2.90429 -5.83519 0
M  V30 18679 N 1719.03 1.48775 -0.519977 0
M  V30 18680 C 1720.31 1.95429 0.0816701 0
M  V30 18681 C 1720.69 1.46199 1.52279 0
M  V30 18682 O 1720.04 0.684057 2.1802 0
M  V30 18683 C 1720.25 3.48991 -0.0252472 0
M  V30 18684 C 1721.59 4.24372 0.139099 0
M  V30 18685 O 1722.62 3.56166 0.0490322 0
M  V30 18686 O 1721.48 5.45524 0.326426 0
M  V30 18687 H 1718.57 0.822637 0.0848378 0
M  V30 18688 H 1721.12 1.5934 -0.583865 0
M  V30 18689 H 1719.89 3.77514 -1.02951 0
M  V30 18690 H 1719.51 3.91749 0.679588 0
M  V30 18691 N 1720.51 0.254649 1.55529 0
M  V30 18692 C 1721.76 -0.367205 1.98736 0
M  V30 18693 C 1722.08 -1.57899 1.14424 0
M  V30 18694 O 1721.35 -1.94559 0.228849 0
M  V30 18695 H 1719.93 -0.138663 0.734017 0
M  V30 18696 H 1722.59 0.355236 1.91635 0
M  V30 18697 H 1721.69 -0.671069 3.048 0
M  V30 18698 N 1721.99 -1.57589 -0.0183649 0
M  V30 18699 C 1723.21 -1.94024 -0.718491 0
M  V30 18700 C 1723.63 -0.85529 -1.68316 0
M  V30 18701 O 1722.99 0.167403 -1.81731 0
M  V30 18702 C 1723.04 -3.30427 -1.4663 0
M  V30 18703 O 1722.76 -4.34755 -0.540345 0
M  V30 18704 C 1724.26 -3.81209 -2.26262 0
M  V30 18705 H 1721.48 -0.640101 -0.201275 0
M  V30 18706 H 1724.02 -2.04482 0.0272935 0
M  V30 18707 H 1722.18 -3.21333 -2.16388 0
M  V30 18708 H 1722.59 -5.13554 -1.06593 0
M  V30 18709 H 1724.07 -4.79131 -2.74112 0
M  V30 18710 H 1724.54 -3.12957 -3.08147 0
M  V30 18711 H 1725.15 -3.9342 -1.61558 0
M  V30 18712 N 1723.46 0.290824 -1.54893 0
M  V30 18713 C 1724.41 1.35899 -1.86548 0
M  V30 18714 C 1725.38 1.49909 -0.71529 0
M  V30 18715 O 1726.57 1.64604 -0.964886 0
M  V30 18716 C 1723.71 2.71735 -2.1273 0
M  V30 18717 C 1722.82 2.66092 -3.40322 0
M  V30 18718 C 1721.95 3.93989 -3.56295 0
M  V30 18719 C 1720.99 3.82785 -4.77642 0
M  V30 18720 N 1720.13 5.02479 -4.90367 0
M  V30 18721 H 1724.97 1.08205 -2.77661 0
M  V30 18722 H 1722.51 0.523144 -1.37483 0
M  V30 18723 H 1724.47 3.50745 -2.25907 0
M  V30 18724 H 1723.1 2.97669 -1.24871 0
M  V30 18725 H 1722.15 1.78891 -3.35712 0
M  V30 18726 H 1723.46 2.53706 -4.29458 0
M  V30 18727 H 1722.61 4.81438 -3.69192 0
M  V30 18728 H 1721.35 4.09221 -2.6531 0
M  V30 18729 H 1720.36 2.9372 -4.64767 0
M  V30 18730 H 1721.58 3.69088 -5.70044 0
M  V30 18731 H 1719.53 5.18155 -4.02308 0
M  V30 18732 H 1719.45 4.92555 -5.7352 0
M  V30 18733 H 1720.71 5.9155 -5.07631 0
M  V30 18734 N 1724.94 1.47523 0.554506 0
M  V30 18735 C 1725.89 1.60213 1.66134 0
M  V30 18736 C 1726.86 0.445051 1.60027 0
M  V30 18737 O 1728.04 0.665449 1.7882 0
M  V30 18738 C 1725.18 1.62491 3.04452 0
M  V30 18739 C 1724.3 2.89134 3.20976 0
M  V30 18740 C 1723.43 2.82731 4.49707 0
M  V30 18741 C 1722.47 4.04187 4.59673 0
M  V30 18742 N 1721.61 3.96004 5.79763 0
M  V30 18743 H 1726.45 2.54744 1.54626 0
M  V30 18744 H 1723.99 1.26355 0.753189 0
M  V30 18745 H 1725.94 1.61795 3.84549 0
M  V30 18746 H 1724.57 0.714698 3.14789 0
M  V30 18747 H 1723.63 2.99685 2.34292 0
M  V30 18748 H 1724.94 3.79069 3.24203 0
M  V30 18749 H 1724.09 2.80299 5.38068 0
M  V30 18750 H 1722.83 1.90483 4.48963 0
M  V30 18751 H 1721.84 4.06921 3.69724 0
M  V30 18752 H 1723.06 4.97565 4.62175 0
M  V30 18753 H 1721.01 3.06561 5.79962 0
M  V30 18754 H 1720.92 4.7962 5.8438 0
M  V30 18755 H 1722.19 3.97593 6.70478 0
M  V30 18756 N 1726.42 -0.801453 1.357 0
M  V30 18757 C 1727.83 -1.37581 1.26208 0
M  V30 18758 C 1728.18 -1.95928 -0.103326 0
M  V30 18759 O 1727.31 -1.91676 -1.00445 0
M  V30 18760 C 1727.9 -2.50122 2.28527 0
M  V30 18761 C 1726.46 -3.03405 2.2276 0
M  V30 18762 C 1725.61 -1.76401 2.13958 0
M  V30 18763 H 1728.56 -0.60407 1.46754 0
M  V30 18764 H 1728.58 -3.28814 1.91472 0
M  V30 18765 H 1728.09 -2.07626 3.27892 0
M  V30 18766 H 1726.19 -3.50352 1.26822 0
M  V30 18767 H 1726.31 -3.61038 3.14942 0
M  V30 18768 H 1724.67 -1.98158 1.60017 0
M  V30 18769 H 1725.45 -1.3605 3.15191 0
M  V30 18770 N 1727.9 -1.19782 -1.02421 0
M  V30 18771 C 1728.83 -0.897544 -2.10895 0
M  V30 18772 C 1729.84 0.111644 -1.62417 0
M  V30 18773 O 1731.03 -0.118381 -1.78107 0
M  V30 18774 C 1728.13 -0.322714 -3.3736 0
M  V30 18775 C 1727.31 -1.38159 -4.15007 0
M  V30 18776 C 1726.36 -0.819462 -5.1978 0
M  V30 18777 O 1725.39 -1.4983 -5.49126 0
M  V30 18778 N 1726.59 0.374925 -5.79288 0
M  V30 18779 H 1729.36 -1.83127 -2.37243 0
M  V30 18780 H 1726.92 -1.10045 -1.1875 0
M  V30 18781 H 1728.91 0.0673046 -4.04644 0
M  V30 18782 H 1727.48 0.5154 -3.08322 0
M  V30 18783 H 1726.7 -1.94627 -3.42803 0
M  V30 18784 H 1727.99 -2.09496 -4.63669 0
M  V30 18785 H 1727.39 0.943856 -5.5777 0
M  V30 18786 H 1725.94 0.706668 -6.47958 0
M  V30 18787 N 1729.38 1.21606 -1.00248 0
M  V30 18788 C 1730.63 1.89922 -0.679152 0
M  V30 18789 C 1730.94 1.78793 0.793246 0
M  V30 18790 O 1732.15 2.42113 1.22856 0
M  V30 18791 C 1730.6 3.40548 -1.16427 0
M  V30 18792 C 1730.21 3.60293 -2.66257 0
M  V30 18793 C 1731.95 4.14506 -0.915714 0
M  V30 18794 C 1729.86 5.04669 -3.08323 0
M  V30 18795 H 1728.79 0.711232 -0.250329 0
M  V30 18796 H 1731.44 1.37663 -1.21331 0
M  V30 18797 H 1729.82 3.92046 -0.558177 0
M  V30 18798 H 1731 3.19245 -3.32294 0
M  V30 18799 H 1729.31 2.99683 -2.891 0
M  V30 18800 H 1731.91 5.20932 -1.20558 0
M  V30 18801 H 1732.25 4.16037 0.148068 0
M  V30 18802 H 1732.79 3.69064 -1.48448 0
M  V30 18803 H 1729.52 5.08284 -4.13917 0
M  V30 18804 H 1729.04 5.46583 -2.46996 0
M  V30 18805 H 1730.72 5.7316 -3.00162 0
M  V30 18806 N 1730.86 0.776895 1.37121 0
M  V30 18807 C 1732.13 0.268067 1.93754 0
M  V30 18808 C 1732.51 -1.23774 1.71007 0
M  V30 18809 O 1731.86 -2.02331 1.0618 0
M  V30 18810 C 1732.07 0.647054 3.42949 0
M  V30 18811 C 1733.42 0.619737 4.20053 0
M  V30 18812 O 1734.44 0.586757 3.51334 0
M  V30 18813 O 1733.3 0.651412 5.42604 0
M  V30 18814 H 1730.4 0.0631883 0.824582 0
M  V30 18815 H 1732.94 0.858594 1.46377 0
M  V30 18816 H 1731.71 1.68608 3.5311 0
M  V30 18817 H 1731.34 0.0297448 3.97589 0
M  V30 18818 N 1732.33 -1.48497 0.527859 0
M  V30 18819 C 1733.56 -2.07399 -0.00510725 0
M  V30 18820 C 1733.98 -1.38211 -1.2759 0
M  V30 18821 O 1733.34 -0.447373 -1.75694 0
M  V30 18822 C 1733.39 -3.59963 -0.214295 0
M  V30 18823 O 1732.49 -3.91921 -1.28342 0
M  V30 18824 H 1731.83 -0.662901 0.0381838 0
M  V30 18825 H 1734.36 -1.90936 0.735166 0
M  V30 18826 H 1734.37 -4.05646 -0.437604 0
M  V30 18827 H 1733.05 -4.09725 0.714028 0
M  V30 18828 H 1731.63 -3.58019 -1.04293 0
M  V30 18829 N 1733.81 -0.262893 -1.55392 0
M  V30 18830 C 1734.76 0.645946 -2.23451 0
M  V30 18831 C 1735.75 1.16753 -1.2274 0
M  V30 18832 O 1736.96 1.12257 -1.40706 0
M  V30 18833 H 1733.33 0.226829 -0.716975 0
M  V30 18834 H 1735.31 0.0489539 -2.9836 0
M  V30 18835 C 1734.05 1.82451 -2.95985 0
M  V30 18836 H 1733.38 1.43233 -3.73262 0
M  V30 18837 H 1734.82 2.43731 -3.46945 0
M  V30 18838 C 1733.28 2.7055 -2.0076 0
M  V30 18839 O 1733.81 3.70552 -1.55093 0
M  V30 18840 N 1732.01 2.37457 -1.67519 0
M  V30 18841 H 1731.56 1.56184 -2.04852 0
M  V30 18842 H 1731.52 2.96675 -1.04074 0
M  V30 18843 N 1735.29 1.57597 0.0100073 0
M  V30 18844 C 1736.24 2.07788 1.00463 0
M  V30 18845 C 1737.21 0.971101 1.34755 0
M  V30 18846 O 1738.39 1.2429 1.44764 0
M  V30 18847 C 1735.53 2.57769 2.29454 0
M  V30 18848 C 1734.64 3.8231 2.01153 0
M  V30 18849 C 1733.78 4.2083 3.24154 0
M  V30 18850 C 1732.82 5.38236 2.91494 0
M  V30 18851 N 1731.96 5.72096 4.07001 0
M  V30 18852 H 1736.8 2.92504 0.569675 0
M  V30 18853 H 1734.33 1.44607 0.269645 0
M  V30 18854 H 1736.29 2.84821 3.04849 0
M  V30 18855 H 1734.92 1.75942 2.70637 0
M  V30 18856 H 1733.97 3.62227 1.16171 0
M  V30 18857 H 1735.28 4.67811 1.73074 0
M  V30 18858 H 1734.44 4.49111 4.07902 0
M  V30 18859 H 1733.18 3.34019 3.55363 0
M  V30 18860 H 1732.18 5.09688 2.06151 0
M  V30 18861 H 1733.41 6.26716 2.61543 0
M  V30 18862 H 1731.35 4.88243 4.38126 0
M  V30 18863 H 1731.27 6.52148 3.82411 0
M  V30 18864 H 1732.54 6.04964 4.91567 0
M  V30 18865 N 1736.77 -0.282606 1.55045 0
M  V30 18866 C 1737.99 -1.03825 1.79542 0
M  V30 18867 C 1738.42 -1.79503 0.562165 0
M  V30 18868 O 1737.78 -1.7461 -0.487946 0
M  V30 18869 C 1737.82 -1.98007 3.01373 0
M  V30 18870 O 1736.93 -3.06621 2.75785 0
M  V30 18871 H 1736.27 -0.297333 0.593708 0
M  V30 18872 H 1738.8 -0.314434 2.02169 0
M  V30 18873 H 1738.81 -2.40138 3.29845 0
M  V30 18874 H 1737.48 -1.42335 3.90786 0
M  V30 18875 H 1736.06 -2.68874 2.58382 0
M  V30 18876 N 1738.25 -1.47815 -0.546675 0
M  V30 18877 C 1739.19 -1.61513 -1.67381 0
M  V30 18878 C 1740.19 -0.482064 -1.62396 0
M  V30 18879 O 1741.39 -0.660227 -1.67454 0
M  V30 18880 H 1737.77 -0.508484 -0.554029 0
M  V30 18881 H 1739.74 -2.5621 -1.52967 0
M  V30 18882 C 1738.49 -1.65645 -3.05707 0
M  V30 18883 H 1737.81 -2.52186 -3.10229 0
M  V30 18884 H 1739.25 -1.79277 -3.84234 0
M  V30 18885 C 1737.71 -0.391799 -3.34614 0
M  V30 18886 O 1738.24 0.502576 -3.98544 0
M  V30 18887 N 1736.45 -0.268593 -2.89356 0
M  V30 18888 H 1735.99 -0.997347 -2.37509 0
M  V30 18889 H 1735.95 0.5766 -3.09067 0
M  V30 18890 N 1739.72 0.794246 -1.36123 0
M  V30 18891 C 1740.67 1.92808 -1.30108 0
M  V30 18892 C 1741.67 1.68289 -0.193734 0
M  V30 18893 O 1742.87 1.76354 -0.360454 0
M  V30 18894 H 1739.25 0.633671 -0.404926 0
M  V30 18895 H 1741.22 1.95 -2.2587 0
M  V30 18896 C 1739.97 3.29762 -1.10238 0
M  V30 18897 H 1739.29 3.49193 -1.9469 0
M  V30 18898 H 1740.73 4.09463 -1.10073 0
M  V30 18899 C 1739.19 3.36345 0.193222 0
M  V30 18900 O 1739.72 3.83832 1.18474 0
M  V30 18901 N 1737.92 2.89638 0.236243 0
M  V30 18902 H 1737.47 2.51186 -0.571245 0
M  V30 18903 H 1737.43 2.94424 1.1028 0
M  V30 18904 N 1741.2 1.20323 1.01785 0
M  V30 18905 C 1742.43 1.03671 1.78706 0
M  V30 18906 C 1742.84 -0.417188 1.84543 0
M  V30 18907 O 1742.18 -1.30146 1.29645 0
M  V30 18908 C 1742.24 1.54318 3.24694 0
M  V30 18909 C 1741.91 3.02598 3.42466 0
M  V30 18910 C 1742.91 4.00267 3.31787 0
M  V30 18911 C 1740.59 3.41531 3.68323 0
M  V30 18912 C 1742.58 5.34858 3.46707 0
M  V30 18913 C 1740.27 4.76278 3.82887 0
M  V30 18914 C 1741.27 5.7275 3.72083 0
M  V30 18915 O 1740.96 7.05055 3.86203 0
M  V30 18916 H 1740.69 0.365174 0.56888 0
M  V30 18917 H 1743.24 1.59826 1.29014 0
M  V30 18918 H 1741.47 0.925474 3.75462 0
M  V30 18919 H 1743.16 1.33705 3.83246 0
M  V30 18920 H 1743.93 3.71534 3.11749 0
M  V30 18921 H 1739.81 2.66983 3.75821 0
M  V30 18922 H 1743.35 6.10142 3.3819 0
M  V30 18923 H 1739.25 5.04702 4.02425 0
M  V30 18924 H 1740.02 7.12284 4.03228 0
M  V30 18925 N 1742.68 -1.21073 1.00892 0
M  V30 18926 C 1744.1 -1.42314 0.72242 0
M  V30 18927 C 1744.3 -1.88917 -0.700908 0
M  V30 18928 O 1743.35 -2.05318 -1.46973 0
M  V30 18929 C 1744.66 -2.4513 1.74161 0
M  V30 18930 C 1746.21 -2.58907 1.75887 0
M  V30 18931 C 1746.69 -3.64959 2.76711 0
M  V30 18932 N 1748.18 -3.72434 2.75404 0
M  V30 18933 C 1748.91 -4.54129 3.50077 0
M  V30 18934 N 1748.41 -5.39691 4.34403 0
M  V30 18935 N 1750.2 -4.48589 3.38709 0
M  V30 18936 H 1742.35 -0.891353 1.92792 0
M  V30 18937 H 1744.62 -0.45372 0.832371 0
M  V30 18938 H 1744.32 -2.17868 2.76091 0
M  V30 18939 H 1744.2 -3.43996 1.54746 0
M  V30 18940 H 1746.58 -2.85503 0.746455 0
M  V30 18941 H 1746.66 -1.60261 1.99374 0
M  V30 18942 H 1746.31 -3.39107 3.78112 0
M  V30 18943 H 1746.24 -4.63209 2.50489 0
M  V30 18944 H 1748.73 -3.11311 2.14228 0
M  V30 18945 H 1749.04 -5.99092 4.88168 0
M  V30 18946 H 1747.39 -5.39219 4.38484 0
M  V30 18947 H 1750.58 -3.80778 2.7226 0
M  V30 18948 H 1750.75 -5.12023 3.97161 0
M  V30 18949 N 1744.16 -0.784156 -1.36707 0
M  V30 18950 C 1745.41 -0.350748 -1.98627 0
M  V30 18951 C 1745.72 1.08208 -1.62943 0
M  V30 18952 O 1746.93 1.6175 -2.18058 0
M  V30 18953 C 1745.38 -0.576173 -3.55258 0
M  V30 18954 C 1744.99 -2.02008 -3.99871 0
M  V30 18955 C 1746.73 -0.207008 -4.23995 0
M  V30 18956 C 1744.64 -2.19244 -5.4926 0
M  V30 18957 H 1743.57 -0.127403 -0.743158 0
M  V30 18958 H 1746.22 -0.965044 -1.56074 0
M  V30 18959 H 1744.6 0.10776 -3.95853 0
M  V30 18960 H 1745.78 -2.73998 -3.70489 0
M  V30 18961 H 1744.09 -2.34699 -3.43955 0
M  V30 18962 H 1746.69 -0.314139 -5.33776 0
M  V30 18963 H 1747.03 0.844253 -4.07649 0
M  V30 18964 H 1747.57 -0.843971 -3.88744 0
M  V30 18965 H 1744.31 -3.22734 -5.70546 0
M  V30 18966 H 1743.83 -1.51752 -5.80286 0
M  V30 18967 H 1745.5 -1.99703 -6.15408 0
M  V30 18968 N 1745.64 1.48215 -0.535727 0
M  V30 18969 C 1746.88 2.028 -0.00373305 0
M  V30 18970 C 1747.22 1.41143 1.33388 0
M  V30 18971 O 1746.49 0.559227 1.86287 0
M  V30 18972 C 1746.77 3.59925 0.112186 0
M  V30 18973 C 1746.63 4.32053 -1.251 0
M  V30 18974 C 1747.95 4.32083 0.836177 0
M  V30 18975 H 1745.06 0.736995 -0.00283063 0
M  V30 18976 H 1747.71 1.76877 -0.693868 0
M  V30 18977 H 1745.86 3.82142 0.69996 0
M  V30 18978 H 1747.53 4.21238 -1.88033 0
M  V30 18979 H 1745.77 3.93246 -1.83139 0
M  V30 18980 H 1746.44 5.4046 -1.12283 0
M  V30 18981 H 1748.92 4.1473 0.337333 0
M  V30 18982 H 1747.79 5.41699 0.886196 0
M  V30 18983 H 1748.06 3.99772 1.88771 0
M  V30 18984 N 1747.11 0.27113 1.5525 0
M  V30 18985 C 1748.06 -0.618069 2.2237 0
M  V30 18986 C 1749.03 -1.15282 1.19579 0
M  V30 18987 O 1750.22 -1.20285 1.48108 0
M  V30 18988 C 1747.36 -1.79821 2.94548 0
M  V30 18989 C 1746.47 -1.29769 4.12049 0
M  V30 18990 C 1745.6 -2.43931 4.7188 0
M  V30 18991 C 1744.64 -1.90862 5.81582 0
M  V30 18992 N 1743.78 -2.98482 6.35494 0
M  V30 18993 H 1748.62 -0.0390456 2.97974 0
M  V30 18994 H 1746.16 -0.00750636 1.47098 0
M  V30 18995 H 1748.12 -2.49184 3.34609 0
M  V30 18996 H 1746.75 -2.34933 2.21374 0
M  V30 18997 H 1745.8 -0.497288 3.77136 0
M  V30 18998 H 1747.11 -0.868957 4.91173 0
M  V30 18999 H 1746.26 -3.21295 5.1464 0
M  V30 19000 H 1745 -2.90118 3.92024 0
M  V30 19001 H 1744.01 -1.11977 5.38276 0
M  V30 19002 H 1745.23 -1.45616 6.63304 0
M  V30 19003 H 1743.18 -3.44058 5.58534 0
M  V30 19004 H 1743.1 -2.60014 7.09879 0
M  V30 19005 H 1744.36 -3.75833 6.82913 0
M  V30 19006 N 1748.59 -1.576 -0.00164943 0
M  V30 19007 C 1749.5 -2.11748 -1.00995 0
M  V30 19008 C 1750.52 -1.06235 -1.37805 0
M  V30 19009 O 1751.69 -1.38127 -1.4657 0
M  V30 19010 C 1748.76 -2.60869 -2.2836 0
M  V30 19011 C 1747.82 -3.80976 -1.97879 0
M  V30 19012 C 1747.05 -4.27745 -3.19171 0
M  V30 19013 O 1747.28 -3.73856 -4.30799 0
M  V30 19014 O 1746.21 -5.19917 -3.03265 0
M  V30 19015 H 1750.04 -2.98117 -0.579667 0
M  V30 19016 H 1747.62 -1.47766 -0.220375 0
M  V30 19017 H 1749.5 -2.9267 -3.03187 0
M  V30 19018 H 1748.18 -1.77598 -2.7063 0
M  V30 19019 H 1747.09 -3.54151 -1.20533 0
M  V30 19020 H 1748.42 -4.65315 -1.60447 0
M  V30 19021 N 1750.07 0.274379 -1.55193 0
M  V30 19022 C 1751.32 1.00394 -1.7494 0
M  V30 19023 C 1751.63 1.87499 -0.557084 0
M  V30 19024 O 1752.84 2.63923 -0.636936 0
M  V30 19025 C 1751.29 1.83489 -3.09612 0
M  V30 19026 C 1750.9 1.01257 -4.36407 0
M  V30 19027 C 1752.65 2.55883 -3.38709 0
M  V30 19028 C 1750.55 1.83782 -5.62119 0
M  V30 19029 H 1749.48 0.378561 -0.65208 0
M  V30 19030 H 1752.13 0.259678 -1.81653 0
M  V30 19031 H 1750.52 2.62005 -2.96933 0
M  V30 19032 H 1751.69 0.27167 -4.59998 0
M  V30 19033 H 1750.01 0.403235 -4.14443 0
M  V30 19034 H 1752.6 3.18028 -4.2984 0
M  V30 19035 H 1752.95 3.26096 -2.58779 0
M  V30 19036 H 1753.48 1.84398 -3.5248 0
M  V30 19037 H 1750.22 1.17992 -6.44793 0
M  V30 19038 H 1749.74 2.55473 -5.42673 0
M  V30 19039 H 1751.42 2.41181 -6.00367 0
M  V30 19040 N 1751.55 1.48103 0.538828 0
M  V30 19041 C 1752.48 1.64856 1.65363 0
M  V30 19042 C 1753.46 0.497579 1.6266 0
M  V30 19043 O 1754.64 0.729088 1.79994 0
M  V30 19044 C 1751.77 1.67984 3.03971 0
M  V30 19045 C 1750.73 2.82494 3.21529 0
M  V30 19046 C 1750.05 2.70706 4.6111 0
M  V30 19047 C 1751.35 4.23892 3.05145 0
M  V30 19048 H 1753.05 2.58183 1.51598 0
M  V30 19049 H 1750.59 1.24249 0.727886 0
M  V30 19050 H 1752.55 1.78294 3.81824 0
M  V30 19051 H 1751.27 0.712299 3.18738 0
M  V30 19052 H 1749.93 2.71725 2.46091 0
M  V30 19053 H 1749.58 1.7194 4.727 0
M  V30 19054 H 1749.28 3.47539 4.73804 0
M  V30 19055 H 1750.8 2.82971 5.41073 0
M  V30 19056 H 1752.22 4.3554 3.72797 0
M  V30 19057 H 1750.61 5.01654 3.29338 0
M  V30 19058 H 1751.68 4.40973 2.01671 0
M  V30 19059 N 1753.03 -0.787016 1.36542 0
M  V30 19060 C 1754.28 -1.54019 1.30234 0
M  V30 19061 C 1754.59 -1.95259 -0.115496 0
M  V30 19062 O 1755.79 -2.69827 -0.300966 0
M  V30 19063 C 1754.25 -2.78048 2.28512 0
M  V30 19064 C 1753.86 -2.43968 3.75744 0
M  V30 19065 C 1755.6 -3.56025 2.31185 0
M  V30 19066 C 1753.51 -3.64406 4.65792 0
M  V30 19067 H 1752.44 -0.578185 0.483961 0
M  V30 19068 H 1755.09 -0.8634 1.61919 0
M  V30 19069 H 1753.47 -3.47538 1.89824 0
M  V30 19070 H 1754.65 -1.82359 4.23181 0
M  V30 19071 H 1752.96 -1.79197 3.75869 0
M  V30 19072 H 1755.56 -4.45514 2.9567 0
M  V30 19073 H 1755.9 -3.94783 1.32107 0
M  V30 19074 H 1756.43 -2.93516 2.68502 0
M  V30 19075 H 1753.17 -3.30742 5.65942 0
M  V30 19076 H 1752.69 -4.25173 4.2307 0
M  V30 19077 H 1754.37 -4.31406 4.82181 0
M  V30 19078 N 1754.5 -1.20861 -1.01145 0
M  V30 19079 C 1755.92 -0.964575 -1.27154 0
M  V30 19080 C 1756.12 0.352861 -1.98386 0
M  V30 19081 O 1755.18 1.08012 -2.28232 0
M  V30 19082 C 1756.49 -2.15074 -2.10151 0
M  V30 19083 C 1758.04 -2.19229 -2.234 0
M  V30 19084 C 1758.51 -3.37346 -3.09777 0
M  V30 19085 N 1760 -3.37392 -3.17365 0
M  V30 19086 C 1760.74 -4.25434 -3.84439 0
M  V30 19087 N 1760.23 -5.23664 -4.53595 0
M  V30 19088 N 1762.03 -4.13261 -3.81014 0
M  V30 19089 H 1754.18 -2.05595 -0.533346 0
M  V30 19090 H 1756.44 -0.899928 -0.298048 0
M  V30 19091 H 1756.15 -3.10511 -1.65153 0
M  V30 19092 H 1756.02 -2.13598 -3.10895 0
M  V30 19093 H 1758.41 -1.24352 -2.6762 0
M  V30 19094 H 1758.49 -2.24752 -1.22148 0
M  V30 19095 H 1758.13 -4.32513 -2.66261 0
M  V30 19096 H 1758.06 -3.29061 -4.11128 0
M  V30 19097 H 1760.55 -2.66299 -2.68129 0
M  V30 19098 H 1760.87 -5.87158 -5.02459 0
M  V30 19099 H 1759.21 -5.27595 -4.52403 0
M  V30 19100 H 1762.4 -3.35786 -3.26137 0
M  V30 19101 H 1762.58 -4.82085 -4.3301 0
M  V30 19102 N 1755.98 1.20536 -1.01532 0
M  V30 19103 C 1756.91 2.2553 -0.604866 0
M  V30 19104 C 1757.89 1.65814 0.379452 0
M  V30 19105 O 1759.08 1.92381 0.265162 0
M  V30 19106 C 1756.21 3.4725 0.0589292 0
M  V30 19107 C 1755.16 4.19551 -0.846241 0
M  V30 19108 C 1754.49 5.34678 -0.0482901 0
M  V30 19109 C 1755.79 4.75829 -2.1537 0
M  V30 19110 H 1757.48 2.60117 -1.48254 0
M  V30 19111 H 1755.03 1.25035 -0.714297 0
M  V30 19112 H 1756.98 4.1988 0.357627 0
M  V30 19113 H 1755.71 3.11822 0.97131 0
M  V30 19114 H 1754.36 3.48785 -1.12892 0
M  V30 19115 H 1754.01 4.95494 0.8657 0
M  V30 19116 H 1753.71 5.83982 -0.651081 0
M  V30 19117 H 1755.24 6.10112 0.243983 0
M  V30 19118 H 1756.65 5.40284 -1.91745 0
M  V30 19119 H 1755.05 5.35564 -2.70723 0
M  V30 19120 H 1756.12 3.94641 -2.81756 0
M  V30 19121 N 1757.46 0.791395 1.36289 0
M  V30 19122 C 1758.69 0.375566 2.03971 0
M  V30 19123 C 1759.11 -1.00061 1.59277 0
M  V30 19124 O 1758.47 -1.64501 0.762182 0
M  V30 19125 C 1758.52 0.449891 3.57783 0
M  V30 19126 O 1757.62 -0.54243 4.08817 0
M  V30 19127 H 1756.96 0.159181 0.644637 0
M  V30 19128 H 1759.49 1.07306 1.74203 0
M  V30 19129 H 1759.5 0.314206 4.06788 0
M  V30 19130 H 1758.18 1.45377 3.89665 0
M  V30 19131 H 1756.75 -0.368243 3.71077 0
M  V30 19132 N 1758.94 -1.47929 0.54358 0
M  V30 19133 C 1759.89 -2.29827 -0.211706 0
M  V30 19134 C 1760.86 -1.38217 -0.921154 0
M  V30 19135 O 1762.04 -1.67181 -0.919522 0
M  V30 19136 C 1759.18 -3.21889 -1.24425 0
M  V30 19137 C 1758.29 -4.28583 -0.542264 0
M  V30 19138 C 1757.43 -5.0781 -1.55892 0
M  V30 19139 C 1756.47 -6.06293 -0.841146 0
M  V30 19140 N 1755.61 -6.78528 -1.80399 0
M  V30 19141 H 1760.45 -2.93896 0.492835 0
M  V30 19142 H 1757.98 -1.44875 0.254873 0
M  V30 19143 H 1759.94 -3.73674 -1.85535 0
M  V30 19144 H 1758.57 -2.59713 -1.917 0
M  V30 19145 H 1757.62 -3.79959 0.183069 0
M  V30 19146 H 1758.93 -4.98796 0.0206703 0
M  V30 19147 H 1758.09 -5.63678 -2.24393 0
M  V30 19148 H 1756.83 -4.37468 -2.15576 0
M  V30 19149 H 1755.83 -5.49616 -0.14214 0
M  V30 19150 H 1757.06 -6.78639 -0.250232 0
M  V30 19151 H 1755 -6.10927 -2.38965 0
M  V30 19152 H 1754.92 -7.44863 -1.29285 0
M  V30 19153 H 1756.19 -7.38978 -2.48056 0
M  V30 19154 N 1760.42 -0.27936 -1.55104 0
M  V30 19155 C 1761.35 0.599831 -2.25664 0
M  V30 19156 C 1762.33 1.15548 -1.24831 0
M  V30 19157 O 1763.51 1.18883 -1.53559 0
M  V30 19158 C 1760.64 1.78202 -2.98096 0
M  V30 19159 C 1759.6 1.35771 -4.05894 0
M  V30 19160 C 1758.92 2.62334 -4.65924 0
M  V30 19161 C 1760.22 0.504795 -5.19855 0
M  V30 19162 H 1761.92 0.0113761 -2.99398 0
M  V30 19163 H 1759.46 0.00403149 -1.43999 0
M  V30 19164 H 1761.42 2.403 -3.4617 0
M  V30 19165 H 1760.14 2.39637 -2.21905 0
M  V30 19166 H 1758.8 0.75991 -3.58638 0
M  V30 19167 H 1758.45 3.22036 -3.86396 0
M  V30 19168 H 1758.15 2.34654 -5.38713 0
M  V30 19169 H 1759.67 3.25273 -5.16749 0
M  V30 19170 H 1761.09 1.03089 -5.63955 0
M  V30 19171 H 1759.48 0.322696 -5.99232 0
M  V30 19172 H 1760.55 -0.475409 -4.82564 0
M  V30 19173 N 1761.9 1.57599 -0.0067085 0
M  V30 19174 C 1763.14 1.92717 0.681153 0
M  V30 19175 C 1763.5 0.881593 1.70564 0
M  V30 19176 O 1764.7 1.11823 2.44436 0
M  V30 19177 C 1762.97 3.32858 1.30155 0
M  V30 19178 S 1764.53 3.89871 2.0136 0
M  V30 19179 H 1761.35 0.674515 0.224833 0
M  V30 19180 H 1763.95 1.95392 -0.0650048 0
M  V30 19181 H 1762.65 4.0679 0.54318 0
M  V30 19182 H 1762.19 3.33573 2.0855 0
M  V30 19183 H 1764.2 3.7149 3.28952 0
M  V30 19184 N 1763.37 -0.266145 1.55336 0
M  V30 19185 C 1764.62 -0.998308 1.76527 0
M  V30 19186 C 1764.95 -1.85691 0.568535 0
M  V30 19187 O 1764.23 -1.89602 -0.433735 0
M  V30 19188 C 1764.51 -1.87509 3.07429 0
M  V30 19189 C 1764.36 -1.04596 4.3747 0
M  V30 19190 C 1765.68 -2.86099 3.34418 0
M  V30 19191 H 1762.8 -0.361514 0.642244 0
M  V30 19192 H 1765.44 -0.270186 1.88069 0
M  V30 19193 H 1763.59 -2.49591 2.97719 0
M  V30 19194 H 1765.27 -0.445323 4.59145 0
M  V30 19195 H 1763.51 -0.349641 4.32389 0
M  V30 19196 H 1764.18 -1.69279 5.25403 0
M  V30 19197 H 1766.66 -2.34153 3.43965 0
M  V30 19198 H 1765.53 -3.44584 4.27262 0
M  V30 19199 H 1765.79 -3.61577 2.5439 0
M  V30 19200 N 1764.85 -1.48386 -0.530967 0
M  V30 19201 C 1765.78 -1.58922 -1.65156 0
M  V30 19202 C 1766.8 -0.473583 -1.5576 0
M  V30 19203 O 1767.99 -0.744383 -1.62238 0
M  V30 19204 C 1765.09 -1.50201 -3.03798 0
M  V30 19205 C 1764.26 -2.76787 -3.38685 0
M  V30 19206 C 1763.32 -2.61534 -4.56603 0
M  V30 19207 O 1762.34 -3.35417 -4.59874 0
M  V30 19208 N 1763.55 -1.71087 -5.54716 0
M  V30 19209 H 1766.31 -2.55559 -1.56555 0
M  V30 19210 H 1763.87 -1.45097 -0.718216 0
M  V30 19211 H 1765.86 -1.37693 -3.80556 0
M  V30 19212 H 1764.43 -0.615419 -3.06482 0
M  V30 19213 H 1763.65 -3.03867 -2.51115 0
M  V30 19214 H 1764.94 -3.6077 -3.58779 0
M  V30 19215 H 1764.34 -1.10261 -5.54851 0
M  V30 19216 H 1762.9 -1.64518 -6.30696 0
M  V30 19217 N 1766.33 0.779763 -1.36958 0
M  V30 19218 C 1767.28 1.91417 -1.32145 0
M  V30 19219 C 1768.27 1.68074 -0.211572 0
M  V30 19220 O 1769.48 1.75962 -0.379139 0
M  V30 19221 H 1765.85 0.62934 -0.411624 0
M  V30 19222 H 1767.82 1.92594 -2.27926 0
M  V30 19223 C 1766.57 3.28574 -1.13729 0
M  V30 19224 H 1765.9 3.47109 -1.98383 0
M  V30 19225 H 1767.34 4.08272 -1.1441 0
M  V30 19226 C 1765.79 3.36531 0.157538 0
M  V30 19227 O 1766.32 3.85067 1.14397 0
M  V30 19228 N 1764.53 2.89872 0.205509 0
M  V30 19229 H 1764.08 2.50566 -0.597854 0
M  V30 19230 H 1764.04 2.95578 1.07151 0
M  V30 19231 N 1767.81 1.21396 1.00503 0
M  V30 19232 C 1768.75 0.973198 2.09279 0
M  V30 19233 C 1769.72 -0.100797 1.65794 0
M  V30 19234 O 1770.91 0.0463185 1.90744 0
M  V30 19235 C 1768.05 0.543941 3.40786 0
M  V30 19236 C 1767.16 1.68737 3.97683 0
M  V30 19237 C 1766.3 1.20728 5.17299 0
M  V30 19238 C 1765.34 2.32305 5.66305 0
M  V30 19239 N 1764.47 1.8543 6.77171 0
M  V30 19240 H 1769.31 1.90441 2.29208 0
M  V30 19241 H 1766.85 0.949082 1.12387 0
M  V30 19242 H 1768.81 0.276311 4.16284 0
M  V30 19243 H 1767.44 -0.350263 3.20894 0
M  V30 19244 H 1766.49 2.06964 3.19171 0
M  V30 19245 H 1767.8 2.5271 4.30045 0
M  V30 19246 H 1766.96 0.896312 6.00043 0
M  V30 19247 H 1765.7 0.3376 4.8653 0
M  V30 19248 H 1764.7 2.64205 4.82158 0
M  V30 19249 H 1765.93 3.19769 5.99103 0
M  V30 19250 H 1763.87 1.00806 6.48208 0
M  V30 19251 H 1763.79 2.62976 7.08788 0
M  V30 19252 H 1765.06 1.57366 7.6345 0
M  V30 19253 N 1769.29 -1.19996 1.0217 0
M  V30 19254 C 1770.23 -2.22963 0.596318 0
M  V30 19255 C 1771.2 -1.61548 -0.386212 0
M  V30 19256 O 1772.39 -1.88667 -0.284497 0
M  V30 19257 C 1769.53 -3.45058 -0.054059 0
M  V30 19258 C 1768.64 -4.20885 0.973648 0
M  V30 19259 C 1767.78 -5.30387 0.293788 0
M  V30 19260 C 1766.81 -5.97964 1.3079 0
M  V30 19261 N 1765.95 -6.99044 0.654351 0
M  V30 19262 H 1770.79 -2.58709 1.47898 0
M  V30 19263 H 1768.33 -1.27117 0.740254 0
M  V30 19264 H 1770.29 -4.14784 -0.448313 0
M  V30 19265 H 1768.92 -3.0999 -0.900342 0
M  V30 19266 H 1767.97 -3.50174 1.48602 0
M  V30 19267 H 1769.28 -4.67292 1.7447 0
M  V30 19268 H 1768.43 -6.065 -0.155695 0
M  V30 19269 H 1767.17 -4.85031 -0.509521 0
M  V30 19270 H 1766.18 -5.20607 1.76772 0
M  V30 19271 H 1767.4 -6.45404 2.11258 0
M  V30 19272 H 1765.35 -6.55873 -0.128996 0
M  V30 19273 H 1765.27 -7.43605 1.36339 0
M  V30 19274 H 1766.53 -7.79165 0.228631 0
M  V30 19275 N 1770.76 -0.798611 -1.35867 0
M  V30 19276 C 1772 -0.380789 -2.00822 0
M  V30 19277 C 1772.37 1.03061 -1.61995 0
M  V30 19278 O 1773.57 1.55001 -2.19609 0
M  V30 19279 C 1771.84 -0.549604 -3.53149 0
M  V30 19280 S 1773.4 -0.221022 -4.38243 0
M  V30 19281 H 1770.22 -0.145008 -0.696056 0
M  V30 19282 H 1772.82 -1.03912 -1.65598 0
M  V30 19283 H 1771.52 -1.57695 -3.78894 0
M  V30 19284 H 1771.05 0.124329 -3.93203 0
M  V30 19285 H 1773.07 0.974167 -4.86543 0
M  V30 19286 N 1772.24 1.47639 -0.551417 0
M  V30 19287 C 1773.66 1.58202 -0.210768 0
M  V30 19288 C 1773.86 1.55078 1.28659 0
M  V30 19289 O 1772.91 1.45113 2.06636 0
M  V30 19290 C 1774.23 2.88952 -0.832294 0
M  V30 19291 C 1775.77 3.02524 -0.80299 0
M  V30 19292 C 1776.25 4.35966 -1.40348 0
M  V30 19293 N 1777.74 4.42587 -1.3664 0
M  V30 19294 C 1778.48 5.44391 -1.80072 0
M  V30 19295 N 1777.97 6.53037 -2.31332 0
M  V30 19296 N 1779.76 5.35401 -1.71178 0
M  V30 19297 H 1771.92 1.47912 -1.52433 0
M  V30 19298 H 1774.18 0.703607 -0.635328 0
M  V30 19299 H 1773.88 2.96958 -1.88439 0
M  V30 19300 H 1773.76 3.75824 -0.321915 0
M  V30 19301 H 1776.15 2.94119 0.240395 0
M  V30 19302 H 1776.23 2.17209 -1.35107 0
M  V30 19303 H 1775.87 4.45127 -2.4459 0
M  V30 19304 H 1775.8 5.20004 -0.830897 0
M  V30 19305 H 1778.29 3.64664 -0.991386 0
M  V30 19306 H 1778.6 7.26884 -2.62411 0
M  V30 19307 H 1776.95 6.53942 -2.35339 0
M  V30 19308 H 1780.14 4.49421 -1.30912 0
M  V30 19309 H 1780.31 6.14604 -2.05344 0
M  V30 19310 N 1773.72 0.287581 1.54954 0
M  V30 19311 C 1774.67 -0.610315 2.2445 0
M  V30 19312 C 1775.66 -1.14786 1.24582 0
M  V30 19313 O 1776.87 -1.10005 1.42474 0
M  V30 19314 H 1773.24 -0.215394 0.720493 0
M  V30 19315 H 1775.21 -0.00148121 2.984 0
M  V30 19316 C 1773.96 -1.77719 2.9885 0
M  V30 19317 H 1773.29 -1.37277 3.75493 0
M  V30 19318 H 1774.73 -2.38181 3.50779 0
M  V30 19319 C 1773.19 -2.67321 2.05039 0
M  V30 19320 O 1773.72 -3.68038 1.60968 0
M  V30 19321 N 1771.92 -2.34761 1.71276 0
M  V30 19322 H 1771.47 -1.52905 2.07311 0
M  V30 19323 H 1771.43 -2.94981 1.08781 0
M  V30 19324 N 1775.2 -1.57593 0.0150662 0
M  V30 19325 C 1776.13 -2.06239 -0.999912 0
M  V30 19326 C 1777.14 -0.983112 -1.29764 0
M  V30 19327 O 1778.33 -1.25961 -1.26476 0
M  V30 19328 C 1775.43 -2.46011 -2.33092 0
M  V30 19329 C 1774.61 -3.76851 -2.2204 0
M  V30 19330 C 1773.66 -4.03326 -3.37956 0
M  V30 19331 O 1772.69 -4.73781 -3.15469 0
M  V30 19332 N 1773.89 -3.52399 -4.61298 0
M  V30 19333 H 1776.66 -2.93936 -0.584952 0
M  V30 19334 H 1774.22 -1.60984 -0.172001 0
M  V30 19335 H 1776.21 -2.60825 -3.09439 0
M  V30 19336 H 1774.78 -1.63753 -2.66277 0
M  V30 19337 H 1774 -3.71969 -1.30509 0
M  V30 19338 H 1775.29 -4.626 -2.11845 0
M  V30 19339 H 1774.69 -2.95374 -4.82463 0
M  V30 19340 H 1773.24 -3.72516 -5.3486 0
M  V30 19341 N 1776.68 0.257904 -1.55475 0
M  V30 19342 C 1777.63 1.32176 -1.85778 0
M  V30 19343 C 1778.61 1.44002 -0.717789 0
M  V30 19344 O 1779.8 1.47429 -0.979476 0
M  V30 19345 C 1776.93 2.67928 -2.14638 0
M  V30 19346 C 1776.02 2.60151 -3.34936 0
M  V30 19347 N 1776.41 2.22 -4.54477 0
M  V30 19348 C 1774.71 2.91186 -3.37827 0
M  V30 19349 C 1775.41 2.24586 -5.36597 0
M  V30 19350 N 1774.38 2.63656 -4.7538 0
M  V30 19351 H 1778.19 1.01711 -2.75739 0
M  V30 19352 H 1775.7 0.466539 -1.55554 0
M  V30 19353 H 1777.7 3.4469 -2.34508 0
M  V30 19354 H 1776.36 2.99269 -1.25969 0
M  V30 19355 H 1777.37 1.93726 -4.80303 0
M  V30 19356 H 1774.04 3.27139 -2.59397 0
M  V30 19357 H 1775.43 1.97522 -6.42211 0
M  V30 19358 N 1778.15 1.48666 0.52309 0
M  V30 19359 C 1779.09 1.59796 1.64311 0
M  V30 19360 C 1780.1 0.481836 1.55506 0
M  V30 19361 O 1781.29 0.752977 1.61841 0
M  V30 19362 C 1778.39 1.5181 3.02997 0
M  V30 19363 C 1777.56 2.7858 3.37212 0
M  V30 19364 C 1776.62 2.63952 4.5521 0
M  V30 19365 O 1775.65 3.37851 4.58088 0
M  V30 19366 N 1776.85 1.74026 5.53801 0
M  V30 19367 H 1779.61 2.56386 1.55197 0
M  V30 19368 H 1777.17 1.45476 0.710511 0
M  V30 19369 H 1779.17 1.39709 3.7982 0
M  V30 19370 H 1777.74 0.631664 3.06152 0
M  V30 19371 H 1776.96 3.05194 2.495 0
M  V30 19372 H 1778.24 3.62668 3.56861 0
M  V30 19373 H 1777.64 1.13202 5.54258 0
M  V30 19374 H 1776.2 1.6786 6.29814 0
M  V30 19375 N 1779.63 -0.772489 1.37369 0
M  V30 19376 C 1781.05 -1.07294 1.18153 0
M  V30 19377 C 1781.25 -2.01493 0.0171782 0
M  V30 19378 O 1780.3 -2.44177 -0.642964 0
M  V30 19379 C 1781.62 -1.67116 2.49986 0
M  V30 19380 C 1783.17 -1.79377 2.56501 0
M  V30 19381 C 1783.64 -2.42612 3.88463 0
M  V30 19382 N 1785.13 -2.50063 3.89901 0
M  V30 19383 C 1785.87 -2.99841 4.88756 0
M  V30 19384 N 1785.36 -3.49798 5.98008 0
M  V30 19385 N 1787.16 -2.98709 4.76161 0
M  V30 19386 H 1779.31 -0.147014 2.11891 0
M  V30 19387 H 1781.57 -0.127846 0.93934 0
M  V30 19388 H 1781.28 -1.05369 3.35545 0
M  V30 19389 H 1781.15 -2.6642 2.67021 0
M  V30 19390 H 1783.54 -2.40257 1.71349 0
M  V30 19391 H 1783.62 -0.788304 2.4335 0
M  V30 19392 H 1783.26 -1.82372 4.74029 0
M  V30 19393 H 1783.19 -3.43763 3.98917 0
M  V30 19394 H 1785.68 -2.14709 3.1098 0
M  V30 19395 H 1786 -3.86181 6.69391 0
M  V30 19396 H 1784.34 -3.47905 6.01654 0
M  V30 19397 H 1787.53 -2.5898 3.89932 0
M  V30 19398 H 1787.7 -3.37193 5.53358 0
M  V30 19399 N 1781.11 -1.21927 -0.998575 0
M  V30 19400 C 1782.04 -1.00845 -2.106 0
M  V30 19401 C 1783.02 0.068733 -1.69961 0
M  V30 19402 O 1784.21 -0.0923686 -1.9398 0
M  V30 19403 C 1781.34 -0.57929 -3.42435 0
M  V30 19404 C 1780.29 -1.60177 -3.96897 0
M  V30 19405 C 1779.62 -1.02863 -5.24713 0
M  V30 19406 C 1780.92 -2.9903 -4.28227 0
M  V30 19407 H 1782.61 -1.93469 -2.28495 0
M  V30 19408 H 1780.16 -0.931612 -1.09804 0
M  V30 19409 H 1782.11 -0.418944 -4.19312 0
M  V30 19410 H 1780.83 0.382608 -3.24351 0
M  V30 19411 H 1779.49 -1.74979 -3.22146 0
M  V30 19412 H 1779.14 -0.058254 -5.02966 0
M  V30 19413 H 1778.84 -1.71166 -5.62117 0
M  V30 19414 H 1780.36 -0.879743 -6.04229 0
M  V30 19415 H 1781.78 -2.87634 -4.95923 0
M  V30 19416 H 1780.18 -3.64404 -4.76791 0
M  V30 19417 H 1781.25 -3.4939 -3.36236 0
M  V30 19418 N 1782.59 1.19452 -1.02805 0
M  V30 19419 C 1783.52 2.24875 -0.628752 0
M  V30 19420 C 1784.5 1.66207 0.361844 0
M  V30 19421 O 1785.68 1.92652 0.244743 0
M  V30 19422 C 1782.81 3.47293 0.0220954 0
M  V30 19423 C 1781.77 4.1863 -0.890693 0
M  V30 19424 C 1781.09 5.34597 -0.104997 0
M  V30 19425 C 1782.39 4.73518 -2.20405 0
M  V30 19426 H 1784.09 2.5853 -1.51005 0
M  V30 19427 H 1781.63 1.24271 -0.727518 0
M  V30 19428 H 1783.59 4.20235 0.313073 0
M  V30 19429 H 1782.31 3.12835 0.938182 0
M  V30 19430 H 1780.97 3.47568 -1.16585 0
M  V30 19431 H 1780.62 4.96385 0.813098 0
M  V30 19432 H 1780.32 5.83258 -0.712983 0
M  V30 19433 H 1781.84 6.10337 0.179259 0
M  V30 19434 H 1783.26 5.3822 -1.97465 0
M  V30 19435 H 1781.65 5.32663 -2.76388 0
M  V30 19436 H 1782.72 3.9163 -2.85926 0
M  V30 19437 N 1784.07 0.805805 1.35442 0
M  V30 19438 C 1785.01 0.213632 2.29809 0
M  V30 19439 C 1785.98 -0.651878 1.52774 0
M  V30 19440 O 1787.17 -0.597124 1.81216 0
M  V30 19441 C 1784.31 -0.632444 3.39255 0
M  V30 19442 C 1783.42 0.253414 4.31256 0
M  V30 19443 C 1782.56 -0.600593 5.27794 0
M  V30 19444 C 1781.6 0.285712 6.11433 0
M  V30 19445 N 1780.73 -0.528222 7.0011 0
M  V30 19446 H 1785.57 1.02378 2.79862 0
M  V30 19447 H 1783.11 0.516397 1.37738 0
M  V30 19448 H 1785.07 -1.13814 4.01376 0
M  V30 19449 H 1783.7 -1.40786 2.90481 0
M  V30 19450 H 1782.75 0.877202 3.70148 0
M  V30 19451 H 1784.06 0.935631 4.89946 0
M  V30 19452 H 1783.22 -1.17145 5.95283 0
M  V30 19453 H 1781.95 -1.31638 4.69598 0
M  V30 19454 H 1780.96 0.868843 5.42891 0
M  V30 19455 H 1782.18 0.999349 6.71707 0
M  V30 19456 H 1780.13 -1.228 6.44404 0
M  V30 19457 H 1780.05 0.0959658 7.55939 0
M  V30 19458 H 1781.32 -1.08238 7.71949 0
M  V30 19459 N 1785.54 -1.47344 0.559239 0
M  V30 19460 C 1786.49 -2.31735 -0.200368 0
M  V30 19461 C 1787.49 -1.43051 -0.907351 0
M  V30 19462 O 1788.69 -1.59804 -0.828406 0
M  V30 19463 H 1785.07 -0.747351 -0.0834871 0
M  V30 19464 H 1787.04 -2.93645 0.530556 0
M  V30 19465 C 1785.79 -3.25747 -1.2159 0
M  V30 19466 H 1785.11 -3.93952 -0.681314 0
M  V30 19467 H 1786.55 -3.87624 -1.71825 0
M  V30 19468 C 1785.01 -2.49414 -2.26482 0
M  V30 19469 O 1785.54 -2.24006 -3.33443 0
M  V30 19470 N 1783.75 -2.10387 -2.00464 0
M  V30 19471 H 1783.29 -2.3125 -1.13495 0
M  V30 19472 H 1783.25 -1.5963 -2.70861 0
M  V30 19473 N 1787.02 -0.295795 -1.54799 0
M  V30 19474 C 1787.96 0.624485 -2.19489 0
M  V30 19475 C 1788.93 1.1368 -1.16257 0
M  V30 19476 O 1790.12 1.20596 -1.44875 0
M  V30 19477 C 1787.24 1.85387 -2.8346 0
M  V30 19478 C 1786.29 1.47524 -4.00173 0
M  V30 19479 S 1787.12 0.535637 -5.32814 0
M  V30 19480 C 1788.28 1.77293 -6.00265 0
M  V30 19481 H 1788.51 0.0748912 -2.97206 0
M  V30 19482 H 1786.05 -0.0799541 -1.54193 0
M  V30 19483 H 1788 2.55941 -3.20943 0
M  V30 19484 H 1786.66 2.37462 -2.05598 0
M  V30 19485 H 1785.86 2.39058 -4.43697 0
M  V30 19486 H 1785.46 0.849697 -3.6422 0
M  V30 19487 H 1787.75 2.7142 -6.20756 0
M  V30 19488 H 1788.69 1.38035 -6.94516 0
M  V30 19489 H 1789.1 1.94728 -5.2985 0
M  V30 19490 N 1788.5 1.57583 -0.0234236 0
M  V30 19491 C 1789.75 1.91186 0.655152 0
M  V30 19492 C 1790.07 0.89988 1.72995 0
M  V30 19493 O 1789.34 -0.0594278 1.9581 0
M  V30 19494 H 1787.92 0.705686 0.244982 0
M  V30 19495 H 1790.58 1.94775 -0.0698824 0
M  V30 19496 H 1789.68 2.91636 1.11152 0
M  V30 19497 N 1789.98 -0.249655 1.5561 0
M  V30 19498 C 1790.94 -1.29242 1.89286 0
M  V30 19499 C 1791.94 -1.41214 0.769104 0
M  V30 19500 O 1793.13 -1.39962 1.03712 0
M  V30 19501 C 1790.26 -2.67053 2.11885 0
M  V30 19502 H 1791.46 -1.00601 2.82523 0
M  V30 19503 H 1789.01 -0.488819 1.4846 0
M  V30 19504 H 1789.75 -3.00838 1.21107 0
M  V30 19505 H 1789.53 -2.59745 2.93726 0
M  V30 19506 H 1791.02 -3.42353 2.39132 0
M  V30 19507 N 1791.46 -1.48941 -0.515198 0
M  V30 19508 C 1792.41 -1.60958 -1.61482 0
M  V30 19509 C 1793.39 -0.46591 -1.54007 0
M  V30 19510 O 1794.58 -0.718134 -1.61777 0
M  V30 19511 C 1791.71 -1.66623 -3.00153 0
M  V30 19512 C 1790.8 -2.8652 -3.12677 0
M  V30 19513 N 1791.19 -4.10769 -2.95131 0
M  V30 19514 C 1789.49 -2.84161 -3.43756 0
M  V30 19515 C 1790.19 -4.9129 -3.11463 0
M  V30 19516 N 1789.16 -4.24384 -3.39704 0
M  V30 19517 H 1792.97 -2.54756 -1.46549 0
M  V30 19518 H 1790.48 -1.45517 -0.721007 0
M  V30 19519 H 1792.48 -1.73328 -3.79161 0
M  V30 19520 H 1791.14 -0.739523 -3.16166 0
M  V30 19521 H 1792.15 -4.40974 -2.71593 0
M  V30 19522 H 1788.83 -2.00809 -3.66035 0
M  V30 19523 H 1790.22 -5.99948 -3.0251 0
M  V30 19524 N 1792.94 0.765193 -1.37777 0
M  V30 19525 C 1794.16 1.55948 -1.3673 0
M  V30 19526 C 1794.59 1.8805 0.0435817 0
M  V30 19527 O 1793.94 1.49718 1.02246 0
M  V30 19528 C 1793.99 2.84245 -2.21895 0
M  V30 19529 O 1793.1 3.78903 -1.62807 0
M  V30 19530 H 1792.44 0.472127 -0.466897 0
M  V30 19531 H 1794.97 0.946556 -1.81388 0
M  V30 19532 H 1794.98 3.33284 -2.35342 0
M  V30 19533 H 1793.65 2.60209 -3.24444 0
M  V30 19534 H 1792.23 3.37568 -1.58437 0
M  V30 19535 N 1794.41 1.22455 0.992094 0
M  V30 19536 C 1795.66 1.05115 1.73432 0
M  V30 19537 C 1795.99 -0.412642 1.89765 0
M  V30 19538 O 1795.27 -1.3059 1.44141 0
M  V30 19539 C 1795.55 1.76385 3.13943 0
M  V30 19540 C 1795.4 3.30364 3.05253 0
M  V30 19541 C 1796.72 1.51688 4.13133 0
M  V30 19542 H 1793.84 0.383261 0.629508 0
M  V30 19543 H 1796.48 1.50805 1.15576 0
M  V30 19544 H 1794.63 1.37544 3.63337 0
M  V30 19545 H 1796.31 3.78655 2.63474 0
M  V30 19546 H 1794.55 3.6 2.42038 0
M  V30 19547 H 1795.22 3.75409 4.04687 0
M  V30 19548 H 1797.7 1.85429 3.72499 0
M  V30 19549 H 1796.57 2.04049 5.09564 0
M  V30 19550 H 1796.83 0.449654 4.39807 0
M  V30 19551 N 1795.89 -1.18905 1.03437 0
M  V30 19552 C 1797.14 -1.89007 0.735135 0
M  V30 19553 C 1797.47 -1.7976 -0.734838 0
M  V30 19554 O 1796.75 -1.19365 -1.53565 0
M  V30 19555 C 1797.03 -3.39732 1.1939 0
M  V30 19556 C 1796.88 -3.57822 2.7255 0
M  V30 19557 C 1798.2 -4.33151 0.778993 0
M  V30 19558 H 1795.32 -0.686338 0.26853 0
M  V30 19559 H 1797.96 -1.39932 1.28527 0
M  V30 19560 H 1796.11 -3.81659 0.725861 0
M  V30 19561 H 1797.78 -3.25031 3.27342 0
M  V30 19562 H 1796.03 -3.0069 3.12679 0
M  V30 19563 H 1796.7 -4.63552 2.99706 0
M  V30 19564 H 1799.17 -3.98969 1.18164 0
M  V30 19565 H 1798.05 -5.37189 1.12781 0
M  V30 19566 H 1798.31 -4.40953 -0.318296 0
M  V30 19567 N 1797.37 -0.812977 -1.35013 0
M  V30 19568 C 1798.3 -0.242397 -2.32238 0
M  V30 19569 C 1799.28 0.635676 -1.57776 0
M  V30 19570 O 1800.47 0.564621 -1.85811 0
M  V30 19571 C 1797.6 0.604686 -3.41995 0
M  V30 19572 C 1796.55 -0.17542 -4.2764 0
M  V30 19573 C 1795.88 0.793772 -5.28775 0
M  V30 19574 C 1797.18 -1.37802 -5.03794 0
M  V30 19575 H 1798.87 -1.0547 -2.80208 0
M  V30 19576 H 1796.42 -0.508619 -1.34718 0
M  V30 19577 H 1798.37 1.01396 -4.09019 0
M  V30 19578 H 1797.09 1.44994 -2.9265 0
M  V30 19579 H 1795.75 -0.565948 -3.62205 0
M  V30 19580 H 1795.4 1.63471 -4.75696 0
M  V30 19581 H 1795.1 0.276085 -5.86951 0
M  V30 19582 H 1796.62 1.20112 -5.9867 0
M  V30 19583 H 1798.04 -1.04328 -5.63727 0
M  V30 19584 H 1796.43 -1.83064 -5.71496 0
M  V30 19585 H 1797.5 -2.16138 -4.34065 0
M  V30 19586 N 1798.85 1.47045 -0.567045 0
M  V30 19587 C 1800.12 1.9559 0.0194544 0
M  V30 19588 C 1800.5 1.5097 1.47551 0
M  V30 19589 O 1799.85 0.753072 2.15734 0
M  V30 19590 C 1800.06 3.48734 -0.136263 0
M  V30 19591 C 1801.41 4.246 0.00401745 0
M  V30 19592 O 1802.43 3.56142 -0.0643042 0
M  V30 19593 O 1801.29 5.46287 0.152706 0
M  V30 19594 H 1798.39 0.82492 0.0586233 0
M  V30 19595 H 1800.93 1.57401 -0.634262 0
M  V30 19596 H 1799.71 3.74048 -1.14909 0
M  V30 19597 H 1799.33 3.93713 0.554612 0
M  V30 19598 N 1800.33 0.304 1.5464 0
M  V30 19599 C 1801.26 -0.563854 2.2659 0
M  V30 19600 C 1802.24 -1.13547 1.26653 0
M  V30 19601 O 1803.42 -1.16425 1.55431 0
M  V30 19602 C 1800.55 -1.73437 3.00894 0
M  V30 19603 C 1799.51 -1.29297 4.08003 0
M  V30 19604 C 1798.83 -2.54888 4.70038 0
M  V30 19605 C 1800.13 -0.422027 5.20592 0
M  V30 19606 H 1801.83 0.0362569 2.99378 0
M  V30 19607 H 1799.37 0.0188781 1.43988 0
M  V30 19608 H 1801.32 -2.34762 3.4995 0
M  V30 19609 H 1800.05 -2.36076 2.25689 0
M  V30 19610 H 1798.71 -0.702757 3.59801 0
M  V30 19611 H 1798.36 -3.15848 3.9147 0
M  V30 19612 H 1798.06 -2.26054 5.42378 0
M  V30 19613 H 1799.58 -3.17011 5.21859 0
M  V30 19614 H 1800.99 -0.941036 5.65524 0
M  V30 19615 H 1799.39 -0.227323 5.99669 0
M  V30 19616 H 1800.46 0.55212 4.81746 0
M  V30 19617 N 1801.8 -1.57568 0.0317802 0
M  V30 19618 C 1802.73 -2.13412 -0.947499 0
M  V30 19619 C 1803.71 -1.05091 -1.33753 0
M  V30 19620 O 1804.9 -1.32936 -1.41568 0
M  V30 19621 C 1802.03 -2.66337 -2.22895 0
M  V30 19622 C 1800.98 -3.79469 -1.97958 0
M  V30 19623 C 1800.31 -4.18833 -3.3239 0
M  V30 19624 C 1801.61 -5.05432 -1.31664 0
M  V30 19625 H 1803.3 -2.95488 -0.482417 0
M  V30 19626 H 1800.85 -1.42142 -0.230603 0
M  V30 19627 H 1802.8 -3.04039 -2.91784 0
M  V30 19628 H 1801.53 -1.81426 -2.71574 0
M  V30 19629 H 1800.19 -3.42209 -1.31485 0
M  V30 19630 H 1799.83 -3.30899 -3.78833 0
M  V30 19631 H 1799.53 -4.95071 -3.16511 0
M  V30 19632 H 1801.06 -4.5912 -4.02544 0
M  V30 19633 H 1802.47 -5.40704 -1.90558 0
M  V30 19634 H 1800.87 -5.86686 -1.26173 0
M  V30 19635 H 1801.94 -4.84032 -0.28996 0
M  V30 19636 N 1803.28 0.241399 -1.5574 0
M  V30 19637 C 1804.21 1.32197 -1.87234 0
M  V30 19638 C 1805.23 1.44024 -0.759015 0
M  V30 19639 O 1806.42 1.45275 -1.03718 0
M  V30 19640 C 1803.52 2.69994 -2.04833 0
M  V30 19641 C 1802.69 2.80366 -3.35729 0
M  V30 19642 C 1801.75 3.99043 -3.43003 0
M  V30 19643 O 1800.77 3.88312 -4.16176 0
M  V30 19644 N 1801.98 5.12462 -2.72696 0
M  V30 19645 H 1804.74 1.05514 -2.80512 0
M  V30 19646 H 1802.3 0.431491 -1.56044 0
M  V30 19647 H 1804.29 3.47733 -2.07035 0
M  V30 19648 H 1802.86 2.89361 -1.18274 0
M  V30 19649 H 1802.08 1.89258 -3.45796 0
M  V30 19650 H 1803.37 2.8425 -4.21995 0
M  V30 19651 H 1802.77 5.24073 -2.12988 0
M  V30 19652 H 1801.33 5.88316 -2.80584 0
M  V30 19653 N 1804.76 1.49212 0.507292 0
M  V30 19654 C 1806.01 1.5763 1.2584 0
M  V30 19655 C 1806.32 0.265343 1.93792 0
M  V30 19656 O 1807.53 0.227996 2.70541 0
M  V30 19657 C 1805.98 2.78093 2.28457 0
M  V30 19658 C 1805.59 4.15922 1.66472 0
M  V30 19659 C 1807.34 2.95837 3.04435 0
M  V30 19660 C 1805.24 5.27616 2.67162 0
M  V30 19661 H 1804.17 0.586896 0.47336 0
M  V30 19662 H 1806.82 1.75588 0.533018 0
M  V30 19663 H 1805.21 2.53616 3.0413 0
M  V30 19664 H 1806.38 4.50511 0.968337 0
M  V30 19665 H 1804.7 4.03484 1.02906 0
M  V30 19666 H 1807.29 3.76452 3.79721 0
M  V30 19667 H 1807.64 2.06156 3.61671 0
M  V30 19668 H 1808.17 3.20323 2.35877 0
M  V30 19669 H 1804.91 6.19336 2.14716 0
M  V30 19670 H 1804.43 4.97488 3.3506 0
M  V30 19671 H 1806.11 5.56686 3.29712 0
M  V30 19672 N 1806.24 -0.757876 1.38181 0
M  V30 19673 C 1807.65 -1.33496 1.30521 0
M  V30 19674 C 1808 -1.96157 -0.0409405 0
M  V30 19675 O 1807.13 -1.94775 -0.942957 0
M  V30 19676 C 1807.72 -2.42725 2.36369 0
M  V30 19677 C 1806.28 -2.96165 2.323 0
M  V30 19678 C 1805.43 -1.69505 2.19461 0
M  V30 19679 H 1808.38 -0.557075 1.48601 0
M  V30 19680 H 1808.4 -3.22556 2.01836 0
M  V30 19681 H 1807.91 -1.97089 3.34331 0
M  V30 19682 H 1806.01 -3.4614 1.37904 0
M  V30 19683 H 1806.12 -3.50836 3.26269 0
M  V30 19684 H 1804.49 -1.92967 1.66241 0
M  V30 19685 H 1805.27 -1.25954 3.1936 0
M  V30 19686 N 1807.72 -1.22979 -0.985586 0
M  V30 19687 C 1808.95 -1.08372 -1.75895 0
M  V30 19688 C 1809.35 0.368113 -1.85584 0
M  V30 19689 O 1808.7 1.26663 -1.3305 0
M  V30 19690 C 1808.76 -1.62873 -3.20488 0
M  V30 19691 C 1808.42 -3.11572 -3.34323 0
M  V30 19692 C 1809.42 -4.08923 -3.21058 0
M  V30 19693 C 1807.11 -3.51176 -3.59139 0
M  V30 19694 C 1809.1 -5.43862 -3.32404 0
M  V30 19695 C 1806.79 -4.86262 -3.70125 0
M  V30 19696 C 1807.78 -5.82414 -3.56767 0
M  V30 19697 O 1807.47 -7.15046 -3.67374 0
M  V30 19698 H 1807.2 -0.380128 -0.558998 0
M  V30 19699 H 1809.76 -1.63191 -1.24731 0
M  V30 19700 H 1807.99 -1.0247 -3.72876 0
M  V30 19701 H 1809.68 -1.43819 -3.79567 0
M  V30 19702 H 1810.44 -3.79669 -3.01789 0
M  V30 19703 H 1806.32 -2.76853 -3.6861 0
M  V30 19704 H 1809.87 -6.18894 -3.21895 0
M  V30 19705 H 1805.76 -5.15194 -3.88903 0
M  V30 19706 H 1806.53 -7.22725 -3.84202 0
M  V30 19707 N 1809.19 1.18355 -1.04066 0
M  V30 19708 C 1810.1 2.25641 -0.642115 0
M  V30 19709 C 1811.12 1.70811 0.331614 0
M  V30 19710 O 1812.3 2.00534 0.186542 0
M  V30 19711 C 1809.36 3.46698 -0.0112485 0
M  V30 19712 C 1808.42 4.16662 -1.03398 0
M  V30 19713 C 1807.66 5.3194 -0.433125 0
M  V30 19714 O 1807.88 5.65305 0.760669 0
M  V30 19715 O 1806.81 5.90581 -1.16182 0
M  V30 19716 H 1810.64 2.61997 -1.53595 0
M  V30 19717 H 1808.22 1.25437 -0.811542 0
M  V30 19718 H 1810.11 4.20027 0.339934 0
M  V30 19719 H 1808.78 3.12166 0.856405 0
M  V30 19720 H 1807.69 3.45402 -1.43696 0
M  V30 19721 H 1809.02 4.55194 -1.8724 0
M  V30 19722 N 1810.67 0.820125 1.3458 0
M  V30 19723 C 1811.62 0.237994 2.2957 0
M  V30 19724 C 1812.59 -0.635637 1.53456 0
M  V30 19725 O 1813.77 -0.57787 1.81839 0
M  V30 19726 C 1810.91 -0.596426 3.39907 0
M  V30 19727 C 1810.03 0.29914 4.30963 0
M  V30 19728 C 1809.16 -0.54458 5.28401 0
M  V30 19729 C 1808.2 0.350546 6.11095 0
M  V30 19730 N 1807.34 -0.453936 7.00631 0
M  V30 19731 H 1812.18 1.0534 2.7876 0
M  V30 19732 H 1809.72 0.530977 1.37183 0
M  V30 19733 H 1811.67 -1.0955 4.0256 0
M  V30 19734 H 1810.3 -1.37697 2.91958 0
M  V30 19735 H 1809.36 0.916412 3.69196 0
M  V30 19736 H 1810.67 0.987544 4.88926 0
M  V30 19737 H 1809.82 -1.10825 5.96492 0
M  V30 19738 H 1808.56 -1.2665 4.70968 0
M  V30 19739 H 1807.57 0.926375 5.41939 0
M  V30 19740 H 1808.79 1.07054 6.70609 0
M  V30 19741 H 1806.74 -1.15958 6.4567 0
M  V30 19742 H 1806.65 0.176138 7.55795 0
M  V30 19743 H 1807.92 -1.00044 7.73053 0
M  V30 19744 N 1812.15 -1.46743 0.574835 0
M  V30 19745 C 1813.1 -2.31935 -0.175778 0
M  V30 19746 C 1814.09 -1.44005 -0.892128 0
M  V30 19747 O 1815.3 -1.60674 -0.81141 0
M  V30 19748 H 1811.67 -0.748195 -0.0755558 0
M  V30 19749 H 1813.64 -2.93066 0.561671 0
M  V30 19750 C 1812.39 -3.27018 -1.18128 0
M  V30 19751 H 1811.72 -3.94652 -0.639492 0
M  V30 19752 H 1813.16 -3.89424 -1.67704 0
M  V30 19753 C 1811.62 -2.51802 -2.23824 0
M  V30 19754 O 1812.15 -2.2753 -3.31048 0
M  V30 19755 N 1810.35 -2.12501 -1.98221 0
M  V30 19756 H 1809.9 -2.32441 -1.11035 0
M  V30 19757 H 1809.86 -1.62494 -2.69153 0
M  V30 19758 N 1813.63 -0.312197 -1.54477 0
M  V30 19759 C 1814.91 0.347462 -1.92489 0
M  V30 19760 C 1815.29 1.70797 -1.24063 0
M  V30 19761 O 1814.63 2.25313 -0.380296 0
M  V30 19762 C 1814.84 0.450992 -3.46074 0
M  V30 19763 C 1816.19 0.716618 -4.18509 0
M  V30 19764 O 1817.22 0.534364 -3.52169 0
M  V30 19765 O 1816.07 1.06744 -5.35974 0
M  V30 19766 H 1813.17 0.196248 -0.803378 0
M  V30 19767 H 1815.71 -0.361078 -1.65814 0
M  V30 19768 H 1814.49 -0.504982 -3.88028 0
M  V30 19769 H 1814.11 1.20756 -3.78819 0
M  V30 19770 N 1815.11 1.57549 -0.040136 0
M  V30 19771 C 1816.02 2.14351 0.953457 0
M  V30 19772 C 1817.03 1.09851 1.3494 0
M  V30 19773 O 1818.21 1.41965 1.42857 0
M  V30 19774 C 1815.27 2.66832 2.21363 0
M  V30 19775 C 1814.33 3.86088 1.87708 0
M  V30 19776 C 1813.57 4.36057 3.07718 0
M  V30 19777 O 1813.79 3.85147 4.20735 0
M  V30 19778 O 1812.72 5.27775 2.89374 0
M  V30 19779 H 1816.55 2.99549 0.500423 0
M  V30 19780 H 1814.14 1.48298 0.18112 0
M  V30 19781 H 1816.02 3.00605 2.95321 0
M  V30 19782 H 1814.69 1.84711 2.65826 0
M  V30 19783 H 1813.6 3.57222 1.11101 0
M  V30 19784 H 1814.93 4.69405 1.48053 0
M  V30 19785 N 1816.58 -0.233136 1.55866 0
M  V30 19786 C 1817.53 -1.28882 1.91463 0
M  V30 19787 C 1818.5 -1.47151 0.770435 0
M  V30 19788 O 1819.69 -1.6091 1.02531 0
M  V30 19789 C 1816.83 -2.63653 2.22668 0
M  V30 19790 C 1815.94 -2.53278 3.49963 0
M  V30 19791 C 1815.07 -3.80494 3.70672 0
M  V30 19792 C 1814.11 -3.64794 4.9152 0
M  V30 19793 N 1813.25 -4.83933 5.08678 0
M  V30 19794 H 1818.09 -0.978251 2.81486 0
M  V30 19795 H 1815.63 -0.471757 1.3933 0
M  V30 19796 H 1817.59 -3.42119 2.38769 0
M  V30 19797 H 1816.22 -2.9283 1.35833 0
M  V30 19798 H 1815.27 -1.66308 3.4212 0
M  V30 19799 H 1816.58 -2.37592 4.38579 0
M  V30 19800 H 1815.73 -4.67404 3.86806 0
M  V30 19801 H 1814.47 -3.99092 2.80315 0
M  V30 19802 H 1813.48 -2.76268 4.75348 0
M  V30 19803 H 1814.7 -3.47677 5.8335 0
M  V30 19804 H 1812.65 -5.02866 4.21262 0
M  V30 19805 H 1812.57 -4.7093 5.91406 0
M  V30 19806 H 1813.83 -5.72302 5.29236 0
M  V30 19807 N 1818.06 -1.49479 -0.499372 0
M  V30 19808 C 1819 -1.60874 -1.61848 0
M  V30 19809 C 1819.97 -0.457753 -1.56024 0
M  V30 19810 O 1821.16 -0.673516 -1.76057 0
M  V30 19811 C 1818.29 -1.56518 -3.00366 0
M  V30 19812 C 1817.33 -2.76834 -3.24446 0
M  V30 19813 S 1818.16 -4.38486 -3.07392 0
M  V30 19814 C 1819.32 -4.36779 -4.48303 0
M  V30 19815 H 1819.55 -2.55543 -1.51938 0
M  V30 19816 H 1817.09 -1.3839 -0.68465 0
M  V30 19817 H 1819.04 -1.54691 -3.80238 0
M  V30 19818 H 1817.71 -0.631341 -3.0769 0
M  V30 19819 H 1816.9 -2.70011 -4.2557 0
M  V30 19820 H 1816.5 -2.76082 -2.52299 0
M  V30 19821 H 1818.79 -4.08599 -5.4042 0
M  V30 19822 H 1819.74 -5.38186 -4.60175 0
M  V30 19823 H 1820.14 -3.66837 -4.29058 0
M  V30 19824 N 1819.54 0.750537 -1.38581 0
M  V30 19825 C 1820.49 1.88571 -1.36176 0
M  V30 19826 C 1821.48 1.67587 -0.247175 0
M  V30 19827 O 1822.69 1.75118 -0.416377 0
M  V30 19828 H 1819.06 0.620468 -0.424881 0
M  V30 19829 H 1821.04 1.87716 -2.3196 0
M  V30 19830 C 1819.78 3.26088 -1.20673 0
M  V30 19831 H 1819.11 3.42822 -2.05701 0
M  V30 19832 H 1820.55 4.05754 -1.23044 0
M  V30 19833 C 1819.01 3.3679 0.0861189 0
M  V30 19834 O 1819.54 3.87407 1.06203 0
M  V30 19835 N 1817.74 2.90243 0.143977 0
M  V30 19836 H 1817.29 2.49242 -0.650869 0
M  V30 19837 H 1817.25 2.97784 1.00857 0
M  V30 19838 N 1821.02 1.235 0.979051 0
M  V30 19839 C 1821.93 1.03412 2.10578 0
M  V30 19840 C 1822.95 -0.0217644 1.73986 0
M  V30 19841 O 1824.12 0.173977 2.00647 0
M  V30 19842 C 1821.19 0.629192 3.40943 0
M  V30 19843 C 1820.25 1.76028 3.91552 0
M  V30 19844 C 1819.48 1.37457 5.15695 0
M  V30 19845 O 1819.7 0.259393 5.6981 0
M  V30 19846 O 1818.64 2.19614 5.60404 0
M  V30 19847 H 1822.46 1.97845 2.30415 0
M  V30 19848 H 1820.05 1.02218 1.08958 0
M  V30 19849 H 1821.93 0.414372 4.19358 0
M  V30 19850 H 1820.61 -0.286128 3.22433 0
M  V30 19851 H 1819.51 2.02975 3.14248 0
M  V30 19852 H 1820.85 2.65396 4.14519 0
M  V30 19853 N 1822.5 -1.17802 1.04693 0
M  V30 19854 C 1823.74 -1.88217 0.755141 0
M  V30 19855 C 1824.08 -1.8053 -0.715731 0
M  V30 19856 O 1823.35 -1.20987 -1.52291 0
M  V30 19857 C 1823.63 -3.38447 1.22986 0
M  V30 19858 C 1823.49 -3.54911 2.7633 0
M  V30 19859 C 1824.81 -4.323 0.824891 0
M  V30 19860 H 1821.93 -0.683452 0.275795 0
M  V30 19861 H 1824.57 -1.38561 1.30004 0
M  V30 19862 H 1822.72 -3.80868 0.7663 0
M  V30 19863 H 1824.39 -3.2154 3.30771 0
M  V30 19864 H 1822.63 -2.97357 3.1585 0
M  V30 19865 H 1823.3 -4.60347 3.04606 0
M  V30 19866 H 1825.78 -3.97694 1.22389 0
M  V30 19867 H 1824.66 -5.35962 1.18472 0
M  V30 19868 H 1824.92 -4.41265 -0.27151 0
M  V30 19869 N 1823.98 -0.827251 -1.34143 0
M  V30 19870 C 1824.91 -0.197383 -2.27345 0
M  V30 19871 C 1825.89 0.648729 -1.49098 0
M  V30 19872 O 1827.07 0.611527 -1.78305 0
M  V30 19873 C 1824.2 0.723918 -3.30873 0
M  V30 19874 C 1823.24 -0.0452254 -4.26476 0
M  V30 19875 S 1824.08 -1.39531 -5.17002 0
M  V30 19876 C 1825.23 -0.478996 -6.24064 0
M  V30 19877 H 1825.47 -0.987544 -2.80419 0
M  V30 19878 H 1823 -0.623379 -1.41256 0
M  V30 19879 H 1824.96 1.2499 -3.91009 0
M  V30 19880 H 1823.62 1.48764 -2.76637 0
M  V30 19881 H 1822.81 0.655335 -4.99721 0
M  V30 19882 H 1822.41 -0.5019 -3.70617 0
M  V30 19883 H 1824.7 0.327755 -6.76707 0
M  V30 19884 H 1825.65 -1.18126 -6.98178 0
M  V30 19885 H 1826.06 -0.0655033 -5.64462 0
M  V30 19886 N 1825.45 1.46436 -0.582609 0
M  V30 19887 C 1826.4 2.32025 0.163475 0
M  V30 19888 C 1827.4 1.44476 0.884478 0
M  V30 19889 O 1828.6 1.61102 0.802878 0
M  V30 19890 H 1824.98 0.748585 0.0715868 0
M  V30 19891 H 1826.95 2.92764 -0.577205 0
M  V30 19892 C 1825.7 3.2764 1.16392 0
M  V30 19893 H 1825.02 3.94986 0.618553 0
M  V30 19894 H 1826.46 3.90308 1.65636 0
M  V30 19895 C 1824.92 2.52986 2.22486 0
M  V30 19896 O 1825.45 2.29283 3.29837 0
M  V30 19897 N 1823.65 2.1355 1.97091 0
M  V30 19898 H 1823.2 2.33027 1.09801 0
M  V30 19899 H 1823.16 1.63919 2.68287 0
M  V30 19900 N 1826.93 0.320385 1.54309 0
M  V30 19901 C 1827.86 -0.539789 2.27175 0
M  V30 19902 C 1828.84 -1.12198 1.2785 0
M  V30 19903 O 1830.03 -1.1477 1.56657 0
M  V30 19904 C 1827.16 -1.70236 3.02716 0
M  V30 19905 C 1826.11 -1.24962 4.09351 0
M  V30 19906 C 1825.44 -2.49888 4.72715 0
M  V30 19907 C 1826.74 -0.366788 5.21011 0
M  V30 19908 H 1828.43 0.0680079 2.99323 0
M  V30 19909 H 1825.98 0.0341488 1.4396 0
M  V30 19910 H 1827.93 -2.31037 3.5242 0
M  V30 19911 H 1826.65 -2.33669 2.2818 0
M  V30 19912 H 1825.31 -0.664556 3.60526 0
M  V30 19913 H 1824.96 -3.11679 3.94798 0
M  V30 19914 H 1824.66 -2.20288 5.44745 0
M  V30 19915 H 1826.19 -3.11458 5.25192 0
M  V30 19916 H 1827.6 -0.881001 5.6649 0
M  V30 19917 H 1826 -0.163707 5.99877 0
M  V30 19918 H 1827.07 0.603185 4.81134 0
M  V30 19919 N 1828.41 -1.57525 0.0484906 0
M  V30 19920 C 1829.37 -2.10275 -0.911987 0
M  V30 19921 C 1830.37 -1.02178 -1.24163 0
M  V30 19922 O 1831.56 -1.28262 -1.17875 0
M  V30 19923 C 1828.69 -2.58475 -2.22269 0
M  V30 19924 H 1829.89 -2.96432 -0.454768 0
M  V30 19925 H 1827.44 -1.55017 -0.19987 0
M  V30 19926 H 1828.18 -1.75704 -2.72578 0
M  V30 19927 H 1827.96 -3.37466 -1.99648 0
M  V30 19928 H 1829.45 -2.99443 -2.91074 0
M  V30 19929 N 1829.89 0.224867 -1.55988 0
M  V30 19930 C 1830.84 1.28206 -1.8854 0
M  V30 19931 C 1831.82 1.42447 -0.748172 0
M  V30 19932 O 1833.01 1.45318 -1.01053 0
M  V30 19933 C 1830.14 2.63315 -2.20273 0
M  V30 19934 C 1829.23 2.52988 -3.40379 0
M  V30 19935 N 1829.62 2.1231 -4.59084 0
M  V30 19936 C 1827.92 2.83954 -3.43927 0
M  V30 19937 C 1828.62 2.13153 -5.4124 0
M  V30 19938 N 1827.59 2.53513 -4.80866 0
M  V30 19939 H 1831.4 0.958396 -2.77834 0
M  V30 19940 H 1828.91 0.433439 -1.56509 0
M  V30 19941 H 1830.91 3.39639 -2.41767 0
M  V30 19942 H 1829.57 2.9653 -1.32289 0
M  V30 19943 H 1830.58 1.83495 -4.84304 0
M  V30 19944 H 1827.26 3.21563 -2.66277 0
M  V30 19945 H 1828.65 1.83856 -6.46256 0
M  V30 19946 N 1831.37 1.49742 0.491438 0
M  V30 19947 C 1832.59 1.63435 1.26873 0
M  V30 19948 C 1833.01 0.309516 1.86246 0
M  V30 19949 O 1832.37 -0.706178 1.68284 0
M  V30 19950 C 1832.42 2.71034 2.39213 0
M  V30 19951 O 1832.14 3.98379 1.82278 0
M  V30 19952 C 1833.64 2.95518 3.3043 0
M  V30 19953 H 1830.86 0.54994 0.384457 0
M  V30 19954 H 1833.4 1.95837 0.588914 0
M  V30 19955 H 1831.56 2.41384 3.03006 0
M  V30 19956 H 1831.97 4.57725 2.56101 0
M  V30 19957 H 1833.45 3.74517 4.05513 0
M  V30 19958 H 1833.92 2.058 3.87999 0
M  V30 19959 H 1834.53 3.26622 2.72393 0
M  V30 19960 N 1832.84 -0.743177 1.38977 0
M  V30 19961 C 1834.09 -1.50256 1.35755 0
M  V30 19962 C 1834.42 -1.94438 -0.0491287 0
M  V30 19963 O 1833.67 -1.66505 -1.02834 0
M  V30 19964 C 1833.97 -2.76157 2.26874 0
M  V30 19965 C 1833.64 -2.50885 3.74657 0
M  V30 19966 C 1832.3 -2.43702 4.14925 0
M  V30 19967 C 1834.65 -2.29075 4.6816 0
M  V30 19968 C 1831.98 -2.12738 5.46772 0
M  V30 19969 C 1834.33 -1.9963 6.00275 0
M  V30 19970 C 1833 -1.9091 6.39617 0
M  V30 19971 H 1832.27 -0.549827 0.496761 0
M  V30 19972 H 1834.91 -0.85369 1.71419 0
M  V30 19973 H 1833.22 -3.45746 1.84301 0
M  V30 19974 H 1834.92 -3.34155 2.21679 0
M  V30 19975 H 1831.51 -2.57351 3.42737 0
M  V30 19976 H 1835.69 -2.33597 4.37888 0
M  V30 19977 H 1830.95 -2.04504 5.76184 0
M  V30 19978 H 1835.12 -1.8176 6.72262 0
M  V30 19979 H 1832.75 -1.66683 7.41701 0
M  V30 19980 N 1834.32 -1.24018 -0.972487 0
M  V30 19981 C 1835.25 -1.0529 -2.08414 0
M  V30 19982 C 1836.23 0.0326663 -1.70069 0
M  V30 19983 O 1837.42 -0.133494 -1.93741 0
M  V30 19984 C 1834.55 -0.651796 -3.41129 0
M  V30 19985 C 1833.5 -1.68559 -3.9341 0
M  V30 19986 C 1832.83 -1.1397 -5.22413 0
M  V30 19987 C 1834.13 -3.08046 -4.21788 0
M  V30 19988 H 1835.82 -1.98272 -2.2434 0
M  V30 19989 H 1833.37 -0.954694 -1.07804 0
M  V30 19990 H 1835.32 -0.507792 -4.18329 0
M  V30 19991 H 1834.05 0.313722 -3.2509 0
M  V30 19992 H 1832.7 -1.81773 -3.18362 0
M  V30 19993 H 1832.35 -0.164928 -5.0273 0
M  V30 19994 H 1832.05 -1.83051 -5.5836 0
M  V30 19995 H 1833.58 -1.00771 -6.02227 0
M  V30 19996 H 1834.99 -2.98088 -4.8971 0
M  V30 19997 H 1833.39 -3.74436 -4.68954 0
M  V30 19998 H 1834.46 -3.56444 -3.28749 0
M  V30 19999 N 1835.8 1.17245 -1.05316 0
M  V30 20000 C 1836.73 2.20844 -0.613228 0
M  V30 20001 C 1837.75 1.5955 0.323671 0
M  V30 20002 O 1838.93 1.78121 0.116209 0
M  V30 20003 C 1836.03 3.38679 0.122482 0
M  V30 20004 C 1835.21 4.29541 -0.825429 0
M  V30 20005 C 1834.27 5.26038 -0.130752 0
M  V30 20006 O 1833.29 5.64032 -0.765248 0
M  V30 20007 N 1834.49 5.69369 1.13136 0
M  V30 20008 H 1837.26 2.5921 -1.50434 0
M  V30 20009 H 1834.82 1.32156 -0.935221 0
M  V30 20010 H 1836.81 4.00267 0.597368 0
M  V30 20011 H 1835.38 2.989 0.915278 0
M  V30 20012 H 1834.6 3.65366 -1.47991 0
M  V30 20013 H 1835.89 4.87138 -1.46882 0
M  V30 20014 H 1835.29 5.40576 1.66716 0
M  V30 20015 H 1833.85 6.33095 1.55029 0
M  V30 20016 N 1837.28 0.834353 1.33702 0
M  V30 20017 C 1838.23 0.252818 2.31222 0
M  V30 20018 C 1839.22 -0.612723 1.57931 0
M  V30 20019 O 1840.43 -0.502788 1.72835 0
M  V30 20020 H 1836.8 0.0630243 0.749354 0
M  V30 20021 H 1838.77 1.08992 2.77783 0
M  V30 20022 C 1837.52 -0.561132 3.43142 0
M  V30 20023 H 1836.84 0.0955723 3.99686 0
M  V30 20024 H 1838.28 -0.933951 4.13586 0
M  V30 20025 C 1836.74 -1.73817 2.88599 0
M  V30 20026 O 1837.27 -2.83674 2.84415 0
M  V30 20027 N 1835.48 -1.5586 2.45267 0
M  V30 20028 H 1835.03 -0.664959 2.4887 0
M  V30 20029 H 1834.98 -2.34764 2.09125 0
M  V30 20030 N 1838.76 -1.46125 0.590367 0
M  V30 20031 C 1840 -2.02346 0.0788814 0
M  V30 20032 C 1840.33 -1.46093 -1.28402 0
M  V30 20033 O 1839.59 -0.618875 -1.85657 0
M  V30 20034 C 1839.89 -3.57388 -0.0287217 0
M  V30 20035 C 1839.55 -4.32716 1.26758 0
M  V30 20036 C 1838.21 -4.53014 1.62271 0
M  V30 20037 C 1840.57 -4.7591 2.12507 0
M  V30 20038 C 1837.89 -5.13759 2.83318 0
M  V30 20039 C 1840.25 -5.37992 3.32787 0
M  V30 20040 C 1838.91 -5.56516 3.68573 0
M  V30 20041 H 1838.18 -0.740438 0.0288647 0
M  V30 20042 H 1840.83 -1.75402 0.768538 0
M  V30 20043 H 1839.13 -3.83513 -0.801551 0
M  V30 20044 H 1840.83 -3.98575 -0.440356 0
M  V30 20045 H 1837.42 -4.17219 0.981133 0
M  V30 20046 H 1841.6 -4.59977 1.86373 0
M  V30 20047 H 1836.86 -5.26291 3.11172 0
M  V30 20048 H 1841.03 -5.70418 3.99495 0
M  V30 20049 H 1838.66 -6.03355 4.62458 0
M  V30 20050 N 1840.23 -0.328564 -1.54137 0
M  V30 20051 C 1841.47 0.273037 -2.02568 0
M  V30 20052 C 1841.84 1.48953 -1.21148 0
M  V30 20053 O 1843.04 2.16433 -1.59406 0
M  V30 20054 C 1841.31 0.594017 -3.52429 0
M  V30 20055 S 1842.87 1.17456 -4.22788 0
M  V30 20056 H 1839.69 0.0822771 -0.706223 0
M  V30 20057 H 1842.29 -0.462847 -1.89942 0
M  V30 20058 H 1840.99 -0.299408 -4.09306 0
M  V30 20059 H 1840.52 1.35997 -3.69146 0
M  V30 20060 H 1842.54 2.46113 -4.30863 0
M  V30 20061 N 1841.71 1.57497 -0.0568439 0
M  V30 20062 C 1843.13 1.5676 0.299732 0
M  V30 20063 C 1843.33 1.065 1.71056 0
M  V30 20064 O 1842.38 0.72414 2.41893 0
M  V30 20065 C 1843.7 3.00448 0.123023 0
M  V30 20066 C 1845.25 3.124 0.193697 0
M  V30 20067 C 1845.72 4.57977 0.0454499 0
M  V30 20068 N 1847.21 4.63089 0.101543 0
M  V30 20069 C 1847.95 5.73399 0.0110306 0
M  V30 20070 N 1847.44 6.92674 -0.132152 0
M  V30 20071 N 1849.24 5.6206 0.0670216 0
M  V30 20072 H 1841.39 1.88488 -0.979078 0
M  V30 20073 H 1843.65 0.868264 -0.380554 0
M  V30 20074 H 1843.36 3.41276 -0.849919 0
M  V30 20075 H 1843.23 3.66751 0.881672 0
M  V30 20076 H 1845.62 2.71468 1.15712 0
M  V30 20077 H 1845.7 2.48765 -0.595802 0
M  V30 20078 H 1845.34 4.99596 -0.914669 0
M  V30 20079 H 1845.27 5.19626 0.854166 0
M  V30 20080 H 1847.76 3.77309 0.211226 0
M  V30 20081 H 1848.08 7.72557 -0.193769 0
M  V30 20082 H 1846.42 6.94799 -0.167314 0
M  V30 20083 H 1849.61 4.67763 0.177478 0
M  V30 20084 H 1849.78 6.48 -0.00697432 0
M  V30 20085 N 1843.19 -0.216591 1.56105 0
M  V30 20086 C 1844.44 -0.938392 1.78993 0
M  V30 20087 C 1844.76 -1.84671 0.626215 0
M  V30 20088 O 1844.03 -1.92626 -0.356636 0
M  V30 20089 H 1842.61 -0.349491 0.660201 0
M  V30 20090 H 1845.27 -0.227256 1.93571 0
M  V30 20091 H 1844.37 -1.54227 2.71331 0
M  V30 20092 N 1844.67 -1.5 -0.48349 0
M  V30 20093 C 1845.62 -1.68467 -1.6038 0
M  V30 20094 C 1846.61 -0.550508 -1.60205 0
M  V30 20095 O 1847.82 -0.730656 -1.64504 0
M  V30 20096 H 1844.19 -0.531525 -0.531964 0
M  V30 20097 H 1846.16 -2.62468 -1.41962 0
M  V30 20098 C 1844.91 -1.78462 -2.98407 0
M  V30 20099 H 1844.23 -2.65117 -2.99254 0
M  V30 20100 H 1845.67 -1.95413 -3.76284 0
M  V30 20101 C 1844.13 -0.533368 -3.32651 0
M  V30 20102 O 1844.66 0.333087 -4.00317 0
M  V30 20103 N 1842.87 -0.391077 -2.87957 0
M  V30 20104 H 1842.42 -1.09719 -2.33066 0
M  V30 20105 H 1842.37 0.444995 -3.11235 0
M  V30 20106 N 1846.15 0.735796 -1.39369 0
M  V30 20107 C 1847.56 1.31402 -1.32628 0
M  V30 20108 C 1847.91 1.96198 0.00972836 0
M  V30 20109 O 1847.03 1.9625 0.91185 0
M  V30 20110 C 1847.63 2.38934 -2.402 0
M  V30 20111 C 1846.19 2.92432 -2.36982 0
M  V30 20112 C 1845.33 1.65992 -2.2213 0
M  V30 20113 H 1848.29 0.533364 -1.49469 0
M  V30 20114 H 1848.31 3.19304 -2.06942 0
M  V30 20115 H 1847.82 1.91745 -3.37425 0
M  V30 20116 H 1845.92 3.43903 -1.43394 0
M  V30 20117 H 1846.03 3.456 -3.31809 0
M  V30 20118 H 1844.4 1.90298 -1.69289 0
M  V30 20119 H 1845.18 1.20857 -3.21323 0
M  V30 20120 N 1847.63 1.24532 0.965897 0
M  V30 20121 C 1848.56 0.997143 2.06373 0
M  V30 20122 C 1849.57 -0.0340261 1.62764 0
M  V30 20123 O 1850.76 0.203223 1.77339 0
M  V30 20124 C 1847.86 0.483305 3.35436 0
M  V30 20125 C 1847.03 1.57803 4.07942 0
M  V30 20126 C 1846.09 1.06652 5.15278 0
M  V30 20127 O 1845.12 1.75859 5.41352 0
M  V30 20128 N 1846.32 -0.0981119 5.80417 0
M  V30 20129 H 1849.08 1.94238 2.28236 0
M  V30 20130 H 1846.65 1.15586 1.13365 0
M  V30 20131 H 1848.64 0.125833 4.04504 0
M  V30 20132 H 1847.21 -0.367709 3.1043 0
M  V30 20133 H 1846.43 2.1076 3.33127 0
M  V30 20134 H 1847.72 2.3138 4.53146 0
M  V30 20135 H 1847.11 -0.676662 5.61638 0
M  V30 20136 H 1845.67 -0.396714 6.50592 0
M  V30 20137 N 1849.1 -1.16685 1.05936 0
M  V30 20138 C 1850.05 -2.2301 0.66101 0
M  V30 20139 C 1851.05 -1.66324 -0.321334 0
M  V30 20140 O 1852.25 -1.7903 -0.186587 0
M  V30 20141 H 1848.63 -0.726112 0.195616 0
M  V30 20142 H 1850.6 -2.539 1.56772 0
M  V30 20143 C 1849.35 -3.47649 0.0596424 0
M  V30 20144 H 1848.67 -3.91578 0.806635 0
M  V30 20145 H 1850.11 -4.23611 -0.18161 0
M  V30 20146 C 1848.57 -3.14965 -1.19578 0
M  V30 20147 O 1849.1 -3.30434 -2.28421 0
M  V30 20148 N 1847.3 -2.69126 -1.09634 0
M  V30 20149 H 1846.85 -2.56738 -0.210599 0
M  V30 20150 H 1846.81 -2.4763 -1.93718 0
M  V30 20151 N 1850.58 -0.841432 -1.33258 0
M  V30 20152 C 1851.51 -0.233859 -2.28004 0
M  V30 20153 C 1852.53 0.586872 -1.51854 0
M  V30 20154 O 1853.72 0.413523 -1.73644 0
M  V30 20155 C 1850.82 0.68919 -3.31818 0
M  V30 20156 C 1849.99 -0.0927681 -4.37302 0
M  V30 20157 C 1849.05 0.754015 -5.2077 0
M  V30 20158 O 1848.07 0.192293 -5.68875 0
M  V30 20159 N 1849.28 2.07095 -5.42302 0
M  V30 20160 H 1852.04 -1.04794 -2.80782 0
M  V30 20161 H 1849.6 -0.70014 -1.45978 0
M  V30 20162 H 1851.59 1.26071 -3.84562 0
M  V30 20163 H 1850.16 1.40397 -2.79298 0
M  V30 20164 H 1849.38 -0.845677 -3.85022 0
M  V30 20165 H 1850.67 -0.63036 -5.0488 0
M  V30 20166 H 1850.07 2.55082 -5.04925 0
M  V30 20167 H 1848.63 2.5909 -5.98093 0
M  V30 20168 N 1852.06 1.4581 -0.598108 0
M  V30 20169 C 1853.31 2.02601 -0.089744 0
M  V30 20170 C 1853.64 1.46673 1.27282 0
M  V30 20171 O 1852.91 0.637735 1.83748 0
M  V30 20172 C 1853.2 3.60077 -0.0405712 0
M  V30 20173 C 1853.05 4.26358 -1.43313 0
M  V30 20174 C 1854.37 4.35241 0.652164 0
M  V30 20175 H 1851.49 0.736211 -0.0340865 0
M  V30 20176 H 1854.13 1.73775 -0.768263 0
M  V30 20177 H 1852.28 3.84767 0.537251 0
M  V30 20178 H 1853.95 4.12884 -2.0573 0
M  V30 20179 H 1852.19 3.85125 -1.99653 0
M  V30 20180 H 1852.87 5.35211 -1.35105 0
M  V30 20181 H 1855.34 4.15788 0.161128 0
M  V30 20182 H 1854.22 5.4497 0.655646 0
M  V30 20183 H 1854.48 4.07419 1.71646 0
M  V30 20184 N 1853.54 0.336733 1.53961 0
M  V30 20185 C 1854.47 -0.515664 2.27735 0
M  V30 20186 C 1855.45 -1.10835 1.29033 0
M  V30 20187 O 1856.63 -1.13102 1.57866 0
M  V30 20188 C 1853.76 -1.67015 3.04505 0
M  V30 20189 C 1852.72 -1.20613 4.10654 0
M  V30 20190 C 1852.04 -2.44861 4.75339 0
M  V30 20191 C 1853.34 -0.311507 5.2137 0
M  V30 20192 H 1855.04 0.0997513 2.99234 0
M  V30 20193 H 1852.58 0.0494157 1.43915 0
M  V30 20194 H 1854.54 -2.27286 3.54851 0
M  V30 20195 H 1853.26 -2.31236 2.30646 0
M  V30 20196 H 1851.92 -0.62628 3.61211 0
M  V30 20197 H 1851.57 -3.07474 3.98081 0
M  V30 20198 H 1851.27 -2.14498 5.47051 0
M  V30 20199 H 1852.79 -3.0587 5.28466 0
M  V30 20200 H 1854.21 -0.820868 5.67393 0
M  V30 20201 H 1852.6 -0.100073 6.00017 0
M  V30 20202 H 1853.67 0.654181 4.80467 0
M  V30 20203 N 1855.02 -1.57465 0.0651956 0
M  V30 20204 C 1855.95 -2.15374 -0.902018 0
M  V30 20205 C 1856.93 -1.07904 -1.31494 0
M  V30 20206 O 1858.11 -1.35909 -1.38717 0
M  V30 20207 C 1855.24 -2.71005 -2.17195 0
M  V30 20208 C 1854.2 -3.83583 -1.89864 0
M  V30 20209 C 1853.52 -4.25789 -3.23432 0
M  V30 20210 C 1854.82 -5.08112 -1.20913 0
M  V30 20211 H 1856.52 -2.96445 -0.419631 0
M  V30 20212 H 1854.06 -1.42599 -0.200401 0
M  V30 20213 H 1856.01 -3.1016 -2.8527 0
M  V30 20214 H 1854.74 -1.87146 -2.67664 0
M  V30 20215 H 1853.4 -3.44921 -1.24197 0
M  V30 20216 H 1853.05 -3.38861 -3.71729 0
M  V30 20217 H 1852.75 -5.01673 -3.05938 0
M  V30 20218 H 1854.27 -4.67555 -3.92715 0
M  V30 20219 H 1855.68 -5.44624 -1.79046 0
M  V30 20220 H 1854.08 -5.8923 -1.137 0
M  V30 20221 H 1855.15 -4.84538 -0.187224 0
M  V30 20222 N 1856.49 0.20831 -1.56217 0
M  V30 20223 C 1857.44 1.26199 -1.89889 0
M  V30 20224 C 1858.43 1.41646 -0.763239 0
M  V30 20225 O 1859.62 1.44238 -1.02588 0
M  V30 20226 C 1856.75 2.60964 -2.23053 0
M  V30 20227 C 1855.83 2.49364 -3.43043 0
M  V30 20228 N 1856.23 2.07429 -4.6131 0
M  V30 20229 C 1854.52 2.80291 -3.4692 0
M  V30 20230 C 1855.22 2.07401 -5.4347 0
M  V30 20231 N 1854.2 2.48398 -4.83528 0
M  V30 20232 H 1858 0.928874 -2.78835 0
M  V30 20233 H 1855.52 0.416815 -1.5696 0
M  V30 20234 H 1857.51 3.37055 -2.45356 0
M  V30 20235 H 1856.17 2.9511 -1.35426 0
M  V30 20236 H 1857.18 1.78348 -4.86223 0
M  V30 20237 H 1853.86 3.1872 -2.69673 0
M  V30 20238 H 1855.25 1.76991 -6.4817 0
M  V30 20239 N 1857.97 1.50255 0.475528 0
M  V30 20240 C 1858.92 1.68794 1.57408 0
M  V30 20241 C 1859.89 0.529252 1.57442 0
M  V30 20242 O 1861.07 0.759301 1.75041 0
M  V30 20243 C 1858.21 1.78401 2.9541 0
M  V30 20244 C 1857.33 3.05742 3.05198 0
M  V30 20245 C 1856.46 3.06172 4.34088 0
M  V30 20246 C 1855.5 4.27985 4.37602 0
M  V30 20247 N 1854.64 4.26179 5.57957 0
M  V30 20248 H 1859.48 2.62583 1.40905 0
M  V30 20249 H 1857.01 1.30169 0.685152 0
M  V30 20250 H 1858.97 1.81952 3.75432 0
M  V30 20251 H 1857.6 0.880556 3.10558 0
M  V30 20252 H 1856.65 3.11683 2.18077 0
M  V30 20253 H 1857.97 3.95722 3.03654 0
M  V30 20254 H 1857.12 3.08427 5.22454 0
M  V30 20255 H 1855.86 2.14014 4.38234 0
M  V30 20256 H 1854.86 4.25947 3.47634 0
M  V30 20257 H 1856.09 5.21364 4.35151 0
M  V30 20258 H 1854.04 3.36873 5.62897 0
M  V30 20259 H 1853.95 5.09923 5.58135 0
M  V30 20260 H 1855.22 4.32574 6.4846 0
M  V30 20261 N 1859.45 -0.728395 1.39758 0
M  V30 20262 C 1860.4 -1.83374 1.35491 0
M  V30 20263 C 1861.38 -1.5918 0.234629 0
M  V30 20264 O 1862.58 -1.70571 0.472703 0
M  V30 20265 C 1859.7 -3.21373 1.20725 0
M  V30 20266 C 1858.79 -3.51373 2.37482 0
M  V30 20267 N 1859.18 -3.52269 3.6296 0
M  V30 20268 C 1857.48 -3.81769 2.30583 0
M  V30 20269 C 1858.18 -3.80252 4.40208 0
M  V30 20270 N 1857.16 -3.98359 3.6988 0
M  V30 20271 H 1860.96 -1.82381 2.30465 0
M  V30 20272 H 1858.47 -0.926941 1.33348 0
M  V30 20273 H 1860.47 -4.00509 1.15751 0
M  V30 20274 H 1859.13 -3.236 0.267072 0
M  V30 20275 H 1860.14 -3.33423 3.96295 0
M  V30 20276 H 1856.82 -3.91562 1.44862 0
M  V30 20277 H 1858.21 -3.87357 5.49003 0
M  V30 20278 N 1860.93 -1.25042 -0.959279 0
M  V30 20279 C 1861.86 -1.07494 -2.07285 0
M  V30 20280 C 1862.84 0.0146264 -1.70094 0
M  V30 20281 O 1864.02 -0.154035 -1.93588 0
M  V30 20282 C 1861.15 -0.68794 -3.40418 0
M  V30 20283 C 1860.11 -1.72722 -3.91601 0
M  V30 20284 C 1859.43 -1.19504 -5.21175 0
M  V30 20285 C 1860.73 -3.12502 -4.18497 0
M  V30 20286 H 1862.43 -2.00641 -2.22224 0
M  V30 20287 H 1859.97 -0.966074 -1.06785 0
M  V30 20288 H 1861.93 -0.552133 -4.17767 0
M  V30 20289 H 1860.65 0.279224 -3.25404 0
M  V30 20290 H 1859.31 -1.85139 -3.16416 0
M  V30 20291 H 1858.96 -0.218239 -5.02526 0
M  V30 20292 H 1858.66 -1.88962 -5.56387 0
M  V30 20293 H 1860.18 -1.07153 -6.01124 0
M  V30 20294 H 1861.6 -3.03266 -4.86521 0
M  V30 20295 H 1859.99 -3.79389 -4.64956 0
M  V30 20296 H 1861.06 -3.5991 -3.2495 0
M  V30 20297 N 1862.41 1.16121 -1.06553 0
M  V30 20298 C 1863.35 2.22656 -0.672827 0
M  V30 20299 C 1864.35 1.66492 0.312509 0
M  V30 20300 O 1865.55 1.79127 0.17709 0
M  V30 20301 H 1861.93 0.725064 -0.199464 0
M  V30 20302 H 1863.9 2.53065 -1.58116 0
M  V30 20303 C 1862.65 3.47612 -0.0780782 0
M  V30 20304 H 1861.97 3.91145 -0.82739 0
M  V30 20305 H 1863.41 4.23701 0.159143 0
M  V30 20306 C 1861.87 3.15594 1.17906 0
M  V30 20307 O 1862.4 3.31641 2.26665 0
M  V30 20308 N 1860.61 2.69703 1.08206 0
M  V30 20309 H 1860.15 2.56846 0.196981 0
M  V30 20310 H 1860.11 2.48654 1.92402 0
M  V30 20311 N 1863.88 0.848487 1.3281 0
M  V30 20312 C 1864.81 0.303885 2.31514 0
M  V30 20313 C 1865.8 -0.593621 1.59406 0
M  V30 20314 O 1866.98 -0.515158 1.87243 0
M  V30 20315 C 1864.11 -0.5138 3.43478 0
M  V30 20316 C 1863.06 0.28874 4.27025 0
M  V30 20317 C 1862.39 -0.653297 5.30694 0
M  V30 20318 C 1863.69 1.51111 4.99963 0
M  V30 20319 H 1865.38 1.12862 2.77313 0
M  V30 20320 H 1862.93 0.544158 1.33323 0
M  V30 20321 H 1864.88 -0.905164 4.11564 0
M  V30 20322 H 1863.61 -1.37184 2.96392 0
M  V30 20323 H 1862.27 0.661782 3.60577 0
M  V30 20324 H 1861.91 -1.50801 4.79863 0
M  V30 20325 H 1861.61 -0.120368 5.87477 0
M  V30 20326 H 1863.14 -1.04197 6.01644 0
M  V30 20327 H 1864.55 1.19237 5.60763 0
M  V30 20328 H 1862.95 1.98152 5.66441 0
M  V30 20329 H 1864.02 2.2757 4.28182 0
M  V30 20330 N 1865.36 -1.4549 0.605832 0
M  V30 20331 C 1866.61 -2.02251 0.100338 0
M  V30 20332 C 1866.94 -1.47447 -1.26845 0
M  V30 20333 O 1866.19 -0.638532 -1.8499 0
M  V30 20334 C 1866.49 -3.57399 0.00918576 0
M  V30 20335 C 1866.16 -4.31347 1.31341 0
M  V30 20336 C 1864.82 -4.51267 1.67067 0
M  V30 20337 C 1867.17 -4.73629 2.17543 0
M  V30 20338 C 1864.5 -5.10725 2.88751 0
M  V30 20339 C 1866.85 -5.34432 3.38474 0
M  V30 20340 C 1865.52 -5.52576 3.74455 0
M  V30 20341 H 1864.79 -0.74009 0.0367165 0
M  V30 20342 H 1867.43 -1.74577 0.787099 0
M  V30 20343 H 1865.74 -3.84342 -0.760829 0
M  V30 20344 H 1867.43 -3.99019 -0.398057 0
M  V30 20345 H 1864.02 -4.16155 1.02533 0
M  V30 20346 H 1868.21 -4.57974 1.91241 0
M  V30 20347 H 1863.46 -5.22961 3.16736 0
M  V30 20348 H 1867.64 -5.66149 4.05522 0
M  V30 20349 H 1865.27 -5.98416 4.68831 0
M  V30 20350 N 1866.84 -0.344893 -1.5378 0
M  V30 20351 C 1867.77 0.503579 -2.28005 0
M  V30 20352 C 1868.75 1.10149 -1.29619 0
M  V30 20353 O 1869.94 1.12263 -1.58463 0
M  V30 20354 C 1867.07 1.65398 -3.05386 0
M  V30 20355 C 1866.02 1.18434 -4.11288 0
M  V30 20356 C 1865.35 2.42336 -4.76631 0
M  V30 20357 C 1866.65 0.283853 -5.21528 0
M  V30 20358 H 1868.34 -0.115619 -2.99177 0
M  V30 20359 H 1865.89 -0.0570472 -1.43887 0
M  V30 20360 H 1867.84 2.25401 -3.56051 0
M  V30 20361 H 1866.56 2.3001 -2.31869 0
M  V30 20362 H 1865.22 0.607115 -3.61538 0
M  V30 20363 H 1864.87 3.05358 -3.99707 0
M  V30 20364 H 1864.57 2.11594 -5.4818 0
M  V30 20365 H 1866.09 3.03063 -5.3008 0
M  V30 20366 H 1867.51 0.790766 -5.6782 0
M  V30 20367 H 1865.91 0.0682509 -6.00061 0
M  V30 20368 H 1866.98 -0.679653 -4.80113 0
M  V30 20369 N 1868.32 1.57428 -0.0735454 0
M  V30 20370 C 1869.55 1.97883 0.604148 0
M  V30 20371 C 1869.96 0.951968 1.63043 0
M  V30 20372 O 1869.32 -0.0611641 1.82397 0
M  V30 20373 C 1869.37 3.38414 1.27116 0
M  V30 20374 O 1869.09 4.37166 0.285951 0
M  V30 20375 C 1870.59 3.93753 2.03651 0
M  V30 20376 H 1867.81 0.650747 0.163613 0
M  V30 20377 H 1870.36 2.03975 -0.146466 0
M  V30 20378 H 1868.51 3.33403 1.97285 0
M  V30 20379 H 1868.92 5.18896 0.764698 0
M  V30 20380 H 1870.4 4.94298 2.45711 0
M  V30 20381 H 1870.88 3.30391 2.89376 0
M  V30 20382 H 1871.48 4.0217 1.38345 0
M  V30 20383 N 1869.8 -0.200022 1.56326 0
M  V30 20384 C 1871.21 -0.765141 1.70301 0
M  V30 20385 C 1871.56 -1.84066 0.679277 0
M  V30 20386 O 1870.68 -2.15768 -0.165308 0
M  V30 20387 C 1871.28 -1.39466 3.08763 0
M  V30 20388 C 1869.84 -1.90692 3.2452 0
M  V30 20389 C 1868.98 -0.77502 2.66249 0
M  V30 20390 H 1871.94 0.024977 1.5868 0
M  V30 20391 H 1871.96 -2.26396 3.05819 0
M  V30 20392 H 1871.47 -0.61165 3.8325 0
M  V30 20393 H 1869.57 -2.71728 2.54941 0
M  V30 20394 H 1869.68 -2.0721 4.31973 0
M  V30 20395 H 1868.05 -1.18802 2.25296 0
M  V30 20396 H 1868.83 -0.00432851 3.433 0
M  V30 20397 N 1871.27 -1.50505 -0.467553 0
M  V30 20398 C 1872.52 -1.61352 -1.21697 0
M  V30 20399 C 1872.84 -0.317583 -1.92396 0
M  V30 20400 O 1872.11 0.665123 -1.84263 0
M  V30 20401 H 1870.69 -0.594582 -0.452196 0
M  V30 20402 H 1873.36 -1.87299 -0.539 0
M  V30 20403 H 1872.45 -2.4264 -1.96296 0
M  V30 20404 N 1872.75 0.720973 -1.40142 0
M  V30 20405 C 1873.68 1.84799 -1.42729 0
M  V30 20406 C 1874.66 1.67629 -0.288866 0
M  V30 20407 O 1875.85 1.8774 -0.496713 0
M  V30 20408 C 1872.98 3.22699 -1.28385 0
M  V30 20409 C 1871.93 3.54532 -2.39773 0
M  V30 20410 C 1871.26 4.91518 -2.10509 0
M  V30 20411 C 1872.56 3.56077 -3.82108 0
M  V30 20412 H 1874.25 1.82892 -2.37046 0
M  V30 20413 H 1871.8 0.8785 -1.14098 0
M  V30 20414 H 1873.75 4.0123 -1.28812 0
M  V30 20415 H 1872.48 3.25169 -0.305408 0
M  V30 20416 H 1871.13 2.78338 -2.38586 0
M  V30 20417 H 1870.78 4.90584 -1.11069 0
M  V30 20418 H 1870.48 5.13783 -2.85132 0
M  V30 20419 H 1872.01 5.72389 -2.1261 0
M  V30 20420 H 1873.42 4.24657 -3.85148 0
M  V30 20421 H 1871.82 3.89866 -4.56207 0
M  V30 20422 H 1872.89 2.55576 -4.12079 0
M  V30 20423 N 1874.23 1.25549 0.952634 0
M  V30 20424 C 1875.16 1.08592 2.06712 0
M  V30 20425 C 1876.14 -0.00560571 1.70099 0
M  V30 20426 O 1877.33 0.164299 1.93504 0
M  V30 20427 C 1874.46 0.705984 3.40049 0
M  V30 20428 C 1873.41 1.74797 3.90679 0
M  V30 20429 C 1872.74 1.22266 5.20533 0
M  V30 20430 C 1874.04 3.14717 4.16834 0
M  V30 20431 H 1875.73 2.01816 2.21157 0
M  V30 20432 H 1873.28 0.971723 1.06271 0
M  V30 20433 H 1875.23 0.57428 4.17469 0
M  V30 20434 H 1873.95 -0.261964 3.25548 0
M  V30 20435 H 1872.61 1.86815 3.1543 0
M  V30 20436 H 1872.26 0.244887 5.02404 0
M  V30 20437 H 1871.96 1.9191 5.55377 0
M  V30 20438 H 1873.48 1.10339 6.00548 0
M  V30 20439 H 1874.9 3.05842 4.84906 0
M  V30 20440 H 1873.3 3.81849 4.62938 0
M  V30 20441 H 1874.37 3.61629 3.23037 0
M  V30 20442 N 1875.71 -1.15554 1.07168 0
M  V30 20443 C 1876.62 -2.2386 0.701714 0
M  V30 20444 C 1877.63 -1.7163 -0.28621 0
M  V30 20445 O 1878.81 -2.00958 -0.133308 0
M  V30 20446 C 1875.88 -3.46546 0.103165 0
M  V30 20447 C 1874.94 -4.13774 1.14409 0
M  V30 20448 C 1874.17 -5.30604 0.574007 0
M  V30 20449 O 1874.39 -5.67123 -0.610521 0
M  V30 20450 O 1873.33 -5.87293 1.31799 0
M  V30 20451 H 1877.15 -2.57833 1.60487 0
M  V30 20452 H 1874.74 -1.23241 0.844514 0
M  V30 20453 H 1876.62 -4.2078 -0.228452 0
M  V30 20454 H 1875.29 -3.14327 -0.773339 0
M  V30 20455 H 1874.2 -3.4147 1.52803 0
M  V30 20456 H 1875.53 -4.5007 1.99243 0
M  V30 20457 N 1877.19 -0.855519 -1.32358 0
M  V30 20458 C 1878.15 -0.305794 -2.27151 0
M  V30 20459 C 1879.15 0.535008 -1.51639 0
M  V30 20460 O 1880.34 0.346394 -1.70721 0
M  V30 20461 C 1877.47 0.567275 -3.36147 0
M  V30 20462 H 1878.67 -1.14245 -2.77287 0
M  V30 20463 H 1876.22 -0.629924 -1.43044 0
M  V30 20464 H 1876.95 1.42571 -2.9128 0
M  V30 20465 H 1876.74 -0.0345714 -3.92085 0
M  V30 20466 H 1878.23 0.944644 -4.06775 0
M  V30 20467 N 1878.67 1.45167 -0.61354 0
M  V30 20468 C 1879.58 2.34372 0.103487 0
M  V30 20469 C 1880.59 1.51591 0.854172 0
M  V30 20470 O 1881.77 1.84375 0.810414 0
M  V30 20471 C 1878.83 3.29304 1.08443 0
M  V30 20472 C 1877.89 4.2799 0.335056 0
M  V30 20473 C 1877.13 5.18387 1.26928 0
M  V30 20474 O 1877.35 5.12336 2.50734 0
M  V30 20475 O 1876.28 5.97043 0.763115 0
M  V30 20476 H 1880.11 2.97099 -0.629746 0
M  V30 20477 H 1877.69 1.44649 -0.373779 0
M  V30 20478 H 1879.58 3.87785 1.64926 0
M  V30 20479 H 1878.25 2.69133 1.79859 0
M  V30 20480 H 1877.16 3.73107 -0.272378 0
M  V30 20481 H 1878.49 4.91033 -0.338727 0
M  V30 20482 N 1880.14 0.353044 1.53595 0
M  V30 20483 C 1881.37 -0.241665 2.05484 0
M  V30 20484 C 1881.79 -1.43458 1.2274 0
M  V30 20485 O 1881.14 -1.80566 0.26501 0
M  V30 20486 C 1881.19 -0.647442 3.55655 0
M  V30 20487 O 1880.92 0.498047 4.3526 0
M  V30 20488 C 1882.42 -1.30187 4.23753 0
M  V30 20489 H 1879.64 -0.0449704 0.669491 0
M  V30 20490 H 1882.18 0.507783 1.98095 0
M  V30 20491 H 1880.34 -1.34682 3.63235 0
M  V30 20492 H 1880.75 0.172685 5.24216 0
M  V30 20493 H 1882.22 -1.53646 5.30186 0
M  V30 20494 H 1882.7 -2.25835 3.7669 0
M  V30 20495 H 1883.31 -0.644265 4.20392 0
M  V30 20496 N 1881.62 -1.57387 0.0818932 0
M  V30 20497 C 1882.55 -2.0892 -0.91802 0
M  V30 20498 C 1883.53 -0.996648 -1.28474 0
M  V30 20499 O 1884.72 -1.27073 -1.39229 0
M  V30 20500 C 1881.84 -2.55525 -2.22317 0
M  V30 20501 C 1880.89 -3.76312 -2.00727 0
M  V30 20502 S 1881.72 -5.20529 -1.25736 0
M  V30 20503 C 1882.88 -5.70473 -2.57509 0
M  V30 20504 H 1883.11 -2.93407 -0.479563 0
M  V30 20505 H 1880.64 -1.53842 -0.131103 0
M  V30 20506 H 1882.6 -2.83035 -2.97324 0
M  V30 20507 H 1881.26 -1.71288 -2.63285 0
M  V30 20508 H 1880.46 -4.06945 -2.97342 0
M  V30 20509 H 1880.06 -3.49227 -1.33853 0
M  V30 20510 H 1882.35 -5.77934 -3.53551 0
M  V30 20511 H 1883.29 -6.69198 -2.31473 0
M  V30 20512 H 1883.7 -4.98339 -2.65177 0
M  V30 20513 N 1883.1 0.191729 -1.56429 0
M  V30 20514 C 1884.52 0.542701 -1.5009 0
M  V30 20515 C 1884.72 1.85685 -0.782522 0
M  V30 20516 O 1883.77 2.50275 -0.334432 0
M  V30 20517 C 1885.08 0.594326 -2.94768 0
M  V30 20518 C 1886.63 0.682929 -3.05459 0
M  V30 20519 C 1887.11 0.765634 -4.51555 0
M  V30 20520 N 1888.6 0.829072 -4.5572 0
M  V30 20521 C 1889.33 0.91329 -5.6608 0
M  V30 20522 N 1888.83 0.959603 -6.86122 0
M  V30 20523 N 1890.62 0.950739 -5.54001 0
M  V30 20524 H 1882.77 -0.670241 -2.01548 0
M  V30 20525 H 1885.04 -0.239168 -0.917335 0
M  V30 20526 H 1884.74 -0.302238 -3.50399 0
M  V30 20527 H 1884.62 1.44787 -3.48305 0
M  V30 20528 H 1887 1.56992 -2.49875 0
M  V30 20529 H 1887.08 -0.19688 -2.55041 0
M  V30 20530 H 1886.73 -0.117022 -5.07765 0
M  V30 20531 H 1886.66 1.66129 -4.99709 0
M  V30 20532 H 1889.15 0.802391 -3.69283 0
M  V30 20533 H 1889.46 1.02447 -7.65979 0
M  V30 20534 H 1887.81 0.928223 -6.88774 0
M  V30 20535 H 1891 0.911418 -4.59141 0
M  V30 20536 H 1891.17 1.01291 -6.40034 0
M  V30 20537 N 1884.58 1.50751 0.459565 0
M  V30 20538 C 1885.53 1.6684 1.55397 0
M  V30 20539 C 1886.51 0.522747 1.52171 0
M  V30 20540 O 1887.7 0.777681 1.59 0
M  V30 20541 C 1884.83 1.77648 2.93762 0
M  V30 20542 C 1883.92 2.97927 3.01828 0
M  V30 20543 N 1884.31 4.2144 2.79682 0
M  V30 20544 C 1882.61 2.96724 3.32973 0
M  V30 20545 C 1883.31 5.02511 2.93015 0
M  V30 20546 N 1882.28 4.367 3.2372 0
M  V30 20547 H 1886.09 2.60019 1.36993 0
M  V30 20548 H 1883.6 1.48093 0.666502 0
M  V30 20549 H 1885.6 1.87281 3.72467 0
M  V30 20550 H 1884.26 0.856356 3.13204 0
M  V30 20551 H 1885.27 4.5075 2.55039 0
M  V30 20552 H 1881.95 2.14256 3.5833 0
M  V30 20553 H 1883.34 6.10762 2.80035 0
M  V30 20554 N 1886.06 -0.713531 1.40522 0
M  V30 20555 C 1887.3 -1.46899 1.38216 0
M  V30 20556 C 1887.62 -1.95596 -0.011831 0
M  V30 20557 O 1888.82 -2.71043 -0.157513 0
M  V30 20558 C 1887.28 -2.65544 2.42929 0
M  V30 20559 C 1886.89 -2.23707 3.88148 0
M  V30 20560 C 1888.63 -3.4327 2.49732 0
M  V30 20561 C 1886.54 -3.39203 4.84453 0
M  V30 20562 H 1885.47 -0.551718 0.513929 0
M  V30 20563 H 1888.12 -0.776357 1.66268 0
M  V30 20564 H 1886.5 -3.36987 2.0798 0
M  V30 20565 H 1887.68 -1.5967 4.32252 0
M  V30 20566 H 1885.99 -1.59021 3.84839 0
M  V30 20567 H 1888.59 -4.29215 3.18871 0
M  V30 20568 H 1888.93 -3.87225 1.52848 0
M  V30 20569 H 1889.46 -2.78871 2.83683 0
M  V30 20570 H 1886.2 -3.00278 5.82678 0
M  V30 20571 H 1885.72 -4.02149 4.45012 0
M  V30 20572 H 1887.4 -4.0524 5.04371 0
M  V30 20573 N 1887.53 -1.26053 -0.945962 0
M  V30 20574 C 1888.78 -1.11315 -1.69161 0
M  V30 20575 C 1889.11 0.34437 -1.91427 0
M  V30 20576 O 1888.36 1.26968 -1.48921 0
M  V30 20577 C 1888.66 -1.8222 -3.07459 0
M  V30 20578 C 1888.33 -3.32126 -3.04964 0
M  V30 20579 C 1886.99 -3.73019 -3.03991 0
M  V30 20580 C 1889.34 -4.2786 -2.97633 0
M  V30 20581 C 1886.67 -5.08041 -2.93446 0
M  V30 20582 C 1889.02 -5.62917 -2.88631 0
M  V30 20583 C 1887.69 -6.03127 -2.85998 0
M  V30 20584 H 1886.96 -0.407329 -0.619002 0
M  V30 20585 H 1889.6 -1.56435 -1.10454 0
M  V30 20586 H 1887.91 -1.29554 -3.69761 0
M  V30 20587 H 1889.61 -1.68261 -3.63991 0
M  V30 20588 H 1886.2 -2.99594 -3.06498 0
M  V30 20589 H 1890.38 -3.97252 -2.97497 0
M  V30 20590 H 1885.64 -5.38364 -2.89782 0
M  V30 20591 H 1889.81 -6.36784 -2.81921 0
M  V30 20592 H 1887.44 -7.07709 -2.77583 0
M  V30 20593 N 1889.01 1.14984 -1.07779 0
M  V30 20594 C 1889.94 2.18862 -0.64612 0
M  V30 20595 C 1890.92 1.5903 0.338854 0
M  V30 20596 O 1892.11 1.86911 0.244241 0
M  V30 20597 C 1889.23 3.38662 0.0505862 0
M  V30 20598 C 1888.28 4.17035 -0.893519 0
M  V30 20599 S 1889.11 4.78866 -2.39682 0
M  V30 20600 C 1890.27 6.0203 -1.71204 0
M  V30 20601 H 1890.5 2.5514 -1.52614 0
M  V30 20602 H 1888.03 1.26015 -0.892165 0
M  V30 20603 H 1889.99 4.08067 0.446298 0
M  V30 20604 H 1888.65 3.00719 0.907009 0
M  V30 20605 H 1887.85 5.02763 -0.352834 0
M  V30 20606 H 1887.45 3.53202 -1.22982 0
M  V30 20607 H 1889.74 6.69682 -1.02627 0
M  V30 20608 H 1890.68 6.60675 -2.54781 0
M  V30 20609 H 1891.09 5.51854 -1.18815 0
M  V30 20610 N 1890.49 0.862526 1.31902 0
M  V30 20611 C 1891.44 0.301807 2.30634 0
M  V30 20612 C 1892.43 -0.579086 1.59195 0
M  V30 20613 O 1893.64 -0.466014 1.73863 0
M  V30 20614 H 1890.01 0.078905 0.747849 0
M  V30 20615 H 1891.98 1.1486 2.75408 0
M  V30 20616 C 1890.73 -0.48822 3.44255 0
M  V30 20617 H 1890.06 0.18033 3.99393 0
M  V30 20618 H 1891.5 -0.846013 4.15474 0
M  V30 20619 C 1889.95 -1.67656 2.92221 0
M  V30 20620 O 1890.48 -2.77577 2.90369 0
M  V30 20621 N 1888.69 -1.50622 2.48518 0
M  V30 20622 H 1888.24 -0.612021 2.50224 0
M  V30 20623 H 1888.2 -2.30275 2.14058 0
M  V30 20624 N 1891.97 -1.4484 0.62123 0
M  V30 20625 C 1892.92 -2.32377 -0.1019 0
M  V30 20626 C 1893.91 -1.4677 -0.845862 0
M  V30 20627 O 1895.12 -1.63174 -0.759882 0
M  V30 20628 H 1891.49 -0.75022 -0.0517143 0
M  V30 20629 H 1893.46 -2.91131 0.654623 0
M  V30 20630 C 1892.21 -3.30611 -1.07665 0
M  V30 20631 H 1891.53 -3.96487 -0.513612 0
M  V30 20632 H 1892.97 -3.94563 -1.5523 0
M  V30 20633 C 1891.43 -2.58795 -2.157 0
M  V30 20634 O 1891.96 -2.37947 -3.23642 0
M  V30 20635 N 1890.17 -2.187 -1.9136 0
M  V30 20636 H 1889.72 -2.35856 -1.03584 0
M  V30 20637 H 1889.67 -1.70975 -2.63847 0
M  V30 20638 N 1893.45 -0.361184 -1.53405 0
M  V30 20639 C 1894.68 0.23043 -2.05311 0
M  V30 20640 C 1895.08 1.43355 -1.23475 0
M  V30 20641 O 1894.43 1.81745 -0.267304 0
M  V30 20642 C 1894.49 0.692241 -3.52772 0
M  V30 20643 C 1894.15 -0.393597 -4.55302 0
M  V30 20644 C 1895.15 -1.24204 -5.04846 0
M  V30 20645 C 1892.84 -0.55258 -4.99251 0
M  V30 20646 C 1894.83 -2.23485 -5.96936 0
M  V30 20647 C 1892.52 -1.54876 -5.91149 0
M  V30 20648 C 1893.51 -2.38834 -6.39881 0
M  V30 20649 O 1893.2 -3.36753 -7.29967 0
M  V30 20650 H 1892.93 0.0451009 -0.674494 0
M  V30 20651 H 1895.49 -0.516588 -1.98798 0
M  V30 20652 H 1893.72 1.49079 -3.56809 0
M  V30 20653 H 1895.41 1.20637 -3.87559 0
M  V30 20654 H 1896.17 -1.13039 -4.71643 0
M  V30 20655 H 1892.05 0.0911198 -4.6091 0
M  V30 20656 H 1895.6 -2.89053 -6.34897 0
M  V30 20657 H 1891.49 -1.66091 -6.23766 0
M  V30 20658 H 1892.26 -3.32431 -7.47952 0
M  V30 20659 N 1894.92 1.57341 -0.0902386 0
M  V30 20660 C 1895.87 2.10293 0.880961 0
M  V30 20661 C 1896.86 1.01683 1.24697 0
M  V30 20662 O 1898.05 1.27965 1.22286 0
M  V30 20663 C 1895.18 2.68293 2.14182 0
M  V30 20664 C 1894.27 3.83938 1.80146 0
M  V30 20665 N 1894.66 4.92166 1.16646 0
M  V30 20666 C 1892.95 3.93581 2.09785 0
M  V30 20667 C 1893.66 5.72845 1.01113 0
M  V30 20668 N 1892.63 5.21716 1.52686 0
M  V30 20669 H 1896.43 2.91354 0.385979 0
M  V30 20670 H 1893.95 1.62006 0.113118 0
M  V30 20671 H 1895.94 3.04555 2.84697 0
M  V30 20672 H 1894.6 1.88685 2.6425 0
M  V30 20673 H 1895.62 5.11143 0.833854 0
M  V30 20674 H 1892.29 3.24975 2.62102 0
M  V30 20675 H 1893.68 6.69924 0.514913 0
M  V30 20676 N 1896.4 -0.183431 1.56529 0
M  V30 20677 C 1897.33 -1.22973 1.98494 0
M  V30 20678 C 1898.31 -1.46837 0.858653 0
M  V30 20679 O 1899.5 -1.58377 1.12385 0
M  V30 20680 C 1896.63 -2.57138 2.33446 0
M  V30 20681 C 1895.58 -2.47865 3.48922 0
M  V30 20682 C 1894.91 -3.8641 3.69582 0
M  V30 20683 C 1896.21 -1.99371 4.82751 0
M  V30 20684 H 1897.9 -0.880938 2.86147 0
M  V30 20685 H 1895.45 -0.422321 1.37668 0
M  V30 20686 H 1897.4 -3.30527 2.614 0
M  V30 20687 H 1896.13 -2.93781 1.42689 0
M  V30 20688 H 1894.78 -1.76932 3.21077 0
M  V30 20689 H 1894.43 -4.20426 2.76136 0
M  V30 20690 H 1894.13 -3.81077 4.47274 0
M  V30 20691 H 1895.66 -4.61403 3.99924 0
M  V30 20692 H 1897.07 -2.62526 5.0966 0
M  V30 20693 H 1895.47 -2.05014 5.63994 0
M  V30 20694 H 1896.54 -0.947442 4.75554 0
M  V30 20695 N 1897.88 -1.50992 -0.451564 0
M  V30 20696 C 1899.12 -1.64605 -1.21179 0
M  V30 20697 C 1899.48 -0.347889 -1.88822 0
M  V30 20698 O 1900.69 -0.359643 -2.66383 0
M  V30 20699 C 1898.96 -2.8067 -2.21267 0
M  V30 20700 S 1900.52 -3.14531 -3.05967 0
M  V30 20701 H 1897.33 -0.58007 -0.411145 0
M  V30 20702 H 1899.94 -1.88849 -0.505611 0
M  V30 20703 H 1898.64 -3.73449 -1.70187 0
M  V30 20704 H 1898.17 -2.58572 -2.96486 0
M  V30 20705 H 1900.19 -2.59864 -4.22712 0
M  V30 20706 N 1899.36 0.706069 -1.40899 0
M  V30 20707 C 1900.31 1.84143 -1.42106 0
M  V30 20708 C 1901.3 1.66716 -0.300367 0
M  V30 20709 O 1902.51 1.73705 -0.471879 0
M  V30 20710 H 1898.88 0.606636 -0.444406 0
M  V30 20711 H 1900.85 1.80241 -2.37815 0
M  V30 20712 C 1899.6 3.22084 -1.30986 0
M  V30 20713 H 1898.92 3.36105 -2.16503 0
M  V30 20714 H 1900.36 4.01634 -1.35891 0
M  V30 20715 C 1898.82 3.36893 -0.0210718 0
M  V30 20716 O 1899.35 3.90589 0.938242 0
M  V30 20717 N 1897.56 2.90554 0.0515652 0
M  V30 20718 H 1897.11 2.47045 -0.729833 0
M  V30 20719 H 1897.06 3.00842 0.91332 0
M  V30 20720 N 1900.84 1.26553 0.939264 0
M  V30 20721 C 1901.75 1.10059 2.07181 0
M  V30 20722 C 1902.76 0.033599 1.73968 0
M  V30 20723 O 1903.94 0.237723 1.99992 0
M  V30 20724 C 1901 0.737342 3.38769 0
M  V30 20725 C 1900.06 1.88395 3.85753 0
M  V30 20726 C 1899.3 1.53794 5.11061 0
M  V30 20727 O 1899.52 0.440543 5.68696 0
M  V30 20728 O 1898.45 2.37332 5.53134 0
M  V30 20729 H 1902.28 2.05075 2.24004 0
M  V30 20730 H 1899.87 1.05633 1.05651 0
M  V30 20731 H 1901.75 0.547578 4.17827 0
M  V30 20732 H 1900.42 -0.183404 3.2318 0
M  V30 20733 H 1899.33 2.1287 3.07632 0
M  V30 20734 H 1900.66 2.78449 4.05865 0
M  V30 20735 N 1902.31 -1.14411 1.08387 0
M  V30 20736 C 1903.56 -1.84792 0.808372 0
M  V30 20737 C 1903.88 -1.83833 -0.668195 0
M  V30 20738 O 1905.08 -2.50001 -1.05885 0
M  V30 20739 C 1903.54 -3.31718 1.3961 0
M  V30 20740 C 1903.15 -3.41095 2.90444 0
M  V30 20741 C 1904.89 -4.07213 1.19908 0
M  V30 20742 C 1902.8 -4.82231 3.42356 0
M  V30 20743 H 1901.73 -0.692298 0.29873 0
M  V30 20744 H 1904.38 -1.28977 1.30526 0
M  V30 20745 H 1902.76 -3.8727 0.826924 0
M  V30 20746 H 1903.93 -2.95595 3.53497 0
M  V30 20747 H 1902.25 -2.79056 3.09058 0
M  V30 20748 H 1904.85 -5.11389 1.56158 0
M  V30 20749 H 1905.19 -4.16068 0.138882 0
M  V30 20750 H 1905.72 -3.57961 1.73519 0
M  V30 20751 H 1902.46 -4.78563 4.47948 0
M  V30 20752 H 1901.98 -5.2827 2.84062 0
M  V30 20753 H 1903.66 -5.5112 3.38933 0
M  V30 20754 N 1903.79 -0.869509 -1.31443 0
M  V30 20755 C 1905.02 -0.493849 -2.01435 0
M  V30 20756 C 1905.44 0.906049 -1.6484 0
M  V30 20757 O 1904.8 1.59777 -0.856794 0
M  V30 20758 C 1904.85 -0.657723 -3.54551 0
M  V30 20759 O 1903.95 0.303155 -4.11284 0
M  V30 20760 H 1903.29 -0.196494 -0.63426 0
M  V30 20761 H 1905.82 -1.1728 -1.6765 0
M  V30 20762 H 1905.83 -0.550841 -4.04264 0
M  V30 20763 H 1904.51 -1.67848 -3.80526 0
M  V30 20764 H 1903.09 0.151268 -3.72593 0
M  V30 20765 N 1905.27 1.44508 -0.628902 0
M  V30 20766 C 1906.18 2.34468 0.0786233 0
M  V30 20767 C 1907.2 1.52489 0.838046 0
M  V30 20768 O 1908.37 1.85224 0.790813 0
M  V30 20769 C 1905.44 3.30435 1.04945 0
M  V30 20770 C 1904.5 4.28322 0.289643 0
M  V30 20771 C 1903.73 5.19704 1.21422 0
M  V30 20772 O 1903.95 5.14967 2.45286 0
M  V30 20773 O 1902.89 5.97819 0.699748 0
M  V30 20774 H 1906.71 2.96414 -0.661222 0
M  V30 20775 H 1904.3 1.44244 -0.3891 0
M  V30 20776 H 1906.18 3.89513 1.60804 0
M  V30 20777 H 1904.86 2.71025 1.76994 0
M  V30 20778 H 1903.76 3.72797 -0.311936 0
M  V30 20779 H 1905.1 4.90646 -0.390789 0
M  V30 20780 N 1906.75 0.369315 1.53212 0
M  V30 20781 C 1908.17 0.0184115 1.59589 0
M  V30 20782 C 1908.37 -1.46424 1.38428 0
M  V30 20783 O 1907.42 -2.2263 1.1913 0
M  V30 20784 C 1908.73 0.477693 2.96881 0
M  V30 20785 C 1910.28 0.432233 3.10001 0
M  V30 20786 C 1910.76 0.867386 4.49711 0
M  V30 20787 N 1912.25 0.822594 4.55837 0
M  V30 20788 C 1912.98 1.13094 5.62136 0
M  V30 20789 N 1912.48 1.50876 6.76172 0
M  V30 20790 N 1914.27 1.0535 5.52139 0
M  V30 20791 H 1906.42 1.33479 1.65218 0
M  V30 20792 H 1908.69 0.545823 0.775101 0
M  V30 20793 H 1908.39 1.51245 3.17518 0
M  V30 20794 H 1908.27 -0.133741 3.76963 0
M  V30 20795 H 1910.65 -0.593397 2.89072 0
M  V30 20796 H 1910.73 1.07921 2.3192 0
M  V30 20797 H 1910.38 1.89115 4.71379 0
M  V30 20798 H 1910.31 0.19762 5.26229 0
M  V30 20799 H 1912.8 0.544303 3.7396 0
M  V30 20800 H 1913.11 1.72821 7.53228 0
M  V30 20801 H 1911.46 1.54745 6.77554 0
M  V30 20802 H 1914.65 0.757487 4.6193 0
M  V30 20803 H 1914.82 1.29713 6.34885 0
M  V30 20804 N 1908.23 -1.57291 0.0985816 0
M  V30 20805 C 1909.47 -1.94767 -0.56514 0
M  V30 20806 C 1909.81 -0.980722 -1.67617 0
M  V30 20807 O 1909.08 -0.0143714 -1.94495 0
M  V30 20808 C 1909.36 -3.42336 -1.11704 0
M  V30 20809 C 1909.22 -4.49799 -0.0108284 0
M  V30 20810 C 1910.54 -3.91296 -2.01434 0
M  V30 20811 H 1907.66 -0.708215 -0.203963 0
M  V30 20812 H 1910.3 -1.89238 0.169998 0
M  V30 20813 H 1908.45 -3.47179 -1.74354 0
M  V30 20814 H 1910.12 -4.57066 0.623574 0
M  V30 20815 H 1908.36 -4.28825 0.655093 0
M  V30 20816 H 1909.03 -5.50261 -0.437868 0
M  V30 20817 H 1911.51 -3.88628 -1.48685 0
M  V30 20818 H 1910.39 -4.9511 -2.36975 0
M  V30 20819 H 1910.65 -3.30792 -2.93307 0
M  V30 20820 N 1909.71 0.175127 -1.56624 0
M  V30 20821 C 1910.95 0.89369 -1.82047 0
M  V30 20822 C 1911.28 1.82061 -0.675831 0
M  V30 20823 O 1910.56 1.91808 0.322453 0
M  V30 20824 C 1910.84 1.69266 -3.17838 0
M  V30 20825 C 1910.7 0.789122 -4.42824 0
M  V30 20826 C 1912.01 2.66115 -3.50529 0
M  V30 20827 H 1909.13 0.323454 -0.662228 0
M  V30 20828 H 1911.78 0.160077 -1.89324 0
M  V30 20829 H 1909.93 2.31808 -3.11765 0
M  V30 20830 H 1911.6 0.17687 -4.60961 0
M  V30 20831 H 1909.84 0.0969508 -4.33692 0
M  V30 20832 H 1910.51 1.38358 -5.34379 0
M  V30 20833 H 1912.99 2.137 -3.57031 0
M  V30 20834 H 1911.86 3.19087 -4.46626 0
M  V30 20835 H 1912.12 3.4613 -2.75038 0
M  V30 20836 N 1911.18 1.5123 0.44355 0
M  V30 20837 C 1912.12 1.68281 1.55609 0
M  V30 20838 C 1913.13 0.563589 1.52733 0
M  V30 20839 O 1914.32 0.837706 1.57622 0
M  V30 20840 C 1911.42 1.67657 2.94524 0
M  V30 20841 C 1910.59 2.96063 3.21971 0
M  V30 20842 C 1909.65 2.8771 4.40578 0
M  V30 20843 O 1908.68 3.61659 4.39536 0
M  V30 20844 N 1909.88 2.03137 5.43797 0
M  V30 20845 H 1912.64 2.64252 1.41389 0
M  V30 20846 H 1910.2 1.49038 0.632398 0
M  V30 20847 H 1912.2 1.59646 3.71881 0
M  V30 20848 H 1910.77 0.79306 3.02373 0
M  V30 20849 H 1909.99 3.17991 2.32971 0
M  V30 20850 H 1911.27 3.81074 3.37135 0
M  V30 20851 H 1910.67 1.42422 5.47478 0
M  V30 20852 H 1909.23 2.0101 6.20031 0
M  V30 20853 N 1912.66 -0.698586 1.41271 0
M  V30 20854 C 1913.61 -1.80459 1.3935 0
M  V30 20855 C 1914.6 -1.58647 0.268341 0
M  V30 20856 O 1915.79 -1.6953 0.508777 0
M  V30 20857 C 1912.92 -3.18739 1.27515 0
M  V30 20858 C 1912 -3.46257 2.44881 0
M  V30 20859 N 1912.39 -3.44491 3.70351 0
M  V30 20860 C 1910.69 -3.76792 2.38629 0
M  V30 20861 C 1911.39 -3.70829 4.48175 0
M  V30 20862 N 1910.37 -3.90423 3.78247 0
M  V30 20863 H 1914.17 -1.77452 2.34282 0
M  V30 20864 H 1911.68 -0.898448 1.35284 0
M  V30 20865 H 1913.68 -3.97963 1.24221 0
M  V30 20866 H 1912.34 -3.2296 0.335652 0
M  V30 20867 H 1913.35 -3.24942 4.03278 0
M  V30 20868 H 1910.03 -3.88402 1.53136 0
M  V30 20869 H 1911.42 -3.75625 5.57096 0
M  V30 20870 N 1914.14 -1.27049 -0.93254 0
M  V30 20871 C 1915.39 -1.13103 -1.6797 0
M  V30 20872 C 1915.71 0.324047 -1.91782 0
M  V30 20873 O 1914.97 1.25381 -1.5026 0
M  V30 20874 C 1915.27 -1.8547 -3.05509 0
M  V30 20875 C 1914.93 -3.35342 -3.01424 0
M  V30 20876 C 1913.6 -3.76222 -3.00017 0
M  V30 20877 C 1915.95 -4.30993 -2.93078 0
M  V30 20878 C 1913.28 -5.11125 -2.88041 0
M  V30 20879 C 1915.63 -5.65946 -2.82644 0
M  V30 20880 C 1914.29 -6.06126 -2.79585 0
M  V30 20881 H 1913.56 -0.413872 -0.614647 0
M  V30 20882 H 1916.21 -1.57598 -1.08789 0
M  V30 20883 H 1914.51 -1.33469 -3.68366 0
M  V30 20884 H 1916.21 -1.72112 -3.62186 0
M  V30 20885 H 1912.8 -3.02828 -3.03303 0
M  V30 20886 H 1916.99 -4.00385 -2.93267 0
M  V30 20887 H 1912.24 -5.41408 -2.84056 0
M  V30 20888 H 1916.42 -6.39738 -2.75151 0
M  V30 20889 H 1914.04 -7.10613 -2.70061 0
M  V30 20890 N 1915.62 1.13835 -1.08993 0
M  V30 20891 C 1916.86 1.85284 -0.824476 0
M  V30 20892 C 1917.2 1.83062 0.648235 0
M  V30 20893 O 1916.47 1.26555 1.47696 0
M  V30 20894 C 1916.75 3.33649 -1.35463 0
M  V30 20895 C 1916.61 3.44411 -2.89312 0
M  V30 20896 C 1917.93 4.28941 -0.984768 0
M  V30 20897 H 1915.05 0.672745 -0.300971 0
M  V30 20898 H 1917.69 1.3364 -1.35057 0
M  V30 20899 H 1915.84 3.77761 -0.907128 0
M  V30 20900 H 1917.51 3.09043 -3.42477 0
M  V30 20901 H 1915.75 2.85429 -3.26669 0
M  V30 20902 H 1916.42 4.48724 -3.21481 0
M  V30 20903 H 1918.9 3.92877 -1.37064 0
M  V30 20904 H 1917.78 5.31196 -1.38283 0
M  V30 20905 H 1918.04 4.41969 0.10755 0
M  V30 20906 N 1917.1 0.876467 1.3098 0
M  V30 20907 C 1918.05 0.308508 2.25903 0
M  V30 20908 C 1919.03 -0.558176 1.50908 0
M  V30 20909 O 1920.22 -0.403991 1.72328 0
M  V30 20910 C 1917.35 -0.483379 3.3988 0
M  V30 20911 C 1916.44 0.396914 4.22239 0
M  V30 20912 N 1916.83 1.49342 4.8325 0
M  V30 20913 C 1915.13 0.190504 4.45593 0
M  V30 20914 C 1915.83 2.0368 5.44876 0
M  V30 20915 N 1914.8 1.33291 5.27005 0
M  V30 20916 H 1918.6 1.14647 2.70617 0
M  V30 20917 H 1916.12 0.724937 1.45322 0
M  V30 20918 H 1918.12 -0.906842 4.06918 0
M  V30 20919 H 1916.78 -1.31888 2.96708 0
M  V30 20920 H 1917.79 1.87632 4.82716 0
M  V30 20921 H 1914.46 -0.608515 4.13042 0
M  V30 20922 H 1915.85 2.95713 6.03327 0
M  V30 20923 N 1918.57 -1.44173 0.636557 0
M  V30 20924 C 1919.81 -2.03874 0.146599 0
M  V30 20925 C 1920.18 -1.49026 -1.21059 0
M  V30 20926 O 1921.38 -2.00264 -1.79298 0
M  V30 20927 C 1919.65 -3.57131 0.138577 0
M  V30 20928 S 1921.21 -4.37867 -0.285968 0
M  V30 20929 H 1918.03 -0.708136 0.0637502 0
M  V30 20930 H 1920.63 -1.76479 0.841163 0
M  V30 20931 H 1919.33 -3.94555 1.12936 0
M  V30 20932 H 1918.86 -3.89145 -0.577061 0
M  V30 20933 H 1920.88 -4.72059 -1.52889 0
M  V30 20934 N 1920.05 -0.377435 -1.53014 0
M  V30 20935 C 1921.3 0.209712 -2.00607 0
M  V30 20936 C 1921.61 1.48891 -1.2685 0
M  V30 20937 O 1922.82 2.15538 -1.65093 0
M  V30 20938 C 1921.28 0.424271 -3.5739 0
M  V30 20939 C 1920.88 -0.840982 -4.40036 0
M  V30 20940 C 1922.63 0.968428 -4.13306 0
M  V30 20941 C 1920.53 -0.595355 -5.88396 0
M  V30 20942 H 1919.46 0.0821436 -0.749512 0
M  V30 20943 H 1922.12 -0.498005 -1.76613 0
M  V30 20944 H 1920.5 1.19354 -3.77585 0
M  V30 20945 H 1921.67 -1.61396 -4.31611 0
M  V30 20946 H 1919.99 -1.30922 -3.95283 0
M  V30 20947 H 1922.58 1.16771 -5.21794 0
M  V30 20948 H 1922.93 1.93405 -3.68647 0
M  V30 20949 H 1923.46 0.259025 -3.96956 0
M  V30 20950 H 1920.2 -1.53164 -6.37355 0
M  V30 20951 H 1919.72 0.138904 -5.99639 0
M  V30 20952 H 1921.4 -0.225366 -6.46607 0
M  V30 20953 N 1921.53 1.57237 -0.106922 0
M  V30 20954 C 1922.44 2.18202 0.861685 0
M  V30 20955 C 1923.46 1.15476 1.30159 0
M  V30 20956 O 1924.63 1.47896 1.36707 0
M  V30 20957 C 1921.7 2.7598 2.09847 0
M  V30 20958 C 1920.76 3.93702 1.71164 0
M  V30 20959 C 1919.99 4.48716 2.88946 0
M  V30 20960 O 1920.21 4.02645 4.04021 0
M  V30 20961 O 1919.15 5.39573 2.66729 0
M  V30 20962 H 1922.97 3.01402 0.372924 0
M  V30 20963 H 1920.56 1.48933 0.118058 0
M  V30 20964 H 1922.44 3.12861 2.82305 0
M  V30 20965 H 1921.12 1.9582 2.57753 0
M  V30 20966 H 1920.02 3.61613 0.958499 0
M  V30 20967 H 1921.36 4.75262 1.28011 0
M  V30 20968 N 1923.01 -0.166818 1.56715 0
M  V30 20969 C 1924.24 -0.898169 1.86388 0
M  V30 20970 C 1924.65 -1.75628 0.692837 0
M  V30 20971 O 1924.01 -1.79344 -0.337947 0
M  V30 20972 C 1924.06 -1.77122 3.15135 0
M  V30 20973 O 1923.78 -0.947716 4.27727 0
M  V30 20974 C 1925.28 -2.61185 3.58186 0
M  V30 20975 H 1922.5 -0.260711 0.61828 0
M  V30 20976 H 1925.05 -0.165561 2.03829 0
M  V30 20977 H 1923.2 -2.45711 2.99507 0
M  V30 20978 H 1923.61 -1.54523 5.01221 0
M  V30 20979 H 1925.09 -3.18052 4.51162 0
M  V30 20980 H 1925.57 -3.36273 2.8252 0
M  V30 20981 H 1926.17 -1.9792 3.76441 0
M  V30 20982 N 1924.49 -1.51463 -0.435524 0
M  V30 20983 C 1925.44 -1.69292 -1.52723 0
M  V30 20984 C 1926.42 -0.54689 -1.51321 0
M  V30 20985 O 1927.61 -0.802879 -1.57743 0
M  V30 20986 C 1924.74 -1.82299 -2.90898 0
M  V30 20987 C 1923.83 -3.02692 -2.9705 0
M  V30 20988 N 1924.22 -4.25836 -2.72942 0
M  V30 20989 C 1922.52 -3.01983 -3.2821 0
M  V30 20990 C 1923.22 -5.07109 -2.84983 0
M  V30 20991 N 1922.19 -4.41794 -3.16731 0
M  V30 20992 H 1926 -2.62166 -1.32839 0
M  V30 20993 H 1923.51 -1.49135 -0.642858 0
M  V30 20994 H 1925.51 -1.93183 -3.6944 0
M  V30 20995 H 1924.17 -0.906076 -3.11802 0
M  V30 20996 H 1925.18 -4.5475 -2.47836 0
M  V30 20997 H 1921.85 -2.1993 -3.54876 0
M  V30 20998 H 1923.24 -6.1514 -2.70283 0
M  V30 20999 N 1925.96 0.691085 -1.4164 0
M  V30 21000 C 1927.21 1.44828 -1.40959 0
M  V30 21001 C 1927.53 1.94988 -0.0211789 0
M  V30 21002 O 1926.8 1.71999 0.937714 0
M  V30 21003 H 1925.38 0.53739 -0.518865 0
M  V30 21004 H 1928.05 0.817677 -1.76918 0
M  V30 21005 H 1927.14 2.30926 -2.09952 0
M  V30 21006 N 1927.44 1.27542 0.925789 0
M  V30 21007 C 1928.86 1.04988 1.20207 0
M  V30 21008 C 1929.06 -0.215359 2.00346 0
M  V30 21009 O 1928.11 -0.920331 2.3513 0
M  V30 21010 C 1929.43 2.2904 1.94836 0
M  V30 21011 C 1930.98 2.34098 2.07767 0
M  V30 21012 C 1931.45 3.57884 2.85802 0
M  V30 21013 N 1932.94 3.58453 2.93369 0
M  V30 21014 C 1933.68 4.50907 3.54218 0
M  V30 21015 N 1933.17 5.53667 4.16443 0
M  V30 21016 N 1934.97 4.38527 3.5164 0
M  V30 21017 H 1927.12 2.0878 0.390449 0
M  V30 21018 H 1929.38 0.918323 0.235346 0
M  V30 21019 H 1929.09 3.21151 1.4337 0
M  V30 21020 H 1928.96 2.34507 2.95442 0
M  V30 21021 H 1931.35 1.42492 2.58418 0
M  V30 21022 H 1931.43 2.32633 1.06375 0
M  V30 21023 H 1931.07 4.49828 2.35834 0
M  V30 21024 H 1931 3.56601 3.87484 0
M  V30 21025 H 1933.49 2.84138 2.49147 0
M  V30 21026 H 1933.81 6.20377 4.60817 0
M  V30 21027 H 1932.15 5.57507 4.14983 0
M  V30 21028 H 1935.34 3.57455 3.0223 0
M  V30 21029 H 1935.51 5.10769 3.98772 0
M  V30 21030 N 1928.92 -1.13255 1.09595 0
M  V30 21031 C 1929.87 -2.16783 0.706325 0
M  V30 21032 C 1930.85 -1.58442 -0.280181 0
M  V30 21033 O 1932.05 -1.7677 -0.0902771 0
M  V30 21034 C 1929.18 -3.43053 0.130333 0
M  V30 21035 C 1928.26 -4.08397 1.14336 0
M  V30 21036 N 1928.65 -4.48881 2.33107 0
M  V30 21037 C 1926.95 -4.35057 0.981893 0
M  V30 21038 C 1927.65 -4.99832 2.97562 0
M  V30 21039 N 1926.63 -4.94797 2.25115 0
M  V30 21040 H 1930.43 -2.45841 1.61058 0
M  V30 21041 H 1927.94 -1.30069 0.972415 0
M  V30 21042 H 1929.94 -4.16566 -0.166824 0
M  V30 21043 H 1928.6 -3.15468 -0.768749 0
M  V30 21044 H 1929.61 -4.4153 2.70688 0
M  V30 21045 H 1926.29 -4.17273 0.137641 0
M  V30 21046 H 1927.68 -5.40938 3.98542 0
M  V30 21047 N 1930.4 -0.883401 -1.30514 0
M  V30 21048 C 1931.64 -0.501795 -1.96494 0
M  V30 21049 C 1931.98 0.946294 -1.69585 0
M  V30 21050 O 1931.25 1.66842 -0.999705 0
M  V30 21051 C 1931.54 -0.775405 -3.51653 0
M  V30 21052 C 1931.39 -2.27401 -3.88084 0
M  V30 21053 C 1932.71 -0.250854 -4.39384 0
M  V30 21054 H 1929.83 -0.183786 -0.713717 0
M  V30 21055 H 1932.47 -1.1071 -1.54412 0
M  V30 21056 H 1930.62 -0.260217 -3.87628 0
M  V30 21057 H 1932.29 -2.85748 -3.62141 0
M  V30 21058 H 1930.53 -2.74128 -3.36209 0
M  V30 21059 H 1931.2 -2.41606 -4.96317 0
M  V30 21060 H 1933.68 -0.691785 -4.10309 0
M  V30 21061 H 1932.56 -0.471637 -5.4687 0
M  V30 21062 H 1932.82 0.847835 -4.33894 0
M  V30 21063 N 1931.88 1.43833 -0.644194 0
M  V30 21064 C 1932.79 2.34538 0.0537504 0
M  V30 21065 C 1933.8 1.53369 0.821825 0
M  V30 21066 O 1934.98 1.86053 0.771123 0
M  V30 21067 C 1932.04 3.3153 1.01434 0
M  V30 21068 C 1931.1 4.28605 0.244198 0
M  V30 21069 C 1930.34 5.20963 1.15903 0
M  V30 21070 O 1930.56 5.1754 2.3981 0
M  V30 21071 O 1929.49 5.98527 0.636302 0
M  V30 21072 H 1933.32 2.95696 -0.692624 0
M  V30 21073 H 1930.91 1.43823 -0.404377 0
M  V30 21074 H 1932.79 3.91196 1.56663 0
M  V30 21075 H 1931.46 2.72887 1.7411 0
M  V30 21076 H 1930.37 3.72445 -0.351459 0
M  V30 21077 H 1931.7 4.90204 -0.442806 0
M  V30 21078 N 1933.35 0.385544 1.52811 0
M  V30 21079 C 1934.58 -0.197738 2.05652 0
M  V30 21080 C 1934.99 -1.41373 1.2574 0
M  V30 21081 O 1934.34 -1.81297 0.296184 0
M  V30 21082 C 1934.4 -0.636031 3.53829 0
M  V30 21083 C 1934.06 0.465981 4.54618 0
M  V30 21084 C 1935.06 1.3222 5.02806 0
M  V30 21085 C 1932.74 0.631936 4.98309 0
M  V30 21086 C 1934.74 2.32954 5.93305 0
M  V30 21087 C 1932.42 1.64261 5.8861 0
M  V30 21088 C 1933.42 2.48983 6.36 0
M  V30 21089 O 1933.11 3.48324 7.24518 0
M  V30 21090 H 1932.84 -0.0343646 0.675126 0
M  V30 21091 H 1935.4 0.548149 1.97951 0
M  V30 21092 H 1933.63 -1.43384 3.59135 0
M  V30 21093 H 1935.32 -1.14456 3.89429 0
M  V30 21094 H 1936.08 1.20528 4.69785 0
M  V30 21095 H 1931.96 -0.0177815 4.60997 0
M  V30 21096 H 1935.5 2.99118 6.30218 0
M  V30 21097 H 1931.4 1.75993 6.21045 0
M  V30 21098 H 1932.17 3.44288 7.42569 0
M  V30 21099 N 1934.83 -1.57178 0.115259 0
M  V30 21100 C 1935.76 -2.18134 -0.833042 0
M  V30 21101 C 1936.74 -1.12033 -1.27995 0
M  V30 21102 O 1937.93 -1.40254 -1.34323 0
M  V30 21103 C 1935.06 -2.77778 -2.08463 0
M  V30 21104 C 1934.01 -3.89429 -1.77565 0
M  V30 21105 C 1933.34 -4.35863 -3.09722 0
M  V30 21106 C 1934.64 -5.11701 -1.04687 0
M  V30 21107 H 1936.33 -2.9763 -0.325107 0
M  V30 21108 H 1933.88 -1.43164 -0.154933 0
M  V30 21109 H 1935.83 -3.19079 -2.75258 0
M  V30 21110 H 1934.56 -1.95566 -2.61575 0
M  V30 21111 H 1933.21 -3.48698 -1.13161 0
M  V30 21112 H 1932.86 -3.50515 -3.6076 0
M  V30 21113 H 1932.56 -5.11152 -2.89823 0
M  V30 21114 H 1934.09 -4.79812 -3.77641 0
M  V30 21115 H 1935.5 -5.50045 -1.61628 0
M  V30 21116 H 1933.9 -5.92549 -0.948964 0
M  V30 21117 H 1934.97 -4.84889 -0.032977 0
M  V30 21118 N 1936.31 0.158505 -1.56801 0
M  V30 21119 C 1937.73 0.510743 -1.51207 0
M  V30 21120 C 1937.93 1.83983 -0.821733 0
M  V30 21121 O 1936.98 2.4951 -0.387444 0
M  V30 21122 C 1938.3 0.531668 -2.95962 0
M  V30 21123 C 1939.84 0.617983 -3.06839 0
M  V30 21124 C 1940.32 0.66968 -4.53078 0
M  V30 21125 N 1941.81 0.73222 -4.57376 0
M  V30 21126 C 1942.55 0.793011 -5.6789 0
M  V30 21127 N 1942.04 0.81385 -6.88003 0
M  V30 21128 N 1943.83 0.833013 -5.55893 0
M  V30 21129 H 1935.99 -0.712841 -2.00081 0
M  V30 21130 H 1938.25 -0.258572 -0.912055 0
M  V30 21131 H 1937.95 -0.376495 -3.49679 0
M  V30 21132 H 1937.83 1.37366 -3.51298 0
M  V30 21133 H 1940.22 1.51657 -2.53149 0
M  V30 21134 H 1940.3 -0.250933 -2.54566 0
M  V30 21135 H 1939.94 -0.2247 -5.07403 0
M  V30 21136 H 1939.87 1.55492 -5.0312 0
M  V30 21137 H 1942.36 0.72388 -3.70902 0
M  V30 21138 H 1942.67 0.861766 -7.6798 0
M  V30 21139 H 1941.02 0.781915 -6.90587 0
M  V30 21140 H 1944.21 0.813822 -4.60971 0
M  V30 21141 H 1944.38 0.876926 -6.42039 0
M  V30 21142 N 1937.79 1.51692 0.427485 0
M  V30 21143 C 1939.04 1.64847 1.17608 0
M  V30 21144 C 1939.36 0.369447 1.90959 0
M  V30 21145 O 1938.62 -0.646897 1.84699 0
M  V30 21146 C 1938.92 2.80871 2.21011 0
M  V30 21147 C 1938.58 4.19782 1.64602 0
M  V30 21148 C 1937.25 4.5757 1.48941 0
M  V30 21149 C 1939.6 5.06423 1.23226 0
M  V30 21150 C 1936.93 5.79695 0.903941 0
M  V30 21151 C 1939.28 6.29137 0.661048 0
M  V30 21152 C 1937.94 6.65689 0.491424 0
M  V30 21153 H 1937.21 0.603218 0.430359 0
M  V30 21154 H 1939.86 1.85749 0.465774 0
M  V30 21155 H 1938.16 2.5423 2.98118 0
M  V30 21156 H 1939.86 2.88248 2.78772 0
M  V30 21157 H 1936.45 3.89995 1.7777 0
M  V30 21158 H 1940.64 4.77828 1.34142 0
M  V30 21159 H 1935.89 6.06653 0.76037 0
M  V30 21160 H 1940.07 6.95608 0.331975 0
M  V30 21161 H 1937.69 7.60192 0.0356395 0
M  V30 21162 N 1939.27 -0.683564 1.42004 0
M  V30 21163 C 1940.2 -1.8095 1.47578 0
M  V30 21164 C 1941.18 -1.66804 0.333208 0
M  V30 21165 O 1942.36 -1.86357 0.546314 0
M  V30 21166 C 1939.49 -3.19182 1.36895 0
M  V30 21167 C 1938.45 -3.4805 2.49089 0
M  V30 21168 C 1937.77 -4.85764 2.23467 0
M  V30 21169 C 1939.07 -3.4582 3.91415 0
M  V30 21170 H 1940.77 -1.76543 2.41812 0
M  V30 21171 H 1938.31 -0.84794 1.16387 0
M  V30 21172 H 1940.27 -3.97674 1.39404 0
M  V30 21173 H 1938.99 -3.24245 0.391513 0
M  V30 21174 H 1937.65 -2.71915 2.45882 0
M  V30 21175 H 1937.3 -4.87467 1.24037 0
M  V30 21176 H 1937 -5.06043 2.98654 0
M  V30 21177 H 1938.52 -5.66551 2.27711 0
M  V30 21178 H 1939.94 -4.14297 3.96272 0
M  V30 21179 H 1938.33 -3.77633 4.66383 0
M  V30 21180 H 1939.4 -2.4456 4.1871 0
M  V30 21181 N 1940.75 -1.28031 -0.919012 0
M  V30 21182 C 1941.68 -1.07305 -2.0253 0
M  V30 21183 C 1942.69 -0.0264063 -1.62779 0
M  V30 21184 O 1943.88 -0.268902 -1.76463 0
M  V30 21185 C 1940.98 -0.607467 -3.33411 0
M  V30 21186 C 1940.15 -1.72834 -4.01805 0
M  V30 21187 C 1939.21 -1.25703 -5.10965 0
M  V30 21188 O 1938.24 -1.9583 -5.34452 0
M  V30 21189 N 1939.44 -0.117374 -5.80381 0
M  V30 21190 H 1942.2 -2.02575 -2.2087 0
M  V30 21191 H 1939.77 -1.19713 -1.08997 0
M  V30 21192 H 1941.76 -0.275875 -4.03759 0
M  V30 21193 H 1940.33 0.252241 -3.11581 0
M  V30 21194 H 1939.55 -2.22979 -3.25075 0
M  V30 21195 H 1940.84 -2.48038 -4.44246 0
M  V30 21196 H 1940.23 0.467747 -5.63763 0
M  V30 21197 H 1938.79 0.154978 -6.51616 0
M  V30 21198 N 1942.22 1.12672 -1.10194 0
M  V30 21199 C 1943.45 1.87955 -0.864907 0
M  V30 21200 C 1943.87 1.79527 0.584436 0
M  V30 21201 O 1943.22 1.1674 1.40278 0
M  V30 21202 C 1943.27 3.37261 -1.30143 0
M  V30 21203 O 1943 3.45483 -2.69394 0
M  V30 21204 C 1944.5 4.29488 -1.09793 0
M  V30 21205 H 1941.72 0.594777 -0.310614 0
M  V30 21206 H 1944.26 1.42583 -1.46596 0
M  V30 21207 H 1942.42 3.80187 -0.744103 0
M  V30 21208 H 1942.83 4.38357 -2.87999 0
M  V30 21209 H 1944.3 5.32546 -1.45254 0
M  V30 21210 H 1944.78 4.39185 -0.0363527 0
M  V30 21211 H 1945.39 3.92341 -1.6416 0
M  V30 21212 N 1943.7 0.89031 1.30043 0
M  V30 21213 C 1944.95 0.507478 1.95212 0
M  V30 21214 C 1945.26 -0.949179 1.71026 0
M  V30 21215 O 1946.47 -1.4391 2.30222 0
M  V30 21216 C 1944.93 0.856657 3.49556 0
M  V30 21217 C 1944.53 2.33145 3.82554 0
M  V30 21218 C 1946.28 0.543281 4.21009 0
M  V30 21219 C 1944.18 2.62198 5.301 0
M  V30 21220 H 1943.11 0.186056 0.730684 0
M  V30 21221 H 1945.77 1.08602 1.47912 0
M  V30 21222 H 1944.15 0.207146 3.95458 0
M  V30 21223 H 1945.32 3.02572 3.47544 0
M  V30 21224 H 1943.64 2.61289 3.24217 0
M  V30 21225 H 1946.23 0.737312 5.29592 0
M  V30 21226 H 1946.58 -0.517644 4.13069 0
M  V30 21227 H 1947.11 1.15022 3.80808 0
M  V30 21228 H 1943.85 3.67052 5.43096 0
M  V30 21229 H 1943.37 1.97385 5.66392 0
M  V30 21230 H 1945.05 2.47975 5.97593 0
M  V30 21231 N 1945.18 -1.43489 0.651812 0
M  V30 21232 C 1946.43 -2.02129 0.164876 0
M  V30 21233 C 1946.76 -1.51296 -1.2175 0
M  V30 21234 O 1946.03 -0.705492 -1.81254 0
M  V30 21235 C 1946.32 -3.59678 0.174184 0
M  V30 21236 C 1946.17 -4.20746 1.59038 0
M  V30 21237 C 1947.49 -4.37362 -0.490177 0
M  V30 21238 H 1944.61 -0.734439 0.0613871 0
M  V30 21239 H 1947.25 -1.70804 0.832229 0
M  V30 21240 H 1945.4 -3.86496 -0.394077 0
M  V30 21241 H 1947.07 -4.04964 2.20912 0
M  V30 21242 H 1945.31 -3.7745 2.13809 0
M  V30 21243 H 1945.99 -5.29828 1.54876 0
M  V30 21244 H 1948.46 -4.16099 -0.00670015 0
M  V30 21245 H 1947.34 -5.47028 -0.452932 0
M  V30 21246 H 1947.6 -4.13509 -1.56406 0
M  V30 21247 N 1946.66 -0.393643 -1.52605 0
M  V30 21248 C 1947.6 0.439408 -2.26579 0
M  V30 21249 C 1948.57 1.05415 -1.28362 0
M  V30 21250 O 1949.76 1.08136 -1.57198 0
M  V30 21251 C 1946.9 1.55846 -3.07906 0
M  V30 21252 C 1946.01 0.966152 -4.21058 0
M  V30 21253 C 1945.15 2.05662 -4.89772 0
M  V30 21254 C 1944.19 1.44043 -5.9491 0
M  V30 21255 N 1943.32 2.47039 -6.57203 0
M  V30 21256 H 1948.16 -0.197864 -2.97342 0
M  V30 21257 H 1945.7 -0.109409 -1.46693 0
M  V30 21258 H 1947.66 2.21807 -3.53352 0
M  V30 21259 H 1946.29 2.16598 -2.39343 0
M  V30 21260 H 1945.34 0.196024 -3.79895 0
M  V30 21261 H 1946.65 0.475898 -4.96525 0
M  V30 21262 H 1945.81 2.79383 -5.38544 0
M  V30 21263 H 1944.55 2.58048 -4.13839 0
M  V30 21264 H 1943.55 0.688483 -5.45472 0
M  V30 21265 H 1944.78 0.924458 -6.72778 0
M  V30 21266 H 1942.72 2.98586 -5.84108 0
M  V30 21267 H 1942.64 2.02781 -7.28297 0
M  V30 21268 H 1943.91 3.20377 -7.10619 0
M  V30 21269 N 1948.14 1.57115 -0.123593 0
M  V30 21270 C 1949.1 2.14386 0.810624 0
M  V30 21271 C 1950.1 1.07985 1.19146 0
M  V30 21272 O 1951.29 1.33739 1.11622 0
M  V30 21273 C 1948.42 2.68785 2.09683 0
M  V30 21274 H 1949.61 2.98264 0.312818 0
M  V30 21275 H 1947.17 1.55794 0.125682 0
M  V30 21276 H 1947.9 1.88509 2.63884 0
M  V30 21277 H 1947.69 3.46607 1.8332 0
M  V30 21278 H 1949.18 3.12989 2.76455 0
M  V30 21279 N 1949.61 -0.150187 1.56883 0
M  V30 21280 C 1950.89 -0.891842 1.74085 0
M  V30 21281 C 1951.27 -1.99479 0.690751 0
M  V30 21282 O 1950.62 -2.26641 -0.290877 0
M  V30 21283 C 1950.83 -1.43722 3.18033 0
M  V30 21284 C 1952.18 -1.90188 3.79623 0
M  V30 21285 O 1953.2 -1.53471 3.21442 0
M  V30 21286 O 1952.06 -2.57892 4.81824 0
M  V30 21287 H 1949.15 -0.421241 0.711678 0
M  V30 21288 H 1951.7 -0.136362 1.69151 0
M  V30 21289 H 1950.47 -0.644422 3.85957 0
M  V30 21290 H 1950.09 -2.2563 3.27379 0
M  V30 21291 N 1951.09 -1.51916 -0.419434 0
M  V30 21292 C 1952.34 -1.65142 -1.16502 0
M  V30 21293 C 1952.66 -0.378632 -1.91289 0
M  V30 21294 O 1951.93 0.606164 -1.86286 0
M  V30 21295 H 1950.51 -0.608667 -0.433051 0
M  V30 21296 H 1953.17 -1.88919 -0.47914 0
M  V30 21297 H 1952.27 -2.48762 -1.88477 0
M  V30 21298 N 1952.57 0.676023 -1.42365 0
M  V30 21299 C 1953.52 1.78959 -1.45747 0
M  V30 21300 C 1954.49 1.6319 -0.309563 0
M  V30 21301 O 1955.67 1.83761 -0.51346 0
M  V30 21302 C 1952.81 3.16982 -1.36441 0
M  V30 21303 C 1951.93 3.44047 -2.61257 0
M  V30 21304 C 1951.06 4.71791 -2.44103 0
M  V30 21305 C 1950.1 4.91887 -3.64299 0
M  V30 21306 N 1949.24 6.10871 -3.46094 0
M  V30 21307 H 1954.08 1.75403 -2.4091 0
M  V30 21308 H 1951.61 0.856293 -1.19608 0
M  V30 21309 H 1953.57 3.96741 -1.29044 0
M  V30 21310 H 1952.2 3.19666 -0.448744 0
M  V30 21311 H 1951.25 2.58551 -2.79026 0
M  V30 21312 H 1952.57 3.5479 -3.50607 0
M  V30 21313 H 1951.72 5.59639 -2.34285 0
M  V30 21314 H 1950.46 4.63329 -1.52241 0
M  V30 21315 H 1949.46 4.02482 -3.74551 0
M  V30 21316 H 1950.69 5.02195 -4.5714 0
M  V30 21317 H 1948.63 6.03584 -2.56949 0
M  V30 21318 H 1948.55 6.2247 -4.29031 0
M  V30 21319 H 1949.82 7.014 -3.40085 0
M  V30 21320 N 1954.05 1.28517 0.912209 0
M  V30 21321 C 1955.28 1.18443 1.69277 0
M  V30 21322 C 1955.69 -0.259286 1.87415 0
M  V30 21323 O 1955.03 -1.1869 1.40208 0
M  V30 21324 C 1955.09 1.81281 3.10447 0
M  V30 21325 C 1954.76 3.30534 3.15589 0
M  V30 21326 C 1955.75 4.26946 2.9667 0
M  V30 21327 C 1953.44 3.71517 3.38053 0
M  V30 21328 C 1955.43 5.62317 3.0013 0
M  V30 21329 C 1953.12 5.07014 3.41145 0
M  V30 21330 C 1954.12 6.02224 3.22204 0
M  V30 21331 O 1953.8 7.35249 3.2506 0
M  V30 21332 H 1953.54 0.412073 0.535885 0
M  V30 21333 H 1956.09 1.70185 1.15005 0
M  V30 21334 H 1954.32 1.24035 3.66268 0
M  V30 21335 H 1956.01 1.65704 3.70536 0
M  V30 21336 H 1956.78 3.96618 2.7914 0
M  V30 21337 H 1952.65 2.97873 3.51842 0
M  V30 21338 H 1956.2 6.36608 2.85264 0
M  V30 21339 H 1952.1 5.36992 3.58204 0
M  V30 21340 H 1952.86 7.43896 3.41411 0
M  V30 21341 N 1955.53 -1.12086 1.1079 0
M  V30 21342 C 1956.77 -1.83949 0.853848 0
M  V30 21343 C 1957.11 -1.8407 -0.619029 0
M  V30 21344 O 1956.38 -1.28889 -1.45664 0
M  V30 21345 C 1956.66 -3.31452 1.40754 0
M  V30 21346 C 1956.52 -3.39765 2.94754 0
M  V30 21347 C 1957.84 -4.2732 1.05288 0
M  V30 21348 H 1954.95 -0.667872 0.311635 0
M  V30 21349 H 1957.6 -1.31475 1.37166 0
M  V30 21350 H 1955.75 -3.7627 0.967112 0
M  V30 21351 H 1957.42 -3.03555 3.4735 0
M  V30 21352 H 1955.66 -2.80196 3.31168 0
M  V30 21353 H 1956.33 -4.43553 3.2858 0
M  V30 21354 H 1958.81 -3.90647 1.43297 0
M  V30 21355 H 1957.68 -5.28929 1.46716 0
M  V30 21356 H 1957.95 -4.42084 -0.0372227 0
M  V30 21357 N 1957 -0.897194 -1.29569 0
M  V30 21358 C 1957.95 -0.371435 -2.27792 0
M  V30 21359 C 1958.92 0.545087 -1.56901 0
M  V30 21360 O 1960.11 0.47087 -1.84899 0
M  V30 21361 C 1957.25 0.397236 -3.42806 0
M  V30 21362 C 1956.36 -0.549895 -4.28486 0
M  V30 21363 C 1955.49 0.23558 -5.30677 0
M  V30 21364 C 1954.53 -0.706236 -6.08012 0
M  V30 21365 N 1953.67 0.0446763 -7.02086 0
M  V30 21366 H 1958.51 -1.21414 -2.72145 0
M  V30 21367 H 1956.05 -0.610055 -1.33853 0
M  V30 21368 H 1958.01 0.858933 -4.08262 0
M  V30 21369 H 1956.64 1.20441 -2.99489 0
M  V30 21370 H 1955.69 -1.13011 -3.63226 0
M  V30 21371 H 1957 -1.27092 -4.82337 0
M  V30 21372 H 1956.15 0.758588 -6.01939 0
M  V30 21373 H 1954.89 0.989757 -4.77551 0
M  V30 21374 H 1953.9 -1.24077 -5.35617 0
M  V30 21375 H 1955.12 -1.4597 -6.63227 0
M  V30 21376 H 1953.07 0.781165 -6.51332 0
M  V30 21377 H 1952.99 -0.616488 -7.53482 0
M  V30 21378 H 1954.25 0.548029 -7.77571 0
M  V30 21379 N 1958.48 1.43142 -0.659413 0
M  V30 21380 C 1959.43 2.30783 0.0284037 0
M  V30 21381 C 1960.4 1.451 0.808407 0
M  V30 21382 O 1961.58 1.73959 0.783764 0
M  V30 21383 C 1958.72 3.30758 0.984529 0
M  V30 21384 C 1957.84 4.31537 0.199975 0
M  V30 21385 C 1956.97 5.18592 1.15046 0
M  V30 21386 C 1956.01 6.1106 0.356695 0
M  V30 21387 N 1955.15 6.90718 1.25909 0
M  V30 21388 H 1959.99 2.89051 -0.724821 0
M  V30 21389 H 1957.53 1.42392 -0.369192 0
M  V30 21390 H 1959.48 3.87236 1.55254 0
M  V30 21391 H 1958.11 2.74125 1.70456 0
M  V30 21392 H 1957.17 3.77303 -0.484425 0
M  V30 21393 H 1958.48 4.97054 -0.416974 0
M  V30 21394 H 1957.63 5.79727 1.7889 0
M  V30 21395 H 1956.37 4.53215 1.80131 0
M  V30 21396 H 1955.38 5.49008 -0.295063 0
M  V30 21397 H 1956.6 6.78481 -0.28984 0
M  V30 21398 H 1954.55 6.27984 1.89662 0
M  V30 21399 H 1954.46 7.52782 0.69685 0
M  V30 21400 H 1955.73 7.56353 1.88549 0
M  V30 21401 N 1959.96 0.40173 1.52394 0
M  V30 21402 C 1961.2 -0.176078 2.0364 0
M  V30 21403 C 1961.56 -1.43004 1.28117 0
M  V30 21404 O 1962.77 -2.08581 1.69551 0
M  V30 21405 C 1961.04 -0.425192 3.54862 0
M  V30 21406 S 1962.6 -0.971506 4.2791 0
M  V30 21407 H 1959.41 -0.0484885 0.709345 0
M  V30 21408 H 1962.02 0.552944 1.87517 0
M  V30 21409 H 1960.72 0.494352 4.07412 0
M  V30 21410 H 1960.25 -1.18229 3.75214 0
M  V30 21411 H 1962.27 -2.25275 4.42115 0
M  V30 21412 N 1961.44 -1.57047 0.131923 0
M  V30 21413 C 1962.37 -2.13088 -0.844174 0
M  V30 21414 C 1963.38 -1.07666 -1.22114 0
M  V30 21415 O 1964.57 -1.34995 -1.16784 0
M  V30 21416 C 1961.67 -2.62623 -2.14201 0
M  V30 21417 C 1960.85 -3.92283 -1.93475 0
M  V30 21418 C 1959.9 -4.27284 -3.07107 0
M  V30 21419 O 1958.93 -4.95876 -2.79456 0
M  V30 21420 N 1960.13 -3.85646 -4.33887 0
M  V30 21421 H 1962.9 -2.97465 -0.365306 0
M  V30 21422 H 1960.46 -1.61816 -0.0521136 0
M  V30 21423 H 1962.45 -2.8306 -2.89239 0
M  V30 21424 H 1961.02 -1.83054 -2.53397 0
M  V30 21425 H 1960.24 -3.80625 -1.02558 0
M  V30 21426 H 1961.53 -4.7704 -1.76947 0
M  V30 21427 H 1960.93 -3.30348 -4.59224 0
M  V30 21428 H 1959.48 -4.11165 -5.05754 0
M  V30 21429 N 1962.92 0.141865 -1.5696 0
M  V30 21430 C 1964.19 0.882597 -1.74555 0
M  V30 21431 C 1964.57 1.9911 -0.701321 0
M  V30 21432 O 1963.92 2.26792 0.278854 0
M  V30 21433 C 1964.13 1.42034 -3.18791 0
M  V30 21434 C 1965.48 1.88172 -3.80626 0
M  V30 21435 O 1966.5 1.51764 -3.22252 0
M  V30 21436 O 1965.36 2.55333 -4.83185 0
M  V30 21437 H 1962.46 0.417461 -0.713902 0
M  V30 21438 H 1965 0.127389 -1.69221 0
M  V30 21439 H 1963.77 0.623945 -3.86293 0
M  V30 21440 H 1963.4 2.2389 -3.28571 0
M  V30 21441 N 1964.39 1.52136 0.411372 0
M  V30 21442 C 1965.33 1.70036 1.52194 0
M  V30 21443 C 1966.31 0.547941 1.53089 0
M  V30 21444 O 1967.49 0.775017 1.71831 0
M  V30 21445 C 1964.62 1.73764 2.9073 0
M  V30 21446 C 1963.66 2.95279 3.07754 0
M  V30 21447 S 1964.5 4.55662 2.81305 0
M  V30 21448 C 1965.65 4.62173 4.22075 0
M  V30 21449 H 1965.88 2.63966 1.36781 0
M  V30 21450 H 1963.42 1.42147 0.6028 0
M  V30 21451 H 1965.38 1.76597 3.70572 0
M  V30 21452 H 1964.04 0.809659 3.03485 0
M  V30 21453 H 1963.23 2.94363 4.09104 0
M  V30 21454 H 1962.83 2.90322 2.35773 0
M  V30 21455 H 1965.12 4.39412 5.15678 0
M  V30 21456 H 1966.07 5.641 4.28015 0
M  V30 21457 H 1966.47 3.91228 4.06941 0
M  V30 21458 N 1965.87 -0.668464 1.42721 0
M  V30 21459 C 1967.12 -1.43061 1.43741 0
M  V30 21460 C 1967.45 -1.9412 0.0558656 0
M  V30 21461 O 1966.73 -1.71317 -0.920904 0
M  V30 21462 C 1967.01 -2.62307 2.46712 0
M  V30 21463 C 1966.86 -2.16839 3.94082 0
M  V30 21464 C 1968.18 -3.64525 2.46596 0
M  V30 21465 H 1965.3 -0.518854 0.523412 0
M  V30 21466 H 1967.94 -0.759144 1.74175 0
M  V30 21467 H 1966.09 -3.19593 2.20891 0
M  V30 21468 H 1967.77 -1.64672 4.30907 0
M  V30 21469 H 1966.01 -1.48352 4.07645 0
M  V30 21470 H 1966.68 -3.02521 4.6172 0
M  V30 21471 H 1969.16 -3.16968 2.69574 0
M  V30 21472 H 1968.03 -4.45532 3.20613 0
M  V30 21473 H 1968.29 -4.16084 1.49421 0
M  V30 21474 N 1967.35 -1.28999 -0.905381 0
M  V30 21475 C 1968.28 -1.07966 -2.01044 0
M  V30 21476 C 1969.26 0.00678474 -1.62599 0
M  V30 21477 O 1970.45 -0.142798 -1.87958 0
M  V30 21478 C 1967.57 -0.642417 -3.32552 0
M  V30 21479 C 1966.62 -1.72673 -3.89982 0
M  V30 21480 S 1967.45 -3.32466 -4.19794 0
M  V30 21481 C 1968.61 -2.90596 -5.54351 0
M  V30 21482 H 1968.84 -2.01523 -2.18576 0
M  V30 21483 H 1966.37 -1.13081 -1.05128 0
M  V30 21484 H 1968.33 -0.396855 -4.08577 0
M  V30 21485 H 1966.99 0.273463 -3.12907 0
M  V30 21486 H 1966.19 -1.37261 -4.84949 0
M  V30 21487 H 1965.79 -1.92552 -3.20624 0
M  V30 21488 H 1968.08 -2.37288 -6.34587 0
M  V30 21489 H 1969.02 -3.84392 -5.94683 0
M  V30 21490 H 1969.43 -2.2906 -5.15938 0
M  V30 21491 N 1968.83 1.11497 -1.11383 0
M  V30 21492 C 1970.06 1.87027 -0.884793 0
M  V30 21493 C 1970.47 1.80136 0.565362 0
M  V30 21494 O 1969.83 1.18222 1.39032 0
M  V30 21495 C 1969.88 3.35862 -1.33713 0
M  V30 21496 O 1969.6 3.42606 -2.73043 0
M  V30 21497 C 1971.1 4.283 -1.14342 0
M  V30 21498 H 1968.32 0.591449 -0.316905 0
M  V30 21499 H 1970.87 1.4102 -1.481 0
M  V30 21500 H 1969.02 3.79376 -0.784385 0
M  V30 21501 H 1969.44 4.35278 -2.92632 0
M  V30 21502 H 1970.91 5.30975 -1.50894 0
M  V30 21503 H 1971.39 4.39122 -0.0829321 0
M  V30 21504 H 1971.99 3.90578 -1.68312 0
M  V30 21505 N 1970.31 0.904053 1.29092 0
M  V30 21506 C 1971.22 0.389825 2.31339 0
M  V30 21507 C 1972.23 -0.517628 1.66122 0
M  V30 21508 O 1973.41 -0.406158 1.97262 0
M  V30 21509 C 1970.47 -0.370468 3.44715 0
M  V30 21510 C 1969.54 0.569032 4.25512 0
M  V30 21511 C 1968.77 -0.155071 5.33475 0
M  V30 21512 O 1968.99 -1.37834 5.53496 0
M  V30 21513 O 1967.93 0.504642 5.99781 0
M  V30 21514 H 1971.75 1.2382 2.77313 0
M  V30 21515 H 1969.34 0.668528 1.33608 0
M  V30 21516 H 1971.22 -0.800237 4.13732 0
M  V30 21517 H 1969.89 -1.19484 3.00841 0
M  V30 21518 H 1968.8 1.048 3.59121 0
M  V30 21519 H 1970.13 1.35994 4.7304 0
M  V30 21520 N 1971.79 -1.4279 0.666995 0
M  V30 21521 C 1972.72 -2.335 -0.00234362 0
M  V30 21522 C 1973.7 -1.50244 -0.797537 0
M  V30 21523 O 1974.88 -1.7887 -0.756257 0
M  V30 21524 C 1972.01 -3.33774 -0.959795 0
M  V30 21525 C 1970.97 -4.27124 -0.273749 0
M  V30 21526 C 1970.29 -5.17544 -1.3436 0
M  V30 21527 C 1971.59 -5.15462 0.842411 0
M  V30 21528 H 1973.29 -2.89719 0.755212 0
M  V30 21529 H 1970.83 -1.39307 0.364622 0
M  V30 21530 H 1972.78 -3.96139 -1.43707 0
M  V30 21531 H 1971.51 -2.75842 -1.74868 0
M  V30 21532 H 1970.17 -3.66142 0.18321 0
M  V30 21533 H 1969.82 -4.55943 -2.12427 0
M  V30 21534 H 1969.52 -5.80825 -0.889738 0
M  V30 21535 H 1971.04 -5.82784 -1.82196 0
M  V30 21536 H 1972.45 -5.71557 0.4467 0
M  V30 21537 H 1970.85 -5.87535 1.22158 0
M  V30 21538 H 1971.92 -4.54327 1.69454 0
M  V30 21539 N 1973.26 -0.409806 -1.52179 0
M  V30 21540 C 1974.51 0.167113 -2.01007 0
M  V30 21541 C 1974.83 1.46166 -1.2998 0
M  V30 21542 O 1976.03 2.11988 -1.69628 0
M  V30 21543 C 1974.49 0.348367 -3.5821 0
M  V30 21544 C 1974.1 -0.934131 -4.38153 0
M  V30 21545 C 1975.84 0.880542 -4.15267 0
M  V30 21546 C 1973.75 -0.720028 -5.87 0
M  V30 21547 H 1972.68 0.0662269 -0.751086 0
M  V30 21548 H 1975.33 -0.535355 -1.75517 0
M  V30 21549 H 1973.71 1.11318 -3.80032 0
M  V30 21550 H 1974.88 -1.70515 -4.2809 0
M  V30 21551 H 1973.2 -1.39277 -3.92417 0
M  V30 21552 H 1975.8 1.05677 -5.24153 0
M  V30 21553 H 1976.14 1.85542 -3.72666 0
M  V30 21554 H 1976.67 0.174766 -3.97416 0
M  V30 21555 H 1973.41 -1.66649 -6.33963 0
M  V30 21556 H 1972.93 0.0116803 -5.99799 0
M  V30 21557 H 1974.61 -0.362471 -6.45984 0
M  V30 21558 N 1974.74 1.56975 -0.14025 0
M  V30 21559 C 1975.69 2.17699 0.819153 0
M  V30 21560 C 1976.68 1.13208 1.26017 0
M  V30 21561 O 1977.89 1.31472 1.22944 0
M  V30 21562 H 1974.26 0.696983 0.282345 0
M  V30 21563 H 1976.24 2.97058 0.28273 0
M  V30 21564 C 1974.98 2.80769 2.05096 0
M  V30 21565 H 1974.31 3.60882 1.72058 0
M  V30 21566 H 1975.75 3.26768 2.70183 0
M  V30 21567 C 1974.21 1.7893 2.85457 0
M  V30 21568 O 1974.74 1.25562 3.81572 0
M  V30 21569 N 1972.94 1.48386 2.4986 0
M  V30 21570 H 1972.49 1.91976 1.71765 0
M  V30 21571 H 1972.45 0.804935 3.03921 0
M  V30 21572 N 1976.22 -0.133539 1.57033 0
M  V30 21573 C 1977.47 -0.842192 1.83716 0
M  V30 21574 C 1977.79 -1.81092 0.723225 0
M  V30 21575 O 1977.06 -1.94246 -0.254028 0
M  V30 21576 H 1975.64 -0.314004 0.677798 0
M  V30 21577 H 1978.3 -0.124329 1.94503 0
M  V30 21578 H 1977.4 -1.39628 2.79125 0
M  V30 21579 N 1977.7 -1.52352 -0.403298 0
M  V30 21580 C 1978.95 -1.66368 -1.14744 0
M  V30 21581 C 1979.27 -0.398899 -1.90876 0
M  V30 21582 O 1978.54 0.586372 -1.86918 0
M  V30 21583 H 1977.12 -0.613226 -0.426571 0
M  V30 21584 H 1979.78 -1.89416 -0.459075 0
M  V30 21585 H 1978.87 -2.50748 -1.85828 0
M  V30 21586 N 1979.18 0.660885 -1.43074 0
M  V30 21587 C 1980.09 1.80324 -1.50068 0
M  V30 21588 C 1981.1 1.69611 -0.388331 0
M  V30 21589 O 1982.28 1.90916 -0.641321 0
M  V30 21590 C 1979.34 3.16557 -1.41394 0
M  V30 21591 C 1978.4 3.39124 -2.63236 0
M  V30 21592 C 1977.64 4.68858 -2.54967 0
M  V30 21593 O 1977.86 5.47699 -1.59318 0
M  V30 21594 O 1976.79 4.92975 -3.45339 0
M  V30 21595 H 1980.62 1.77379 -2.46516 0
M  V30 21596 H 1978.2 0.8184 -1.2499 0
M  V30 21597 H 1980.09 3.97825 -1.38971 0
M  V30 21598 H 1978.76 3.2011 -0.480768 0
M  V30 21599 H 1977.67 2.5765 -2.71233 0
M  V30 21600 H 1979 3.40413 -3.555 0
M  V30 21601 N 1980.65 1.29477 0.898527 0
M  V30 21602 C 1981.93 1.08195 1.62952 0
M  V30 21603 C 1982.31 -0.373506 2.07769 0
M  V30 21604 O 1981.66 -1.36252 1.83433 0
M  V30 21605 C 1981.87 2.07056 2.80943 0
M  V30 21606 C 1983.22 2.38038 3.51601 0
M  V30 21607 O 1984.24 2.0526 2.91113 0
M  V30 21608 O 1983.1 2.94048 4.60649 0
M  V30 21609 H 1980.19 0.414597 0.715569 0
M  V30 21610 H 1982.74 1.40853 0.946492 0
M  V30 21611 H 1981.51 3.05083 2.45031 0
M  V30 21612 H 1981.14 1.75134 3.56951 0
M  V30 21613 N 1982.13 -1.10905 1.11972 0
M  V30 21614 C 1983.38 -1.83033 0.873311 0
M  V30 21615 C 1983.71 -1.84716 -0.599472 0
M  V30 21616 O 1982.99 -1.30427 -1.44288 0
M  V30 21617 C 1983.27 -3.29941 1.44261 0
M  V30 21618 C 1983.12 -3.36619 2.98341 0
M  V30 21619 C 1984.44 -4.26179 1.09815 0
M  V30 21620 H 1981.56 -0.664529 0.318701 0
M  V30 21621 H 1984.2 -1.30012 1.38553 0
M  V30 21622 H 1982.35 -3.75223 1.00697 0
M  V30 21623 H 1984.02 -2.99854 3.5055 0
M  V30 21624 H 1982.27 -2.76668 3.34122 0
M  V30 21625 H 1982.94 -4.40043 3.33266 0
M  V30 21626 H 1985.41 -3.89105 1.47433 0
M  V30 21627 H 1984.29 -5.27343 1.52318 0
M  V30 21628 H 1984.55 -4.42099 0.00966838 0
M  V30 21629 N 1983.61 -0.910886 -1.2861 0
M  V30 21630 C 1984.54 -0.413998 -2.29801 0
M  V30 21631 C 1985.52 0.51689 -1.62056 0
M  V30 21632 O 1986.71 0.425236 -1.89487 0
M  V30 21633 C 1983.84 0.349336 -3.45539 0
M  V30 21634 C 1982.79 -0.49215 -4.25161 0
M  V30 21635 C 1982.12 0.399352 -5.33207 0
M  V30 21636 C 1983.42 -1.74792 -4.92184 0
M  V30 21637 H 1985.11 -1.25965 -2.71612 0
M  V30 21638 H 1982.66 -0.607149 -1.30575 0
M  V30 21639 H 1984.61 0.70777 -4.15414 0
M  V30 21640 H 1983.33 1.22887 -3.02599 0
M  V30 21641 H 1981.99 -0.833064 -3.57009 0
M  V30 21642 H 1981.64 1.27734 -4.86511 0
M  V30 21643 H 1981.34 -0.160062 -5.87382 0
M  V30 21644 H 1982.86 0.753731 -6.0593 0
M  V30 21645 H 1984.28 -1.45856 -5.54436 0
M  V30 21646 H 1982.68 -2.24952 -5.56342 0
M  V30 21647 H 1983.75 -2.4774 -4.16837 0
M  V30 21648 N 1985.09 1.42434 -0.674558 0
M  V30 21649 C 1986.34 2.00765 -0.193936 0
M  V30 21650 C 1986.65 1.53957 1.20651 0
M  V30 21651 O 1987.86 2.04705 1.78348 0
M  V30 21652 C 1986.31 3.58682 -0.295862 0
M  V30 21653 C 1985.92 4.14478 -1.70034 0
M  V30 21654 C 1987.66 4.24313 0.12606 0
M  V30 21655 C 1985.57 5.64758 -1.75505 0
M  V30 21656 H 1984.5 0.75086 -0.0687443 0
M  V30 21657 H 1987.15 1.6316 -0.839705 0
M  V30 21658 H 1985.53 3.9379 0.417795 0
M  V30 21659 H 1986.71 3.90831 -2.44106 0
M  V30 21660 H 1985.02 3.61298 -2.07009 0
M  V30 21661 H 1987.62 5.34596 0.105331 0
M  V30 21662 H 1987.96 3.99775 1.16127 0
M  V30 21663 H 1988.5 3.94164 -0.536581 0
M  V30 21664 H 1985.24 5.94094 -2.77007 0
M  V30 21665 H 1984.76 5.90397 -1.05788 0
M  V30 21666 H 1986.43 6.29172 -1.50838 0
M  V30 21667 N 1986.57 0.417871 1.51959 0
M  V30 21668 C 1987.81 -0.155052 2.01906 0
M  V30 21669 C 1988.14 -1.44397 1.30307 0
M  V30 21670 O 1987.4 -1.91556 0.400588 0
M  V30 21671 C 1987.7 -0.440779 3.54672 0
M  V30 21672 C 1987.36 0.759981 4.44449 0
M  V30 21673 C 1986.02 1.08932 4.68708 0
M  V30 21674 C 1988.38 1.56193 4.97246 0
M  V30 21675 C 1985.7 2.22164 5.4301 0
M  V30 21676 C 1988.06 2.68508 5.72788 0
M  V30 21677 C 1986.72 3.01918 5.95316 0
M  V30 21678 H 1985.99 -0.0567377 0.738825 0
M  V30 21679 H 1988.64 0.561082 1.83096 0
M  V30 21680 H 1986.94 -1.23858 3.71707 0
M  V30 21681 H 1988.64 -0.897174 3.90835 0
M  V30 21682 H 1985.23 0.49332 4.25751 0
M  V30 21683 H 1989.41 1.32071 4.78405 0
M  V30 21684 H 1984.67 2.48387 5.58672 0
M  V30 21685 H 1988.84 3.3103 6.12692 0
M  V30 21686 H 1986.47 3.89774 6.52672 0
M  V30 21687 N 1988.04 -1.56898 0.148573 0
M  V30 21688 C 1989.27 -2.00249 -0.508309 0
M  V30 21689 C 1989.68 -1.02768 -1.58857 0
M  V30 21690 O 1989.03 -0.0169159 -1.83692 0
M  V30 21691 C 1989.09 -3.40034 -1.16693 0
M  V30 21692 C 1988.75 -4.56415 -0.231088 0
M  V30 21693 C 1989.75 -5.17069 0.541853 0
M  V30 21694 C 1987.43 -5.02122 -0.133535 0
M  V30 21695 C 1989.43 -6.2184 1.39978 0
M  V30 21696 C 1987.11 -6.06748 0.727995 0
M  V30 21697 C 1988.11 -6.66476 1.49326 0
M  V30 21698 O 1987.8 -7.69077 2.34043 0
M  V30 21699 H 1987.53 -0.662039 -0.136677 0
M  V30 21700 H 1990.09 -2.03986 0.240611 0
M  V30 21701 H 1988.32 -3.3314 -1.96352 0
M  V30 21702 H 1990.01 -3.67482 -1.7237 0
M  V30 21703 H 1990.77 -4.82653 0.476529 0
M  V30 21704 H 1986.65 -4.5536 -0.718923 0
M  V30 21705 H 1990.19 -6.68389 1.99756 0
M  V30 21706 H 1986.09 -6.40591 0.794605 0
M  V30 21707 H 1986.86 -7.86304 2.27308 0
M  V30 21708 N 1989.52 0.125209 -1.57102 0
M  V30 21709 C 1990.47 1.17292 -2.00861 0
M  V30 21710 C 1991.46 1.4323 -0.904511 0
M  V30 21711 O 1992.67 1.43266 -1.08972 0
M  V30 21712 H 1989.05 0.395322 -0.639706 0
M  V30 21713 H 1991.02 0.777307 -2.88098 0
M  V30 21714 C 1989.77 2.49311 -2.42362 0
M  V30 21715 H 1989.09 2.30188 -3.26884 0
M  V30 21716 H 1990.53 3.21196 -2.76784 0
M  V30 21717 C 1988.99 3.1144 -1.2848 0
M  V30 21718 O 1989.52 3.97233 -0.597373 0
M  V30 21719 N 1987.72 2.71221 -1.04344 0
M  V30 21720 H 1987.27 2.0155 -1.60423 0
M  V30 21721 H 1987.23 3.1312 -0.283408 0
M  V30 21722 N 1991 1.52564 0.395213 0
M  V30 21723 C 1992.28 1.5788 1.1547 0
M  V30 21724 C 1992.66 0.36821 2.07864 0
M  V30 21725 O 1992.01 -0.643933 2.19239 0
M  V30 21726 C 1992.22 2.91451 1.91982 0
M  V30 21727 C 1993.56 3.44961 2.47562 0
M  V30 21728 O 1994.59 2.93284 2.02146 0
M  V30 21729 O 1993.45 4.35233 3.30506 0
M  V30 21730 H 1990.54 0.636516 0.527993 0
M  V30 21731 H 1993.09 1.64897 0.400867 0
M  V30 21732 H 1991.86 3.71006 1.2438 0
M  V30 21733 H 1991.48 2.8779 2.7434 0
M  V30 21734 N 1992.48 -0.653289 1.43422 0
M  V30 21735 C 1993.89 -0.968948 1.26821 0
M  V30 21736 C 1994.09 -2.00622 0.187882 0
M  V30 21737 O 1993.15 -2.48747 -0.43371 0
M  V30 21738 C 1994.46 -1.45328 2.63249 0
M  V30 21739 C 1996.01 -1.56993 2.70781 0
M  V30 21740 C 1996.49 -2.08817 4.07627 0
M  V30 21741 N 1997.98 -2.16119 4.09691 0
M  V30 21742 C 1998.71 -2.5734 5.1241 0
M  V30 21743 N 1998.21 -2.97858 6.25502 0
M  V30 21744 N 2000 -2.57279 4.99764 0
M  V30 21745 H 1992.15 0.0330932 2.12374 0
M  V30 21746 H 1994.42 -0.0477768 0.946795 0
M  V30 21747 H 1994.12 -0.765519 3.43268 0
M  V30 21748 H 1994 -2.42831 2.8864 0
M  V30 21749 H 1996.38 -2.24871 1.91095 0
M  V30 21750 H 1996.46 -0.579228 2.49156 0
M  V30 21751 H 1996.11 -1.41541 4.87779 0
M  V30 21752 H 1996.04 -3.08718 4.26616 0
M  V30 21753 H 1998.53 -1.8758 3.28058 0
M  V30 21754 H 1998.84 -3.2806 6.99712 0
M  V30 21755 H 1997.19 -2.95662 6.28974 0
M  V30 21756 H 2000.38 -2.25002 4.10478 0
M  V30 21757 H 2000.55 -2.89082 5.79944 0
M  V30 21758 N 1993.96 -1.29952 -0.891648 0
M  V30 21759 C 1994.92 -1.15756 -1.97821 0
M  V30 21760 C 1995.92 -0.0906975 -1.60544 0
M  V30 21761 O 1997.11 -0.338283 -1.70884 0
M  V30 21762 C 1994.24 -0.771976 -3.32044 0
M  V30 21763 H 1995.43 -2.12281 -2.11842 0
M  V30 21764 H 1992.99 -1.13253 -1.07719 0
M  V30 21765 H 1993.72 0.193059 -3.23725 0
M  V30 21766 H 1993.51 -1.54291 -3.60467 0
M  V30 21767 H 1995 -0.695941 -4.1176 0
M  V30 21768 N 1995.44 1.1031 -1.12559 0
M  V30 21769 C 1996.66 1.86618 -0.9049 0
M  V30 21770 C 1997.09 1.80164 0.540597 0
M  V30 21771 O 1996.44 1.17252 1.38281 0
M  V30 21772 C 1996.49 3.32903 -1.38592 0
M  V30 21773 O 1995.6 4.08508 -0.565225 0
M  V30 21774 H 1994.94 0.579019 -0.325013 0
M  V30 21775 H 1997.47 1.39359 -1.498 0
M  V30 21776 H 1997.48 3.83753 -1.38556 0
M  V30 21777 H 1996.15 3.36917 -2.43844 0
M  V30 21778 H 1994.73 3.67494 -0.632682 0
M  V30 21779 N 1996.91 0.917694 1.28125 0
M  V30 21780 C 1998.16 0.552896 1.94806 0
M  V30 21781 C 1998.49 -0.904113 1.72209 0
M  V30 21782 O 1997.74 -1.65876 1.03844 0
M  V30 21783 C 1998.04 0.813214 3.48025 0
M  V30 21784 C 1997.71 2.25039 3.90728 0
M  V30 21785 C 1996.37 2.64331 4.02098 0
M  V30 21786 C 1998.72 3.18545 4.12527 0
M  V30 21787 C 1996.05 3.96274 4.32647 0
M  V30 21788 C 1998.4 4.50058 4.44557 0
M  V30 21789 C 1997.07 4.89198 4.54138 0
M  V30 21790 H 1996.34 0.202319 0.712845 0
M  V30 21791 H 1998.98 1.15976 1.52387 0
M  V30 21792 H 1997.29 0.123579 3.91605 0
M  V30 21793 H 1998.99 0.510076 3.97743 0
M  V30 21794 H 1995.58 1.93551 3.82408 0
M  V30 21795 H 1999.76 2.89395 4.03192 0
M  V30 21796 H 1995.02 4.26295 4.38272 0
M  V30 21797 H 1999.19 5.22523 4.60372 0
M  V30 21798 H 1996.82 5.91469 4.77565 0
M  V30 21799 N 1998.39 -1.42074 0.682102 0
M  V30 21800 C 1999.8 -1.8453 0.283805 0
M  V30 21801 C 2000.15 -1.5709 -1.17547 0
M  V30 21802 O 1999.28 -1.03444 -1.90075 0
M  V30 21803 C 1999.87 -3.34965 0.508316 0
M  V30 21804 C 1998.43 -3.76042 0.164069 0
M  V30 21805 C 1997.58 -2.65594 0.797204 0
M  V30 21806 H 2000.53 -1.31817 0.88374 0
M  V30 21807 H 2000.55 -3.7976 -0.237267 0
M  V30 21808 H 2000.06 -3.54905 1.57047 0
M  V30 21809 H 1998.16 -3.61707 -0.894353 0
M  V30 21810 H 1998.28 -4.75205 0.609688 0
M  V30 21811 H 1996.64 -2.53678 0.227913 0
M  V30 21812 H 1997.42 -2.88355 1.86296 0
M  V30 21813 N 1999.87 -0.425924 -1.51735 0
M  V30 21814 C 2001.12 0.145784 -2.01172 0
M  V30 21815 C 2001.43 1.4478 -1.31523 0
M  V30 21816 O 2002.64 2.10177 -1.71866 0
M  V30 21817 C 2001.09 0.310355 -3.58559 0
M  V30 21818 C 2000.7 -0.98055 -4.37138 0
M  V30 21819 C 2002.45 0.836447 -4.16178 0
M  V30 21820 C 2000.35 -0.782247 -5.86204 0
M  V30 21821 H 1999.28 0.0582569 -0.751746 0
M  V30 21822 H 2001.93 -0.553941 -1.74939 0
M  V30 21823 H 2000.32 1.07281 -3.81191 0
M  V30 21824 H 2001.49 -1.75046 -4.26258 0
M  V30 21825 H 1999.8 -1.43431 -3.90917 0
M  V30 21826 H 2002.4 1.00112 -5.25244 0
M  V30 21827 H 2002.74 1.81579 -3.74613 0
M  V30 21828 H 2003.28 0.132605 -3.97579 0
M  V30 21829 H 2000.02 -1.73363 -6.32159 0
M  V30 21830 H 1999.54 -0.0519371 -5.99778 0
M  V30 21831 H 2001.22 -0.430966 -6.45563 0
M  V30 21832 N 2001.35 1.56817 -0.156891 0
M  V30 21833 C 2002.28 2.20266 0.774915 0
M  V30 21834 C 2003.26 1.15387 1.24979 0
M  V30 21835 O 2004.44 1.43766 1.30557 0
M  V30 21836 C 2001.57 2.83207 2.01025 0
M  V30 21837 C 2000.53 3.94 1.67177 0
M  V30 21838 C 1999.85 4.43921 2.98057 0
M  V30 21839 C 2001.15 5.14297 0.91083 0
M  V30 21840 H 2002.85 2.98387 0.246082 0
M  V30 21841 H 2000.39 1.43525 0.116921 0
M  V30 21842 H 2002.35 3.26264 2.66701 0
M  V30 21843 H 2001.07 2.02433 2.56298 0
M  V30 21844 H 1999.73 3.51576 1.03876 0
M  V30 21845 H 1999.38 3.59957 3.5134 0
M  V30 21846 H 1999.08 5.18657 2.76169 0
M  V30 21847 H 2000.6 4.89656 3.64787 0
M  V30 21848 H 2002.02 5.54137 1.46988 0
M  V30 21849 H 2000.41 5.94857 0.791526 0
M  V30 21850 H 2001.48 4.84806 -0.0955943 0
M  V30 21851 N 2002.83 -0.116876 1.57166 0
M  V30 21852 C 2003.76 -1.14443 2.03531 0
M  V30 21853 C 2004.74 -1.43063 0.920159 0
M  V30 21854 O 2005.92 -1.53468 1.19001 0
M  V30 21855 C 2003.05 -2.47006 2.44142 0
M  V30 21856 C 2002.01 -2.32843 3.59121 0
M  V30 21857 C 2001.33 -3.70388 3.85639 0
M  V30 21858 C 2002.63 -1.78717 4.90772 0
M  V30 21859 H 2004.33 -0.75878 2.89625 0
M  V30 21860 H 2001.87 -0.363551 1.39335 0
M  V30 21861 H 2003.82 -3.19143 2.75184 0
M  V30 21862 H 2002.55 -2.87465 1.55021 0
M  V30 21863 H 2001.21 -1.63155 3.28293 0
M  V30 21864 H 2000.86 -4.08335 2.9372 0
M  V30 21865 H 2000.56 -3.61764 4.63034 0
M  V30 21866 H 2002.08 -4.44026 4.19134 0
M  V30 21867 H 2003.49 -2.40673 5.20336 0
M  V30 21868 H 2001.89 -1.80909 5.72182 0
M  V30 21869 H 2002.96 -0.744891 4.79144 0
M  V30 21870 N 2004.3 -1.52772 -0.387116 0
M  V30 21871 C 2005.25 -1.74065 -1.4726 0
M  V30 21872 C 2006.24 -0.594755 -1.49504 0
M  V30 21873 O 2007.43 -0.852657 -1.55109 0
M  V30 21874 C 2004.56 -1.91462 -2.84951 0
M  V30 21875 C 2003.64 -3.11989 -2.8727 0
M  V30 21876 N 2004.04 -4.34304 -2.59256 0
M  V30 21877 C 2002.33 -3.12272 -3.18437 0
M  V30 21878 C 2003.03 -5.15919 -2.68706 0
M  V30 21879 N 2002.01 -4.51647 -3.02515 0
M  V30 21880 H 2005.81 -2.66259 -1.24431 0
M  V30 21881 H 2003.33 -1.51104 -0.595086 0
M  V30 21882 H 2005.32 -2.04839 -3.63107 0
M  V30 21883 H 2003.98 -1.00481 -3.08761 0
M  V30 21884 H 2004.99 -4.62405 -2.33243 0
M  V30 21885 H 2001.67 -2.31108 -3.477 0
M  V30 21886 H 2003.06 -6.23427 -2.50576 0
M  V30 21887 N 2005.78 0.645673 -1.43767 0
M  V30 21888 C 2006.71 1.77057 -1.43966 0
M  V30 21889 C 2007.69 1.59805 -0.300185 0
M  V30 21890 O 2008.88 1.81886 -0.494937 0
M  V30 21891 C 2006 3.14453 -1.25845 0
M  V30 21892 C 2005.05 3.50389 -2.43166 0
M  V30 21893 S 2005.88 3.4951 -4.05713 0
M  V30 21894 C 2007.04 4.8955 -3.89989 0
M  V30 21895 H 2007.27 1.76619 -2.39151 0
M  V30 21896 H 2004.8 0.818994 -1.30889 0
M  V30 21897 H 2006.76 3.93747 -1.16077 0
M  V30 21898 H 2005.42 3.12446 -0.321954 0
M  V30 21899 H 2004.62 4.50332 -2.26312 0
M  V30 21900 H 2004.22 2.78525 -2.49599 0
M  V30 21901 H 2006.51 5.78405 -3.5278 0
M  V30 21902 H 2007.45 5.11457 -4.89711 0
M  V30 21903 H 2007.86 4.6344 -3.2231 0
M  V30 21904 N 2007.26 1.30423 0.884744 0
M  V30 21905 C 2008.19 1.1115 1.99301 0
M  V30 21906 C 2009.17 0.0190841 1.62589 0
M  V30 21907 O 2010.35 0.172682 1.87707 0
M  V30 21908 C 2007.48 0.695241 3.31488 0
M  V30 21909 C 2006.53 1.78856 3.87186 0
M  V30 21910 S 2007.36 3.39102 4.14452 0
M  V30 21911 C 2008.52 2.99379 5.49657 0
M  V30 21912 H 2008.75 2.04975 2.15343 0
M  V30 21913 H 2006.28 1.14739 1.03316 0
M  V30 21914 H 2008.24 0.461806 4.07894 0
M  V30 21915 H 2006.9 -0.223647 3.13303 0
M  V30 21916 H 2006.09 1.44959 4.82704 0
M  V30 21917 H 2005.7 1.97629 3.1752 0
M  V30 21918 H 2007.99 2.47353 6.30732 0
M  V30 21919 H 2008.93 3.93805 5.88493 0
M  V30 21920 H 2009.34 2.37239 5.12228 0
M  V30 21921 N 2008.74 -1.09711 1.13142 0
M  V30 21922 C 2009.98 -1.83443 0.901552 0
M  V30 21923 C 2010.34 -1.83582 -0.562273 0
M  V30 21924 O 2011.54 -2.52942 -0.909595 0
M  V30 21925 C 2009.81 -3.25783 1.4697 0
M  V30 21926 S 2011.37 -4.16553 1.37946 0
M  V30 21927 H 2008.19 -0.632354 0.325037 0
M  V30 21928 H 2010.79 -1.31968 1.44238 0
M  V30 21929 H 2009.5 -3.23256 2.52851 0
M  V30 21930 H 2009.03 -3.8233 0.926688 0
M  V30 21931 H 2011.04 -4.94922 0.355933 0
M  V30 21932 N 2010.22 -0.924476 -1.27637 0
M  V30 21933 C 2011.44 -0.57884 -1.99159 0
M  V30 21934 C 2011.87 0.83532 -1.68535 0
M  V30 21935 O 2011.22 1.55999 -0.92379 0
M  V30 21936 C 2011.27 -0.807508 -3.51442 0
M  V30 21937 O 2010.38 0.128443 -4.122 0
M  V30 21938 H 2009.72 -0.223218 -0.625356 0
M  V30 21939 H 2012.25 -1.24285 -1.62525 0
M  V30 21940 H 2012.26 -0.721808 -4.01564 0
M  V30 21941 H 2010.93 -1.83836 -3.73064 0
M  V30 21942 H 2009.51 -0.00689785 -3.72899 0
M  V30 21943 N 2011.69 1.41711 -0.689627 0
M  V30 21944 C 2012.6 2.34591 -0.0208935 0
M  V30 21945 C 2013.62 1.55906 0.772616 0
M  V30 21946 O 2014.8 1.88412 0.711542 0
M  V30 21947 C 2011.86 3.34589 0.908354 0
M  V30 21948 C 2010.92 4.29165 0.107717 0
M  V30 21949 C 2010.16 5.24386 0.992705 0
M  V30 21950 O 2010.38 5.24907 2.23224 0
M  V30 21951 O 2009.31 6.00249 0.445563 0
M  V30 21952 H 2013.14 2.93343 -0.786347 0
M  V30 21953 H 2010.72 1.42464 -0.449929 0
M  V30 21954 H 2012.61 3.95982 1.44138 0
M  V30 21955 H 2011.28 2.78288 1.6534 0
M  V30 21956 H 2010.19 3.71139 -0.469771 0
M  V30 21957 H 2011.52 4.88547 -0.598537 0
M  V30 21958 N 2013.17 0.433965 1.51507 0
M  V30 21959 C 2014.59 0.0860823 1.59368 0
M  V30 21960 C 2014.79 -1.40421 1.44513 0
M  V30 21961 O 2013.84 -2.17377 1.28465 0
M  V30 21962 C 2015.16 0.603181 2.94588 0
M  V30 21963 C 2016.71 0.563326 3.07889 0
M  V30 21964 C 2017.18 1.05734 4.45628 0
M  V30 21965 N 2018.67 1.01519 4.51938 0
M  V30 21966 C 2019.41 1.36835 5.56834 0
M  V30 21967 N 2018.9 1.79419 6.69164 0
M  V30 21968 N 2020.7 1.28673 5.47174 0
M  V30 21969 H 2012.85 1.40366 1.59408 0
M  V30 21970 H 2015.11 0.578206 0.751253 0
M  V30 21971 H 2014.82 1.64576 3.10818 0
M  V30 21972 H 2014.69 0.0262621 3.77191 0
M  V30 21973 H 2017.08 -0.470257 2.91329 0
M  V30 21974 H 2017.16 1.17661 2.27134 0
M  V30 21975 H 2016.8 2.08938 4.62934 0
M  V30 21976 H 2016.73 0.420634 5.24917 0
M  V30 21977 H 2019.22 0.702422 3.71314 0
M  V30 21978 H 2019.54 2.04612 7.45221 0
M  V30 21979 H 2017.88 1.83343 6.70381 0
M  V30 21980 H 2021.07 0.952726 4.58302 0
M  V30 21981 H 2021.24 1.56524 6.28812 0
M  V30 21982 N 2014.65 -1.56732 0.165206 0
M  V30 21983 C 2015.93 -1.88357 -0.527344 0
M  V30 21984 C 2016.31 -1.07412 -1.8173 0
M  V30 21985 O 2015.66 -0.166236 -2.27895 0
M  V30 21986 C 2015.87 -3.40282 -0.775175 0
M  V30 21987 C 2017.21 -4.09891 -1.10789 0
M  V30 21988 O 2018.24 -3.45565 -0.863921 0
M  V30 21989 O 2017.1 -5.23527 -1.56787 0
M  V30 21990 H 2014.19 -0.781304 -0.271096 0
M  V30 21991 H 2016.74 -1.68479 0.203183 0
M  V30 21992 H 2015.51 -3.9106 0.137 0
M  V30 21993 H 2015.13 -3.65751 -1.55924 0
M  V30 21994 N 2016.13 0.10854 -1.57226 0
M  V30 21995 C 2017.54 0.462379 -1.52755 0
M  V30 21996 C 2017.74 1.81276 -0.87985 0
M  V30 21997 O 2016.8 2.48151 -0.466628 0
M  V30 21998 C 2018.11 0.437241 -2.97504 0
M  V30 21999 C 2019.66 0.520052 -3.08649 0
M  V30 22000 C 2020.14 0.525198 -4.54979 0
M  V30 22001 N 2021.63 0.586339 -4.59474 0
M  V30 22002 C 2022.36 0.61194 -5.70125 0
M  V30 22003 N 2021.86 0.594556 -6.90244 0
M  V30 22004 N 2023.65 0.655738 -5.58262 0
M  V30 22005 H 2015.8 -0.776135 -1.97712 0
M  V30 22006 H 2018.07 -0.287457 -0.903367 0
M  V30 22007 H 2017.77 -0.487552 -3.48304 0
M  V30 22008 H 2017.65 1.2612 -3.55491 0
M  V30 22009 H 2020.03 1.43526 -2.57845 0
M  V30 22010 H 2020.11 -0.331795 -2.53639 0
M  V30 22011 H 2019.76 -0.386013 -5.06431 0
M  V30 22012 H 2019.69 1.39407 -5.07812 0
M  V30 22013 H 2022.18 0.605514 -3.73017 0
M  V30 22014 H 2022.49 0.617002 -7.70333 0
M  V30 22015 H 2020.84 0.561814 -6.92726 0
M  V30 22016 H 2024.03 0.666756 -4.63327 0
M  V30 22017 H 2024.2 0.672222 -6.44504 0
M  V30 22018 N 2017.61 1.52975 0.379009 0
M  V30 22019 C 2018.85 1.68172 1.12082 0
M  V30 22020 C 2019.18 0.429215 1.90218 0
M  V30 22021 O 2018.45 -0.556561 1.87828 0
M  V30 22022 H 2017.03 0.619935 0.416761 0
M  V30 22023 H 2019.69 1.90123 0.428883 0
M  V30 22024 H 2018.78 2.53672 1.81815 0
M  V30 22025 N 2019.08 -0.63804 1.44107 0
M  V30 22026 C 2020.36 -1.39606 1.37002 0
M  V30 22027 C 2020.74 -2.11085 0.0252978 0
M  V30 22028 O 2020.09 -2.0585 -0.991871 0
M  V30 22029 C 2020.3 -2.3682 2.56353 0
M  V30 22030 C 2021.65 -3.00362 3.00113 0
M  V30 22031 O 2022.67 -2.47147 2.56509 0
M  V30 22032 O 2021.53 -3.96881 3.75696 0
M  V30 22033 H 2018.62 -0.624471 0.542186 0
M  V30 22034 H 2021.17 -0.663674 1.56184 0
M  V30 22035 H 2019.94 -1.83054 3.45842 0
M  V30 22036 H 2019.57 -3.17487 2.39349 0
M  V30 22037 N 2020.56 -1.3089 -0.877815 0
M  V30 22038 C 2021.47 -1.19819 -2.01694 0
M  V30 22039 C 2022.49 -0.116563 -1.73609 0
M  V30 22040 O 2023.66 -0.332871 -1.9863 0
M  V30 22041 C 2020.73 -0.898133 -3.34865 0
M  V30 22042 C 2019.79 -2.06586 -3.76325 0
M  V30 22043 C 2019.02 -1.78002 -5.03141 0
M  V30 22044 O 2019.25 -0.711373 -5.65947 0
M  V30 22045 O 2018.18 -2.63452 -5.41181 0
M  V30 22046 H 2022.01 -2.15529 -2.13965 0
M  V30 22047 H 2019.59 -1.10553 -1.00491 0
M  V30 22048 H 2021.47 -0.746305 -4.14739 0
M  V30 22049 H 2020.15 0.0290018 -3.23687 0
M  V30 22050 H 2019.06 -2.27305 -2.97125 0
M  V30 22051 H 2020.39 -2.97497 -3.92118 0
M  V30 22052 N 2022.04 1.0911 -1.13723 0
M  V30 22053 C 2023.27 1.85648 -0.924643 0
M  V30 22054 C 2023.69 1.80727 0.521458 0
M  V30 22055 O 2023.05 1.18712 1.3703 0
M  V30 22056 C 2023.1 3.31415 -1.42115 0
M  V30 22057 O 2022.2 4.07886 -0.608521 0
M  V30 22058 H 2021.54 0.575539 -0.331136 0
M  V30 22059 H 2024.07 1.37763 -1.5127 0
M  V30 22060 H 2024.08 3.82262 -1.42619 0
M  V30 22061 H 2022.76 3.34311 -2.47404 0
M  V30 22062 H 2021.33 3.66802 -0.671625 0
M  V30 22063 N 2023.52 0.931232 1.27145 0
M  V30 22064 C 2024.77 0.572394 1.93825 0
M  V30 22065 C 2025.09 -0.88981 1.73515 0
M  V30 22066 O 2024.36 -1.63113 1.08494 0
M  V30 22067 H 2022.94 0.2087 0.717254 0
M  V30 22068 H 2025.6 1.18439 1.54784 0
M  V30 22069 H 2024.7 0.781679 3.02153 0
M  V30 22070 N 2025 -1.41343 0.697132 0
M  V30 22071 C 2026.41 -1.84219 0.303361 0
M  V30 22072 C 2026.76 -1.58328 -1.15874 0
M  V30 22073 O 2025.88 -1.05454 -1.88967 0
M  V30 22074 C 2026.48 -3.34407 0.543815 0
M  V30 22075 C 2025.04 -3.75847 0.203944 0
M  V30 22076 C 2024.19 -2.64733 0.825329 0
M  V30 22077 H 2027.14 -1.30872 0.897671 0
M  V30 22078 H 2027.16 -3.7999 -0.196975 0
M  V30 22079 H 2026.67 -3.5322 1.60802 0
M  V30 22080 H 2024.77 -3.62635 -0.855939 0
M  V30 22081 H 2024.88 -4.74531 0.660055 0
M  V30 22082 H 2023.25 -2.53422 0.254806 0
M  V30 22083 H 2024.03 -2.86363 1.89344 0
M  V30 22084 N 2026.48 -0.441993 -1.51275 0
M  V30 22085 C 2027.41 0.357557 -2.30746 0
M  V30 22086 C 2028.39 1.01683 -1.36362 0
M  V30 22087 O 2029.57 1.01958 -1.65282 0
M  V30 22088 C 2026.7 1.45642 -3.15287 0
M  V30 22089 C 2025.66 0.920377 -4.17987 0
M  V30 22090 C 2024.98 2.11534 -4.91078 0
M  V30 22091 C 2026.28 -0.0483941 -5.22278 0
M  V30 22092 H 2027.98 -0.30565 -2.97836 0
M  V30 22093 H 2025.52 -0.148438 -1.43233 0
M  V30 22094 H 2027.47 2.02301 -3.69665 0
M  V30 22095 H 2026.2 2.14798 -2.46027 0
M  V30 22096 H 2024.86 0.375962 -3.64667 0
M  V30 22097 H 2024.51 2.7932 -4.18317 0
M  V30 22098 H 2024.21 1.76303 -5.60527 0
M  V30 22099 H 2025.73 2.68738 -5.48281 0
M  V30 22100 H 2027.14 0.428053 -5.717 0
M  V30 22101 H 2025.54 -0.313504 -5.99281 0
M  V30 22102 H 2026.61 -0.983611 -4.74819 0
M  V30 22103 N 2027.95 1.56642 -0.173515 0
M  V30 22104 C 2028.92 2.16857 0.742008 0
M  V30 22105 C 2029.92 1.11721 1.1565 0
M  V30 22106 O 2031.11 1.37223 1.0731 0
M  V30 22107 C 2028.24 2.7532 2.01026 0
M  V30 22108 H 2029.43 2.99108 0.217769 0
M  V30 22109 H 2026.98 1.56115 0.0760536 0
M  V30 22110 H 2027.72 1.96808 2.57754 0
M  V30 22111 H 2027.5 3.52264 1.722 0
M  V30 22112 H 2028.99 3.21626 2.66358 0
M  V30 22113 N 2029.43 -0.1002 1.57281 0
M  V30 22114 C 2030.66 -0.817121 1.89754 0
M  V30 22115 C 2031.07 -1.7305 0.764869 0
M  V30 22116 O 2030.41 -1.81669 -0.272384 0
M  V30 22117 C 2030.47 -1.68753 3.17432 0
M  V30 22118 C 2030.14 -0.9465 4.47091 0
M  V30 22119 C 2031.14 -0.278645 5.19153 0
M  V30 22120 C 2028.82 -0.922095 4.93764 0
M  V30 22121 C 2030.81 0.403703 6.3612 0
M  V30 22122 C 2028.5 -0.235958 6.10644 0
M  V30 22123 C 2029.5 0.425768 6.81672 0
M  V30 22124 O 2029.19 1.10091 7.96326 0
M  V30 22125 H 2028.92 -0.239163 0.632279 0
M  V30 22126 H 2031.47 -0.0834139 2.05231 0
M  V30 22127 H 2029.7 -2.46334 2.98088 0
M  V30 22128 H 2031.39 -2.28055 3.35776 0
M  V30 22129 H 2032.16 -0.288994 4.84138 0
M  V30 22130 H 2028.04 -1.4266 4.38371 0
M  V30 22131 H 2031.58 0.920777 6.91497 0
M  V30 22132 H 2027.48 -0.223438 6.45113 0
M  V30 22133 H 2028.25 1.00729 8.12278 0
M  V30 22134 N 2030.91 -1.53174 -0.370891 0
M  V30 22135 C 2031.86 -1.75617 -1.45406 0
M  V30 22136 C 2032.84 -0.610579 -1.48865 0
M  V30 22137 O 2034.04 -0.86906 -1.54196 0
M  V30 22138 C 2031.16 -1.94473 -2.82905 0
M  V30 22139 C 2030.25 -3.15018 -2.83944 0
M  V30 22140 N 2030.64 -4.37029 -2.54635 0
M  V30 22141 C 2028.94 -3.15632 -3.15107 0
M  V30 22142 C 2029.64 -5.1874 -2.63218 0
M  V30 22143 N 2028.62 -4.54831 -2.97708 0
M  V30 22144 H 2032.42 -2.67564 -1.216 0
M  V30 22145 H 2029.93 -1.51727 -0.579026 0
M  V30 22146 H 2031.93 -2.08678 -3.60914 0
M  V30 22147 H 2030.59 -1.03751 -3.07678 0
M  V30 22148 H 2031.6 -4.64853 -2.28325 0
M  V30 22149 H 2028.28 -2.34783 -3.45229 0
M  V30 22150 H 2029.67 -6.2605 -2.4395 0
M  V30 22151 N 2032.39 0.630389 -1.44443 0
M  V30 22152 C 2033.64 1.38591 -1.46545 0
M  V30 22153 C 2033.95 1.95333 -0.102227 0
M  V30 22154 O 2035.16 2.715 -0.000780135 0
M  V30 22155 C 2033.61 2.50929 -2.57998 0
M  V30 22156 C 2033.22 2.00697 -4.00531 0
M  V30 22157 C 2034.96 3.28126 -2.69321 0
M  V30 22158 C 2032.87 3.10381 -5.03406 0
M  V30 22159 H 2031.8 0.520816 -0.545221 0
M  V30 22160 H 2034.45 0.678097 -1.70511 0
M  V30 22161 H 2032.83 3.24288 -2.27273 0
M  V30 22162 H 2034.01 1.34197 -4.40826 0
M  V30 22163 H 2032.32 1.36313 -3.93456 0
M  V30 22164 H 2034.92 4.09894 -3.43353 0
M  V30 22165 H 2035.26 3.77655 -1.75164 0
M  V30 22166 H 2035.8 2.61857 -2.99459 0
M  V30 22167 H 2032.53 2.65795 -5.99194 0
M  V30 22168 H 2032.05 3.7552 -4.67702 0
M  V30 22169 H 2033.73 3.75144 -5.27139 0
M  V30 22170 N 2033.87 1.31354 0.870861 0
M  V30 22171 C 2035.09 1.23948 1.65664 0
M  V30 22172 C 2035.51 -0.195353 1.87787 0
M  V30 22173 O 2034.87 -1.12708 1.43538 0
M  V30 22174 C 2034.92 1.97912 3.02511 0
M  V30 22175 O 2034.64 3.35795 2.81377 0
M  V30 22176 C 2036.14 1.97336 3.96955 0
M  V30 22177 H 2033.36 0.428328 0.516504 0
M  V30 22178 H 2035.9 1.73214 1.08706 0
M  V30 22179 H 2034.06 1.52409 3.5616 0
M  V30 22180 H 2034.47 3.73444 3.68293 0
M  V30 22181 H 2035.95 2.53601 4.90297 0
M  V30 22182 H 2036.42 0.955651 4.28677 0
M  V30 22183 H 2037.03 2.42714 3.49242 0
M  V30 22184 N 2035.34 -1.08505 1.143 0
M  V30 22185 C 2036.27 -2.1741 0.851769 0
M  V30 22186 C 2037.25 -1.69004 -0.192818 0
M  V30 22187 O 2038.44 -1.94136 -0.0497098 0
M  V30 22188 C 2035.57 -3.45754 0.327364 0
M  V30 22189 C 2034.52 -4.07547 1.30728 0
M  V30 22190 C 2033.85 -5.30829 0.642225 0
M  V30 22191 C 2035.15 -4.48945 2.66919 0
M  V30 22192 H 2036.84 -2.42029 1.76245 0
M  V30 22193 H 2034.39 -1.16322 0.848834 0
M  V30 22194 H 2036.34 -4.21253 0.111237 0
M  V30 22195 H 2035.07 -3.20686 -0.618737 0
M  V30 22196 H 2033.73 -3.34077 1.50956 0
M  V30 22197 H 2033.37 -5.02046 -0.309652 0
M  V30 22198 H 2033.07 -5.73128 1.29608 0
M  V30 22199 H 2034.6 -6.09044 0.435598 0
M  V30 22200 H 2036.01 -5.15626 2.50604 0
M  V30 22201 H 2034.41 -5.02158 3.28568 0
M  V30 22202 H 2035.48 -3.60882 3.23871 0
M  V30 22203 N 2036.82 -0.937962 -1.26649 0
M  V30 22204 C 2038.07 -0.584683 -1.94189 0
M  V30 22205 C 2038.4 0.873516 -1.73446 0
M  V30 22206 O 2037.68 1.62451 -1.06957 0
M  V30 22207 C 2037.96 -0.923855 -3.48047 0
M  V30 22208 C 2037.81 -2.43656 -3.7809 0
M  V30 22209 C 2039.13 -0.436986 -4.37925 0
M  V30 22210 H 2036.25 -0.213892 -0.70528 0
M  V30 22211 H 2038.89 -1.1716 -1.49578 0
M  V30 22212 H 2037.04 -0.424389 -3.86175 0
M  V30 22213 H 2038.71 -3.00851 -3.49695 0
M  V30 22214 H 2036.96 -2.88141 -3.2428 0
M  V30 22215 H 2037.63 -2.62439 -4.85623 0
M  V30 22216 H 2040.1 -0.865189 -4.07006 0
M  V30 22217 H 2038.98 -0.703159 -5.44378 0
M  V30 22218 H 2039.24 0.663042 -4.371 0
M  V30 22219 N 2038.3 1.40971 -0.704618 0
M  V30 22220 C 2039.21 2.34555 -0.0457738 0
M  V30 22221 C 2040.23 1.56717 0.756037 0
M  V30 22222 O 2041.4 1.89156 0.691518 0
M  V30 22223 C 2038.47 3.35534 0.872815 0
M  V30 22224 C 2037.53 4.29255 0.062192 0
M  V30 22225 C 2036.76 5.2541 0.937031 0
M  V30 22226 O 2036.98 5.27245 2.17644 0
M  V30 22227 O 2035.92 6.00687 0.381874 0
M  V30 22228 H 2039.74 2.92493 -0.817415 0
M  V30 22229 H 2037.33 1.41979 -0.465014 0
M  V30 22230 H 2039.21 3.97489 1.3993 0
M  V30 22231 H 2037.89 2.80026 1.62379 0
M  V30 22232 H 2036.79 3.7062 -0.509109 0
M  V30 22233 H 2038.13 4.87885 -0.65032 0
M  V30 22234 N 2039.78 0.45001 1.51039 0
M  V30 22235 C 2040.71 -0.345315 2.30933 0
M  V30 22236 C 2041.69 -1.00959 1.36899 0
M  V30 22237 O 2042.87 -1.0108 1.6582 0
M  V30 22238 C 2040 -1.43968 3.16055 0
M  V30 22239 C 2038.96 -0.898198 4.18469 0
M  V30 22240 C 2038.28 -2.08927 4.92193 0
M  V30 22241 C 2039.58 0.0760911 5.22245 0
M  V30 22242 H 2041.28 0.321441 2.97669 0
M  V30 22243 H 2038.82 0.156032 1.43152 0
M  V30 22244 H 2040.78 -2.00338 3.70732 0
M  V30 22245 H 2039.5 -2.1349 2.47163 0
M  V30 22246 H 2038.16 -0.356617 3.64861 0
M  V30 22247 H 2037.81 -2.77098 4.19792 0
M  V30 22248 H 2037.51 -1.73328 5.61454 0
M  V30 22249 H 2039.03 -2.65827 5.49698 0
M  V30 22250 H 2040.45 -0.397728 5.71919 0
M  V30 22251 H 2038.84 0.345281 5.99106 0
M  V30 22252 H 2039.91 1.00878 4.74291 0
M  V30 22253 N 2041.26 -1.56548 0.18182 0
M  V30 22254 C 2042.19 -2.21471 -0.739774 0
M  V30 22255 C 2043.17 -1.17361 -1.23128 0
M  V30 22256 O 2044.35 -1.45825 -1.28253 0
M  V30 22257 C 2041.48 -2.86369 -1.96494 0
M  V30 22258 C 2040.44 -3.96609 -1.60888 0
M  V30 22259 C 2039.76 -4.48607 -2.90957 0
M  V30 22260 C 2041.06 -5.15681 -0.828895 0
M  V30 22261 H 2042.76 -2.98741 -0.19858 0
M  V30 22262 H 2040.3 -1.43692 -0.0940725 0
M  V30 22263 H 2042.26 -3.30466 -2.61477 0
M  V30 22264 H 2040.98 -2.06485 -2.53045 0
M  V30 22265 H 2039.64 -3.53184 -0.982694 0
M  V30 22266 H 2039.29 -3.65501 -3.45569 0
M  V30 22267 H 2038.99 -5.22984 -2.67882 0
M  V30 22268 H 2040.51 -4.95397 -3.56951 0
M  V30 22269 H 2041.92 -5.56405 -1.38153 0
M  V30 22270 H 2040.32 -5.96041 -0.696789 0
M  V30 22271 H 2041.39 -4.84592 0.172711 0
M  V30 22272 N 2042.73 0.0918577 -1.57332 0
M  V30 22273 C 2043.7 1.09546 -2.01326 0
M  V30 22274 C 2044.7 1.32761 -0.907252 0
M  V30 22275 O 2045.89 1.2882 -1.17265 0
M  V30 22276 C 2043.02 2.44385 -2.37674 0
M  V30 22277 H 2044.21 0.71671 -2.9121 0
M  V30 22278 H 2041.77 0.337001 -1.52624 0
M  V30 22279 H 2042.5 2.8713 -1.50755 0
M  V30 22280 H 2042.29 2.28882 -3.18364 0
M  V30 22281 H 2043.78 3.16562 -2.72357 0
M  V30 22282 N 2044.21 1.53368 0.362763 0
M  V30 22283 C 2045.18 1.7933 1.42736 0
M  V30 22284 C 2046.18 0.663794 1.4646 0
M  V30 22285 O 2047.37 0.932009 1.47171 0
M  V30 22286 C 2044.5 1.91792 2.81831 0
M  V30 22287 H 2045.69 2.74412 1.20989 0
M  V30 22288 H 2043.24 1.44488 0.596058 0
M  V30 22289 H 2043.98 0.987867 3.08888 0
M  V30 22290 H 2043.76 2.73948 2.80526 0
M  V30 22291 H 2045.25 2.13461 3.58921 0
M  V30 22292 N 2045.69 -0.62272 1.44776 0
M  V30 22293 C 2046.93 -1.39358 1.49529 0
M  V30 22294 C 2047.29 -1.91574 0.12776 0
M  V30 22295 O 2048.5 -2.68754 0.0499687 0
M  V30 22296 C 2046.77 -2.52165 2.53273 0
M  V30 22297 S 2048.33 -3.40206 2.77138 0
M  V30 22298 H 2045.14 -0.475312 0.528772 0
M  V30 22299 H 2047.75 -0.720074 1.81756 0
M  V30 22300 H 2046.45 -2.12129 3.51325 0
M  V30 22301 H 2045.98 -3.24333 2.22647 0
M  V30 22302 H 2048 -4.49865 2.0937 0
M  V30 22303 N 2047.17 -1.31814 -0.863883 0
M  V30 22304 C 2048.4 -1.24825 -1.65004 0
M  V30 22305 C 2048.81 0.185391 -1.87888 0
M  V30 22306 O 2048.17 1.11945 -1.44134 0
M  V30 22307 C 2048.22 -1.99514 -3.01457 0
M  V30 22308 O 2047.94 -3.37283 -2.79593 0
M  V30 22309 C 2049.44 -1.99438 -3.95903 0
M  V30 22310 H 2046.66 -0.431061 -0.514225 0
M  V30 22311 H 2049.21 -1.73789 -1.07786 0
M  V30 22312 H 2047.36 -1.54296 -3.55347 0
M  V30 22313 H 2047.77 -3.75392 -3.66307 0
M  V30 22314 H 2049.25 -2.56197 -4.88945 0
M  V30 22315 H 2049.73 -0.978372 -4.28164 0
M  V30 22316 H 2050.33 -2.44562 -3.4795 0
M  V30 22317 N 2048.65 1.07897 -1.14873 0
M  V30 22318 C 2049.56 2.18494 -0.854259 0
M  V30 22319 C 2050.57 1.73194 0.167297 0
M  V30 22320 O 2051.75 2.01399 -0.00544437 0
M  V30 22321 C 2048.81 3.45013 -0.341649 0
M  V30 22322 C 2047.87 4.0491 -1.42641 0
M  V30 22323 C 2047.11 5.2539 -0.938165 0
M  V30 22324 O 2047.33 5.69982 0.218391 0
M  V30 22325 O 2046.26 5.76818 -1.71943 0
M  V30 22326 H 2050.09 2.46164 -1.77867 0
M  V30 22327 H 2047.68 1.1713 -0.927406 0
M  V30 22328 H 2049.56 4.21354 -0.0619573 0
M  V30 22329 H 2048.23 3.18907 0.554969 0
M  V30 22330 H 2047.14 3.30133 -1.75963 0
M  V30 22331 H 2048.47 4.35276 -2.29774 0
M  V30 22332 N 2050.12 0.944665 1.2615 0
M  V30 22333 C 2051.37 0.592919 1.93207 0
M  V30 22334 C 2051.69 -0.871356 1.74449 0
M  V30 22335 O 2050.96 -1.61953 1.10218 0
M  V30 22336 H 2049.54 0.216296 0.715 0
M  V30 22337 H 2052.21 1.20074 1.53519 0
M  V30 22338 H 2051.3 0.813682 3.01307 0
M  V30 22339 N 2051.6 -1.40596 0.712085 0
M  V30 22340 C 2052.55 -2.30729 0.0572693 0
M  V30 22341 C 2053.52 -1.48 -0.753997 0
M  V30 22342 O 2054.7 -1.76748 -0.71866 0
M  V30 22343 C 2051.84 -3.34184 -0.861092 0
M  V30 22344 C 2050.96 -4.31982 -0.0396747 0
M  V30 22345 C 2050.09 -5.22505 -0.957193 0
M  V30 22346 C 2049.13 -6.11963 -0.129658 0
M  V30 22347 N 2048.27 -6.94915 -1.00186 0
M  V30 22348 H 2053.11 -2.86161 0.831601 0
M  V30 22349 H 2050.65 -1.40923 0.421786 0
M  V30 22350 H 2052.6 -3.92732 -1.40775 0
M  V30 22351 H 2051.23 -2.80263 -1.60164 0
M  V30 22352 H 2050.29 -3.75245 0.624125 0
M  V30 22353 H 2051.6 -4.95164 0.601165 0
M  V30 22354 H 2050.75 -5.85967 -1.57251 0
M  V30 22355 H 2049.49 -4.59589 -1.63186 0
M  V30 22356 H 2048.5 -5.47534 0.49862 0
M  V30 22357 H 2049.72 -6.76938 0.541455 0
M  V30 22358 H 2047.67 -6.34591 -1.66225 0
M  V30 22359 H 2047.58 -7.54849 -0.41698 0
M  V30 22360 H 2048.85 -7.6283 -1.60347 0
M  V30 22361 N 2053.08 -0.458013 -1.50798 0
M  V30 22362 C 2054.03 0.357083 -2.29843 0
M  V30 22363 C 2055.02 1.00229 -1.36567 0
M  V30 22364 O 2056.23 0.934888 -1.53818 0
M  V30 22365 H 2052.6 0.133985 -0.739968 0
M  V30 22366 H 2054.57 -0.330165 -2.96568 0
M  V30 22367 C 2053.32 1.43404 -3.1675 0
M  V30 22368 H 2052.65 0.946947 -3.88424 0
M  V30 22369 H 2054.09 1.9772 -3.75077 0
M  V30 22370 C 2052.55 2.42878 -2.33478 0
M  V30 22371 O 2053.08 3.47868 -2.00874 0
M  V30 22372 N 2051.28 2.14272 -1.96306 0
M  V30 22373 H 2050.83 1.28918 -2.2302 0
M  V30 22374 H 2050.79 2.81064 -1.40891 0
M  V30 22375 N 2054.56 1.56449 -0.190119 0
M  V30 22376 C 2055.81 1.9773 0.450624 0
M  V30 22377 C 2056.14 1.07678 1.61614 0
M  V30 22378 O 2055.41 0.127743 1.9408 0
M  V30 22379 C 2055.7 3.48267 0.915552 0
M  V30 22380 C 2055.55 4.49097 -0.251436 0
M  V30 22381 C 2056.87 4.02374 1.78278 0
M  V30 22382 H 2053.99 0.718902 0.162325 0
M  V30 22383 H 2056.63 1.87925 -0.28004 0
M  V30 22384 H 2054.78 3.56753 1.53816 0
M  V30 22385 H 2056.45 4.52653 -0.888996 0
M  V30 22386 H 2054.69 4.24276 -0.903996 0
M  V30 22387 H 2055.37 5.51877 0.116306 0
M  V30 22388 H 2057.84 3.96636 1.25774 0
M  V30 22389 H 2056.72 5.08084 2.07706 0
M  V30 22390 H 2056.98 3.4733 2.73522 0
M  V30 22391 N 2056.04 -0.0835127 1.57379 0
M  V30 22392 C 2057.27 -0.796949 1.9061 0
M  V30 22393 C 2057.68 -1.72229 0.78318 0
M  V30 22394 O 2057.02 -1.81948 -0.2531 0
M  V30 22395 C 2057.08 -1.65376 3.19204 0
M  V30 22396 C 2056.74 -0.899027 4.4807 0
M  V30 22397 C 2057.74 -0.223567 5.19419 0
M  V30 22398 C 2055.43 -0.869673 4.94714 0
M  V30 22399 C 2057.42 0.47115 6.35656 0
M  V30 22400 C 2055.11 -0.171178 6.1086 0
M  V30 22401 C 2056.11 0.498044 6.81182 0
M  V30 22402 O 2055.79 1.18531 7.95114 0
M  V30 22403 H 2055.53 -0.232443 0.63478 0
M  V30 22404 H 2058.08 -0.0616418 2.05307 0
M  V30 22405 H 2056.31 -2.43159 3.00684 0
M  V30 22406 H 2058 -2.24481 3.38176 0
M  V30 22407 H 2058.76 -0.237628 4.84418 0
M  V30 22408 H 2054.64 -1.38002 4.3986 0
M  V30 22409 H 2058.19 0.994067 6.90481 0
M  V30 22410 H 2054.08 -0.155003 6.45314 0
M  V30 22411 H 2054.85 1.09339 8.11164 0
M  V30 22412 N 2057.52 -1.53558 -0.354624 0
M  V30 22413 C 2058.74 -1.74194 -1.11643 0
M  V30 22414 C 2059.16 -0.475943 -1.82703 0
M  V30 22415 O 2058.52 0.551798 -1.73958 0
M  V30 22416 C 2058.57 -2.91471 -2.13839 0
M  V30 22417 O 2058.29 -4.13173 -1.45671 0
M  V30 22418 C 2059.79 -3.24068 -3.02481 0
M  V30 22419 H 2057.01 -0.58232 -0.333383 0
M  V30 22420 H 2059.55 -2.00344 -0.410204 0
M  V30 22421 H 2057.71 -2.67684 -2.80043 0
M  V30 22422 H 2058.12 -4.78924 -2.13851 0
M  V30 22423 H 2059.6 -4.09506 -3.70147 0
M  V30 22424 H 2060.07 -2.39897 -3.67894 0
M  V30 22425 H 2060.68 -3.4982 -2.4188 0
M  V30 22426 N 2058.99 0.615033 -1.45104 0
M  V30 22427 C 2059.9 1.75459 -1.55728 0
M  V30 22428 C 2060.92 1.6829 -0.442095 0
M  V30 22429 O 2062.1 1.88779 -0.701735 0
M  V30 22430 C 2059.16 3.11899 -1.51394 0
M  V30 22431 C 2058.22 3.30578 -2.73892 0
M  V30 22432 C 2057.45 4.60509 -2.69754 0
M  V30 22433 O 2057.68 5.42353 -1.76662 0
M  V30 22434 O 2056.61 4.81739 -3.60848 0
M  V30 22435 H 2060.44 1.69447 -2.52035 0
M  V30 22436 H 2058.02 0.778221 -1.27531 0
M  V30 22437 H 2059.9 3.93203 -1.51557 0
M  V30 22438 H 2058.58 3.18418 -0.582365 0
M  V30 22439 H 2057.49 2.48891 -2.79292 0
M  V30 22440 H 2058.82 3.2893 -3.6615 0
M  V30 22441 N 2060.47 1.3227 0.85688 0
M  V30 22442 C 2061.72 1.22058 1.60576 0
M  V30 22443 C 2062.03 -0.216767 1.94395 0
M  V30 22444 O 2063.24 -0.440721 2.67899 0
M  V30 22445 C 2061.7 2.1376 2.89542 0
M  V30 22446 C 2061.3 3.62564 2.63157 0
M  V30 22447 C 2063.05 2.12379 3.67553 0
M  V30 22448 C 2060.95 4.46234 3.8811 0
M  V30 22449 H 2059.88 0.453274 0.602544 0
M  V30 22450 H 2062.54 1.57215 0.946344 0
M  V30 22451 H 2060.92 1.71515 3.56929 0
M  V30 22452 H 2062.09 4.13137 2.04095 0
M  V30 22453 H 2060.41 3.66053 1.98479 0
M  V30 22454 H 2063 2.72129 4.60272 0
M  V30 22455 H 2063.35 1.11421 4.01112 0
M  V30 22456 H 2063.88 2.52892 3.07067 0
M  V30 22457 H 2060.62 5.47997 3.59693 0
M  V30 22458 H 2060.14 4.00413 4.46575 0
M  V30 22459 H 2061.82 4.5912 4.5587 0
M  V30 22460 N 2061.95 -1.07287 1.15444 0
M  V30 22461 C 2062.9 -2.14506 0.85181 0
M  V30 22462 C 2063.87 -1.64945 -0.195533 0
M  V30 22463 O 2065.05 -1.90696 -0.0629401 0
M  V30 22464 C 2062.19 -3.43341 0.347981 0
M  V30 22465 C 2061.3 -4.0669 1.45697 0
M  V30 22466 C 2060.44 -5.23361 0.9092 0
M  V30 22467 C 2059.48 -5.78673 1.99508 0
M  V30 22468 N 2058.62 -6.86675 1.46364 0
M  V30 22469 H 2063.46 -2.39733 1.77008 0
M  V30 22470 H 2060.99 -1.17635 0.883195 0
M  V30 22471 H 2062.95 -4.17183 0.0375747 0
M  V30 22472 H 2061.58 -3.18363 -0.53337 0
M  V30 22473 H 2060.63 -3.30495 1.88355 0
M  V30 22474 H 2061.94 -4.43806 2.2768 0
M  V30 22475 H 2061.1 -6.04189 0.551375 0
M  V30 22476 H 2059.84 -4.87665 0.0585544 0
M  V30 22477 H 2058.84 -4.9649 2.36173 0
M  V30 22478 H 2060.07 -6.16425 2.84952 0
M  V30 22479 H 2058.01 -6.52916 0.635365 0
M  V30 22480 H 2057.93 -7.22678 2.21973 0
M  V30 22481 H 2059.2 -7.71206 1.13408 0
M  V30 22482 N 2063.43 -0.951342 -1.25647 0
M  V30 22483 C 2064.67 -0.611972 -1.95024 0
M  V30 22484 C 2065.03 0.835025 -1.72891 0
M  V30 22485 O 2066.23 1.28383 -2.3616 0
M  V30 22486 C 2064.5 -0.956959 -3.4435 0
M  V30 22487 S 2066.06 -0.729667 -4.32691 0
M  V30 22488 H 2062.88 -0.225049 -0.674444 0
M  V30 22489 H 2065.48 -1.22482 -1.52376 0
M  V30 22490 H 2064.19 -2.00729 -3.57961 0
M  V30 22491 H 2063.72 -0.334234 -3.91978 0
M  V30 22492 H 2065.73 0.401172 -4.94576 0
M  V30 22493 N 2064.91 1.40216 -0.719531 0
M  V30 22494 C 2065.85 2.32527 -0.0584211 0
M  V30 22495 C 2066.85 1.52249 0.742746 0
M  V30 22496 O 2068.05 1.68021 0.64567 0
M  V30 22497 H 2064.43 0.752 -8.96276e-05 0
M  V30 22498 H 2066.4 2.8593 -0.853622 0
M  V30 22499 C 2065.15 3.37242 0.846339 0
M  V30 22500 H 2064.47 3.99083 0.23926 0
M  V30 22501 H 2065.91 4.04319 1.2768 0
M  V30 22502 C 2064.37 2.7304 1.9736 0
M  V30 22503 O 2064.9 2.59677 3.06481 0
M  V30 22504 N 2063.11 2.31363 1.7584 0
M  V30 22505 H 2062.65 2.42431 0.870906 0
M  V30 22506 H 2062.61 1.88744 2.51442 0
M  V30 22507 N 2066.38 0.466004 1.50553 0
M  V30 22508 C 2067.61 -0.0908629 2.07201 0
M  V30 22509 C 2068.03 -1.33196 1.32817 0
M  V30 22510 O 2067.39 -1.77393 0.374341 0
M  V30 22511 C 2067.44 -0.362957 3.58769 0
M  V30 22512 O 2066.54 -1.44438 3.86279 0
M  V30 22513 H 2065.88 0.0107401 0.663913 0
M  V30 22514 H 2068.41 0.655585 1.93812 0
M  V30 22515 H 2068.42 -0.604965 4.0349 0
M  V30 22516 H 2067.1 0.543996 4.12327 0
M  V30 22517 H 2065.68 -1.19008 3.534 0
M  V30 22518 N 2067.86 -1.56346 0.198413 0
M  V30 22519 C 2068.79 -2.22244 -0.716243 0
M  V30 22520 C 2069.77 -1.1866 -1.21876 0
M  V30 22521 O 2070.96 -1.47177 -1.26699 0
M  V30 22522 C 2068.09 -2.88437 -1.93446 0
M  V30 22523 C 2067.04 -3.98294 -1.56672 0
M  V30 22524 C 2066.37 -4.51668 -2.86182 0
M  V30 22525 C 2067.67 -5.16531 -0.774153 0
M  V30 22526 H 2069.36 -2.98935 -0.166883 0
M  V30 22527 H 2066.91 -1.43784 -0.0788267 0
M  V30 22528 H 2068.86 -3.33221 -2.57957 0
M  V30 22529 H 2067.58 -2.09157 -2.5084 0
M  V30 22530 H 2066.24 -3.54206 -0.945178 0
M  V30 22531 H 2065.89 -3.69146 -3.41673 0
M  V30 22532 H 2065.59 -5.25796 -2.6232 0
M  V30 22533 H 2067.12 -4.99155 -3.51676 0
M  V30 22534 H 2068.53 -5.57839 -1.32244 0
M  V30 22535 H 2066.93 -5.96746 -0.633532 0
M  V30 22536 H 2068 -4.84382 0.224098 0
M  V30 22537 N 2069.34 0.0751653 -1.57421 0
M  V30 22538 C 2070.27 1.09007 -2.06494 0
M  V30 22539 C 2071.25 1.40573 -0.957766 0
M  V30 22540 O 2072.44 1.50259 -1.23028 0
M  V30 22541 C 2069.57 2.40446 -2.50605 0
M  V30 22542 C 2068.52 2.2324 -3.65168 0
M  V30 22543 C 2067.85 3.60033 -3.95323 0
M  V30 22544 C 2069.15 1.65642 -4.95338 0
M  V30 22545 H 2070.84 0.681725 -2.91535 0
M  V30 22546 H 2068.39 0.326481 -1.4025 0
M  V30 22547 H 2070.34 3.11734 -2.83548 0
M  V30 22548 H 2069.06 2.83254 -1.62588 0
M  V30 22549 H 2067.72 1.54393 -3.32503 0
M  V30 22550 H 2067.37 4.00404 -3.04443 0
M  V30 22551 H 2067.07 3.4936 -4.72463 0
M  V30 22552 H 2068.59 4.32757 -4.30759 0
M  V30 22553 H 2070.01 2.26793 -5.26534 0
M  V30 22554 H 2068.41 1.65675 -5.76777 0
M  V30 22555 H 2069.48 0.617593 -4.80951 0
M  V30 22556 N 2070.82 1.53744 0.346476 0
M  V30 22557 C 2072.23 1.62331 0.922251 0
M  V30 22558 C 2072.58 0.502763 1.89649 0
M  V30 22559 O 2071.71 -0.367943 2.13249 0
M  V30 22560 C 2072.3 2.94243 1.67948 0
M  V30 22561 C 2070.86 3.05102 2.20431 0
M  V30 22562 C 2070.01 2.57759 1.02252 0
M  V30 22563 H 2072.96 1.58209 0.124698 0
M  V30 22564 H 2072.98 2.83118 2.54213 0
M  V30 22565 H 2072.49 3.75779 0.970157 0
M  V30 22566 H 2070.59 2.28194 2.94547 0
M  V30 22567 H 2070.7 4.1052 2.47003 0
M  V30 22568 H 2069.07 2.13095 1.39508 0
M  V30 22569 H 2069.85 3.41731 0.327885 0
M  V30 22570 N 2072.3 -0.607329 1.45428 0
M  V30 22571 C 2073.23 -1.72873 1.56962 0
M  V30 22572 C 2074.21 -1.64804 0.421159 0
M  V30 22573 O 2075.39 -1.83199 0.64433 0
M  V30 22574 C 2072.52 -3.11476 1.53622 0
M  V30 22575 C 2071.48 -3.34357 2.67188 0
M  V30 22576 C 2070.8 -4.73236 2.48902 0
M  V30 22577 C 2072.1 -3.24586 4.09196 0
M  V30 22578 H 2073.8 -1.63477 2.5083 0
M  V30 22579 H 2071.34 -0.785054 1.20718 0
M  V30 22580 H 2073.3 -3.89725 1.60288 0
M  V30 22581 H 2072.02 -3.21714 0.562838 0
M  V30 22582 H 2070.68 -2.58499 2.5995 0
M  V30 22583 H 2070.33 -4.80206 1.49702 0
M  V30 22584 H 2070.03 -4.895 3.25059 0
M  V30 22585 H 2071.55 -5.53684 2.57422 0
M  V30 22586 H 2072.96 -3.92709 4.17676 0
M  V30 22587 H 2071.36 -3.52381 4.85745 0
M  V30 22588 H 2072.43 -2.22022 4.31085 0
M  V30 22589 N 2073.77 -1.32722 -0.849853 0
M  V30 22590 C 2075.05 -1.14168 -1.58824 0
M  V30 22591 C 2075.43 0.296136 -2.09013 0
M  V30 22592 O 2074.78 1.2935 -1.88364 0
M  V30 22593 C 2074.99 -2.1734 -2.73065 0
M  V30 22594 C 2076.34 -2.50923 -3.42524 0
M  V30 22595 O 2077.36 -2.15923 -2.83295 0
M  V30 22596 O 2076.22 -3.10942 -4.49419 0
M  V30 22597 H 2073.31 -0.440869 -0.699688 0
M  V30 22598 H 2075.86 -1.44269 -0.893563 0
M  V30 22599 H 2074.63 -3.13967 -2.33539 0
M  V30 22600 H 2074.26 -1.88261 -3.50205 0
M  V30 22601 N 2075.25 1.06673 -1.16011 0
M  V30 22602 C 2076.53 1.76186 -0.849577 0
M  V30 22603 C 2076.91 2.00733 0.653401 0
M  V30 22604 O 2076.26 1.63135 1.59998 0
M  V30 22605 C 2076.47 3.06559 -1.66802 0
M  V30 22606 C 2077.82 3.80782 -1.87857 0
M  V30 22607 O 2078.84 3.16389 -1.63635 0
M  V30 22608 O 2077.7 4.96451 -2.2847 0
M  V30 22609 H 2074.79 0.76543 -0.313123 0
M  V30 22610 H 2077.34 1.12976 -1.26627 0
M  V30 22611 H 2076.11 2.84353 -2.68811 0
M  V30 22612 H 2075.73 3.77502 -1.24811 0
M  V30 22613 N 2076.73 0.957992 1.25141 0
M  V30 22614 C 2077.98 0.610242 1.92247 0
M  V30 22615 C 2078.29 -0.857187 1.75817 0
M  V30 22616 O 2079.5 -1.31504 2.37527 0
M  V30 22617 C 2077.95 1.04075 3.44524 0
M  V30 22618 C 2077.56 2.53095 3.69658 0
M  V30 22619 C 2079.31 0.765685 4.17537 0
M  V30 22620 C 2077.21 2.89928 5.15457 0
M  V30 22621 H 2076.14 0.224526 0.719794 0
M  V30 22622 H 2078.79 1.1629 1.41947 0
M  V30 22623 H 2077.18 0.416478 3.93804 0
M  V30 22624 H 2078.35 3.20569 3.31017 0
M  V30 22625 H 2076.67 2.78108 3.09911 0
M  V30 22626 H 2079.26 1.017 5.24939 0
M  V30 22627 H 2079.61 -0.297957 4.15232 0
M  V30 22628 H 2080.14 1.35046 3.74176 0
M  V30 22629 H 2076.88 3.95324 5.22876 0
M  V30 22630 H 2076.4 2.2713 5.55132 0
M  V30 22631 H 2078.08 2.79304 5.83608 0
M  V30 22632 N 2078.21 -1.39832 0.726957 0
M  V30 22633 C 2079.45 -2.00971 0.271788 0
M  V30 22634 C 2079.79 -1.57537 -1.13559 0
M  V30 22635 O 2079.06 -0.800579 -1.7726 0
M  V30 22636 C 2079.35 -3.5825 0.364596 0
M  V30 22637 C 2079.2 -4.11724 1.81117 0
M  V30 22638 C 2080.52 -4.39345 -0.257652 0
M  V30 22639 H 2077.64 -0.730152 0.100232 0
M  V30 22640 H 2080.28 -1.66152 0.921599 0
M  V30 22641 H 2078.43 -3.88042 -0.18865 0
M  V30 22642 H 2080.1 -3.92684 2.42068 0
M  V30 22643 H 2078.34 -3.65585 2.33516 0
M  V30 22644 H 2079.01 -5.20873 1.82743 0
M  V30 22645 H 2081.49 -4.1555 0.213875 0
M  V30 22646 H 2080.37 -5.4866 -0.162327 0
M  V30 22647 H 2080.63 -4.21218 -1.34267 0
M  V30 22648 N 2079.69 -0.473982 -1.50304 0
M  V30 22649 C 2081.1 -0.128306 -1.59083 0
M  V30 22650 C 2081.3 1.3654 -1.48186 0
M  V30 22651 O 2080.36 2.13895 -1.34183 0
M  V30 22652 C 2081.67 -0.681074 -2.92885 0
M  V30 22653 C 2083.22 -0.644759 -3.06287 0
M  V30 22654 C 2083.69 -1.17512 -4.42668 0
M  V30 22655 N 2085.19 -1.13466 -4.49088 0
M  V30 22656 C 2085.92 -1.5155 -5.5301 0
M  V30 22657 N 2085.42 -1.97098 -6.64172 0
M  V30 22658 N 2087.21 -1.43135 -5.4357 0
M  V30 22659 H 2079.36 -1.44543 -1.55631 0
M  V30 22660 H 2081.62 -0.597921 -0.735659 0
M  V30 22661 H 2081.33 -1.72759 -3.06345 0
M  V30 22662 H 2081.2 -0.126258 -3.76989 0
M  V30 22663 H 2083.59 0.392851 -2.92473 0
M  V30 22664 H 2083.67 -1.23641 -2.23934 0
M  V30 22665 H 2083.32 -2.21138 -4.57231 0
M  V30 22666 H 2083.25 -0.559658 -5.23618 0
M  V30 22667 H 2085.74 -0.800623 -3.69322 0
M  V30 22668 H 2086.05 -2.24298 -7.39534 0
M  V30 22669 H 2084.39 -2.01052 -6.65284 0
M  V30 22670 H 2087.59 -1.0739 -4.55615 0
M  V30 22671 H 2087.76 -1.73141 -6.24441 0
M  V30 22672 N 2081.16 1.56239 -0.206702 0
M  V30 22673 C 2082.41 1.98197 0.429627 0
M  V30 22674 C 2082.74 1.09386 1.60463 0
M  V30 22675 O 2082.02 0.148321 1.93934 0
M  V30 22676 C 2082.3 3.49218 0.878562 0
M  V30 22677 C 2082.15 4.48805 -0.299054 0
M  V30 22678 C 2083.47 4.04243 1.74 0
M  V30 22679 H 2080.59 0.720583 0.154691 0
M  V30 22680 H 2083.23 1.87617 -0.299957 0
M  V30 22681 H 2081.38 3.58365 1.50023 0
M  V30 22682 H 2083.06 4.51684 -0.936956 0
M  V30 22683 H 2081.3 4.23294 -0.948945 0
M  V30 22684 H 2081.97 5.5197 0.0577652 0
M  V30 22685 H 2084.45 3.97948 1.2156 0
M  V30 22686 H 2083.32 5.10259 2.02305 0
M  V30 22687 H 2083.58 3.50212 2.69823 0
M  V30 22688 N 2082.64 -0.0668159 1.57458 0
M  V30 22689 C 2083.89 -0.766159 1.87771 0
M  V30 22690 C 2084.22 -1.76973 0.799644 0
M  V30 22691 O 2083.5 -1.93574 -0.189554 0
M  V30 22692 C 2083.78 -1.46969 3.28743 0
M  V30 22693 C 2083.63 -0.482195 4.47208 0
M  V30 22694 C 2084.95 -2.41336 3.68029 0
M  V30 22695 H 2082.07 -0.277066 0.682937 0
M  V30 22696 H 2084.71 -0.0292751 1.89977 0
M  V30 22697 H 2082.86 -2.09781 3.26993 0
M  V30 22698 H 2084.53 0.141096 4.61084 0
M  V30 22699 H 2082.78 0.202041 4.33329 0
M  V30 22700 H 2083.45 -1.01218 5.42641 0
M  V30 22701 H 2085.92 -1.88598 3.70905 0
M  V30 22702 H 2084.8 -2.87562 4.67546 0
M  V30 22703 H 2085.06 -3.26361 2.98229 0
M  V30 22704 N 2084.12 -1.53926 -0.338317 0
M  V30 22705 C 2085.35 -1.75368 -1.09789 0
M  V30 22706 C 2085.76 -0.495294 -1.82187 0
M  V30 22707 O 2085.12 0.533316 -1.74534 0
M  V30 22708 C 2085.17 -2.93722 -2.10736 0
M  V30 22709 O 2084.89 -4.14695 -1.4128 0
M  V30 22710 C 2086.39 -3.27258 -2.99027 0
M  V30 22711 H 2083.61 -0.585824 -0.327188 0
M  V30 22712 H 2086.16 -2.00767 -0.388932 0
M  V30 22713 H 2084.31 -2.70639 -2.77188 0
M  V30 22714 H 2084.73 -4.81165 -2.08759 0
M  V30 22715 H 2086.2 -4.13409 -3.65783 0
M  V30 22716 H 2086.68 -2.43786 -3.65329 0
M  V30 22717 H 2087.28 -3.52366 -2.38156 0
M  V30 22718 N 2085.6 0.599608 -1.45748 0
M  V30 22719 C 2086.55 1.70431 -1.51451 0
M  V30 22720 C 2087.53 1.56421 -0.376992 0
M  V30 22721 O 2088.73 1.65623 -0.624354 0
M  V30 22722 C 2085.85 3.09198 -1.49169 0
M  V30 22723 C 2084.94 3.28565 -2.68153 0
M  V30 22724 N 2085.33 3.1816 -3.93202 0
M  V30 22725 C 2083.63 3.59458 -2.64018 0
M  V30 22726 C 2084.33 3.39074 -4.72656 0
M  V30 22727 N 2083.31 3.63439 -4.04243 0
M  V30 22728 H 2087.11 1.60891 -2.4595 0
M  V30 22729 H 2084.62 0.803119 -1.41152 0
M  V30 22730 H 2086.62 3.88461 -1.5134 0
M  V30 22731 H 2085.28 3.19881 -0.557335 0
M  V30 22732 H 2086.29 2.96389 -4.24704 0
M  V30 22733 H 2082.97 3.7693 -1.79528 0
M  V30 22734 H 2084.36 3.36356 -5.81648 0
M  V30 22735 N 2087.08 1.33171 0.842803 0
M  V30 22736 C 2088.35 1.15008 1.58216 0
M  V30 22737 C 2088.73 -0.285047 2.09167 0
M  V30 22738 O 2088.08 -1.28349 1.89047 0
M  V30 22739 C 2088.29 2.18785 2.71908 0
M  V30 22740 C 2089.64 2.52736 3.41188 0
M  V30 22741 O 2090.66 2.17422 2.82146 0
M  V30 22742 O 2089.52 3.13321 4.47763 0
M  V30 22743 H 2086.62 0.444573 0.69734 0
M  V30 22744 H 2089.16 1.44741 0.8859 0
M  V30 22745 H 2087.94 3.15201 2.31871 0
M  V30 22746 H 2087.56 1.90116 3.49202 0
M  V30 22747 N 2088.56 -1.06056 1.16576 0
M  V30 22748 C 2089.83 -1.75733 0.858908 0
M  V30 22749 C 2090.21 -2.01077 -0.642746 0
M  V30 22750 O 2089.56 -1.63981 -1.5913 0
M  V30 22751 C 2089.77 -3.0567 1.68425 0
M  V30 22752 C 2091.12 -3.7978 1.89874 0
M  V30 22753 O 2092.14 -3.15517 1.65311 0
M  V30 22754 O 2091 -4.95232 2.311 0
M  V30 22755 H 2088.1 -0.763759 0.317177 0
M  V30 22756 H 2090.64 -1.12303 1.27225 0
M  V30 22757 H 2089.41 -2.82923 2.70315 0
M  V30 22758 H 2089.04 -3.76835 1.26811 0
M  V30 22759 N 2090.03 -0.964615 -1.24631 0
M  V30 22760 C 2091.27 -0.632622 -1.94364 0
M  V30 22761 C 2091.64 0.816641 -1.73767 0
M  V30 22762 O 2092.84 1.25871 -2.37508 0
M  V30 22763 C 2091.11 -0.993428 -3.43316 0
M  V30 22764 S 2092.67 -0.775518 -4.31893 0
M  V30 22765 H 2089.49 -0.232189 -0.672019 0
M  V30 22766 H 2092.09 -1.24091 -1.51068 0
M  V30 22767 H 2090.79 -2.04514 -3.55812 0
M  V30 22768 H 2090.32 -0.37579 -3.91601 0
M  V30 22769 H 2092.34 0.348693 -4.94973 0
M  V30 22770 N 2091.51 1.39445 -0.734362 0
M  V30 22771 C 2092.76 1.99762 -0.278913 0
M  V30 22772 C 2093.07 1.58936 1.14012 0
M  V30 22773 O 2094.28 2.12085 1.69506 0
M  V30 22774 C 2092.74 3.57104 -0.447725 0
M  V30 22775 C 2092.34 4.06894 -1.87461 0
M  V30 22776 C 2094.09 4.24466 -0.0540192 0
M  V30 22777 C 2091.99 5.56806 -1.993 0
M  V30 22778 H 2090.92 0.747268 -0.100529 0
M  V30 22779 H 2093.58 1.59452 -0.908151 0
M  V30 22780 H 2091.96 3.95208 0.250399 0
M  V30 22781 H 2093.13 3.80126 -2.60463 0
M  V30 22782 H 2091.45 3.52193 -2.22147 0
M  V30 22783 H 2094.04 5.34562 -0.121504 0
M  V30 22784 H 2094.39 4.04341 0.990665 0
M  V30 22785 H 2094.92 3.91534 -0.703277 0
M  V30 22786 H 2091.66 5.8181 -3.01955 0
M  V30 22787 H 2091.18 5.85379 -1.30734 0
M  V30 22788 H 2092.86 6.22208 -1.77387 0
M  V30 22789 N 2092.99 0.481946 1.5005 0
M  V30 22790 C 2094.4 0.0294639 1.86677 0
M  V30 22791 C 2094.75 -1.37874 1.39589 0
M  V30 22792 O 2093.88 -2.02407 0.765517 0
M  V30 22793 C 2094.47 0.0466921 3.38768 0
M  V30 22794 C 2093.03 -0.350364 3.74766 0
M  V30 22795 C 2092.18 0.427499 2.73985 0
M  V30 22796 H 2095.13 0.69569 1.42639 0
M  V30 22797 H 2095.15 -0.75302 3.72974 0
M  V30 22798 H 2094.66 1.07172 3.73009 0
M  V30 22799 H 2092.76 -1.37934 3.46128 0
M  V30 22800 H 2092.88 -0.0441626 4.7908 0
M  V30 22801 H 2091.24 -0.120219 2.54416 0
M  V30 22802 H 2092.02 1.45225 3.1107 0
M  V30 22803 N 2094.47 -1.56127 0.214985 0
M  V30 22804 C 2095.38 -2.2362 -0.709323 0
M  V30 22805 C 2096.39 -1.24168 -1.21895 0
M  V30 22806 O 2097.57 -1.56962 -1.26194 0
M  V30 22807 C 2094.63 -2.89781 -1.90337 0
M  V30 22808 C 2093.7 -4.04558 -1.43636 0
M  V30 22809 C 2092.93 -4.67555 -2.57349 0
M  V30 22810 O 2093.15 -4.29521 -3.75324 0
M  V30 22811 O 2092.09 -5.56666 -2.28925 0
M  V30 22812 H 2095.91 -3.03255 -0.164408 0
M  V30 22813 H 2093.5 -1.49392 -0.0151812 0
M  V30 22814 H 2095.38 -3.31565 -2.60082 0
M  V30 22815 H 2094.05 -2.1311 -2.43651 0
M  V30 22816 H 2092.96 -3.67356 -0.707115 0
M  V30 22817 H 2094.29 -4.82951 -0.94967 0
M  V30 22818 N 2095.95 0.0584645 -1.57492 0
M  V30 22819 C 2097.19 0.75619 -1.88174 0
M  V30 22820 C 2097.52 1.76546 -0.809018 0
M  V30 22821 O 2096.8 1.93672 0.179286 0
M  V30 22822 C 2097.08 1.45223 -3.29518 0
M  V30 22823 C 2096.94 0.458472 -4.47457 0
M  V30 22824 C 2098.25 2.39381 -3.69303 0
M  V30 22825 H 2095.37 0.27344 -0.684397 0
M  V30 22826 H 2098.02 0.0191997 -1.8999 0
M  V30 22827 H 2096.17 2.08044 -3.28101 0
M  V30 22828 H 2097.84 -0.165547 -4.61003 0
M  V30 22829 H 2096.08 -0.225018 -4.33216 0
M  V30 22830 H 2096.75 0.983384 -5.4317 0
M  V30 22831 H 2099.23 1.86628 -3.719 0
M  V30 22832 H 2098.1 2.85078 -4.69065 0
M  V30 22833 H 2098.36 3.24775 -2.99956 0
M  V30 22834 N 2097.42 1.54103 0.330149 0
M  V30 22835 C 2098.37 1.83029 1.40603 0
M  V30 22836 C 2099.34 0.676907 1.51681 0
M  V30 22837 O 2100.53 0.922683 1.67007 0
M  V30 22838 C 2097.67 2.05745 2.77061 0
M  V30 22839 C 2096.78 3.3344 2.74667 0
M  V30 22840 C 2095.91 3.46152 4.02929 0
M  V30 22841 C 2094.95 4.67746 3.94817 0
M  V30 22842 N 2094.09 4.7742 5.14796 0
M  V30 22843 H 2098.93 2.74817 1.15236 0
M  V30 22844 H 2096.47 1.36107 0.557963 0
M  V30 22845 H 2098.42 2.16907 3.56381 0
M  V30 22846 H 2097.05 1.17255 3.00751 0
M  V30 22847 H 2096.11 3.3105 1.87376 0
M  V30 22848 H 2097.42 4.22863 2.64554 0
M  V30 22849 H 2096.57 3.5682 4.90678 0
M  V30 22850 H 2095.31 2.5481 4.15841 0
M  V30 22851 H 2094.32 4.57142 3.05453 0
M  V30 22852 H 2095.54 5.60467 3.83476 0
M  V30 22853 H 2093.49 3.88991 5.28225 0
M  V30 22854 H 2093.4 5.60799 5.06991 0
M  V30 22855 H 2094.67 4.92412 6.04277 0
M  V30 22856 N 2098.9 -0.59187 1.46064 0
M  V30 22857 C 2100.15 -1.34657 1.50168 0
M  V30 22858 C 2100.46 -1.94993 0.153981 0
M  V30 22859 O 2101.67 -2.71402 0.0727633 0
M  V30 22860 C 2100.13 -2.44 2.6456 0
M  V30 22861 C 2099.73 -1.90007 4.05711 0
M  V30 22862 C 2101.48 -3.2087 2.77926 0
M  V30 22863 C 2099.39 -2.96925 5.11458 0
M  V30 22864 H 2098.32 -0.506178 0.558838 0
M  V30 22865 H 2100.97 -0.632651 1.72249 0
M  V30 22866 H 2099.35 -3.18149 2.35791 0
M  V30 22867 H 2100.52 -1.22462 4.44229 0
M  V30 22868 H 2098.84 -1.25833 3.96932 0
M  V30 22869 H 2101.43 -4.00647 3.54099 0
M  V30 22870 H 2101.78 -3.72878 1.85115 0
M  V30 22871 H 2102.31 -2.53825 3.06296 0
M  V30 22872 H 2099.05 -2.49815 6.0603 0
M  V30 22873 H 2098.57 -3.62987 4.77494 0
M  V30 22874 H 2100.25 -3.61036 5.369 0
M  V30 22875 N 2100.38 -1.33616 -0.835729 0
M  V30 22876 C 2101.34 -1.24042 -1.92733 0
M  V30 22877 C 2102.34 -0.158708 -1.60015 0
M  V30 22878 O 2103.53 -0.410456 -1.69295 0
M  V30 22879 C 2100.67 -0.912113 -3.28471 0
M  V30 22880 H 2101.86 -2.21075 -2.02647 0
M  V30 22881 H 2099.41 -1.1772 -1.02819 0
M  V30 22882 H 2100.15 0.0555823 -3.24252 0
M  V30 22883 H 2099.93 -1.69441 -3.53599 0
M  V30 22884 H 2101.42 -0.869957 -4.08438 0
M  V30 22885 N 2101.86 1.05436 -1.17136 0
M  V30 22886 C 2103.09 1.8181 -0.981263 0
M  V30 22887 C 2103.5 1.83173 0.473739 0
M  V30 22888 O 2102.84 1.25581 1.34071 0
M  V30 22889 C 2102.9 3.29286 -1.44261 0
M  V30 22890 C 2102.57 3.5161 -2.91924 0
M  V30 22891 C 2103.56 3.43938 -3.89875 0
M  V30 22892 C 2101.25 3.78652 -3.30043 0
M  V30 22893 C 2103.24 3.6299 -5.23944 0
M  V30 22894 C 2100.93 3.97352 -4.64278 0
M  V30 22895 C 2101.93 3.8952 -5.61038 0
M  V30 22896 O 2101.61 4.07702 -6.92845 0
M  V30 22897 H 2101.35 0.57984 -0.347507 0
M  V30 22898 H 2103.9 1.33868 -1.55784 0
M  V30 22899 H 2102.13 3.78131 -0.80958 0
M  V30 22900 H 2103.82 3.87177 -1.21857 0
M  V30 22901 H 2104.59 3.23027 -3.61772 0
M  V30 22902 H 2100.46 3.83853 -2.553 0
M  V30 22903 H 2104.01 3.56793 -5.99454 0
M  V30 22904 H 2099.91 4.17755 -4.92088 0
M  V30 22905 H 2100.67 4.24941 -6.99548 0
M  V30 22906 N 2103.34 0.971211 1.24118 0
M  V30 22907 C 2104.58 0.635963 1.9257 0
M  V30 22908 C 2104.92 -0.827222 1.75701 0
M  V30 22909 O 2104.19 -1.59559 1.11226 0
M  V30 22910 C 2104.47 1.01581 3.45476 0
M  V30 22911 C 2104.33 2.53595 3.71497 0
M  V30 22912 C 2105.65 0.552941 4.36613 0
M  V30 22913 H 2102.76 0.232516 0.699361 0
M  V30 22914 H 2105.41 1.21085 1.46419 0
M  V30 22915 H 2103.56 0.526628 3.84914 0
M  V30 22916 H 2105.23 3.10016 3.41596 0
M  V30 22917 H 2103.47 2.96637 3.16526 0
M  V30 22918 H 2104.14 2.75222 4.78494 0
M  V30 22919 H 2106.62 0.972795 4.04569 0
M  V30 22920 H 2105.49 0.847244 5.42322 0
M  V30 22921 H 2105.76 -0.54692 4.38704 0
M  V30 22922 N 2104.81 -1.39054 0.741747 0
M  V30 22923 C 2105.76 -2.32404 0.0954067 0
M  V30 22924 C 2106.76 -1.53411 -0.71843 0
M  V30 22925 O 2107.96 -1.69027 -0.618858 0
M  V30 22926 H 2104.34 -0.751903 0.0120533 0
M  V30 22927 H 2106.31 -2.84536 0.899003 0
M  V30 22928 C 2105.06 -3.38546 -0.79258 0
M  V30 22929 H 2104.38 -3.99414 -0.175739 0
M  V30 22930 H 2105.82 -4.06299 -1.21232 0
M  V30 22931 C 2104.28 -2.76145 -1.92991 0
M  V30 22932 O 2104.81 -2.6452 -3.02311 0
M  V30 22933 N 2103.02 -2.34131 -1.72137 0
M  V30 22934 H 2102.56 -2.43786 -0.832227 0
M  V30 22935 H 2102.52 -1.92721 -2.48407 0
M  V30 22936 N 2106.29 -0.489897 -1.49792 0
M  V30 22937 C 2107.54 0.0585441 -2.02415 0
M  V30 22938 C 2107.87 1.38015 -1.37048 0
M  V30 22939 O 2107.12 1.89427 -0.491526 0
M  V30 22940 C 2107.42 0.271059 -3.56371 0
M  V30 22941 C 2107.09 -0.971168 -4.40317 0
M  V30 22942 C 2105.75 -1.31171 -4.62977 0
M  V30 22943 C 2108.1 -1.79739 -4.89227 0
M  V30 22944 C 2105.43 -2.47819 -5.31792 0
M  V30 22945 C 2107.78 -2.95531 -5.59325 0
M  V30 22946 C 2106.45 -3.29978 -5.80234 0
M  V30 22947 H 2105.72 0.0214228 -0.74069 0
M  V30 22948 H 2108.36 -0.6478 -1.8021 0
M  V30 22949 H 2106.67 1.05983 -3.77193 0
M  V30 22950 H 2108.36 0.70968 -3.9467 0
M  V30 22951 H 2104.95 -0.695889 -4.22913 0
M  V30 22952 H 2109.14 -1.54746 -4.71559 0
M  V30 22953 H 2104.39 -2.74759 -5.46185 0
M  V30 22954 H 2108.57 -3.59885 -5.96201 0
M  V30 22955 H 2106.2 -4.2047 -6.33332 0
M  V30 22956 N 2107.77 1.56011 -0.223262 0
M  V30 22957 C 2109.02 1.98642 0.408581 0
M  V30 22958 C 2109.35 1.11082 1.59294 0
M  V30 22959 O 2108.62 0.168881 1.93765 0
M  V30 22960 C 2108.91 3.5013 0.841473 0
M  V30 22961 C 2108.76 4.48462 -0.346639 0
M  V30 22962 C 2110.08 4.06065 1.69703 0
M  V30 22963 H 2107.2 0.722183 0.147039 0
M  V30 22964 H 2109.84 1.87289 -0.319839 0
M  V30 22965 H 2107.99 3.59936 1.46214 0
M  V30 22966 H 2109.66 4.50665 -0.98481 0
M  V30 22967 H 2107.91 4.22263 -0.993788 0
M  V30 22968 H 2108.58 5.52 -0.00078187 0
M  V30 22969 H 2111.05 3.99215 1.17332 0
M  V30 22970 H 2109.93 5.12376 1.96882 0
M  V30 22971 H 2110.19 3.53054 2.66093 0
M  V30 22972 N 2109.25 -0.0501116 1.5752 0
M  V30 22973 C 2110.2 -1.07575 2.06229 0
M  V30 22974 C 2111.19 -1.38752 0.971818 0
M  V30 22975 O 2112.4 -1.37904 1.15683 0
M  V30 22976 H 2108.77 -0.364351 0.657839 0
M  V30 22977 H 2110.74 -0.638967 2.91479 0
M  V30 22978 C 2109.49 -2.37464 2.53981 0
M  V30 22979 H 2108.81 -2.1433 3.37495 0
M  V30 22980 H 2110.25 -3.07624 2.91793 0
M  V30 22981 C 2108.71 -3.04955 1.43192 0
M  V30 22982 O 2109.24 -3.93931 0.786218 0
M  V30 22983 N 2107.45 -2.65933 1.17165 0
M  V30 22984 H 2107 -1.93666 1.69856 0
M  V30 22985 H 2106.95 -3.11411 0.432478 0
M  V30 22986 N 2110.73 -1.54276 -0.321972 0
M  V30 22987 C 2111.68 -1.80154 -1.39745 0
M  V30 22988 C 2112.66 -0.65763 -1.46847 0
M  V30 22989 O 2113.85 -0.917677 -1.51353 0
M  V30 22990 C 2110.98 -2.03375 -2.76574 0
M  V30 22991 C 2110.07 -3.23892 -2.73779 0
M  V30 22992 N 2110.46 -4.44909 -2.40603 0
M  V30 22993 C 2108.76 -3.25497 -3.04906 0
M  V30 22994 C 2109.46 -5.26851 -2.46582 0
M  V30 22995 N 2108.43 -4.64072 -2.83087 0
M  V30 22996 H 2112.24 -2.71297 -1.13026 0
M  V30 22997 H 2109.75 -1.53492 -0.530462 0
M  V30 22998 H 2111.75 -2.20055 -3.54092 0
M  V30 22999 H 2110.41 -1.13487 -3.04222 0
M  V30 23000 H 2111.42 -4.71881 -2.13421 0
M  V30 23001 H 2108.09 -2.45648 -3.37585 0
M  V30 23002 H 2109.48 -6.33494 -2.23909 0
M  V30 23003 N 2112.2 0.584116 -1.46376 0
M  V30 23004 C 2113.44 1.35344 -1.53171 0
M  V30 23005 C 2113.81 1.91168 -0.178507 0
M  V30 23006 O 2115.01 2.68527 -0.121206 0
M  V30 23007 C 2113.28 2.45362 -2.5987 0
M  V30 23008 S 2114.84 3.32739 -2.8606 0
M  V30 23009 H 2111.66 0.461125 -0.541188 0
M  V30 23010 H 2114.26 0.671631 -1.83601 0
M  V30 23011 H 2112.96 2.02739 -3.56826 0
M  V30 23012 H 2112.49 3.18316 -2.31167 0
M  V30 23013 H 2114.51 4.44156 -2.21223 0
M  V30 23014 N 2113.68 1.34058 0.828631 0
M  V30 23015 C 2114.91 1.28969 1.61402 0
M  V30 23016 C 2115.32 -0.139572 1.88684 0
M  V30 23017 O 2114.66 -1.09533 1.47473 0
M  V30 23018 C 2114.73 2.00658 2.9829 0
M  V30 23019 C 2114.39 3.49935 2.93929 0
M  V30 23020 C 2115.39 4.44949 2.68918 0
M  V30 23021 C 2113.07 3.92264 3.13742 0
M  V30 23022 C 2115.07 5.80266 2.63761 0
M  V30 23023 C 2112.75 5.27683 3.0821 0
M  V30 23024 C 2113.75 6.21496 2.83253 0
M  V30 23025 O 2113.44 7.54433 2.77643 0
M  V30 23026 H 2113.17 0.445319 0.508593 0
M  V30 23027 H 2115.73 1.77155 1.03949 0
M  V30 23028 H 2113.96 1.47077 3.57638 0
M  V30 23029 H 2115.64 1.88933 3.59248 0
M  V30 23030 H 2116.41 4.13567 2.53352 0
M  V30 23031 H 2112.29 3.19646 3.32186 0
M  V30 23032 H 2115.83 6.53461 2.442 0
M  V30 23033 H 2111.73 5.58685 3.23328 0
M  V30 23034 H 2112.5 7.64102 2.93411 0
M  V30 23035 N 2115.16 -1.04814 1.17694 0
M  V30 23036 C 2116.41 -1.78147 0.969105 0
M  V30 23037 C 2116.74 -1.87634 -0.500715 0
M  V30 23038 O 2116.02 -1.37892 -1.37172 0
M  V30 23039 C 2116.3 -3.2183 1.61548 0
M  V30 23040 C 2116.15 -3.20332 3.15765 0
M  V30 23041 C 2117.47 -4.19759 1.32251 0
M  V30 23042 H 2114.59 -0.646701 0.353479 0
M  V30 23043 H 2117.23 -1.22485 1.45249 0
M  V30 23044 H 2115.38 -3.69358 1.20445 0
M  V30 23045 H 2117.05 -2.8085 3.65952 0
M  V30 23046 H 2115.3 -2.58568 3.48318 0
M  V30 23047 H 2115.97 -4.21759 3.56123 0
M  V30 23048 H 2118.44 -3.80743 1.67851 0
M  V30 23049 H 2117.32 -5.18527 1.80057 0
M  V30 23050 H 2117.58 -4.41426 0.244002 0
M  V30 23051 N 2116.64 -0.977779 -1.23601 0
M  V30 23052 C 2117.92 -0.561714 -1.87361 0
M  V30 23053 C 2118.3 0.961166 -1.87949 0
M  V30 23054 O 2117.64 1.83678 -1.35922 0
M  V30 23055 C 2117.85 -1.16478 -3.28989 0
M  V30 23056 C 2119.2 -1.2559 -4.05601 0
M  V30 23057 O 2120.23 -1.11804 -3.38199 0
M  V30 23058 O 2119.09 -1.47493 -5.2622 0
M  V30 23059 H 2116.18 -0.18876 -0.80517 0
M  V30 23060 H 2118.73 -1.07269 -1.31497 0
M  V30 23061 H 2117.5 -2.20711 -3.23114 0
M  V30 23062 H 2117.12 -0.638457 -3.9244 0
M  V30 23063 N 2118.12 1.38658 -0.749111 0
M  V30 23064 C 2119.35 2.04504 -0.313958 0
M  V30 23065 C 2119.76 1.56495 1.05616 0
M  V30 23066 O 2119.12 0.736036 1.66999 0
M  V30 23067 C 2119.17 3.60059 -0.322507 0
M  V30 23068 O 2118.89 4.06304 -1.63855 0
M  V30 23069 C 2120.39 4.43118 0.127067 0
M  V30 23070 H 2117.61 0.657312 -0.134841 0
M  V30 23071 H 2120.15 1.77435 -1.01671 0
M  V30 23072 H 2118.31 3.85979 0.331471 0
M  V30 23073 H 2118.72 5.00711 -1.56169 0
M  V30 23074 H 2120.2 5.51956 0.0699241 0
M  V30 23075 H 2120.67 4.2321 1.17431 0
M  V30 23076 H 2121.28 4.22376 -0.49787 0
M  V30 23077 N 2119.6 0.497834 1.49531 0
M  V30 23078 C 2120.51 -0.286926 2.32839 0
M  V30 23079 C 2121.52 -0.970397 1.44427 0
M  V30 23080 O 2122.7 -0.952478 1.77454 0
M  V30 23081 C 2119.76 -1.33928 3.19788 0
M  V30 23082 C 2118.82 -0.669588 4.24046 0
M  V30 23083 C 2118.06 -1.67181 5.0684 0
M  V30 23084 O 2118.28 -2.90132 4.91101 0
M  V30 23085 O 2117.21 -1.22887 5.89222 0
M  V30 23086 H 2121.04 0.394869 3.01122 0
M  V30 23087 H 2118.62 0.259218 1.47134 0
M  V30 23088 H 2120.51 -1.94822 3.73661 0
M  V30 23089 H 2119.18 -2.00407 2.54202 0
M  V30 23090 H 2118.09 -0.0209922 3.74094 0
M  V30 23091 H 2119.42 -0.0473067 4.92177 0
M  V30 23092 N 2121.07 -1.5589 0.231532 0
M  V30 23093 C 2122.32 -1.98855 -0.398041 0
M  V30 23094 C 2122.65 -1.11925 -1.58702 0
M  V30 23095 O 2121.93 -0.179155 -1.93673 0
M  V30 23096 C 2122.21 -3.50572 -0.822893 0
M  V30 23097 C 2122.06 -4.48272 0.370417 0
M  V30 23098 C 2123.38 -4.0696 -1.67547 0
M  V30 23099 H 2120.5 -0.722953 -0.143207 0
M  V30 23100 H 2123.14 -1.87116 0.329767 0
M  V30 23101 H 2121.29 -3.60706 -1.44303 0
M  V30 23102 H 2122.97 -4.50137 1.0087 0
M  V30 23103 H 2121.21 -4.2173 1.01617 0
M  V30 23104 H 2121.88 -5.51992 0.0300558 0
M  V30 23105 H 2124.36 -3.99831 -1.15214 0
M  V30 23106 H 2123.23 -5.13412 -1.94162 0
M  V30 23107 H 2123.49 -3.5446 -2.64217 0
M  V30 23108 N 2122.55 0.0417572 -1.57545 0
M  V30 23109 C 2123.46 1.06351 -2.09109 0
M  V30 23110 C 2124.48 1.40464 -1.02694 0
M  V30 23111 O 2125.65 1.50038 -1.34352 0
M  V30 23112 C 2122.72 2.34925 -2.54973 0
M  V30 23113 C 2121.78 2.0751 -3.75816 0
M  V30 23114 C 2121.01 3.29954 -4.19483 0
M  V30 23115 O 2121.24 4.40174 -3.62772 0
M  V30 23116 O 2120.17 3.16399 -5.12031 0
M  V30 23117 H 2124 0.655348 -2.96545 0
M  V30 23118 H 2121.58 0.257909 -1.47157 0
M  V30 23119 H 2123.46 3.10537 -2.84859 0
M  V30 23120 H 2122.14 2.75062 -1.70653 0
M  V30 23121 H 2121.04 1.29507 -3.50968 0
M  V30 23122 H 2122.38 1.72237 -4.61081 0
M  V30 23123 N 2124.03 1.54445 0.313786 0
M  V30 23124 C 2124.96 1.79371 1.41072 0
M  V30 23125 C 2125.94 0.644191 1.49295 0
M  V30 23126 O 2127.12 0.882726 1.66554 0
M  V30 23127 C 2124.25 1.91902 2.7909 0
M  V30 23128 C 2123.3 3.14253 2.88352 0
M  V30 23129 S 2124.13 4.7263 2.51757 0
M  V30 23130 C 2125.29 4.8808 3.91828 0
M  V30 23131 H 2125.52 2.72131 1.19717 0
M  V30 23132 H 2123.05 1.45693 0.51118 0
M  V30 23133 H 2125.01 1.99807 3.58591 0
M  V30 23134 H 2123.67 1.00103 2.97722 0
M  V30 23135 H 2122.86 3.19785 3.89556 0
M  V30 23136 H 2122.47 3.04729 2.16833 0
M  V30 23137 H 2124.76 4.71317 4.86689 0
M  V30 23138 H 2125.7 5.90178 3.91274 0
M  V30 23139 H 2126.11 4.16316 3.81236 0
M  V30 23140 N 2125.51 -0.576345 1.46683 0
M  V30 23141 C 2126.45 -1.68494 1.57729 0
M  V30 23142 C 2127.42 -1.6067 0.421246 0
M  V30 23143 O 2128.61 -1.79788 0.638829 0
M  V30 23144 C 2125.75 -3.0683 1.57953 0
M  V30 23145 C 2124.86 -3.25233 2.84337 0
M  V30 23146 C 2124 -4.53855 2.76024 0
M  V30 23147 C 2123.04 -4.65623 3.97319 0
M  V30 23148 N 2122.17 -5.85578 3.87354 0
M  V30 23149 H 2127.01 -1.58391 2.52421 0
M  V30 23150 H 2124.55 -0.771863 1.25223 0
M  V30 23151 H 2126.51 -3.86909 1.56068 0
M  V30 23152 H 2125.14 -3.15815 0.667889 0
M  V30 23153 H 2124.19 -2.38715 2.96174 0
M  V30 23154 H 2125.5 -3.29795 3.74215 0
M  V30 23155 H 2124.66 -5.4217 2.72281 0
M  V30 23156 H 2123.4 -4.51741 1.83797 0
M  V30 23157 H 2122.4 -3.75724 4.01387 0
M  V30 23158 H 2123.63 -4.69511 4.90649 0
M  V30 23159 H 2121.57 -5.84449 2.97918 0
M  V30 23160 H 2121.49 -5.91436 4.70892 0
M  V30 23161 H 2122.76 -6.76306 3.87596 0
M  V30 23162 N 2126.99 -1.34495 -0.82151 0
M  V30 23163 C 2127.9 -1.28265 -1.96431 0
M  V30 23164 C 2128.91 -0.190092 -1.72959 0
M  V30 23165 O 2130.09 -0.416817 -1.9704 0
M  V30 23166 C 2127.15 -1.03935 -3.30754 0
M  V30 23167 C 2126.21 -2.22361 -3.67225 0
M  V30 23168 C 2125.45 -1.99182 -4.95139 0
M  V30 23169 O 2125.67 -0.950771 -5.6242 0
M  V30 23170 O 2124.6 -2.86169 -5.2952 0
M  V30 23171 H 2128.43 -2.2441 -2.04631 0
M  V30 23172 H 2126.01 -1.14716 -0.957114 0
M  V30 23173 H 2127.9 -0.921538 -4.112 0
M  V30 23174 H 2126.57 -0.108311 -3.23519 0
M  V30 23175 H 2125.48 -2.39702 -2.87217 0
M  V30 23176 H 2126.81 -3.1386 -3.79147 0
M  V30 23177 N 2128.46 1.04188 -1.18248 0
M  V30 23178 C 2129.71 1.76764 -0.971464 0
M  V30 23179 C 2130.03 1.89102 0.49997 0
M  V30 23180 O 2131.23 2.58519 0.829468 0
M  V30 23181 C 2129.69 3.17801 -1.68909 0
M  V30 23182 C 2129.3 3.1356 -3.19975 0
M  V30 23183 C 2131.04 3.94763 -1.56084 0
M  V30 23184 C 2128.95 4.49449 -3.84382 0
M  V30 23185 H 2127.88 0.662591 -0.359847 0
M  V30 23186 H 2130.53 1.16702 -1.41608 0
M  V30 23187 H 2128.91 3.78252 -1.17224 0
M  V30 23188 H 2130.08 2.62568 -3.78675 0
M  V30 23189 H 2128.4 2.50097 -3.32927 0
M  V30 23190 H 2131 4.95253 -2.01566 0
M  V30 23191 H 2131.34 4.13128 -0.512919 0
M  V30 23192 H 2131.87 3.40885 -2.05043 0
M  V30 23193 H 2128.61 4.36289 -4.89216 0
M  V30 23194 H 2128.13 5.00549 -3.3047 0
M  V30 23195 H 2129.81 5.18367 -3.87175 0
M  V30 23196 N 2129.94 0.98432 1.23081 0
M  V30 23197 C 2131.17 0.672559 1.95346 0
M  V30 23198 C 2131.58 -0.765295 1.73031 0
M  V30 23199 O 2130.92 -1.52708 1.02108 0
M  V30 23200 C 2130.99 0.887951 3.48361 0
M  V30 23201 C 2130.65 2.30863 3.944 0
M  V30 23202 C 2131.65 3.28757 4.02759 0
M  V30 23203 C 2129.33 2.64077 4.27281 0
M  V30 23204 C 2131.33 4.57943 4.43358 0
M  V30 23205 C 2129.01 3.93485 4.67561 0
M  V30 23206 C 2130.01 4.9023 4.75567 0
M  V30 23207 O 2129.7 6.17327 5.1494 0
M  V30 23208 H 2129.43 0.248593 0.628631 0
M  V30 23209 H 2131.98 1.31942 1.57418 0
M  V30 23210 H 2130.21 0.183919 3.86262 0
M  V30 23211 H 2131.9 0.572752 4.01839 0
M  V30 23212 H 2132.67 3.04428 3.77556 0
M  V30 23213 H 2128.55 1.89483 4.20258 0
M  V30 23214 H 2132.09 5.33456 4.49522 0
M  V30 23215 H 2127.99 4.17607 4.92214 0
M  V30 23216 H 2128.76 6.21137 5.3304 0
M  V30 23217 N 2131.42 -1.38259 0.756453 0
M  V30 23218 C 2132.65 -2.04335 0.324799 0
M  V30 23219 C 2133.06 -1.57053 -1.04784 0
M  V30 23220 O 2132.42 -0.744882 -1.66607 0
M  V30 23221 C 2132.47 -3.59882 0.341597 0
M  V30 23222 O 2132.19 -4.0543 1.66008 0
M  V30 23223 C 2133.69 -4.43179 -0.103565 0
M  V30 23224 H 2130.91 -0.656588 0.138324 0
M  V30 23225 H 2133.46 -1.76894 1.02611 0
M  V30 23226 H 2131.61 -3.8615 -0.310997 0
M  V30 23227 H 2132.03 -4.99876 1.58822 0
M  V30 23228 H 2133.5 -5.51985 -0.0406515 0
M  V30 23229 H 2133.98 -4.23827 -1.15185 0
M  V30 23230 H 2134.58 -4.22106 0.520263 0
M  V30 23231 N 2132.9 -0.505757 -1.49264 0
M  V30 23232 C 2134.12 0.0358953 -2.07369 0
M  V30 23233 C 2134.55 1.29628 -1.36302 0
M  V30 23234 O 2133.91 1.76338 -0.421242 0
M  V30 23235 C 2133.95 0.267709 -3.59605 0
M  V30 23236 O 2133.06 1.34146 -3.89973 0
M  V30 23237 H 2132.4 -0.0283388 -0.663395 0
M  V30 23238 H 2134.93 -0.70674 -1.92006 0
M  V30 23239 H 2134.94 0.497774 -4.04952 0
M  V30 23240 H 2133.61 -0.653126 -4.1074 0
M  V30 23241 H 2132.19 1.09597 -3.56431 0
M  V30 23242 N 2134.38 1.55765 -0.239796 0
M  V30 23243 C 2135.32 2.22467 0.679046 0
M  V30 23244 C 2136.32 1.20993 1.18562 0
M  V30 23245 O 2137.52 1.39024 1.14334 0
M  V30 23246 H 2133.9 0.713528 0.237447 0
M  V30 23247 H 2135.87 2.98254 0.0932403 0
M  V30 23248 C 2134.62 2.93244 1.86825 0
M  V30 23249 H 2133.94 3.71094 1.48759 0
M  V30 23250 H 2135.38 3.43289 2.48855 0
M  V30 23251 C 2133.84 1.96721 2.735 0
M  V30 23252 O 2134.37 1.49575 3.72814 0
M  V30 23253 N 2132.58 1.63976 2.39917 0
M  V30 23254 H 2132.12 2.02511 1.59208 0
M  V30 23255 H 2132.08 0.996588 2.98187 0
M  V30 23256 N 2135.85 -0.0334016 1.57565 0
M  V30 23257 C 2136.8 -1.04313 2.02738 0
M  V30 23258 C 2137.79 -1.32286 0.915933 0
M  V30 23259 O 2138.98 -1.31943 1.17983 0
M  V30 23260 C 2136.11 -2.34558 2.50674 0
M  V30 23261 C 2135.2 -2.09694 3.68632 0
M  V30 23262 N 2135.59 -1.54874 4.81506 0
M  V30 23263 C 2133.88 -2.39998 3.75922 0
M  V30 23264 C 2134.59 -1.45715 5.63154 0
M  V30 23265 N 2133.56 -1.93121 5.08139 0
M  V30 23266 H 2137.36 -0.613226 2.87431 0
M  V30 23267 H 2134.88 -0.23979 1.6062 0
M  V30 23268 H 2136.87 -3.07699 2.81296 0
M  V30 23269 H 2135.53 -2.7823 1.67386 0
M  V30 23270 H 2136.55 -1.23205 5.03032 0
M  V30 23271 H 2133.22 -2.86775 3.03424 0
M  V30 23272 H 2134.61 -1.03858 6.63825 0
M  V30 23273 N 2137.33 -1.54609 -0.305591 0
M  V30 23274 C 2138.58 -1.72882 -1.03898 0
M  V30 23275 C 2138.89 -0.519195 -1.88583 0
M  V30 23276 O 2140.1 -0.583633 -2.65153 0
M  V30 23277 C 2138.56 -3.05853 -1.89689 0
M  V30 23278 C 2138.16 -4.34278 -1.10029 0
M  V30 23279 C 2139.91 -3.33485 -2.62656 0
M  V30 23280 C 2137.82 -5.58302 -1.9507 0
M  V30 23281 H 2136.75 -0.64432 -0.391621 0
M  V30 23282 H 2139.4 -1.81093 -0.296223 0
M  V30 23283 H 2137.78 -2.91594 -2.67935 0
M  V30 23284 H 2138.95 -4.59358 -0.364293 0
M  V30 23285 H 2137.27 -4.13546 -0.486653 0
M  V30 23286 H 2139.86 -4.23345 -3.26624 0
M  V30 23287 H 2140.21 -2.52157 -3.31244 0
M  V30 23288 H 2140.74 -3.48694 -1.91462 0
M  V30 23289 H 2137.48 -6.42285 -1.3096 0
M  V30 23290 H 2137 -5.37415 -2.66355 0
M  V30 23291 H 2138.68 -5.95386 -2.53228 0
M  V30 23292 N 2138.81 0.568558 -1.46987 0
M  V30 23293 C 2140.06 1.32596 -1.5424 0
M  V30 23294 C 2140.41 1.91386 -0.197273 0
M  V30 23295 O 2139.7 1.74294 0.795739 0
M  V30 23296 C 2139.9 2.46501 -2.5879 0
M  V30 23297 C 2139.73 1.98871 -4.03337 0
M  V30 23298 C 2138.5 1.83234 -4.70907 0
M  V30 23299 C 2140.7 1.53991 -4.90705 0
M  V30 23300 N 2138.68 1.29824 -6.00016 0
M  V30 23301 C 2140.05 1.12269 -6.09751 0
M  V30 23302 C 2142.1 1.41938 -4.7724 0
M  V30 23303 C 2140.81 0.596928 -7.16819 0
M  V30 23304 C 2142.83 0.907644 -5.84394 0
M  V30 23305 C 2142.19 0.500286 -7.02621 0
M  V30 23306 H 2138.29 0.477653 -0.61917 0
M  V30 23307 H 2140.88 0.645779 -1.83678 0
M  V30 23308 H 2139.05 3.12064 -2.31238 0
M  V30 23309 H 2140.78 3.13481 -2.55953 0
M  V30 23310 H 2137.54 2.05608 -4.26641 0
M  V30 23311 H 2137.96 1.0524 -6.6877 0
M  V30 23312 H 2142.6 1.72047 -3.86212 0
M  V30 23313 H 2140.32 0.283446 -8.07603 0
M  V30 23314 H 2143.91 0.8181 -5.76019 0
M  V30 23315 H 2142.79 0.110434 -7.84122 0
M  V30 23316 N 2140.29 1.34929 0.814366 0
M  V30 23317 C 2141.24 1.27211 1.92577 0
M  V30 23318 C 2142.21 0.145599 1.65461 0
M  V30 23319 O 2143.39 0.328007 1.87959 0
M  V30 23320 C 2140.53 1.04214 3.28989 0
M  V30 23321 C 2139.64 2.25716 3.68343 0
M  V30 23322 C 2138.78 1.95932 4.93745 0
M  V30 23323 C 2137.82 3.13531 5.25704 0
M  V30 23324 N 2136.95 2.83574 6.42285 0
M  V30 23325 H 2141.79 2.22255 1.98511 0
M  V30 23326 H 2139.33 1.10491 0.97109 0
M  V30 23327 H 2141.29 0.889147 4.07615 0
M  V30 23328 H 2139.92 0.128343 3.22545 0
M  V30 23329 H 2138.97 2.51906 2.85039 0
M  V30 23330 H 2140.28 3.13553 3.87925 0
M  V30 23331 H 2139.44 1.77419 5.80179 0
M  V30 23332 H 2138.18 1.05369 4.76181 0
M  V30 23333 H 2137.18 3.32631 4.37763 0
M  V30 23334 H 2138.41 4.04885 5.45202 0
M  V30 23335 H 2136.35 1.95596 6.26161 0
M  V30 23336 H 2136.27 3.64944 6.62081 0
M  V30 23337 H 2137.54 2.68584 7.31767 0
M  V30 23338 N 2141.77 -1.0356 1.18799 0
M  V30 23339 C 2142.7 -2.13602 0.943213 0
M  V30 23340 C 2143.68 -1.69669 -0.120965 0
M  V30 23341 O 2144.86 -1.94173 0.0326748 0
M  V30 23342 C 2141.99 -3.44054 0.473716 0
M  V30 23343 C 2140.95 -4.01635 1.47896 0
M  V30 23344 C 2140.27 -5.27628 0.866789 0
M  V30 23345 C 2141.57 -4.3722 2.8572 0
M  V30 23346 H 2143.27 -2.34336 1.86351 0
M  V30 23347 H 2140.81 -1.12617 0.897406 0
M  V30 23348 H 2142.77 -4.20402 0.289804 0
M  V30 23349 H 2141.49 -3.23021 -0.482167 0
M  V30 23350 H 2140.15 -3.27374 1.6499 0
M  V30 23351 H 2139.8 -5.02908 -0.0964386 0
M  V30 23352 H 2139.5 -5.67115 1.53799 0
M  V30 23353 H 2141.02 -6.06649 0.693523 0
M  V30 23354 H 2142.43 -5.04533 2.72248 0
M  V30 23355 H 2140.83 -4.87771 3.49571 0
M  V30 23356 H 2141.9 -3.46821 3.38885 0
M  V30 23357 N 2143.25 -0.990834 -1.22557 0
M  V30 23358 C 2144.49 -0.665533 -1.91251 0
M  V30 23359 C 2144.82 0.802172 -1.77188 0
M  V30 23360 O 2144.08 1.5954 -1.13339 0
M  V30 23361 C 2144.37 -1.01474 -3.42692 0
M  V30 23362 C 2144.04 -2.47437 -3.76943 0
M  V30 23363 C 2142.7 -2.87325 -3.86002 0
M  V30 23364 C 2145.05 -3.42055 -3.93253 0
M  V30 23365 C 2142.38 -4.20825 -4.08807 0
M  V30 23366 C 2144.73 -4.75211 -4.17561 0
M  V30 23367 C 2143.4 -5.14843 -4.24844 0
M  V30 23368 H 2142.67 -0.243536 -0.699837 0
M  V30 23369 H 2145.32 -1.24664 -1.45366 0
M  V30 23370 H 2143.62 -0.351686 -3.90218 0
M  V30 23371 H 2145.32 -0.741104 -3.94092 0
M  V30 23372 H 2141.91 -2.15518 -3.70473 0
M  V30 23373 H 2146.09 -3.1241 -3.85634 0
M  V30 23374 H 2141.35 -4.51123 -4.12672 0
M  V30 23375 H 2145.52 -5.48475 -4.29125 0
M  V30 23376 H 2143.15 -6.18306 -4.42268 0
M  V30 23377 N 2144.72 1.37856 -0.763775 0
M  V30 23378 C 2145.63 2.3415 -0.145216 0
M  V30 23379 C 2146.65 1.59782 0.688888 0
M  V30 23380 O 2147.83 1.91919 0.610668 0
M  V30 23381 C 2144.89 3.38934 0.729718 0
M  V30 23382 C 2143.95 4.29132 -0.119926 0
M  V30 23383 C 2143.18 5.28911 0.713343 0
M  V30 23384 O 2143.41 5.36002 1.95086 0
M  V30 23385 O 2142.34 6.01767 0.126758 0
M  V30 23386 H 2146.17 2.88763 -0.940736 0
M  V30 23387 H 2143.75 1.39879 -0.524814 0
M  V30 23388 H 2145.63 4.03066 1.22946 0
M  V30 23389 H 2144.31 2.86661 1.50356 0
M  V30 23390 H 2143.22 3.68127 -0.665843 0
M  V30 23391 H 2144.55 4.84688 -0.856664 0
M  V30 23392 N 2146.2 0.513665 1.48994 0
M  V30 23393 C 2147.15 -0.271533 2.3101 0
M  V30 23394 C 2148.14 -0.950911 1.40193 0
M  V30 23395 O 2149.35 -0.877155 1.57181 0
M  V30 23396 H 2145.72 -0.106429 0.744431 0
M  V30 23397 H 2147.7 0.440007 2.95138 0
M  V30 23398 C 2146.44 -1.3155 3.21854 0
M  V30 23399 H 2145.77 -0.802134 3.91671 0
M  V30 23400 H 2147.21 -1.83663 3.82157 0
M  V30 23401 C 2145.67 -2.34045 2.42332 0
M  V30 23402 O 2146.2 -3.40173 2.13647 0
M  V30 23403 N 2144.4 -2.06838 2.04123 0
M  V30 23404 H 2143.95 -1.20552 2.27651 0
M  V30 23405 H 2143.91 -2.75641 1.51225 0
M  V30 23406 N 2147.68 -1.55636 0.248053 0
M  V30 23407 C 2148.93 -1.98972 -0.37637 0
M  V30 23408 C 2149.25 -1.1362 -1.57863 0
M  V30 23409 O 2148.51 -0.187287 -1.94802 0
M  V30 23410 C 2148.81 -3.47664 -0.828526 0
M  V30 23411 C 2148.47 -4.50114 0.266108 0
M  V30 23412 C 2147.14 -4.77851 0.566745 0
M  V30 23413 C 2149.49 -5.11418 1.00506 0
M  V30 23414 C 2146.82 -5.64166 1.61039 0
M  V30 23415 C 2149.17 -5.98865 2.03823 0
M  V30 23416 C 2147.83 -6.24934 2.3455 0
M  V30 23417 H 2147.1 -0.728089 -0.137723 0
M  V30 23418 H 2149.75 -1.8816 0.356118 0
M  V30 23419 H 2148.05 -3.55814 -1.64024 0
M  V30 23420 H 2149.75 -3.78583 -1.32196 0
M  V30 23421 H 2146.34 -4.28595 0.0216504 0
M  V30 23422 H 2150.53 -4.90036 0.786048 0
M  V30 23423 H 2145.78 -5.82619 1.85378 0
M  V30 23424 H 2149.96 -6.45409 2.61573 0
M  V30 23425 H 2147.58 -6.91612 3.15558 0
M  V30 23426 N 2149.16 0.0250451 -1.5758 0
M  V30 23427 C 2150.09 1.02382 -2.09857 0
M  V30 23428 C 2151.07 1.37455 -1.002 0
M  V30 23429 O 2152.25 1.46269 -1.27746 0
M  V30 23430 C 2149.38 2.32351 -2.58128 0
M  V30 23431 C 2148.34 2.11509 -3.72086 0
M  V30 23432 C 2147.66 3.47274 -4.06577 0
M  V30 23433 C 2148.96 1.49799 -5.00357 0
M  V30 23434 H 2150.66 0.58863 -2.93557 0
M  V30 23435 H 2148.2 0.281696 -1.41218 0
M  V30 23436 H 2150.16 3.02556 -2.93322 0
M  V30 23437 H 2148.88 2.77938 -1.71518 0
M  V30 23438 H 2147.54 1.43737 -3.37247 0
M  V30 23439 H 2147.19 3.90516 -3.17027 0
M  V30 23440 H 2146.89 3.34153 -4.83338 0
M  V30 23441 H 2148.41 4.18834 -4.44309 0
M  V30 23442 H 2149.83 2.09927 -5.33483 0
M  V30 23443 H 2148.22 1.47241 -5.81756 0
M  V30 23444 H 2149.29 0.464269 -4.82672 0
M  V30 23445 N 2150.64 1.54769 0.297388 0
M  V30 23446 C 2151.88 1.74479 1.03367 0
M  V30 23447 C 2152.21 0.531007 1.86799 0
M  V30 23448 O 2151.49 -0.471847 1.8869 0
M  V30 23449 C 2151.77 3.03588 1.93665 0
M  V30 23450 C 2151.63 4.35274 1.13389 0
M  V30 23451 C 2152.94 3.28586 2.92779 0
M  V30 23452 H 2150.06 0.63483 0.37438 0
M  V30 23453 H 2152.71 1.87487 0.308023 0
M  V30 23454 H 2150.86 2.9263 2.55538 0
M  V30 23455 H 2152.53 4.58155 0.537739 0
M  V30 23456 H 2150.77 4.31596 0.436685 0
M  V30 23457 H 2151.44 5.21886 1.7983 0
M  V30 23458 H 2153.92 3.39177 2.41035 0
M  V30 23459 H 2152.79 4.20233 3.53122 0
M  V30 23460 H 2153.05 2.47054 3.66629 0
M  V30 23461 N 2152.11 -0.560755 1.47286 0
M  V30 23462 C 2153.39 -1.32148 1.4421 0
M  V30 23463 C 2153.77 -2.10654 0.137154 0
M  V30 23464 O 2153.12 -2.10818 -0.88136 0
M  V30 23465 C 2153.33 -2.22899 2.68546 0
M  V30 23466 C 2154.68 -2.84031 3.15613 0
M  V30 23467 O 2155.7 -2.33202 2.69249 0
M  V30 23468 O 2154.56 -3.76408 3.96206 0
M  V30 23469 H 2151.65 -0.594853 0.574525 0
M  V30 23470 H 2154.2 -0.579952 1.59482 0
M  V30 23471 H 2152.97 -1.64465 3.55059 0
M  V30 23472 H 2152.59 -3.04353 2.55842 0
M  V30 23473 N 2153.59 -1.35359 -0.807199 0
M  V30 23474 C 2154.52 -1.22581 -1.92481 0
M  V30 23475 C 2155.5 -0.113846 -1.62201 0
M  V30 23476 O 2156.69 -0.281827 -1.86381 0
M  V30 23477 C 2153.81 -0.887326 -3.2687 0
M  V30 23478 C 2152.86 -2.01126 -3.76099 0
M  V30 23479 S 2153.69 -3.62689 -3.93976 0
M  V30 23480 C 2154.85 -3.30916 -5.31268 0
M  V30 23481 H 2155.08 -2.17182 -2.03026 0
M  V30 23482 H 2152.61 -1.20568 -0.964508 0
M  V30 23483 H 2154.57 -0.698835 -4.04508 0
M  V30 23484 H 2153.23 0.0406023 -3.14074 0
M  V30 23485 H 2152.43 -1.72855 -4.73431 0
M  V30 23486 H 2152.03 -2.15805 -3.05457 0
M  V30 23487 H 2154.32 -2.83706 -6.15237 0
M  V30 23488 H 2155.26 -4.27445 -5.64532 0
M  V30 23489 H 2155.67 -2.667 -4.97525 0
M  V30 23490 N 2155.07 1.02928 -1.19346 0
M  V30 23491 C 2156.03 2.09361 -0.932765 0
M  V30 23492 C 2157.03 1.60567 0.086582 0
M  V30 23493 O 2158.22 1.73569 -0.148116 0
M  V30 23494 C 2155.35 3.38524 -0.401767 0
M  V30 23495 H 2156.55 2.33922 -1.87671 0
M  V30 23496 H 2154.1 1.19532 -1.00707 0
M  V30 23497 H 2154.84 3.19632 0.548245 0
M  V30 23498 H 2154.62 3.75261 -1.13672 0
M  V30 23499 H 2156.11 4.16919 -0.238443 0
M  V30 23500 N 2156.55 0.997319 1.2203 0
M  V30 23501 C 2157.96 0.708807 1.42997 0
M  V30 23502 C 2158.16 -0.718903 1.88239 0
M  V30 23503 O 2157.22 -1.48925 2.03906 0
M  V30 23504 C 2158.53 1.71814 2.4678 0
M  V30 23505 C 2160.08 1.73408 2.60573 0
M  V30 23506 C 2160.56 2.73216 3.67582 0
M  V30 23507 N 2162.05 2.71837 3.75045 0
M  V30 23508 C 2162.78 3.45728 4.57449 0
M  V30 23509 N 2162.28 4.29233 5.43811 0
M  V30 23510 N 2164.07 3.34413 4.51801 0
M  V30 23511 H 2156.22 1.91932 0.909709 0
M  V30 23512 H 2158.48 0.828004 0.461642 0
M  V30 23513 H 2158.19 2.74 2.20492 0
M  V30 23514 H 2158.06 1.51457 3.45457 0
M  V30 23515 H 2160.45 0.719178 2.86202 0
M  V30 23516 H 2160.53 1.97835 1.62157 0
M  V30 23517 H 2160.18 3.74859 3.427 0
M  V30 23518 H 2160.11 2.46058 4.65578 0
M  V30 23519 H 2162.6 2.11248 3.13341 0
M  V30 23520 H 2162.91 4.82429 6.03723 0
M  V30 23521 H 2161.26 4.33319 5.43378 0
M  V30 23522 H 2164.45 2.68614 3.83359 0
M  V30 23523 H 2164.62 3.92257 5.15789 0
M  V30 23524 N 2158.03 -1.37449 0.771075 0
M  V30 23525 C 2159.27 -2.00004 0.335588 0
M  V30 23526 C 2159.61 -1.6107 -1.0849 0
M  V30 23527 O 2158.88 -0.856568 -1.74623 0
M  V30 23528 C 2159.16 -3.56908 0.478386 0
M  V30 23529 C 2159.02 -4.05753 1.94124 0
M  V30 23530 C 2160.34 -4.39942 -0.117748 0
M  V30 23531 H 2157.45 -0.726594 0.12341 0
M  V30 23532 H 2160.1 -1.63136 0.973992 0
M  V30 23533 H 2158.25 -3.88445 -0.0651015 0
M  V30 23534 H 2159.92 -3.84784 2.54438 0
M  V30 23535 H 2158.16 -3.57971 2.45029 0
M  V30 23536 H 2158.83 -5.14796 1.99222 0
M  V30 23537 H 2161.31 -4.14659 0.34597 0
M  V30 23538 H 2160.18 -5.48899 0.0123067 0
M  V30 23539 H 2160.45 -4.25276 -1.20799 0
M  V30 23540 N 2159.5 -0.52156 -1.4872 0
M  V30 23541 C 2160.74 0.013698 -2.04395 0
M  V30 23542 C 2161.11 1.32371 -1.39076 0
M  V30 23543 O 2162.31 1.94448 -1.8559 0
M  V30 23544 C 2160.58 0.141856 -3.57118 0
M  V30 23545 S 2162.14 0.628395 -4.34277 0
M  V30 23546 H 2158.96 -0.00803298 -0.710955 0
M  V30 23547 H 2161.56 -0.700206 -1.8253 0
M  V30 23548 H 2160.26 -0.816539 -4.02195 0
M  V30 23549 H 2159.79 0.880391 -3.83422 0
M  V30 23550 H 2161.81 1.8943 -4.58618 0
M  V30 23551 N 2160.98 1.55502 -0.256304 0
M  V30 23552 C 2161.93 2.23175 0.655412 0
M  V30 23553 C 2162.92 1.22244 1.17272 0
M  V30 23554 O 2164.13 1.40229 1.12853 0
M  V30 23555 H 2160.51 0.716007 0.229866 0
M  V30 23556 H 2162.48 2.98336 0.0616012 0
M  V30 23557 C 2161.23 2.95209 1.83704 0
M  V30 23558 H 2160.55 3.72651 1.44814 0
M  V30 23559 H 2161.99 3.45909 2.452 0
M  V30 23560 C 2160.45 1.99611 2.71398 0
M  V30 23561 O 2160.98 1.53521 3.71207 0
M  V30 23562 N 2159.18 1.66511 2.38165 0
M  V30 23563 H 2158.73 2.04188 1.57051 0
M  V30 23564 H 2158.69 1.02816 2.97113 0
M  V30 23565 N 2162.46 -0.0166879 1.57591 0
M  V30 23566 C 2163.69 -0.716426 1.941 0
M  V30 23567 C 2164.1 -1.68225 0.857081 0
M  V30 23568 O 2163.46 -1.81748 -0.165469 0
M  V30 23569 C 2163.51 -1.46279 3.30583 0
M  V30 23570 O 2163.23 -0.535718 4.34812 0
M  V30 23571 C 2164.73 -2.25856 3.8145 0
M  V30 23572 H 2161.95 -0.200593 0.640315 0
M  V30 23573 H 2164.5 0.0294696 2.04479 0
M  V30 23574 H 2162.65 -2.16045 3.21564 0
M  V30 23575 H 2163.07 -1.06046 5.13668 0
M  V30 23576 H 2164.54 -2.73602 4.79423 0
M  V30 23577 H 2165.02 -3.07813 3.13285 0
M  V30 23578 H 2165.62 -1.61139 3.93592 0
M  V30 23579 N 2163.94 -1.54924 -0.289176 0
M  V30 23580 C 2165.17 -1.78772 -1.04154 0
M  V30 23581 C 2165.58 -0.553005 -1.8052 0
M  V30 23582 O 2164.94 0.47752 -1.76142 0
M  V30 23583 C 2164.99 -3.00278 -2.01284 0
M  V30 23584 O 2164.71 -4.18979 -1.28015 0
M  V30 23585 C 2166.21 -3.36605 -2.88464 0
M  V30 23586 H 2163.43 -0.595936 -0.308384 0
M  V30 23587 H 2165.98 -2.01903 -0.324862 0
M  V30 23588 H 2164.13 -2.79321 -2.68438 0
M  V30 23589 H 2164.54 -4.87563 -1.93345 0
M  V30 23590 H 2166.02 -4.24837 -3.52446 0
M  V30 23591 H 2166.5 -2.55285 -3.57388 0
M  V30 23592 H 2167.1 -3.59764 -2.26825 0
M  V30 23593 N 2165.42 0.552936 -1.47582 0
M  V30 23594 C 2166.64 1.33522 -1.58049 0
M  V30 23595 C 2167.06 1.87366 -0.232239 0
M  V30 23596 O 2166.42 1.6522 0.775159 0
M  V30 23597 C 2166.47 2.50216 -2.60911 0
M  V30 23598 O 2166.19 1.98596 -3.90502 0
M  V30 23599 C 2167.69 3.42367 -2.81602 0
M  V30 23600 H 2164.91 0.406868 -0.533572 0
M  V30 23601 H 2167.45 0.669389 -1.93234 0
M  V30 23602 H 2165.61 3.12728 -2.28648 0
M  V30 23603 H 2166.02 2.74809 -4.46744 0
M  V30 23604 H 2167.5 4.20653 -3.57429 0
M  V30 23605 H 2167.97 3.96177 -1.8958 0
M  V30 23606 H 2168.58 2.85666 -3.15079 0
M  V30 23607 N 2166.89 1.35785 0.800009 0
M  V30 23608 C 2168.17 1.19984 1.54477 0
M  V30 23609 C 2168.55 -0.218358 2.09968 0
M  V30 23610 O 2167.9 -1.2227 1.93035 0
M  V30 23611 C 2168.11 2.27325 2.6481 0
M  V30 23612 C 2169.46 2.63463 3.32975 0
M  V30 23613 O 2170.48 2.26288 2.75086 0
M  V30 23614 O 2169.34 3.27408 4.37569 0
M  V30 23615 H 2166.43 0.466534 0.682844 0
M  V30 23616 H 2168.98 1.47486 0.839403 0
M  V30 23617 H 2167.75 3.22418 2.21725 0
M  V30 23618 H 2167.38 2.01129 3.42976 0
M  V30 23619 N 2168.37 -1.02294 1.19891 0
M  V30 23620 C 2169.79 -1.28069 0.952398 0
M  V30 23621 C 2169.99 -1.98041 -0.371776 0
M  V30 23622 O 2169.04 -2.2719 -1.10185 0
M  V30 23623 C 2170.36 -2.12194 2.13059 0
M  V30 23624 C 2171.91 -2.25482 2.17087 0
M  V30 23625 C 2172.38 -3.12982 3.34375 0
M  V30 23626 N 2173.87 -3.2057 3.34348 0
M  V30 23627 C 2174.61 -3.88481 4.21747 0
M  V30 23628 N 2174.1 -4.58571 5.19311 0
M  V30 23629 N 2175.9 -3.8494 4.09606 0
M  V30 23630 H 2168.05 -0.55294 2.05076 0
M  V30 23631 H 2170.31 -0.306622 0.897043 0
M  V30 23632 H 2170.02 -1.68109 3.08921 0
M  V30 23633 H 2169.89 -3.12919 2.10621 0
M  V30 23634 H 2172.28 -2.68795 1.21792 0
M  V30 23635 H 2172.36 -1.24287 2.23576 0
M  V30 23636 H 2172 -2.70376 4.29953 0
M  V30 23637 H 2171.93 -4.1425 3.25123 0
M  V30 23638 H 2174.42 -2.70658 2.63729 0
M  V30 23639 H 2174.74 -5.08039 5.82337 0
M  V30 23640 H 2173.08 -4.57417 5.23254 0
M  V30 23641 H 2176.27 -3.29326 3.32659 0
M  V30 23642 H 2176.44 -4.37591 4.77931 0
M  V30 23643 N 2169.85 -1.00378 -1.21499 0
M  V30 23644 C 2170.8 -0.563153 -2.23824 0
M  V30 23645 C 2171.77 0.410151 -1.60956 0
M  V30 23646 O 2172.95 0.312473 -1.88224 0
M  V30 23647 C 2170.09 0.105277 -3.44939 0
M  V30 23648 C 2169.21 -0.91106 -4.22284 0
M  V30 23649 C 2168.34 -0.215019 -5.30765 0
M  V30 23650 C 2167.38 -1.21899 -5.99839 0
M  V30 23651 N 2166.52 -0.550506 -6.99938 0
M  V30 23652 H 2171.36 -1.44041 -2.60876 0
M  V30 23653 H 2168.89 -0.721302 -1.28202 0
M  V30 23654 H 2170.85 0.509838 -4.14073 0
M  V30 23655 H 2169.48 0.946261 -3.08619 0
M  V30 23656 H 2168.53 -1.43387 -3.52341 0
M  V30 23657 H 2169.85 -1.67513 -4.69831 0
M  V30 23658 H 2169 0.245713 -6.06202 0
M  V30 23659 H 2167.74 0.581469 -4.84221 0
M  V30 23660 H 2166.74 -1.69024 -5.23174 0
M  V30 23661 H 2167.97 -2.01654 -6.48469 0
M  V30 23662 H 2165.91 0.226347 -6.55609 0
M  V30 23663 H 2165.83 -1.25285 -7.45547 0
M  V30 23664 H 2167.1 -0.112938 -7.79418 0
M  V30 23665 N 2171.33 1.37038 -0.778354 0
M  V30 23666 C 2172.28 2.27554 -0.14251 0
M  V30 23667 C 2173.26 1.46423 0.66702 0
M  V30 23668 O 2174.45 1.68913 0.528909 0
M  V30 23669 C 2171.58 3.35436 0.730593 0
M  V30 23670 C 2170.67 4.2401 -0.0871266 0
M  V30 23671 N 2171.06 4.92876 -1.13609 0
M  V30 23672 C 2169.36 4.45793 0.135807 0
M  V30 23673 C 2170.06 5.58309 -1.63295 0
M  V30 23674 N 2169.04 5.3534 -0.944018 0
M  V30 23675 H 2172.84 2.78275 -0.945535 0
M  V30 23676 H 2170.35 1.50233 -0.616743 0
M  V30 23677 H 2172.35 3.99198 1.20194 0
M  V30 23678 H 2171.01 2.86271 1.53229 0
M  V30 23679 H 2172.02 4.95143 -1.51835 0
M  V30 23680 H 2168.7 4.07487 0.908887 0
M  V30 23681 H 2170.09 6.23333 -2.50809 0
M  V30 23682 N 2172.81 0.529439 1.48441 0
M  V30 23683 C 2173.77 -0.222884 2.28114 0
M  V30 23684 C 2174.77 -0.868268 1.35343 0
M  V30 23685 O 2175.96 -0.728402 1.5824 0
M  V30 23686 C 2173.09 -1.3225 3.14202 0
M  V30 23687 H 2174.29 0.476616 2.96088 0
M  V30 23688 H 2171.84 0.28536 1.53673 0
M  V30 23689 H 2172.57 -2.05527 2.50857 0
M  V30 23690 H 2172.36 -0.864853 3.82443 0
M  V30 23691 H 2173.85 -1.85168 3.74303 0
M  V30 23692 N 2174.29 -1.55364 0.264547 0
M  V30 23693 C 2175.56 -1.9133 -0.406489 0
M  V30 23694 C 2175.94 -1.18752 -1.74531 0
M  V30 23695 O 2175.29 -0.310831 -2.26376 0
M  V30 23696 C 2175.5 -3.44523 -0.557199 0
M  V30 23697 C 2176.85 -4.16107 -0.844973 0
M  V30 23698 O 2177.87 -3.50359 -0.642406 0
M  V30 23699 O 2176.73 -5.32438 -1.23175 0
M  V30 23700 H 2173.83 -0.796963 -0.220859 0
M  V30 23701 H 2176.37 -1.66846 0.309918 0
M  V30 23702 H 2175.14 -3.89397 0.385423 0
M  V30 23703 H 2174.77 -3.74926 -1.32348 0
M  V30 23704 N 2175.76 0.00833021 -1.57598 0
M  V30 23705 C 2177.01 0.69406 -1.89382 0
M  V30 23706 C 2177.33 1.75397 -0.865751 0
M  V30 23707 O 2178.53 2.49374 -1.07353 0
M  V30 23708 C 2176.99 1.28562 -3.36154 0
M  V30 23709 C 2176.6 0.260972 -4.47239 0
M  V30 23710 C 2178.34 1.95003 -3.7706 0
M  V30 23711 C 2176.25 0.862051 -5.85083 0
M  V30 23712 H 2175.18 0.262992 -0.706648 0
M  V30 23713 H 2177.83 -0.0508492 -1.8343 0
M  V30 23714 H 2176.21 2.08092 -3.36918 0
M  V30 23715 H 2177.38 -0.50913 -4.57979 0
M  V30 23716 H 2175.7 -0.302516 -4.153 0
M  V30 23717 H 2178.3 2.40863 -4.77377 0
M  V30 23718 H 2178.64 2.77706 -3.10137 0
M  V30 23719 H 2179.17 1.22218 -3.7856 0
M  V30 23720 H 2175.91 0.0739761 -6.55458 0
M  V30 23721 H 2175.43 1.60151 -5.78024 0
M  V30 23722 H 2177.11 1.3632 -6.32476 0
M  V30 23723 N 2177.24 1.55075 0.280956 0
M  V30 23724 C 2178.49 1.75306 1.01361 0
M  V30 23725 C 2178.82 0.549775 1.86568 0
M  V30 23726 O 2178.07 -0.467908 1.90024 0
M  V30 23727 C 2178.37 3.00658 1.93234 0
M  V30 23728 C 2178.04 4.3356 1.23841 0
M  V30 23729 C 2176.7 4.69683 1.0465 0
M  V30 23730 C 2179.05 5.15863 0.743962 0
M  V30 23731 C 2176.38 5.85671 0.347296 0
M  V30 23732 C 2178.73 6.32573 0.0583841 0
M  V30 23733 C 2177.39 6.67342 -0.145308 0
M  V30 23734 H 2176.66 0.641491 0.370905 0
M  V30 23735 H 2179.31 1.89343 0.286608 0
M  V30 23736 H 2177.62 2.81488 2.72529 0
M  V30 23737 H 2179.31 3.13507 2.50029 0
M  V30 23738 H 2175.9 4.05163 1.39788 0
M  V30 23739 H 2180.09 4.88438 0.879877 0
M  V30 23740 H 2175.34 6.11139 0.178683 0
M  V30 23741 H 2179.52 6.95606 -0.332548 0
M  V30 23742 H 2177.14 7.5707 -0.689091 0
M  V30 23743 N 2178.72 -0.545102 1.47873 0
M  V30 23744 C 2179.65 -1.6606 1.64153 0
M  V30 23745 C 2180.63 -1.62869 0.490679 0
M  V30 23746 O 2181.82 -1.80302 0.721451 0
M  V30 23747 C 2178.95 -3.04681 1.66694 0
M  V30 23748 C 2177.9 -3.22724 2.81128 0
M  V30 23749 C 2177.23 -4.62253 2.68749 0
M  V30 23750 C 2178.53 -3.06939 4.22594 0
M  V30 23751 H 2180.22 -1.52691 2.57538 0
M  V30 23752 H 2177.77 -0.733146 1.23939 0
M  V30 23753 H 2179.72 -3.82576 1.76674 0
M  V30 23754 H 2178.44 -3.19037 0.698781 0
M  V30 23755 H 2177.1 -2.47241 2.7068 0
M  V30 23756 H 2176.75 -4.73425 1.69935 0
M  V30 23757 H 2176.45 -4.75273 3.45527 0
M  V30 23758 H 2177.97 -5.42268 2.80674 0
M  V30 23759 H 2179.39 -3.7464 4.33956 0
M  V30 23760 H 2177.78 -3.31461 5.00253 0
M  V30 23761 H 2178.85 -2.03538 4.40114 0
M  V30 23762 N 2180.2 -1.36208 -0.792797 0
M  V30 23763 C 2181.11 -1.32403 -1.93666 0
M  V30 23764 C 2182.12 -0.226736 -1.72516 0
M  V30 23765 O 2183.3 -0.458518 -1.96111 0
M  V30 23766 C 2180.36 -1.10928 -3.28475 0
M  V30 23767 C 2179.43 -2.301 -3.62426 0
M  V30 23768 C 2178.66 -2.0964 -4.90802 0
M  V30 23769 O 2178.88 -1.06985 -5.60277 0
M  V30 23770 O 2177.82 -2.97336 -5.23331 0
M  V30 23771 H 2181.64 -2.287 -1.99825 0
M  V30 23772 H 2179.23 -1.1672 -0.932566 0
M  V30 23773 H 2181.11 -1.00855 -4.09153 0
M  V30 23774 H 2179.78 -0.17691 -3.23216 0
M  V30 23775 H 2178.69 -2.45741 -2.82068 0
M  V30 23776 H 2180.02 -3.21832 -3.72405 0
M  V30 23777 N 2181.68 1.01656 -1.20431 0
M  V30 23778 C 2182.62 2.10198 -0.953184 0
M  V30 23779 C 2183.59 1.6569 0.116613 0
M  V30 23780 O 2184.78 1.90779 -0.0281152 0
M  V30 23781 C 2181.92 3.4129 -0.511397 0
M  V30 23782 C 2181.03 3.99275 -1.64935 0
M  V30 23783 C 2180.17 5.18427 -1.15787 0
M  V30 23784 C 2179.2 5.68496 -2.2689 0
M  V30 23785 N 2178.34 6.78909 -1.7896 0
M  V30 23786 H 2183.18 2.31015 -1.88245 0
M  V30 23787 H 2180.72 1.13288 -0.938314 0
M  V30 23788 H 2182.68 4.16529 -0.236575 0
M  V30 23789 H 2181.31 3.20545 0.380867 0
M  V30 23790 H 2180.36 3.21132 -2.03909 0
M  V30 23791 H 2181.67 4.32437 -2.48595 0
M  V30 23792 H 2180.82 6.00871 -0.839013 0
M  V30 23793 H 2179.56 4.8683 -0.291159 0
M  V30 23794 H 2178.57 4.84657 -2.59592 0
M  V30 23795 H 2179.79 6.02127 -3.14037 0
M  V30 23796 H 2177.74 6.49141 -0.946156 0
M  V30 23797 H 2177.66 7.11265 -2.562 0
M  V30 23798 H 2178.92 7.64917 -1.50074 0
M  V30 23799 N 2183.15 1.01021 1.20965 0
M  V30 23800 C 2184.39 0.704323 1.91882 0
M  V30 23801 C 2184.76 -0.751586 1.76678 0
M  V30 23802 O 2185.96 -1.16969 2.42016 0
M  V30 23803 C 2184.23 1.12016 3.39392 0
M  V30 23804 S 2185.79 0.935278 4.28717 0
M  V30 23805 H 2182.61 0.256971 0.662938 0
M  V30 23806 H 2185.21 1.29613 1.46359 0
M  V30 23807 H 2183.91 2.17579 3.47977 0
M  V30 23808 H 2183.44 0.520871 3.89937 0
M  V30 23809 H 2185.46 -0.164746 4.95926 0
M  V30 23810 N 2184.63 -1.36623 0.78561 0
M  V30 23811 C 2185.88 -1.99637 0.356782 0
M  V30 23812 C 2186.21 -1.62212 -1.06775 0
M  V30 23813 O 2185.49 -0.875041 -1.73705 0
M  V30 23814 C 2185.77 -3.56381 0.516214 0
M  V30 23815 C 2185.62 -4.03672 1.98417 0
M  V30 23816 C 2186.94 -4.40043 -0.0710792 0
M  V30 23817 H 2184.06 -0.725244 0.13111 0
M  V30 23818 H 2186.7 -1.62094 0.99124 0
M  V30 23819 H 2184.85 -3.88493 -0.023898 0
M  V30 23820 H 2186.52 -3.82064 2.58505 0
M  V30 23821 H 2184.77 -3.55352 2.48812 0
M  V30 23822 H 2185.44 -5.12654 2.0467 0
M  V30 23823 H 2187.91 -4.14269 0.389931 0
M  V30 23824 H 2186.79 -5.48855 0.070524 0
M  V30 23825 H 2187.05 -4.26534 -1.16281 0
M  V30 23826 N 2186.11 -0.537304 -1.48158 0
M  V30 23827 C 2187.34 -0.0101482 -2.06898 0
M  V30 23828 C 2187.75 1.27458 -1.39283 0
M  V30 23829 O 2187.11 1.76 -0.48274 0
M  V30 23830 C 2187.16 0.209896 -3.6089 0
M  V30 23831 O 2186.88 -1.02394 -4.25966 0
M  V30 23832 C 2188.38 0.776601 -4.36444 0
M  V30 23833 H 2185.6 -0.0368227 -0.669989 0
M  V30 23834 H 2188.15 -0.745039 -1.90445 0
M  V30 23835 H 2186.3 0.894855 -3.76923 0
M  V30 23836 H 2186.72 -0.809231 -5.1822 0
M  V30 23837 H 2188.19 0.879955 -5.44941 0
M  V30 23838 H 2188.67 1.78324 -4.01369 0
M  V30 23839 H 2189.27 0.127975 -4.25107 0
M  V30 23840 N 2187.59 1.55221 -0.272782 0
M  V30 23841 C 2188.5 2.26098 0.62584 0
M  V30 23842 C 2189.51 1.28606 1.17203 0
M  V30 23843 O 2190.69 1.61537 1.20281 0
M  V30 23844 C 2187.76 2.96645 1.7945 0
M  V30 23845 C 2186.82 4.0961 1.28522 0
M  V30 23846 C 2186.05 4.76784 2.39819 0
M  V30 23847 O 2186.27 4.43155 3.59124 0
M  V30 23848 O 2185.21 5.64779 2.08107 0
M  V30 23849 H 2189.03 3.03656 0.0517442 0
M  V30 23850 H 2186.62 1.49346 -0.0402752 0
M  V30 23851 H 2188.5 3.40989 2.47597 0
M  V30 23852 H 2187.17 2.22006 2.35573 0
M  V30 23853 H 2186.08 3.69728 0.570286 0
M  V30 23854 H 2187.41 4.86143 0.769772 0
M  V30 23855 N 2189.07 2.77022e-05 1.576 0
M  V30 23856 C 2190.29 -0.699433 1.9525 0
M  V30 23857 C 2190.72 -1.66511 0.874964 0
M  V30 23858 O 2190.07 -1.8053 -0.166897 0
M  V30 23859 C 2190.12 -1.4075 3.31996 0
M  V30 23860 O 2189.23 -2.52192 3.26302 0
M  V30 23861 H 2188.57 -0.18604 0.637405 0
M  V30 23862 H 2191.1 0.053226 2.04531 0
M  V30 23863 H 2191.11 -1.77092 3.67563 0
M  V30 23864 H 2189.78 -0.699458 4.09976 0
M  V30 23865 H 2188.36 -2.18177 3.02412 0
M  V30 23866 N 2190.54 -1.55222 -0.272728 0
M  V30 23867 C 2191.79 -1.75047 -1.00208 0
M  V30 23868 C 2192.11 -0.559079 -1.8744 0
M  V30 23869 O 2193.31 -0.639745 -2.63855 0
M  V30 23870 C 2191.77 -3.09808 -1.83159 0
M  V30 23871 C 2191.38 -4.36514 -1.00793 0
M  V30 23872 C 2193.12 -3.38981 -2.55523 0
M  V30 23873 C 2191.03 -5.62315 -1.83184 0
M  V30 23874 H 2189.96 -0.652482 -0.377866 0
M  V30 23875 H 2192.61 -1.81681 -0.257744 0
M  V30 23876 H 2190.99 -2.97212 -2.61689 0
M  V30 23877 H 2192.16 -4.60027 -0.266774 0
M  V30 23878 H 2190.48 -4.14486 -0.398824 0
M  V30 23879 H 2193.08 -4.30178 -3.17571 0
M  V30 23880 H 2193.42 -2.59126 -3.25821 0
M  V30 23881 H 2193.95 -3.52676 -1.84022 0
M  V30 23882 H 2190.69 -6.44918 -1.17306 0
M  V30 23883 H 2190.21 -5.42944 -2.54896 0
M  V30 23884 H 2191.89 -6.00624 -2.40542 0
M  V30 23885 N 2192.02 0.537252 -1.4816 0
M  V30 23886 C 2192.96 1.6589 -1.56703 0
M  V30 23887 C 2193.93 1.57138 -0.417898 0
M  V30 23888 O 2195.12 1.77714 -0.628493 0
M  V30 23889 C 2192.24 3.04252 -1.48824 0
M  V30 23890 C 2191.29 3.31386 -2.68487 0
M  V30 23891 S 2192.12 3.18452 -4.30521 0
M  V30 23892 C 2193.28 4.59273 -4.25228 0
M  V30 23893 H 2193.51 1.58392 -2.51593 0
M  V30 23894 H 2191.05 0.719648 -1.36603 0
M  V30 23895 H 2193 3.84051 -1.44964 0
M  V30 23896 H 2191.66 3.09197 -0.552832 0
M  V30 23897 H 2190.86 4.32304 -2.59093 0
M  V30 23898 H 2190.46 2.59243 -2.69572 0
M  V30 23899 H 2192.75 5.50643 -3.94713 0
M  V30 23900 H 2193.69 4.73723 -5.26301 0
M  V30 23901 H 2194.1 4.38255 -3.55799 0
M  V30 23902 N 2193.5 1.36626 0.785562 0
M  V30 23903 C 2194.45 1.31333 1.91975 0
M  V30 23904 C 2195.44 0.204445 1.68162 0
M  V30 23905 O 2196.65 0.371676 1.76121 0
M  V30 23906 H 2193.02 0.408953 0.63108 0
M  V30 23907 H 2194.99 2.27108 1.93558 0
M  V30 23908 C 2193.74 1.12335 3.29053 0
M  V30 23909 H 2193.07 1.96909 3.47946 0
M  V30 23910 H 2194.51 1.12678 4.08754 0
M  V30 23911 C 2192.97 -0.171802 3.36462 0
M  V30 23912 O 2193.5 -1.16028 3.84578 0
M  V30 23913 N 2191.7 -0.217795 2.89783 0
M  V30 23914 H 2191.25 0.587227 2.50817 0
M  V30 23915 H 2191.21 -1.08403 2.95121 0
M  V30 23916 N 2194.98 -1.01016 1.20969 0
M  V30 23917 C 2196.23 -1.74126 1.01799 0
M  V30 23918 C 2196.54 -1.90361 -0.449657 0
M  V30 23919 O 2197.75 -2.60627 -0.760634 0
M  V30 23920 C 2196.2 -3.13211 1.77276 0
M  V30 23921 C 2195.81 -3.04967 3.28176 0
M  V30 23922 C 2197.55 -3.90486 1.66496 0
M  V30 23923 C 2195.46 -4.391 3.96164 0
M  V30 23924 H 2194.39 -0.652817 0.377288 0
M  V30 23925 H 2197.04 -1.12906 1.44653 0
M  V30 23926 H 2195.42 -3.75011 1.27211 0
M  V30 23927 H 2196.6 -2.52436 3.85503 0
M  V30 23928 H 2194.91 -2.41182 3.39441 0
M  V30 23929 H 2197.51 -4.89734 2.14626 0
M  V30 23930 H 2197.85 -4.11623 0.622272 0
M  V30 23931 H 2198.39 -3.35328 2.14009 0
M  V30 23932 H 2195.13 -4.23165 5.00611 0
M  V30 23933 H 2194.65 -4.91611 3.43625 0
M  V30 23934 H 2196.32 -5.07919 4.00783 0
M  V30 23935 N 2196.46 -1.01661 -1.20428 0
M  V30 23936 C 2197.7 -0.706996 -1.90077 0
M  V30 23937 C 2198.04 0.761442 -1.7865 0
M  V30 23938 O 2197.31 1.55321 -1.17072 0
M  V30 23939 C 2197.59 -1.14333 -3.41467 0
M  V30 23940 C 2197.45 -2.67208 -3.61829 0
M  V30 23941 C 2198.77 -0.714606 -4.3426 0
M  V30 23942 H 2195.88 -0.258312 -0.690249 0
M  V30 23943 H 2198.53 -1.26435 -1.41824 0
M  V30 23944 H 2196.68 -0.669123 -3.82694 0
M  V30 23945 H 2198.35 -3.22481 -3.29854 0
M  V30 23946 H 2196.59 -3.0818 -3.05299 0
M  V30 23947 H 2197.26 -2.92792 -4.6795 0
M  V30 23948 H 2199.74 -1.12228 -4.0068 0
M  V30 23949 H 2198.61 -1.04794 -5.38804 0
M  V30 23950 H 2198.88 0.383721 -4.40432 0
M  V30 23951 N 2197.93 1.36205 -0.792844 0
M  V30 23952 C 2199.16 2.03931 -0.377737 0
M  V30 23953 C 2199.58 1.59384 0.998919 0
M  V30 23954 O 2198.94 0.763932 1.64419 0
M  V30 23955 C 2198.99 3.57734 -0.453698 0
M  V30 23956 O 2198.09 4.08875 0.538079 0
M  V30 23957 H 2197.44 0.644468 -0.159867 0
M  V30 23958 H 2199.97 1.74089 -1.07491 0
M  V30 23959 H 2199.98 4.06755 -0.318535 0
M  V30 23960 H 2198.65 3.8951 -1.45791 0
M  V30 23961 H 2197.23 3.71116 0.364294 0
M  V30 23962 N 2199.41 0.545154 1.47871 0
M  V30 23963 C 2200.66 0.0165886 2.02093 0
M  V30 23964 C 2200.98 -1.33317 1.42308 0
M  V30 23965 O 2200.25 -1.86681 0.593886 0
M  V30 23966 H 2198.83 0.00314351 0.746993 0
M  V30 23967 H 2201.49 0.712429 1.81412 0
M  V30 23968 H 2200.59 -0.0804873 3.11996 0
M  V30 23969 N 2200.89 -1.55074 0.28101 0
M  V30 23970 C 2202.14 -1.99725 -0.33408 0
M  V30 23971 C 2202.47 -1.16943 -1.55418 0
M  V30 23972 O 2201.72 -0.228565 -1.94361 0
M  V30 23973 C 2202.02 -3.49343 -0.754595 0
M  V30 23974 C 2201.69 -4.49448 0.361524 0
M  V30 23975 C 2200.35 -4.76541 0.667977 0
M  V30 23976 C 2202.7 -5.09171 1.11331 0
M  V30 23977 C 2200.03 -5.60623 1.72969 0
M  V30 23978 C 2202.38 -5.94407 2.1648 0
M  V30 23979 C 2201.04 -6.19818 2.47753 0
M  V30 23980 H 2200.31 -0.730846 -0.122249 0
M  V30 23981 H 2202.96 -1.87362 0.39595 0
M  V30 23982 H 2201.27 -3.59213 -1.56439 0
M  V30 23983 H 2202.96 -3.81302 -1.24136 0
M  V30 23984 H 2199.55 -4.28452 0.112557 0
M  V30 23985 H 2203.74 -4.88258 0.889815 0
M  V30 23986 H 2198.99 -5.78556 1.97694 0
M  V30 23987 H 2203.17 -6.39715 2.75204 0
M  V30 23988 H 2200.79 -6.84763 3.30157 0
M  V30 23989 N 2202.37 -0.00838561 -1.57598 0
M  V30 23990 C 2203.62 0.674699 -1.90929 0
M  V30 23991 C 2203.94 1.73312 -0.882801 0
M  V30 23992 O 2203.2 1.95383 0.11126 0
M  V30 23993 C 2203.5 1.34781 -3.31012 0
M  V30 23994 C 2203.16 0.421782 -4.48923 0
M  V30 23995 C 2201.83 0.166843 -4.80911 0
M  V30 23996 C 2204.18 -0.215303 -5.20755 0
M  V30 23997 C 2201.51 -0.733334 -5.82099 0
M  V30 23998 C 2203.86 -1.10341 -6.22903 0
M  V30 23999 C 2202.52 -1.36744 -6.53343 0
M  V30 24000 H 2201.79 0.24689 -0.69866 0
M  V30 24001 H 2204.44 -0.0657115 -1.91387 0
M  V30 24002 H 2202.74 2.16247 -3.26718 0
M  V30 24003 H 2204.44 1.88253 -3.54064 0
M  V30 24004 H 2201.03 0.630655 -4.23935 0
M  V30 24005 H 2205.22 -0.0313701 -4.9629 0
M  V30 24006 H 2200.47 -0.945818 -6.0404 0
M  V30 24007 H 2204.65 -1.60337 -6.77691 0
M  V30 24008 H 2202.27 -2.06665 -7.31569 0
M  V30 24009 N 2203.85 1.55365 0.264492 0
M  V30 24010 C 2204.8 1.89629 1.34698 0
M  V30 24011 C 2205.79 0.773486 1.5071 0
M  V30 24012 O 2207 0.957924 1.52394 0
M  V30 24013 H 2203.37 0.601996 0.450671 0
M  V30 24014 H 2205.34 2.80039 1.03056 0
M  V30 24015 C 2204.09 2.19218 2.69886 0
M  V30 24016 H 2203.41 3.05107 2.58359 0
M  V30 24017 H 2204.85 2.47108 3.44548 0
M  V30 24018 C 2203.31 1.0026 3.21636 0
M  V30 24019 O 2203.84 0.241571 4.00973 0
M  V30 24020 N 2202.05 0.797987 2.79429 0
M  V30 24021 H 2201.6 1.41854 2.15024 0
M  V30 24022 H 2201.55 0.00368948 3.144 0
M  V30 24023 N 2205.33 -0.529387 1.48443 0
M  V30 24024 C 2206.55 -1.31468 1.60409 0
M  V30 24025 C 2206.98 -1.86227 0.264771 0
M  V30 24026 O 2206.33 -1.64433 -0.763639 0
M  V30 24027 C 2206.38 -2.44096 2.65423 0
M  V30 24028 O 2205.49 -3.47149 2.22624 0
M  V30 24029 H 2204.83 -0.389348 0.53787 0
M  V30 24030 H 2207.36 -0.636931 1.94433 0
M  V30 24031 H 2207.37 -2.90274 2.86715 0
M  V30 24032 H 2206.04 -2.03601 3.62656 0
M  V30 24033 H 2204.62 -3.07086 2.11548 0
M  V30 24034 N 2206.8 -1.37041 -0.778305 0
M  V30 24035 C 2208.21 -1.28525 -1.35419 0
M  V30 24036 C 2208.57 0.0700557 -1.96075 0
M  V30 24037 O 2207.69 0.971767 -1.93354 0
M  V30 24038 C 2208.29 -2.32739 -2.46207 0
M  V30 24039 C 2206.84 -2.27878 -2.99581 0
M  V30 24040 C 2205.99 -2.16921 -1.72744 0
M  V30 24041 H 2208.94 -1.47758 -0.579074 0
M  V30 24042 H 2208.96 -1.97026 -3.25517 0
M  V30 24043 H 2208.48 -3.31369 -2.0203 0
M  V30 24044 H 2206.58 -1.32751 -3.48149 0
M  V30 24045 H 2206.69 -3.21025 -3.5564 0
M  V30 24046 H 2205.05 -1.63358 -1.95413 0
M  V30 24047 H 2205.84 -3.17455 -1.30681 0
M  V30 24048 N 2208.28 1.00373 -1.21503 0
M  V30 24049 C 2209.53 1.74169 -1.03302 0
M  V30 24050 C 2209.86 1.89612 0.433293 0
M  V30 24051 O 2209.11 1.42837 1.33777 0
M  V30 24052 C 2209.41 3.15624 -1.67679 0
M  V30 24053 C 2209.08 3.20125 -3.17539 0
M  V30 24054 C 2207.74 3.2106 -3.58432 0
M  V30 24055 C 2210.09 3.17268 -4.1351 0
M  V30 24056 C 2207.42 3.16826 -4.938 0
M  V30 24057 C 2209.77 3.14575 -5.4884 0
M  V30 24058 C 2208.43 3.13821 -5.89129 0
M  V30 24059 H 2207.7 0.63733 -0.378011 0
M  V30 24060 H 2210.35 1.17632 -1.51113 0
M  V30 24061 H 2208.66 3.75402 -1.12165 0
M  V30 24062 H 2210.35 3.71444 -1.51098 0
M  V30 24063 H 2206.94 3.2014 -2.84971 0
M  V30 24064 H 2211.13 3.15704 -3.82942 0
M  V30 24065 H 2206.38 3.14581 -5.2426 0
M  V30 24066 H 2210.56 3.11319 -6.22939 0
M  V30 24067 H 2208.18 3.10294 -6.93989 0
M  V30 24068 N 2209.76 1.02298 1.19887 0
M  V30 24069 C 2210.98 0.735271 1.93929 0
M  V30 24070 C 2211.41 -0.698751 1.7464 0
M  V30 24071 O 2210.77 -1.48165 1.04483 0
M  V30 24072 C 2210.82 1.08423 3.43914 0
M  V30 24073 O 2209.92 0.199519 4.11917 0
M  V30 24074 H 2209.26 0.272207 0.60564 0
M  V30 24075 H 2211.79 1.36807 1.52135 0
M  V30 24076 H 2211.8 1.03863 3.94559 0
M  V30 24077 H 2210.48 2.12901 3.57276 0
M  V30 24078 H 2209.05 0.303201 3.71665 0
M  V30 24079 N 2211.24 -1.35782 0.800057 0
M  V30 24080 C 2212.51 -1.93271 0.300914 0
M  V30 24081 C 2212.89 -1.73083 -1.20854 0
M  V30 24082 O 2212.24 -1.09599 -2.005 0
M  V30 24083 C 2212.45 -3.41802 0.70517 0
M  V30 24084 C 2213.8 -4.1894 0.690944 0
M  V30 24085 O 2214.82 -3.50288 0.646305 0
M  V30 24086 O 2213.68 -5.4142 0.743415 0
M  V30 24087 H 2210.78 -0.823391 0.0771749 0
M  V30 24088 H 2213.32 -1.44899 0.883316 0
M  V30 24089 H 2212.1 -3.50198 1.74577 0
M  V30 24090 H 2211.72 -3.97481 0.0972239 0
M  V30 24091 N 2212.72 -0.552988 -1.4758 0
M  V30 24092 C 2213.66 0.210189 -2.31648 0
M  V30 24093 C 2214.66 0.913407 -1.42665 0
M  V30 24094 O 2215.86 0.835173 -1.59452 0
M  V30 24095 H 2212.24 0.0866545 -0.746991 0
M  V30 24096 H 2214.21 -0.518103 -2.93868 0
M  V30 24097 C 2212.96 1.2297 -3.25229 0
M  V30 24098 H 2212.28 0.698008 -3.9366 0
M  V30 24099 H 2213.72 1.73467 -3.86892 0
M  V30 24100 C 2212.18 2.27538 -2.48452 0
M  V30 24101 O 2212.71 3.34389 -2.22591 0
M  V30 24102 N 2210.92 2.01354 -2.09535 0
M  V30 24103 H 2210.46 1.14474 -2.30767 0
M  V30 24104 H 2210.42 2.71535 -1.5848 0
M  V30 24105 N 2214.19 1.54923 -0.28923 0
M  V30 24106 C 2215.42 2.0477 0.329263 0
M  V30 24107 C 2215.84 1.16566 1.47628 0
M  V30 24108 O 2215.2 0.167218 1.80527 0
M  V30 24109 C 2215.25 3.52187 0.774376 0
M  V30 24110 O 2214.35 3.6704 1.88031 0
M  V30 24111 H 2213.69 0.66072 0.0659143 0
M  V30 24112 H 2216.22 2.00081 -0.427645 0
M  V30 24113 H 2216.23 3.93818 1.06635 0
M  V30 24114 H 2214.91 4.1585 -0.0647438 0
M  V30 24115 H 2213.49 3.37313 1.58979 0
M  V30 24116 N 2215.67 0.0167433 1.57591 0
M  V30 24117 C 2216.9 -0.675094 1.95576 0
M  V30 24118 C 2217.31 -1.66369 0.892571 0
M  V30 24119 O 2216.67 -1.82058 -0.12688 0
M  V30 24120 C 2216.72 -1.39234 3.33611 0
M  V30 24121 O 2216.44 -0.443367 4.35851 0
M  V30 24122 C 2217.94 -2.17714 3.86155 0
M  V30 24123 H 2215.16 -0.186966 0.644426 0
M  V30 24124 H 2217.71 0.0728359 2.0437 0
M  V30 24125 H 2215.86 -2.09176 3.26074 0
M  V30 24126 H 2216.28 -0.951268 5.15801 0
M  V30 24127 H 2217.75 -2.63371 4.85118 0
M  V30 24128 H 2218.23 -3.01099 3.19744 0
M  V30 24129 H 2218.83 -1.52754 3.96921 0
M  V30 24130 N 2217.15 -1.55503 -0.256249 0
M  V30 24131 C 2218.38 -1.81278 -1.00762 0
M  V30 24132 C 2218.8 -0.592551 -1.78523 0
M  V30 24133 O 2218.16 0.458239 -1.75413 0
M  V30 24134 C 2218.21 -3.0469 -1.92864 0
M  V30 24135 O 2217.31 -2.8095 -3.01896 0
M  V30 24136 H 2216.65 -0.598669 -0.287213 0
M  V30 24137 H 2219.18 -2.02674 -0.280074 0
M  V30 24138 H 2219.19 -3.33873 -2.34505 0
M  V30 24139 H 2217.87 -3.93145 -1.35682 0
M  V30 24140 H 2216.44 -2.62909 -2.64449 0
M  V30 24141 N 2218.63 0.521507 -1.48721 0
M  V30 24142 C 2219.56 1.63428 -1.66774 0
M  V30 24143 C 2220.54 1.62068 -0.516528 0
M  V30 24144 O 2221.72 1.79131 -0.750045 0
M  V30 24145 C 2218.85 3.0199 -1.71521 0
M  V30 24146 C 2217.81 3.18211 -2.86227 0
M  V30 24147 C 2217.13 4.57919 -2.76069 0
M  V30 24148 C 2218.43 3.00177 -4.27424 0
M  V30 24149 H 2220.13 1.48574 -2.59935 0
M  V30 24150 H 2217.67 0.713336 -1.2509 0
M  V30 24151 H 2219.63 3.79717 -1.82738 0
M  V30 24152 H 2218.35 3.17885 -0.749449 0
M  V30 24153 H 2217.01 2.42903 -2.74579 0
M  V30 24154 H 2216.66 4.70662 -1.77445 0
M  V30 24155 H 2216.36 4.69716 -3.53045 0
M  V30 24156 H 2217.88 5.37734 -2.89266 0
M  V30 24157 H 2219.3 3.67689 -4.39861 0
M  V30 24158 H 2217.69 3.23461 -5.05463 0
M  V30 24159 H 2218.76 1.96511 -4.43296 0
M  V30 24160 N 2220.11 1.37452 0.771027 0
M  V30 24161 C 2221.04 1.29149 1.89349 0
M  V30 24162 C 2222.05 0.207152 1.61477 0
M  V30 24163 O 2223.24 0.463354 1.72381 0
M  V30 24164 C 2220.34 0.974252 3.24594 0
M  V30 24165 C 2219.51 2.1642 3.80107 0
M  V30 24166 C 2218.57 1.81712 4.93829 0
M  V30 24167 O 2217.6 2.54015 5.09377 0
M  V30 24168 N 2218.8 0.761674 5.75481 0
M  V30 24169 H 2221.57 2.25867 1.96987 0
M  V30 24170 H 2219.13 1.31086 0.950168 0
M  V30 24171 H 2221.12 0.722898 3.98191 0
M  V30 24172 H 2219.69 0.0956076 3.12454 0
M  V30 24173 H 2218.91 2.57726 2.9828 0
M  V30 24174 H 2220.2 2.95875 4.13927 0
M  V30 24175 H 2219.59 0.161708 5.65469 0
M  V30 24176 H 2218.15 0.570178 6.49301 0
M  V30 24177 N 2221.58 -0.997276 1.22033 0
M  V30 24178 C 2222.81 -1.77178 1.06844 0
M  V30 24179 C 2223.23 -1.8491 -0.381292 0
M  V30 24180 O 2222.58 -1.31607 -1.26435 0
M  V30 24181 C 2222.64 -3.20708 1.6682 0
M  V30 24182 O 2222.36 -3.13403 3.06121 0
M  V30 24183 C 2223.86 -4.14625 1.56846 0
M  V30 24184 H 2221.08 -0.556572 0.374792 0
M  V30 24185 H 2223.62 -1.25407 1.61535 0
M  V30 24186 H 2221.78 -3.69561 1.16203 0
M  V30 24187 H 2222.19 -4.03634 3.34933 0
M  V30 24188 H 2223.66 -5.13103 2.03541 0
M  V30 24189 H 2224.14 -4.3606 0.524231 0
M  V30 24190 H 2224.75 -3.71666 2.06747 0
M  V30 24191 N 2223.06 -1.02932 -1.19343 0
M  V30 24192 C 2224.01 -0.581079 -2.20471 0
M  V30 24193 C 2225 0.370415 -1.56578 0
M  V30 24194 O 2226.19 0.191313 -1.75963 0
M  V30 24195 C 2223.32 0.0662457 -3.43236 0
M  V30 24196 C 2222.4 -0.907715 -4.14272 0
M  V30 24197 N 2222.79 -2.07031 -4.61489 0
M  V30 24198 C 2221.09 -0.731255 -4.39964 0
M  V30 24199 C 2221.79 -2.68463 -5.16045 0
M  V30 24200 N 2220.77 -1.96423 -5.06872 0
M  V30 24201 H 2224.57 -1.46722 -2.54657 0
M  V30 24202 H 2222.09 -0.896368 -1.35422 0
M  V30 24203 H 2224.08 0.404995 -4.14928 0
M  V30 24204 H 2222.74 0.948064 -3.10551 0
M  V30 24205 H 2223.75 -2.44971 -4.563 0
M  V30 24206 H 2220.43 0.101434 -4.17377 0
M  V30 24207 H 2221.82 -3.66925 -5.62864 0
M  V30 24208 N 2224.54 1.35356 -0.807246 0
M  V30 24209 C 2225.47 2.28525 -0.175758 0
M  V30 24210 C 2226.49 1.50311 0.625328 0
M  V30 24211 O 2227.67 1.72535 0.45758 0
M  V30 24212 C 2224.77 3.29957 0.773413 0
M  V30 24213 C 2223.95 4.37396 0.0185527 0
M  V30 24214 C 2223.01 5.18682 0.886304 0
M  V30 24215 O 2222.03 5.68201 0.337006 0
M  V30 24216 N 2223.23 5.36856 2.20829 0
M  V30 24217 H 2226 2.83358 -0.976141 0
M  V30 24218 H 2223.56 1.47713 -0.662763 0
M  V30 24219 H 2225.55 3.81229 1.35817 0
M  V30 24220 H 2224.12 2.75634 1.4746 0
M  V30 24221 H 2223.34 3.87049 -0.747417 0
M  V30 24222 H 2224.63 5.06321 -0.501666 0
M  V30 24223 H 2224.03 4.9827 2.6785 0
M  V30 24224 H 2222.59 5.91306 2.74227 0
M  V30 24225 N 2226.02 0.560807 1.47284 0
M  V30 24226 C 2227.43 0.128376 1.86258 0
M  V30 24227 C 2227.78 -1.30281 1.46701 0
M  V30 24228 O 2226.91 -1.98065 0.871733 0
M  V30 24229 C 2227.5 0.2262 3.38044 0
M  V30 24230 C 2226.06 -0.151217 3.76096 0
M  V30 24231 C 2225.21 0.572131 2.71334 0
M  V30 24232 H 2228.16 0.770322 1.38751 0
M  V30 24233 H 2228.18 -0.554256 3.76442 0
M  V30 24234 H 2227.69 1.26794 3.66804 0
M  V30 24235 H 2225.79 -1.19393 3.52953 0
M  V30 24236 H 2225.9 0.209849 4.7864 0
M  V30 24237 H 2224.27 0.01481 2.54696 0
M  V30 24238 H 2225.05 1.6151 3.02935 0
M  V30 24239 N 2227.5 -1.54768 0.297442 0
M  V30 24240 C 2228.74 -2.00365 -0.313341 0
M  V30 24241 C 2229.08 -1.18555 -1.53812 0
M  V30 24242 O 2228.35 -0.261137 -1.92739 0
M  V30 24243 C 2228.63 -3.53746 -0.673463 0
M  V30 24244 C 2228.49 -4.46298 0.560211 0
M  V30 24245 C 2229.81 -4.137 -1.50136 0
M  V30 24246 H 2226.92 -0.728376 -0.112415 0
M  V30 24247 H 2229.57 -1.85549 0.408833 0
M  V30 24248 H 2227.72 -3.66502 -1.28874 0
M  V30 24249 H 2229.39 -4.45453 1.19871 0
M  V30 24250 H 2227.63 -4.17041 1.19412 0
M  V30 24251 H 2228.3 -5.51368 0.264147 0
M  V30 24252 H 2230.78 -4.04358 -0.981517 0
M  V30 24253 H 2229.65 -5.21186 -1.72212 0
M  V30 24254 H 2229.92 -3.65347 -2.48945 0
M  V30 24255 N 2228.97 -0.0251005 -1.5758 0
M  V30 24256 C 2230.22 0.65441 -1.91634 0
M  V30 24257 C 2230.55 1.72365 -0.901133 0
M  V30 24258 O 2229.8 1.9549 0.0905304 0
M  V30 24259 C 2230.1 1.31262 -3.32423 0
M  V30 24260 C 2229.77 0.374144 -4.49345 0
M  V30 24261 C 2228.43 0.115826 -4.81061 0
M  V30 24262 C 2230.78 -0.270524 -5.20497 0
M  V30 24263 C 2228.11 -0.795032 -5.81288 0
M  V30 24264 C 2230.46 -1.16941 -6.21697 0
M  V30 24265 C 2229.13 -1.43666 -6.51856 0
M  V30 24266 H 2228.4 0.239466 -0.70124 0
M  V30 24267 H 2231.04 -0.086007 -1.91307 0
M  V30 24268 H 2229.35 2.12769 -3.28993 0
M  V30 24269 H 2231.05 1.84488 -3.56041 0
M  V30 24270 H 2227.64 0.585655 -4.2458 0
M  V30 24271 H 2231.82 -0.0840066 -4.96229 0
M  V30 24272 H 2227.08 -1.00983 -6.03003 0
M  V30 24273 H 2231.25 -1.67516 -6.75952 0
M  V30 24274 H 2228.88 -2.14412 -7.29336 0
M  V30 24275 N 2230.45 1.55637 0.247999 0
M  V30 24276 C 2231.7 1.76619 0.974103 0
M  V30 24277 C 2232.01 0.588829 1.86527 0
M  V30 24278 O 2233.22 0.681641 2.62804 0
M  V30 24279 C 2231.68 3.12682 1.78207 0
M  V30 24280 C 2231.28 4.38063 0.938353 0
M  V30 24281 C 2233.03 3.43004 2.50098 0
M  V30 24282 C 2230.94 5.65158 1.74215 0
M  V30 24283 H 2229.87 0.658411 0.367438 0
M  V30 24284 H 2232.52 1.82068 0.228808 0
M  V30 24285 H 2230.9 3.01337 2.56928 0
M  V30 24286 H 2232.07 4.60393 0.193554 0
M  V30 24287 H 2230.39 4.15068 0.332832 0
M  V30 24288 H 2232.98 4.35176 3.10687 0
M  V30 24289 H 2233.33 2.64277 3.21657 0
M  V30 24290 H 2233.86 3.55559 1.78388 0
M  V30 24291 H 2230.6 6.46703 1.07031 0
M  V30 24292 H 2230.12 5.46931 2.46226 0
M  V30 24293 H 2231.8 6.04374 2.30956 0
M  V30 24294 N 2231.93 -0.513613 1.48996 0
M  V30 24295 C 2232.86 -1.6329 1.60839 0
M  V30 24296 C 2233.88 -1.55196 0.491728 0
M  V30 24297 O 2235.07 -1.61358 0.763266 0
M  V30 24298 C 2232.17 -3.02024 1.53736 0
M  V30 24299 C 2231.34 -3.35432 2.80721 0
M  V30 24300 C 2230.4 -4.5352 2.66845 0
M  V30 24301 O 2229.42 -4.55928 3.40761 0
M  V30 24302 N 2230.63 -5.52681 1.77549 0
M  V30 24303 H 2233.39 -1.53562 2.57369 0
M  V30 24304 H 2230.95 -0.701234 1.45926 0
M  V30 24305 H 2232.94 -3.78923 1.42125 0
M  V30 24306 H 2231.51 -3.05743 0.651145 0
M  V30 24307 H 2230.73 -2.47551 3.06777 0
M  V30 24308 H 2232.02 -3.54544 3.64933 0
M  V30 24309 H 2231.42 -5.53526 1.16728 0
M  V30 24310 H 2229.98 -6.28733 1.71867 0
M  V30 24311 N 2233.41 -1.37859 -0.763727 0
M  V30 24312 C 2234.34 -1.36978 -1.89101 0
M  V30 24313 C 2235.32 -0.237182 -1.68438 0
M  V30 24314 O 2236.51 -0.438747 -1.89179 0
M  V30 24315 C 2233.64 -1.18401 -3.26494 0
M  V30 24316 C 2232.59 -2.28758 -3.61737 0
M  V30 24317 C 2231.92 -1.95295 -4.97759 0
M  V30 24318 C 2233.22 -3.70978 -3.67658 0
M  V30 24319 H 2234.91 -2.3131 -1.90095 0
M  V30 24320 H 2232.46 -1.11343 -0.91317 0
M  V30 24321 H 2234.41 -1.16413 -4.05001 0
M  V30 24322 H 2233.13 -0.205272 -3.25954 0
M  V30 24323 H 2231.79 -2.29914 -2.85543 0
M  V30 24324 H 2231.44 -0.959307 -4.93767 0
M  V30 24325 H 2231.14 -2.69198 -5.22308 0
M  V30 24326 H 2232.66 -1.94908 -5.78656 0
M  V30 24327 H 2234.08 -3.71907 -4.363 0
M  V30 24328 H 2232.47 -4.44002 -4.0371 0
M  V30 24329 H 2233.54 -4.04025 -2.68127 0
M  V30 24330 N 2234.89 0.990791 -1.22561 0
M  V30 24331 C 2235.82 2.09954 -1.02184 0
M  V30 24332 C 2236.8 1.70001 0.0579095 0
M  V30 24333 O 2237.98 1.93917 -0.104718 0
M  V30 24334 C 2235.11 3.42059 -0.601083 0
M  V30 24335 C 2234.07 3.95869 -1.627 0
M  V30 24336 C 2233.39 5.24047 -1.06202 0
M  V30 24337 C 2234.69 4.26315 -3.0175 0
M  V30 24338 H 2236.39 2.27259 -1.9492 0
M  V30 24339 H 2233.93 1.09209 -0.938585 0
M  V30 24340 H 2235.89 4.19037 -0.445634 0
M  V30 24341 H 2234.61 3.24588 0.361948 0
M  V30 24342 H 2233.27 3.21025 -1.77027 0
M  V30 24343 H 2232.92 5.02919 -0.0902787 0
M  V30 24344 H 2232.62 5.61016 -1.74741 0
M  V30 24345 H 2234.14 6.03657 -0.918198 0
M  V30 24346 H 2235.56 4.94081 -2.90786 0
M  V30 24347 H 2233.95 4.74461 -3.67433 0
M  V30 24348 H 2235.02 3.34004 -3.51524 0
M  V30 24349 N 2236.37 1.03564 1.18795 0
M  V30 24350 C 2237.3 0.580376 2.2173 0
M  V30 24351 C 2238.31 -0.347321 1.59052 0
M  V30 24352 O 2239.5 -0.142638 1.77929 0
M  V30 24353 C 2236.6 -0.172746 3.38459 0
M  V30 24354 C 2235.77 0.761572 4.30719 0
M  V30 24355 C 2234.83 0.0526472 5.26174 0
M  V30 24356 O 2233.86 0.681432 5.65106 0
M  V30 24357 N 2235.06 -1.21576 5.67626 0
M  V30 24358 H 2237.82 1.4657 2.61414 0
M  V30 24359 H 2235.39 0.915499 1.3353 0
M  V30 24360 H 2237.38 -0.656722 3.99336 0
M  V30 24361 H 2235.95 -0.959549 2.97509 0
M  V30 24362 H 2235.17 1.42551 3.67523 0
M  V30 24363 H 2236.46 1.39634 4.89265 0
M  V30 24364 H 2235.85 -1.74722 5.38041 0
M  V30 24365 H 2234.41 -1.6441 6.30724 0
M  V30 24366 N 2237.84 -1.34926 0.814413 0
M  V30 24367 C 2239.07 -2.03304 0.410133 0
M  V30 24368 C 2239.49 -1.60953 -0.973436 0
M  V30 24369 O 2238.85 -0.789993 -1.63183 0
M  V30 24370 C 2238.9 -3.56967 0.510553 0
M  V30 24371 O 2238 -4.09679 -0.472963 0
M  V30 24372 H 2237.34 -0.641843 0.170099 0
M  V30 24373 H 2239.87 -1.72356 1.10247 0
M  V30 24374 H 2239.88 -4.06196 0.383206 0
M  V30 24375 H 2238.56 -3.87141 1.5197 0
M  V30 24376 H 2237.14 -3.71649 -0.305206 0
M  V30 24377 N 2239.32 -0.56861 -1.46985 0
M  V30 24378 C 2240.28 0.162326 -2.28624 0
M  V30 24379 C 2241.28 0.832078 -1.37598 0
M  V30 24380 O 2242.47 0.686192 -1.60116 0
M  V30 24381 C 2239.61 1.23873 -3.17598 0
M  V30 24382 H 2240.8 -0.554951 -2.94721 0
M  V30 24383 H 2238.35 -0.326003 -1.52862 0
M  V30 24384 H 2239.09 1.98804 -2.56218 0
M  V30 24385 H 2238.87 0.763151 -3.84602 0
M  V30 24386 H 2240.36 1.75178 -3.79081 0
M  V30 24387 N 2240.8 1.54608 -0.305646 0
M  V30 24388 C 2242.05 2.00231 0.302263 0
M  V30 24389 C 2242.37 1.194 1.53538 0
M  V30 24390 O 2241.63 0.259457 1.93972 0
M  V30 24391 C 2241.93 3.50499 0.698922 0
M  V30 24392 C 2241.59 4.48816 -0.432982 0
M  V30 24393 C 2240.26 4.75418 -0.743706 0
M  V30 24394 C 2242.61 5.07335 -1.19418 0
M  V30 24395 C 2239.94 5.57801 -1.81867 0
M  V30 24396 C 2242.29 5.90887 -2.25909 0
M  V30 24397 C 2240.95 6.15798 -2.57583 0
M  V30 24398 H 2240.22 0.732699 0.110606 0
M  V30 24399 H 2242.87 1.86708 -0.425707 0
M  V30 24400 H 2241.17 3.61656 1.50705 0
M  V30 24401 H 2242.87 3.83229 1.18054 0
M  V30 24402 H 2239.46 4.28219 -0.180706 0
M  V30 24403 H 2243.65 4.86781 -0.96738 0
M  V30 24404 H 2238.9 5.75337 -2.06874 0
M  V30 24405 H 2243.08 6.35256 -2.85346 0
M  V30 24406 H 2240.7 6.79424 -3.41009 0
M  V30 24407 N 2242.28 0.033457 1.57564 0
M  V30 24408 C 2243.69 -0.32297 1.56298 0
M  V30 24409 C 2243.89 -1.72618 1.03949 0
M  V30 24410 O 2242.95 -2.42942 0.688151 0
M  V30 24411 C 2244.26 -0.167612 3.00232 0
M  V30 24412 C 2245.81 -0.240052 3.12078 0
M  V30 24413 C 2246.29 -0.113432 4.5786 0
M  V30 24414 N 2247.78 -0.170277 4.62887 0
M  V30 24415 C 2248.51 -0.096151 5.73319 0
M  V30 24416 N 2248.01 0.0293099 6.92794 0
M  V30 24417 N 2249.8 -0.150453 5.61899 0
M  V30 24418 H 2241.95 0.950989 1.89921 0
M  V30 24419 H 2244.21 0.367623 0.873818 0
M  V30 24420 H 2243.92 0.799162 3.425 0
M  V30 24421 H 2243.79 -0.936019 3.65402 0
M  V30 24422 H 2246.18 -1.19729 2.6972 0
M  V30 24423 H 2246.26 0.558807 2.49622 0
M  V30 24424 H 2245.91 0.840403 5.00899 0
M  V30 24425 H 2245.84 -0.931211 5.18301 0
M  V30 24426 H 2248.33 -0.267214 3.76954 0
M  V30 24427 H 2248.64 0.0790611 7.7276 0
M  V30 24428 H 2246.99 0.0641521 6.9497 0
M  V30 24429 H 2250.18 -0.246899 4.67448 0
M  V30 24430 H 2250.35 -0.0892226 6.47939 0
M  V30 24431 N 2243.76 -1.55766 -0.239741 0
M  V30 24432 C 2245 -1.77133 -0.964722 0
M  V30 24433 C 2245.32 -0.598712 -1.86212 0
M  V30 24434 O 2246.52 -0.695568 -2.62439 0
M  V30 24435 C 2244.98 -3.13623 -1.76547 0
M  V30 24436 C 2244.59 -4.38554 -0.915108 0
M  V30 24437 C 2246.33 -3.44325 -2.48275 0
M  V30 24438 C 2244.24 -5.66074 -1.71215 0
M  V30 24439 H 2243.17 -0.66035 -0.363941 0
M  V30 24440 H 2245.82 -1.82187 -0.219149 0
M  V30 24441 H 2244.2 -3.02696 -2.55326 0
M  V30 24442 H 2245.38 -4.60489 -0.169136 0
M  V30 24443 H 2243.69 -4.15238 -0.310816 0
M  V30 24444 H 2246.29 -4.36817 -3.08374 0
M  V30 24445 H 2246.63 -2.65979 -3.20251 0
M  V30 24446 H 2247.16 -3.565 -1.765 0
M  V30 24447 H 2243.9 -6.47261 -1.036 0
M  V30 24448 H 2243.42 -5.48229 -2.43322 0
M  V30 24449 H 2245.1 -6.05591 -2.27748 0
M  V30 24450 N 2245.23 0.505704 -1.49266 0
M  V30 24451 C 2246.46 1.2824 -1.61982 0
M  V30 24452 C 2246.87 1.86986 -0.288609 0
M  V30 24453 O 2246.21 1.68339 0.735378 0
M  V30 24454 C 2246.28 2.45485 -2.62636 0
M  V30 24455 C 2245.94 2.07644 -4.07103 0
M  V30 24456 C 2246.94 1.61892 -4.94052 0
M  V30 24457 C 2244.62 2.17423 -4.52805 0
M  V30 24458 C 2246.62 1.26417 -6.24738 0
M  V30 24459 C 2244.3 1.81559 -5.83506 0
M  V30 24460 C 2245.3 1.36131 -6.69296 0
M  V30 24461 O 2244.99 1.0075 -7.97562 0
M  V30 24462 H 2244.72 0.395338 -0.548347 0
M  V30 24463 H 2247.28 0.61417 -1.96003 0
M  V30 24464 H 2245.51 3.15368 -2.23785 0
M  V30 24465 H 2247.19 3.07517 -2.6493 0
M  V30 24466 H 2247.96 1.53787 -4.59972 0
M  V30 24467 H 2243.84 2.51735 -3.862 0
M  V30 24468 H 2247.38 0.90887 -6.91654 0
M  V30 24469 H 2243.28 1.89313 -6.17115 0
M  V30 24470 H 2244.05 1.13938 -8.10531 0
M  V30 24471 N 2246.71 1.38262 0.756405 0
M  V30 24472 C 2247.66 1.35375 1.89146 0
M  V30 24473 C 2248.65 0.240069 1.6769 0
M  V30 24474 O 2249.86 0.40895 1.75293 0
M  V30 24475 H 2246.24 0.422247 0.622263 0
M  V30 24476 H 2248.21 2.31162 1.88697 0
M  V30 24477 C 2246.96 1.1929 3.26597 0
M  V30 24478 H 2246.28 2.04246 3.43691 0
M  V30 24479 H 2247.72 1.21323 4.06272 0
M  V30 24480 C 2246.18 -0.100395 3.3675 0
M  V30 24481 O 2246.71 -1.07844 3.86953 0
M  V30 24482 N 2244.91 -0.156279 2.90179 0
M  V30 24483 H 2244.46 0.640297 2.49515 0
M  V30 24484 H 2244.42 -1.02118 2.97354 0
M  V30 24485 N 2248.19 -0.984277 1.23084 0
M  V30 24486 C 2249.43 -1.74015 1.07229 0
M  V30 24487 C 2249.79 -1.88106 -0.384733 0
M  V30 24488 O 2251 -2.6046 -0.664365 0
M  V30 24489 C 2249.27 -3.10291 1.77353 0
M  V30 24490 S 2250.83 -4.01508 1.77021 0
M  V30 24491 H 2247.64 -0.598495 0.383829 0
M  V30 24492 H 2250.25 -1.17619 1.5616 0
M  V30 24493 H 2248.95 -2.97684 2.82511 0
M  V30 24494 H 2248.48 -3.71756 1.28688 0
M  V30 24495 H 2250.5 -4.89276 0.826042 0
M  V30 24496 N 2249.67 -1.04192 -1.18244 0
M  V30 24497 C 2250.9 -0.766106 -1.92194 0
M  V30 24498 C 2251.31 0.676902 -1.76248 0
M  V30 24499 O 2250.67 1.46153 -1.09296 0
M  V30 24500 C 2250.72 -1.12448 -3.43566 0
M  V30 24501 O 2250.44 -2.51084 -3.5901 0
M  V30 24502 C 2251.94 -0.873351 -4.34612 0
M  V30 24503 H 2249.16 -0.279299 -0.610109 0
M  V30 24504 H 2251.71 -1.38992 -1.50005 0
M  V30 24505 H 2249.86 -0.54561 -3.83539 0
M  V30 24506 H 2250.27 -2.64839 -4.52726 0
M  V30 24507 H 2251.75 -1.17395 -5.39372 0
M  V30 24508 H 2252.23 0.191832 -4.38781 0
M  V30 24509 H 2252.83 -1.43558 -4.00339 0
M  V30 24510 N 2251.15 1.34492 -0.821557 0
M  V30 24511 C 2252.39 1.99043 -0.418764 0
M  V30 24512 C 2252.75 1.63962 1.00669 0
M  V30 24513 O 2252.04 0.900301 1.69131 0
M  V30 24514 C 2252.23 3.5304 -0.556574 0
M  V30 24515 C 2252.06 4.03082 -1.99388 0
M  V30 24516 C 2250.83 4.31738 -2.62546 0
M  V30 24517 C 2253.03 4.20551 -2.96043 0
M  V30 24518 N 2251.01 4.67806 -3.97531 0
M  V30 24519 C 2252.38 4.59783 -4.15932 0
M  V30 24520 C 2254.44 4.02796 -2.92677 0
M  V30 24521 C 2253.14 4.83117 -5.32908 0
M  V30 24522 C 2255.17 4.27295 -4.08868 0
M  V30 24523 C 2254.53 4.66813 -5.27509 0
M  V30 24524 H 2250.63 0.755644 -0.201313 0
M  V30 24525 H 2253.21 1.62927 -1.06597 0
M  V30 24526 H 2251.38 3.88353 0.0607241 0
M  V30 24527 H 2253.12 4.04501 -0.126913 0
M  V30 24528 H 2249.87 4.22597 -2.13796 0
M  V30 24529 H 2250.3 4.90077 -4.67069 0
M  V30 24530 H 2254.94 3.71373 -2.02094 0
M  V30 24531 H 2252.66 5.13407 -6.2405 0
M  V30 24532 H 2256.24 4.15094 -4.07662 0
M  V30 24533 H 2255.12 4.85397 -6.15922 0
M  V30 24534 N 2252.62 0.576397 1.46681 0
M  V30 24535 C 2254.04 0.148124 1.86111 0
M  V30 24536 C 2254.39 -1.28718 1.48075 0
M  V30 24537 O 2253.51 -1.97129 0.892691 0
M  V30 24538 C 2254.11 0.262041 3.37785 0
M  V30 24539 C 2252.67 -0.111318 3.76235 0
M  V30 24540 C 2251.81 0.600878 2.70712 0
M  V30 24541 H 2254.76 0.784995 1.37926 0
M  V30 24542 H 2254.78 -0.514298 3.77008 0
M  V30 24543 H 2254.3 1.30677 3.65438 0
M  V30 24544 H 2252.4 -1.15643 3.542 0
M  V30 24545 H 2252.51 0.260604 4.78391 0
M  V30 24546 H 2250.87 0.0418231 2.54666 0
M  V30 24547 H 2251.66 1.64714 3.01205 0
M  V30 24548 N 2254.1 -1.54444 0.313841 0
M  V30 24549 C 2255.05 -2.25454 -0.572131 0
M  V30 24550 C 2256.04 -1.26512 -1.12655 0
M  V30 24551 O 2257.25 -1.44321 -1.07571 0
M  V30 24552 H 2253.63 -0.724045 -0.203134 0
M  V30 24553 H 2255.6 -2.98359 0.0491669 0
M  V30 24554 C 2254.35 -3.01823 -1.72621 0
M  V30 24555 H 2253.67 -3.77769 -1.30884 0
M  V30 24556 H 2255.11 -3.54771 -2.32193 0
M  V30 24557 C 2253.57 -2.09546 -2.63803 0
M  V30 24558 O 2254.1 -1.67192 -3.65253 0
M  V30 24559 N 2252.3 -1.75236 -2.31821 0
M  V30 24560 H 2251.85 -2.09876 -1.49365 0
M  V30 24561 H 2251.81 -1.13772 -2.93093 0
M  V30 24562 N 2255.58 -0.0418125 -1.57545 0
M  V30 24563 C 2256.99 0.495227 -1.80012 0
M  V30 24564 C 2257.34 1.71488 -0.953229 0
M  V30 24565 O 2256.47 2.15753 -0.167176 0
M  V30 24566 C 2257.06 0.905208 -3.26483 0
M  V30 24567 C 2255.62 1.38728 -3.49902 0
M  V30 24568 C 2254.77 0.358007 -2.74979 0
M  V30 24569 H 2257.72 -0.267763 -1.56425 0
M  V30 24570 H 2257.74 1.76876 -3.36891 0
M  V30 24571 H 2257.25 0.0173328 -3.88096 0
M  V30 24572 H 2255.35 2.29466 -2.93558 0
M  V30 24573 H 2255.47 1.3859 -4.58617 0
M  V30 24574 H 2253.83 0.828869 -2.40836 0
M  V30 24575 H 2254.61 -0.521621 -3.39314 0
M  V30 24576 N 2257.06 1.55891 0.231477 0
M  V30 24577 C 2258.02 1.90781 1.27024 0
M  V30 24578 C 2259.02 0.785531 1.40307 0
M  V30 24579 O 2260.21 1.05338 1.38742 0
M  V30 24580 C 2257.34 2.14988 2.64562 0
M  V30 24581 H 2258.54 2.83678 0.972968 0
M  V30 24582 H 2256.09 1.4902 0.47146 0
M  V30 24583 H 2256.82 1.2461 2.99404 0
M  V30 24584 H 2256.61 2.96737 2.563 0
M  V30 24585 H 2258.1 2.43111 3.39539 0
M  V30 24586 N 2258.54 -0.497781 1.49532 0
M  V30 24587 C 2259.47 -1.61575 1.62562 0
M  V30 24588 C 2260.48 -1.54666 0.508161 0
M  V30 24589 O 2261.67 -1.6054 0.780338 0
M  V30 24590 C 2258.77 -3.00376 1.56931 0
M  V30 24591 C 2257.94 -3.32435 2.84263 0
M  V30 24592 C 2257 -4.50664 2.7164 0
M  V30 24593 O 2256.03 -4.52288 3.45578 0
M  V30 24594 N 2257.23 -5.50767 1.83401 0
M  V30 24595 H 2260 -1.50823 2.58983 0
M  V30 24596 H 2257.56 -0.685717 1.46661 0
M  V30 24597 H 2259.55 -3.77394 1.46136 0
M  V30 24598 H 2258.12 -3.05035 0.683537 0
M  V30 24599 H 2257.34 -2.44284 3.09385 0
M  V30 24600 H 2258.63 -3.50654 3.68673 0
M  V30 24601 H 2258.02 -5.52257 1.22593 0
M  V30 24602 H 2256.58 -6.26874 1.78526 0
M  V30 24603 N 2260.01 -1.38661 -0.749062 0
M  V30 24604 C 2260.96 -1.36254 -1.86289 0
M  V30 24605 C 2261.93 -0.224376 -1.64578 0
M  V30 24606 O 2263.12 -0.417312 -1.8618 0
M  V30 24607 C 2260.26 -1.19791 -3.23642 0
M  V30 24608 C 2259.37 -2.43033 -3.57154 0
M  V30 24609 C 2258.5 -2.19266 -4.83834 0
M  V30 24610 C 2257.54 -3.38256 -5.10146 0
M  V30 24611 N 2256.68 -3.13895 -6.28024 0
M  V30 24612 H 2261.52 -2.31473 -1.87681 0
M  V30 24613 H 2259.06 -1.14998 -0.917267 0
M  V30 24614 H 2261.02 -1.08261 -4.02909 0
M  V30 24615 H 2259.65 -0.282087 -3.21565 0
M  V30 24616 H 2258.7 -2.65219 -2.72696 0
M  V30 24617 H 2260.01 -3.31704 -3.72524 0
M  V30 24618 H 2259.16 -2.04898 -5.71053 0
M  V30 24619 H 2257.9 -1.27968 -4.70612 0
M  V30 24620 H 2256.91 -3.53138 -4.21395 0
M  V30 24621 H 2258.13 -4.30436 -5.25263 0
M  V30 24622 H 2256.08 -2.25249 -6.16116 0
M  V30 24623 H 2256 -3.96117 -6.43915 0
M  V30 24624 H 2257.26 -3.03192 -7.18119 0
M  V30 24625 N 2261.49 0.977736 -1.23605 0
M  V30 24626 C 2262.46 2.05217 -1.02072 0
M  V30 24627 C 2263.46 1.60789 0.0184023 0
M  V30 24628 O 2264.65 1.72785 -0.2216 0
M  V30 24629 C 2261.78 3.36516 -0.544985 0
M  V30 24630 H 2262.97 2.25752 -1.97424 0
M  V30 24631 H 2260.52 1.15153 -1.05686 0
M  V30 24632 H 2261.26 3.2167 0.412184 0
M  V30 24633 H 2261.04 3.70102 -1.29486 0
M  V30 24634 H 2262.53 4.15532 -0.415058 0
M  V30 24635 N 2262.97 1.04818 1.1769 0
M  V30 24636 C 2264.2 0.776241 1.92326 0
M  V30 24637 C 2264.62 -0.661551 1.76083 0
M  V30 24638 O 2263.98 -1.45916 1.07603 0
M  V30 24639 C 2264.03 1.15693 3.41537 0
M  V30 24640 O 2263.13 0.286848 4.11401 0
M  V30 24641 H 2262.47 0.284992 0.59973 0
M  V30 24642 H 2265 1.40003 1.49199 0
M  V30 24643 H 2265.01 1.12209 3.92267 0
M  V30 24644 H 2263.69 2.20431 3.5268 0
M  V30 24645 H 2262.26 0.381969 3.70939 0
M  V30 24646 N 2264.45 -1.34055 0.828678 0
M  V30 24647 C 2265.7 -1.98401 0.420115 0
M  V30 24648 C 2266.03 -1.65527 -1.01561 0
M  V30 24649 O 2265.3 -0.929861 -1.70833 0
M  V30 24650 C 2265.59 -3.54558 0.629333 0
M  V30 24651 C 2265.44 -3.97155 2.11159 0
M  V30 24652 C 2266.76 -4.40046 0.0689529 0
M  V30 24653 H 2263.88 -0.720706 0.154117 0
M  V30 24654 H 2266.52 -1.58858 1.04231 0
M  V30 24655 H 2264.67 -3.88372 0.09971 0
M  V30 24656 H 2266.34 -3.73647 2.70529 0
M  V30 24657 H 2264.58 -3.47257 2.59991 0
M  V30 24658 H 2265.26 -5.05883 2.20877 0
M  V30 24659 H 2267.73 -4.12819 0.52153 0
M  V30 24660 H 2266.61 -5.48352 0.245102 0
M  V30 24661 H 2266.87 -4.30017 -1.02653 0
M  V30 24662 N 2265.93 -0.584167 -1.46374 0
M  V30 24663 C 2266.84 0.150686 -2.34116 0
M  V30 24664 C 2267.85 0.884541 -1.4984 0
M  V30 24665 O 2269.03 0.847397 -1.82705 0
M  V30 24666 C 2266.09 1.15056 -3.27052 0
M  V30 24667 C 2265.16 0.421218 -4.27229 0
M  V30 24668 C 2264.39 1.37346 -5.15725 0
M  V30 24669 O 2264.61 2.61006 -5.07181 0
M  V30 24670 O 2263.55 0.88325 -5.95384 0
M  V30 24671 H 2267.37 -0.56976 -2.98308 0
M  V30 24672 H 2264.96 -0.34456 -1.45372 0
M  V30 24673 H 2266.84 1.72705 -3.84384 0
M  V30 24674 H 2265.51 1.85245 -2.65454 0
M  V30 24675 H 2264.42 -0.197151 -3.7358 0
M  V30 24676 H 2265.75 -0.239727 -4.91616 0
M  V30 24677 N 2267.41 1.54275 -0.322027 0
M  V30 24678 C 2268.63 2.05422 0.285755 0
M  V30 24679 C 2269.06 1.19671 1.45122 0
M  V30 24680 O 2268.41 0.205473 1.80132 0
M  V30 24681 C 2268.46 3.5375 0.699497 0
M  V30 24682 O 2267.57 3.70945 1.80203 0
M  V30 24683 H 2266.91 0.66197 0.0518846 0
M  V30 24684 H 2269.44 1.99129 -0.469989 0
M  V30 24685 H 2269.45 3.95992 0.982579 0
M  V30 24686 H 2268.12 4.15619 -0.152937 0
M  V30 24687 H 2266.7 3.40609 1.51788 0
M  V30 24688 N 2268.88 0.0501669 1.5752 0
M  V30 24689 C 2270.12 -0.627748 1.94522 0
M  V30 24690 C 2270.49 -1.68068 0.928294 0
M  V30 24691 O 2271.69 -2.41259 1.18522 0
M  V30 24692 C 2269.96 -1.20926 3.36321 0
M  V30 24693 S 2271.52 -1.90532 3.95276 0
M  V30 24694 H 2268.34 -0.206146 0.680459 0
M  V30 24695 H 2270.94 0.118863 1.95138 0
M  V30 24696 H 2269.64 -0.430793 4.08133 0
M  V30 24697 H 2269.17 -1.99271 3.39197 0
M  V30 24698 H 2271.19 -3.18583 3.8042 0
M  V30 24699 N 2270.36 -1.56011 -0.223207 0
M  V30 24700 C 2271.61 -1.78146 -0.945881 0
M  V30 24701 C 2271.92 -0.618429 -1.85566 0
M  V30 24702 O 2273.13 -0.723364 -2.61686 0
M  V30 24703 C 2271.59 -3.15478 -1.7321 0
M  V30 24704 C 2271.19 -4.395 -0.868542 0
M  V30 24705 C 2272.94 -3.46939 -2.44609 0
M  V30 24706 C 2270.84 -5.67858 -1.65202 0
M  V30 24707 H 2269.77 -0.664173 -0.356917 0
M  V30 24708 H 2272.43 -1.82409 -0.199813 0
M  V30 24709 H 2270.81 -3.05387 -2.52101 0
M  V30 24710 H 2271.98 -4.60643 -0.120285 0
M  V30 24711 H 2270.3 -4.15545 -0.266757 0
M  V30 24712 H 2272.89 -4.40063 -3.03724 0
M  V30 24713 H 2273.24 -2.69361 -3.17412 0
M  V30 24714 H 2273.77 -3.58352 -1.72709 0
M  V30 24715 H 2270.51 -6.48324 -0.967293 0
M  V30 24716 H 2270.03 -5.50779 -2.37493 0
M  V30 24717 H 2271.71 -6.07972 -2.21312 0
M  V30 24718 N 2271.84 0.489844 -1.49794 0
M  V30 24719 C 2273.26 0.821998 -1.36804 0
M  V30 24720 C 2273.46 1.97291 -0.409687 0
M  V30 24721 O 2272.51 2.52026 0.154569 0
M  V30 24722 C 2273.82 1.1517 -2.7777 0
M  V30 24723 C 2275.37 1.25926 -2.86551 0
M  V30 24724 C 2275.85 1.6222 -4.28309 0
M  V30 24725 N 2277.34 1.69248 -4.31172 0
M  V30 24726 C 2278.07 1.98798 -5.37836 0
M  V30 24727 N 2277.57 2.26495 -6.5473 0
M  V30 24728 N 2279.36 2.00142 -5.25261 0
M  V30 24729 H 2271.51 -0.268918 -2.10691 0
M  V30 24730 H 2273.78 -0.0577447 -0.94624 0
M  V30 24731 H 2273.48 0.379273 -3.49649 0
M  V30 24732 H 2273.36 2.09248 -3.13839 0
M  V30 24733 H 2275.74 2.02239 -2.14903 0
M  V30 24734 H 2275.82 0.298731 -2.5405 0
M  V30 24735 H 2275.47 0.864534 -5.00488 0
M  V30 24736 H 2275.4 2.59392 -4.58283 0
M  V30 24737 H 2277.89 1.49958 -3.46873 0
M  V30 24738 H 2278.2 2.48263 -7.31837 0
M  V30 24739 H 2276.55 2.23927 -6.57937 0
M  V30 24740 H 2279.74 1.77988 -4.32941 0
M  V30 24741 H 2279.91 2.22837 -6.0848 0
M  V30 24742 N 2273.32 1.39056 0.741698 0
M  V30 24743 C 2274.55 1.39174 1.53095 0
M  V30 24744 C 2274.96 -0.0154767 1.88794 0
M  V30 24745 O 2274.32 -0.985132 1.53627 0
M  V30 24746 C 2274.37 2.25845 2.8227 0
M  V30 24747 O 2274.09 3.61086 2.4809 0
M  V30 24748 C 2275.59 2.34273 3.76339 0
M  V30 24749 H 2272.81 0.475608 0.473327 0
M  V30 24750 H 2275.35 1.82787 0.917013 0
M  V30 24751 H 2273.51 1.85662 3.40012 0
M  V30 24752 H 2273.92 4.06848 3.31021 0
M  V30 24753 H 2275.4 2.99178 4.63893 0
M  V30 24754 H 2275.87 1.35989 4.17617 0
M  V30 24755 H 2276.48 2.74896 3.24518 0
M  V30 24756 N 2274.8 -0.971167 1.24121 0
M  V30 24757 C 2275.73 -2.08302 1.05511 0
M  V30 24758 C 2276.71 -1.70072 -0.0308565 0
M  V30 24759 O 2277.89 -1.93726 0.135556 0
M  V30 24760 C 2275.02 -3.41059 0.655425 0
M  V30 24761 C 2273.98 -3.93231 1.68978 0
M  V30 24762 C 2273.3 -5.22291 1.14525 0
M  V30 24763 C 2274.6 -4.2146 3.08494 0
M  V30 24764 H 2276.3 -2.24129 1.98511 0
M  V30 24765 H 2273.84 -1.07702 0.95584 0
M  V30 24766 H 2275.79 -4.18275 0.512243 0
M  V30 24767 H 2274.52 -3.25123 -0.310263 0
M  V30 24768 H 2273.18 -3.18168 1.82111 0
M  V30 24769 H 2272.83 -5.02712 0.170277 0
M  V30 24770 H 2272.53 -5.58165 1.83645 0
M  V30 24771 H 2274.05 -6.0212 1.01412 0
M  V30 24772 H 2275.46 -4.89393 2.98609 0
M  V30 24773 H 2273.86 -4.68555 3.74935 0
M  V30 24774 H 2274.93 -3.2837 3.56793 0
M  V30 24775 N 2276.27 -1.05441 -1.17133 0
M  V30 24776 C 2277.24 -0.661802 -2.19438 0
M  V30 24777 C 2278.24 0.288014 -1.582 0
M  V30 24778 O 2279.43 0.0715497 -1.74053 0
M  V30 24779 C 2276.56 0.027561 -3.40889 0
M  V30 24780 H 2277.75 -1.56732 -2.55685 0
M  V30 24781 H 2275.31 -0.84859 -1.31258 0
M  V30 24782 H 2276.04 0.946235 -3.10188 0
M  V30 24783 H 2275.83 -0.655306 -3.86585 0
M  V30 24784 H 2277.32 0.288269 -4.16604 0
M  V30 24785 N 2277.75 1.33613 -0.835776 0
M  V30 24786 C 2278.66 2.33051 -0.269129 0
M  V30 24787 C 2279.68 1.63209 0.603222 0
M  V30 24788 O 2280.85 1.94886 0.508078 0
M  V30 24789 C 2277.92 3.42325 0.549031 0
M  V30 24790 C 2276.98 4.27893 -0.347231 0
M  V30 24791 C 2276.21 5.31949 0.431976 0
M  V30 24792 O 2276.44 5.45589 1.66399 0
M  V30 24793 O 2275.37 6.01592 -0.192404 0
M  V30 24794 H 2279.2 2.8337 -1.09248 0
M  V30 24795 H 2276.78 1.369 -0.598222 0
M  V30 24796 H 2278.66 4.09017 1.01407 0
M  V30 24797 H 2277.34 2.94228 1.34949 0
M  V30 24798 H 2276.25 3.6408 -0.860043 0
M  V30 24799 H 2277.58 4.79465 -1.11238 0
M  V30 24800 N 2279.23 0.591922 1.46062 0
M  V30 24801 C 2280.48 0.0811547 2.02638 0
M  V30 24802 C 2280.81 -1.27902 1.46132 0
M  V30 24803 O 2280.08 -1.84016 0.62994 0
M  V30 24804 C 2280.37 0.0253069 3.60091 0
M  V30 24805 C 2280.22 1.41504 4.26962 0
M  V30 24806 C 2281.54 -0.670608 4.34961 0
M  V30 24807 H 2278.66 0.0309654 0.736349 0
M  V30 24808 H 2281.3 0.76089 1.74099 0
M  V30 24809 H 2279.45 -0.553557 3.84536 0
M  V30 24810 H 2281.12 2.03978 4.13752 0
M  V30 24811 H 2279.37 1.98018 3.85968 0
M  V30 24812 H 2280.04 1.32835 5.35779 0
M  V30 24813 H 2282.51 -0.178752 4.15716 0
M  V30 24814 H 2281.39 -0.678742 5.44687 0
M  V30 24815 H 2281.65 -1.73371 4.06688 0
M  V30 24816 N 2280.71 -1.54102 0.330204 0
M  V30 24817 C 2281.67 -2.23221 -0.520105 0
M  V30 24818 C 2282.67 -1.22788 -1.03826 0
M  V30 24819 O 2283.86 -1.47321 -0.929626 0
M  V30 24820 C 2280.99 -2.94145 -1.72312 0
M  V30 24821 H 2282.19 -2.99782 0.0842132 0
M  V30 24822 H 2279.74 -1.56088 0.0813707 0
M  V30 24823 H 2280.47 -2.21738 -2.36649 0
M  V30 24824 H 2280.26 -3.67799 -1.35892 0
M  V30 24825 H 2281.75 -3.46788 -2.32654 0
M  V30 24826 N 2282.19 -0.0585199 -1.57491 0
M  V30 24827 C 2283.13 0.913338 -2.11959 0
M  V30 24828 C 2284.1 1.30405 -1.02877 0
M  V30 24829 O 2285.29 1.39224 -1.30466 0
M  V30 24830 C 2282.43 2.18031 -2.67501 0
M  V30 24831 C 2281.54 1.84342 -3.90694 0
M  V30 24832 C 2280.68 3.05551 -4.34525 0
M  V30 24833 C 2279.72 2.67817 -5.504 0
M  V30 24834 N 2278.85 3.81744 -5.89251 0
M  V30 24835 H 2283.69 0.441965 -2.94704 0
M  V30 24836 H 2281.23 0.20652 -1.45643 0
M  V30 24837 H 2283.19 2.92178 -2.97805 0
M  V30 24838 H 2281.82 2.62732 -1.87542 0
M  V30 24839 H 2280.87 1.00313 -3.66935 0
M  V30 24840 H 2282.18 1.52571 -4.74893 0
M  V30 24841 H 2281.34 3.8799 -4.66421 0
M  V30 24842 H 2280.07 3.40505 -3.49153 0
M  V30 24843 H 2279.08 1.83797 -5.18169 0
M  V30 24844 H 2280.3 2.34048 -6.37494 0
M  V30 24845 H 2278.25 4.16485 -5.0683 0
M  V30 24846 H 2278.17 3.53697 -6.68158 0
M  V30 24847 H 2279.44 4.648 -6.25764 0
M  V30 24848 N 2283.66 1.56128 0.21493 0
M  V30 24849 C 2284.61 1.93818 1.28597 0
M  V30 24850 C 2285.61 0.821042 1.48173 0
M  V30 24851 O 2286.81 1.00592 1.49269 0
M  V30 24852 H 2283.19 0.616029 0.431291 0
M  V30 24853 H 2285.16 2.83176 0.940941 0
M  V30 24854 C 2283.91 2.27694 2.62775 0
M  V30 24855 H 2283.23 3.13172 2.48522 0
M  V30 24856 H 2284.67 2.57945 3.36512 0
M  V30 24857 C 2283.13 1.10442 3.18283 0
M  V30 24858 O 2283.66 0.369015 4.00001 0
M  V30 24859 N 2281.87 0.886481 2.76749 0
M  V30 24860 H 2281.41 1.48623 2.10402 0
M  V30 24861 H 2281.37 0.103712 3.14229 0
M  V30 24862 N 2285.14 -0.481893 1.50052 0
M  V30 24863 C 2286.56 -0.814732 1.37238 0
M  V30 24864 C 2286.76 -1.97071 0.420144 0
M  V30 24865 O 2285.81 -2.52105 -0.141201 0
M  V30 24866 C 2287.13 -1.13696 2.78377 0
M  V30 24867 C 2288.68 -1.24405 2.87215 0
M  V30 24868 C 2289.15 -1.59946 4.29163 0
M  V30 24869 N 2290.64 -1.66959 4.32064 0
M  V30 24870 C 2291.38 -1.95942 5.38882 0
M  V30 24871 N 2290.87 -2.2302 6.55922 0
M  V30 24872 N 2292.67 -1.97354 5.26315 0
M  V30 24873 H 2284.82 0.280087 2.10545 0
M  V30 24874 H 2287.08 0.062762 0.94592 0
M  V30 24875 H 2286.79 -0.360725 3.49845 0
M  V30 24876 H 2286.66 -2.07581 3.14945 0
M  V30 24877 H 2289.05 -2.01097 2.15972 0
M  V30 24878 H 2289.13 -0.285254 2.54205 0
M  V30 24879 H 2288.77 -0.837979 5.00939 0
M  V30 24880 H 2288.7 -2.56958 4.59652 0
M  V30 24881 H 2291.19 -1.48117 3.47663 0
M  V30 24882 H 2291.51 -2.44378 7.33143 0
M  V30 24883 H 2289.85 -2.20435 6.59116 0
M  V30 24884 H 2293.04 -1.75689 4.33879 0
M  V30 24885 H 2293.21 -2.19607 6.09653 0
M  V30 24886 N 2286.62 -1.39448 -0.734313 0
M  V30 24887 C 2287.87 -1.36439 -1.49094 0
M  V30 24888 C 2288.19 0.0387912 -1.94961 0
M  V30 24889 O 2287.46 0.990161 -1.69034 0
M  V30 24890 H 2286.04 -0.502094 -0.553092 0
M  V30 24891 H 2288.7 -1.7432 -0.871694 0
M  V30 24892 H 2287.8 -2.02751 -2.37273 0
M  V30 24893 N 2288.1 0.964571 -1.24635 0
M  V30 24894 C 2289.35 1.70228 -1.08191 0
M  V30 24895 C 2289.66 1.91899 0.378696 0
M  V30 24896 O 2290.87 2.63271 0.66338 0
M  V30 24897 C 2289.32 3.06416 -1.88778 0
M  V30 24898 C 2288.93 2.92576 -3.39268 0
M  V30 24899 C 2290.67 3.84038 -1.80874 0
M  V30 24900 C 2288.58 4.24094 -4.12187 0
M  V30 24901 H 2287.51 0.638364 -0.401256 0
M  V30 24902 H 2290.16 1.0746 -1.48744 0
M  V30 24903 H 2288.54 3.70031 -1.41042 0
M  V30 24904 H 2289.72 2.37954 -3.94607 0
M  V30 24905 H 2288.03 2.28418 -3.48158 0
M  V30 24906 H 2290.63 4.81431 -2.32654 0
M  V30 24907 H 2290.97 4.0903 -0.774615 0
M  V30 24908 H 2291.51 3.27155 -2.26307 0
M  V30 24909 H 2288.25 4.04294 -5.15972 0
M  V30 24910 H 2287.77 4.78519 -3.61634 0
M  V30 24911 H 2289.44 4.92695 -4.19358 0
M  V30 24912 N 2289.58 1.0606 1.16572 0
M  V30 24913 C 2290.54 0.67343 2.19083 0
M  V30 24914 C 2291.54 -0.27962 1.5835 0
M  V30 24915 O 2292.73 -0.0623182 1.74088 0
M  V30 24916 C 2289.86 -0.00948241 3.40899 0
M  V30 24917 H 2291.05 1.58086 2.54851 0
M  V30 24918 H 2288.61 0.855539 1.30806 0
M  V30 24919 H 2289.34 -0.929772 3.10686 0
M  V30 24920 H 2289.13 0.675798 3.86232 0
M  V30 24921 H 2290.62 -0.266171 4.16751 0
M  V30 24922 N 2291.06 -1.33168 0.84285 0
M  V30 24923 C 2292.3 -1.96914 0.436773 0
M  V30 24924 C 2292.62 -1.67493 -1.01022 0
M  V30 24925 O 2293.82 -2.24884 -1.52116 0
M  V30 24926 C 2292.28 -3.52417 0.730082 0
M  V30 24927 C 2291.89 -3.9071 2.19202 0
M  V30 24928 C 2293.63 -4.22694 0.391151 0
M  V30 24929 C 2291.54 -5.39208 2.42917 0
M  V30 24930 H 2290.47 -0.736917 0.159593 0
M  V30 24931 H 2293.12 -1.51731 1.03199 0
M  V30 24932 H 2291.5 -3.95948 0.0644451 0
M  V30 24933 H 2292.68 -3.58226 2.89846 0
M  V30 24934 H 2290.99 -3.33426 2.49431 0
M  V30 24935 H 2293.59 -5.31906 0.54591 0
M  V30 24936 H 2293.93 -4.10935 -0.666222 0
M  V30 24937 H 2294.46 -3.84707 1.01219 0
M  V30 24938 H 2291.2 -5.55976 3.47234 0
M  V30 24939 H 2290.72 -5.73139 1.76837 0
M  V30 24940 H 2292.4 -6.06144 2.2627 0
M  V30 24941 N 2292.53 -0.599659 -1.45746 0
M  V30 24942 C 2293.94 -0.177714 -1.85852 0
M  V30 24943 C 2294.3 1.26346 -1.50104 0
M  V30 24944 O 2293.42 1.95684 -0.92394 0
M  V30 24945 C 2294.02 -0.315747 -3.37325 0
M  V30 24946 C 2292.57 0.0514483 -3.76365 0
M  V30 24947 C 2291.72 -0.643869 -2.69721 0
M  V30 24948 H 2294.67 -0.806838 -1.36659 0
M  V30 24949 H 2294.69 0.454254 -3.77779 0
M  V30 24950 H 2294.21 -1.36475 -3.63313 0
M  V30 24951 H 2292.31 1.09993 -3.55995 0
M  V30 24952 H 2292.42 -0.336678 -4.77916 0
M  V30 24953 H 2290.78 -0.0823329 -2.54567 0
M  V30 24954 H 2291.57 -1.69485 -2.98546 0
M  V30 24955 N 2294.01 1.53925 -0.338371 0
M  V30 24956 C 2295.26 2.01125 0.260108 0
M  V30 24957 C 2295.59 1.22592 1.50615 0
M  V30 24958 O 2294.87 0.312147 1.91979 0
M  V30 24959 C 2295.15 3.55408 0.579437 0
M  V30 24960 C 2295 4.44656 -0.678342 0
M  V30 24961 C 2296.32 4.17535 1.39114 0
M  V30 24962 H 2293.44 0.731101 0.0930644 0
M  V30 24963 H 2296.08 1.844 -0.457884 0
M  V30 24964 H 2294.23 3.6979 1.19112 0
M  V30 24965 H 2295.9 4.42119 -1.31639 0
M  V30 24966 H 2294.15 4.13728 -1.30427 0
M  V30 24967 H 2294.82 5.50473 -0.41024 0
M  V30 24968 H 2297.29 4.06818 0.873963 0
M  V30 24969 H 2296.17 5.25568 1.58333 0
M  V30 24970 H 2296.43 3.71819 2.39171 0
M  V30 24971 N 2295.49 0.0668712 1.57458 0
M  V30 24972 C 2296.77 -0.6441 1.84691 0
M  V30 24973 C 2297.15 -1.88091 0.958376 0
M  V30 24974 O 2296.49 -2.28488 0.0233981 0
M  V30 24975 C 2296.7 -0.986451 3.34769 0
M  V30 24976 C 2298.05 -1.36205 4.02161 0
M  V30 24977 O 2299.08 -1.07833 3.39486 0
M  V30 24978 O 2297.94 -1.89218 5.12698 0
M  V30 24979 H 2295.03 -0.319424 0.762822 0
M  V30 24980 H 2297.58 0.0974284 1.6942 0
M  V30 24981 H 2296.35 -0.107814 3.91151 0
M  V30 24982 H 2295.97 -1.78491 3.55284 0
M  V30 24983 N 2296.97 -1.56239 -0.206647 0
M  V30 24984 C 2297.9 -1.96647 -1.25906 0
M  V30 24985 C 2298.88 -0.83676 -1.48096 0
M  V30 24986 O 2300.06 -1.10021 -1.60028 0
M  V30 24987 C 2297.19 -2.29603 -2.60576 0
M  V30 24988 C 2296.15 -3.45204 -2.53018 0
M  V30 24989 C 2295.47 -3.63805 -3.91854 0
M  V30 24990 C 2296.77 -4.79738 -2.06516 0
M  V30 24991 H 2298.47 -2.84807 -0.923319 0
M  V30 24992 H 2296.01 -1.37026 -0.442711 0
M  V30 24993 H 2297.97 -2.56464 -3.34371 0
M  V30 24994 H 2296.69 -1.38312 -2.95867 0
M  V30 24995 H 2295.35 -3.18415 -1.81679 0
M  V30 24996 H 2295 -2.69865 -4.24479 0
M  V30 24997 H 2294.7 -4.41567 -3.87675 0
M  V30 24998 H 2296.22 -3.93031 -4.67289 0
M  V30 24999 H 2297.64 -5.05706 -2.70063 0
M  V30 25000 H 2296.03 -5.60888 -2.13364 0
M  V30 25001 H 2297.1 -4.74095 -1.01793 0
M  V30 25002 N 2298.45 0.473929 -1.50305 0
M  V30 25003 C 2299.72 1.23515 -1.51669 0
M  V30 25004 C 2300.1 2.09496 -0.259738 0
M  V30 25005 O 2299.45 2.15598 0.756948 0
M  V30 25006 C 2299.66 2.06863 -2.81085 0
M  V30 25007 C 2301.01 2.65147 -3.31636 0
M  V30 25008 O 2302.03 2.17108 -2.82387 0
M  V30 25009 O 2300.89 3.52668 -4.17478 0
M  V30 25010 H 2297.99 0.560344 -0.60823 0
M  V30 25011 H 2300.53 0.485982 -1.62592 0
M  V30 25012 H 2299.3 1.43484 -3.64044 0
M  V30 25013 H 2298.93 2.88919 -2.73151 0
M  V30 25014 N 2299.92 1.39835 0.726907 0
M  V30 25015 C 2301.15 1.40978 1.52118 0
M  V30 25016 C 2301.57 0.00829336 1.88098 0
M  V30 25017 O 2300.93 -0.98078 1.52481 0
M  V30 25018 C 2300.98 2.29649 2.78017 0
M  V30 25019 O 2300.08 1.73194 3.74269 0
M  V30 25020 H 2299.42 0.479739 0.459071 0
M  V30 25021 H 2301.95 1.83929 0.896175 0
M  V30 25022 H 2301.96 2.44443 3.26667 0
M  V30 25023 H 2300.64 3.31497 2.51163 0
M  V30 25024 H 2299.22 1.67686 3.3307 0
M  V30 25025 N 2301.4 -0.957948 1.25144 0
M  V30 25026 C 2302.33 -2.05734 1.01026 0
M  V30 25027 C 2303.35 -1.62783 -0.0236616 0
M  V30 25028 O 2304.54 -1.77206 0.214511 0
M  V30 25029 C 2301.64 -3.35122 0.504654 0
M  V30 25030 C 2300.81 -4.06929 1.60397 0
M  V30 25031 C 2299.87 -5.14589 1.09931 0
M  V30 25032 O 2298.89 -5.40221 1.79303 0
M  V30 25033 N 2300.1 -5.80468 -0.0611525 0
M  V30 25034 H 2302.86 -2.26995 1.95687 0
M  V30 25035 H 2300.42 -1.12627 1.16305 0
M  V30 25036 H 2302.41 -4.04416 0.151587 0
M  V30 25037 H 2300.98 -3.10658 -0.347935 0
M  V30 25038 H 2300.2 -3.31778 2.12877 0
M  V30 25039 H 2301.49 -4.51663 2.3426 0
M  V30 25040 H 2300.89 -5.62058 -0.640887 0
M  V30 25041 H 2299.45 -6.50831 -0.355281 0
M  V30 25042 N 2302.88 -1.06677 -1.16008 0
M  V30 25043 C 2304.13 -0.786978 -1.86908 0
M  V30 25044 C 2304.46 0.684986 -1.81718 0
M  V30 25045 O 2303.73 1.50215 -1.23554 0
M  V30 25046 C 2304.02 -1.28713 -3.36311 0
M  V30 25047 C 2303.87 -2.82314 -3.5017 0
M  V30 25048 C 2305.19 -0.898147 -4.30838 0
M  V30 25049 H 2302.31 -0.287355 -0.678672 0
M  V30 25050 H 2304.95 -1.32337 -1.36334 0
M  V30 25051 H 2303.1 -0.830835 -3.79512 0
M  V30 25052 H 2304.77 -3.36181 -3.1588 0
M  V30 25053 H 2303.01 -3.20852 -2.91953 0
M  V30 25054 H 2303.69 -3.12376 -4.5511 0
M  V30 25055 H 2306.16 -1.29121 -3.95559 0
M  V30 25056 H 2305.04 -1.27552 -5.33874 0
M  V30 25057 H 2305.3 0.196574 -4.41663 0
M  V30 25058 N 2304.36 1.32719 -0.8499 0
M  V30 25059 C 2305.31 2.30911 -0.279785 0
M  V30 25060 C 2306.3 1.58635 0.59425 0
M  V30 25061 O 2307.51 1.7341 0.482583 0
M  V30 25062 H 2303.88 0.748568 -0.0717653 0
M  V30 25063 H 2305.85 2.76492 -1.12227 0
M  V30 25064 C 2304.6 3.43774 0.521047 0
M  V30 25065 H 2303.92 3.99547 -0.142211 0
M  V30 25066 H 2305.36 4.14648 0.88562 0
M  V30 25067 C 2303.82 2.90608 1.70437 0
M  V30 25068 O 2304.35 2.87707 2.80335 0
M  V30 25069 N 2302.56 2.4707 1.52987 0
M  V30 25070 H 2302.11 2.49629 0.63587 0
M  V30 25071 H 2302.06 2.11851 2.32307 0
M  V30 25072 N 2305.84 0.60738 1.45426 0
M  V30 25073 C 2307.06 0.10885 2.06613 0
M  V30 25074 C 2307.48 -1.20668 1.45206 0
M  V30 25075 O 2306.84 -1.73496 0.566162 0
M  V30 25076 C 2306.89 -0.0374712 3.61481 0
M  V30 25077 O 2306.61 1.22601 4.20596 0
M  V30 25078 C 2308.11 -0.567484 4.39653 0
M  V30 25079 H 2305.33 0.0687468 0.667469 0
M  V30 25080 H 2307.87 0.835054 1.86674 0
M  V30 25081 H 2306.03 -0.714001 3.80763 0
M  V30 25082 H 2306.44 1.05556 5.13769 0
M  V30 25083 H 2307.92 -0.618954 5.48519 0
M  V30 25084 H 2308.39 -1.58971 4.0942 0
M  V30 25085 H 2309 0.0749949 4.25234 0
M  V30 25086 N 2307.31 -1.53743 0.34653 0
M  V30 25087 C 2308.24 -2.28059 -0.501153 0
M  V30 25088 C 2309.23 -1.29736 -1.10011 0
M  V30 25089 O 2310.41 -1.58583 -1.12094 0
M  V30 25090 C 2307.54 -3.05562 -1.65073 0
M  V30 25091 C 2306.49 -4.11413 -1.17996 0
M  V30 25092 C 2305.82 -4.76889 -2.41829 0
M  V30 25093 C 2307.12 -5.21558 -0.278303 0
M  V30 25094 H 2308.81 -2.99164 0.118803 0
M  V30 25095 H 2306.36 -1.43881 0.0585784 0
M  V30 25096 H 2308.31 -3.56291 -2.25022 0
M  V30 25097 H 2307.04 -2.32113 -2.29763 0
M  V30 25098 H 2305.7 -3.61602 -0.603268 0
M  V30 25099 H 2305.34 -4.00031 -3.04933 0
M  V30 25100 H 2305.04 -5.48405 -2.1101 0
M  V30 25101 H 2306.57 -5.30403 -3.02499 0
M  V30 25102 H 2307.98 -5.67904 -0.784723 0
M  V30 25103 H 2306.38 -6.00068 -0.0618652 0
M  V30 25104 H 2307.45 -4.80041 0.684761 0
M  V30 25105 N 2308.79 -0.0752207 -1.5742 0
M  V30 25106 C 2310.04 0.593112 -1.93619 0
M  V30 25107 C 2310.37 1.69411 -0.955514 0
M  V30 25108 O 2309.62 1.9568 0.0282907 0
M  V30 25109 C 2309.92 1.2062 -3.36431 0
M  V30 25110 C 2309.59 0.230999 -4.50308 0
M  V30 25111 C 2308.25 -0.0372781 -4.81186 0
M  V30 25112 C 2310.6 -0.435979 -5.19373 0
M  V30 25113 C 2307.93 -0.979562 -5.78465 0
M  V30 25114 C 2310.28 -1.36661 -6.17662 0
M  V30 25115 C 2308.95 -1.64332 -6.46955 0
M  V30 25116 H 2308.22 0.217035 -0.708503 0
M  V30 25117 H 2310.86 -0.146826 -1.90936 0
M  V30 25118 H 2309.17 2.02195 -3.35596 0
M  V30 25119 H 2310.86 1.73067 -3.6173 0
M  V30 25120 H 2307.45 0.450282 -4.26228 0
M  V30 25121 H 2311.64 -0.241836 -4.9571 0
M  V30 25122 H 2306.89 -1.20116 -5.99485 0
M  V30 25123 H 2311.07 -1.88936 -6.70281 0
M  V30 25124 H 2308.7 -2.37507 -7.22146 0
M  V30 25125 N 2310.27 1.56347 0.198358 0
M  V30 25126 C 2311.2 1.89341 1.27378 0
M  V30 25127 C 2312.18 0.753159 1.44105 0
M  V30 25128 O 2313.37 1.00384 1.59547 0
M  V30 25129 C 2310.49 2.12075 2.64087 0
M  V30 25130 C 2309.54 3.34777 2.64247 0
M  V30 25131 S 2310.37 4.90002 2.16005 0
M  V30 25132 C 2311.53 5.158 3.54544 0
M  V30 25133 H 2311.76 2.80261 0.992008 0
M  V30 25134 H 2309.29 1.49083 0.4017 0
M  V30 25135 H 2311.25 2.25856 3.42782 0
M  V30 25136 H 2309.91 1.21911 2.89476 0
M  V30 25137 H 2309.11 3.478 3.64761 0
M  V30 25138 H 2308.71 3.19973 1.93631 0
M  V30 25139 H 2311 5.0612 4.50387 0
M  V30 25140 H 2311.94 6.17576 3.46418 0
M  V30 25141 H 2312.35 4.43448 3.49305 0
M  V30 25142 N 2311.75 -0.465951 1.50554 0
M  V30 25143 C 2312.7 -1.5633 1.69793 0
M  V30 25144 C 2313.67 -1.57102 0.539266 0
M  V30 25145 O 2314.85 -1.74554 0.770432 0
M  V30 25146 C 2311.99 -2.94268 1.80278 0
M  V30 25147 C 2311.1 -3.03245 3.07679 0
M  V30 25148 C 2310.24 -4.3213 3.08929 0
M  V30 25149 C 2309.28 -4.34868 4.30763 0
M  V30 25150 N 2308.41 -5.55232 4.29723 0
M  V30 25151 H 2313.25 -1.39231 2.63475 0
M  V30 25152 H 2310.79 -0.67685 1.30603 0
M  V30 25153 H 2312.75 -3.74266 1.84338 0
M  V30 25154 H 2311.38 -3.09991 0.900312 0
M  V30 25155 H 2310.43 -2.16088 3.13066 0
M  V30 25156 H 2311.74 -3.01128 3.97647 0
M  V30 25157 H 2310.9 -5.20479 3.11747 0
M  V30 25158 H 2309.64 -4.36863 2.168 0
M  V30 25159 H 2308.64 -3.44915 4.28152 0
M  V30 25160 H 2309.87 -4.31822 5.24125 0
M  V30 25161 H 2307.81 -5.6074 3.4045 0
M  V30 25162 H 2307.73 -5.54877 5.13466 0
M  V30 25163 H 2309 -6.45692 4.36694 0
M  V30 25164 N 2313.23 -1.40218 -0.719481 0
M  V30 25165 C 2314.45 -1.41783 -1.51368 0
M  V30 25166 C 2314.88 -0.0182685 -1.88091 0
M  V30 25167 O 2314.23 0.97268 -1.52999 0
M  V30 25168 C 2314.28 -2.3112 -2.76796 0
M  V30 25169 O 2313.39 -1.75177 -3.73345 0
M  V30 25170 H 2312.73 -0.482167 -0.456521 0
M  V30 25171 H 2315.26 -1.84402 -0.886408 0
M  V30 25172 H 2315.27 -2.46172 -3.25366 0
M  V30 25173 H 2313.94 -3.32824 -2.49401 0
M  V30 25174 H 2312.52 -1.6945 -3.32176 0
M  V30 25175 N 2314.7 0.951297 -1.25651 0
M  V30 25176 C 2315.65 2.03405 -1.03008 0
M  V30 25177 C 2316.64 1.60864 0.0341587 0
M  V30 25178 O 2317.83 1.76066 -0.18158 0
M  V30 25179 C 2314.96 3.37007 -0.654314 0
M  V30 25180 C 2314.05 3.86062 -1.75548 0
M  V30 25181 N 2314.44 4.07874 -2.9912 0
M  V30 25182 C 2312.73 4.14881 -1.63676 0
M  V30 25183 C 2313.44 4.48349 -3.70618 0
M  V30 25184 N 2312.41 4.54472 -2.98255 0
M  V30 25185 H 2316.21 2.18267 -1.96817 0
M  V30 25186 H 2313.73 1.13637 -1.16019 0
M  V30 25187 H 2315.72 4.14205 -0.473279 0
M  V30 25188 H 2314.38 3.23521 0.276411 0
M  V30 25189 H 2315.4 3.94852 -3.35131 0
M  V30 25190 H 2312.07 4.10239 -0.775234 0
M  V30 25191 H 2313.46 4.73501 -4.76704 0
M  V30 25192 N 2316.18 1.07291 1.1544 0
M  V30 25193 C 2317.41 0.816861 1.90636 0
M  V30 25194 C 2317.83 -0.624052 1.77446 0
M  V30 25195 O 2317.19 -1.436 1.10674 0
M  V30 25196 C 2317.24 1.22912 3.39006 0
M  V30 25197 O 2316.34 0.374047 4.107 0
M  V30 25198 H 2315.68 0.297649 0.59355 0
M  V30 25199 H 2318.21 1.43136 1.46196 0
M  V30 25200 H 2318.22 1.20504 3.89798 0
M  V30 25201 H 2316.9 2.27862 3.47925 0
M  V30 25202 H 2315.48 0.460564 3.70045 0
M  V30 25203 N 2317.66 -1.32267 0.856927 0
M  V30 25204 C 2318.61 -2.3076 0.292027 0
M  V30 25205 C 2319.6 -1.58948 -0.585829 0
M  V30 25206 O 2320.81 -1.73664 -0.47338 0
M  V30 25207 H 2317.18 -0.748177 0.0757341 0
M  V30 25208 H 2319.15 -2.75893 1.13691 0
M  V30 25209 C 2317.9 -3.44045 -0.502809 0
M  V30 25210 H 2317.23 -3.99466 0.163398 0
M  V30 25211 H 2318.67 -4.15112 -0.863618 0
M  V30 25212 C 2317.13 -2.91508 -1.68893 0
M  V30 25213 O 2317.66 -2.89189 -2.78805 0
M  V30 25214 N 2315.86 -2.47877 -1.51675 0
M  V30 25215 H 2315.41 -2.49962 -0.622622 0
M  V30 25216 H 2315.37 -2.1308 -2.3118 0
M  V30 25217 N 2319.14 -0.615084 -1.45102 0
M  V30 25218 C 2320.07 0.148368 -2.27717 0
M  V30 25219 C 2321.05 0.866548 -1.37585 0
M  V30 25220 O 2322.23 0.8739 -1.67019 0
M  V30 25221 C 2319.36 1.21551 -3.16138 0
M  V30 25222 C 2318.41 0.599638 -4.22264 0
M  V30 25223 S 2319.24 -0.598175 -5.32149 0
M  V30 25224 C 2320.4 0.469374 -6.24138 0
M  V30 25225 H 2320.63 -0.552534 -2.9212 0
M  V30 25226 H 2318.16 -0.402805 -1.49053 0
M  V30 25227 H 2320.12 1.82631 -3.67636 0
M  V30 25228 H 2318.78 1.88852 -2.50985 0
M  V30 25229 H 2317.97 1.40282 -4.84084 0
M  V30 25230 H 2317.58 0.0638103 -3.73946 0
M  V30 25231 H 2319.87 1.3464 -6.63987 0
M  V30 25232 H 2320.81 -0.112849 -7.0801 0
M  V30 25233 H 2321.22 0.78807 -5.58972 0
M  V30 25234 N 2320.62 1.53557 -0.354678 0
M  V30 25235 C 2321.86 2.0139 0.238761 0
M  V30 25236 C 2322.2 1.24182 1.49306 0
M  V30 25237 O 2321.47 0.332491 1.91637 0
M  V30 25238 C 2321.75 3.56002 0.541709 0
M  V30 25239 C 2321.61 4.43911 -0.725466 0
M  V30 25240 C 2322.93 4.18987 1.34678 0
M  V30 25241 H 2320.05 0.732047 0.0853048 0
M  V30 25242 H 2322.69 1.83904 -0.477416 0
M  V30 25243 H 2320.84 3.71033 1.15183 0
M  V30 25244 H 2322.51 4.40698 -1.36321 0
M  V30 25245 H 2320.75 4.12322 -1.34808 0
M  V30 25246 H 2321.42 5.50007 -0.468602 0
M  V30 25247 H 2323.9 4.07722 0.830765 0
M  V30 25248 H 2322.78 5.27218 1.5275 0
M  V30 25249 H 2323.04 3.74335 2.35214 0
M  V30 25250 N 2322.1 0.083568 1.57378 0
M  V30 25251 C 2323.03 -0.909301 2.10391 0
M  V30 25252 C 2324.04 -1.25367 1.0386 0
M  V30 25253 O 2325.23 -1.2088 1.3134 0
M  V30 25254 C 2322.33 -2.22176 2.55912 0
M  V30 25255 C 2321.5 -2.05446 3.86148 0
M  V30 25256 C 2320.56 -3.20101 4.17638 0
M  V30 25257 O 2319.59 -2.94572 4.87048 0
M  V30 25258 N 2320.79 -4.4554 3.72121 0
M  V30 25259 H 2323.55 -0.456605 2.96201 0
M  V30 25260 H 2321.12 -0.101848 1.61579 0
M  V30 25261 H 2323.11 -2.97806 2.74032 0
M  V30 25262 H 2321.68 -2.58906 1.75175 0
M  V30 25263 H 2320.9 -1.14213 3.77292 0
M  V30 25264 H 2322.19 -1.91532 4.71373 0
M  V30 25265 H 2321.58 -4.69165 3.1607 0
M  V30 25266 H 2320.14 -5.18158 3.95418 0
M  V30 25267 N 2323.57 -1.5645 -0.190064 0
M  V30 25268 C 2324.99 -1.50147 -0.541104 0
M  V30 25269 C 2325.19 -0.784498 -1.85601 0
M  V30 25270 O 2324.25 -0.337095 -2.5024 0
M  V30 25271 C 2325.56 -2.94831 -0.591189 0
M  V30 25272 C 2327.11 -3.05531 -0.679678 0
M  V30 25273 C 2327.58 -4.51636 -0.760828 0
M  V30 25274 N 2329.07 -4.55808 -0.824222 0
M  V30 25275 C 2329.81 -5.66177 -0.907266 0
M  V30 25276 N 2329.3 -6.86224 -0.952301 0
M  V30 25277 N 2331.1 -5.54102 -0.944843 0
M  V30 25278 H 2323.25 -2.01476 0.672385 0
M  V30 25279 H 2325.51 -0.91708 0.240144 0
M  V30 25280 H 2325.22 -3.50367 0.305967 0
M  V30 25281 H 2325.09 -3.48459 -1.44416 0
M  V30 25282 H 2327.48 -2.50042 -1.56726 0
M  V30 25283 H 2327.56 -2.5502 0.199594 0
M  V30 25284 H 2327.2 -5.07752 0.122425 0
M  V30 25285 H 2327.13 -4.99885 -1.65597 0
M  V30 25286 H 2329.62 -3.69368 -0.798461 0
M  V30 25287 H 2329.94 -7.66088 -1.01632 0
M  V30 25288 H 2328.28 -6.88872 -0.920893 0
M  V30 25289 H 2331.47 -4.59238 -0.906532 0
M  V30 25290 H 2331.65 -6.40142 -1.0061 0
M  V30 25291 N 2325.05 0.45796 -1.50799 0
M  V30 25292 C 2326.01 1.53671 -1.70053 0
M  V30 25293 C 2327.01 1.50324 -0.570908 0
M  V30 25294 O 2328.2 1.52711 -0.838153 0
M  V30 25295 C 2325.34 2.93273 -1.73793 0
M  V30 25296 H 2326.53 1.37912 -2.66309 0
M  V30 25297 H 2324.08 0.685246 -1.40478 0
M  V30 25298 H 2324.82 3.14461 -0.792773 0
M  V30 25299 H 2324.6 2.97108 -2.55869 0
M  V30 25300 H 2326.09 3.71567 -1.90598 0
M  V30 25301 N 2326.53 1.40598 0.712035 0
M  V30 25302 C 2327.49 1.40891 1.80783 0
M  V30 25303 C 2328.49 0.30213 1.57936 0
M  V30 25304 O 2329.68 0.561211 1.64912 0
M  V30 25305 C 2326.81 1.20414 3.18925 0
M  V30 25306 H 2328.01 2.38422 1.8192 0
M  V30 25307 H 2325.56 1.26499 0.918028 0
M  V30 25308 H 2326.3 0.236579 3.23436 0
M  V30 25309 H 2326.08 2.00588 3.36908 0
M  V30 25310 H 2327.57 1.23415 3.98947 0
M  V30 25311 N 2328.01 -0.94462 1.26153 0
M  V30 25312 C 2328.94 -2.04269 1.01732 0
M  V30 25313 C 2329.92 -1.62501 -0.0567816 0
M  V30 25314 O 2331.1 -1.88309 0.0849318 0
M  V30 25315 C 2328.23 -3.3437 0.539851 0
M  V30 25316 C 2327.28 -3.95108 1.606 0
M  V30 25317 S 2328.11 -4.29819 3.19399 0
M  V30 25318 C 2329.26 -5.63025 2.73412 0
M  V30 25319 H 2329.5 -2.2467 1.94707 0
M  V30 25320 H 2327.03 -1.08556 1.09795 0
M  V30 25321 H 2328.99 -4.09604 0.271028 0
M  V30 25322 H 2327.65 -3.11918 -0.369554 0
M  V30 25323 H 2326.84 -4.8894 1.22284 0
M  V30 25324 H 2326.44 -3.26393 1.82602 0
M  V30 25325 H 2328.74 -6.41584 2.17661 0
M  V30 25326 H 2329.68 -6.06222 3.65924 0
M  V30 25327 H 2330.09 -5.22737 2.13087 0
M  V30 25328 N 2329.49 -1.07901 -1.1487 0
M  V30 25329 C 2330.73 -0.803973 -1.8542 0
M  V30 25330 C 2331.05 0.672078 -1.83052 0
M  V30 25331 O 2330.32 1.487 -1.27534 0
M  V30 25332 H 2328.9 -0.29442 -0.686532 0
M  V30 25333 H 2331.57 -1.36393 -1.39223 0
M  V30 25334 H 2330.66 -1.14351 -2.90397 0
M  V30 25335 N 2330.96 1.31811 -0.863929 0
M  V30 25336 C 2332.21 1.9761 -0.481876 0
M  V30 25337 C 2332.56 1.67082 0.954019 0
M  V30 25338 O 2331.86 0.953653 1.66181 0
M  V30 25339 C 2332.05 3.5109 -0.668609 0
M  V30 25340 C 2331.88 3.96534 -2.1211 0
M  V30 25341 C 2330.65 4.23167 -2.76149 0
M  V30 25342 C 2332.85 4.1092 -3.09272 0
M  V30 25343 N 2330.83 4.54922 -4.12213 0
M  V30 25344 C 2332.2 4.46318 -4.30349 0
M  V30 25345 C 2334.26 3.93281 -3.05343 0
M  V30 25346 C 2332.96 4.65918 -5.48008 0
M  V30 25347 C 2334.99 4.1407 -4.22255 0
M  V30 25348 C 2334.35 4.49794 -5.42093 0
M  V30 25349 H 2330.45 0.748856 -0.225251 0
M  V30 25350 H 2333.03 1.59453 -1.11726 0
M  V30 25351 H 2331.2 3.88349 -0.062858 0
M  V30 25352 H 2332.93 4.03892 -0.255538 0
M  V30 25353 H 2329.69 4.15581 -2.27133 0
M  V30 25354 H 2330.11 4.74969 -4.82424 0
M  V30 25355 H 2334.75 3.64755 -2.13807 0
M  V30 25356 H 2332.47 4.93294 -6.40068 0
M  V30 25357 H 2336.06 4.01915 -4.20661 0
M  V30 25358 H 2334.94 4.65556 -6.31053 0
M  V30 25359 N 2332.44 0.62277 1.44773 0
M  V30 25360 C 2333.86 0.287679 1.56986 0
M  V30 25361 C 2334.06 -1.20942 1.61169 0
M  V30 25362 O 2333.11 -1.99312 1.55019 0
M  V30 25363 C 2334.43 0.972238 2.84549 0
M  V30 25364 C 2335.97 0.949588 2.98248 0
M  V30 25365 C 2336.45 1.61445 4.28602 0
M  V30 25366 N 2337.94 1.58065 4.35396 0
M  V30 25367 C 2338.68 2.0641 5.3496 0
M  V30 25368 N 2338.17 2.62908 6.40977 0
M  V30 25369 N 2339.96 1.97088 5.26415 0
M  V30 25370 H 2332.12 1.59465 1.40302 0
M  V30 25371 H 2334.38 0.66889 0.671782 0
M  V30 25372 H 2334.08 2.02698 2.87413 0
M  V30 25373 H 2333.96 0.504837 3.73806 0
M  V30 25374 H 2336.35 -0.0966549 2.94942 0
M  V30 25375 H 2336.43 1.4554 2.10361 0
M  V30 25376 H 2336.07 2.6601 4.32667 0
M  V30 25377 H 2336 1.08354 5.15332 0
M  V30 25378 H 2338.49 1.16807 3.59395 0
M  V30 25379 H 2338.8 2.97552 7.1322 0
M  V30 25380 H 2337.15 2.66955 6.41685 0
M  V30 25381 H 2340.34 1.52677 4.42501 0
M  V30 25382 H 2340.51 2.35076 6.03857 0
M  V30 25383 N 2333.92 -1.53367 0.362817 0
M  V30 25384 C 2334.85 -2.28577 -0.476936 0
M  V30 25385 C 2335.83 -1.30896 -1.08629 0
M  V30 25386 O 2337.02 -1.59763 -1.10406 0
M  V30 25387 C 2334.15 -3.07296 -1.61823 0
M  V30 25388 C 2333.1 -4.12642 -1.13626 0
M  V30 25389 C 2332.43 -4.79427 -2.36757 0
M  V30 25390 C 2333.73 -5.21824 -0.222969 0
M  V30 25391 H 2335.42 -2.99021 0.150526 0
M  V30 25392 H 2332.97 -1.43811 0.0738356 0
M  V30 25393 H 2334.92 -3.58657 -2.21231 0
M  V30 25394 H 2333.64 -2.34537 -2.27288 0
M  V30 25395 H 2332.3 -3.62222 -0.564881 0
M  V30 25396 H 2331.95 -4.03243 -3.00673 0
M  V30 25397 H 2331.65 -5.50612 -2.05182 0
M  V30 25398 H 2333.17 -5.33581 -2.96856 0
M  V30 25399 H 2334.59 -5.68704 -0.724445 0
M  V30 25400 H 2332.98 -6.001 0.00178349 0
M  V30 25401 H 2334.05 -4.79287 0.735638 0
M  V30 25402 N 2335.4 -0.091913 -1.57332 0
M  V30 25403 C 2336.62 0.584407 -1.98996 0
M  V30 25404 C 2337.05 1.61127 -0.970556 0
M  V30 25405 O 2336.41 1.81196 0.0613586 0
M  V30 25406 C 2336.45 1.21155 -3.39638 0
M  V30 25407 O 2335.56 2.32738 -3.40451 0
M  V30 25408 H 2334.9 0.148561 -0.647167 0
M  V30 25409 H 2337.43 -0.172383 -2.03873 0
M  V30 25410 H 2337.44 1.55361 -3.77263 0
M  V30 25411 H 2336.11 0.45924 -4.13357 0
M  V30 25412 H 2334.69 2.00175 -3.14618 0
M  V30 25413 N 2336.88 1.56548 0.181765 0
M  V30 25414 C 2337.84 1.94726 1.2089 0
M  V30 25415 C 2338.84 0.829771 1.37737 0
M  V30 25416 O 2340.03 1.09699 1.35321 0
M  V30 25417 C 2337.16 2.23296 2.57589 0
M  V30 25418 H 2338.35 2.8663 0.882225 0
M  V30 25419 H 2335.91 1.50444 0.423811 0
M  V30 25420 H 2336.64 1.34072 2.95288 0
M  V30 25421 H 2336.43 3.04741 2.4673 0
M  V30 25422 H 2337.92 2.5379 3.31633 0
M  V30 25423 N 2338.35 -0.449957 1.5104 0
M  V30 25424 C 2339.77 -0.785438 1.38935 0
M  V30 25425 C 2339.97 -1.96136 0.461851 0
M  V30 25426 O 2339.03 -2.52348 -0.0876945 0
M  V30 25427 C 2340.34 -1.07765 2.80726 0
M  V30 25428 C 2341.89 -1.18285 2.89789 0
M  V30 25429 C 2342.36 -1.50807 4.32459 0
M  V30 25430 N 2343.85 -1.57757 4.35508 0
M  V30 25431 C 2344.59 -1.84468 5.42917 0
M  V30 25432 N 2344.08 -2.09056 6.60505 0
M  V30 25433 N 2345.88 -1.86146 5.30383 0
M  V30 25434 H 2338.03 0.324684 2.09904 0
M  V30 25435 H 2340.29 0.0828123 0.944376 0
M  V30 25436 H 2340 -0.286437 3.50532 0
M  V30 25437 H 2339.87 -2.00853 3.19277 0
M  V30 25438 H 2342.26 -1.96471 2.20189 0
M  V30 25439 H 2342.34 -0.231269 2.54752 0
M  V30 25440 H 2341.98 -0.731534 5.02604 0
M  V30 25441 H 2341.91 -2.4715 4.64999 0
M  V30 25442 H 2344.4 -1.40709 3.50727 0
M  V30 25443 H 2344.72 -2.28772 7.38162 0
M  V30 25444 H 2343.06 -2.06405 6.63643 0
M  V30 25445 H 2346.25 -1.66447 4.37508 0
M  V30 25446 H 2346.43 -2.06626 6.14174 0
M  V30 25447 N 2339.83 -1.40974 -0.704569 0
M  V30 25448 C 2341.06 -1.4338 -1.49856 0
M  V30 25449 C 2341.48 -0.0382171 -1.88061 0
M  V30 25450 O 2340.84 0.956398 -1.54022 0
M  V30 25451 C 2340.89 -2.34043 -2.74329 0
M  V30 25452 O 2339.99 -1.79127 -3.71466 0
M  V30 25453 H 2339.33 -0.486982 -0.451381 0
M  V30 25454 H 2341.86 -1.85331 -0.8668 0
M  V30 25455 H 2341.87 -2.49609 -3.22737 0
M  V30 25456 H 2340.55 -3.35451 -2.45857 0
M  V30 25457 H 2339.13 -1.72964 -3.3036 0
M  V30 25458 N 2341.31 0.937917 -1.26653 0
M  V30 25459 C 2342.56 1.68116 -1.12168 0
M  V30 25460 C 2342.88 1.92102 0.334949 0
M  V30 25461 O 2342.15 1.52003 1.2358 0
M  V30 25462 H 2340.73 0.623041 -0.412104 0
M  V30 25463 H 2343.39 1.12675 -1.59029 0
M  V30 25464 H 2342.49 2.65357 -1.64293 0
M  V30 25465 N 2342.79 1.08509 1.14296 0
M  V30 25466 C 2344.2 0.836257 1.66924 0
M  V30 25467 C 2344.55 -0.636828 1.85577 0
M  V30 25468 O 2343.68 -1.49172 1.5677 0
M  V30 25469 C 2344.27 1.51147 3.03216 0
M  V30 25470 C 2342.83 1.30985 3.52874 0
M  V30 25471 C 2341.98 1.5736 2.28327 0
M  V30 25472 H 2344.93 1.24553 0.983469 0
M  V30 25473 H 2344.95 0.939276 3.68725 0
M  V30 25474 H 2344.46 2.58358 2.89608 0
M  V30 25475 H 2342.56 0.258494 3.71702 0
M  V30 25476 H 2342.67 2.03821 4.33582 0
M  V30 25477 H 2341.04 0.995206 2.34452 0
M  V30 25478 H 2341.82 2.65779 2.17294 0
M  V30 25479 N 2344.27 -1.31351 0.870907 0
M  V30 25480 C 2345.68 -1.49342 0.562958 0
M  V30 25481 C 2345.88 -1.80149 -0.902693 0
M  V30 25482 O 2344.94 -1.8807 -1.68481 0
M  V30 25483 C 2346.25 -2.62656 1.46398 0
M  V30 25484 C 2347.8 -2.76539 1.46612 0
M  V30 25485 C 2348.27 -3.92951 2.35273 0
M  V30 25486 N 2349.77 -4.00239 2.33158 0
M  V30 25487 C 2350.5 -4.89589 2.9848 0
M  V30 25488 N 2350 -5.83834 3.72975 0
M  V30 25489 N 2351.79 -4.82843 2.87784 0
M  V30 25490 H 2343.94 -1.09623 1.81925 0
M  V30 25491 H 2346.2 -0.541763 0.777944 0
M  V30 25492 H 2345.91 -2.4667 2.50693 0
M  V30 25493 H 2345.78 -3.58817 1.1632 0
M  V30 25494 H 2348.17 -2.91939 0.430741 0
M  V30 25495 H 2348.25 -1.81043 1.80713 0
M  V30 25496 H 2347.9 -3.78309 3.38888 0
M  V30 25497 H 2347.83 -4.87757 1.98495 0
M  V30 25498 H 2350.32 -3.32811 1.79011 0
M  V30 25499 H 2350.63 -6.48743 4.19943 0
M  V30 25500 H 2348.97 -5.8381 3.77083 0
M  V30 25501 H 2352.17 -4.08191 2.29123 0
M  V30 25502 H 2352.34 -5.52271 3.38971 0
M  V30 25503 N 2345.74 -0.630439 -1.44441 0
M  V30 25504 C 2346.99 -0.134652 -2.02052 0
M  V30 25505 C 2347.32 1.24324 -1.49579 0
M  V30 25506 O 2346.57 1.83879 -0.669838 0
M  V30 25507 C 2346.87 -0.0698463 -3.57332 0
M  V30 25508 C 2346.54 -1.38643 -4.29056 0
M  V30 25509 C 2345.2 -1.74702 -4.48367 0
M  V30 25510 C 2347.55 -2.25551 -4.69868 0
M  V30 25511 C 2344.88 -2.97378 -5.0575 0
M  V30 25512 C 2347.23 -3.47497 -5.2861 0
M  V30 25513 C 2345.9 -3.8378 -5.4614 0
M  V30 25514 H 2345.17 -0.0492728 -0.73936 0
M  V30 25515 H 2347.81 -0.816617 -1.73216 0
M  V30 25516 H 2346.12 0.695485 -3.85578 0
M  V30 25517 H 2347.82 0.330273 -3.99638 0
M  V30 25518 H 2344.41 -1.09582 -4.14355 0
M  V30 25519 H 2348.59 -1.98987 -4.54662 0
M  V30 25520 H 2343.85 -3.25567 -5.1751 0
M  V30 25521 H 2348.02 -4.15073 -5.59184 0
M  V30 25522 H 2345.65 -4.78921 -5.90372 0
M  V30 25523 N 2347.22 1.53172 -0.370945 0
M  V30 25524 C 2348.17 2.25901 0.472995 0
M  V30 25525 C 2349.14 1.26783 1.07309 0
M  V30 25526 O 2350.32 1.55576 1.10457 0
M  V30 25527 C 2347.46 3.05558 1.604 0
M  V30 25528 C 2346.58 4.19577 1.02855 0
M  V30 25529 C 2345.71 4.86665 2.1291 0
M  V30 25530 C 2344.75 5.92706 1.52859 0
M  V30 25531 N 2343.89 6.53464 2.56768 0
M  V30 25532 H 2348.73 2.97603 -0.153701 0
M  V30 25533 H 2346.27 1.46839 -0.0876204 0
M  V30 25534 H 2348.22 3.5002 2.27028 0
M  V30 25535 H 2346.85 2.36101 2.20127 0
M  V30 25536 H 2345.91 3.79562 0.252398 0
M  V30 25537 H 2347.22 4.95763 0.549555 0
M  V30 25538 H 2346.37 5.34338 2.87347 0
M  V30 25539 H 2345.11 4.09962 2.64163 0
M  V30 25540 H 2344.12 5.4439 0.769383 0
M  V30 25541 H 2345.34 6.71332 1.02423 0
M  V30 25542 H 2343.29 5.79611 3.07224 0
M  V30 25543 H 2343.2 7.25206 2.1357 0
M  V30 25544 H 2344.47 7.05784 3.30891 0
M  V30 25545 N 2348.7 0.100255 1.57281 0
M  V30 25546 C 2349.61 -0.870927 2.17835 0
M  V30 25547 C 2350.63 -1.30647 1.14923 0
M  V30 25548 O 2351.8 -1.37333 1.47315 0
M  V30 25549 C 2348.87 -2.11015 2.75088 0
M  V30 25550 C 2347.93 -1.72831 3.92973 0
M  V30 25551 C 2347.16 -2.90846 4.47487 0
M  V30 25552 O 2347.38 -4.05724 4.00929 0
M  V30 25553 O 2346.32 -2.69014 5.38438 0
M  V30 25554 H 2350.14 -0.385697 3.01241 0
M  V30 25555 H 2347.73 -0.124371 1.48881 0
M  V30 25556 H 2349.61 -2.83629 3.11661 0
M  V30 25557 H 2348.29 -2.5858 1.94725 0
M  V30 25558 H 2347.19 -0.97382 3.61203 0
M  V30 25559 H 2348.53 -1.30024 4.74715 0
M  V30 25560 N 2350.18 -1.56643 -0.17346 0
M  V30 25561 C 2351.14 -1.95364 -1.19856 0
M  V30 25562 C 2352.14 -0.837064 -1.37295 0
M  V30 25563 O 2353.33 -1.10415 -1.34737 0
M  V30 25564 C 2350.46 -2.24658 -2.56401 0
M  V30 25565 H 2351.66 -2.87094 -0.867012 0
M  V30 25566 H 2349.21 -1.50667 -0.415827 0
M  V30 25567 H 2349.95 -1.35636 -2.94573 0
M  V30 25568 H 2349.73 -3.06045 -2.4511 0
M  V30 25569 H 2351.22 -2.55546 -3.30282 0
M  V30 25570 N 2351.66 0.44194 -1.51277 0
M  V30 25571 C 2352.59 1.54358 -1.75203 0
M  V30 25572 C 2353.57 1.59102 -0.60171 0
M  V30 25573 O 2354.75 1.74903 -0.843944 0
M  V30 25574 C 2351.88 2.92474 -1.87287 0
M  V30 25575 C 2350.84 3.02591 -3.02692 0
M  V30 25576 C 2350.16 4.42641 -2.99955 0
M  V30 25577 C 2351.46 2.77098 -4.42735 0
M  V30 25578 H 2353.16 1.34587 -2.67445 0
M  V30 25579 H 2350.7 0.646026 -1.28695 0
M  V30 25580 H 2352.66 3.69497 -2.02609 0
M  V30 25581 H 2351.38 3.13465 -0.916899 0
M  V30 25582 H 2350.04 2.28007 -2.87069 0
M  V30 25583 H 2349.69 4.60594 -2.02144 0
M  V30 25584 H 2349.39 4.50341 -3.77447 0
M  V30 25585 H 2350.91 5.21644 -3.17363 0
M  V30 25586 H 2352.33 3.43856 -4.58733 0
M  V30 25587 H 2350.72 2.96213 -5.21899 0
M  V30 25588 H 2351.79 1.72736 -4.5309 0
M  V30 25589 N 2353.14 1.41345 0.697083 0
M  V30 25590 C 2354.38 1.40344 1.45424 0
M  V30 25591 C 2354.7 0.012913 1.94996 0
M  V30 25592 O 2353.97 -0.944996 1.716 0
M  V30 25593 H 2352.55 0.516582 0.539585 0
M  V30 25594 H 2355.22 1.7657 0.82517 0
M  V30 25595 H 2354.31 2.08971 2.31814 0
M  V30 25596 N 2354.61 -0.931187 1.27148 0
M  V30 25597 C 2355.86 -1.67518 1.13058 0
M  V30 25598 C 2356.18 -1.92277 -0.324757 0
M  V30 25599 O 2355.45 -1.52656 -1.22772 0
M  V30 25600 H 2354.03 -0.620846 0.415402 0
M  V30 25601 H 2356.69 -1.1183 1.59624 0
M  V30 25602 H 2355.79 -2.64482 1.65698 0
M  V30 25603 N 2356.09 -1.09114 -1.13719 0
M  V30 25604 C 2357.5 -0.845097 -1.66478 0
M  V30 25605 C 2357.85 0.626977 -1.85912 0
M  V30 25606 O 2356.98 1.48338 -1.57559 0
M  V30 25607 C 2357.57 -1.52753 -3.0241 0
M  V30 25608 C 2356.13 -1.32855 -3.52174 0
M  V30 25609 C 2355.28 -1.58568 -2.27489 0
M  V30 25610 H 2358.23 -1.25073 -0.97685 0
M  V30 25611 H 2358.25 -0.958817 -3.68221 0
M  V30 25612 H 2357.76 -2.5989 -2.88234 0
M  V30 25613 H 2355.86 -0.278203 -3.7156 0
M  V30 25614 H 2355.98 -2.06118 -4.32495 0
M  V30 25615 H 2354.34 -1.00763 -2.33921 0
M  V30 25616 H 2355.12 -2.66927 -2.15881 0
M  V30 25617 N 2357.57 1.30887 -0.877861 0
M  V30 25618 C 2358.53 2.26599 -0.344305 0
M  V30 25619 C 2359.53 1.52525 0.509193 0
M  V30 25620 O 2360.72 1.71285 0.317368 0
M  V30 25621 C 2357.85 3.37061 0.510139 0
M  V30 25622 H 2359.05 2.75308 -1.18935 0
M  V30 25623 H 2356.6 1.41954 -0.654113 0
M  V30 25624 H 2357.34 2.93658 1.37606 0
M  V30 25625 H 2357.12 3.9197 -0.101116 0
M  V30 25626 H 2358.61 4.0832 0.875465 0
M  V30 25627 N 2359.05 0.638091 1.44105 0
M  V30 25628 C 2360.29 0.154126 2.02815 0
M  V30 25629 C 2360.65 -1.21302 1.49344 0
M  V30 25630 O 2359.94 -1.79476 0.67073 0
M  V30 25631 C 2360.14 0.0887955 3.5729 0
M  V30 25632 C 2359.96 1.44806 4.25748 0
M  V30 25633 C 2358.73 2.03661 4.62439 0
M  V30 25634 C 2360.93 2.38335 4.55742 0
M  V30 25635 N 2358.91 3.3275 5.15898 0
M  V30 25636 C 2360.29 3.52044 5.10357 0
M  V30 25637 C 2362.34 2.37327 4.37699 0
M  V30 25638 C 2361.04 4.6495 5.48829 0
M  V30 25639 C 2363.07 3.49302 4.77223 0
M  V30 25640 C 2362.43 4.61736 5.31958 0
M  V30 25641 H 2358.53 0.10048 0.775518 0
M  V30 25642 H 2361.11 0.843102 1.75499 0
M  V30 25643 H 2359.29 -0.56948 3.84202 0
M  V30 25644 H 2361.02 -0.40464 4.02672 0
M  V30 25645 H 2357.77 1.56531 4.46984 0
M  V30 25646 H 2358.2 3.98768 5.47095 0
M  V30 25647 H 2362.84 1.51648 3.94668 0
M  V30 25648 H 2360.56 5.51333 5.90811 0
M  V30 25649 H 2364.14 3.49706 4.6497 0
M  V30 25650 H 2363.02 5.46948 5.61976 0
M  V30 25651 N 2360.53 -1.52973 0.379063 0
M  V30 25652 C 2361.8 -1.93818 -0.263445 0
M  V30 25653 C 2362.18 -1.31371 -1.65242 0
M  V30 25654 O 2361.53 -0.477895 -2.23447 0
M  V30 25655 C 2361.74 -3.47707 -0.300105 0
M  V30 25656 C 2363.09 -4.21229 -0.533987 0
M  V30 25657 O 2364.11 -3.54159 -0.380748 0
M  V30 25658 O 2362.97 -5.40108 -0.833407 0
M  V30 25659 H 2360.07 -0.81115 -0.161134 0
M  V30 25660 H 2362.61 -1.64087 0.432827 0
M  V30 25661 H 2361.38 -3.85465 0.673206 0
M  V30 25662 H 2361.01 -3.83711 -1.04172 0
M  V30 25663 N 2362 -0.108595 -1.57225 0
M  V30 25664 C 2363.23 0.559107 -1.98891 0
M  V30 25665 C 2363.64 1.6142 -0.986918 0
M  V30 25666 O 2362.98 1.83676 0.0298382 0
M  V30 25667 C 2363.05 1.25309 -3.36954 0
M  V30 25668 C 2362.71 0.347168 -4.55679 0
M  V30 25669 C 2363.71 -0.410087 -5.1828 0
M  V30 25670 C 2361.39 0.261279 -5.0162 0
M  V30 25671 C 2363.39 -1.24107 -6.25201 0
M  V30 25672 C 2361.07 -0.573345 -6.08404 0
M  V30 25673 C 2362.07 -1.32316 -6.70061 0
M  V30 25674 O 2361.76 -2.14394 -7.74784 0
M  V30 25675 H 2361.49 0.153481 -0.658346 0
M  V30 25676 H 2364.05 -0.18862 -2.04532 0
M  V30 25677 H 2362.28 2.04767 -3.28036 0
M  V30 25678 H 2363.96 1.81666 -3.62977 0
M  V30 25679 H 2364.73 -0.353542 -4.8371 0
M  V30 25680 H 2360.61 0.834577 -4.53383 0
M  V30 25681 H 2364.15 -1.82681 -6.73256 0
M  V30 25682 H 2360.05 -0.631321 -6.42405 0
M  V30 25683 H 2360.82 -2.07223 -7.91834 0
M  V30 25684 N 2363.48 1.56732 0.16515 0
M  V30 25685 C 2364.9 1.50989 0.517148 0
M  V30 25686 C 2365.1 0.813926 1.8433 0
M  V30 25687 O 2364.15 0.376864 2.49672 0
M  V30 25688 C 2365.47 2.95734 0.544209 0
M  V30 25689 C 2367.01 3.06574 0.630985 0
M  V30 25690 C 2367.49 4.5279 0.688881 0
M  V30 25691 N 2368.98 4.57061 0.751602 0
M  V30 25692 C 2369.72 5.67549 0.817077 0
M  V30 25693 N 2369.21 6.87652 0.843008 0
M  V30 25694 N 2371 5.55535 0.856571 0
M  V30 25695 H 2363.16 2.00381 -0.704353 0
M  V30 25696 H 2365.42 0.913143 -0.254703 0
M  V30 25697 H 2365.12 3.49835 -0.361668 0
M  V30 25698 H 2365 3.50713 1.38854 0
M  V30 25699 H 2367.39 2.52503 1.52729 0
M  V30 25700 H 2367.47 2.5467 -0.24014 0
M  V30 25701 H 2367.11 5.07493 -0.203189 0
M  V30 25702 H 2367.04 5.02456 1.57624 0
M  V30 25703 H 2369.53 3.70592 0.739596 0
M  V30 25704 H 2369.84 7.67608 0.894313 0
M  V30 25705 H 2368.19 6.9025 0.811183 0
M  V30 25706 H 2371.38 4.60622 0.833356 0
M  V30 25707 H 2371.55 6.41661 0.904134 0
M  V30 25708 N 2364.96 -0.433911 1.51509 0
M  V30 25709 C 2365.91 -1.54754 1.73649 0
M  V30 25710 C 2366.9 -1.58309 0.602882 0
M  V30 25711 O 2368.11 -1.62012 0.784346 0
M  V30 25712 H 2364.48 -0.514201 0.548727 0
M  V30 25713 H 2366.45 -1.33256 2.66993 0
M  V30 25714 C 2365.2 -2.92378 1.88177 0
M  V30 25715 H 2364.53 -2.90376 2.74813 0
M  V30 25716 H 2365.97 -3.69656 2.07678 0
M  V30 25717 C 2364.43 -3.30718 0.642448 0
M  V30 25718 O 2364.95 -4.01195 -0.201292 0
M  V30 25719 N 2363.16 -2.86515 0.485539 0
M  V30 25720 H 2362.71 -2.29332 1.17322 0
M  V30 25721 H 2362.67 -3.1253 -0.342427 0
M  V30 25722 N 2366.44 -1.41713 -0.689577 0
M  V30 25723 C 2367.69 -1.40689 -1.44532 0
M  V30 25724 C 2368 -0.0213696 -1.95588 0
M  V30 25725 O 2369.21 0.111486 -2.71271 0
M  V30 25726 C 2367.66 -2.47401 -2.61382 0
M  V30 25727 C 2367.27 -3.91889 -2.17087 0
M  V30 25728 C 2369.01 -2.55523 -3.38982 0
M  V30 25729 C 2366.92 -4.90141 -3.30932 0
M  V30 25730 H 2365.85 -0.523219 -0.542916 0
M  V30 25731 H 2368.5 -1.67561 -0.748024 0
M  V30 25732 H 2366.88 -2.13669 -3.33409 0
M  V30 25733 H 2368.06 -4.349 -1.52311 0
M  V30 25734 H 2366.37 -3.87483 -1.52466 0
M  V30 25735 H 2368.97 -3.2611 -4.23741 0
M  V30 25736 H 2369.31 -1.59398 -3.84575 0
M  V30 25737 H 2369.85 -2.88375 -2.74016 0
M  V30 25738 H 2366.59 -5.87691 -2.90345 0
M  V30 25739 H 2366.11 -4.51774 -3.94538 0
M  V30 25740 H 2367.78 -5.11176 -3.96621 0
M  V30 25741 N 2367.92 0.924431 -1.2764 0
M  V30 25742 C 2369.17 1.667 -1.13552 0
M  V30 25743 C 2369.48 1.93007 0.317453 0
M  V30 25744 O 2370.68 2.65248 0.579287 0
M  V30 25745 C 2369.14 3.00255 -1.98431 0
M  V30 25746 C 2368.75 2.81635 -3.48405 0
M  V30 25747 C 2370.49 3.78089 -1.93 0
M  V30 25748 C 2368.4 4.10766 -4.25471 0
M  V30 25749 H 2367.33 0.625276 -0.421362 0
M  V30 25750 H 2369.98 1.02673 -1.52087 0
M  V30 25751 H 2368.36 3.65357 -1.52743 0
M  V30 25752 H 2369.54 2.2528 -4.01977 0
M  V30 25753 H 2367.85 2.17226 -3.55249 0
M  V30 25754 H 2370.45 4.73786 -2.47853 0
M  V30 25755 H 2370.79 4.06358 -0.904352 0
M  V30 25756 H 2371.32 3.19789 -2.366 0
M  V30 25757 H 2368.06 3.87674 -5.28573 0
M  V30 25758 H 2367.58 4.66772 -3.76675 0
M  V30 25759 H 2369.26 4.79104 -4.3482 0
M  V30 25760 N 2369.39 1.09715 1.13139 0
M  V30 25761 C 2370.3 0.751406 2.22241 0
M  V30 25762 C 2371.32 -0.247907 1.72225 0
M  V30 25763 O 2372.5 -0.0885109 2.01205 0
M  V30 25764 C 2369.56 0.180334 3.46231 0
M  V30 25765 C 2368.62 1.23597 4.11123 0
M  V30 25766 C 2367.86 0.692059 5.29194 0
M  V30 25767 O 2368.08 -0.48404 5.68343 0
M  V30 25768 O 2367.01 1.44849 5.84211 0
M  V30 25769 H 2370.84 1.6619 2.54194 0
M  V30 25770 H 2368.42 0.871757 1.21329 0
M  V30 25771 H 2370.31 -0.134665 4.21185 0
M  V30 25772 H 2368.98 -0.70313 3.15971 0
M  V30 25773 H 2367.89 1.60371 3.37982 0
M  V30 25774 H 2369.22 2.09219 4.4552 0
M  V30 25775 N 2370.87 -1.30419 0.88479 0
M  V30 25776 C 2371.82 -2.28136 0.349682 0
M  V30 25777 C 2372.79 -1.56374 -0.560034 0
M  V30 25778 O 2373.97 -1.84441 -0.488492 0
M  V30 25779 C 2371.11 -3.42411 -0.429929 0
M  V30 25780 C 2370.23 -4.28991 0.508983 0
M  V30 25781 C 2369.36 -5.30428 -0.286208 0
M  V30 25782 C 2368.4 -6.08658 0.648186 0
M  V30 25783 N 2367.54 -7.02011 -0.111669 0
M  V30 25784 H 2372.38 -2.73291 1.18811 0
M  V30 25785 H 2369.92 -1.34429 0.597255 0
M  V30 25786 H 2371.87 -4.07424 -0.897851 0
M  V30 25787 H 2370.5 -2.98326 -1.23294 0
M  V30 25788 H 2369.56 -3.64287 1.09539 0
M  V30 25789 H 2370.87 -4.83528 1.22484 0
M  V30 25790 H 2370.02 -6.01188 -0.815992 0
M  V30 25791 H 2368.76 -4.76585 -1.03528 0
M  V30 25792 H 2367.77 -5.36776 1.1896 0
M  V30 25793 H 2368.99 -6.64589 1.39635 0
M  V30 25794 H 2366.94 -6.50557 -0.843281 0
M  V30 25795 H 2366.85 -7.54036 0.544561 0
M  V30 25796 H 2368.12 -7.77013 -0.622202 0
M  V30 25797 N 2372.35 -0.645724 -1.43764 0
M  V30 25798 C 2373.28 0.0370066 -2.33471 0
M  V30 25799 C 2374.26 0.819753 -1.49044 0
M  V30 25800 O 2375.45 0.782727 -1.77727 0
M  V30 25801 C 2372.58 1.00924 -3.32313 0
M  V30 25802 C 2371.53 0.337126 -4.2667 0
M  V30 25803 C 2370.86 1.42028 -5.15492 0
M  V30 25804 C 2372.16 -0.765797 -5.16655 0
M  V30 25805 H 2373.85 -0.71212 -2.90808 0
M  V30 25806 H 2371.4 -0.343901 -1.39833 0
M  V30 25807 H 2373.35 1.49571 -3.93962 0
M  V30 25808 H 2372.07 1.78943 -2.73216 0
M  V30 25809 H 2370.73 -0.128836 -3.66374 0
M  V30 25810 H 2370.38 2.19172 -4.52739 0
M  V30 25811 H 2370.08 0.975864 -5.7944 0
M  V30 25812 H 2371.6 1.90827 -5.80015 0
M  V30 25813 H 2373.02 -0.361802 -5.72157 0
M  V30 25814 H 2371.42 -1.13423 -5.89284 0
M  V30 25815 H 2372.49 -1.62691 -4.56793 0
M  V30 25816 N 2373.83 1.5277 -0.38717 0
M  V30 25817 C 2374.76 2.2403 0.484049 0
M  V30 25818 C 2375.77 1.262 1.02847 0
M  V30 25819 O 2376.96 1.52288 0.931159 0
M  V30 25820 C 2374.06 2.94139 1.68332 0
M  V30 25821 C 2373.24 4.18658 1.26664 0
M  V30 25822 C 2372.29 4.71784 2.33036 0
M  V30 25823 O 2371.32 5.34926 1.94532 0
M  V30 25824 N 2372.52 4.51457 3.64921 0
M  V30 25825 H 2375.29 2.99433 -0.126457 0
M  V30 25826 H 2372.85 1.60487 -0.21342 0
M  V30 25827 H 2374.84 3.26581 2.39013 0
M  V30 25828 H 2373.41 2.22057 2.20021 0
M  V30 25829 H 2372.63 3.92278 0.388809 0
M  V30 25830 H 2373.92 4.99567 0.964876 0
M  V30 25831 H 2373.32 4.01051 3.98967 0
M  V30 25832 H 2371.87 4.88393 4.31643 0
M  V30 25833 N 2375.31 0.116931 1.57166 0
M  V30 25834 C 2376.58 -0.585016 1.86647 0
M  V30 25835 C 2376.96 -1.84947 1.01773 0
M  V30 25836 O 2376.31 -2.28298 0.096078 0
M  V30 25837 C 2376.52 -0.879447 3.37738 0
M  V30 25838 C 2377.87 -1.23341 4.06291 0
M  V30 25839 O 2378.89 -0.969775 3.42745 0
M  V30 25840 O 2377.75 -1.72811 5.18458 0
M  V30 25841 H 2374.85 -0.294994 0.772598 0
M  V30 25842 H 2377.39 0.151279 1.69024 0
M  V30 25843 H 2376.16 0.0166824 3.91296 0
M  V30 25844 H 2375.79 -1.67097 3.60783 0
M  V30 25845 N 2376.78 -1.56818 -0.156836 0
M  V30 25846 C 2378.03 -1.83077 -0.872383 0
M  V30 25847 C 2378.36 -0.697033 -1.8126 0
M  V30 25848 O 2377.64 0.300046 -1.92172 0
M  V30 25849 C 2377.92 -3.19792 -1.65545 0
M  V30 25850 C 2377.77 -4.43715 -0.737389 0
M  V30 25851 C 2379.09 -3.53611 -2.62006 0
M  V30 25852 H 2376.21 -0.665958 -0.315704 0
M  V30 25853 H 2378.85 -1.89498 -0.137971 0
M  V30 25854 H 2377 -3.14449 -2.28154 0
M  V30 25855 H 2378.68 -4.61136 -0.123062 0
M  V30 25856 H 2376.92 -4.33775 -0.0463305 0
M  V30 25857 H 2377.59 -5.35957 -1.32113 0
M  V30 25858 H 2380.07 -3.59501 -2.09519 0
M  V30 25859 H 2378.94 -4.50319 -3.13853 0
M  V30 25860 H 2379.2 -2.79059 -3.42897 0
M  V30 25861 N 2378.26 0.425871 -1.51737 0
M  V30 25862 C 2379.51 1.17607 -1.65217 0
M  V30 25863 C 2379.84 1.90588 -0.372812 0
M  V30 25864 O 2379.12 1.84079 0.628106 0
M  V30 25865 C 2379.4 2.18393 -2.86315 0
M  V30 25866 C 2379.25 1.49419 -4.24257 0
M  V30 25867 C 2380.57 3.19251 -3.0293 0
M  V30 25868 H 2377.69 0.426195 -0.601271 0
M  V30 25869 H 2380.33 0.46385 -1.84251 0
M  V30 25870 H 2378.48 2.79132 -2.70218 0
M  V30 25871 H 2380.15 0.919283 -4.52047 0
M  V30 25872 H 2378.4 0.796357 -4.26428 0
M  V30 25873 H 2379.07 2.22876 -5.05005 0
M  V30 25874 H 2381.54 2.68575 -3.17815 0
M  V30 25875 H 2380.42 3.87053 -3.89206 0
M  V30 25876 H 2380.68 3.86019 -2.15504 0
M  V30 25877 N 2379.74 1.42077 0.682052 0
M  V30 25878 C 2380.7 1.44694 1.77753 0
M  V30 25879 C 2381.7 0.335563 1.5726 0
M  V30 25880 O 2382.89 0.596066 1.63685 0
M  V30 25881 C 2380.03 1.27152 3.16299 0
M  V30 25882 H 2381.22 2.42227 1.76822 0
M  V30 25883 H 2378.77 1.28418 0.890989 0
M  V30 25884 H 2379.51 0.305131 3.22861 0
M  V30 25885 H 2379.29 2.07689 3.32577 0
M  V30 25886 H 2380.78 1.3185 3.96239 0
M  V30 25887 N 2381.22 -0.917649 1.28129 0
M  V30 25888 C 2382.44 -1.70553 1.1801 0
M  V30 25889 C 2382.87 -1.86319 -0.258224 0
M  V30 25890 O 2382.23 -1.37051 -1.18687 0
M  V30 25891 C 2382.28 -3.07743 1.87954 0
M  V30 25892 O 2381.38 -3.95028 1.18434 0
M  V30 25893 H 2380.72 -0.522396 0.409876 0
M  V30 25894 H 2383.25 -1.14767 1.69381 0
M  V30 25895 H 2383.26 -3.57998 1.95708 0
M  V30 25896 H 2381.94 -2.95586 2.92578 0
M  V30 25897 H 2380.51 -3.53464 1.18818 0
M  V30 25898 N 2382.7 -1.10314 -1.12555 0
M  V30 25899 C 2383.63 -0.772837 -2.20339 0
M  V30 25900 C 2384.61 0.25362 -1.68199 0
M  V30 25901 O 2385.79 0.119665 -1.93831 0
M  V30 25902 C 2382.92 -0.202504 -3.46709 0
M  V30 25903 C 2381.88 -1.15951 -4.11994 0
M  V30 25904 C 2381.2 -0.450438 -5.32799 0
M  V30 25905 C 2382.5 -2.5056 -4.58276 0
M  V30 25906 H 2384.2 -1.67405 -2.48226 0
M  V30 25907 H 2381.74 -0.806347 -1.19307 0
M  V30 25908 H 2383.7 0.0407012 -4.2138 0
M  V30 25909 H 2382.42 0.733945 -3.18246 0
M  V30 25910 H 2381.08 -1.38814 -3.39302 0
M  V30 25911 H 2380.73 0.490443 -5.00603 0
M  V30 25912 H 2380.43 -1.08862 -5.77428 0
M  V30 25913 H 2381.95 -0.215749 -6.10219 0
M  V30 25914 H 2383.37 -2.31852 -5.24326 0
M  V30 25915 H 2381.76 -3.10251 -5.13677 0
M  V30 25916 H 2382.83 -3.1065 -3.72323 0
M  V30 25917 N 2384.18 1.29948 -0.891694 0
M  V30 25918 C 2385.09 2.317 -0.367732 0
M  V30 25919 C 2386.1 1.65621 0.533457 0
M  V30 25920 O 2387.28 1.96866 0.424963 0
M  V30 25921 C 2384.34 3.44346 0.403345 0
M  V30 25922 C 2383.4 4.26036 -0.528403 0
M  V30 25923 C 2382.64 5.33302 0.20597 0
M  V30 25924 O 2382.86 5.52156 1.43109 0
M  V30 25925 O 2381.79 6.00235 -0.447386 0
M  V30 25926 H 2385.62 2.78481 -1.21168 0
M  V30 25927 H 2383.2 1.3424 -0.655748 0
M  V30 25928 H 2385.09 4.1295 0.83968 0
M  V30 25929 H 2383.76 2.99687 1.22349 0
M  V30 25930 H 2382.67 3.60104 -1.01369 0
M  V30 25931 H 2384 4.74316 -1.31474 0
M  V30 25932 N 2385.65 0.653339 1.4342 0
M  V30 25933 C 2386.6 -0.0605179 2.2792 0
M  V30 25934 C 2387.59 -0.794653 1.39907 0
M  V30 25935 O 2388.78 -0.677099 1.63537 0
M  V30 25936 C 2385.91 -1.02614 3.27605 0
M  V30 25937 C 2384.99 -0.290476 4.23104 0
M  V30 25938 N 2385.39 0.693055 5.01029 0
M  V30 25939 C 2383.68 -0.531906 4.42817 0
M  V30 25940 C 2384.38 1.12973 5.70624 0
M  V30 25941 N 2383.36 0.463962 5.41616 0
M  V30 25942 H 2387.16 0.694194 2.85584 0
M  V30 25943 H 2384.68 0.480629 1.55125 0
M  V30 25944 H 2386.67 -1.55235 3.86921 0
M  V30 25945 H 2385.33 -1.78092 2.71502 0
M  V30 25946 H 2386.34 1.07178 5.06689 0
M  V30 25947 H 2383.02 -1.26784 3.97784 0
M  V30 25948 H 2384.41 1.94354 6.43177 0
M  V30 25949 N 2387.13 -1.52563 0.395266 0
M  V30 25950 C 2388.06 -2.24284 -0.472161 0
M  V30 25951 C 2389.08 -1.26743 -1.02176 0
M  V30 25952 O 2390.27 -1.5278 -0.92307 0
M  V30 25953 C 2387.37 -2.95027 -1.6677 0
M  V30 25954 C 2386.54 -4.19324 -1.24442 0
M  V30 25955 C 2385.6 -4.73014 -2.30531 0
M  V30 25956 O 2384.62 -5.3595 -1.91692 0
M  V30 25957 N 2385.83 -4.53385 -3.62522 0
M  V30 25958 H 2388.59 -2.99362 0.142335 0
M  V30 25959 H 2386.15 -1.60372 0.221928 0
M  V30 25960 H 2388.14 -3.27844 -2.37278 0
M  V30 25961 H 2386.71 -2.23221 -2.18841 0
M  V30 25962 H 2385.93 -3.92479 -0.368 0
M  V30 25963 H 2387.22 -5.00072 -0.938369 0
M  V30 25964 H 2386.62 -4.03161 -3.96834 0
M  V30 25965 H 2385.18 -4.90676 -4.29046 0
M  V30 25966 N 2388.61 -0.125265 -1.57101 0
M  V30 25967 C 2389.86 0.531213 -1.95408 0
M  V30 25968 C 2390.18 1.66286 -1.00893 0
M  V30 25969 O 2389.44 1.95671 -0.0339775 0
M  V30 25970 C 2389.74 1.09856 -3.40098 0
M  V30 25971 C 2389.4 0.0876197 -4.50815 0
M  V30 25972 C 2388.07 -0.190345 -4.80823 0
M  V30 25973 C 2390.42 -0.600993 -5.17723 0
M  V30 25974 C 2387.75 -1.1631 -5.75056 0
M  V30 25975 C 2390.1 -1.56242 -6.13002 0
M  V30 25976 C 2388.76 -1.84831 -6.414 0
M  V30 25977 H 2388.03 0.194385 -0.715049 0
M  V30 25978 H 2390.68 -0.207497 -1.90373 0
M  V30 25979 H 2388.98 1.91416 -3.41858 0
M  V30 25980 H 2390.68 1.61471 -3.67053 0
M  V30 25981 H 2387.27 0.314453 -4.27445 0
M  V30 25982 H 2391.46 -0.39942 -4.9469 0
M  V30 25983 H 2386.71 -1.39127 -5.9536 0
M  V30 25984 H 2390.89 -2.10165 -6.63931 0
M  V30 25985 H 2388.51 -2.60361 -7.14224 0
M  V30 25986 N 2390.09 1.56899 0.148518 0
M  V30 25987 C 2391.31 1.87789 0.880352 0
M  V30 25988 C 2391.74 0.714124 1.74017 0
M  V30 25989 O 2391.1 -0.336312 1.78153 0
M  V30 25990 C 2391.14 3.17252 1.71416 0
M  V30 25991 O 2390.25 3.01079 2.81824 0
M  V30 25992 H 2389.59 0.617032 0.24529 0
M  V30 25993 H 2392.12 2.04122 0.139791 0
M  V30 25994 H 2392.13 3.49235 2.10948 0
M  V30 25995 H 2390.8 4.01558 1.08277 0
M  V30 25996 H 2389.38 2.80501 2.4571 0
M  V30 25997 N 2391.57 -0.417818 1.51961 0
M  V30 25998 C 2392.98 -0.996972 1.57852 0
M  V30 25999 C 2393.33 -1.91788 0.413747 0
M  V30 26000 O 2392.45 -2.113 -0.467019 0
M  V30 26001 C 2393.05 -1.81491 2.86088 0
M  V30 26002 C 2391.61 -2.34423 2.94487 0
M  V30 26003 C 2390.75 -1.14165 2.52709 0
M  V30 26004 H 2393.7 -0.198364 1.57455 0
M  V30 26005 H 2393.73 -2.67143 2.70952 0
M  V30 26006 H 2393.24 -1.1444 3.70844 0
M  V30 26007 H 2391.34 -3.04872 2.14206 0
M  V30 26008 H 2391.45 -2.65884 3.98551 0
M  V30 26009 H 2389.82 -1.49297 2.06355 0
M  V30 26010 H 2390.6 -0.486939 3.39829 0
M  V30 26011 N 2393.04 -1.42436 -0.674508 0
M  V30 26012 C 2393.98 -1.40369 -1.79921 0
M  V30 26013 C 2394.95 -0.267927 -1.60377 0
M  V30 26014 O 2396.14 -0.458191 -1.82847 0
M  V30 26015 C 2393.27 -1.19484 -3.16925 0
M  V30 26016 C 2392.31 -2.36057 -3.55217 0
M  V30 26017 S 2393.14 -3.98589 -3.57613 0
M  V30 26018 C 2394.3 -3.80047 -4.97308 0
M  V30 26019 H 2394.53 -2.35544 -1.81401 0
M  V30 26020 H 2392.07 -1.29212 -0.845199 0
M  V30 26021 H 2394.02 -1.08121 -3.96005 0
M  V30 26022 H 2392.69 -0.258939 -3.13031 0
M  V30 26023 H 2391.88 -2.17193 -4.548 0
M  V30 26024 H 2391.48 -2.43937 -2.83498 0
M  V30 26025 H 2393.77 -3.41055 -5.85395 0
M  V30 26026 H 2394.72 -4.79307 -5.2122 0
M  V30 26027 H 2395.12 -3.12907 -4.6984 0
M  V30 26028 N 2394.52 0.910841 -1.28614 0
M  V30 26029 C 2395.45 2.015 -1.07112 0
M  V30 26030 C 2396.43 1.62594 0.0136774 0
M  V30 26031 O 2397.62 1.88017 -0.134829 0
M  V30 26032 C 2394.74 3.32821 -0.628314 0
M  V30 26033 C 2393.79 3.90711 -1.71019 0
M  V30 26034 S 2394.62 4.21199 -3.30683 0
M  V30 26035 C 2395.78 5.55578 -2.88244 0
M  V30 26036 H 2396.01 2.19429 -2.00595 0
M  V30 26037 H 2393.54 1.05607 -1.12635 0
M  V30 26038 H 2395.5 4.08742 -0.379532 0
M  V30 26039 H 2394.16 3.12789 0.286725 0
M  V30 26040 H 2393.36 4.85526 -1.35204 0
M  V30 26041 H 2392.96 3.21437 -1.91191 0
M  V30 26042 H 2395.25 6.35587 -2.34595 0
M  V30 26043 H 2396.19 5.96307 -3.81868 0
M  V30 26044 H 2396.6 5.16904 -2.26871 0
M  V30 26045 N 2396 1.10909 1.11969 0
M  V30 26046 C 2396.93 0.720213 2.1759 0
M  V30 26047 C 2397.95 -0.245467 1.60939 0
M  V30 26048 O 2399.13 -0.0291932 1.78476 0
M  V30 26049 C 2396.23 0.0428513 3.38873 0
M  V30 26050 C 2395.41 1.03395 4.25004 0
M  V30 26051 C 2394.47 0.387167 5.24774 0
M  V30 26052 O 2393.49 1.03944 5.59629 0
M  V30 26053 N 2394.69 -0.852306 5.74209 0
M  V30 26054 H 2397.46 1.62898 2.51564 0
M  V30 26055 H 2395.02 0.998566 1.27437 0
M  V30 26056 H 2397.01 -0.40143 4.02704 0
M  V30 26057 H 2395.58 -0.768403 3.03009 0
M  V30 26058 H 2394.8 1.65635 3.57713 0
M  V30 26059 H 2396.09 1.70467 4.79394 0
M  V30 26060 H 2395.49 -1.40151 5.48064 0
M  V30 26061 H 2394.05 -1.23966 6.39903 0
M  V30 26062 N 2397.48 -1.29474 0.898573 0
M  V30 26063 C 2398.44 -2.26023 0.380311 0
M  V30 26064 C 2399.44 -1.53316 -0.484864 0
M  V30 26065 O 2400.63 -1.71768 -0.290077 0
M  V30 26066 C 2397.76 -3.3783 -0.456451 0
M  V30 26067 H 2398.96 -2.73381 1.233 0
M  V30 26068 H 2396.51 -1.40896 0.676614 0
M  V30 26069 H 2397.24 -2.9581 -1.32917 0
M  V30 26070 H 2397.03 -3.91759 0.163462 0
M  V30 26071 H 2398.52 -4.09661 -0.810394 0
M  V30 26072 N 2398.96 -0.660936 -1.43071 0
M  V30 26073 C 2399.87 0.026375 -2.34585 0
M  V30 26074 C 2400.88 0.80387 -1.54318 0
M  V30 26075 O 2402.06 0.749358 -1.8694 0
M  V30 26076 C 2399.12 0.975581 -3.32691 0
M  V30 26077 C 2398.18 0.194161 -4.28861 0
M  V30 26078 C 2397.42 1.09815 -5.2228 0
M  V30 26079 O 2397.64 2.33754 -5.20303 0
M  V30 26080 O 2396.57 0.566408 -5.99229 0
M  V30 26081 H 2400.4 -0.727085 -2.94868 0
M  V30 26082 H 2397.99 -0.421135 -1.43342 0
M  V30 26083 H 2399.87 1.52087 -3.92998 0
M  V30 26084 H 2398.54 1.70913 -2.74901 0
M  V30 26085 H 2397.45 -0.394901 -3.7201 0
M  V30 26086 H 2398.78 -0.499985 -4.89654 0
M  V30 26087 N 2400.43 1.52351 -0.403352 0
M  V30 26088 C 2401.68 2.01748 0.174312 0
M  V30 26089 C 2402.01 1.28923 1.45633 0
M  V30 26090 O 2401.26 0.382291 1.9193 0
M  V30 26091 C 2401.56 3.54235 0.474602 0
M  V30 26092 C 2401.23 4.45154 -0.717536 0
M  V30 26093 C 2399.89 4.69726 -1.04455 0
M  V30 26094 C 2402.24 4.98714 -1.51441 0
M  V30 26095 C 2399.57 5.45105 -2.16972 0
M  V30 26096 C 2401.92 5.75324 -2.6303 0
M  V30 26097 C 2400.59 5.9817 -2.96224 0
M  V30 26098 H 2399.86 0.73825 0.0637851 0
M  V30 26099 H 2402.5 1.83623 -0.543585 0
M  V30 26100 H 2400.81 3.70508 1.274 0
M  V30 26101 H 2402.51 3.89961 0.934428 0
M  V30 26102 H 2399.1 4.26203 -0.452671 0
M  V30 26103 H 2403.28 4.79643 -1.275 0
M  V30 26104 H 2398.54 5.61016 -2.43044 0
M  V30 26105 H 2402.71 6.15823 -3.25169 0
M  V30 26106 H 2400.34 6.56361 -3.83528 0
M  V30 26107 N 2401.91 0.133594 1.57033 0
M  V30 26108 C 2403.14 -0.531441 2.00476 0
M  V30 26109 C 2403.56 -1.58497 1.01293 0
M  V30 26110 O 2402.92 -1.81295 -0.0132961 0
M  V30 26111 C 2402.97 -1.12107 3.42731 0
M  V30 26112 O 2402.07 -2.2363 3.46502 0
M  V30 26113 H 2401.41 -0.13135 0.650879 0
M  V30 26114 H 2403.94 0.226375 2.03344 0
M  V30 26115 H 2403.95 -1.45304 3.81249 0
M  V30 26116 H 2402.63 -0.349485 4.14429 0
M  V30 26117 H 2401.21 -1.91763 3.19815 0
M  V30 26118 N 2403.39 -1.56975 -0.140195 0
M  V30 26119 C 2404.64 -1.83992 -0.852917 0
M  V30 26120 C 2404.97 -0.716218 -1.8051 0
M  V30 26121 O 2404.24 0.279647 -1.92479 0
M  V30 26122 C 2404.53 -3.2153 -1.62144 0
M  V30 26123 C 2404.38 -4.44472 -0.690285 0
M  V30 26124 C 2405.7 -3.5637 -2.58241 0
M  V30 26125 H 2402.82 -0.669269 -0.308622 0
M  V30 26126 H 2405.46 -1.89634 -0.117865 0
M  V30 26127 H 2403.61 -3.16851 -2.24806 0
M  V30 26128 H 2405.28 -4.6124 -0.0741453 0
M  V30 26129 H 2403.53 -4.338 -0.000320181 0
M  V30 26130 H 2404.2 -5.37328 -1.26421 0
M  V30 26131 H 2406.67 -3.61703 -2.05694 0
M  V30 26132 H 2405.55 -4.53623 -3.09059 0
M  V30 26133 H 2405.81 -2.8268 -3.39918 0
M  V30 26134 N 2404.87 0.409753 -1.5218 0
M  V30 26135 C 2405.8 1.50606 -1.78438 0
M  V30 26136 C 2406.78 1.5779 -0.635323 0
M  V30 26137 O 2407.96 1.73074 -0.880853 0
M  V30 26138 C 2405.09 2.88435 -1.93449 0
M  V30 26139 C 2404.05 2.96102 -3.09043 0
M  V30 26140 C 2403.37 4.36179 -3.09276 0
M  V30 26141 C 2404.67 2.67645 -4.48513 0
M  V30 26142 H 2406.37 1.28884 -2.70239 0
M  V30 26143 H 2403.91 0.618582 -1.30037 0
M  V30 26144 H 2405.87 3.65116 -2.10401 0
M  V30 26145 H 2404.59 3.1145 -0.983184 0
M  V30 26146 H 2403.25 2.21866 -2.9184 0
M  V30 26147 H 2402.9 4.56202 -2.11869 0
M  V30 26148 H 2402.6 4.42234 -3.86915 0
M  V30 26149 H 2404.12 5.14795 -3.28357 0
M  V30 26150 H 2405.54 3.34048 -4.65924 0
M  V30 26151 H 2403.93 2.85076 -5.28064 0
M  V30 26152 H 2405 1.63087 -4.56652 0
M  V30 26153 N 2406.35 1.42792 0.666944 0
M  V30 26154 C 2407.59 1.43893 1.42908 0
M  V30 26155 C 2407.93 0.0579313 1.94114 0
M  V30 26156 O 2407.2 -0.91908 1.71415 0
M  V30 26157 C 2407.48 2.46991 2.62044 0
M  V30 26158 C 2407.34 3.94313 2.16419 0
M  V30 26159 C 2408.66 2.46984 3.64262 0
M  V30 26160 H 2405.77 0.523963 0.518297 0
M  V30 26161 H 2408.42 1.74256 0.75729 0
M  V30 26162 H 2406.57 2.21231 3.19357 0
M  V30 26163 H 2408.24 4.31082 1.64213 0
M  V30 26164 H 2406.48 4.07802 1.47918 0
M  V30 26165 H 2407.15 4.62041 3.02029 0
M  V30 26166 H 2409.63 2.69911 3.16681 0
M  V30 26167 H 2408.5 3.21087 4.45191 0
M  V30 26168 H 2408.77 1.49864 4.15924 0
M  V30 26169 N 2407.82 -0.904008 1.29095 0
M  V30 26170 C 2409.1 -1.63409 1.07503 0
M  V30 26171 C 2409.48 -2.07609 -0.38231 0
M  V30 26172 O 2408.83 -1.82854 -1.37028 0
M  V30 26173 C 2409.04 -2.81818 2.05863 0
M  V30 26174 C 2410.39 -3.52607 2.36545 0
M  V30 26175 O 2411.41 -2.91981 2.04024 0
M  V30 26176 O 2410.27 -4.61892 2.92093 0
M  V30 26177 H 2407.36 -0.71732 0.41156 0
M  V30 26178 H 2409.91 -0.952455 1.40451 0
M  V30 26179 H 2408.68 -2.46322 3.04041 0
M  V30 26180 H 2408.31 -3.5769 1.73619 0
M  V30 26181 N 2409.3 -1.11501 -1.11379 0
M  V30 26182 C 2410.55 -0.865544 -1.83402 0
M  V30 26183 C 2410.88 0.607296 -1.8446 0
M  V30 26184 O 2410.16 1.4484 -1.29814 0
M  V30 26185 C 2410.44 -1.42861 -3.30549 0
M  V30 26186 C 2410.29 -2.96912 -3.37881 0
M  V30 26187 C 2411.61 -1.08007 -4.26641 0
M  V30 26188 H 2408.73 -0.315882 -0.665874 0
M  V30 26189 H 2411.37 -1.38 -1.30598 0
M  V30 26190 H 2409.52 -0.991051 -3.75647 0
M  V30 26191 H 2411.19 -3.49276 -3.01337 0
M  V30 26192 H 2409.44 -3.32946 -2.78082 0
M  V30 26193 H 2410.11 -3.31397 -4.41452 0
M  V30 26194 H 2412.58 -1.45782 -3.89727 0
M  V30 26195 H 2411.46 -1.50081 -5.27984 0
M  V30 26196 H 2411.72 0.00907266 -4.42099 0
M  V30 26197 N 2410.78 1.28995 -0.905426 0
M  V30 26198 C 2411.71 2.29974 -0.404253 0
M  V30 26199 C 2412.69 1.61836 0.523755 0
M  V30 26200 O 2413.88 1.89305 0.433265 0
M  V30 26201 C 2411.01 3.45387 0.363981 0
M  V30 26202 C 2409.96 4.25366 -0.474123 0
M  V30 26203 C 2409.29 5.33033 0.421952 0
M  V30 26204 C 2410.59 4.9292 -1.72704 0
M  V30 26205 H 2412.28 2.72144 -1.24812 0
M  V30 26206 H 2409.83 1.30831 -0.601608 0
M  V30 26207 H 2411.78 4.1511 0.725374 0
M  V30 26208 H 2410.5 3.02076 1.24168 0
M  V30 26209 H 2409.16 3.57359 -0.817923 0
M  V30 26210 H 2408.81 4.85965 1.29796 0
M  V30 26211 H 2408.51 5.87445 -0.13516 0
M  V30 26212 H 2410.04 6.05605 0.77941 0
M  V30 26213 H 2411.45 5.55049 -1.43505 0
M  V30 26214 H 2409.85 5.57291 -2.22592 0
M  V30 26215 H 2410.92 4.17883 -2.45971 0
M  V30 26216 N 2412.26 0.668514 1.42719 0
M  V30 26217 C 2413.49 0.196099 2.05667 0
M  V30 26218 C 2413.9 -1.14944 1.50282 0
M  V30 26219 O 2413.24 -1.72382 0.63483 0
M  V30 26220 C 2413.3 0.0469511 3.59469 0
M  V30 26221 C 2412.97 1.3202 4.37515 0
M  V30 26222 C 2413.96 2.2523 4.6858 0
M  V30 26223 C 2411.65 1.56605 4.77263 0
M  V30 26224 C 2413.64 3.41307 5.3832 0
M  V30 26225 C 2411.33 2.72971 5.46745 0
M  V30 26226 C 2412.33 3.65147 5.77197 0
M  V30 26227 O 2412.02 4.79479 6.45256 0
M  V30 26228 H 2411.75 0.0943716 0.66938 0
M  V30 26229 H 2414.3 0.913821 1.83952 0
M  V30 26230 H 2412.53 -0.72629 3.79818 0
M  V30 26231 H 2414.22 -0.384781 4.04072 0
M  V30 26232 H 2414.99 2.07484 4.38378 0
M  V30 26233 H 2410.87 0.857328 4.52958 0
M  V30 26234 H 2414.41 4.13273 5.62007 0
M  V30 26235 H 2410.31 2.90645 5.76364 0
M  V30 26236 H 2411.07 4.78942 6.63744 0
M  V30 26237 N 2413.74 -1.52135 0.411426 0
M  V30 26238 C 2414.96 -2.06739 -0.165502 0
M  V30 26239 C 2415.39 -1.27929 -1.37898 0
M  V30 26240 O 2414.75 -0.310146 -1.78628 0
M  V30 26241 C 2414.79 -3.57227 -0.492061 0
M  V30 26242 O 2413.9 -3.80821 -1.5827 0
M  V30 26243 H 2413.24 -0.663869 -0.0132016 0
M  V30 26244 H 2415.77 -1.9605 0.585287 0
M  V30 26245 H 2415.78 -4.01047 -0.750033 0
M  V30 26246 H 2414.45 -4.1402 0.394995 0
M  V30 26247 H 2413.03 -3.4888 -1.31671 0
M  V30 26248 N 2415.22 -0.14192 -1.5696 0
M  V30 26249 C 2416.63 0.379743 -1.82797 0
M  V30 26250 C 2416.98 1.65078 -1.06036 0
M  V30 26251 O 2416.1 2.14253 -0.304049 0
M  V30 26252 C 2416.7 0.695744 -3.31579 0
M  V30 26253 C 2415.26 1.16195 -3.58016 0
M  V30 26254 C 2414.4 0.182406 -2.76699 0
M  V30 26255 H 2417.35 -0.366702 -1.54405 0
M  V30 26256 H 2417.38 1.55093 -3.47457 0
M  V30 26257 H 2416.89 -0.229517 -3.87421 0
M  V30 26258 H 2414.99 2.10333 -3.07556 0
M  V30 26259 H 2415.1 1.09143 -4.66502 0
M  V30 26260 H 2413.47 0.674029 -2.4562 0
M  V30 26261 H 2414.25 -0.736356 -3.3531 0
M  V30 26262 N 2416.69 1.57047 0.131868 0
M  V30 26263 C 2417.6 2.02678 1.18147 0
M  V30 26264 C 2418.62 0.94485 1.46112 0
M  V30 26265 O 2419.8 1.25544 1.57483 0
M  V30 26266 C 2416.86 2.41107 2.49135 0
M  V30 26267 C 2415.92 3.63322 2.28682 0
M  V30 26268 C 2415.15 3.99909 3.53424 0
M  V30 26269 O 2415.38 3.36981 4.60217 0
M  V30 26270 O 2414.31 4.9308 3.45189 0
M  V30 26271 H 2418.14 2.92307 0.824017 0
M  V30 26272 H 2415.72 1.45439 0.341719 0
M  V30 26273 H 2417.6 2.66617 3.26333 0
M  V30 26274 H 2416.28 1.54629 2.84379 0
M  V30 26275 H 2415.19 3.4298 1.49384 0
M  V30 26276 H 2416.52 4.50466 1.98347 0
M  V30 26277 N 2418.17 -0.401677 1.52395 0
M  V30 26278 C 2419.1 -1.49658 1.79234 0
M  V30 26279 C 2420.08 -1.57451 0.643682 0
M  V30 26280 O 2421.27 -1.72604 0.89002 0
M  V30 26281 C 2418.4 -2.87405 1.94976 0
M  V30 26282 C 2417.35 -2.94459 3.10609 0
M  V30 26283 C 2416.68 -4.34533 3.11585 0
M  V30 26284 C 2417.98 -2.65262 4.49926 0
M  V30 26285 H 2419.67 -1.27449 2.70919 0
M  V30 26286 H 2417.22 -0.611677 1.30363 0
M  V30 26287 H 2419.17 -3.63995 2.12334 0
M  V30 26288 H 2417.89 -3.10924 0.999687 0
M  V30 26289 H 2416.55 -2.20316 2.93013 0
M  V30 26290 H 2416.2 -4.55072 2.14285 0
M  V30 26291 H 2415.9 -4.40176 3.89255 0
M  V30 26292 H 2417.43 -5.13047 3.31082 0
M  V30 26293 H 2418.84 -3.31573 4.67689 0
M  V30 26294 H 2417.24 -2.82271 5.29569 0
M  V30 26295 H 2418.31 -1.60663 4.5751 0
M  V30 26296 N 2419.65 -1.43144 -0.659362 0
M  V30 26297 C 2420.58 -1.50628 -1.78419 0
M  V30 26298 C 2421.56 -0.361472 -1.66215 0
M  V30 26299 O 2422.75 -0.577866 -1.85403 0
M  V30 26300 C 2419.88 -1.42293 -3.16812 0
M  V30 26301 C 2418.83 -2.5496 -3.43772 0
M  V30 26302 C 2418.16 -2.31679 -4.81901 0
M  V30 26303 C 2419.46 -3.97228 -3.39127 0
M  V30 26304 H 2421.15 -2.44774 -1.72413 0
M  V30 26305 H 2418.7 -1.1781 -0.828063 0
M  V30 26306 H 2420.65 -1.46134 -3.9525 0
M  V30 26307 H 2419.37 -0.446492 -3.23534 0
M  V30 26308 H 2418.03 -2.50462 -2.67702 0
M  V30 26309 H 2417.68 -1.32293 -4.85291 0
M  V30 26310 H 2417.38 -3.072 -5.00901 0
M  V30 26311 H 2418.9 -2.37294 -5.62604 0
M  V30 26312 H 2420.32 -4.03247 -4.07511 0
M  V30 26313 H 2418.71 -4.72725 -3.69663 0
M  V30 26314 H 2419.78 -4.22801 -2.37418 0
M  V30 26315 N 2421.13 0.897149 -1.29572 0
M  V30 26316 C 2422.37 1.64787 -1.17692 0
M  V30 26317 C 2422.7 1.92602 0.271036 0
M  V30 26318 O 2421.96 1.5366 1.2119 0
M  V30 26319 C 2422.26 3.00278 -1.93825 0
M  V30 26320 C 2421.92 2.92062 -3.43527 0
M  V30 26321 C 2420.58 2.89528 -3.84353 0
M  V30 26322 C 2422.94 2.81081 -4.38911 0
M  V30 26323 C 2420.26 2.73837 -5.18874 0
M  V30 26324 C 2422.62 2.66929 -5.73526 0
M  V30 26325 C 2421.28 2.62763 -6.13606 0
M  V30 26326 H 2420.55 0.603 -0.430665 0
M  V30 26327 H 2423.2 1.04402 -1.60538 0
M  V30 26328 H 2421.5 3.64545 -1.43577 0
M  V30 26329 H 2423.2 3.57302 -1.82034 0
M  V30 26330 H 2419.79 2.94837 -3.11077 0
M  V30 26331 H 2423.97 2.82114 -4.0832 0
M  V30 26332 H 2419.23 2.69018 -5.49035 0
M  V30 26333 H 2423.4 2.57404 -6.47083 0
M  V30 26334 H 2421.03 2.50362 -7.1779 0
M  V30 26335 N 2422.61 1.1209 1.10786 0
M  V30 26336 C 2424.02 0.888939 1.64179 0
M  V30 26337 C 2424.37 -0.577465 1.87509 0
M  V30 26338 O 2423.49 -1.44109 1.61436 0
M  V30 26339 C 2424.09 1.60717 2.98254 0
M  V30 26340 C 2422.65 1.42145 3.48528 0
M  V30 26341 C 2421.79 1.64544 2.23205 0
M  V30 26342 H 2424.74 1.27619 0.943346 0
M  V30 26343 H 2424.77 1.05611 3.6555 0
M  V30 26344 H 2424.28 2.67441 2.81242 0
M  V30 26345 H 2422.38 0.376617 3.70692 0
M  V30 26346 H 2422.49 2.17512 4.26879 0
M  V30 26347 H 2420.86 1.06929 2.31167 0
M  V30 26348 H 2421.64 2.72557 2.08728 0
M  V30 26349 N 2424.08 -1.28513 0.912254 0
M  V30 26350 C 2424.99 -2.31086 0.404547 0
M  V30 26351 C 2426.01 -1.66448 -0.50704 0
M  V30 26352 O 2427.19 -1.97517 -0.393589 0
M  V30 26353 C 2424.25 -3.44944 -0.348512 0
M  V30 26354 C 2423.31 -4.25141 0.596114 0
M  V30 26355 C 2422.54 -5.33563 -0.1211 0
M  V30 26356 O 2422.77 -5.54363 -1.34307 0
M  V30 26357 O 2421.7 -5.99447 0.542822 0
M  V30 26358 H 2425.53 -2.76519 1.25583 0
M  V30 26359 H 2423.11 -1.33179 0.677022 0
M  V30 26360 H 2424.99 -4.14233 -0.773877 0
M  V30 26361 H 2423.67 -3.01596 -1.17566 0
M  V30 26362 H 2422.58 -3.58446 1.07085 0
M  V30 26363 H 2423.91 -4.72164 1.39003 0
M  V30 26364 N 2425.56 -0.676073 -1.42362 0
M  V30 26365 C 2426.81 -0.198473 -2.01123 0
M  V30 26366 C 2427.13 1.19963 -1.53733 0
M  V30 26367 O 2426.4 1.80576 -0.759549 0
M  V30 26368 H 2424.98 -0.0703852 -0.743677 0
M  V30 26369 H 2427.64 -0.872867 -1.74261 0
M  V30 26370 H 2426.74 -0.200741 -3.11454 0
M  V30 26371 N 2427.04 1.51915 -0.419488 0
M  V30 26372 C 2428.27 2.06823 0.154535 0
M  V30 26373 C 2428.69 1.28658 1.37218 0
M  V30 26374 O 2428.05 0.319614 1.78461 0
M  V30 26375 C 2428.1 3.57483 0.473109 0
M  V30 26376 O 2427.2 3.81655 1.56248 0
M  V30 26377 H 2426.54 0.663929 0.00968073 0
M  V30 26378 H 2429.07 1.95737 -0.595676 0
M  V30 26379 H 2429.08 4.01439 0.728754 0
M  V30 26380 H 2427.76 4.13805 -0.416946 0
M  V30 26381 H 2426.33 3.49573 1.29819 0
M  V30 26382 N 2428.52 0.150242 1.56882 0
M  V30 26383 C 2429.8 -0.545294 1.87845 0
M  V30 26384 C 2430.18 -1.82747 1.05673 0
M  V30 26385 O 2429.52 -2.28043 0.144482 0
M  V30 26386 C 2429.73 -0.80761 3.39527 0
M  V30 26387 C 2431.08 -1.14695 4.08816 0
M  V30 26388 O 2432.11 -0.896856 3.44724 0
M  V30 26389 O 2430.96 -1.61775 5.22007 0
M  V30 26390 H 2428.06 -0.278539 0.778681 0
M  V30 26391 H 2430.6 0.187097 1.68665 0
M  V30 26392 H 2429.38 0.0996784 3.91173 0
M  V30 26393 H 2429 -1.59407 3.64246 0
M  V30 26394 N 2430 -1.57115 -0.123538 0
M  V30 26395 C 2430.96 -1.99078 -1.1358 0
M  V30 26396 C 2431.96 -0.88032 -1.34562 0
M  V30 26397 O 2433.15 -1.14646 -1.31156 0
M  V30 26398 C 2430.28 -2.32702 -2.49124 0
M  V30 26399 H 2431.47 -2.89707 -0.775236 0
M  V30 26400 H 2429.03 -1.51914 -0.367683 0
M  V30 26401 H 2429.76 -1.44939 -2.90109 0
M  V30 26402 H 2429.55 -3.13688 -2.35249 0
M  V30 26403 H 2431.04 -2.65924 -3.21985 0
M  V30 26404 N 2431.47 0.393589 -1.52606 0
M  V30 26405 C 2432.89 0.733332 -1.41755 0
M  V30 26406 C 2433.09 1.94286 -0.534328 0
M  V30 26407 O 2432.15 2.52499 -0.00602308 0
M  V30 26408 C 2433.46 0.972722 -2.84532 0
M  V30 26409 C 2435.01 1.07448 -2.9398 0
M  V30 26410 C 2435.48 1.34653 -4.37759 0
M  V30 26411 N 2436.97 1.41484 -4.41063 0
M  V30 26412 C 2437.71 1.64191 -5.4939 0
M  V30 26413 N 2437.2 1.84398 -6.67809 0
M  V30 26414 N 2439 1.66333 -5.36926 0
M  V30 26415 H 2431.15 -0.402365 -2.08554 0
M  V30 26416 H 2433.41 -0.117805 -0.940652 0
M  V30 26417 H 2433.12 0.156142 -3.51353 0
M  V30 26418 H 2432.99 1.88865 -3.26511 0
M  V30 26419 H 2435.38 1.88163 -2.27329 0
M  V30 26420 H 2435.46 0.13656 -2.55435 0
M  V30 26421 H 2435.1 0.544492 -5.04973 0
M  V30 26422 H 2435.03 2.29722 -4.73852 0
M  V30 26423 H 2437.52 1.27595 -3.55708 0
M  V30 26424 H 2437.84 2.01218 -7.46144 0
M  V30 26425 H 2436.18 1.81632 -6.70846 0
M  V30 26426 H 2439.37 1.50094 -4.43384 0
M  V30 26427 H 2439.55 1.83689 -6.2142 0
M  V30 26428 N 2432.95 1.43492 0.651762 0
M  V30 26429 C 2434.2 1.44472 1.40751 0
M  V30 26430 C 2434.51 0.0732189 1.95463 0
M  V30 26431 O 2435.72 -0.0395244 2.71471 0
M  V30 26432 C 2434.18 2.54244 2.54731 0
M  V30 26433 C 2433.78 3.97507 2.06621 0
M  V30 26434 C 2435.53 2.6442 3.32088 0
M  V30 26435 C 2433.44 4.98743 3.1782 0
M  V30 26436 H 2432.37 0.53743 0.528853 0
M  V30 26437 H 2435.02 1.69486 0.703335 0
M  V30 26438 H 2433.4 2.22434 3.27626 0
M  V30 26439 H 2434.57 4.38785 1.40727 0
M  V30 26440 H 2432.89 3.91389 1.42139 0
M  V30 26441 H 2435.48 3.3723 4.14946 0
M  V30 26442 H 2435.83 1.69538 3.80214 0
M  V30 26443 H 2436.36 2.95539 2.66274 0
M  V30 26444 H 2433.1 5.95182 2.74661 0
M  V30 26445 H 2432.62 4.62076 3.82421 0
M  V30 26446 H 2434.3 5.21512 3.82928 0
M  V30 26447 N 2434.43 -0.890264 1.30046 0
M  V30 26448 C 2435.85 -1.17266 1.08263 0
M  V30 26449 C 2436.05 -2.00864 -0.160028 0
M  V30 26450 O 2435.1 -2.37579 -0.855139 0
M  V30 26451 C 2436.42 -1.88446 2.34326 0
M  V30 26452 C 2437.96 -2.01232 2.39738 0
M  V30 26453 C 2438.44 -2.75824 3.6563 0
M  V30 26454 N 2439.93 -2.83373 3.66407 0
M  V30 26455 C 2440.66 -3.41649 4.60504 0
M  V30 26456 N 2440.16 -4.01016 5.6494 0
M  V30 26457 N 2441.95 -3.39413 4.48057 0
M  V30 26458 H 2434.1 -0.332726 2.09778 0
M  V30 26459 H 2436.37 -0.209932 0.924463 0
M  V30 26460 H 2436.07 -1.3446 3.24982 0
M  V30 26461 H 2435.95 -2.88863 2.42565 0
M  V30 26462 H 2438.33 -2.54391 1.49564 0
M  V30 26463 H 2438.42 -0.99919 2.35478 0
M  V30 26464 H 2438.06 -2.23339 4.5616 0
M  V30 26465 H 2437.99 -3.77502 3.67151 0
M  V30 26466 H 2440.48 -2.41217 2.909 0
M  V30 26467 H 2440.79 -4.43534 6.32849 0
M  V30 26468 H 2439.14 -3.99451 5.68739 0
M  V30 26469 H 2442.33 -2.92258 3.65654 0
M  V30 26470 H 2442.5 -3.84535 5.21572 0
M  V30 26471 N 2435.91 -1.12676 -1.1019 0
M  V30 26472 C 2437.15 -0.893768 -1.83824 0
M  V30 26473 C 2437.51 0.57005 -1.83342 0
M  V30 26474 O 2438.71 0.920309 -2.52554 0
M  V30 26475 C 2436.98 -1.45588 -3.26403 0
M  V30 26476 S 2438.54 -1.36179 -4.17134 0
M  V30 26477 H 2435.36 -0.322354 -0.633726 0
M  V30 26478 H 2437.96 -1.43678 -1.32578 0
M  V30 26479 H 2436.67 -2.51479 -3.24325 0
M  V30 26480 H 2436.2 -0.910473 -3.82719 0
M  V30 26481 H 2438.21 -0.33495 -4.95068 0
M  V30 26482 N 2437.39 1.28028 -0.919057 0
M  V30 26483 C 2438.63 1.94362 -0.553872 0
M  V30 26484 C 2438.96 1.72658 0.906326 0
M  V30 26485 O 2438.23 1.06933 1.64141 0
M  V30 26486 H 2436.81 0.719213 -0.201847 0
M  V30 26487 H 2439.47 1.55907 -1.16957 0
M  V30 26488 H 2438.56 3.02885 -0.752811 0
M  V30 26489 N 2438.86 0.683613 1.42002 0
M  V30 26490 C 2439.83 0.0198645 2.29191 0
M  V30 26491 C 2440.83 -0.720105 1.43775 0
M  V30 26492 O 2442.02 -0.556786 1.65062 0
M  V30 26493 C 2439.15 -0.98243 3.26437 0
M  V30 26494 H 2440.34 0.787396 2.89379 0
M  V30 26495 H 2437.9 0.446445 1.49788 0
M  V30 26496 H 2438.63 -1.77814 2.71206 0
M  V30 26497 H 2438.42 -0.455113 3.8945 0
M  V30 26498 H 2439.91 -1.44501 3.91803 0
M  V30 26499 N 2440.34 -1.5169 0.427538 0
M  V30 26500 C 2441.59 -2.02 -0.142193 0
M  V30 26501 C 2441.92 -1.31224 -1.43564 0
M  V30 26502 O 2441.17 -0.412777 -1.91297 0
M  V30 26503 C 2441.47 -3.54945 -0.418187 0
M  V30 26504 C 2441.14 -4.43956 0.788265 0
M  V30 26505 C 2439.8 -4.68005 1.11915 0
M  V30 26506 C 2442.15 -4.96241 1.59356 0
M  V30 26507 C 2439.48 -5.41585 2.25617 0
M  V30 26508 C 2441.83 -5.71067 2.7215 0
M  V30 26509 C 2440.5 -5.93382 3.05703 0
M  V30 26510 H 2439.77 -0.739171 -0.0520321 0
M  V30 26511 H 2442.41 -1.82735 0.572729 0
M  V30 26512 H 2440.72 -3.72488 -1.21489 0
M  V30 26513 H 2442.42 -3.91398 -0.87227 0
M  V30 26514 H 2439.01 -4.25429 0.520419 0
M  V30 26515 H 2443.19 -4.77554 1.35114 0
M  V30 26516 H 2438.45 -5.57079 2.51939 0
M  V30 26517 H 2442.62 -6.10572 3.34925 0
M  V30 26518 H 2440.25 -6.50177 3.93922 0
M  V30 26519 N 2441.82 -0.15856 -1.568 0
M  V30 26520 C 2442.75 0.815028 -2.13149 0
M  V30 26521 C 2443.73 1.2346 -1.05812 0
M  V30 26522 O 2444.92 1.32865 -1.33713 0
M  V30 26523 C 2442.04 2.09589 -2.66064 0
M  V30 26524 C 2441.09 1.82134 -3.85655 0
M  V30 26525 S 2441.92 1.00198 -5.26042 0
M  V30 26526 C 2443.08 2.29378 -5.82354 0
M  V30 26527 H 2443.31 0.335885 -2.95397 0
M  V30 26528 H 2440.84 0.055912 -1.54299 0
M  V30 26529 H 2442.8 2.83165 -2.972 0
M  V30 26530 H 2441.46 2.54618 -1.83926 0
M  V30 26531 H 2440.66 2.77139 -4.20963 0
M  V30 26532 H 2440.26 1.16661 -3.5534 0
M  V30 26533 H 2442.55 3.24942 -5.94491 0
M  V30 26534 H 2443.49 1.98558 -6.79691 0
M  V30 26535 H 2443.9 2.40555 -5.10679 0
M  V30 26536 N 2443.3 1.57178 0.115204 0
M  V30 26537 C 2444.52 1.89614 0.840321 0
M  V30 26538 C 2444.95 0.750875 1.72463 0
M  V30 26539 O 2444.31 -0.298447 1.78827 0
M  V30 26540 C 2444.36 3.20817 1.64648 0
M  V30 26541 O 2443.46 3.0699 2.75375 0
M  V30 26542 H 2442.8 0.622096 0.232147 0
M  V30 26543 H 2445.33 2.04372 0.0964618 0
M  V30 26544 H 2445.34 3.53631 2.03493 0
M  V30 26545 H 2444.02 4.03765 0.997345 0
M  V30 26546 H 2442.59 2.8565 2.39705 0
M  V30 26547 N 2444.78 -0.38549 1.52813 0
M  V30 26548 C 2445.72 -1.4711 1.77841 0
M  V30 26549 C 2446.69 -1.54023 0.621784 0
M  V30 26550 O 2447.88 -1.70224 0.861876 0
M  V30 26551 C 2445.02 -2.84298 1.95623 0
M  V30 26552 C 2444.13 -2.86509 3.23321 0
M  V30 26553 C 2443.27 -4.15146 3.31401 0
M  V30 26554 C 2442.31 -4.11423 4.53208 0
M  V30 26555 N 2441.44 -5.31672 4.58551 0
M  V30 26556 H 2446.28 -1.25069 2.70484 0
M  V30 26557 H 2443.82 -0.606668 1.34007 0
M  V30 26558 H 2445.78 -3.63969 2.03918 0
M  V30 26559 H 2444.41 -3.04782 1.06337 0
M  V30 26560 H 2443.46 -1.99189 3.2408 0
M  V30 26561 H 2444.77 -2.79626 4.1305 0
M  V30 26562 H 2443.93 -5.03222 3.38898 0
M  V30 26563 H 2442.67 -4.24756 2.39652 0
M  V30 26564 H 2441.67 -3.21734 4.45833 0
M  V30 26565 H 2442.9 -4.03432 5.46278 0
M  V30 26566 H 2440.84 -5.41905 3.69695 0
M  V30 26567 H 2440.76 -5.26879 5.42157 0
M  V30 26568 H 2442.03 -6.21636 4.70307 0
M  V30 26569 N 2446.26 -1.43835 -0.644143 0
M  V30 26570 C 2447.19 -1.52512 -1.76812 0
M  V30 26571 C 2448.17 -0.379081 -1.65822 0
M  V30 26572 O 2449.35 -0.597498 -1.8478 0
M  V30 26573 C 2446.48 -1.45645 -3.15285 0
M  V30 26574 C 2445.44 -2.58592 -3.41049 0
M  V30 26575 C 2444.76 -2.36778 -4.79417 0
M  V30 26576 C 2446.06 -4.00803 -3.34895 0
M  V30 26577 H 2447.76 -2.46588 -1.69807 0
M  V30 26578 H 2445.3 -1.18681 -0.815521 0
M  V30 26579 H 2447.25 -1.50318 -3.93678 0
M  V30 26580 H 2445.98 -0.480781 -3.23042 0
M  V30 26581 H 2444.64 -2.53287 -2.65031 0
M  V30 26582 H 2444.29 -1.37433 -4.83861 0
M  V30 26583 H 2443.99 -3.12496 -4.97614 0
M  V30 26584 H 2445.51 -2.43248 -5.60056 0
M  V30 26585 H 2446.92 -4.07546 -4.03211 0
M  V30 26586 H 2445.32 -4.76619 -3.64628 0
M  V30 26587 H 2446.39 -4.25295 -2.32921 0
M  V30 26588 N 2447.73 0.883355 -1.30517 0
M  V30 26589 C 2448.98 1.63003 -1.18798 0
M  V30 26590 C 2449.3 1.93919 0.255889 0
M  V30 26591 O 2450.5 2.66957 0.494607 0
M  V30 26592 C 2448.96 2.9379 -2.07883 0
M  V30 26593 C 2448.57 2.70408 -3.57188 0
M  V30 26594 C 2450.31 3.71757 -2.04931 0
M  V30 26595 C 2448.22 3.97022 -4.38324 0
M  V30 26596 H 2447.15 0.611554 -0.441042 0
M  V30 26597 H 2449.8 0.977826 -1.55277 0
M  V30 26598 H 2448.18 3.60313 -1.64289 0
M  V30 26599 H 2449.35 2.12377 -4.08941 0
M  V30 26600 H 2447.67 2.05814 -3.6198 0
M  V30 26601 H 2450.27 4.65661 -2.628 0
M  V30 26602 H 2450.61 4.03276 -1.03317 0
M  V30 26603 H 2451.14 3.121 -2.46654 0
M  V30 26604 H 2447.88 3.70661 -5.40639 0
M  V30 26605 H 2447.4 4.54552 -3.91334 0
M  V30 26606 H 2449.08 4.65028 -4.49842 0
M  V30 26607 N 2449.21 1.13259 1.09591 0
M  V30 26608 C 2450.16 0.803821 2.18269 0
M  V30 26609 C 2451.15 -0.213119 1.68054 0
M  V30 26610 O 2452.36 -0.0704383 1.79862 0
M  V30 26611 H 2448.73 0.242156 0.711944 0
M  V30 26612 H 2450.71 1.7286 2.43232 0
M  V30 26613 C 2449.45 0.284301 3.46536 0
M  V30 26614 H 2448.78 1.05813 3.85543 0
M  V30 26615 H 2450.22 0.092669 4.23899 0
M  V30 26616 C 2448.68 -0.989627 3.22037 0
M  V30 26617 O 2449.21 -2.06577 3.44512 0
M  V30 26618 N 2447.41 -0.920038 2.75651 0
M  V30 26619 H 2446.96 -0.0441566 2.57562 0
M  V30 26620 H 2446.92 -1.77301 2.59638 0
M  V30 26621 N 2450.69 -1.27539 0.925834 0
M  V30 26622 C 2451.64 -2.24561 0.394528 0
M  V30 26623 C 2452.62 -1.52929 -0.500156 0
M  V30 26624 O 2453.82 -1.73745 -0.337905 0
M  V30 26625 C 2450.94 -3.41478 -0.353268 0
M  V30 26626 C 2450.03 -4.20415 0.557826 0
M  V30 26627 N 2450.42 -4.77196 1.67683 0
M  V30 26628 C 2448.72 -4.44541 0.360483 0
M  V30 26629 C 2449.42 -5.36702 2.24334 0
M  V30 26630 N 2448.4 -5.21532 1.53314 0
M  V30 26631 H 2452.2 -2.66042 1.24895 0
M  V30 26632 H 2449.71 -1.42448 0.779889 0
M  V30 26633 H 2451.71 -4.10083 -0.750828 0
M  V30 26634 H 2450.37 -3.01527 -1.20464 0
M  V30 26635 H 2451.38 -4.75201 2.05924 0
M  V30 26636 H 2448.06 -4.15064 -0.450381 0
M  V30 26637 H 2449.45 -5.91597 3.18531 0
M  V30 26638 N 2452.17 -0.691135 -1.41637 0
M  V30 26639 C 2453.4 -0.229127 -2.05627 0
M  V30 26640 C 2453.81 1.11996 -1.51994 0
M  V30 26641 O 2453.17 1.699 -0.666352 0
M  V30 26642 C 2453.22 -0.173346 -3.61084 0
M  V30 26643 O 2452.94 -1.46914 -4.12732 0
M  V30 26644 C 2454.44 0.310188 -4.42213 0
M  V30 26645 H 2451.66 -0.107545 -0.662325 0
M  V30 26646 H 2454.2 -0.94247 -1.81488 0
M  V30 26647 H 2452.36 0.490791 -3.84279 0
M  V30 26648 H 2452.77 -1.3533 -5.0674 0
M  V30 26649 H 2454.25 0.298099 -5.51194 0
M  V30 26650 H 2454.72 1.3483 -4.17992 0
M  V30 26651 H 2455.33 -0.322791 -4.24073 0
M  V30 26652 N 2453.65 1.51461 -0.435577 0
M  V30 26653 C 2454.59 2.27704 0.376757 0
M  V30 26654 C 2455.56 1.3122 1.01835 0
M  V30 26655 O 2456.75 1.60121 1.03759 0
M  V30 26656 C 2453.89 3.12087 1.47296 0
M  V30 26657 C 2453 4.23562 0.849669 0
M  V30 26658 C 2452.14 4.95257 1.92077 0
M  V30 26659 C 2451.17 5.98656 1.27582 0
M  V30 26660 N 2450.31 6.63766 2.28821 0
M  V30 26661 H 2455.15 2.96684 -0.279787 0
M  V30 26662 H 2452.69 1.46335 -0.149821 0
M  V30 26663 H 2454.65 3.59334 2.11978 0
M  V30 26664 H 2453.28 2.45225 2.09915 0
M  V30 26665 H 2452.33 3.80291 0.091186 0
M  V30 26666 H 2453.64 4.97648 0.33879 0
M  V30 26667 H 2452.79 5.46044 2.64425 0
M  V30 26668 H 2451.53 4.20798 2.46537 0
M  V30 26669 H 2450.54 5.47163 0.537796 0
M  V30 26670 H 2451.76 6.75072 0.738574 0
M  V30 26671 H 2449.71 5.9212 2.82365 0
M  V30 26672 H 2449.63 7.33612 1.8262 0
M  V30 26673 H 2450.89 7.19184 3.00658 0
M  V30 26674 N 2455.12 0.166873 1.56714 0
M  V30 26675 C 2456.07 -0.765154 2.17748 0
M  V30 26676 C 2457.04 -1.23009 1.11616 0
M  V30 26677 O 2458.23 -1.29905 1.39747 0
M  V30 26678 C 2455.37 -1.99085 2.81885 0
M  V30 26679 C 2454.48 -1.5699 4.02465 0
M  V30 26680 C 2453.61 -2.74892 4.54542 0
M  V30 26681 C 2452.65 -2.29265 5.67542 0
M  V30 26682 N 2451.79 -3.40245 6.14148 0
M  V30 26683 H 2456.63 -0.237899 2.97049 0
M  V30 26684 H 2454.17 -0.105699 1.4672 0
M  V30 26685 H 2456.13 -2.70968 3.17225 0
M  V30 26686 H 2454.76 -2.49188 2.05195 0
M  V30 26687 H 2453.81 -0.747971 3.72974 0
M  V30 26688 H 2455.12 -1.19495 4.84275 0
M  V30 26689 H 2454.27 -3.54938 4.92041 0
M  V30 26690 H 2453.01 -3.15644 3.7178 0
M  V30 26691 H 2452.02 -1.47664 5.29599 0
M  V30 26692 H 2453.24 -1.89576 6.52103 0
M  V30 26693 H 2451.19 -3.80581 5.34317 0
M  V30 26694 H 2451.11 -3.06828 6.90936 0
M  V30 26695 H 2452.37 -4.20589 6.56297 0
M  V30 26696 N 2456.6 -1.57237 -0.106866 0
M  V30 26697 C 2457.53 -2.04256 -1.13145 0
M  V30 26698 C 2458.51 -0.929249 -1.42474 0
M  V30 26699 O 2459.7 -1.19976 -1.52707 0
M  V30 26700 C 2456.83 -2.4571 -2.45446 0
M  V30 26701 C 2455.78 -3.60597 -2.30552 0
M  V30 26702 C 2455.11 -3.87989 -3.67925 0
M  V30 26703 C 2456.41 -4.919 -1.75588 0
M  V30 26704 H 2458.1 -2.90103 -0.740323 0
M  V30 26705 H 2455.65 -1.39564 -0.354672 0
M  V30 26706 H 2457.6 -2.7721 -3.17384 0
M  V30 26707 H 2456.33 -1.56848 -2.86472 0
M  V30 26708 H 2454.98 -3.29325 -1.61061 0
M  V30 26709 H 2454.63 -2.96314 -4.06457 0
M  V30 26710 H 2454.33 -4.65328 -3.58808 0
M  V30 26711 H 2455.86 -4.21953 -4.41348 0
M  V30 26712 H 2457.27 -5.21858 -2.37355 0
M  V30 26713 H 2455.67 -5.73322 -1.77262 0
M  V30 26714 H 2456.74 -4.79609 -0.714367 0
M  V30 26715 N 2458.08 0.377381 -1.53015 0
M  V30 26716 C 2459.01 1.48368 -1.73384 0
M  V30 26717 C 2459.99 1.51831 -0.581906 0
M  V30 26718 O 2461.18 1.70062 -0.8131 0
M  V30 26719 C 2458.3 2.86787 -1.80197 0
M  V30 26720 C 2457.35 3.011 -3.02061 0
M  V30 26721 S 2458.18 2.71085 -4.61815 0
M  V30 26722 C 2459.34 4.11675 -4.7146 0
M  V30 26723 H 2459.57 1.30867 -2.66948 0
M  V30 26724 H 2457.1 0.570986 -1.43454 0
M  V30 26725 H 2459.06 3.66546 -1.84808 0
M  V30 26726 H 2457.72 3.01606 -0.877061 0
M  V30 26727 H 2456.92 4.02446 -3.03403 0
M  V30 26728 H 2456.52 2.29248 -2.95502 0
M  V30 26729 H 2458.81 5.05762 -4.50789 0
M  V30 26730 H 2459.75 4.15343 -5.73494 0
M  V30 26731 H 2460.16 3.98125 -4.00196 0
M  V30 26732 N 2459.56 1.44175 0.636506 0
M  V30 26733 C 2460.47 1.53107 1.77751 0
M  V30 26734 C 2461.48 0.417063 1.68928 0
M  V30 26735 O 2462.66 0.673633 1.898 0
M  V30 26736 C 2459.73 1.46747 3.14112 0
M  V30 26737 C 2458.79 2.68954 3.34607 0
M  V30 26738 C 2458.02 2.62888 4.64463 0
M  V30 26739 O 2458.24 1.68591 5.44916 0
M  V30 26740 O 2457.18 3.53656 4.87043 0
M  V30 26741 H 2461 2.49492 1.73169 0
M  V30 26742 H 2458.59 1.26361 0.797068 0
M  V30 26743 H 2460.47 1.45703 3.95409 0
M  V30 26744 H 2459.14 0.535032 3.19248 0
M  V30 26745 H 2458.05 2.75567 2.53009 0
M  V30 26746 H 2459.38 3.61226 3.3433 0
M  V30 26747 N 2461.04 -0.876421 1.30983 0
M  V30 26748 C 2461.98 -1.98302 1.18089 0
M  V30 26749 C 2462.95 -1.6596 0.0682555 0
M  V30 26750 O 2464.14 -1.89285 0.23997 0
M  V30 26751 C 2461.28 -3.33492 0.887534 0
M  V30 26752 C 2460.39 -3.78471 2.08288 0
M  V30 26753 C 2459.53 -5.02347 1.72687 0
M  V30 26754 C 2458.57 -5.39757 2.88666 0
M  V30 26755 N 2457.7 -6.54814 2.53304 0
M  V30 26756 H 2462.54 -2.08663 2.12753 0
M  V30 26757 H 2460.08 -1.02157 1.05841 0
M  V30 26758 H 2462.04 -4.11319 0.698034 0
M  V30 26759 H 2460.67 -3.22792 -0.0222583 0
M  V30 26760 H 2459.72 -2.9648 2.38335 0
M  V30 26761 H 2461.03 -4.0213 2.95115 0
M  V30 26762 H 2460.19 -5.87823 1.50161 0
M  V30 26763 H 2458.92 -4.80578 0.830411 0
M  V30 26764 H 2457.93 -4.52804 3.11848 0
M  V30 26765 H 2459.15 -5.63495 3.79012 0
M  V30 26766 H 2457.1 -6.34604 1.66174 0
M  V30 26767 H 2457.02 -6.78385 3.33662 0
M  V30 26768 H 2458.29 -7.43499 2.34156 0
M  V30 26769 N 2462.51 -1.13839 -1.08989 0
M  V30 26770 C 2463.42 -0.833371 -2.19299 0
M  V30 26771 C 2464.44 0.183816 -1.73026 0
M  V30 26772 O 2465.62 0.0137738 -2.01395 0
M  V30 26773 C 2462.68 -0.308711 -3.45323 0
M  V30 26774 C 2461.74 -1.38771 -4.06253 0
M  V30 26775 C 2460.98 -0.887989 -5.26261 0
M  V30 26776 O 2461.2 0.27277 -5.69747 0
M  V30 26777 O 2460.13 -1.66432 -5.78432 0
M  V30 26778 H 2463.96 -1.7551 -2.47851 0
M  V30 26779 H 2461.54 -0.916186 -1.1801 0
M  V30 26780 H 2463.43 -0.0217479 -4.21394 0
M  V30 26781 H 2462.1 0.585375 -3.18363 0
M  V30 26782 H 2461.01 -1.72805 -3.31797 0
M  V30 26783 H 2462.34 -2.2561 -4.37448 0
M  V30 26784 N 2463.99 1.27046 -0.932584 0
M  V30 26785 C 2464.9 2.30413 -0.441259 0
M  V30 26786 C 2465.92 1.67234 0.480496 0
M  V30 26787 O 2467.09 1.98118 0.362116 0
M  V30 26788 C 2464.16 3.45455 0.29359 0
M  V30 26789 C 2463.22 4.24139 -0.663675 0
M  V30 26790 C 2462.45 5.33688 0.0361994 0
M  V30 26791 O 2462.68 5.56429 1.2547 0
M  V30 26792 O 2461.61 5.98508 -0.63812 0
M  V30 26793 H 2465.44 2.74486 -1.29967 0
M  V30 26794 H 2463.02 1.32086 -0.698124 0
M  V30 26795 H 2464.9 4.15412 0.707878 0
M  V30 26796 H 2463.58 3.03428 1.12753 0
M  V30 26797 H 2462.49 3.56697 -1.12774 0
M  V30 26798 H 2463.82 4.69893 -1.46497 0
M  V30 26799 N 2465.47 0.698636 1.41269 0
M  V30 26800 C 2466.42 0.03525 2.30773 0
M  V30 26801 C 2467.39 -0.768085 1.47274 0
M  V30 26802 O 2468.57 -0.735493 1.76054 0
M  V30 26803 C 2465.71 -0.892941 3.33348 0
M  V30 26804 C 2464.83 -0.0808935 4.31924 0
M  V30 26805 C 2463.96 -1.00701 5.21568 0
M  V30 26806 C 2463 -0.188047 6.11811 0
M  V30 26807 N 2462.14 -1.06813 6.93928 0
M  V30 26808 H 2466.98 0.804257 2.86942 0
M  V30 26809 H 2464.51 0.408319 1.41319 0
M  V30 26810 H 2466.47 -1.44516 3.9137 0
M  V30 26811 H 2465.1 -1.62831 2.78722 0
M  V30 26812 H 2464.15 0.58829 3.75824 0
M  V30 26813 H 2465.47 0.553888 4.95715 0
M  V30 26814 H 2464.62 -1.62835 5.8444 0
M  V30 26815 H 2463.36 -1.67564 4.5801 0
M  V30 26816 H 2462.36 0.44635 5.47985 0
M  V30 26817 H 2463.59 0.476835 6.77424 0
M  V30 26818 H 2461.53 -1.72272 6.32976 0
M  V30 26819 H 2461.45 -0.48899 7.54417 0
M  V30 26820 H 2462.72 -1.67619 7.61265 0
M  V30 26821 N 2466.95 -1.51228 0.443603 0
M  V30 26822 C 2467.88 -2.30784 -0.355102 0
M  V30 26823 C 2468.86 -1.3647 -1.01538 0
M  V30 26824 O 2470.04 -1.65391 -1.01782 0
M  V30 26825 C 2467.17 -3.15442 -1.45306 0
M  V30 26826 C 2466.13 -4.18085 -0.915929 0
M  V30 26827 C 2465.45 -4.91303 -2.11011 0
M  V30 26828 C 2466.75 -5.22272 0.053952 0
M  V30 26829 H 2468.45 -2.97803 0.308819 0
M  V30 26830 H 2465.99 -1.43217 0.149963 0
M  V30 26831 H 2467.95 -3.6988 -2.01908 0
M  V30 26832 H 2466.67 -2.46255 -2.14536 0
M  V30 26833 H 2465.33 -3.64707 -0.372081 0
M  V30 26834 H 2464.98 -4.18614 -2.78875 0
M  V30 26835 H 2464.68 -5.60715 -1.75707 0
M  V30 26836 H 2466.2 -5.48567 -2.68155 0
M  V30 26837 H 2467.62 -5.71745 -0.421969 0
M  V30 26838 H 2466.01 -5.99247 0.319881 0
M  V30 26839 H 2467.08 -4.74714 0.988663 0
M  V30 26840 N 2468.43 -0.175182 -1.56623 0
M  V30 26841 C 2469.67 0.471186 -1.98895 0
M  V30 26842 C 2470.03 1.60159 -1.05891 0
M  V30 26843 O 2471.23 2.31078 -1.37319 0
M  V30 26844 C 2469.5 0.938181 -3.44867 0
M  V30 26845 S 2471.06 1.58519 -4.09166 0
M  V30 26846 H 2467.88 0.151422 -0.694689 0
M  V30 26847 H 2470.48 -0.273554 -1.93577 0
M  V30 26848 H 2469.19 0.105108 -4.10265 0
M  V30 26849 H 2468.72 1.71687 -3.53959 0
M  V30 26850 H 2470.73 2.87345 -4.04533 0
M  V30 26851 N 2469.91 1.57292 0.0985263 0
M  V30 26852 C 2471.15 1.85099 0.801326 0
M  V30 26853 C 2471.47 0.763934 1.80065 0
M  V30 26854 O 2472.67 0.929026 2.5511 0
M  V30 26855 C 2471.13 3.28244 1.47593 0
M  V30 26856 C 2470.74 4.45012 0.516546 0
M  V30 26857 C 2472.48 3.6528 2.16266 0
M  V30 26858 C 2470.39 5.7919 1.19554 0
M  V30 26859 H 2469.32 0.690436 0.30301 0
M  V30 26860 H 2471.97 1.8342 0.0542301 0
M  V30 26861 H 2470.35 3.24454 2.27036 0
M  V30 26862 H 2471.53 4.60142 -0.246146 0
M  V30 26863 H 2469.84 4.1635 -0.0643001 0
M  V30 26864 H 2472.44 4.62807 2.67794 0
M  V30 26865 H 2472.78 2.93732 2.95003 0
M  V30 26866 H 2473.31 3.70943 1.43686 0
M  V30 26867 H 2470.05 6.5396 0.449042 0
M  V30 26868 H 2469.57 5.67909 1.92974 0
M  V30 26869 H 2471.25 6.23636 1.72299 0
M  V30 26870 N 2471.38 -0.369261 1.53213 0
M  V30 26871 C 2472.33 -1.45215 1.79391 0
M  V30 26872 C 2473.3 -1.53355 0.638086 0
M  V30 26873 O 2474.49 -1.69301 0.879882 0
M  V30 26874 C 2471.63 -2.82208 1.98628 0
M  V30 26875 C 2470.74 -2.83064 3.26342 0
M  V30 26876 C 2469.87 -4.11608 3.35786 0
M  V30 26877 C 2468.91 -4.06593 4.57547 0
M  V30 26878 N 2468.05 -5.26779 4.64164 0
M  V30 26879 H 2472.89 -1.22193 2.71796 0
M  V30 26880 H 2470.43 -0.592421 1.34643 0
M  V30 26881 H 2472.38 -3.61785 2.07767 0
M  V30 26882 H 2471.01 -3.03638 1.09563 0
M  V30 26883 H 2470.07 -1.95741 3.26174 0
M  V30 26884 H 2471.38 -2.7523 4.15993 0
M  V30 26885 H 2470.53 -4.996 3.44217 0
M  V30 26886 H 2469.27 -4.22191 2.44144 0
M  V30 26887 H 2468.28 -3.16988 4.4922 0
M  V30 26888 H 2469.5 -3.97615 5.50526 0
M  V30 26889 H 2467.45 -5.37954 3.75422 0
M  V30 26890 H 2467.36 -5.21099 5.47715 0
M  V30 26891 H 2468.63 -6.16613 4.76874 0
M  V30 26892 N 2472.86 -1.4451 -0.628851 0
M  V30 26893 C 2474.11 -1.46693 -1.38435 0
M  V30 26894 C 2474.42 -0.104306 -1.95322 0
M  V30 26895 O 2475.63 -0.00366935 -2.715 0
M  V30 26896 C 2474.09 -2.58265 -2.50654 0
M  V30 26897 C 2473.69 -4.00744 -2.0027 0
M  V30 26898 C 2475.44 -2.6967 -3.27839 0
M  V30 26899 C 2473.34 -5.03736 -3.09845 0
M  V30 26900 H 2472.27 -0.545775 -0.520236 0
M  V30 26901 H 2474.93 -1.70583 -0.676283 0
M  V30 26902 H 2473.31 -2.27618 -3.24046 0
M  V30 26903 H 2474.48 -4.40969 -1.33728 0
M  V30 26904 H 2472.8 -3.93601 -1.35894 0
M  V30 26905 H 2475.39 -3.43789 -4.09528 0
M  V30 26906 H 2475.74 -1.75566 -3.77468 0
M  V30 26907 H 2476.27 -2.99738 -2.61538 0
M  V30 26908 H 2473.01 -5.99476 -2.65157 0
M  V30 26909 H 2472.53 -4.68101 -3.75022 0
M  V30 26910 H 2474.21 -5.27538 -3.74583 0
M  V30 26911 N 2474.34 0.869463 -1.31446 0
M  V30 26912 C 2475.27 1.99259 -1.2173 0
M  V30 26913 C 2476.25 1.69779 -0.104389 0
M  V30 26914 O 2477.44 1.92036 -0.289072 0
M  V30 26915 C 2474.57 3.34772 -0.924376 0
M  V30 26916 C 2473.52 3.78559 -1.99692 0
M  V30 26917 C 2472.85 5.11539 -1.55667 0
M  V30 26918 C 2474.15 3.95613 -3.4101 0
M  V30 26919 H 2475.84 2.07645 -2.15694 0
M  V30 26920 H 2473.39 0.997657 -1.0384 0
M  V30 26921 H 2475.34 4.12882 -0.843006 0
M  V30 26922 H 2474.06 3.2656 0.0509219 0
M  V30 26923 H 2472.72 3.02691 -2.06819 0
M  V30 26924 H 2472.37 4.99769 -0.569219 0
M  V30 26925 H 2472.07 5.41807 -2.27419 0
M  V30 26926 H 2473.59 5.92157 -1.48939 0
M  V30 26927 H 2475.01 4.64116 -3.36555 0
M  V30 26928 H 2473.4 4.37279 -4.10983 0
M  V30 26929 H 2474.47 2.98979 -3.81759 0
M  V30 26930 N 2475.82 1.14415 1.08383 0
M  V30 26931 C 2476.75 0.789073 2.15189 0
M  V30 26932 C 2477.76 -0.194141 1.61638 0
M  V30 26933 O 2478.95 0.0276024 1.78479 0
M  V30 26934 C 2476.05 0.150639 3.38565 0
M  V30 26935 C 2475.22 1.16864 4.21499 0
M  V30 26936 C 2474.28 0.553924 5.23276 0
M  V30 26937 O 2473.31 1.21695 5.56039 0
M  V30 26938 N 2474.51 -0.669194 5.7663 0
M  V30 26939 H 2477.28 1.70819 2.46254 0
M  V30 26940 H 2474.84 1.0386 1.24196 0
M  V30 26941 H 2476.83 -0.27311 4.03777 0
M  V30 26942 H 2475.4 -0.671614 3.053 0
M  V30 26943 H 2474.62 1.76932 3.52262 0
M  V30 26944 H 2475.91 1.85632 4.73728 0
M  V30 26945 H 2475.31 -1.22644 5.52245 0
M  V30 26946 H 2473.86 -1.03545 6.43523 0
M  V30 26947 N 2477.3 -1.26549 0.939309 0
M  V30 26948 C 2478.52 -1.97931 0.602571 0
M  V30 26949 C 2478.94 -1.69965 -0.82203 0
M  V30 26950 O 2478.3 -0.966811 -1.54787 0
M  V30 26951 C 2478.35 -3.51772 0.833008 0
M  V30 26952 O 2478.07 -3.78764 2.20158 0
M  V30 26953 C 2479.57 -4.40396 0.50656 0
M  V30 26954 H 2476.79 -0.631343 0.227259 0
M  V30 26955 H 2479.33 -1.61111 1.2595 0
M  V30 26956 H 2477.49 -3.86759 0.222712 0
M  V30 26957 H 2477.9 -4.73302 2.26022 0
M  V30 26958 H 2479.38 -5.47305 0.718429 0
M  V30 26959 H 2479.85 -4.35636 -0.558375 0
M  V30 26960 H 2480.46 -4.10949 1.0955 0
M  V30 26961 N 2478.77 -0.706118 -1.40896 0
M  V30 26962 C 2479.7 -0.0620496 -2.33418 0
M  V30 26963 C 2480.68 0.755801 -1.52387 0
M  V30 26964 O 2481.87 0.706642 -1.80887 0
M  V30 26965 C 2479 0.867386 -3.36294 0
M  V30 26966 C 2477.95 0.155857 -4.27716 0
M  V30 26967 C 2477.28 1.20037 -5.21052 0
M  V30 26968 C 2478.58 -0.984239 -5.12943 0
M  V30 26969 H 2480.27 -0.834821 -2.87526 0
M  V30 26970 H 2477.82 -0.4029 -1.38249 0
M  V30 26971 H 2479.77 1.32728 -3.99952 0
M  V30 26972 H 2478.5 1.67194 -2.80559 0
M  V30 26973 H 2477.16 -0.284111 -3.65497 0
M  V30 26974 H 2476.8 1.99773 -4.61627 0
M  V30 26975 H 2476.5 0.729226 -5.83058 0
M  V30 26976 H 2478.03 1.66055 -5.87587 0
M  V30 26977 H 2479.44 -0.604148 -5.70108 0
M  V30 26978 H 2477.84 -1.38314 -5.83943 0
M  V30 26979 H 2478.91 -1.81918 -4.49482 0
M  V30 26980 N 2480.25 1.50991 -0.451617 0
M  V30 26981 C 2481.67 1.59256 -0.104675 0
M  V30 26982 C 2481.87 1.46142 1.38725 0
M  V30 26983 O 2480.92 1.30993 2.15863 0
M  V30 26984 C 2482.24 2.93864 -0.63752 0
M  V30 26985 C 2483.78 3.07211 -0.59922 0
M  V30 26986 C 2484.26 4.44364 -1.10928 0
M  V30 26987 N 2485.75 4.50723 -1.06786 0
M  V30 26988 C 2486.49 5.55199 -1.43324 0
M  V30 26989 N 2485.98 6.67025 -1.87216 0
M  V30 26990 N 2487.77 5.45635 -1.3505 0
M  V30 26991 H 2479.93 1.57759 -1.42217 0
M  V30 26992 H 2482.19 0.744454 -0.586934 0
M  V30 26993 H 2481.89 3.08876 -1.68192 0
M  V30 26994 H 2481.77 3.77135 -0.0702802 0
M  V30 26995 H 2484.16 2.91858 0.436226 0
M  V30 26996 H 2484.24 2.25745 -1.20303 0
M  V30 26997 H 2483.88 4.60464 -2.14326 0
M  V30 26998 H 2483.81 5.24391 -0.481865 0
M  V30 26999 H 2486.3 3.70469 -0.745708 0
M  V30 27000 H 2486.61 7.42782 -2.13295 0
M  V30 27001 H 2484.96 6.68195 -1.91154 0
M  V30 27002 H 2488.15 4.57159 -1.00615 0
M  V30 27003 H 2488.32 6.26942 -1.63852 0
M  V30 27004 N 2481.73 0.183486 1.56528 0
M  V30 27005 C 2482.64 -0.754233 2.22145 0
M  V30 27006 C 2483.66 -1.24372 1.21687 0
M  V30 27007 O 2484.83 -1.29331 1.54388 0
M  V30 27008 C 2481.9 -1.96136 2.85887 0
M  V30 27009 C 2480.96 -1.51758 4.01582 0
M  V30 27010 C 2480.19 -2.66717 4.62275 0
M  V30 27011 O 2480.41 -3.83902 4.21872 0
M  V30 27012 O 2479.35 -2.40094 5.5194 0
M  V30 27013 H 2483.17 -0.225473 3.02862 0
M  V30 27014 H 2480.76 -0.045277 1.49331 0
M  V30 27015 H 2482.64 -2.6671 3.26257 0
M  V30 27016 H 2481.32 -2.47895 2.08158 0
M  V30 27017 H 2480.22 -0.780985 3.65857 0
M  V30 27018 H 2481.56 -1.04678 4.8094 0
M  V30 27019 N 2483.21 -1.57342 -0.0901833 0
M  V30 27020 C 2484.14 -1.97666 -1.14032 0
M  V30 27021 C 2485.12 -0.850641 -1.38574 0
M  V30 27022 O 2486.3 -1.11136 -1.52253 0
M  V30 27023 C 2483.43 -2.29764 -2.4885 0
M  V30 27024 C 2482.48 -3.52185 -2.40557 0
M  V30 27025 S 2483.31 -5.03718 -1.81736 0
M  V30 27026 C 2484.46 -5.38998 -3.18169 0
M  V30 27027 H 2484.7 -2.86429 -0.796586 0
M  V30 27028 H 2482.23 -1.51496 -0.298046 0
M  V30 27029 H 2484.19 -2.48933 -3.26409 0
M  V30 27030 H 2482.85 -1.41563 -2.8039 0
M  V30 27031 H 2482.04 -3.72102 -3.39936 0
M  V30 27032 H 2481.64 -3.32552 -1.71129 0
M  V30 27033 H 2483.94 -5.35944 -4.14452 0
M  V30 27034 H 2484.88 -6.39973 -3.03051 0
M  V30 27035 H 2485.29 -4.66458 -3.17927 0
M  V30 27036 N 2484.69 0.36113 -1.53407 0
M  V30 27037 C 2485.62 1.44853 -1.83139 0
M  V30 27038 C 2486.6 1.55689 -0.685201 0
M  V30 27039 O 2487.78 1.70184 -0.93547 0
M  V30 27040 C 2484.91 2.82135 -2.02527 0
M  V30 27041 C 2483.87 2.8612 -3.18307 0
M  V30 27042 C 2483.19 4.26119 -3.22996 0
M  V30 27043 C 2484.49 2.5324 -4.56801 0
M  V30 27044 H 2486.19 1.20221 -2.74203 0
M  V30 27045 H 2483.73 0.576899 -1.31939 0
M  V30 27046 H 2485.69 3.58237 -2.2191 0
M  V30 27047 H 2484.41 3.08164 -1.08177 0
M  V30 27048 H 2483.07 2.12469 -2.98751 0
M  V30 27049 H 2482.72 4.49231 -2.26275 0
M  V30 27050 H 2482.42 4.29701 -4.00788 0
M  V30 27051 H 2483.94 5.04088 -3.44568 0
M  V30 27052 H 2485.35 3.19056 -4.76315 0
M  V30 27053 H 2483.75 2.68131 -5.36866 0
M  V30 27054 H 2484.82 1.48476 -4.61609 0
M  V30 27055 N 2486.16 1.44842 0.621179 0
M  V30 27056 C 2487.07 1.54983 1.76117 0
M  V30 27057 C 2488.09 0.434957 1.68476 0
M  V30 27058 O 2489.27 0.693726 1.89075 0
M  V30 27059 C 2486.33 1.5007 3.12538 0
M  V30 27060 C 2485.39 2.72488 3.31736 0
M  V30 27061 C 2484.63 2.678 4.61648 0
M  V30 27062 O 2484.85 1.74361 5.43097 0
M  V30 27063 O 2483.78 3.58802 4.83265 0
M  V30 27064 H 2487.61 2.51314 1.70514 0
M  V30 27065 H 2485.19 1.272 0.783621 0
M  V30 27066 H 2487.08 1.49889 3.93842 0
M  V30 27067 H 2485.75 0.568862 3.18662 0
M  V30 27068 H 2484.66 2.78235 2.50072 0
M  V30 27069 H 2485.99 3.64752 3.3048 0
M  V30 27070 N 2487.64 -0.862479 1.31905 0
M  V30 27071 C 2488.59 -1.97038 1.20186 0
M  V30 27072 C 2489.56 -1.65878 0.0858539 0
M  V30 27073 O 2490.74 -1.8902 0.260033 0
M  V30 27074 C 2487.88 -3.32532 0.922855 0
M  V30 27075 C 2487 -3.7624 2.1229 0
M  V30 27076 C 2486.13 -5.00487 1.78005 0
M  V30 27077 C 2485.17 -5.36665 2.94375 0
M  V30 27078 N 2484.31 -6.52091 2.60235 0
M  V30 27079 H 2489.15 -2.06394 2.14954 0
M  V30 27080 H 2486.69 -1.01029 1.06918 0
M  V30 27081 H 2488.64 -4.10556 0.74162 0
M  V30 27082 H 2487.27 -3.22798 0.0119794 0
M  V30 27083 H 2486.33 -2.93935 2.41467 0
M  V30 27084 H 2487.64 -3.98977 2.99364 0
M  V30 27085 H 2486.79 -5.86198 1.56388 0
M  V30 27086 H 2485.53 -4.7967 0.881336 0
M  V30 27087 H 2484.54 -4.49471 3.16633 0
M  V30 27088 H 2485.76 -5.59444 3.84967 0
M  V30 27089 H 2483.71 -6.32806 1.72896 0
M  V30 27090 H 2483.62 -6.74808 3.40838 0
M  V30 27091 H 2484.89 -7.40974 2.42029 0
M  V30 27092 N 2489.12 -1.14988 -1.07775 0
M  V30 27093 C 2490.07 -0.842709 -2.14865 0
M  V30 27094 C 2491.04 0.202523 -1.64861 0
M  V30 27095 O 2492.22 0.0710233 -1.90668 0
M  V30 27096 C 2489.36 -0.333423 -3.43486 0
M  V30 27097 C 2488.48 -1.43972 -4.07304 0
M  V30 27098 C 2487.61 -0.887006 -5.23742 0
M  V30 27099 C 2486.65 -1.97053 -5.79514 0
M  V30 27100 N 2485.79 -1.43452 -6.87289 0
M  V30 27101 H 2490.63 -1.7599 -2.40482 0
M  V30 27102 H 2488.16 -0.8782 -1.18009 0
M  V30 27103 H 2490.12 -0.0198897 -4.17195 0
M  V30 27104 H 2488.75 0.546861 -3.18134 0
M  V30 27105 H 2487.8 -1.86952 -3.3129 0
M  V30 27106 H 2489.12 -2.25796 -4.44767 0
M  V30 27107 H 2488.27 -0.525758 -6.04418 0
M  V30 27108 H 2487.01 -0.0378814 -4.87685 0
M  V30 27109 H 2486.01 -2.34066 -4.97487 0
M  V30 27110 H 2487.24 -2.82336 -6.17627 0
M  V30 27111 H 2485.18 -0.607682 -6.53179 0
M  V30 27112 H 2485.1 -2.18908 -7.23613 0
M  V30 27113 H 2486.37 -1.10138 -7.7168 0
M  V30 27114 N 2490.6 1.26049 -0.946007 0
M  V30 27115 C 2491.88 1.8873 -0.513849 0
M  V30 27116 C 2492.26 1.85442 1.00869 0
M  V30 27117 O 2491.6 1.31203 1.87077 0
M  V30 27118 C 2491.81 3.31847 -1.08067 0
M  V30 27119 C 2493.16 4.08666 -1.15227 0
M  V30 27120 O 2494.19 3.40935 -1.03161 0
M  V30 27121 O 2493.04 5.29804 -1.34054 0
M  V30 27122 H 2490.14 0.809713 -0.168207 0
M  V30 27123 H 2492.68 1.34184 -1.03888 0
M  V30 27124 H 2491.46 3.28626 -2.12416 0
M  V30 27125 H 2491.08 3.93938 -0.538376 0
M  V30 27126 N 2492.08 0.71358 1.4052 0
M  V30 27127 C 2493.3 0.260386 2.05759 0
M  V30 27128 C 2493.73 -1.08851 1.53405 0
M  V30 27129 O 2493.08 -1.68523 0.668565 0
M  V30 27130 C 2493.13 0.248185 3.59745 0
M  V30 27131 O 2492.24 -0.771239 4.05124 0
M  V30 27132 H 2491.58 0.122715 0.652562 0
M  V30 27133 H 2494.11 0.973499 1.79956 0
M  V30 27134 H 2494.12 0.0851846 4.07911 0
M  V30 27135 H 2492.79 1.23256 3.97216 0
M  V30 27136 H 2491.37 -0.576125 3.68423 0
M  V30 27137 N 2493.55 -1.50749 0.459618 0
M  V30 27138 C 2494.8 -2.02256 -0.0993139 0
M  V30 27139 C 2495.13 -1.34239 -1.40748 0
M  V30 27140 O 2494.38 -0.453261 -1.90379 0
M  V30 27141 C 2494.68 -3.55752 -0.342803 0
M  V30 27142 C 2494.35 -4.42184 0.882257 0
M  V30 27143 C 2493.01 -4.65526 1.21816 0
M  V30 27144 C 2495.36 -4.92749 1.69846 0
M  V30 27145 C 2492.69 -5.36677 2.37054 0
M  V30 27146 C 2495.04 -5.65166 2.84202 0
M  V30 27147 C 2493.71 -5.86764 3.1822 0
M  V30 27148 H 2492.98 -0.740108 -0.0363415 0
M  V30 27149 H 2495.62 -1.81479 0.611361 0
M  V30 27150 H 2493.93 -3.74982 -1.13561 0
M  V30 27151 H 2495.63 -3.9316 -0.789052 0
M  V30 27152 H 2492.22 -4.24229 0.610542 0
M  V30 27153 H 2496.4 -4.74581 1.45213 0
M  V30 27154 H 2491.66 -5.51609 2.63699 0
M  V30 27155 H 2495.83 -6.03331 3.478 0
M  V30 27156 H 2493.46 -6.41675 4.07624 0
M  V30 27157 N 2495.03 -0.191784 -1.56429 0
M  V30 27158 C 2496.28 0.448519 -1.97778 0
M  V30 27159 C 2496.61 1.61499 -1.0785 0
M  V30 27160 O 2495.89 1.94066 -0.129808 0
M  V30 27161 C 2496.17 0.911845 -3.48364 0
M  V30 27162 C 2496.02 -0.256215 -4.4907 0
M  V30 27163 C 2497.34 1.77849 -4.02564 0
M  V30 27164 H 2494.46 0.16156 -0.719074 0
M  V30 27165 H 2497.1 -0.28204 -1.87895 0
M  V30 27166 H 2495.25 1.53436 -3.56917 0
M  V30 27167 H 2496.92 -0.893812 -4.52558 0
M  V30 27168 H 2495.17 -0.90851 -4.2418 0
M  V30 27169 H 2495.84 0.110433 -5.5189 0
M  V30 27170 H 2498.31 1.25352 -3.9677 0
M  V30 27171 H 2497.19 2.07165 -5.08305 0
M  V30 27172 H 2497.45 2.73152 -3.47621 0
M  V30 27173 N 2496.51 1.57387 0.0818378 0
M  V30 27174 C 2497.42 2.06335 1.11639 0
M  V30 27175 C 2498.44 0.990856 1.43032 0
M  V30 27176 O 2499.61 1.3049 1.53409 0
M  V30 27177 C 2496.68 2.48911 2.41338 0
M  V30 27178 C 2495.74 3.70414 2.17007 0
M  V30 27179 C 2494.97 4.1095 3.40522 0
M  V30 27180 O 2495.19 3.51452 4.49263 0
M  V30 27181 O 2494.13 5.03813 3.29327 0
M  V30 27182 H 2497.95 2.94781 0.730605 0
M  V30 27183 H 2495.54 1.46453 0.295276 0
M  V30 27184 H 2497.42 2.76864 3.17686 0
M  V30 27185 H 2496.1 1.63598 2.79316 0
M  V30 27186 H 2495 3.47559 1.38397 0
M  V30 27187 H 2496.34 4.56548 1.83915 0
M  V30 27188 N 2497.99 -0.35299 1.53596 0
M  V30 27189 C 2498.9 -1.45664 1.839 0
M  V30 27190 C 2499.91 -1.58022 0.728362 0
M  V30 27191 O 2501.09 -1.73677 1.01971 0
M  V30 27192 C 2498.16 -2.80775 2.03388 0
M  V30 27193 C 2497.22 -2.77839 3.27267 0
M  V30 27194 C 2496.45 -4.06506 3.45816 0
M  V30 27195 O 2496.67 -5.03309 2.68396 0
M  V30 27196 O 2495.61 -4.11551 4.39214 0
M  V30 27197 H 2499.43 -1.22975 2.77688 0
M  V30 27198 H 2497.02 -0.544283 1.39133 0
M  V30 27199 H 2498.9 -3.60808 2.17705 0
M  V30 27200 H 2497.57 -3.03415 1.12789 0
M  V30 27201 H 2496.48 -1.9646 3.18362 0
M  V30 27202 H 2497.81 -2.60154 4.17829 0
M  V30 27203 N 2499.47 -1.45169 -0.613489 0
M  V30 27204 C 2500.72 -1.48583 -1.36994 0
M  V30 27205 C 2501.04 -0.126579 -1.94589 0
M  V30 27206 O 2500.31 0.843341 -1.76818 0
M  V30 27207 H 2498.89 -0.547163 -0.508549 0
M  V30 27208 H 2501.55 -1.81081 -0.720821 0
M  V30 27209 H 2500.64 -2.22131 -2.19236 0
M  V30 27210 N 2500.95 0.855472 -1.32361 0
M  V30 27211 C 2501.89 1.98538 -1.21183 0
M  V30 27212 C 2502.89 1.68997 -0.116818 0
M  V30 27213 O 2504.09 1.77814 -0.279688 0
M  V30 27214 H 2500.47 0.651471 -0.375619 0
M  V30 27215 H 2502.44 2.05094 -2.16747 0
M  V30 27216 C 2501.19 3.34444 -0.950908 0
M  V30 27217 H 2500.51 3.57705 -1.7857 0
M  V30 27218 H 2501.95 4.14055 -0.912936 0
M  V30 27219 C 2500.41 3.35115 0.346346 0
M  V30 27220 O 2500.94 3.78032 1.35848 0
M  V30 27221 N 2499.15 2.8826 0.368029 0
M  V30 27222 H 2498.69 2.53529 -0.456147 0
M  V30 27223 H 2498.65 2.89091 1.23586 0
M  V30 27224 N 2502.42 1.15558 1.07164 0
M  V30 27225 C 2503.65 0.955551 1.83512 0
M  V30 27226 C 2504.07 -0.496178 1.82163 0
M  V30 27227 O 2503.42 -1.34417 1.23443 0
M  V30 27228 C 2503.47 1.46438 3.30512 0
M  V30 27229 O 2503.2 2.85924 3.31932 0
M  V30 27230 C 2504.7 1.3061 4.23622 0
M  V30 27231 H 2501.92 0.339254 0.57892 0
M  V30 27232 H 2504.46 1.53376 1.35263 0
M  V30 27233 H 2502.62 0.92865 3.76105 0
M  V30 27234 H 2503.03 3.09036 4.23789 0
M  V30 27235 H 2504.5 1.71056 5.24828 0
M  V30 27236 H 2504.98 0.250518 4.38485 0
M  V30 27237 H 2505.59 1.83101 3.83867 0
M  V30 27238 N 2503.9 -1.25546 0.952678 0
M  V30 27239 C 2504.83 -2.28315 0.489327 0
M  V30 27240 C 2505.81 -1.63668 -0.46333 0
M  V30 27241 O 2507 -1.90783 -0.362707 0
M  V30 27242 C 2504.13 -3.465 -0.235542 0
M  V30 27243 C 2503.08 -4.23313 0.631668 0
M  V30 27244 C 2502.41 -5.34231 -0.223829 0
M  V30 27245 C 2503.71 -4.86171 1.9088 0
M  V30 27246 H 2505.4 -2.67324 1.34827 0
M  V30 27247 H 2502.95 -1.28508 0.64975 0
M  V30 27248 H 2504.9 -4.17516 -0.570809 0
M  V30 27249 H 2503.62 -3.06476 -1.12871 0
M  V30 27250 H 2502.28 -3.54077 0.949991 0
M  V30 27251 H 2501.93 -4.90448 -1.1167 0
M  V30 27252 H 2501.63 -5.86538 0.353094 0
M  V30 27253 H 2503.16 -6.08081 -0.554107 0
M  V30 27254 H 2504.57 -5.4934 1.64006 0
M  V30 27255 H 2502.97 -5.48645 2.43122 0
M  V30 27256 H 2504.04 -4.08466 2.61311 0
M  V30 27257 N 2505.38 -0.721022 -1.40139 0
M  V30 27258 C 2506.8 -0.39514 -1.54631 0
M  V30 27259 C 2507 1.09552 -1.69117 0
M  V30 27260 O 2506.05 1.8816 -1.68381 0
M  V30 27261 C 2507.36 -1.16595 -2.77175 0
M  V30 27262 C 2508.91 -1.15279 -2.90998 0
M  V30 27263 C 2509.39 -1.90587 -4.16462 0
M  V30 27264 N 2510.88 -1.87683 -4.23473 0
M  V30 27265 C 2511.61 -2.42771 -5.1947 0
M  V30 27266 N 2511.11 -3.06439 -6.21343 0
M  V30 27267 N 2512.9 -2.32883 -5.11588 0
M  V30 27268 H 2505.05 -1.68752 -1.28983 0
M  V30 27269 H 2507.32 -0.713578 -0.624108 0
M  V30 27270 H 2507.02 -2.22016 -2.72767 0
M  V30 27271 H 2506.9 -0.761145 -3.69441 0
M  V30 27272 H 2509.28 -0.106754 -2.94907 0
M  V30 27273 H 2509.36 -1.59686 -1.99835 0
M  V30 27274 H 2509.01 -2.95184 -4.13315 0
M  V30 27275 H 2508.94 -1.43596 -5.06644 0
M  V30 27276 H 2511.43 -1.41287 -3.50494 0
M  V30 27277 H 2511.74 -3.45977 -6.91028 0
M  V30 27278 H 2510.09 -3.10525 -6.21771 0
M  V30 27279 H 2513.28 -1.82797 -4.30933 0
M  V30 27280 H 2513.45 -2.76116 -5.86228 0
M  V30 27281 N 2506.86 1.50503 -0.467606 0
M  V30 27282 C 2507.8 2.28452 0.328373 0
M  V30 27283 C 2508.77 1.33351 0.990289 0
M  V30 27284 O 2509.96 1.62286 1.0034 0
M  V30 27285 C 2507.1 3.15141 1.40643 0
M  V30 27286 C 2506.21 4.25269 0.759634 0
M  V30 27287 C 2505.35 4.9922 1.81529 0
M  V30 27288 C 2504.39 6.01228 1.14855 0
M  V30 27289 N 2503.52 6.6847 2.1469 0
M  V30 27290 H 2508.36 2.96023 -0.342655 0
M  V30 27291 H 2505.9 1.45984 -0.180827 0
M  V30 27292 H 2507.86 3.6375 2.04308 0
M  V30 27293 H 2506.49 2.49623 2.04667 0
M  V30 27294 H 2505.54 3.80399 0.0105002 0
M  V30 27295 H 2506.85 4.98255 0.233155 0
M  V30 27296 H 2506.01 5.5153 2.52783 0
M  V30 27297 H 2504.75 4.25932 2.37556 0
M  V30 27298 H 2503.75 5.48181 0.421614 0
M  V30 27299 H 2504.98 6.76487 0.595216 0
M  V30 27300 H 2502.92 5.97976 2.69741 0
M  V30 27301 H 2502.84 7.3732 1.67017 0
M  V30 27302 H 2504.11 7.25399 2.85336 0
M  V30 27303 N 2508.34 0.200077 1.56325 0
M  V30 27304 C 2509.58 -0.437618 1.96895 0
M  V30 27305 C 2509.9 -1.62413 1.09002 0
M  V30 27306 O 2511.1 -2.32995 1.39376 0
M  V30 27307 C 2509.56 -0.829963 3.50199 0
M  V30 27308 C 2509.17 0.33254 4.46764 0
M  V30 27309 C 2510.91 -1.43446 3.99529 0
M  V30 27310 C 2508.82 -0.0810429 5.91344 0
M  V30 27311 H 2507.75 -0.167269 0.735212 0
M  V30 27312 H 2510.4 0.292885 1.81148 0
M  V30 27313 H 2508.78 -1.61728 3.61469 0
M  V30 27314 H 2509.96 1.11008 4.47229 0
M  V30 27315 H 2508.27 0.84886 4.07656 0
M  V30 27316 H 2510.87 -1.75643 5.05028 0
M  V30 27317 H 2511.21 -2.34271 3.44126 0
M  V30 27318 H 2511.74 -0.711021 3.91394 0
M  V30 27319 H 2508.48 0.793147 6.50684 0
M  V30 27320 H 2508 -0.823341 5.94122 0
M  V30 27321 H 2509.68 -0.515139 6.44946 0
M  V30 27322 N 2509.81 -1.57429 -0.0734901 0
M  V30 27323 C 2510.74 -2.0661 -1.08787 0
M  V30 27324 C 2511.72 -0.959261 -1.40471 0
M  V30 27325 O 2512.91 -1.23188 -1.50128 0
M  V30 27326 C 2510.04 -2.50861 -2.40179 0
M  V30 27327 C 2508.99 -3.65406 -2.22851 0
M  V30 27328 C 2508.32 -3.95706 -3.59612 0
M  V30 27329 C 2509.62 -4.95514 -1.65115 0
M  V30 27330 H 2511.31 -2.91608 -0.678622 0
M  V30 27331 H 2508.86 -1.40285 -0.324989 0
M  V30 27332 H 2510.81 -2.8388 -3.11432 0
M  V30 27333 H 2509.54 -1.6289 -2.8308 0
M  V30 27334 H 2508.2 -3.32667 -1.54039 0
M  V30 27335 H 2507.84 -3.04869 -4.0008 0
M  V30 27336 H 2507.54 -4.72834 -3.48857 0
M  V30 27337 H 2509.07 -4.3122 -4.32299 0
M  V30 27338 H 2510.48 -5.26775 -2.26232 0
M  V30 27339 H 2508.88 -5.76953 -1.65061 0
M  V30 27340 H 2509.95 -4.81016 -0.612474 0
M  V30 27341 N 2511.29 0.344839 -1.53781 0
M  V30 27342 C 2512.22 1.42903 -1.84665 0
M  V30 27343 C 2513.2 1.54953 -0.701675 0
M  V30 27344 O 2514.39 1.69182 -0.953467 0
M  V30 27345 C 2511.52 2.79971 -2.05508 0
M  V30 27346 C 2510.47 2.82728 -3.21323 0
M  V30 27347 C 2509.8 4.22669 -3.27498 0
M  V30 27348 C 2511.1 2.48381 -4.59461 0
M  V30 27349 H 2512.79 1.17306 -2.75463 0
M  V30 27350 H 2510.34 0.562872 -1.32543 0
M  V30 27351 H 2512.29 3.55863 -2.25697 0
M  V30 27352 H 2511.01 3.07 -1.1144 0
M  V30 27353 H 2509.67 2.09289 -3.00988 0
M  V30 27354 H 2509.32 4.46806 -2.31027 0
M  V30 27355 H 2509.02 4.25426 -4.05323 0
M  V30 27356 H 2510.55 5.00405 -3.49895 0
M  V30 27357 H 2511.96 3.13986 -4.79672 0
M  V30 27358 H 2510.36 2.62422 -5.3968 0
M  V30 27359 H 2511.43 1.43572 -4.63158 0
M  V30 27360 N 2512.77 1.45492 0.605781 0
M  V30 27361 C 2513.72 1.54639 1.73752 0
M  V30 27362 C 2514.71 0.416248 1.64206 0
M  V30 27363 O 2515.92 0.592229 1.69978 0
M  V30 27364 H 2512.29 0.485751 0.574064 0
M  V30 27365 H 2514.26 2.4984 1.63165 0
M  V30 27366 C 2513.01 1.53195 3.12132 0
M  V30 27367 H 2512.34 2.39483 3.20137 0
M  V30 27368 H 2513.78 1.63652 3.91144 0
M  V30 27369 C 2512.23 0.256675 3.35921 0
M  V30 27370 O 2512.76 -0.662728 3.96195 0
M  V30 27371 N 2510.97 0.151802 2.90203 0
M  V30 27372 H 2510.52 0.900852 2.41335 0
M  V30 27373 H 2510.48 -0.700646 3.06494 0
M  V30 27374 N 2514.25 -0.848441 1.32813 0
M  V30 27375 C 2515.66 -1.13762 1.11939 0
M  V30 27376 C 2515.86 -2.01271 -0.0960435 0
M  V30 27377 O 2514.92 -2.40179 -0.779123 0
M  V30 27378 C 2516.23 -1.80895 2.40203 0
M  V30 27379 C 2517.78 -1.93504 2.46019 0
M  V30 27380 C 2518.26 -2.64052 3.7422 0
M  V30 27381 N 2519.75 -2.71572 3.75237 0
M  V30 27382 C 2520.48 -3.26825 4.7114 0
M  V30 27383 N 2519.98 -3.8284 5.77413 0
M  V30 27384 N 2521.77 -3.24987 4.58628 0
M  V30 27385 H 2513.92 -0.265818 2.1073 0
M  V30 27386 H 2516.19 -0.180415 0.930674 0
M  V30 27387 H 2515.89 -1.24052 3.29096 0
M  V30 27388 H 2515.77 -2.81 2.51632 0
M  V30 27389 H 2518.15 -2.49504 1.57582 0
M  V30 27390 H 2518.23 -0.923769 2.38538 0
M  V30 27391 H 2517.88 -2.08714 4.63035 0
M  V30 27392 H 2517.81 -3.6563 3.78975 0
M  V30 27393 H 2520.3 -2.3184 2.98427 0
M  V30 27394 H 2520.61 -4.23176 6.46639 0
M  V30 27395 H 2518.96 -3.81155 5.81159 0
M  V30 27396 H 2522.15 -2.80477 3.74767 0
M  V30 27397 H 2522.32 -3.67747 5.33541 0
M  V30 27398 N 2515.73 -1.16125 -1.06549 0
M  V30 27399 C 2516.96 -0.96387 -1.82738 0
M  V30 27400 C 2517.36 0.491196 -1.82713 0
M  V30 27401 O 2516.71 1.35263 -1.24296 0
M  V30 27402 C 2516.77 -1.41112 -3.30647 0
M  V30 27403 C 2516.43 -2.88556 -3.54379 0
M  V30 27404 C 2517.43 -3.86575 -3.47643 0
M  V30 27405 C 2515.12 -3.26415 -3.81784 0
M  V30 27406 C 2517.11 -5.20456 -3.67973 0
M  V30 27407 C 2514.8 -4.60466 -4.01764 0
M  V30 27408 C 2515.79 -5.57295 -3.94856 0
M  V30 27409 O 2515.48 -6.88923 -4.14294 0
M  V30 27410 H 2515.21 -0.341959 -0.58313 0
M  V30 27411 H 2517.77 -1.54499 -1.35348 0
M  V30 27412 H 2516 -0.773461 -3.78886 0
M  V30 27413 H 2517.69 -1.18157 -3.88322 0
M  V30 27414 H 2518.45 -3.58673 -3.26464 0
M  V30 27415 H 2514.33 -2.51626 -3.86271 0
M  V30 27416 H 2517.88 -5.96022 -3.62497 0
M  V30 27417 H 2513.77 -4.8808 -4.22432 0
M  V30 27418 H 2514.54 -6.95461 -4.31597 0
M  V30 27419 N 2517.2 1.25039 -0.959323 0
M  V30 27420 C 2518.45 1.92883 -0.616645 0
M  V30 27421 C 2518.78 1.75089 0.847006 0
M  V30 27422 O 2518.03 1.09242 1.62372 0
M  V30 27423 C 2518.33 3.45163 -0.927197 0
M  V30 27424 C 2518 3.83118 -2.37764 0
M  V30 27425 C 2516.66 3.93189 -2.77408 0
M  V30 27426 C 2519.01 4.01831 -3.31936 0
M  V30 27427 C 2516.34 4.19385 -4.10285 0
M  V30 27428 C 2518.69 4.2952 -4.6443 0
M  V30 27429 C 2517.36 4.37809 -5.03865 0
M  V30 27430 H 2516.63 0.705808 -0.225646 0
M  V30 27431 H 2519.27 1.48491 -1.20924 0
M  V30 27432 H 2517.58 3.90987 -0.252263 0
M  V30 27433 H 2519.28 3.95851 -0.640569 0
M  V30 27434 H 2515.87 3.75838 -2.0602 0
M  V30 27435 H 2520.05 3.9346 -3.02495 0
M  V30 27436 H 2515.31 4.24019 -4.40474 0
M  V30 27437 H 2519.48 4.42944 -5.37377 0
M  V30 27438 H 2517.11 4.5786 -6.06851 0
M  V30 27439 N 2518.68 0.728444 1.39755 0
M  V30 27440 C 2519.63 0.0841924 2.30646 0
M  V30 27441 C 2520.6 -0.736673 1.4887 0
M  V30 27442 O 2521.78 -0.697984 1.77575 0
M  V30 27443 C 2518.92 -0.822033 3.35167 0
M  V30 27444 C 2518.04 0.0107422 4.31999 0
M  V30 27445 C 2517.17 -0.896149 5.23586 0
M  V30 27446 C 2516.21 -0.0582305 6.12072 0
M  V30 27447 N 2515.35 -0.920696 6.96037 0
M  V30 27448 H 2520.19 0.864941 2.85171 0
M  V30 27449 H 2517.73 0.438203 1.40421 0
M  V30 27450 H 2519.68 -1.36182 3.94348 0
M  V30 27451 H 2518.31 -1.56883 2.82113 0
M  V30 27452 H 2517.37 0.667875 3.74491 0
M  V30 27453 H 2518.68 0.658912 4.94429 0
M  V30 27454 H 2517.83 -1.50402 5.87762 0
M  V30 27455 H 2516.57 -1.57811 4.61462 0
M  V30 27456 H 2515.58 0.562486 5.46915 0
M  V30 27457 H 2516.8 0.620419 6.7626 0
M  V30 27458 H 2514.75 -1.58807 6.36487 0
M  V30 27459 H 2514.66 -0.328857 7.55284 0
M  V30 27460 H 2515.93 -1.51434 7.64649 0
M  V30 27461 N 2520.16 -1.50253 0.475581 0
M  V30 27462 C 2521.41 -2.01951 -0.0777025 0
M  V30 27463 C 2521.73 -1.35934 -1.39811 0
M  V30 27464 O 2521 -0.506156 -1.89248 0
M  V30 27465 H 2519.58 -0.746327 -0.0317059 0
M  V30 27466 H 2522.24 -1.84538 0.627028 0
M  V30 27467 H 2521.34 -3.11281 -0.225941 0
M  V30 27468 N 2521.64 -0.208365 -1.56217 0
M  V30 27469 C 2522.92 0.475201 -1.8974 0
M  V30 27470 C 2523.3 1.78699 -1.12383 0
M  V30 27471 O 2522.64 2.27349 -0.229019 0
M  V30 27472 C 2522.85 0.68104 -3.42291 0
M  V30 27473 C 2524.2 0.994434 -4.12791 0
M  V30 27474 O 2525.23 0.768296 -3.47816 0
M  V30 27475 O 2524.08 1.4229 -5.27651 0
M  V30 27476 H 2521.18 0.249447 -0.788483 0
M  V30 27477 H 2523.72 -0.249568 -1.67855 0
M  V30 27478 H 2522.5 -0.244791 -3.90534 0
M  V30 27479 H 2522.12 1.45778 -3.69911 0
M  V30 27480 N 2523.12 1.57465 0.0651402 0
M  V30 27481 C 2524.35 1.91527 0.77465 0
M  V30 27482 C 2524.75 0.803227 1.71304 0
M  V30 27483 O 2524.1 -0.231849 1.82231 0
M  V30 27484 C 2524.16 3.21112 1.6164 0
M  V30 27485 C 2523.82 4.49088 0.846674 0
M  V30 27486 C 2524.82 5.19645 0.162933 0
M  V30 27487 C 2522.51 4.95695 0.811879 0
M  V30 27488 C 2524.5 6.35063 -0.545301 0
M  V30 27489 C 2522.19 6.11018 0.0998762 0
M  V30 27490 C 2523.18 6.80554 -0.577507 0
M  V30 27491 O 2522.87 7.93676 -1.27803 0
M  V30 27492 H 2522.6 0.63745 0.225019 0
M  V30 27493 H 2525.16 2.05365 0.0376773 0
M  V30 27494 H 2523.39 3.03501 2.39633 0
M  V30 27495 H 2525.08 3.40773 2.20519 0
M  V30 27496 H 2525.84 4.84662 0.181078 0
M  V30 27497 H 2521.72 4.4144 1.32859 0
M  V30 27498 H 2525.27 6.89274 -1.07458 0
M  V30 27499 H 2521.16 6.45451 0.0796811 0
M  V30 27500 H 2521.93 8.09833 -1.18798 0
M  V30 27501 N 2524.59 -0.336679 1.53962 0
M  V30 27502 C 2525.82 -1.10043 1.75799 0
M  V30 27503 C 2526.24 -1.8136 0.499017 0
M  V30 27504 O 2525.6 -1.72796 -0.548739 0
M  V30 27505 C 2525.65 -2.0843 2.9426 0
M  V30 27506 O 2524.75 -3.16082 2.64889 0
M  V30 27507 H 2524.1 -0.317924 0.582941 0
M  V30 27508 H 2526.63 -0.384975 2.00946 0
M  V30 27509 H 2526.64 -2.51531 3.21241 0
M  V30 27510 H 2525.31 -1.55921 3.85567 0
M  V30 27511 H 2523.89 -2.77749 2.48817 0
M  V30 27512 N 2526.07 -1.45812 -0.598057 0
M  V30 27513 C 2527.32 -1.49596 -1.35292 0
M  V30 27514 C 2527.63 -0.145713 -1.95056 0
M  V30 27515 O 2528.84 -0.0612576 -2.71431 0
M  V30 27516 C 2527.3 -2.63523 -2.45119 0
M  V30 27517 C 2526.9 -4.04902 -1.91725 0
M  V30 27518 C 2528.65 -2.76563 -3.22045 0
M  V30 27519 C 2526.56 -5.10195 -2.99091 0
M  V30 27520 H 2525.49 -0.556687 -0.508542 0
M  V30 27521 H 2528.14 -1.71979 -0.639947 0
M  V30 27522 H 2526.52 -2.3444 -3.19145 0
M  V30 27523 H 2527.69 -4.43706 -1.24344 0
M  V30 27524 H 2526.01 -3.96395 -1.27515 0
M  V30 27525 H 2528.6 -3.52398 -4.02144 0
M  V30 27526 H 2528.95 -1.83533 -3.73659 0
M  V30 27527 H 2529.48 -3.05218 -2.55121 0
M  V30 27528 H 2526.22 -6.04966 -2.52382 0
M  V30 27529 H 2525.74 -4.75951 -3.65008 0
M  V30 27530 H 2527.42 -5.35365 -3.63309 0
M  V30 27531 N 2527.55 0.841385 -1.33261 0
M  V30 27532 C 2528.8 1.59332 -1.24329 0
M  V30 27533 C 2529.12 1.94057 0.19153 0
M  V30 27534 O 2528.39 1.60751 1.11964 0
M  V30 27535 H 2526.97 0.590755 -0.457184 0
M  V30 27536 H 2529.63 1.00569 -1.66949 0
M  V30 27537 H 2528.73 2.52439 -1.83524 0
M  V30 27538 N 2529.03 1.16688 1.05932 0
M  V30 27539 C 2530.28 0.952062 1.79063 0
M  V30 27540 C 2530.61 -0.518597 1.87148 0
M  V30 27541 O 2529.88 -1.38481 1.36577 0
M  V30 27542 C 2530.17 1.58469 3.23357 0
M  V30 27543 C 2530.02 3.12694 3.2333 0
M  V30 27544 C 2531.34 1.2824 4.21002 0
M  V30 27545 H 2528.46 0.347292 0.650044 0
M  V30 27546 H 2531.1 1.44074 1.23866 0
M  V30 27547 H 2529.25 1.16915 3.7049 0
M  V30 27548 H 2530.92 3.63255 2.84329 0
M  V30 27549 H 2529.16 3.45834 2.6188 0
M  V30 27550 H 2529.84 3.52082 4.25138 0
M  V30 27551 H 2532.31 1.6421 3.82327 0
M  V30 27552 H 2531.19 1.75101 5.20222 0
M  V30 27553 H 2531.45 0.201869 4.41639 0
M  V30 27554 N 2530.51 -1.24529 0.96594 0
M  V30 27555 C 2531.46 -2.27454 0.486546 0
M  V30 27556 C 2532.45 -1.63341 -0.449012 0
M  V30 27557 O 2533.66 -1.77051 -0.324496 0
M  V30 27558 H 2530.03 -0.739066 0.13887 0
M  V30 27559 H 2532 -2.65265 1.36664 0
M  V30 27560 C 2530.75 -3.47069 -0.20942 0
M  V30 27561 H 2530.07 -3.96644 0.501359 0
M  V30 27562 H 2531.51 -4.20937 -0.508701 0
M  V30 27563 C 2529.97 -3.04773 -1.4358 0
M  V30 27564 O 2530.5 -3.11778 -2.53293 0
M  V30 27565 N 2528.71 -2.5984 -1.30121 0
M  V30 27566 H 2528.26 -2.5434 -0.408538 0
M  V30 27567 H 2528.21 -2.31906 -2.1229 0
M  V30 27568 N 2531.99 -0.735845 -1.39367 0
M  V30 27569 C 2533.23 -0.283597 -2.001 0
M  V30 27570 C 2533.55 1.13335 -1.58682 0
M  V30 27571 O 2532.82 1.77192 -0.835454 0
M  V30 27572 H 2531.4 -0.101864 -0.740022 0
M  V30 27573 H 2534.07 -0.945992 -1.70402 0
M  V30 27574 H 2533.16 -0.332658 -3.10322 0
M  V30 27575 N 2533.46 1.49999 -0.483543 0
M  V30 27576 C 2534.41 2.257 0.32302 0
M  V30 27577 C 2535.4 1.29807 0.950732 0
M  V30 27578 O 2536.59 1.54635 0.86122 0
M  V30 27579 C 2533.72 3.13582 1.39719 0
M  V30 27580 C 2532.8 4.16929 0.776589 0
M  V30 27581 N 2533.2 5.05679 -0.110489 0
M  V30 27582 C 2531.49 4.33725 1.03915 0
M  V30 27583 C 2532.19 5.79847 -0.463972 0
M  V30 27584 N 2531.17 5.43353 0.163891 0
M  V30 27585 H 2534.97 2.91685 -0.360138 0
M  V30 27586 H 2532.49 1.59633 -0.298484 0
M  V30 27587 H 2534.48 3.66432 1.9883 0
M  V30 27588 H 2533.14 2.49147 2.08221 0
M  V30 27589 H 2534.15 5.15669 -0.48016 0
M  V30 27590 H 2530.83 3.80504 1.71822 0
M  V30 27591 H 2532.22 6.61302 -1.18866 0
M  V30 27592 N 2534.94 0.216646 1.56104 0
M  V30 27593 C 2535.87 -0.690257 2.23064 0
M  V30 27594 C 2536.85 -1.20483 1.20074 0
M  V30 27595 O 2538.04 -1.24973 1.48645 0
M  V30 27596 C 2535.17 -1.90066 2.90675 0
M  V30 27597 C 2534.12 -1.52013 4.00095 0
M  V30 27598 C 2533.45 -2.80891 4.54977 0
M  V30 27599 C 2534.75 -0.713819 5.17399 0
M  V30 27600 H 2536.44 -0.131985 2.99109 0
M  V30 27601 H 2533.99 -0.0620411 1.43866 0
M  V30 27602 H 2535.94 -2.54051 3.36209 0
M  V30 27603 H 2534.66 -2.48382 2.1207 0
M  V30 27604 H 2533.32 -0.903777 3.55285 0
M  V30 27605 H 2532.97 -3.37342 3.73108 0
M  V30 27606 H 2532.67 -2.56166 5.28822 0
M  V30 27607 H 2534.2 -3.45827 5.03226 0
M  V30 27608 H 2535.61 -1.25725 5.59344 0
M  V30 27609 H 2534.01 -0.563846 5.97445 0
M  V30 27610 H 2535.08 0.280613 4.84087 0
M  V30 27611 N 2536.42 -1.57498 -0.0567885 0
M  V30 27612 C 2537.64 -1.92602 -0.769368 0
M  V30 27613 C 2538.07 -0.814366 -1.69557 0
M  V30 27614 O 2537.43 0.231871 -1.79811 0
M  V30 27615 C 2537.48 -3.26706 -1.52628 0
M  V30 27616 O 2536.58 -3.16998 -2.63791 0
M  V30 27617 H 2535.92 -0.630284 -0.208898 0
M  V30 27618 H 2538.45 -2.0459 -0.0205438 0
M  V30 27619 H 2538.46 -3.6094 -1.90228 0
M  V30 27620 H 2537.14 -4.07188 -0.846803 0
M  V30 27621 H 2535.71 -2.9435 -2.28938 0
M  V30 27622 N 2537.9 0.328509 -1.54138 0
M  V30 27623 C 2539.15 1.06493 -1.71766 0
M  V30 27624 C 2539.47 1.88704 -0.491523 0
M  V30 27625 O 2538.74 1.89556 0.494506 0
M  V30 27626 H 2537.32 0.396153 -0.633302 0
M  V30 27627 H 2539.98 0.366143 -1.9143 0
M  V30 27628 H 2539.07 1.73377 -2.59513 0
M  V30 27629 N 2539.38 1.46127 0.590316 0
M  V30 27630 C 2540.34 1.55706 1.68192 0
M  V30 27631 C 2541.34 0.434895 1.54807 0
M  V30 27632 O 2542.53 0.698956 1.59563 0
M  V30 27633 C 2539.66 1.4701 3.07573 0
M  V30 27634 H 2540.85 2.52982 1.61059 0
M  V30 27635 H 2538.41 1.33824 0.807517 0
M  V30 27636 H 2539.14 0.509842 3.20267 0
M  V30 27637 H 2538.93 2.2842 3.18696 0
M  V30 27638 H 2540.42 1.56782 3.87052 0
M  V30 27639 N 2540.85 -0.834306 1.33705 0
M  V30 27640 C 2542.08 -1.61947 1.28283 0
M  V30 27641 C 2542.49 -1.88624 -0.147569 0
M  V30 27642 O 2541.83 -1.47007 -1.10157 0
M  V30 27643 C 2541.9 -2.99138 1.99391 0
M  V30 27644 C 2541.56 -2.9541 3.48686 0
M  V30 27645 C 2542.56 -2.70801 4.43805 0
M  V30 27646 C 2540.24 -3.15402 3.90931 0
M  V30 27647 C 2542.24 -2.66219 5.79143 0
M  V30 27648 C 2539.92 -3.10445 5.26372 0
M  V30 27649 C 2540.92 -2.85885 6.20289 0
M  V30 27650 O 2540.61 -2.80839 7.5325 0
M  V30 27651 H 2540.34 -0.510477 0.443159 0
M  V30 27652 H 2542.9 -1.04699 1.76713 0
M  V30 27653 H 2541.13 -3.58259 1.4556 0
M  V30 27654 H 2542.81 -3.60045 1.87409 0
M  V30 27655 H 2543.58 -2.55102 4.1249 0
M  V30 27656 H 2539.46 -3.33538 3.18235 0
M  V30 27657 H 2543 -2.46968 6.5242 0
M  V30 27658 H 2538.9 -3.25693 5.5731 0
M  V30 27659 H 2539.67 -2.96648 7.62852 0
M  V30 27660 N 2542.33 -1.17248 -1.05312 0
M  V30 27661 C 2543.56 -0.98518 -1.82507 0
M  V30 27662 C 2543.98 0.461756 -1.82344 0
M  V30 27663 O 2543.34 1.33053 -1.23153 0
M  V30 27664 C 2543.39 -1.52935 -3.26563 0
M  V30 27665 O 2542.49 -0.742296 -4.05665 0
M  V30 27666 H 2541.83 -0.349879 -0.564341 0
M  V30 27667 H 2544.36 -1.55718 -1.32715 0
M  V30 27668 H 2544.37 -1.5511 -3.77366 0
M  V30 27669 H 2543.05 -2.58262 -3.25996 0
M  V30 27670 H 2541.62 -0.791858 -3.64395 0
M  V30 27671 N 2543.81 1.24015 -0.972531 0
M  V30 27672 C 2544.76 2.25185 -0.506009 0
M  V30 27673 C 2545.73 1.5986 0.450981 0
M  V30 27674 O 2546.91 1.87368 0.360274 0
M  V30 27675 C 2544.05 3.4456 0.193028 0
M  V30 27676 C 2543.17 4.24466 -0.803296 0
M  V30 27677 C 2542.3 5.3114 -0.0798726 0
M  V30 27678 C 2541.34 6.02747 -1.06594 0
M  V30 27679 N 2540.48 7.01113 -0.372197 0
M  V30 27680 H 2545.32 2.64457 -1.37356 0
M  V30 27681 H 2542.85 1.29996 -0.688442 0
M  V30 27682 H 2544.81 4.12641 0.615052 0
M  V30 27683 H 2543.44 3.06111 1.0245 0
M  V30 27684 H 2542.49 3.55876 -1.34374 0
M  V30 27685 H 2543.81 4.73941 -1.55502 0
M  V30 27686 H 2542.96 6.05381 0.399908 0
M  V30 27687 H 2541.7 4.82585 0.704512 0
M  V30 27688 H 2540.7 5.27306 -1.55655 0
M  V30 27689 H 2541.93 6.53391 -1.85085 0
M  V30 27690 H 2539.87 6.54821 0.393123 0
M  V30 27691 H 2539.79 7.48494 -1.06271 0
M  V30 27692 H 2541.06 7.79453 0.0854562 0
M  V30 27693 N 2545.29 0.743226 1.38974 0
M  V30 27694 C 2546.52 0.305286 2.04635 0
M  V30 27695 C 2546.93 -1.06278 1.56046 0
M  V30 27696 O 2546.29 -1.6731 0.728951 0
M  V30 27697 C 2546.34 0.307241 3.60192 0
M  V30 27698 O 2546.06 1.62131 4.06995 0
M  V30 27699 C 2547.56 -0.14585 4.4306 0
M  V30 27700 H 2544.78 0.132053 0.657878 0
M  V30 27701 H 2547.33 1.00918 1.77865 0
M  V30 27702 H 2545.48 -0.34783 3.85835 0
M  V30 27703 H 2545.89 1.54045 5.01369 0
M  V30 27704 H 2547.37 -0.0933213 5.51921 0
M  V30 27705 H 2547.85 -1.19224 4.22708 0
M  V30 27706 H 2548.45 0.479961 4.22583 0
M  V30 27707 N 2546.77 -1.4974 0.491491 0
M  V30 27708 C 2547.73 -2.27473 -0.280866 0
M  V30 27709 C 2548.73 -1.3309 -0.90243 0
M  V30 27710 O 2549.92 -1.56335 -0.768438 0
M  V30 27711 C 2547.05 -3.10734 -1.40203 0
M  V30 27712 H 2548.24 -2.97206 0.401109 0
M  V30 27713 H 2545.8 -1.54349 0.246159 0
M  V30 27714 H 2546.53 -2.45545 -2.11844 0
M  V30 27715 H 2546.32 -3.80118 -0.961903 0
M  V30 27716 H 2547.81 -3.69469 -1.94633 0
M  V30 27717 N 2548.24 -0.224922 -1.55987 0
M  V30 27718 C 2549.18 0.716186 -2.17723 0
M  V30 27719 C 2550.19 1.15507 -1.14725 0
M  V30 27720 O 2551.38 1.08564 -1.4169 0
M  V30 27721 C 2548.48 1.98233 -2.74876 0
M  V30 27722 C 2547.65 1.69846 -4.03077 0
M  V30 27723 C 2546.71 2.812 -4.44762 0
M  V30 27724 O 2545.74 2.49525 -5.11591 0
M  V30 27725 N 2546.94 4.10227 -4.10723 0
M  V30 27726 H 2549.7 0.188071 -2.99109 0
M  V30 27727 H 2547.26 -0.0440408 -1.6184 0
M  V30 27728 H 2549.26 2.71925 -2.99732 0
M  V30 27729 H 2547.83 2.42083 -1.97774 0
M  V30 27730 H 2547.05 0.797807 -3.86042 0
M  V30 27731 H 2548.33 1.48315 -4.86703 0
M  V30 27732 H 2547.73 4.38803 -3.57027 0
M  V30 27733 H 2546.29 4.80453 -4.40464 0
M  V30 27734 N 2549.72 1.57526 0.0484352 0
M  V30 27735 C 2550.97 1.88652 0.744193 0
M  V30 27736 C 2551.3 0.820243 1.76027 0
M  V30 27737 O 2550.58 -0.166951 1.93782 0
M  V30 27738 C 2550.86 3.30436 1.43122 0
M  V30 27739 C 2550.71 4.4774 0.429971 0
M  V30 27740 C 2552.03 3.7082 2.37024 0
M  V30 27741 H 2549.15 0.686124 0.269077 0
M  V30 27742 H 2551.79 1.89999 0.00710192 0
M  V30 27743 H 2549.94 3.29419 2.0595 0
M  V30 27744 H 2551.61 4.60888 -0.194897 0
M  V30 27745 H 2549.86 4.33064 -0.252598 0
M  V30 27746 H 2550.53 5.43785 0.948778 0
M  V30 27747 H 2553 3.7308 1.84256 0
M  V30 27748 H 2551.88 4.7087 2.82086 0
M  V30 27749 H 2552.14 3.02018 3.22859 0
M  V30 27750 N 2551.2 -0.32033 1.5431 0
M  V30 27751 C 2552.45 -1.0558 1.72329 0
M  V30 27752 C 2552.77 -1.8844 0.501523 0
M  V30 27753 O 2552.04 -1.89816 -0.484446 0
M  V30 27754 H 2550.62 -0.392789 0.635394 0
M  V30 27755 H 2553.28 -0.355986 1.91621 0
M  V30 27756 H 2552.38 -1.71998 2.60429 0
M  V30 27757 N 2552.68 -1.46438 -0.582558 0
M  V30 27758 C 2553.93 -1.51456 -1.33812 0
M  V30 27759 C 2554.25 -0.167826 -1.94276 0
M  V30 27760 O 2553.52 0.805646 -1.78567 0
M  V30 27761 H 2552.1 -0.557827 -0.496828 0
M  V30 27762 H 2554.76 -1.82569 -0.682249 0
M  V30 27763 H 2553.86 -2.26731 -2.14475 0
M  V30 27764 N 2554.16 0.827204 -1.34146 0
M  V30 27765 C 2555.38 1.62019 -1.29479 0
M  V30 27766 C 2555.81 1.87655 0.129259 0
M  V30 27767 O 2555.16 1.44902 1.08964 0
M  V30 27768 C 2555.21 2.94064 -2.08707 0
M  V30 27769 O 2554.32 3.85931 -1.45366 0
M  V30 27770 H 2553.66 0.492919 -0.444889 0
M  V30 27771 H 2556.19 1.02826 -1.76884 0
M  V30 27772 H 2556.2 3.43666 -2.19904 0
M  V30 27773 H 2554.87 2.74728 -3.12245 0
M  V30 27774 H 2553.45 3.44439 -1.42885 0
M  V30 27775 N 2555.63 1.17805 1.04688 0
M  V30 27776 C 2556.88 0.969564 1.7778 0
M  V30 27777 C 2557.21 -0.501368 1.87927 0
M  V30 27778 O 2556.46 -1.38839 1.37921 0
M  V30 27779 C 2556.76 1.56191 3.21464 0
M  V30 27780 C 2556.43 3.05792 3.31364 0
M  V30 27781 C 2555.09 3.46625 3.33773 0
M  V30 27782 C 2557.44 4.01803 3.31969 0
M  V30 27783 C 2554.77 4.82057 3.34422 0
M  V30 27784 C 2557.12 5.37142 3.34157 0
M  V30 27785 C 2555.79 5.77432 3.34856 0
M  V30 27786 H 2555.06 0.354788 0.650543 0
M  V30 27787 H 2557.7 1.46774 1.23003 0
M  V30 27788 H 2556.01 0.985582 3.79201 0
M  V30 27789 H 2557.71 1.37609 3.76649 0
M  V30 27790 H 2554.3 2.73244 3.30206 0
M  V30 27791 H 2558.48 3.71312 3.29304 0
M  V30 27792 H 2553.74 5.12579 3.33276 0
M  V30 27793 H 2557.91 6.11311 3.33574 0
M  V30 27794 H 2555.54 6.82352 3.35112 0
M  V30 27795 N 2557.11 -1.23497 0.979094 0
M  V30 27796 C 2558.34 -1.96454 0.66488 0
M  V30 27797 C 2558.76 -1.72007 -0.761256 0
M  V30 27798 O 2558.12 -0.99074 -1.51836 0
M  V30 27799 C 2558.17 -3.47599 0.95954 0
M  V30 27800 O 2557.27 -4.12369 0.0508893 0
M  V30 27801 H 2556.61 -0.615059 0.250196 0
M  V30 27802 H 2559.14 -1.56968 1.31233 0
M  V30 27803 H 2559.15 -3.98046 0.895712 0
M  V30 27804 H 2557.83 -3.64719 1.99882 0
M  V30 27805 H 2556.41 -3.72517 0.169015 0
M  V30 27806 N 2558.59 -0.750586 -1.38578 0
M  V30 27807 C 2559.84 -0.304805 -1.99788 0
M  V30 27808 C 2560.16 1.11646 -1.59876 0
M  V30 27809 O 2559.43 1.76296 -0.854201 0
M  V30 27810 H 2558.01 -0.109707 -0.7389 0
M  V30 27811 H 2560.67 -0.964012 -1.6939 0
M  V30 27812 H 2559.77 -0.365553 -3.09952 0
M  V30 27813 N 2560.07 1.49477 -0.499425 0
M  V30 27814 C 2561 2.27004 0.316535 0
M  V30 27815 C 2562.01 1.33481 0.932024 0
M  V30 27816 O 2563.2 1.58776 0.81563 0
M  V30 27817 C 2560.3 3.05815 1.4605 0
M  V30 27818 C 2559.48 4.26901 0.952604 0
M  V30 27819 C 2558.54 4.87771 1.97398 0
M  V30 27820 O 2557.56 5.47882 1.54316 0
M  V30 27821 N 2558.76 4.77282 3.30428 0
M  V30 27822 H 2561.53 2.9767 -0.348221 0
M  V30 27823 H 2559.09 1.58462 -0.331878 0
M  V30 27824 H 2561.08 3.4341 2.14129 0
M  V30 27825 H 2559.65 2.37766 2.02944 0
M  V30 27826 H 2558.87 3.94081 0.0967555 0
M  V30 27827 H 2560.16 5.05348 0.591651 0
M  V30 27828 H 2559.56 4.29541 3.68119 0
M  V30 27829 H 2558.11 5.19066 3.94226 0
M  V30 27830 N 2561.55 0.233191 1.55865 0
M  V30 27831 C 2562.82 -0.444954 1.90472 0
M  V30 27832 C 2563.2 -1.76888 1.15212 0
M  V30 27833 O 2562.55 -2.26956 0.265159 0
M  V30 27834 C 2562.76 -0.626499 3.43331 0
M  V30 27835 C 2564.11 -0.928637 4.14321 0
M  V30 27836 O 2565.13 -0.712864 3.48994 0
M  V30 27837 O 2563.99 -1.33877 5.29848 0
M  V30 27838 H 2561.09 -0.236871 0.792351 0
M  V30 27839 H 2563.63 0.27624 1.67437 0
M  V30 27840 H 2562.41 0.306891 3.90095 0
M  V30 27841 H 2562.03 -1.39875 3.72184 0
M  V30 27842 N 2563.03 -1.57549 -0.0400806 0
M  V30 27843 C 2564.25 -1.93407 -0.748897 0
M  V30 27844 C 2564.68 -0.832304 -1.68684 0
M  V30 27845 O 2564.03 0.212787 -1.80047 0
M  V30 27846 C 2564.08 -3.28307 -1.49154 0
M  V30 27847 O 2563.19 -3.19778 -2.60414 0
M  V30 27848 H 2562.53 -0.632464 -0.202201 0
M  V30 27849 H 2565.06 -2.046 0.00115682 0
M  V30 27850 H 2565.07 -3.62937 -1.86389 0
M  V30 27851 H 2563.74 -4.08063 -0.803568 0
M  V30 27852 H 2562.32 -2.96762 -2.25803 0
M  V30 27853 N 2564.5 0.312142 -1.54478 0
M  V30 27854 C 2565.78 1.06764 -1.63893 0
M  V30 27855 C 2566.16 2.05569 -0.480064 0
M  V30 27856 O 2565.51 2.224 0.524448 0
M  V30 27857 C 2565.72 1.75943 -3.01405 0
M  V30 27858 C 2567.07 2.28548 -3.57842 0
M  V30 27859 O 2568.09 1.85992 -3.03785 0
M  V30 27860 O 2566.95 3.06489 -4.52467 0
M  V30 27861 H 2564.04 0.492804 -0.664133 0
M  V30 27862 H 2566.59 0.31112 -1.66824 0
M  V30 27863 H 2565.36 1.04138 -3.77188 0
M  V30 27864 H 2564.98 2.58378 -3.02203 0
M  V30 27865 N 2565.98 1.46745 0.574784 0
M  V30 27866 C 2566.93 1.57908 1.68326 0
M  V30 27867 C 2567.9 0.422955 1.60625 0
M  V30 27868 O 2569.08 0.640742 1.7972 0
M  V30 27869 C 2566.22 1.5828 3.06662 0
M  V30 27870 C 2565.34 2.84683 3.2493 0
M  V30 27871 C 2564.47 2.76507 4.53561 0
M  V30 27872 C 2563.51 3.97814 4.652 0
M  V30 27873 N 2562.65 3.87977 5.85165 0
M  V30 27874 H 2567.49 2.52589 1.58122 0
M  V30 27875 H 2565.02 1.25305 0.77053 0
M  V30 27876 H 2566.98 1.5648 3.86743 0
M  V30 27877 H 2565.61 0.671249 3.15744 0
M  V30 27878 H 2564.66 2.96428 2.384 0
M  V30 27879 H 2565.98 3.74566 3.29397 0
M  V30 27880 H 2565.13 2.72857 5.4188 0
M  V30 27881 H 2563.87 1.84278 4.51545 0
M  V30 27882 H 2562.87 4.01787 3.75296 0
M  V30 27883 H 2564.1 4.91148 4.68988 0
M  V30 27884 H 2562.05 2.9854 5.84132 0
M  V30 27885 H 2561.96 4.71521 5.90935 0
M  V30 27886 H 2563.23 3.88315 6.75893 0
M  V30 27887 N 2567.46 -0.820078 1.34583 0
M  V30 27888 C 2568.39 -1.93642 1.20739 0
M  V30 27889 C 2569.37 -1.62302 0.0983628 0
M  V30 27890 O 2570.55 -1.86642 0.264029 0
M  V30 27891 C 2567.68 -3.27702 0.856094 0
M  V30 27892 C 2566.73 -3.78001 1.97528 0
M  V30 27893 S 2567.56 -3.97419 3.58913 0
M  V30 27894 C 2568.72 -5.34401 3.25831 0
M  V30 27895 H 2568.95 -2.05089 2.15234 0
M  V30 27896 H 2566.48 -0.975969 1.19642 0
M  V30 27897 H 2568.44 -4.05156 0.660204 0
M  V30 27898 H 2567.1 -3.14021 -0.0705701 0
M  V30 27899 H 2566.29 -4.75059 1.6833 0
M  V30 27900 H 2565.9 -3.07503 2.1288 0
M  V30 27901 H 2568.19 -6.17917 2.77822 0
M  V30 27902 H 2569.13 -5.68585 4.22039 0
M  V30 27903 H 2569.54 -5.00047 2.61941 0
M  V30 27904 N 2568.94 -1.18359 -1.04062 0
M  V30 27905 C 2570.19 -0.977044 -1.76913 0
M  V30 27906 C 2570.51 0.494544 -1.88625 0
M  V30 27907 O 2569.78 1.35868 -1.41127 0
M  V30 27908 H 2568.36 -0.358516 -0.655344 0
M  V30 27909 H 2571.02 -1.49041 -1.25589 0
M  V30 27910 H 2570.11 -1.41509 -2.78175 0
M  V30 27911 N 2570.42 1.22976 -0.98563 0
M  V30 27912 C 2571.66 1.9084 -0.652914 0
M  V30 27913 C 2571.98 1.77683 0.817811 0
M  V30 27914 O 2573.18 2.40397 1.26181 0
M  V30 27915 C 2571.64 3.4212 -1.11723 0
M  V30 27916 C 2571.25 3.63928 -2.61267 0
M  V30 27917 C 2572.99 4.15728 -0.858503 0
M  V30 27918 C 2570.9 5.0887 -3.01339 0
M  V30 27919 H 2569.83 0.714614 -0.240504 0
M  V30 27920 H 2572.48 1.39322 -1.19423 0
M  V30 27921 H 2570.86 3.92778 -0.504096 0
M  V30 27922 H 2572.04 3.23794 -3.27863 0
M  V30 27923 H 2570.35 3.03639 -2.84943 0
M  V30 27924 H 2572.95 5.22544 -1.13368 0
M  V30 27925 H 2573.29 4.15793 0.205388 0
M  V30 27926 H 2573.82 3.71075 -1.43347 0
M  V30 27927 H 2570.56 5.1394 -4.06873 0
M  V30 27928 H 2570.08 5.49935 -2.3944 0
M  V30 27929 H 2571.76 5.77242 -2.92235 0
M  V30 27930 N 2571.89 0.757924 1.38178 0
M  V30 27931 C 2573.12 0.325715 2.04826 0
M  V30 27932 C 2573.54 -1.03916 1.5679 0
M  V30 27933 O 2572.9 -1.6631 0.721841 0
M  V30 27934 C 2572.95 0.36251 3.58773 0
M  V30 27935 O 2572.05 -0.641961 4.07373 0
M  V30 27936 H 2571.39 0.143413 0.648328 0
M  V30 27937 H 2573.92 1.03026 1.76768 0
M  V30 27938 H 2573.93 0.214915 4.07434 0
M  V30 27939 H 2572.61 1.35831 3.93094 0
M  V30 27940 H 2571.19 -0.458623 3.70069 0
M  V30 27941 N 2573.37 -1.4921 0.507345 0
M  V30 27942 C 2574.31 -2.26023 -0.314469 0
M  V30 27943 C 2575.28 -1.30881 -0.964826 0
M  V30 27944 O 2576.47 -1.60182 -0.993679 0
M  V30 27945 C 2573.59 -3.06404 -1.4434 0
M  V30 27946 C 2572.64 -4.16749 -0.906776 0
M  V30 27947 S 2573.47 -5.35098 0.207487 0
M  V30 27948 C 2574.63 -6.19035 -0.924464 0
M  V30 27949 H 2574.86 -2.95378 0.337468 0
M  V30 27950 H 2572.4 -1.51599 0.292744 0
M  V30 27951 H 2574.35 -3.53298 -2.09023 0
M  V30 27952 H 2573.01 -2.36506 -2.06698 0
M  V30 27953 H 2572.21 -4.72531 -1.75301 0
M  V30 27954 H 2571.81 -3.72478 -0.337055 0
M  V30 27955 H 2574.1 -6.52365 -1.82828 0
M  V30 27956 H 2575.04 -7.0694 -0.405123 0
M  V30 27957 H 2575.45 -5.51714 -1.19466 0
M  V30 27958 N 2574.85 -0.241454 -1.55739 0
M  V30 27959 C 2576.08 0.392076 -2.0366 0
M  V30 27960 C 2576.5 1.51142 -1.11971 0
M  V30 27961 O 2575.86 1.80956 -0.111626 0
M  V30 27962 C 2575.91 0.882309 -3.49639 0
M  V30 27963 O 2575.01 1.99229 -3.61084 0
M  V30 27964 H 2574.35 0.0862006 -0.658381 0
M  V30 27965 H 2576.88 -0.365917 -2.01301 0
M  V30 27966 H 2576.89 1.18695 -3.90353 0
M  V30 27967 H 2575.57 0.063163 -4.15852 0
M  V30 27968 H 2574.14 1.69276 -3.32265 0
M  V30 27969 N 2576.33 1.57568 0.0317248 0
M  V30 27970 C 2577.61 1.80302 0.758334 0
M  V30 27971 C 2577.99 0.838879 1.93716 0
M  V30 27972 O 2577.33 -0.119531 2.28187 0
M  V30 27973 C 2577.54 3.27945 1.19387 0
M  V30 27974 C 2578.89 3.92856 1.61087 0
M  V30 27975 O 2579.92 3.32078 1.28851 0
M  V30 27976 O 2578.77 4.99861 2.20909 0
M  V30 27977 H 2575.87 0.741354 0.366501 0
M  V30 27978 H 2578.41 1.69698 0.00870782 0
M  V30 27979 H 2577.19 3.89712 0.352207 0
M  V30 27980 H 2576.81 3.43427 2.00359 0
M  V30 27981 N 2577.81 -0.303946 1.54641 0
M  V30 27982 C 2579.06 -1.03714 1.72992 0
M  V30 27983 C 2579.37 -1.88528 0.521201 0
M  V30 27984 O 2580.57 -2.6509 0.586454 0
M  V30 27985 C 2579.03 -1.89364 3.06054 0
M  V30 27986 C 2578.64 -1.09567 4.34395 0
M  V30 27987 C 2580.38 -2.62301 3.33764 0
M  V30 27988 C 2578.29 -1.94476 5.5851 0
M  V30 27989 H 2577.22 -0.390936 0.644737 0
M  V30 27990 H 2579.87 -0.294296 1.81125 0
M  V30 27991 H 2578.25 -2.67624 2.91879 0
M  V30 27992 H 2579.43 -0.359404 4.59396 0
M  V30 27993 H 2577.74 -0.482252 4.13598 0
M  V30 27994 H 2580.34 -3.26173 4.23692 0
M  V30 27995 H 2580.68 -3.30976 2.52509 0
M  V30 27996 H 2581.21 -1.91091 3.48897 0
M  V30 27997 H 2577.95 -1.30276 6.42424 0
M  V30 27998 H 2577.47 -2.65783 5.37698 0
M  V30 27999 H 2579.15 -2.52594 5.95655 0
M  V30 28000 N 2579.28 -1.47047 -0.566994 0
M  V30 28001 C 2580.22 -1.54847 -1.68982 0
M  V30 28002 C 2581.23 -0.435459 -1.56868 0
M  V30 28003 O 2582.42 -0.704599 -1.64005 0
M  V30 28004 C 2579.52 -1.42748 -3.0737 0
M  V30 28005 C 2578.69 -2.68446 -3.45334 0
M  V30 28006 C 2577.75 -2.50322 -4.62845 0
M  V30 28007 O 2576.78 -3.24103 -4.67916 0
M  V30 28008 N 2577.98 -1.57509 -5.58723 0
M  V30 28009 H 2580.74 -2.51666 -1.6274 0
M  V30 28010 H 2578.3 -1.43303 -0.753385 0
M  V30 28011 H 2580.3 -1.28372 -3.838 0
M  V30 28012 H 2578.87 -0.540499 -3.07892 0
M  V30 28013 H 2578.09 -2.97653 -2.5845 0
M  V30 28014 H 2579.37 -3.51914 -3.6747 0
M  V30 28015 H 2578.77 -0.966974 -5.57374 0
M  V30 28016 H 2577.33 -1.49089 -6.3452 0
M  V30 28017 N 2580.76 0.812929 -1.35016 0
M  V30 28018 C 2582 1.58313 -1.29292 0
M  V30 28019 C 2582.37 1.91541 0.132693 0
M  V30 28020 O 2583.57 2.66957 0.314222 0
M  V30 28021 C 2581.84 2.84123 -2.16815 0
M  V30 28022 S 2583.4 3.74584 -2.28544 0
M  V30 28023 H 2580.22 0.542503 -0.459578 0
M  V30 28024 H 2582.82 0.959437 -1.70338 0
M  V30 28025 H 2581.52 2.57725 -3.19383 0
M  V30 28026 H 2581.05 3.51482 -1.76703 0
M  V30 28027 H 2583.07 4.74062 -1.46558 0
M  V30 28028 N 2582.24 1.18909 1.03433 0
M  V30 28029 C 2583.17 0.945486 2.13501 0
M  V30 28030 C 2584.15 -0.119159 1.69682 0
M  V30 28031 O 2585.34 0.0347411 1.94169 0
M  V30 28032 C 2582.47 0.477377 3.44003 0
M  V30 28033 C 2581.42 1.48323 4.01478 0
M  V30 28034 C 2580.75 0.872404 5.27535 0
M  V30 28035 C 2582.05 2.86185 4.36916 0
M  V30 28036 H 2583.74 1.86601 2.34138 0
M  V30 28037 H 2581.29 0.898604 1.12522 0
M  V30 28038 H 2583.24 0.294278 4.20371 0
M  V30 28039 H 2581.96 -0.478729 3.23072 0
M  V30 28040 H 2580.62 1.65338 3.27198 0
M  V30 28041 H 2580.27 -0.0910868 5.02918 0
M  V30 28042 H 2579.97 1.54403 5.66951 0
M  V30 28043 H 2581.49 0.699978 6.06575 0
M  V30 28044 H 2582.91 2.72785 5.04243 0
M  V30 28045 H 2581.31 3.50089 4.87399 0
M  V30 28046 H 2582.38 3.39254 3.4646 0
M  V30 28047 N 2583.72 -1.22452 0.992137 0
M  V30 28048 C 2584.65 -2.26643 0.561716 0
M  V30 28049 C 2585.63 -1.65059 -0.411026 0
M  V30 28050 O 2586.81 -1.9184 -0.301827 0
M  V30 28051 C 2583.94 -3.47074 -0.125186 0
M  V30 28052 C 2582.9 -4.21089 0.766022 0
M  V30 28053 C 2582.22 -5.34673 -0.0537544 0
M  V30 28054 C 2583.52 -4.79852 2.0625 0
M  V30 28055 H 2585.22 -2.62899 1.43263 0
M  V30 28056 H 2582.76 -1.26376 0.690305 0
M  V30 28057 H 2584.72 -4.19121 -0.43769 0
M  V30 28058 H 2583.44 -3.09912 -1.03064 0
M  V30 28059 H 2582.1 -3.50876 1.06216 0
M  V30 28060 H 2581.75 -4.93752 -0.960101 0
M  V30 28061 H 2581.45 -5.85118 0.539517 0
M  V30 28062 H 2582.97 -6.09536 -0.36037 0
M  V30 28063 H 2584.39 -5.43845 1.814 0
M  V30 28064 H 2582.78 -5.40633 2.60453 0
M  V30 28065 H 2583.85 -3.99946 2.74174 0
M  V30 28066 N 2585.2 -0.765242 -1.37774 0
M  V30 28067 C 2586.47 -0.251631 -1.93975 0
M  V30 28068 C 2586.85 1.25219 -1.69951 0
M  V30 28069 O 2586.2 2.03224 -1.04461 0
M  V30 28070 C 2586.41 -0.617955 -3.43486 0
M  V30 28071 C 2587.76 -0.584102 -4.20563 0
M  V30 28072 O 2588.78 -0.55695 -3.51819 0
M  V30 28073 O 2587.64 -0.605386 -5.43137 0
M  V30 28074 H 2584.74 -0.0561951 -0.825089 0
M  V30 28075 H 2587.28 -0.846154 -1.471 0
M  V30 28076 H 2586.05 -1.65608 -3.54527 0
M  V30 28077 H 2585.68 0.00396422 -3.976 0
M  V30 28078 N 2586.67 1.48939 -0.515251 0
M  V30 28079 C 2587.62 2.29381 0.255526 0
M  V30 28080 C 2588.59 1.36434 0.947363 0
M  V30 28081 O 2589.78 1.65396 0.951259 0
M  V30 28082 C 2586.92 3.19456 1.30545 0
M  V30 28083 C 2586.03 4.2747 0.623954 0
M  V30 28084 C 2585.16 5.04743 1.65554 0
M  V30 28085 C 2584.2 6.04577 0.956695 0
M  V30 28086 N 2583.34 6.74962 1.93314 0
M  V30 28087 H 2588.18 2.94783 -0.436659 0
M  V30 28088 H 2585.72 1.45335 -0.227179 0
M  V30 28089 H 2587.68 3.70066 1.92632 0
M  V30 28090 H 2586.31 2.56008 1.96621 0
M  V30 28091 H 2585.36 3.80239 -0.110526 0
M  V30 28092 H 2586.67 4.98744 0.0745215 0
M  V30 28093 H 2585.82 5.59293 2.35109 0
M  V30 28094 H 2584.56 4.33274 2.23885 0
M  V30 28095 H 2583.57 5.49245 0.247001 0
M  V30 28096 H 2584.79 6.78038 0.379695 0
M  V30 28097 H 2582.74 6.06255 2.50581 0
M  V30 28098 H 2582.66 7.42261 1.43476 0
M  V30 28099 H 2583.92 7.3411 2.62113 0
M  V30 28100 N 2588.15 0.249709 1.55609 0
M  V30 28101 C 2589.06 -0.659335 2.25144 0
M  V30 28102 C 2590.08 -1.19099 1.26852 0
M  V30 28103 O 2591.26 -1.22666 1.59734 0
M  V30 28104 C 2588.32 -1.83834 2.93949 0
M  V30 28105 C 2587.38 -1.34589 4.07657 0
M  V30 28106 C 2586.61 -2.4687 4.73171 0
M  V30 28107 O 2586.84 -3.65663 4.37775 0
M  V30 28108 O 2585.77 -2.16469 5.61627 0
M  V30 28109 H 2589.6 -0.0968165 3.03546 0
M  V30 28110 H 2587.18 0.0181003 1.49389 0
M  V30 28111 H 2589.06 -2.52632 3.37276 0
M  V30 28112 H 2587.74 -2.38843 2.18485 0
M  V30 28113 H 2586.65 -0.625109 3.6884 0
M  V30 28114 H 2587.98 -0.841855 4.84947 0
M  V30 28115 N 2589.63 -1.57583 -0.0233682 0
M  V30 28116 C 2590.88 -1.89157 -0.711621 0
M  V30 28117 C 2591.2 -0.848127 -1.7559 0
M  V30 28118 O 2590.47 0.117532 -1.95547 0
M  V30 28119 H 2589.05 -0.698102 -0.265823 0
M  V30 28120 H 2591.71 -1.94896 0.012029 0
M  V30 28121 H 2590.81 -2.88208 -1.19761 0
M  V30 28122 N 2591.11 0.29574 -1.548 0
M  V30 28123 C 2592.07 1.34804 -1.85366 0
M  V30 28124 C 2593.07 1.43435 -0.726842 0
M  V30 28125 O 2594.26 1.4298 -0.995113 0
M  V30 28126 C 2591.39 2.73226 -2.03864 0
M  V30 28127 H 2592.59 1.08944 -2.79412 0
M  V30 28128 H 2590.14 0.532676 -1.46943 0
M  V30 28129 H 2590.88 3.04301 -1.12123 0
M  V30 28130 H 2590.66 2.68351 -2.85885 0
M  V30 28131 H 2592.15 3.49301 -2.28863 0
M  V30 28132 N 2592.59 1.47346 0.559187 0
M  V30 28133 C 2593.81 1.57727 1.34673 0
M  V30 28134 C 2594.24 0.227197 1.86723 0
M  V30 28135 O 2593.6 -0.796613 1.62861 0
M  V30 28136 C 2593.64 2.60451 2.49394 0
M  V30 28137 O 2592.75 2.15585 3.51564 0
M  V30 28138 H 2592.09 0.529917 0.400105 0
M  V30 28139 H 2594.62 1.93111 0.675975 0
M  V30 28140 H 2594.63 2.80808 2.95991 0
M  V30 28141 H 2593.3 3.5848 2.10867 0
M  V30 28142 H 2591.88 2.05318 3.11286 0
M  V30 28143 N 2594.07 -0.805758 1.35445 0
M  V30 28144 C 2594.98 -1.94921 1.30549 0
M  V30 28145 C 2595.99 -1.72725 0.210264 0
M  V30 28146 O 2597.17 -1.9654 0.439784 0
M  V30 28147 C 2594.23 -3.29519 1.07788 0
M  V30 28148 C 2593.29 -3.64605 2.26632 0
M  V30 28149 C 2592.53 -4.9278 2.04947 0
M  V30 28150 O 2592.75 -5.61272 1.01634 0
M  V30 28151 O 2591.68 -5.26144 2.92329 0
M  V30 28152 H 2595.51 -2.01998 2.26783 0
M  V30 28153 H 2593.09 -0.943661 1.15825 0
M  V30 28154 H 2594.98 -4.10097 0.969464 0
M  V30 28155 H 2593.65 -3.2337 0.14606 0
M  V30 28156 H 2592.56 -2.844 2.43038 0
M  V30 28157 H 2593.89 -3.75459 3.18263 0
M  V30 28158 N 2595.54 -1.19456 -1.02801 0
M  V30 28159 C 2596.47 -0.956795 -2.12997 0
M  V30 28160 C 2597.45 0.110159 -1.69743 0
M  V30 28161 O 2598.64 -0.0450379 -1.94148 0
M  V30 28162 C 2595.77 -0.495614 -3.43745 0
M  V30 28163 C 2594.72 -1.5045 -4.00685 0
M  V30 28164 C 2594.05 -0.900368 -5.27065 0
M  V30 28165 C 2595.35 -2.88498 -4.35392 0
M  V30 28166 H 2597.04 -1.8784 -2.33145 0
M  V30 28167 H 2594.59 -0.904559 -1.12043 0
M  V30 28168 H 2596.54 -0.316567 -4.20209 0
M  V30 28169 H 2595.27 0.461589 -3.23322 0
M  V30 28170 H 2593.93 -1.67071 -3.26317 0
M  V30 28171 H 2593.57 0.0644145 -5.02959 0
M  V30 28172 H 2593.27 -1.57407 -5.66124 0
M  V30 28173 H 2594.8 -0.732136 -6.06195 0
M  V30 28174 H 2596.21 -2.75455 -5.0279 0
M  V30 28175 H 2594.61 -3.52669 -4.85535 0
M  V30 28176 H 2595.68 -3.41087 -3.44656 0
M  V30 28177 N 2597.02 1.21924 -0.998617 0
M  V30 28178 C 2598.27 1.91106 -0.678701 0
M  V30 28179 C 2598.6 1.775 0.787879 0
M  V30 28180 O 2597.88 1.14753 1.57041 0
M  V30 28181 C 2598.16 3.43127 -1.09251 0
M  V30 28182 C 2598.01 3.65756 -2.61807 0
M  V30 28183 C 2599.33 4.35273 -0.650061 0
M  V30 28184 H 2596.45 0.694008 -0.248037 0
M  V30 28185 H 2599.09 1.43686 -1.24316 0
M  V30 28186 H 2597.24 3.83646 -0.612238 0
M  V30 28187 H 2598.91 3.34605 -3.17549 0
M  V30 28188 H 2597.16 3.0984 -3.03614 0
M  V30 28189 H 2597.83 4.72245 -2.85813 0
M  V30 28190 H 2600.3 4.02301 -1.06267 0
M  V30 28191 H 2599.18 5.403 -0.967838 0
M  V30 28192 H 2599.44 4.39813 0.449061 0
M  V30 28193 N 2598.5 0.772537 1.37367 0
M  V30 28194 C 2599.75 0.333896 1.98917 0
M  V30 28195 C 2600.06 -1.09586 1.62019 0
M  V30 28196 O 2601.27 -1.63593 2.16679 0
M  V30 28197 C 2599.72 0.546033 3.55734 0
M  V30 28198 C 2599.33 1.9861 4.01569 0
M  V30 28199 C 2601.08 0.171054 4.24155 0
M  V30 28200 C 2598.98 2.14579 5.51099 0
M  V30 28201 H 2597.91 0.121098 0.744212 0
M  V30 28202 H 2600.56 0.951778 1.56887 0
M  V30 28203 H 2598.95 -0.141317 3.95748 0
M  V30 28204 H 2600.12 2.70847 3.72798 0
M  V30 28205 H 2598.43 2.31775 3.45933 0
M  V30 28206 H 2601.03 0.268874 5.34024 0
M  V30 28207 H 2601.37 -0.878783 4.06919 0
M  V30 28208 H 2601.91 0.810983 3.89446 0
M  V30 28209 H 2598.65 3.17885 5.73262 0
M  V30 28210 H 2598.17 1.46827 5.81551 0
M  V30 28211 H 2599.85 1.94479 6.17079 0
M  V30 28212 N 2599.98 -1.48664 0.523142 0
M  V30 28213 C 2601.25 -1.95446 -0.0775105 0
M  V30 28214 C 2601.63 -1.46523 -1.51968 0
M  V30 28215 O 2600.98 -0.688695 -2.17874 0
M  V30 28216 C 2601.19 -3.48985 0.0326748 0
M  V30 28217 C 2602.54 -4.24401 -0.130066 0
M  V30 28218 O 2603.56 -3.56176 -0.0414516 0
M  V30 28219 O 2602.42 -5.45592 -0.314814 0
M  V30 28220 H 2599.52 -0.822816 -0.0830868 0
M  V30 28221 H 2602.06 -1.59215 0.587255 0
M  V30 28222 H 2600.84 -3.77294 1.03754 0
M  V30 28223 H 2600.46 -3.91893 -0.671248 0
M  V30 28224 N 2601.46 -0.257958 -1.55475 0
M  V30 28225 C 2602.7 0.364231 -1.99502 0
M  V30 28226 C 2603.03 1.5678 -1.14603 0
M  V30 28227 O 2602.31 1.93341 -0.212002 0
M  V30 28228 C 2602.59 0.763272 -3.51918 0
M  V30 28229 C 2602.45 -0.44645 -4.47579 0
M  V30 28230 C 2603.76 1.60615 -4.09745 0
M  V30 28231 H 2600.88 0.130916 -0.725279 0
M  V30 28232 H 2603.53 -0.361479 -1.8653 0
M  V30 28233 H 2601.68 1.3816 -3.63103 0
M  V30 28234 H 2603.35 -1.08495 -4.4836 0
M  V30 28235 H 2601.59 -1.0876 -4.19945 0
M  V30 28236 H 2602.26 -0.123742 -5.51861 0
M  V30 28237 H 2604.74 1.08411 -4.01729 0
M  V30 28238 H 2603.61 1.8542 -5.16634 0
M  V30 28239 H 2603.87 2.58163 -3.58893 0
M  V30 28240 N 2602.93 1.57593 0.0150108 0
M  V30 28241 C 2604.18 1.89086 0.702082 0
M  V30 28242 C 2604.5 0.858308 1.75762 0
M  V30 28243 O 2605.7 1.06295 2.49827 0
M  V30 28244 C 2604.16 3.35606 1.29986 0
M  V30 28245 C 2603.77 4.47125 0.279929 0
M  V30 28246 C 2605.51 3.7623 1.96599 0
M  V30 28247 C 2603.42 5.84713 0.886846 0
M  V30 28248 H 2602.35 0.705527 0.265985 0
M  V30 28249 H 2605 1.83449 -0.0430731 0
M  V30 28250 H 2603.38 3.36033 2.09519 0
M  V30 28251 H 2604.55 4.5819 -0.489711 0
M  V30 28252 H 2602.87 4.15424 -0.284908 0
M  V30 28253 H 2605.47 4.76352 2.42885 0
M  V30 28254 H 2605.81 3.08957 2.79019 0
M  V30 28255 H 2606.34 3.78038 1.23822 0
M  V30 28256 H 2603.08 6.55421 0.101761 0
M  V30 28257 H 2602.6 5.7734 1.626 0
M  V30 28258 H 2604.28 6.31893 1.38999 0
M  V30 28259 N 2604.41 -0.287527 1.54955 0
M  V30 28260 C 2605.66 -1.02254 1.75134 0
M  V30 28261 C 2605.99 -1.86457 0.542891 0
M  V30 28262 O 2605.27 -1.88986 -0.459823 0
M  V30 28263 C 2605.55 -1.91728 3.04815 0
M  V30 28264 C 2605.4 -1.10615 4.35987 0
M  V30 28265 C 2606.72 -2.90681 3.30443 0
M  V30 28266 H 2603.84 -0.37033 0.637201 0
M  V30 28267 H 2606.48 -0.296079 1.87679 0
M  V30 28268 H 2604.63 -2.5367 2.94251 0
M  V30 28269 H 2606.3 -0.508555 4.58488 0
M  V30 28270 H 2604.55 -0.409195 4.31866 0
M  V30 28271 H 2605.22 -1.76503 5.23021 0
M  V30 28272 H 2607.69 -2.38871 3.40705 0
M  V30 28273 H 2606.57 -3.50439 4.22473 0
M  V30 28274 H 2606.83 -3.65049 2.49383 0
M  V30 28275 N 2605.89 -1.47641 -0.551365 0
M  V30 28276 C 2606.84 -1.60981 -1.67893 0
M  V30 28277 C 2607.83 -0.476905 -1.62548 0
M  V30 28278 O 2609.04 -0.654907 -1.67663 0
M  V30 28279 H 2605.41 -0.506722 -0.555641 0
M  V30 28280 H 2607.38 -2.55723 -1.53779 0
M  V30 28281 C 2606.13 -1.64674 -3.06232 0
M  V30 28282 H 2605.46 -2.512 -3.11028 0
M  V30 28283 H 2606.9 -1.78056 -3.84801 0
M  V30 28284 C 2605.36 -0.381173 -3.34737 0
M  V30 28285 O 2605.89 0.515226 -3.98382 0
M  V30 28286 N 2604.09 -0.259405 -2.8944 0
M  V30 28287 H 2603.64 -0.989802 -2.37825 0
M  V30 28288 H 2603.6 0.58641 -3.08883 0
M  V30 28289 N 2607.37 0.798563 -1.3587 0
M  V30 28290 C 2608.6 1.58719 -1.32725 0
M  V30 28291 C 2609.01 1.88568 0.09353 0
M  V30 28292 O 2608.37 1.49423 1.04781 0
M  V30 28293 C 2608.42 2.91367 -2.1398 0
M  V30 28294 O 2608.14 2.62809 -3.50518 0
M  V30 28295 C 2609.64 3.85705 -2.18511 0
M  V30 28296 H 2606.86 0.492588 -0.455629 0
M  V30 28297 H 2609.41 0.991812 -1.78839 0
M  V30 28298 H 2607.56 3.47399 -1.71444 0
M  V30 28299 H 2607.97 3.47562 -3.92812 0
M  V30 28300 H 2609.45 4.75867 -2.7974 0
M  V30 28301 H 2609.93 4.22883 -1.18604 0
M  V30 28302 H 2610.53 3.35608 -2.61242 0
M  V30 28303 N 2608.85 1.19999 1.02166 0
M  V30 28304 C 2609.79 0.944265 2.106 0
M  V30 28305 C 2610.76 -0.123635 1.65639 0
M  V30 28306 O 2611.95 0.0200276 1.90789 0
M  V30 28307 C 2609.09 0.496925 3.41504 0
M  V30 28308 C 2608.2 1.63241 3.99971 0
M  V30 28309 C 2607.34 1.13588 5.18913 0
M  V30 28310 C 2606.38 2.24478 5.69452 0
M  V30 28311 N 2605.51 1.7608 6.79662 0
M  V30 28312 H 2610.35 1.87264 2.31811 0
M  V30 28313 H 2607.89 0.933503 1.13684 0
M  V30 28314 H 2609.85 0.218916 4.16625 0
M  V30 28315 H 2608.48 -0.394452 3.20381 0
M  V30 28316 H 2607.53 2.02545 3.21993 0
M  V30 28317 H 2608.84 2.4676 4.33487 0
M  V30 28318 H 2608 0.813534 6.01221 0
M  V30 28319 H 2606.73 0.270519 4.86949 0
M  V30 28320 H 2605.74 2.57535 4.85753 0
M  V30 28321 H 2606.96 3.11482 6.03453 0
M  V30 28322 H 2604.91 0.91863 6.49536 0
M  V30 28323 H 2604.83 2.53183 7.12344 0
M  V30 28324 H 2606.1 1.4683 7.65546 0
M  V30 28325 N 2610.32 -1.21392 1.00507 0
M  V30 28326 C 2611.27 -2.25791 0.558663 0
M  V30 28327 C 2612.27 -1.64687 -0.396819 0
M  V30 28328 O 2613.47 -1.77994 -0.268004 0
M  V30 28329 H 2609.85 -0.734274 0.162313 0
M  V30 28330 H 2611.82 -2.60783 1.45034 0
M  V30 28331 C 2610.57 -3.47559 -0.0988963 0
M  V30 28332 H 2609.89 -3.94848 0.627295 0
M  V30 28333 H 2611.33 -4.22343 -0.374526 0
M  V30 28334 C 2609.79 -3.09186 -1.33811 0
M  V30 28335 O 2610.32 -3.19678 -2.43246 0
M  V30 28336 N 2608.53 -2.63848 -1.21789 0
M  V30 28337 H 2608.07 -2.55511 -0.327415 0
M  V30 28338 H 2608.03 -2.38542 -2.04805 0
M  V30 28339 N 2611.8 -0.779811 -1.36955 0
M  V30 28340 C 2613.08 -0.27219 -1.93697 0
M  V30 28341 C 2613.46 1.2341 -1.7127 0
M  V30 28342 O 2612.81 2.02105 -1.06611 0
M  V30 28343 C 2613.02 -0.654351 -3.42811 0
M  V30 28344 C 2614.37 -0.628676 -4.1992 0
M  V30 28345 O 2615.39 -0.594234 -3.51208 0
M  V30 28346 O 2614.25 -0.662959 -5.42464 0
M  V30 28347 H 2611.34 -0.0649431 -0.824446 0
M  V30 28348 H 2613.89 -0.861708 -1.46194 0
M  V30 28349 H 2612.66 -1.69359 -3.52751 0
M  V30 28350 H 2612.28 -0.0382068 -3.97582 0
M  V30 28351 N 2613.28 1.48384 -0.531019 0
M  V30 28352 C 2614.7 1.58478 -0.188946 0
M  V30 28353 C 2614.9 1.5329 1.30783 0
M  V30 28354 O 2613.95 1.42252 2.08616 0
M  V30 28355 C 2615.27 2.90072 -0.792394 0
M  V30 28356 C 2616.81 3.03602 -0.761223 0
M  V30 28357 C 2617.29 4.37859 -1.34327 0
M  V30 28358 N 2618.78 4.44428 -1.30528 0
M  V30 28359 C 2619.51 5.46821 -1.72552 0
M  V30 28360 N 2619.01 6.56163 -2.2231 0
M  V30 28361 N 2620.8 5.3771 -1.63783 0
M  V30 28362 H 2612.95 1.49999 -1.5038 0
M  V30 28363 H 2615.22 0.712295 -0.625571 0
M  V30 28364 H 2614.92 2.99526 -1.84328 0
M  V30 28365 H 2614.8 3.76232 -0.270092 0
M  V30 28366 H 2617.18 2.9376 0.280905 0
M  V30 28367 H 2617.27 2.19051 -1.321 0
M  V30 28368 H 2616.91 4.48455 -2.38433 0
M  V30 28369 H 2616.84 5.21099 -0.759156 0
M  V30 28370 H 2619.33 3.65996 -0.941038 0
M  V30 28371 H 2619.64 7.30431 -2.52369 0
M  V30 28372 H 2617.99 6.57123 -2.26305 0
M  V30 28373 H 2621.18 4.51183 -1.24706 0
M  V30 28374 H 2621.35 6.17375 -1.96854 0
M  V30 28375 N 2614.76 0.2662 1.55336 0
M  V30 28376 C 2616.01 -0.353714 1.98574 0
M  V30 28377 C 2616.32 -1.57644 1.15792 0
M  V30 28378 O 2617.53 -2.26873 1.49133 0
M  V30 28379 C 2615.98 -0.680685 3.53404 0
M  V30 28380 C 2615.59 0.521729 4.44952 0
M  V30 28381 C 2617.33 -1.26372 4.05254 0
M  V30 28382 C 2615.24 0.169839 5.91156 0
M  V30 28383 H 2614.17 -0.135936 0.741645 0
M  V30 28384 H 2616.82 0.369452 1.79742 0
M  V30 28385 H 2615.2 -1.46251 3.68004 0
M  V30 28386 H 2616.38 1.29877 4.42118 0
M  V30 28387 H 2614.69 1.021 4.03689 0
M  V30 28388 H 2617.29 -1.54065 5.12023 0
M  V30 28389 H 2617.63 -2.19465 3.53753 0
M  V30 28390 H 2618.17 -0.544378 3.94058 0
M  V30 28391 H 2614.91 1.06841 6.46734 0
M  V30 28392 H 2614.43 -0.570612 5.9708 0
M  V30 28393 H 2616.1 -0.241132 6.46551 0
M  V30 28394 N 2616.24 -1.57599 -0.0066531 0
M  V30 28395 C 2617.48 -1.90277 -0.692887 0
M  V30 28396 C 2617.81 -0.866223 -1.74146 0
M  V30 28397 O 2617.07 0.129899 -1.95268 0
M  V30 28398 C 2617.37 -3.29711 -1.37933 0
M  V30 28399 C 2617.03 -4.485 -0.4646 0
M  V30 28400 C 2615.69 -4.8073 -0.212725 0
M  V30 28401 C 2618.05 -5.20937 0.165602 0
M  V30 28402 C 2615.37 -5.82772 0.677756 0
M  V30 28403 C 2617.73 -6.23927 1.04392 0
M  V30 28404 C 2616.39 -6.54618 1.30504 0
M  V30 28405 H 2615.66 -0.696273 -0.253545 0
M  V30 28406 H 2618.31 -1.91441 0.0474459 0
M  V30 28407 H 2616.61 -3.24639 -2.19355 0
M  V30 28408 H 2618.31 -3.52252 -1.91623 0
M  V30 28409 H 2614.9 -4.23314 -0.671079 0
M  V30 28410 H 2619.08 -4.96297 -0.0159884 0
M  V30 28411 H 2614.34 -6.04915 0.888136 0
M  V30 28412 H 2618.51 -6.7919 1.53863 0
M  V30 28413 H 2616.14 -7.33508 1.99675 0
M  V30 28414 N 2617.72 0.279305 -1.55105 0
M  V30 28415 C 2618.94 1.03442 -1.79762 0
M  V30 28416 C 2619.37 1.79383 -0.565984 0
M  V30 28417 O 2618.72 1.74714 0.484229 0
M  V30 28418 C 2618.77 1.97366 -3.01793 0
M  V30 28419 O 2617.88 3.06033 -2.76437 0
M  V30 28420 H 2617.22 0.296069 -0.594339 0
M  V30 28421 H 2619.75 0.31013 -2.02236 0
M  V30 28422 H 2619.76 2.39436 -3.30355 0
M  V30 28423 H 2618.43 1.41503 -3.91088 0
M  V30 28424 H 2617.01 2.68323 -2.58954 0
M  V30 28425 N 2619.19 1.47931 0.543528 0
M  V30 28426 C 2620.1 1.64101 1.67654 0
M  V30 28427 C 2621.12 0.523651 1.65933 0
M  V30 28428 O 2622.3 0.792975 1.85132 0
M  V30 28429 C 2619.36 1.66426 3.04144 0
M  V30 28430 C 2618.42 2.8969 3.16825 0
M  V30 28431 C 2617.65 2.91894 4.46804 0
M  V30 28432 O 2617.88 2.02904 5.33091 0
M  V30 28433 O 2616.81 3.83915 4.63566 0
M  V30 28434 H 2620.64 2.59999 1.56952 0
M  V30 28435 H 2618.22 1.31175 0.715093 0
M  V30 28436 H 2620.1 1.70555 3.85343 0
M  V30 28437 H 2618.78 0.736978 3.15199 0
M  V30 28438 H 2617.69 2.91099 2.34972 0
M  V30 28439 H 2619.02 3.81757 3.1068 0
M  V30 28440 N 2620.67 -0.791347 1.36292 0
M  V30 28441 C 2621.92 -1.54608 1.30157 0
M  V30 28442 C 2622.24 -1.94634 -0.119375 0
M  V30 28443 O 2621.51 -1.64795 -1.05921 0
M  V30 28444 H 2620.09 -0.57338 0.478795 0
M  V30 28445 H 2622.75 -0.94303 1.70567 0
M  V30 28446 H 2621.85 -2.45453 1.92767 0
M  V30 28447 N 2622.15 -1.2054 -1.01528 0
M  V30 28448 C 2623.4 -1.0106 -1.74556 0
M  V30 28449 C 2623.71 0.457723 -1.90169 0
M  V30 28450 O 2624.92 0.771676 -2.60303 0
M  V30 28451 C 2623.37 -1.75946 -3.1396 0
M  V30 28452 C 2622.98 -3.2688 -3.06355 0
M  V30 28453 C 2624.73 -1.64839 -3.91188 0
M  V30 28454 C 2622.63 -3.94299 -4.40775 0
M  V30 28455 H 2621.56 -0.374517 -0.654411 0
M  V30 28456 H 2624.21 -1.44173 -1.13518 0
M  V30 28457 H 2622.6 -1.2562 -3.75547 0
M  V30 28458 H 2623.77 -3.8443 -2.54068 0
M  V30 28459 H 2622.08 -3.38415 -2.42619 0
M  V30 28460 H 2624.68 -2.12548 -4.9064 0
M  V30 28461 H 2625.02 -0.604818 -4.11883 0
M  V30 28462 H 2625.56 -2.12585 -3.36233 0
M  V30 28463 H 2622.3 -4.98813 -4.25283 0
M  V30 28464 H 2621.82 -3.41538 -4.93064 0
M  V30 28465 H 2623.5 -3.98626 -5.09614 0
M  V30 28466 N 2623.63 1.20858 -1.01149 0
M  V30 28467 C 2624.87 1.90094 -0.697898 0
M  V30 28468 C 2625.2 1.78524 0.771982 0
M  V30 28469 O 2624.46 1.1603 1.57593 0
M  V30 28470 C 2624.76 3.4092 -1.07276 0
M  V30 28471 C 2624.42 3.72689 -2.53799 0
M  V30 28472 C 2623.08 3.8107 -2.93835 0
M  V30 28473 C 2625.44 3.8739 -3.4868 0
M  V30 28474 C 2622.76 4.01606 -4.27703 0
M  V30 28475 C 2625.12 4.09435 -4.8223 0
M  V30 28476 C 2623.78 4.16045 -5.2198 0
M  V30 28477 H 2623.05 0.695602 -0.255379 0
M  V30 28478 H 2625.7 1.43229 -1.27113 0
M  V30 28479 H 2624 3.89565 -0.417867 0
M  V30 28480 H 2625.7 3.92778 -0.807887 0
M  V30 28481 H 2622.29 3.66761 -2.21775 0
M  V30 28482 H 2626.47 3.80276 -3.18911 0
M  V30 28483 H 2621.73 4.04956 -4.58062 0
M  V30 28484 H 2625.9 4.19753 -5.5568 0
M  V30 28485 H 2623.53 4.3171 -6.25724 0
M  V30 28486 N 2625.11 0.787064 1.3654 0
M  V30 28487 C 2626.04 0.198033 2.32659 0
M  V30 28488 C 2627.02 -0.665669 1.56534 0
M  V30 28489 O 2628.2 -0.599978 1.84699 0
M  V30 28490 C 2625.33 -0.669841 3.40779 0
M  V30 28491 C 2624.29 0.0937791 4.27897 0
M  V30 28492 C 2623.61 -0.894536 5.27164 0
M  V30 28493 C 2624.91 1.28163 5.06332 0
M  V30 28494 H 2626.61 1.00104 2.82169 0
M  V30 28495 H 2624.15 0.482817 1.35665 0
M  V30 28496 H 2626.1 -1.09184 4.0701 0
M  V30 28497 H 2624.83 -1.50553 2.8983 0
M  V30 28498 H 2623.49 0.496724 3.63219 0
M  V30 28499 H 2623.14 -1.72519 4.72489 0
M  V30 28500 H 2622.84 -0.388046 5.86317 0
M  V30 28501 H 2624.36 -1.31515 5.96269 0
M  V30 28502 H 2625.77 0.93551 5.65616 0
M  V30 28503 H 2624.17 1.72125 5.74885 0
M  V30 28504 H 2625.24 2.07815 4.38111 0
M  V30 28505 N 2626.58 -1.48101 0.53888 0
M  V30 28506 C 2627.83 -2.02098 0.00802152 0
M  V30 28507 C 2628.15 -1.41741 -1.33919 0
M  V30 28508 O 2627.42 -0.585967 -1.86931 0
M  V30 28509 H 2626 -0.747 -2.30875e-05 0
M  V30 28510 H 2628.66 -1.81713 0.704732 0
M  V30 28511 H 2627.76 -3.11959 -0.0937124 0
M  V30 28512 N 2628.06 -0.274434 -1.55192 0
M  V30 28513 C 2629.31 0.343178 -1.98759 0
M  V30 28514 C 2629.62 1.57027 -1.16626 0
M  V30 28515 O 2630.83 2.26079 -1.50334 0
M  V30 28516 C 2629.29 0.661934 -3.5376 0
M  V30 28517 C 2628.89 -0.545318 -4.44669 0
M  V30 28518 C 2630.64 1.24221 -4.05918 0
M  V30 28519 C 2628.54 -0.201188 -5.91058 0
M  V30 28520 H 2627.47 0.132001 -0.742356 0
M  V30 28521 H 2630.13 -0.378979 -1.79544 0
M  V30 28522 H 2628.51 1.44297 -3.68774 0
M  V30 28523 H 2629.68 -1.32219 -4.41423 0
M  V30 28524 H 2628 -1.04239 -4.03142 0
M  V30 28525 H 2630.59 1.51348 -5.12833 0
M  V30 28526 H 2630.94 2.17586 -3.54911 0
M  V30 28527 H 2631.47 0.523472 -3.94341 0
M  V30 28528 H 2628.21 -1.10269 -6.46159 0
M  V30 28529 H 2627.73 0.53894 -5.97374 0
M  V30 28530 H 2629.41 0.20684 -6.46669 0
M  V30 28531 N 2629.54 1.576 -0.00170483 0
M  V30 28532 C 2630.5 2.07475 0.974009 0
M  V30 28533 C 2631.5 0.984466 1.27141 0
M  V30 28534 O 2632.69 1.24706 1.21631 0
M  V30 28535 C 2629.82 2.51763 2.29844 0
M  V30 28536 H 2631.02 2.94951 0.542569 0
M  V30 28537 H 2628.57 1.54355 0.245802 0
M  V30 28538 H 2629.31 1.67534 2.77674 0
M  V30 28539 H 2629.09 3.3139 2.09578 0
M  V30 28540 H 2630.58 2.9067 2.99835 0
M  V30 28541 N 2631.02 -0.271076 1.55251 0
M  V30 28542 C 2631.95 -1.33929 1.91272 0
M  V30 28543 C 2632.93 -1.51429 0.774806 0
M  V30 28544 O 2634.11 -1.6444 1.0331 0
M  V30 28545 C 2631.24 -2.69847 2.18632 0
M  V30 28546 C 2630.2 -2.67076 3.34447 0
M  V30 28547 C 2629.52 -4.06563 3.47291 0
M  V30 28548 C 2630.82 -2.26176 4.70788 0
M  V30 28549 H 2632.52 -1.0403 2.80746 0
M  V30 28550 H 2630.06 -0.498993 1.35078 0
M  V30 28551 H 2632.02 -3.4469 2.42419 0
M  V30 28552 H 2630.74 -3.01333 1.2596 0
M  V30 28553 H 2629.4 -1.9469 3.10631 0
M  V30 28554 H 2629.05 -4.35274 2.52082 0
M  V30 28555 H 2628.75 -4.05603 4.25159 0
M  V30 28556 H 2630.27 -4.83142 3.73372 0
M  V30 28557 H 2631.69 -2.90743 4.94107 0
M  V30 28558 H 2630.08 -2.36375 5.51586 0
M  V30 28559 H 2631.15 -1.2131 4.6948 0
M  V30 28560 N 2632.5 -1.48217 -0.535675 0
M  V30 28561 C 2633.43 -1.65207 -1.65012 0
M  V30 28562 C 2634.41 -0.50104 -1.62553 0
M  V30 28563 O 2635.59 -0.732917 -1.79839 0
M  V30 28564 C 2632.72 -1.68631 -3.03613 0
M  V30 28565 C 2631.68 -2.83178 -3.20927 0
M  V30 28566 C 2631 -2.71687 -4.60532 0
M  V30 28567 C 2632.3 -4.2454 -3.04242 0
M  V30 28568 H 2634 -2.58505 -1.51048 0
M  V30 28569 H 2631.54 -1.24404 -0.72524 0
M  V30 28570 H 2633.5 -1.79106 -3.81443 0
M  V30 28571 H 2632.22 -0.719082 -3.18586 0
M  V30 28572 H 2630.88 -2.72249 -2.45512 0
M  V30 28573 H 2630.53 -1.72946 -4.72333 0
M  V30 28574 H 2630.23 -3.48547 -4.73063 0
M  V30 28575 H 2631.75 -2.84121 -5.4047 0
M  V30 28576 H 2633.16 -4.36332 -3.71869 0
M  V30 28577 H 2631.56 -5.02354 -3.28269 0
M  V30 28578 H 2632.63 -4.41401 -2.00732 0
M  V30 28579 N 2633.97 0.784108 -1.3671 0
M  V30 28580 C 2634.88 1.92819 -1.33634 0
M  V30 28581 C 2635.9 1.72369 -0.237716 0
M  V30 28582 O 2637.08 1.95815 -0.470996 0
M  V30 28583 C 2634.14 3.27762 -1.13017 0
M  V30 28584 C 2633.2 3.60953 -2.32403 0
M  V30 28585 C 2632.44 4.89457 -2.12761 0
M  V30 28586 O 2632.66 5.59584 -1.10551 0
M  V30 28587 O 2631.59 5.21427 -3.00662 0
M  V30 28588 H 2635.42 1.98364 -2.29968 0
M  V30 28589 H 2633 0.925115 -1.17311 0
M  V30 28590 H 2634.89 4.08503 -1.03458 0
M  V30 28591 H 2633.56 3.23097 -0.197487 0
M  V30 28592 H 2632.47 2.80498 -2.47532 0
M  V30 28593 H 2633.8 3.70348 -3.24196 0
M  V30 28594 N 2635.45 1.21076 1.00888 0
M  V30 28595 C 2636.7 1.02361 1.7426 0
M  V30 28596 C 2637.02 -0.44436 1.8987 0
M  V30 28597 O 2636.29 -1.32078 1.4468 0
M  V30 28598 H 2634.87 0.375765 0.645608 0
M  V30 28599 H 2637.53 1.52319 1.21594 0
M  V30 28600 H 2636.63 1.48835 2.74326 0
M  V30 28601 N 2636.93 -1.2032 1.01789 0
M  V30 28602 C 2638.18 -1.89346 0.706571 0
M  V30 28603 C 2638.5 -1.79314 -0.766258 0
M  V30 28604 O 2637.77 -1.19638 -1.55124 0
M  V30 28605 H 2636.35 -0.700899 0.258361 0
M  V30 28606 H 2639.01 -1.4612 1.28976 0
M  V30 28607 H 2638.11 -2.95945 0.991118 0
M  V30 28608 N 2638.41 -0.794293 -1.3612 0
M  V30 28609 C 2639.36 -0.184064 -2.31871 0
M  V30 28610 C 2640.35 0.659338 -1.56042 0
M  V30 28611 O 2641.56 0.553876 -1.71267 0
M  V30 28612 H 2637.93 -0.0407505 -0.750895 0
M  V30 28613 H 2639.9 -1.00698 -2.80896 0
M  V30 28614 C 2638.65 0.662753 -3.41325 0
M  V30 28615 H 2637.97 0.0231242 -3.99793 0
M  V30 28616 H 2639.41 1.05632 -4.10631 0
M  V30 28617 C 2637.87 1.82308 -2.83312 0
M  V30 28618 O 2638.4 2.91992 -2.75869 0
M  V30 28619 N 2636.61 1.63072 -2.40532 0
M  V30 28620 H 2636.16 0.738548 -2.46786 0
M  V30 28621 H 2636.11 2.40868 -2.02064 0
M  V30 28622 N 2639.89 1.47813 -0.546727 0
M  V30 28623 C 2641.11 2.06887 -0.023322 0
M  V30 28624 C 2641.53 1.40092 1.26569 0
M  V30 28625 O 2640.89 0.493937 1.75689 0
M  V30 28626 C 2640.94 3.61016 0.186912 0
M  V30 28627 O 2640.66 4.25305 -1.05104 0
M  V30 28628 C 2642.16 4.3693 0.748795 0
M  V30 28629 H 2639.38 0.669741 -0.041088 0
M  V30 28630 H 2641.92 1.89967 -0.75715 0
M  V30 28631 H 2640.08 3.77485 0.870837 0
M  V30 28632 H 2640.49 5.17694 -0.842212 0
M  V30 28633 H 2641.97 5.4549 0.845238 0
M  V30 28634 H 2642.44 4.02496 1.75765 0
M  V30 28635 H 2643.05 4.2518 0.100904 0
M  V30 28636 N 2641.36 0.28266 1.55044 0
M  V30 28637 C 2642.3 -0.634886 2.20231 0
M  V30 28638 C 2643.31 -1.1117 1.18933 0
M  V30 28639 O 2644.5 -1.03231 1.45622 0
M  V30 28640 C 2641.6 -1.87894 2.82044 0
M  V30 28641 C 2640.77 -1.54769 4.09103 0
M  V30 28642 C 2639.83 -2.64499 4.54892 0
M  V30 28643 O 2638.86 -2.30366 5.205 0
M  V30 28644 N 2640.06 -3.94701 4.25666 0
M  V30 28645 H 2642.82 -0.0769285 2.99601 0
M  V30 28646 H 2640.38 0.104076 1.61565 0
M  V30 28647 H 2642.38 -2.60613 3.09617 0
M  V30 28648 H 2640.95 -2.34576 2.06623 0
M  V30 28649 H 2640.17 -0.653981 3.88737 0
M  V30 28650 H 2641.45 -1.30149 4.91873 0
M  V30 28651 H 2640.85 -4.2525 3.73067 0
M  V30 28652 H 2639.41 -4.63774 4.57992 0
M  V30 28653 N 2642.84 -1.57597 0.0100627 0
M  V30 28654 C 2644.07 -1.95288 -0.683378 0
M  V30 28655 C 2644.49 -0.885511 -1.66746 0
M  V30 28656 O 2643.84 0.134597 -1.82003 0
M  V30 28657 C 2643.89 -3.33018 -1.40647 0
M  V30 28658 O 2643.61 -4.35659 -0.46184 0
M  V30 28659 C 2645.12 -3.85228 -2.19349 0
M  V30 28660 H 2642.34 -0.643627 -0.189696 0
M  V30 28661 H 2644.88 -2.04399 0.0641718 0
M  V30 28662 H 2643.03 -3.25184 -2.10556 0
M  V30 28663 H 2643.45 -5.15394 -0.973124 0
M  V30 28664 H 2644.92 -4.83998 -2.65425 0
M  V30 28665 H 2645.4 -3.18464 -3.02452 0
M  V30 28666 H 2646.01 -3.9627 -1.54435 0
M  V30 28667 N 2644.32 0.262839 -1.55393 0
M  V30 28668 C 2645.25 1.34765 -1.85394 0
M  V30 28669 C 2646.27 1.45056 -0.739095 0
M  V30 28670 O 2647.45 1.46691 -1.01706 0
M  V30 28671 C 2644.55 2.72791 -2.01093 0
M  V30 28672 C 2643.73 2.84966 -3.31833 0
M  V30 28673 C 2642.79 4.03732 -3.37471 0
M  V30 28674 O 2641.81 3.94011 -4.10785 0
M  V30 28675 N 2643.01 5.16171 -2.65608 0
M  V30 28676 H 2645.78 1.0937 -2.79031 0
M  V30 28677 H 2643.34 0.452954 -1.55435 0
M  V30 28678 H 2645.33 3.50554 -2.02223 0
M  V30 28679 H 2643.9 2.90964 -1.14275 0
M  V30 28680 H 2643.12 1.94006 -3.43155 0
M  V30 28681 H 2644.41 2.90038 -4.18038 0
M  V30 28682 H 2643.81 5.26959 -2.05746 0
M  V30 28683 H 2642.37 5.92127 -2.72449 0
M  V30 28684 N 2645.8 1.48499 0.527807 0
M  V30 28685 C 2647.03 1.6006 1.30631 0
M  V30 28686 C 2647.44 0.260819 1.87394 0
M  V30 28687 O 2646.78 -0.760287 1.67228 0
M  V30 28688 C 2646.84 2.58963 2.49356 0
M  V30 28689 C 2646.51 4.03976 2.13664 0
M  V30 28690 C 2647.5 4.91594 1.69209 0
M  V30 28691 C 2645.19 4.49528 2.24121 0
M  V30 28692 C 2647.18 6.22792 1.35678 0
M  V30 28693 C 2644.87 5.80747 1.90202 0
M  V30 28694 C 2645.87 6.67202 1.46051 0
M  V30 28695 O 2645.55 7.95978 1.12579 0
M  V30 28696 H 2645.29 0.542418 0.403434 0
M  V30 28697 H 2647.84 1.9507 0.643199 0
M  V30 28698 H 2646.07 2.19079 3.18656 0
M  V30 28699 H 2647.76 2.60336 3.11416 0
M  V30 28700 H 2648.53 4.57639 1.60599 0
M  V30 28701 H 2644.4 3.82421 2.5744 0
M  V30 28702 H 2647.95 6.90229 1.01145 0
M  V30 28703 H 2643.85 6.14237 1.98453 0
M  V30 28704 H 2644.61 8.0875 1.25958 0
M  V30 28705 N 2647.28 -0.776847 1.37123 0
M  V30 28706 C 2648.5 -1.57102 1.35403 0
M  V30 28707 C 2648.93 -1.88006 -0.0595231 0
M  V30 28708 O 2648.29 -1.48846 -1.03511 0
M  V30 28709 C 2648.33 -2.86116 2.19477 0
M  V30 28710 O 2647.44 -3.8027 1.59589 0
M  V30 28711 H 2646.78 -0.476068 0.462877 0
M  V30 28712 H 2649.31 -0.9619 1.80579 0
M  V30 28713 H 2649.32 -3.35267 2.32508 0
M  V30 28714 H 2647.99 -2.6295 3.22227 0
M  V30 28715 H 2646.57 -3.38899 1.5557 0
M  V30 28716 N 2648.76 -1.2161 -1.00244 0
M  V30 28717 C 2650 -1.03488 -1.74059 0
M  V30 28718 C 2650.33 0.431274 -1.89658 0
M  V30 28719 O 2649.59 1.33625 -1.42979 0
M  V30 28720 C 2649.88 -1.68015 -3.15446 0
M  V30 28721 C 2649.55 -3.17879 -3.19787 0
M  V30 28722 C 2648.21 -3.58774 -3.20679 0
M  V30 28723 C 2650.56 -4.13847 -3.16828 0
M  V30 28724 C 2647.89 -4.94136 -3.16301 0
M  V30 28725 C 2650.24 -5.49174 -3.13991 0
M  V30 28726 C 2648.91 -5.89462 -3.13194 0
M  V30 28727 H 2648.18 -0.378689 -0.636927 0
M  V30 28728 H 2650.83 -1.51238 -1.17471 0
M  V30 28729 H 2649.13 -1.12564 -3.75282 0
M  V30 28730 H 2650.83 -1.51493 -3.71283 0
M  V30 28731 H 2647.42 -2.85311 -3.19837 0
M  V30 28732 H 2651.6 -3.83278 -3.15297 0
M  V30 28733 H 2646.86 -5.24595 -3.14023 0
M  V30 28734 H 2651.03 -6.2327 -3.10656 0
M  V30 28735 H 2648.66 -6.94319 -3.09556 0
M  V30 28736 N 2650.23 1.19778 -1.02425 0
M  V30 28737 C 2651.46 1.9303 -0.736421 0
M  V30 28738 C 2651.87 1.75454 0.707992 0
M  V30 28739 O 2651.21 1.07074 1.49268 0
M  V30 28740 C 2651.28 3.45254 -1.00201 0
M  V30 28741 C 2650.94 3.86597 -2.43705 0
M  V30 28742 C 2651.94 3.91732 -3.41821 0
M  V30 28743 C 2649.62 4.18367 -2.77982 0
M  V30 28744 C 2651.62 4.28062 -4.72273 0
M  V30 28745 C 2649.3 4.54371 -4.08644 0
M  V30 28746 C 2650.3 4.59192 -5.056 0
M  V30 28747 O 2649.99 4.94365 -6.33923 0
M  V30 28748 H 2649.72 0.620118 -0.269127 0
M  V30 28749 H 2652.28 1.52995 -1.37046 0
M  V30 28750 H 2650.51 3.85449 -0.310815 0
M  V30 28751 H 2652.19 3.99738 -0.704558 0
M  V30 28752 H 2652.96 3.67343 -3.16677 0
M  V30 28753 H 2648.84 4.13802 -2.03198 0
M  V30 28754 H 2652.38 4.3174 -5.47947 0
M  V30 28755 H 2648.28 4.78218 -4.33564 0
M  V30 28756 H 2649.05 5.1233 -6.38326 0
M  V30 28757 N 2651.71 0.801501 1.35697 0
M  V30 28758 C 2652.64 0.166069 2.28598 0
M  V30 28759 C 2653.66 -0.631694 1.50045 0
M  V30 28760 O 2654.85 -0.46489 1.7234 0
M  V30 28761 C 2651.95 -0.787393 3.29626 0
M  V30 28762 C 2651.12 -0.0370941 4.37384 0
M  V30 28763 C 2650.18 -0.908284 5.18302 0
M  V30 28764 O 2649.2 -0.361089 5.68054 0
M  V30 28765 N 2650.41 -2.23103 5.35915 0
M  V30 28766 H 2653.17 0.96412 2.83769 0
M  V30 28767 H 2650.73 0.656495 1.47992 0
M  V30 28768 H 2652.72 -1.37432 3.8065 0
M  V30 28769 H 2651.29 -1.48627 2.75007 0
M  V30 28770 H 2650.51 0.731003 3.87363 0
M  V30 28771 H 2651.8 0.480198 5.06529 0
M  V30 28772 H 2651.2 -2.69959 4.9713 0
M  V30 28773 H 2649.76 -2.76731 5.90138 0
M  V30 28774 N 2653.19 -1.47521 0.554558 0
M  V30 28775 C 2654.12 -2.28022 -0.232066 0
M  V30 28776 C 2655.13 -1.36848 -0.881841 0
M  V30 28777 O 2656.32 -1.61693 -0.75614 0
M  V30 28778 C 2653.42 -3.11025 -1.34599 0
M  V30 28779 C 2652.6 -4.30142 -0.793506 0
M  V30 28780 C 2651.66 -4.94761 -1.79159 0
M  V30 28781 O 2650.68 -5.53232 -1.33876 0
M  V30 28782 N 2651.88 -4.89216 -3.12486 0
M  V30 28783 H 2654.65 -2.96173 0.458459 0
M  V30 28784 H 2652.21 -1.57121 0.390461 0
M  V30 28785 H 2654.2 -3.51121 -2.01236 0
M  V30 28786 H 2652.77 -2.45134 -1.93979 0
M  V30 28787 H 2651.99 -3.94169 0.0495718 0
M  V30 28788 H 2653.28 -5.07196 -0.403686 0
M  V30 28789 H 2652.68 -4.42907 -3.51923 0
M  V30 28790 H 2651.23 -5.3334 -3.74689 0
M  V30 28791 N 2654.67 -0.290879 -1.54892 0
M  V30 28792 C 2655.6 0.583044 -2.26104 0
M  V30 28793 C 2656.58 1.14617 -1.25686 0
M  V30 28794 O 2657.76 1.17739 -1.54439 0
M  V30 28795 C 2654.89 1.75982 -2.99412 0
M  V30 28796 C 2653.85 1.32751 -4.06892 0
M  V30 28797 C 2653.17 2.58864 -4.67861 0
M  V30 28798 C 2654.47 0.466148 -5.20216 0
M  V30 28799 H 2656.17 -0.0108741 -2.99398 0
M  V30 28800 H 2653.71 -0.00666999 -1.43998 0
M  V30 28801 H 2655.67 2.3772 -3.47947 0
M  V30 28802 H 2654.39 2.37981 -2.23679 0
M  V30 28803 H 2653.05 0.733236 -3.59192 0
M  V30 28804 H 2652.7 3.19156 -3.88778 0
M  V30 28805 H 2652.4 2.30644 -5.40442 0
M  V30 28806 H 2653.92 3.21424 -5.19152 0
M  V30 28807 H 2655.34 0.988948 -5.64706 0
M  V30 28808 H 2653.73 0.278155 -5.99455 0
M  V30 28809 H 2654.8 -0.511257 -4.82197 0
M  V30 28810 N 2656.15 1.57589 -0.0184203 0
M  V30 28811 C 2657.1 2.06058 0.975908 0
M  V30 28812 C 2658.08 0.958931 1.29203 0
M  V30 28813 O 2659.27 1.22257 1.27993 0
M  V30 28814 C 2656.4 2.58251 2.26189 0
M  V30 28815 C 2655.49 3.75327 1.97461 0
M  V30 28816 N 2655.88 4.86337 1.3896 0
M  V30 28817 C 2654.18 3.83609 2.27509 0
M  V30 28818 C 2654.88 5.6764 1.27121 0
M  V30 28819 N 2653.85 5.14214 1.7631 0
M  V30 28820 H 2657.65 2.89292 0.518393 0
M  V30 28821 H 2655.17 1.61321 0.186851 0
M  V30 28822 H 2657.17 2.9126 2.98284 0
M  V30 28823 H 2655.83 1.76443 2.72577 0
M  V30 28824 H 2656.84 5.06811 1.06599 0
M  V30 28825 H 2653.51 3.12689 2.76644 0
M  V30 28826 H 2654.9 6.6688 0.819765 0
M  V30 28827 N 2657.62 -0.254594 1.5553 0
M  V30 28828 C 2658.53 -1.33674 1.92791 0
M  V30 28829 C 2659.55 -1.5307 0.827383 0
M  V30 28830 O 2660.73 -1.66841 1.1281 0
M  V30 28831 C 2657.79 -2.67272 2.20832 0
M  V30 28832 C 2656.85 -2.56464 3.44274 0
M  V30 28833 C 2656.08 -3.83691 3.70968 0
M  V30 28834 O 2656.31 -4.85221 2.99861 0
M  V30 28835 O 2655.24 -3.82786 4.64498 0
M  V30 28836 H 2659.07 -1.05066 2.84947 0
M  V30 28837 H 2656.65 -0.454698 1.42313 0
M  V30 28838 H 2658.53 -3.46233 2.4021 0
M  V30 28839 H 2657.21 -2.95627 1.31856 0
M  V30 28840 H 2656.12 -1.75815 3.30212 0
M  V30 28841 H 2657.45 -2.33055 4.33528 0
M  V30 28842 N 2659.1 -1.48777 -0.519925 0
M  V30 28843 C 2660.03 -1.60145 -1.6397 0
M  V30 28844 C 2661.05 -0.485145 -1.55403 0
M  V30 28845 O 2662.24 -0.756419 -1.6168 0
M  V30 28846 C 2659.34 -1.52454 -3.02673 0
M  V30 28847 C 2658.51 -2.79297 -3.36619 0
M  V30 28848 C 2657.57 -2.6492 -4.54647 0
M  V30 28849 O 2656.59 -3.38826 -4.57368 0
M  V30 28850 N 2657.8 -1.75204 -5.53429 0
M  V30 28851 H 2660.56 -2.56716 -1.54651 0
M  V30 28852 H 2658.12 -1.45627 -0.707413 0
M  V30 28853 H 2660.11 -1.40517 -3.79522 0
M  V30 28854 H 2658.68 -0.638179 -3.06016 0
M  V30 28855 H 2657.9 -3.05725 -2.4885 0
M  V30 28856 H 2659.19 -3.63427 -3.56088 0
M  V30 28857 H 2658.59 -1.14381 -5.54016 0
M  V30 28858 H 2657.15 -1.69201 -6.29456 0
M  V30 28859 N 2660.58 0.769564 -1.37534 0
M  V30 28860 C 2661.53 1.88291 -1.33474 0
M  V30 28861 C 2662.5 1.64892 -0.19992 0
M  V30 28862 O 2663.68 1.86779 -0.389627 0
M  V30 28863 C 2660.82 3.25384 -1.14974 0
M  V30 28864 C 2659.93 3.60722 -2.37704 0
M  V30 28865 C 2659.07 4.87036 -2.1206 0
M  V30 28866 C 2658.11 5.15112 -3.30646 0
M  V30 28867 N 2657.25 6.32615 -3.04538 0
M  V30 28868 H 2662.09 1.91096 -2.28662 0
M  V30 28869 H 2659.62 0.934238 -1.13624 0
M  V30 28870 H 2661.58 4.04471 -1.02268 0
M  V30 28871 H 2660.21 3.21948 -0.23432 0
M  V30 28872 H 2659.26 2.76603 -2.61142 0
M  V30 28873 H 2660.57 3.77407 -3.26137 0
M  V30 28874 H 2659.73 5.74032 -1.96398 0
M  V30 28875 H 2658.47 4.7246 -1.20968 0
M  V30 28876 H 2657.47 4.26591 -3.46844 0
M  V30 28877 H 2658.7 5.31595 -4.22591 0
M  V30 28878 H 2656.64 6.19392 -2.16077 0
M  V30 28879 H 2656.56 6.49725 -3.86515 0
M  V30 28880 H 2657.83 7.22541 -2.92498 0
M  V30 28881 N 2662.06 1.22139 0.995977 0
M  V30 28882 C 2663.01 0.988723 2.0855 0
M  V30 28883 C 2663.98 -0.0884729 1.65864 0
M  V30 28884 O 2665.16 0.0604924 1.90704 0
M  V30 28885 C 2662.3 0.569251 3.40373 0
M  V30 28886 C 2661.41 1.71688 3.96418 0
M  V30 28887 C 2660.55 1.24569 5.16387 0
M  V30 28888 C 2659.59 2.36507 5.64563 0
M  V30 28889 N 2658.72 1.90457 6.75774 0
M  V30 28890 H 2663.56 1.92139 2.27787 0
M  V30 28891 H 2661.1 0.957408 1.11679 0
M  V30 28892 H 2663.06 0.307239 4.16067 0
M  V30 28893 H 2661.69 -0.326406 3.21146 0
M  V30 28894 H 2660.74 2.0933 3.17624 0
M  V30 28895 H 2662.05 2.55899 4.28156 0
M  V30 28896 H 2661.21 0.940879 5.9936 0
M  V30 28897 H 2659.95 0.373747 4.86266 0
M  V30 28898 H 2658.95 2.67781 4.80181 0
M  V30 28899 H 2660.18 3.24212 5.9671 0
M  V30 28900 H 2658.12 1.0562 6.47441 0
M  V30 28901 H 2658.04 2.68236 7.06814 0
M  V30 28902 H 2659.31 1.63036 7.6226 0
M  V30 28903 N 2663.54 -1.19233 1.03059 0
M  V30 28904 C 2664.76 -1.93457 0.747604 0
M  V30 28905 C 2665.19 -1.75081 -0.687617 0
M  V30 28906 O 2664.54 -1.05425 -1.47497 0
M  V30 28907 C 2664.59 -3.43217 1.10611 0
M  V30 28908 O 2663.7 -4.11782 0.225743 0
M  V30 28909 H 2663.04 -0.603894 0.276057 0
M  V30 28910 H 2665.57 -1.51261 1.37773 0
M  V30 28911 H 2665.58 -3.93889 1.06373 0
M  V30 28912 H 2664.25 -3.55913 2.15171 0
M  V30 28913 H 2662.83 -3.71465 0.32686 0
M  V30 28914 N 2665.01 -0.808686 -1.3527 0
M  V30 28915 C 2665.92 -0.222121 -2.33546 0
M  V30 28916 C 2666.94 0.635982 -1.61961 0
M  V30 28917 O 2668.12 0.547239 -1.93823 0
M  V30 28918 C 2665.18 0.61789 -3.4115 0
M  V30 28919 C 2664.24 -0.26095 -4.28506 0
M  V30 28920 C 2663.48 0.539063 -5.30971 0
M  V30 28921 O 2663.7 1.77358 -5.42126 0
M  V30 28922 O 2662.63 -0.0711584 -6.01858 0
M  V30 28923 H 2666.46 -1.03517 -2.85514 0
M  V30 28924 H 2664.04 -0.570519 -1.38078 0
M  V30 28925 H 2665.93 1.09627 -4.0689 0
M  V30 28926 H 2664.6 1.4085 -2.9145 0
M  V30 28927 H 2663.51 -0.786516 -3.65739 0
M  V30 28928 H 2664.84 -1.01556 -4.81609 0
M  V30 28929 N 2666.49 1.47225 -0.562374 0
M  V30 28930 C 2667.44 2.30078 0.182421 0
M  V30 28931 C 2668.41 1.39379 0.903478 0
M  V30 28932 O 2669.59 1.68338 0.898158 0
M  V30 28933 C 2666.73 3.23447 1.20316 0
M  V30 28934 C 2665.85 4.29239 0.487642 0
M  V30 28935 C 2664.98 5.09754 1.49413 0
M  V30 28936 C 2664.02 6.07315 0.76387 0
M  V30 28937 N 2663.16 6.80771 1.71743 0
M  V30 28938 H 2668 2.93245 -0.530221 0
M  V30 28939 H 2665.54 1.44539 -0.273302 0
M  V30 28940 H 2667.49 3.76007 1.80761 0
M  V30 28941 H 2666.12 2.62133 1.88377 0
M  V30 28942 H 2665.18 3.79695 -0.23144 0
M  V30 28943 H 2666.49 4.98729 -0.0841879 0
M  V30 28944 H 2665.64 5.6649 2.17196 0
M  V30 28945 H 2664.38 4.40178 2.09988 0
M  V30 28946 H 2663.39 5.49753 0.0721378 0
M  V30 28947 H 2664.61 6.78902 0.163791 0
M  V30 28948 H 2662.56 6.1392 2.31166 0
M  V30 28949 H 2662.47 7.46449 1.19789 0
M  V30 28950 H 2663.74 7.42077 2.38625 0
M  V30 28951 N 2667.97 0.299089 1.54736 0
M  V30 28952 C 2669.22 -0.310748 2.00101 0
M  V30 28953 C 2669.55 -1.54042 1.18748 0
M  V30 28954 O 2668.8 -1.94081 0.251232 0
M  V30 28955 C 2669.1 -0.713773 3.502 0
M  V30 28956 C 2668.77 0.413952 4.48996 0
M  V30 28957 C 2667.43 0.723546 4.75729 0
M  V30 28958 C 2669.78 1.17266 5.07837 0
M  V30 28959 C 2667.11 1.795 5.58566 0
M  V30 28960 C 2669.46 2.23402 5.9184 0
M  V30 28961 C 2668.12 2.5497 6.16885 0
M  V30 28962 H 2667.39 -0.113711 0.732223 0
M  V30 28963 H 2670.04 0.417789 1.86887 0
M  V30 28964 H 2668.35 -1.52237 3.61014 0
M  V30 28965 H 2670.04 -1.19677 3.82725 0
M  V30 28966 H 2666.63 0.162551 4.28292 0
M  V30 28967 H 2670.82 0.946737 4.87186 0
M  V30 28968 H 2666.07 2.04433 5.76209 0
M  V30 28969 H 2670.25 2.82651 6.3646 0
M  V30 28970 H 2667.87 3.38126 6.80863 0
M  V30 28971 N 2669.45 -1.57577 0.0267774 0
M  V30 28972 C 2670.7 -1.91704 -0.652371 0
M  V30 28973 C 2671.02 -0.902967 -1.72269 0
M  V30 28974 O 2670.28 0.08845 -1.955 0
M  V30 28975 C 2670.58 -3.32562 -1.30909 0
M  V30 28976 C 2670.24 -4.49385 -0.369362 0
M  V30 28977 C 2668.91 -4.81073 -0.110707 0
M  V30 28978 C 2671.26 -5.20468 0.276063 0
M  V30 28979 C 2668.59 -5.81203 0.801218 0
M  V30 28980 C 2670.94 -6.21572 1.17603 0
M  V30 28981 C 2669.6 -6.51703 1.4436 0
M  V30 28982 H 2668.87 -0.701494 -0.238719 0
M  V30 28983 H 2671.52 -1.91298 0.0880428 0
M  V30 28984 H 2669.82 -3.29219 -2.12419 0
M  V30 28985 H 2671.52 -3.56237 -1.84109 0
M  V30 28986 H 2668.11 -4.24642 -0.581137 0
M  V30 28987 H 2672.29 -4.9622 0.0892872 0
M  V30 28988 H 2667.55 -6.02895 1.01625 0
M  V30 28989 H 2671.72 -6.75774 1.68235 0
M  V30 28990 H 2669.35 -7.29108 2.15188 0
M  V30 28991 N 2670.93 0.246342 -1.55663 0
M  V30 28992 C 2671.87 1.30501 -1.90363 0
M  V30 28993 C 2672.84 1.47799 -0.757931 0
M  V30 28994 O 2674.03 1.61773 -1.01163 0
M  V30 28995 C 2671.17 2.65531 -2.20425 0
M  V30 28996 C 2670.28 2.56236 -3.47803 0
M  V30 28997 C 2669.42 3.83623 -3.67433 0
M  V30 28998 C 2668.46 3.68948 -4.8841 0
M  V30 28999 N 2667.59 4.88228 -5.04557 0
M  V30 29000 H 2672.43 1.00208 -2.80646 0
M  V30 29001 H 2669.97 0.483553 -1.38925 0
M  V30 29002 H 2671.93 3.44131 -2.35859 0
M  V30 29003 H 2670.56 2.93971 -1.33345 0
M  V30 29004 H 2669.61 1.69202 -3.40697 0
M  V30 29005 H 2670.92 2.41302 -4.36549 0
M  V30 29006 H 2670.08 4.70666 -3.82829 0
M  V30 29007 H 2668.81 4.01455 -2.76921 0
M  V30 29008 H 2667.82 2.80288 -4.72989 0
M  V30 29009 H 2669.04 3.5261 -5.80381 0
M  V30 29010 H 2666.99 5.0642 -4.16983 0
M  V30 29011 H 2666.91 4.75927 -5.87392 0
M  V30 29012 H 2668.18 5.76768 -5.24365 0
M  V30 29013 N 2672.4 1.4905 0.512027 0
M  V30 29014 C 2673.65 1.58214 1.26871 0
M  V30 29015 C 2673.98 0.263107 1.92409 0
M  V30 29016 O 2673.26 -0.732444 1.80182 0
M  V30 29017 C 2673.54 2.73345 2.34424 0
M  V30 29018 C 2673.39 4.15009 1.73459 0
M  V30 29019 C 2674.71 2.84159 3.36068 0
M  V30 29020 H 2671.83 0.575889 0.459914 0
M  V30 29021 H 2674.47 1.81294 0.568556 0
M  V30 29022 H 2672.62 2.53797 2.94142 0
M  V30 29023 H 2674.3 4.46044 1.17653 0
M  V30 29024 H 2672.54 4.2117 1.03914 0
M  V30 29025 H 2673.21 4.9142 2.51417 0
M  V30 29026 H 2675.69 3.01921 2.86327 0
M  V30 29027 H 2674.56 3.66413 4.08696 0
M  V30 29028 H 2674.82 1.93054 3.97721 0
M  V30 29029 N 2673.88 -0.762259 1.3794 0
M  V30 29030 C 2674.81 -1.88955 1.3718 0
M  V30 29031 C 2675.79 -1.68413 0.238974 0
M  V30 29032 O 2676.98 -1.89132 0.44076 0
M  V30 29033 C 2674.11 -3.26368 1.18748 0
M  V30 29034 C 2673.06 -3.61494 2.29142 0
M  V30 29035 C 2672.39 -4.97551 1.95824 0
M  V30 29036 C 2673.69 -3.67263 3.71369 0
M  V30 29037 H 2675.38 -1.89848 2.31512 0
M  V30 29038 H 2672.93 -0.911985 1.1144 0
M  V30 29039 H 2674.88 -4.04877 1.16844 0
M  V30 29040 H 2673.61 -3.25932 0.208741 0
M  V30 29041 H 2672.26 -2.85298 2.30218 0
M  V30 29042 H 2671.91 -4.93665 0.964561 0
M  V30 29043 H 2671.61 -5.22022 2.69754 0
M  V30 29044 H 2673.14 -5.78449 1.95524 0
M  V30 29045 H 2674.55 -4.35904 3.72372 0
M  V30 29046 H 2672.95 -4.03238 4.44432 0
M  V30 29047 H 2674.02 -2.67697 4.0431 0
M  V30 29048 N 2675.36 -1.22666 -0.989486 0
M  V30 29049 C 2676.59 -1.07813 -1.76238 0
M  V30 29050 C 2677 0.374003 -1.85467 0
M  V30 29051 O 2676.34 1.27085 -1.32647 0
M  V30 29052 C 2676.4 -1.61855 -3.21004 0
M  V30 29053 C 2676.07 -3.10509 -3.35311 0
M  V30 29054 C 2677.06 -4.07901 -3.22354 0
M  V30 29055 C 2674.75 -3.50034 -3.60252 0
M  V30 29056 C 2676.74 -5.42804 -3.34129 0
M  V30 29057 C 2674.43 -4.85084 -3.71667 0
M  V30 29058 C 2675.43 -5.81278 -3.58615 0
M  V30 29059 O 2675.12 -7.13876 -3.69643 0
M  V30 29060 H 2674.85 -0.378351 -0.560202 0
M  V30 29061 H 2677.4 -1.62794 -1.25249 0
M  V30 29062 H 2675.63 -1.01285 -3.732 0
M  V30 29063 H 2677.32 -1.42613 -3.80021 0
M  V30 29064 H 2678.09 -3.78709 -3.02993 0
M  V30 29065 H 2673.97 -2.75682 -3.69487 0
M  V30 29066 H 2677.51 -6.17869 -3.23858 0
M  V30 29067 H 2673.41 -5.13957 -3.90536 0
M  V30 29068 H 2674.18 -7.21501 -3.86494 0
M  V30 29069 N 2676.84 1.18685 -1.0369 0
M  V30 29070 C 2678.12 1.84398 -0.652429 0
M  V30 29071 C 2678.5 1.92413 0.868352 0
M  V30 29072 O 2677.84 1.44719 1.7683 0
M  V30 29073 C 2678.05 3.22917 -1.32385 0
M  V30 29074 C 2679.4 3.98993 -1.45223 0
M  V30 29075 O 2680.43 3.32343 -1.28166 0
M  V30 29076 O 2679.29 5.184 -1.72984 0
M  V30 29077 H 2676.38 0.795005 -0.227806 0
M  V30 29078 H 2678.93 1.26108 -1.13555 0
M  V30 29079 H 2677.7 3.11964 -2.36208 0
M  V30 29080 H 2677.32 3.88859 -0.829107 0
M  V30 29081 N 2678.32 0.815849 1.34839 0
M  V30 29082 C 2679.73 0.500724 1.51542 0
M  V30 29083 C 2679.93 -0.976413 1.76262 0
M  V30 29084 O 2678.99 -1.76114 1.80943 0
M  V30 29085 C 2680.3 1.35412 2.68485 0
M  V30 29086 C 2681.85 1.35051 2.82365 0
M  V30 29087 C 2682.33 2.18823 4.02344 0
M  V30 29088 N 2683.82 2.16409 4.09538 0
M  V30 29089 C 2684.55 2.7798 5.01512 0
M  V30 29090 N 2684.05 3.48514 5.98757 0
M  V30 29091 N 2685.84 2.67572 4.94329 0
M  V30 29092 H 2677.99 1.77236 1.17052 0
M  V30 29093 H 2680.25 0.754876 0.573468 0
M  V30 29094 H 2679.96 2.40279 2.56825 0
M  V30 29095 H 2679.83 1.01384 3.6332 0
M  V30 29096 H 2682.22 0.309655 2.93471 0
M  V30 29097 H 2682.3 1.73072 1.8836 0
M  V30 29098 H 2681.95 3.22955 3.91998 0
M  V30 29099 H 2681.88 1.78157 4.95548 0
M  V30 29100 H 2684.37 1.65096 3.39929 0
M  V30 29101 H 2684.68 3.92758 6.65553 0
M  V30 29102 H 2683.03 3.5262 5.98903 0
M  V30 29103 H 2686.22 2.12049 4.17316 0
M  V30 29104 H 2686.39 3.15844 5.65815 0
M  V30 29105 N 2679.8 -1.46924 0.570174 0
M  V30 29106 C 2680.73 -2.27153 -0.218322 0
M  V30 29107 C 2681.71 -1.34856 -0.908447 0
M  V30 29108 O 2682.89 -1.64252 -0.924846 0
M  V30 29109 C 2680.02 -3.1225 -1.31215 0
M  V30 29110 C 2679.06 -4.2022 -0.729203 0
M  V30 29111 S 2679.9 -5.33736 0.434253 0
M  V30 29112 C 2681.05 -6.22399 -0.661078 0
M  V30 29113 H 2681.29 -2.93681 0.462444 0
M  V30 29114 H 2678.82 -1.50221 0.356779 0
M  V30 29115 H 2680.78 -3.61846 -1.9385 0
M  V30 29116 H 2679.44 -2.45059 -1.96481 0
M  V30 29117 H 2678.63 -4.79541 -1.55101 0
M  V30 29118 H 2678.23 -3.73572 -0.178771 0
M  V30 29119 H 2680.52 -6.59532 -1.54994 0
M  V30 29120 H 2681.47 -7.08022 -0.104921 0
M  V30 29121 H 2681.88 -5.56284 -0.959584 0
M  V30 29122 N 2681.27 -0.307291 -1.54575 0
M  V30 29123 C 2682.22 0.566001 -2.23752 0
M  V30 29124 C 2683.19 1.1246 -1.22237 0
M  V30 29125 O 2684.38 1.16796 -1.50875 0
M  V30 29126 C 2681.52 1.72897 -2.98665 0
M  V30 29127 C 2680.63 1.20117 -4.14965 0
M  V30 29128 C 2679.76 2.32851 -4.77445 0
M  V30 29129 C 2678.8 1.77236 -5.85879 0
M  V30 29130 N 2677.94 2.83569 -6.42287 0
M  V30 29131 H 2682.78 -0.0305102 -2.97984 0
M  V30 29132 H 2680.32 -0.0268273 -1.47076 0
M  V30 29133 H 2682.27 2.41307 -3.40333 0
M  V30 29134 H 2680.9 2.29702 -2.26797 0
M  V30 29135 H 2679.96 0.409132 -3.78193 0
M  V30 29136 H 2681.27 0.754084 -4.93067 0
M  V30 29137 H 2680.42 3.09196 -5.21999 0
M  V30 29138 H 2679.16 2.80889 -3.98689 0
M  V30 29139 H 2678.17 0.993831 -5.40743 0
M  V30 29140 H 2679.39 1.30095 -6.66522 0
M  V30 29141 H 2677.34 3.30929 -5.66412 0
M  V30 29142 H 2677.25 2.43375 -7.15755 0
M  V30 29143 H 2678.52 3.59792 -6.91498 0
M  V30 29144 N 2682.75 1.57561 -0.0351337 0
M  V30 29145 C 2683.71 2.09494 0.929782 0
M  V30 29146 C 2684.71 1.01121 1.25024 0
M  V30 29147 O 2685.9 1.27258 1.18959 0
M  V30 29148 C 2683.04 2.56581 2.24452 0
M  V30 29149 H 2684.23 2.96036 0.479883 0
M  V30 29150 H 2681.78 1.54842 0.213005 0
M  V30 29151 H 2682.52 1.73386 2.74058 0
M  V30 29152 H 2682.3 3.35761 2.02502 0
M  V30 29153 H 2683.79 2.96964 2.93602 0
M  V30 29154 N 2684.23 -0.238084 1.55791 0
M  V30 29155 C 2685.19 -1.27832 1.90241 0
M  V30 29156 C 2686.19 -1.40639 0.779577 0
M  V30 29157 O 2687.38 -1.39188 1.04749 0
M  V30 29158 C 2684.51 -2.65471 2.13864 0
M  V30 29159 H 2685.71 -0.984984 2.83263 0
M  V30 29160 H 2683.26 -0.477772 1.48819 0
M  V30 29161 H 2684 -2.9993 1.23339 0
M  V30 29162 H 2683.78 -2.57555 2.95648 0
M  V30 29163 H 2685.27 -3.40566 2.4167 0
M  V30 29164 N 2685.71 -1.4932 -0.504115 0
M  V30 29165 C 2686.64 -1.61875 -1.62262 0
M  V30 29166 C 2687.65 -0.5016 -1.5488 0
M  V30 29167 O 2688.84 -0.773525 -1.60869 0
M  V30 29168 C 2685.94 -1.55656 -3.01039 0
M  V30 29169 C 2685.11 -2.82851 -3.33637 0
M  V30 29170 C 2684.17 -2.69727 -4.51812 0
M  V30 29171 O 2683.2 -3.43658 -4.53749 0
M  V30 29172 N 2684.4 -1.81064 -5.5154 0
M  V30 29173 H 2687.17 -2.58342 -1.5192 0
M  V30 29174 H 2684.73 -1.46369 -0.691928 0
M  V30 29175 H 2686.72 -1.44534 -3.7801 0
M  V30 29176 H 2685.29 -0.6706 -3.05322 0
M  V30 29177 H 2684.51 -3.08347 -2.45593 0
M  V30 29178 H 2685.8 -3.67183 -3.52213 0
M  V30 29179 H 2685.2 -1.20251 -5.52771 0
M  V30 29180 H 2683.75 -1.75867 -6.27626 0
M  V30 29181 N 2687.19 0.754933 -1.38342 0
M  V30 29182 C 2688.13 1.86865 -1.35463 0
M  V30 29183 C 2689.1 1.64671 -0.217398 0
M  V30 29184 O 2690.29 1.86356 -0.409416 0
M  V30 29185 C 2687.43 3.24147 -1.18418 0
M  V30 29186 C 2686.54 3.58181 -2.41517 0
M  V30 29187 C 2685.68 4.8476 -2.17213 0
M  V30 29188 C 2684.71 5.11576 -3.3609 0
M  V30 29189 N 2683.85 6.29349 -3.1123 0
M  V30 29190 H 2688.69 1.8866 -2.30676 0
M  V30 29191 H 2686.23 0.922134 -1.14608 0
M  V30 29192 H 2688.19 4.03364 -1.06552 0
M  V30 29193 H 2686.82 3.21682 -0.268453 0
M  V30 29194 H 2685.87 2.73818 -2.64061 0
M  V30 29195 H 2687.18 3.73926 -3.30122 0
M  V30 29196 H 2686.33 5.71917 -2.02475 0
M  V30 29197 H 2685.07 4.7115 -1.25972 0
M  V30 29198 H 2684.08 4.22888 -3.51349 0
M  V30 29199 H 2685.3 5.27083 -4.28206 0
M  V30 29200 H 2683.25 6.17065 -2.22635 0
M  V30 29201 H 2683.17 6.45589 -3.93384 0
M  V30 29202 H 2684.43 7.19398 -3.00145 0
M  V30 29203 N 2688.66 1.23189 0.982967 0
M  V30 29204 C 2689.57 1.02743 2.10905 0
M  V30 29205 C 2690.59 -0.0272883 1.73979 0
M  V30 29206 O 2691.77 0.167605 2.00701 0
M  V30 29207 C 2688.83 0.618364 3.41141 0
M  V30 29208 C 2687.89 1.74784 3.92109 0
M  V30 29209 C 2687.12 1.35819 5.16129 0
M  V30 29210 O 2687.35 0.241301 5.69889 0
M  V30 29211 O 2686.28 2.17834 5.61099 0
M  V30 29212 H 2690.11 1.97112 2.31042 0
M  V30 29213 H 2687.69 1.01871 1.09282 0
M  V30 29214 H 2689.57 0.401056 4.19487 0
M  V30 29215 H 2688.25 -0.296364 3.2234 0
M  V30 29216 H 2687.16 2.01976 3.14891 0
M  V30 29217 H 2688.49 2.64079 4.15359 0
M  V30 29218 N 2690.14 -1.18133 1.04318 0
M  V30 29219 C 2691.39 -1.87508 0.743223 0
M  V30 29220 C 2691.7 -1.81382 -0.732104 0
M  V30 29221 O 2692.91 -2.46143 -1.14567 0
M  V30 29222 C 2691.37 -3.364 1.27919 0
M  V30 29223 C 2690.97 -3.51048 2.78333 0
M  V30 29224 C 2692.72 -4.11159 1.05588 0
M  V30 29225 C 2690.62 -4.93914 3.25274 0
M  V30 29226 H 2689.55 -0.702326 0.274325 0
M  V30 29227 H 2692.21 -1.33465 1.25934 0
M  V30 29228 H 2690.59 -3.89926 0.690922 0
M  V30 29229 H 2691.76 -3.07782 3.42939 0
M  V30 29230 H 2690.08 -2.89698 2.99105 0
M  V30 29231 H 2692.67 -5.1654 1.3817 0
M  V30 29232 H 2693.02 -4.16299 -0.00677412 0
M  V30 29233 H 2693.55 -3.63813 1.60889 0
M  V30 29234 H 2690.29 -4.93943 4.3093 0
M  V30 29235 H 2689.81 -5.37885 2.65405 0
M  V30 29236 H 2691.49 -5.62641 3.19443 0
M  V30 29237 N 2691.62 -0.822988 -1.34405 0
M  V30 29238 C 2693.04 -0.508753 -1.51274 0
M  V30 29239 C 2693.24 0.967052 -1.76778 0
M  V30 29240 O 2692.29 1.75152 -1.81874 0
M  V30 29241 C 2693.61 -1.36834 -2.67763 0
M  V30 29242 C 2695.15 -1.36547 -2.81645 0
M  V30 29243 C 2695.63 -2.20954 -4.01177 0
M  V30 29244 N 2697.12 -2.18578 -4.08385 0
M  V30 29245 C 2697.85 -2.80636 -5.00031 0
M  V30 29246 N 2697.35 -3.51684 -5.969 0
M  V30 29247 N 2699.14 -2.7019 -4.92904 0
M  V30 29248 H 2691.29 -1.77854 -1.1611 0
M  V30 29249 H 2693.56 -0.757907 -0.569457 0
M  V30 29250 H 2693.26 -2.41637 -2.55547 0
M  V30 29251 H 2693.14 -1.03309 -3.62777 0
M  V30 29252 H 2695.52 -0.325214 -2.93303 0
M  V30 29253 H 2695.61 -1.74069 -1.8744 0
M  V30 29254 H 2695.25 -3.25029 -3.9028 0
M  V30 29255 H 2695.18 -1.80782 -4.94596 0
M  V30 29256 H 2697.67 -1.66897 -3.39048 0
M  V30 29257 H 2697.98 -3.96283 -6.63461 0
M  V30 29258 H 2696.33 -3.55791 -5.97024 0
M  V30 29259 H 2699.52 -2.14259 -4.16186 0
M  V30 29260 H 2699.69 -3.18841 -5.64132 0
M  V30 29261 N 2693.1 1.4662 -0.577957 0
M  V30 29262 C 2694.32 2.07297 -0.06529 0
M  V30 29263 C 2694.75 1.42462 1.22826 0
M  V30 29264 O 2694.11 0.506748 1.74074 0
M  V30 29265 C 2694.15 3.60483 0.0919955 0
M  V30 29266 O 2693.26 3.96051 1.14965 0
M  V30 29267 H 2692.6 0.661223 -0.0606616 0
M  V30 29268 H 2695.13 1.88331 -0.799548 0
M  V30 29269 H 2695.14 4.06898 0.299669 0
M  V30 29270 H 2693.81 4.07065 -0.852683 0
M  V30 29271 H 2692.39 3.61352 0.920815 0
M  V30 29272 N 2694.58 0.315484 1.5441 0
M  V30 29273 C 2695.8 -0.291702 2.04833 0
M  V30 29274 C 2696.22 -1.46409 1.19206 0
M  V30 29275 O 2695.58 -1.81158 0.220899 0
M  V30 29276 C 2695.63 -0.733978 3.5397 0
M  V30 29277 O 2695.35 0.391758 4.36345 0
M  V30 29278 C 2696.85 -1.40481 4.20452 0
M  V30 29279 H 2694.07 -0.061283 0.668196 0
M  V30 29280 H 2696.61 0.459325 1.99275 0
M  V30 29281 H 2694.77 -1.435 3.59842 0
M  V30 29282 H 2695.18 0.044801 5.24481 0
M  V30 29283 H 2696.66 -1.66529 5.26281 0
M  V30 29284 H 2697.13 -2.34954 3.71071 0
M  V30 29285 H 2697.74 -0.746588 4.18696 0
M  V30 29286 N 2696.05 -1.5754 0.0434891 0
M  V30 29287 C 2697.3 -1.9267 -0.632937 0
M  V30 29288 C 2697.63 -0.921476 -1.70946 0
M  V30 29289 O 2696.91 0.053686 -1.94426 0
M  V30 29290 C 2697.19 -3.38218 -1.23613 0
M  V30 29291 C 2697.04 -4.49485 -0.168195 0
M  V30 29292 C 2698.36 -3.84008 -2.15001 0
M  V30 29293 H 2695.48 -0.700645 -0.228616 0
M  V30 29294 H 2698.12 -1.89717 0.103685 0
M  V30 29295 H 2696.27 -3.40866 -1.86394 0
M  V30 29296 H 2697.95 -4.58968 0.463277 0
M  V30 29297 H 2696.19 -4.30855 0.504657 0
M  V30 29298 H 2696.86 -5.48392 -0.630122 0
M  V30 29299 H 2699.34 -3.83188 -1.62191 0
M  V30 29300 H 2698.21 -4.86516 -2.54153 0
M  V30 29301 H 2698.47 -3.20328 -3.04701 0
M  V30 29302 N 2697.53 0.229818 -1.55915 0
M  V30 29303 C 2698.76 0.97253 -1.82618 0
M  V30 29304 C 2699.18 1.78277 -0.62152 0
M  V30 29305 O 2698.53 1.77837 0.409925 0
M  V30 29306 C 2698.58 1.89674 -3.07744 0
M  V30 29307 O 2698.3 1.11926 -4.23561 0
M  V30 29308 C 2699.81 2.75403 -3.47373 0
M  V30 29309 H 2697.03 0.285408 -0.607275 0
M  V30 29310 H 2699.57 0.247543 -2.02996 0
M  V30 29311 H 2697.72 2.57578 -2.89365 0
M  V30 29312 H 2698.14 1.7459 -4.94589 0
M  V30 29313 H 2699.61 3.35969 -4.37982 0
M  V30 29314 H 2700.09 3.47381 -2.68743 0
M  V30 29315 H 2700.7 2.12925 -3.68162 0
M  V30 29316 N 2699.01 1.49585 0.49619 0
M  V30 29317 C 2700.26 1.59551 1.25186 0
M  V30 29318 C 2700.59 0.2835 1.9212 0
M  V30 29319 O 2699.86 -0.713292 1.80949 0
M  V30 29320 C 2700.15 2.75816 2.31511 0
M  V30 29321 C 2700 4.16825 1.69047 0
M  V30 29322 C 2701.32 2.87708 3.33035 0
M  V30 29323 H 2698.44 0.580735 0.45378 0
M  V30 29324 H 2701.08 1.81887 0.549295 0
M  V30 29325 H 2699.23 2.56902 2.91433 0
M  V30 29326 H 2700.9 4.47267 1.12915 0
M  V30 29327 H 2699.15 4.22249 0.994411 0
M  V30 29328 H 2699.82 4.94059 2.46191 0
M  V30 29329 H 2702.29 3.04941 2.83109 0
M  V30 29330 H 2701.17 3.70727 4.04787 0
M  V30 29331 H 2701.43 1.97262 3.95652 0
M  V30 29332 N 2700.49 -0.747586 1.3874 0
M  V30 29333 C 2701.44 -1.88281 1.36577 0
M  V30 29334 C 2702.43 -1.67534 0.250742 0
M  V30 29335 O 2703.64 -1.75029 0.420104 0
M  V30 29336 H 2700.01 -0.619562 0.426201 0
M  V30 29337 H 2701.98 -1.87222 2.32359 0
M  V30 29338 C 2700.73 -3.2583 1.21367 0
M  V30 29339 H 2700.05 -3.42384 2.0643 0
M  V30 29340 H 2701.49 -4.05491 1.23908 0
M  V30 29341 C 2699.95 -3.36807 -0.0789507 0
M  V30 29342 O 2700.48 -3.87632 -1.05378 0
M  V30 29343 N 2698.69 -2.90273 -0.137799 0
M  V30 29344 H 2698.24 -2.49103 0.656172 0
M  V30 29345 H 2698.19 -2.97998 -1.00223 0
M  V30 29346 N 2701.97 -1.23709 -0.97642 0
M  V30 29347 C 2703.19 -1.09836 -1.75339 0
M  V30 29348 C 2703.61 0.349852 -1.8553 0
M  V30 29349 O 2702.97 1.24183 -1.33735 0
M  V30 29350 C 2703.02 -1.72239 -3.1783 0
M  V30 29351 O 2702.74 -3.11397 -3.08162 0
M  V30 29352 C 2704.24 -1.63861 -4.11904 0
M  V30 29353 H 2701.46 -0.384185 -0.55013 0
M  V30 29354 H 2704 -1.6364 -1.22647 0
M  V30 29355 H 2702.16 -1.22459 -3.67536 0
M  V30 29356 H 2702.57 -3.41736 -3.97891 0
M  V30 29357 H 2704.05 -2.1222 -5.09575 0
M  V30 29358 H 2704.52 -0.598169 -4.35108 0
M  V30 29359 H 2705.13 -2.13026 -3.68103 0
M  V30 29360 N 2703.44 1.17579 -1.04943 0
M  V30 29361 C 2704.69 1.87111 -0.753156 0
M  V30 29362 C 2705.01 1.81768 0.722475 0
M  V30 29363 O 2706.21 2.46748 1.1326 0
M  V30 29364 C 2704.67 3.35717 -1.29701 0
M  V30 29365 C 2704.28 3.49567 -2.8019 0
M  V30 29366 C 2706.02 4.10593 -1.07767 0
M  V30 29367 C 2703.93 4.92182 -3.27889 0
M  V30 29368 H 2702.86 0.700861 -0.278046 0
M  V30 29369 H 2705.51 1.32795 -1.2664 0
M  V30 29370 H 2703.89 3.89554 -0.711591 0
M  V30 29371 H 2705.06 3.05959 -3.44566 0
M  V30 29372 H 2703.38 2.88108 -3.00637 0
M  V30 29373 H 2705.98 5.158 -1.40908 0
M  V30 29374 H 2706.32 4.16297 -0.0153033 0
M  V30 29375 H 2706.85 3.62954 -1.62816 0
M  V30 29376 H 2703.59 4.9165 -4.33544 0
M  V30 29377 H 2703.11 5.3647 -2.68254 0
M  V30 29378 H 2704.79 5.60939 -3.22422 0
M  V30 29379 N 2704.92 0.830104 1.33967 0
M  V30 29380 C 2706.2 0.343892 1.92553 0
M  V30 29381 C 2706.58 -1.16968 1.75732 0
M  V30 29382 O 2705.93 -1.98009 1.14038 0
M  V30 29383 C 2706.14 0.781133 3.40146 0
M  V30 29384 C 2707.49 0.784093 4.17297 0
M  V30 29385 O 2708.51 0.724173 3.48761 0
M  V30 29386 O 2707.37 0.863834 5.3963 0
M  V30 29387 H 2704.46 0.0954972 0.821468 0
M  V30 29388 H 2707.01 0.915373 1.42895 0
M  V30 29389 H 2705.78 1.82335 3.46222 0
M  V30 29390 H 2705.4 0.18574 3.97166 0
M  V30 29391 N 2706.4 -1.46311 0.585725 0
M  V30 29392 C 2707.33 -2.33118 -0.133516 0
M  V30 29393 C 2708.31 -1.45527 -0.880682 0
M  V30 29394 O 2709.5 -1.74339 -0.855548 0
M  V30 29395 C 2706.63 -3.27855 -1.14579 0
M  V30 29396 C 2705.58 -4.24911 -0.513266 0
M  V30 29397 C 2704.91 -5.09178 -1.63222 0
M  V30 29398 C 2706.21 -5.1938 0.551504 0
M  V30 29399 H 2707.9 -2.93504 0.591261 0
M  V30 29400 H 2705.45 -1.41136 0.285786 0
M  V30 29401 H 2707.4 -3.87441 -1.65734 0
M  V30 29402 H 2706.12 -2.65583 -1.90088 0
M  V30 29403 H 2704.78 -3.66593 -0.0227705 0
M  V30 29404 H 2704.43 -4.43289 -2.37706 0
M  V30 29405 H 2704.13 -5.74909 -1.21463 0
M  V30 29406 H 2705.66 -5.71628 -2.14648 0
M  V30 29407 H 2707.07 -5.73164 0.124905 0
M  V30 29408 H 2705.47 -5.9347 0.88959 0
M  V30 29409 H 2706.54 -4.6313 1.43663 0
M  V30 29410 N 2707.88 -0.323668 -1.54241 0
M  V30 29411 C 2709.13 0.278324 -2.00174 0
M  V30 29412 C 2709.45 1.52646 -1.21343 0
M  V30 29413 O 2708.72 1.93346 -0.315278 0
M  V30 29414 H 2707.3 0.105832 -0.739465 0
M  V30 29415 H 2709.96 -0.440238 -1.89863 0
M  V30 29416 H 2709.06 0.534646 -3.07487 0
M  V30 29417 N 2709.36 1.57515 -0.0518432 0
M  V30 29418 C 2710.31 2.12753 0.940158 0
M  V30 29419 C 2711.3 1.0595 1.32178 0
M  V30 29420 O 2712.51 1.24357 1.30135 0
M  V30 29421 H 2708.88 0.680021 0.321054 0
M  V30 29422 H 2710.85 2.95 0.449165 0
M  V30 29423 C 2709.6 2.68803 2.20545 0
M  V30 29424 H 2708.92 3.50647 1.9206 0
M  V30 29425 H 2710.36 3.11073 2.88114 0
M  V30 29426 C 2708.82 1.62611 2.95058 0
M  V30 29427 O 2709.35 1.03928 3.88023 0
M  V30 29428 N 2707.56 1.34115 2.57801 0
M  V30 29429 H 2707.11 1.82023 1.82278 0
M  V30 29430 H 2707.06 0.632927 3.07963 0
M  V30 29431 N 2710.84 -0.221546 1.56035 0
M  V30 29432 C 2711.78 -1.27456 1.92415 0
M  V30 29433 C 2712.75 -1.46575 0.781349 0
M  V30 29434 O 2713.94 -1.60143 1.03724 0
M  V30 29435 C 2711.08 -2.61991 2.24622 0
M  V30 29436 C 2710.19 -2.5067 3.51836 0
M  V30 29437 C 2709.33 -3.77729 3.73489 0
M  V30 29438 C 2708.36 -3.61131 4.94217 0
M  V30 29439 N 2707.5 -4.80139 5.1226 0
M  V30 29440 H 2712.34 -0.957306 2.82205 0
M  V30 29441 H 2709.88 -0.46139 1.39677 0
M  V30 29442 H 2711.84 -3.40335 2.41304 0
M  V30 29443 H 2710.47 -2.91812 1.38005 0
M  V30 29444 H 2709.52 -1.63761 3.43346 0
M  V30 29445 H 2710.83 -2.34327 4.40332 0
M  V30 29446 H 2709.98 -4.64516 3.90268 0
M  V30 29447 H 2708.72 -3.96998 2.83273 0
M  V30 29448 H 2707.73 -2.72728 4.77388 0
M  V30 29449 H 2708.95 -3.43332 5.85918 0
M  V30 29450 H 2706.9 -4.99722 4.24987 0
M  V30 29451 H 2706.82 -4.66522 5.94889 0
M  V30 29452 H 2708.08 -5.68353 5.33475 0
M  V30 29453 N 2712.31 -1.49846 -0.48825 0
M  V30 29454 C 2713.26 -1.67453 -1.58833 0
M  V30 29455 C 2714.23 -0.515885 -1.57886 0
M  V30 29456 O 2715.42 -0.744434 -1.75678 0
M  V30 29457 C 2712.56 -1.7589 -2.96912 0
M  V30 29458 C 2711.67 -3.03144 -3.07779 0
M  V30 29459 C 2710.8 -3.0248 -4.36668 0
M  V30 29460 C 2709.84 -4.2426 -4.41214 0
M  V30 29461 N 2708.98 -4.21434 -5.6155 0
M  V30 29462 H 2713.82 -2.61379 -1.43127 0
M  V30 29463 H 2711.36 -1.29584 -0.696163 0
M  V30 29464 H 2713.31 -1.78762 -3.76962 0
M  V30 29465 H 2711.94 -0.854195 -3.11293 0
M  V30 29466 H 2711 -3.09823 -2.20712 0
M  V30 29467 H 2712.31 -3.93133 -3.06998 0
M  V30 29468 H 2711.46 -3.03986 -5.2505 0
M  V30 29469 H 2710.2 -2.10291 -4.40033 0
M  V30 29470 H 2709.21 -4.22984 -3.51233 0
M  V30 29471 H 2710.43 -5.17656 -4.39555 0
M  V30 29472 H 2708.38 -3.32088 -5.65733 0
M  V30 29473 H 2708.29 -5.05172 -5.62438 0
M  V30 29474 H 2709.56 -4.27061 -6.52104 0
M  V30 29475 N 2713.79 0.740218 -1.39135 0
M  V30 29476 C 2715.21 1.04507 -1.20625 0
M  V30 29477 C 2715.41 2.01398 -0.0642005 0
M  V30 29478 O 2714.46 2.45611 0.5858 0
M  V30 29479 C 2715.78 1.61236 -2.53818 0
M  V30 29480 C 2717.32 1.73342 -2.60618 0
M  V30 29481 C 2717.8 2.33479 -3.94019 0
M  V30 29482 N 2719.29 2.40895 -3.95631 0
M  V30 29483 C 2720.03 2.88352 -4.95621 0
M  V30 29484 N 2719.52 3.35745 -6.06009 0
M  V30 29485 N 2721.31 2.87514 -4.83003 0
M  V30 29486 H 2713.47 0.0975203 -2.12176 0
M  V30 29487 H 2715.73 0.105888 -0.942068 0
M  V30 29488 H 2715.43 0.975085 -3.37913 0
M  V30 29489 H 2715.31 2.60115 -2.73166 0
M  V30 29490 H 2717.7 2.36192 -1.7691 0
M  V30 29491 H 2717.78 0.731293 -2.45124 0
M  V30 29492 H 2717.42 1.71258 -4.78156 0
M  V30 29493 H 2717.35 3.34359 -4.06831 0
M  V30 29494 H 2719.84 2.07392 -3.15907 0
M  V30 29495 H 2720.15 3.70452 -6.78222 0
M  V30 29496 H 2718.5 3.33768 -6.0961 0
M  V30 29497 H 2721.69 2.49809 -3.9587 0
M  V30 29498 H 2721.86 3.24186 -5.61077 0
M  V30 29499 N 2715.27 1.24225 0.969846 0
M  V30 29500 C 2716.55 0.988693 1.68773 0
M  V30 29501 C 2716.93 -0.489636 2.05343 0
M  V30 29502 O 2716.27 -1.46342 1.75489 0
M  V30 29503 C 2716.48 1.90946 2.92131 0
M  V30 29504 C 2717.83 2.1791 3.64418 0
M  V30 29505 O 2718.86 1.88581 3.02185 0
M  V30 29506 O 2717.72 2.67706 4.76441 0
M  V30 29507 H 2714.81 0.373743 0.73773 0
M  V30 29508 H 2717.36 1.35314 1.02413 0
M  V30 29509 H 2716.13 2.90836 2.61783 0
M  V30 29510 H 2715.75 1.54805 3.66226 0
M  V30 29511 N 2716.75 -1.1702 1.05565 0
M  V30 29512 C 2718.02 -1.83337 0.681683 0
M  V30 29513 C 2718.4 -1.9377 -0.837631 0
M  V30 29514 O 2717.75 -1.47514 -1.74505 0
M  V30 29515 C 2717.96 -3.2077 1.37506 0
M  V30 29516 C 2719.31 -3.96632 1.51552 0
M  V30 29517 O 2720.33 -3.30262 1.33437 0
M  V30 29518 O 2719.19 -5.15583 1.81209 0
M  V30 29519 H 2716.29 -0.79128 0.240425 0
M  V30 29520 H 2718.83 -1.24286 1.15547 0
M  V30 29521 H 2717.61 -3.08167 2.41141 0
M  V30 29522 H 2717.23 -3.87491 0.890866 0
M  V30 29523 N 2718.23 -0.837197 -1.33524 0
M  V30 29524 C 2719.5 -0.354099 -1.92368 0
M  V30 29525 C 2719.88 1.16034 -1.7635 0
M  V30 29526 O 2719.23 1.97401 -1.15087 0
M  V30 29527 C 2719.44 -0.79916 -3.39727 0
M  V30 29528 C 2720.79 -0.806213 -4.16876 0
M  V30 29529 O 2721.81 -0.742658 -3.48372 0
M  V30 29530 O 2720.67 -0.89244 -5.39164 0
M  V30 29531 H 2717.77 -0.0998523 -0.82095 0
M  V30 29532 H 2720.31 -0.922938 -1.42408 0
M  V30 29533 H 2719.08 -1.84168 -3.4525 0
M  V30 29534 H 2718.71 -0.2068 -3.97062 0
M  V30 29535 N 2719.7 1.45999 -0.593476 0
M  V30 29536 C 2720.65 2.3214 0.146228 0
M  V30 29537 C 2721.65 1.45129 0.873717 0
M  V30 29538 O 2722.85 1.61694 0.790883 0
M  V30 29539 H 2719.23 0.749096 0.0660217 0
M  V30 29540 H 2721.2 2.92327 -0.598946 0
M  V30 29541 C 2719.95 3.28496 1.13954 0
M  V30 29542 H 2719.27 3.95435 0.589183 0
M  V30 29543 H 2720.71 3.91528 1.62731 0
M  V30 29544 C 2719.17 2.54632 2.206 0
M  V30 29545 O 2719.7 2.31728 3.28124 0
M  V30 29546 N 2717.9 2.15008 1.95499 0
M  V30 29547 H 2717.45 2.33836 1.08066 0
M  V30 29548 H 2717.41 1.65908 2.67061 0
M  V30 29549 N 2721.18 0.331843 1.54067 0
M  V30 29550 C 2722.09 -0.539064 2.28323 0
M  V30 29551 C 2723.11 -1.12207 1.32987 0
M  V30 29552 O 2724.28 -1.14027 1.66012 0
M  V30 29553 C 2721.35 -1.67994 3.0328 0
M  V30 29554 C 2720.41 -1.1279 4.14218 0
M  V30 29555 C 2719.64 -2.21441 4.85592 0
M  V30 29556 O 2719.87 -3.41944 4.56542 0
M  V30 29557 O 2718.8 -1.86394 5.72312 0
M  V30 29558 H 2722.63 0.0642226 3.03632 0
M  V30 29559 H 2720.21 0.0972627 1.49083 0
M  V30 29560 H 2722.09 -2.34399 3.50193 0
M  V30 29561 H 2720.77 -2.26926 2.30838 0
M  V30 29562 H 2719.68 -0.428716 3.71635 0
M  V30 29563 H 2721.01 -0.583612 4.88728 0
M  V30 29564 N 2722.66 -1.57485 0.0601958 0
M  V30 29565 C 2723.59 -2.15086 -0.908852 0
M  V30 29566 C 2724.57 -1.07486 -1.31836 0
M  V30 29567 O 2725.76 -1.35468 -1.39147 0
M  V30 29568 C 2722.89 -2.70314 -2.18054 0
M  V30 29569 C 2721.84 -3.82978 -1.91081 0
M  V30 29570 C 2721.17 -4.2476 -3.24782 0
M  V30 29571 C 2722.47 -5.07725 -1.22526 0
M  V30 29572 H 2724.16 -2.9631 -0.429041 0
M  V30 29573 H 2721.71 -1.42534 -0.204927 0
M  V30 29574 H 2723.66 -3.09253 -2.86253 0
M  V30 29575 H 2722.38 -1.86295 -2.68257 0
M  V30 29576 H 2721.04 -3.44525 -1.25291 0
M  V30 29577 H 2720.69 -3.37679 -3.72803 0
M  V30 29578 H 2720.39 -5.00699 -3.07529 0
M  V30 29579 H 2721.91 -4.66306 -3.94197 0
M  V30 29580 H 2723.33 -5.44053 -1.80774 0
M  V30 29581 H 2721.73 -5.88866 -1.1557 0
M  V30 29582 H 2722.8 -4.84477 -0.202607 0
M  V30 29583 N 2724.14 0.213268 -1.5615 0
M  V30 29584 C 2725.07 1.29179 -1.88117 0
M  V30 29585 C 2726.05 1.44817 -0.739374 0
M  V30 29586 O 2727.23 1.60498 -0.988569 0
M  V30 29587 C 2724.36 2.66098 -2.09546 0
M  V30 29588 C 2723.41 2.6743 -3.3224 0
M  V30 29589 S 2724.24 2.2067 -4.87919 0
M  V30 29590 C 2725.4 3.59449 -5.12393 0
M  V30 29591 H 2725.63 1.01871 -2.79302 0
M  V30 29592 H 2723.16 0.415908 -1.48693 0
M  V30 29593 H 2725.12 3.44921 -2.22575 0
M  V30 29594 H 2723.78 2.90626 -1.19143 0
M  V30 29595 H 2722.97 3.68064 -3.44304 0
M  V30 29596 H 2722.58 1.96676 -3.18111 0
M  V30 29597 H 2724.87 4.55196 -5.01799 0
M  V30 29598 H 2725.81 3.52295 -6.14243 0
M  V30 29599 H 2726.22 3.5352 -4.40095 0
M  V30 29600 N 2725.62 1.50103 0.480296 0
M  V30 29601 C 2726.84 1.64373 1.25654 0
M  V30 29602 C 2727.26 0.323349 1.8601 0
M  V30 29603 O 2726.62 -0.693652 1.68804 0
M  V30 29604 C 2726.67 2.72804 2.37192 0
M  V30 29605 O 2726.39 3.99723 1.79313 0
M  V30 29606 C 2727.89 2.97966 3.28225 0
M  V30 29607 H 2725.11 0.552782 0.380359 0
M  V30 29608 H 2727.65 1.96269 0.574344 0
M  V30 29609 H 2725.81 2.43629 3.01204 0
M  V30 29610 H 2726.22 4.59616 2.52693 0
M  V30 29611 H 2727.7 3.7752 4.02719 0
M  V30 29612 H 2728.17 2.08678 3.86459 0
M  V30 29613 H 2728.78 3.28637 2.69958 0
M  V30 29614 N 2727.09 -0.732829 1.39526 0
M  V30 29615 C 2728.32 -1.52714 1.40332 0
M  V30 29616 C 2728.74 -1.881 0.000319637 0
M  V30 29617 O 2728.1 -1.52064 -0.987235 0
M  V30 29618 C 2728.15 -2.78988 2.28468 0
M  V30 29619 O 2727.25 -3.75 1.71606 0
M  V30 29620 H 2726.6 -0.461101 0.477789 0
M  V30 29621 H 2729.13 -0.903964 1.83547 0
M  V30 29622 H 2729.14 -3.277 2.43056 0
M  V30 29623 H 2727.81 -2.52566 3.30429 0
M  V30 29624 H 2726.39 -3.33778 1.66273 0
M  V30 29625 N 2728.57 -1.24737 -0.963244 0
M  V30 29626 C 2729.82 -1.08758 -1.70341 0
M  V30 29627 C 2730.14 0.373585 -1.91388 0
M  V30 29628 O 2729.41 1.26617 -1.49482 0
M  V30 29629 H 2727.99 -0.399467 -0.631217 0
M  V30 29630 H 2730.65 -1.56727 -1.15857 0
M  V30 29631 H 2729.75 -1.58914 -2.68613 0
M  V30 29632 N 2730.05 1.16459 -1.06184 0
M  V30 29633 C 2731.46 1.68575 -0.802456 0
M  V30 29634 C 2731.81 1.84257 0.674088 0
M  V30 29635 O 2730.94 1.53732 1.523 0
M  V30 29636 C 2731.53 3.062 -1.45008 0
M  V30 29637 C 2730.09 3.55441 -1.23849 0
M  V30 29638 C 2729.24 2.31451 -1.52728 0
M  V30 29639 H 2732.19 1.00836 -1.22547 0
M  V30 29640 H 2732.21 3.70542 -0.864796 0
M  V30 29641 H 2731.72 2.94754 -2.52471 0
M  V30 29642 H 2729.82 3.72148 -0.183553 0
M  V30 29643 H 2729.94 4.37601 -1.95044 0
M  V30 29644 H 2728.3 2.3641 -0.947767 0
M  V30 29645 H 2729.08 2.22604 -2.61347 0
M  V30 29646 N 2731.53 0.844266 1.33079 0
M  V30 29647 C 2732.94 0.532755 1.50446 0
M  V30 29648 C 2733.14 -0.938806 1.78294 0
M  V30 29649 O 2732.2 -1.72236 1.84638 0
M  V30 29650 C 2733.51 1.41076 2.65552 0
M  V30 29651 C 2735.06 1.4101 2.79437 0
M  V30 29652 C 2735.54 2.27308 3.97612 0
M  V30 29653 N 2737.03 2.25047 4.04856 0
M  V30 29654 C 2737.76 2.88555 4.95503 0
M  V30 29655 N 2737.26 3.61136 5.9123 0
M  V30 29656 N 2739.05 2.77997 4.88543 0
M  V30 29657 H 2731.2 1.79679 1.13266 0
M  V30 29658 H 2733.47 0.766871 0.557327 0
M  V30 29659 H 2733.17 2.45672 2.5167 0
M  V30 29660 H 2733.05 1.09067 3.61087 0
M  V30 29661 H 2735.43 0.371835 2.92748 0
M  V30 29662 H 2735.51 1.77029 1.84647 0
M  V30 29663 H 2735.16 3.31197 3.8506 0
M  V30 29664 H 2735.09 1.88628 4.91657 0
M  V30 29665 H 2737.58 1.7227 3.3635 0
M  V30 29666 H 2737.89 4.06787 6.57072 0
M  V30 29667 H 2736.24 3.65244 5.91288 0
M  V30 29668 H 2739.43 2.20853 4.12725 0
M  V30 29669 H 2739.6 3.27775 5.58988 0
M  V30 29670 N 2733.01 -1.45682 0.60121 0
M  V30 29671 C 2733.94 -2.27565 -0.17009 0
M  V30 29672 C 2734.92 -1.36752 -0.879637 0
M  V30 29673 O 2736.1 -1.66177 -0.889798 0
M  V30 29674 C 2733.23 -3.14963 -1.24562 0
M  V30 29675 C 2732.27 -4.21672 -0.639904 0
M  V30 29676 S 2733.11 -5.32695 0.547369 0
M  V30 29677 C 2734.26 -6.23661 -0.52891 0
M  V30 29678 H 2734.5 -2.92634 0.524634 0
M  V30 29679 H 2732.03 -1.49431 0.388563 0
M  V30 29680 H 2733.99 -3.65876 -1.86131 0
M  V30 29681 H 2732.65 -2.49172 -1.91238 0
M  V30 29682 H 2731.84 -4.82723 -1.44895 0
M  V30 29683 H 2731.44 -3.73868 -0.0994901 0
M  V30 29684 H 2733.74 -6.62672 -1.4097 0
M  V30 29685 H 2734.68 -7.08086 0.0452844 0
M  V30 29686 H 2735.09 -5.58195 -0.841372 0
M  V30 29687 N 2734.48 -0.340009 -1.53889 0
M  V30 29688 C 2735.9 0.0120472 -1.59595 0
M  V30 29689 C 2736.1 1.49039 -1.35608 0
M  V30 29690 O 2735.16 2.24863 -1.1486 0
M  V30 29691 C 2736.47 -0.420951 -2.97739 0
M  V30 29692 C 2738.02 -0.372995 -3.1077 0
M  V30 29693 C 2738.49 -0.781407 -4.51285 0
M  V30 29694 N 2739.98 -0.735454 -4.57324 0
M  V30 29695 C 2740.72 -1.02346 -5.64192 0
M  V30 29696 N 2740.21 -1.37945 -6.78928 0
M  V30 29697 N 2742.01 -0.947936 -5.54049 0
M  V30 29698 H 2734.16 -1.30302 -1.67736 0
M  V30 29699 H 2736.42 -0.530932 -0.785376 0
M  V30 29700 H 2736.13 -1.45158 -3.20347 0
M  V30 29701 H 2736 0.205655 -3.76639 0
M  V30 29702 H 2738.39 0.648454 -2.87887 0
M  V30 29703 H 2738.47 -1.03476 -2.33937 0
M  V30 29704 H 2738.11 -1.80085 -4.74902 0
M  V30 29705 H 2738.04 -0.0971604 -5.2651 0
M  V30 29706 H 2740.53 -0.472839 -3.7493 0
M  V30 29707 H 2740.85 -1.58415 -7.56389 0
M  V30 29708 H 2739.19 -1.41786 -6.80383 0
M  V30 29709 H 2742.38 -0.669196 -4.63292 0
M  V30 29710 H 2742.56 -1.17574 -6.37244 0
M  V30 29711 N 2735.96 1.57451 -0.0685468 0
M  V30 29712 C 2737.21 1.93653 0.602205 0
M  V30 29713 C 2737.54 0.948556 1.69458 0
M  V30 29714 O 2736.82 -0.0227478 1.94487 0
M  V30 29715 C 2737.1 3.40142 1.18217 0
M  V30 29716 C 2736.95 4.49696 0.0966641 0
M  V30 29717 C 2738.27 3.8738 2.08865 0
M  V30 29718 H 2735.39 0.704194 0.217441 0
M  V30 29719 H 2738.03 1.89528 -0.133854 0
M  V30 29720 H 2736.18 3.43788 1.80947 0
M  V30 29721 H 2737.86 4.58173 -0.536236 0
M  V30 29722 H 2736.1 4.29997 -0.573139 0
M  V30 29723 H 2736.77 5.49325 0.542798 0
M  V30 29724 H 2739.25 3.8572 1.56074 0
M  V30 29725 H 2738.12 4.90497 2.46381 0
M  V30 29726 H 2738.38 3.25135 2.99566 0
M  V30 29727 N 2737.44 -0.204984 1.56261 0
M  V30 29728 C 2738.86 -0.555406 1.49624 0
M  V30 29729 C 2739.06 -1.86342 0.766752 0
M  V30 29730 O 2738.11 -2.5055 0.313202 0
M  V30 29731 C 2739.43 -0.619296 2.94254 0
M  V30 29732 C 2740.97 -0.708802 3.04869 0
M  V30 29733 C 2741.45 -0.80389 4.5089 0
M  V30 29734 N 2742.94 -0.867678 4.55001 0
M  V30 29735 C 2743.68 -0.96125 5.65285 0
M  V30 29736 N 2743.17 -1.01774 6.85284 0
M  V30 29737 N 2744.96 -0.997674 5.53175 0
M  V30 29738 H 2737.12 0.653129 2.02109 0
M  V30 29739 H 2739.38 0.231382 0.919329 0
M  V30 29740 H 2739.08 0.27252 3.50643 0
M  V30 29741 H 2738.96 -1.47734 3.47065 0
M  V30 29742 H 2741.35 -1.59105 2.48535 0
M  V30 29743 H 2741.43 0.17525 2.55199 0
M  V30 29744 H 2741.07 0.073969 5.07846 0
M  V30 29745 H 2741 -1.7036 4.98282 0
M  V30 29746 H 2743.49 -0.83367 3.6859 0
M  V30 29747 H 2743.8 -1.08938 7.65083 0
M  V30 29748 H 2742.15 -0.986585 6.87962 0
M  V30 29749 H 2745.34 -0.950312 4.58352 0
M  V30 29750 H 2745.51 -1.06714 6.39153 0
M  V30 29751 N 2738.92 -1.50356 -0.472329 0
M  V30 29752 C 2740.2 -1.518 -1.23353 0
M  V30 29753 C 2740.58 -0.261967 -2.09468 0
M  V30 29754 O 2739.92 0.754653 -2.15679 0
M  V30 29755 C 2740.13 -2.81305 -2.06563 0
M  V30 29756 C 2741.48 -3.31918 -2.64794 0
M  V30 29757 O 2742.51 -2.82618 -2.16807 0
M  V30 29758 O 2741.37 -4.17853 -3.52224 0
M  V30 29759 H 2738.46 -0.608826 -0.559697 0
M  V30 29760 H 2741.01 -1.62644 -0.484252 0
M  V30 29761 H 2739.78 -3.64197 -1.43096 0
M  V30 29762 H 2739.4 -2.73459 -2.88628 0
M  V30 29763 N 2740.4 0.725419 -1.39912 0
M  V30 29764 C 2741.62 1.51968 -1.4114 0
M  V30 29765 C 2742.05 1.88097 -0.010295 0
M  V30 29766 O 2741.41 1.52585 0.979157 0
M  V30 29767 C 2741.45 2.77773 -2.29945 0
M  V30 29768 O 2740.56 3.74085 -1.73593 0
M  V30 29769 H 2739.9 0.458561 -0.480227 0
M  V30 29770 H 2742.43 0.894217 -1.84024 0
M  V30 29771 H 2742.44 3.26407 -2.44791 0
M  V30 29772 H 2741.11 2.5081 -3.31764 0
M  V30 29773 H 2739.69 3.32891 -1.68041 0
M  V30 29774 N 2741.88 1.25246 0.956615 0
M  V30 29775 C 2743.1 1.12611 1.73569 0
M  V30 29776 C 2743.52 -0.320292 1.86063 0
M  V30 29777 O 2742.88 -1.22039 1.35693 0
M  V30 29778 C 2742.93 1.77274 3.1505 0
M  V30 29779 O 2742.65 3.1626 3.03169 0
M  V30 29780 C 2744.15 1.70393 4.09245 0
M  V30 29781 H 2741.37 0.392888 0.543948 0
M  V30 29782 H 2743.91 1.6557 1.20028 0
M  V30 29783 H 2742.07 1.2829 3.65541 0
M  V30 29784 H 2742.48 3.48022 3.92404 0
M  V30 29785 H 2743.96 2.203 5.06134 0
M  V30 29786 H 2744.43 0.667315 4.34101 0
M  V30 29787 H 2745.04 2.18855 3.64668 0
M  V30 29788 N 2743.35 -1.15894 1.068 0
M  V30 29789 C 2744.28 -2.22612 0.704716 0
M  V30 29790 C 2745.26 -1.67339 -0.305222 0
M  V30 29791 O 2746.45 -1.93371 -0.179213 0
M  V30 29792 C 2743.58 -3.47168 0.0957935 0
M  V30 29793 C 2742.53 -4.15365 1.03227 0
M  V30 29794 C 2741.86 -5.33933 0.286386 0
M  V30 29795 C 2743.16 -4.65764 2.3635 0
M  V30 29796 H 2744.85 -2.53256 1.59693 0
M  V30 29797 H 2742.4 -1.2173 0.769278 0
M  V30 29798 H 2744.35 -4.21056 -0.170259 0
M  V30 29799 H 2743.08 -3.15839 -0.831461 0
M  V30 29800 H 2741.74 -3.43411 1.28315 0
M  V30 29801 H 2741.38 -4.98858 -0.644149 0
M  V30 29802 H 2741.08 -5.80502 0.910538 0
M  V30 29803 H 2742.61 -6.10594 0.0280011 0
M  V30 29804 H 2744.02 -5.31207 2.15619 0
M  V30 29805 H 2742.42 -5.22975 2.94308 0
M  V30 29806 H 2743.49 -3.817 2.99054 0
M  V30 29807 N 2744.83 -0.851312 -1.32629 0
M  V30 29808 C 2745.78 -0.265342 -2.26451 0
M  V30 29809 C 2746.77 0.586873 -1.49815 0
M  V30 29810 O 2747.96 0.436804 -1.71526 0
M  V30 29811 C 2745.09 0.548152 -3.38896 0
M  V30 29812 C 2744.17 -0.316264 -4.22919 0
M  V30 29813 N 2744.56 -1.40093 -4.86012 0
M  V30 29814 C 2742.86 -0.105434 -4.45875 0
M  V30 29815 C 2743.56 -1.93245 -5.48663 0
M  V30 29816 N 2742.54 -1.2321 -5.29453 0
M  V30 29817 H 2746.34 -1.09462 -2.72755 0
M  V30 29818 H 2743.85 -0.697073 -1.46679 0
M  V30 29819 H 2745.85 0.984331 -4.05113 0
M  V30 29820 H 2744.51 1.37526 -2.94137 0
M  V30 29821 H 2745.52 -1.78385 -4.86209 0
M  V30 29822 H 2742.2 0.687227 -4.11805 0
M  V30 29823 H 2743.59 -2.84146 -6.0886 0
M  V30 29824 N 2746.31 1.45361 -0.608928 0
M  V30 29825 C 2747.24 2.33301 0.0964116 0
M  V30 29826 C 2748.22 1.46909 0.857418 0
M  V30 29827 O 2749.41 1.75678 0.827704 0
M  V30 29828 C 2746.54 3.29637 1.09348 0
M  V30 29829 C 2745.49 4.25674 0.445601 0
M  V30 29830 C 2744.82 5.11711 1.55101 0
M  V30 29831 C 2746.12 5.18437 -0.634063 0
M  V30 29832 H 2747.81 2.92526 -0.63788 0
M  V30 29833 H 2745.36 1.40663 -0.308203 0
M  V30 29834 H 2747.31 3.90028 1.59549 0
M  V30 29835 H 2746.03 2.68573 1.85839 0
M  V30 29836 H 2744.69 3.66583 -0.0355542 0
M  V30 29837 H 2744.34 4.47014 2.30623 0
M  V30 29838 H 2744.04 5.76769 1.12301 0
M  V30 29839 H 2745.56 5.74971 2.05527 0
M  V30 29840 H 2746.98 5.72893 -0.216074 0
M  V30 29841 H 2745.37 5.91979 -0.983893 0
M  V30 29842 H 2746.44 4.60785 -1.51013 0
M  V30 29843 N 2747.79 0.348166 1.53706 0
M  V30 29844 C 2748.73 -0.506478 2.25174 0
M  V30 29845 C 2749.7 -1.09179 1.25176 0
M  V30 29846 O 2750.89 -1.12755 1.53919 0
M  V30 29847 C 2748.03 -1.64918 3.03144 0
M  V30 29848 C 2747.14 -1.09073 4.18004 0
M  V30 29849 C 2746.28 -2.20111 4.83451 0
M  V30 29850 C 2745.32 -1.61641 5.90372 0
M  V30 29851 N 2744.45 -2.6644 6.4958 0
M  V30 29852 H 2749.29 0.109505 2.97799 0
M  V30 29853 H 2746.83 0.0658124 1.46953 0
M  V30 29854 H 2748.79 -2.32199 3.46612 0
M  V30 29855 H 2747.42 -2.23608 2.32807 0
M  V30 29856 H 2746.47 -0.308717 3.79145 0
M  V30 29857 H 2747.78 -0.623091 4.94893 0
M  V30 29858 H 2746.94 -2.95248 5.30013 0
M  V30 29859 H 2745.68 -2.7022 4.05996 0
M  V30 29860 H 2744.68 -0.850114 5.43188 0
M  V30 29861 H 2745.91 -1.12378 6.69737 0
M  V30 29862 H 2743.85 -3.15795 5.74987 0
M  V30 29863 H 2743.77 -2.24312 7.21956 0
M  V30 29864 H 2745.04 -3.41332 7.00795 0
M  V30 29865 N 2749.27 -1.57412 0.0768958 0
M  V30 29866 C 2750.18 -2.16518 -0.903169 0
M  V30 29867 C 2751.19 -1.12971 -1.32339 0
M  V30 29868 O 2752.37 -1.4526 -1.39504 0
M  V30 29869 C 2749.43 -2.71926 -2.15075 0
M  V30 29870 C 2748.49 -3.90364 -1.78646 0
M  V30 29871 C 2747.73 -4.4312 -2.97457 0
M  V30 29872 O 2747.95 -3.94862 -4.11632 0
M  V30 29873 O 2746.88 -5.34385 -2.76977 0
M  V30 29874 H 2750.71 -3.00635 -0.430374 0
M  V30 29875 H 2748.29 -1.4868 -0.146459 0
M  V30 29876 H 2750.18 -3.07416 -2.88224 0
M  V30 29877 H 2748.85 -1.90865 -2.61443 0
M  V30 29878 H 2747.76 -3.59717 -1.02733 0
M  V30 29879 H 2749.09 -4.72733 -1.37057 0
M  V30 29880 N 2750.74 0.196695 -1.56368 0
M  V30 29881 C 2751.99 0.915522 -1.80174 0
M  V30 29882 C 2752.31 1.83859 -0.649682 0
M  V30 29883 O 2751.58 1.93065 0.332077 0
M  V30 29884 H 2750.16 0.341055 -0.664598 0
M  V30 29885 H 2752.83 0.202588 -1.93844 0
M  V30 29886 H 2751.92 1.50759 -2.73273 0
M  V30 29887 N 2752.22 1.50604 0.464349 0
M  V30 29888 C 2753.16 1.64607 1.58049 0
M  V30 29889 C 2754.13 0.494043 1.54913 0
M  V30 29890 O 2755.32 0.714423 1.74437 0
M  V30 29891 C 2752.44 1.63486 2.96631 0
M  V30 29892 C 2751.49 2.84331 3.17896 0
M  V30 29893 S 2752.32 4.45541 2.97075 0
M  V30 29894 C 2753.48 4.47123 4.37986 0
M  V30 29895 H 2753.71 2.59019 1.45933 0
M  V30 29896 H 2751.25 1.39951 0.652164 0
M  V30 29897 H 2753.2 1.63524 3.76524 0
M  V30 29898 H 2751.86 0.702982 3.06132 0
M  V30 29899 H 2751.06 2.7987 4.19153 0
M  V30 29900 H 2750.66 2.81895 2.45787 0
M  V30 29901 H 2752.95 4.211 5.30736 0
M  V30 29902 H 2753.89 5.4878 4.47489 0
M  V30 29903 H 2754.3 3.76751 4.2038 0
M  V30 29904 N 2753.7 -0.717989 1.40295 0
M  V30 29905 C 2754.65 -1.83207 1.4037 0
M  V30 29906 C 2755.62 -1.64037 0.260981 0
M  V30 29907 O 2756.8 -1.85205 0.458681 0
M  V30 29908 C 2753.94 -3.20893 1.26971 0
M  V30 29909 C 2753.06 -3.51652 2.50929 0
M  V30 29910 C 2752.19 -4.7883 2.2999 0
M  V30 29911 C 2751.23 -5.02485 3.49536 0
M  V30 29912 N 2750.37 -6.20876 3.27807 0
M  V30 29913 H 2755.21 -1.82478 2.35597 0
M  V30 29914 H 2752.74 -0.891423 1.17013 0
M  V30 29915 H 2754.7 -4.00397 1.17209 0
M  V30 29916 H 2753.33 -3.20857 0.353647 0
M  V30 29917 H 2752.38 -2.6672 2.71228 0
M  V30 29918 H 2753.7 -3.65042 3.3992 0
M  V30 29919 H 2752.85 -5.66347 2.17568 0
M  V30 29920 H 2751.59 -4.67644 1.38419 0
M  V30 29921 H 2750.59 -4.13424 3.62437 0
M  V30 29922 H 2751.82 -5.15545 4.4203 0
M  V30 29923 H 2749.76 -6.10946 2.38917 0
M  V30 29924 H 2749.68 -6.34932 4.10363 0
M  V30 29925 H 2750.95 -7.11187 3.19113 0
M  V30 29926 N 2755.18 -1.25752 -0.94996 0
M  V30 29927 C 2756.43 -1.10558 -1.69178 0
M  V30 29928 C 2756.75 0.353265 -1.91773 0
M  V30 29929 O 2756.02 1.25025 -1.50816 0
M  V30 29930 H 2754.6 -0.40614 -0.626945 0
M  V30 29931 H 2757.26 -1.57947 -1.14188 0
M  V30 29932 H 2756.36 -1.61754 -2.66912 0
M  V30 29933 N 2756.66 1.15326 -1.07413 0
M  V30 29934 C 2757.59 2.19702 -0.652962 0
M  V30 29935 C 2758.6 1.60108 0.29484 0
M  V30 29936 O 2759.79 1.78302 0.0840618 0
M  V30 29937 C 2756.89 3.38844 0.0613744 0
M  V30 29938 C 2756.06 4.27982 -0.902771 0
M  V30 29939 C 2755.12 5.25716 -0.225613 0
M  V30 29940 O 2754.15 5.6256 -0.866858 0
M  V30 29941 N 2755.35 5.71317 1.02848 0
M  V30 29942 H 2758.12 2.56454 -1.55085 0
M  V30 29943 H 2755.68 1.30448 -0.958906 0
M  V30 29944 H 2757.67 4.01279 0.525074 0
M  V30 29945 H 2756.24 3.00503 0.861216 0
M  V30 29946 H 2755.46 3.62637 -1.54557 0
M  V30 29947 H 2756.75 4.84409 -1.55645 0
M  V30 29948 H 2756.14 5.43495 1.56938 0
M  V30 29949 H 2754.7 6.35788 1.43584 0
M  V30 29950 N 2758.13 0.858334 1.32176 0
M  V30 29951 C 2759.06 0.321082 2.31282 0
M  V30 29952 C 2760.05 -0.581758 1.59842 0
M  V30 29953 O 2761.23 -0.501229 1.8762 0
M  V30 29954 C 2758.36 -0.48826 3.43851 0
M  V30 29955 C 2757.31 0.320466 4.26799 0
M  V30 29956 C 2756.64 -0.61384 5.31165 0
M  V30 29957 C 2757.94 1.54822 4.98826 0
M  V30 29958 H 2759.63 1.1492 2.76467 0
M  V30 29959 H 2757.18 0.554051 1.32915 0
M  V30 29960 H 2759.13 -0.874553 4.12225 0
M  V30 29961 H 2757.86 -1.34978 2.97403 0
M  V30 29962 H 2756.52 0.68856 3.60076 0
M  V30 29963 H 2756.16 -1.47231 4.8097 0
M  V30 29964 H 2755.86 -0.0767064 5.8755 0
M  V30 29965 H 2757.39 -0.99723 6.02402 0
M  V30 29966 H 2758.8 1.23401 5.59862 0
M  V30 29967 H 2757.2 2.02356 5.64953 0
M  V30 29968 H 2758.27 2.30746 4.26479 0
M  V30 29969 N 2759.61 -1.45036 0.616628 0
M  V30 29970 C 2760.84 -2.0654 0.122004 0
M  V30 29971 C 2761.26 -1.45971 -1.19741 0
M  V30 29972 O 2760.61 -0.577198 -1.73132 0
M  V30 29973 C 2760.66 -3.61497 -0.0144536 0
M  V30 29974 O 2760.38 -4.19806 1.25276 0
M  V30 29975 C 2761.89 -4.40005 -0.539478 0
M  V30 29976 H 2759.11 -0.667018 0.0729954 0
M  V30 29977 H 2761.65 -1.86138 0.846924 0
M  V30 29978 H 2759.8 -3.8121 -0.689742 0
M  V30 29979 H 2760.22 -5.13086 1.08825 0
M  V30 29980 H 2761.69 -5.48902 -0.584015 0
M  V30 29981 H 2762.17 -4.10424 -1.56361 0
M  V30 29982 H 2762.78 -4.25178 0.10207 0
M  V30 29983 N 2761.09 -0.356312 -1.53519 0
M  V30 29984 C 2762 0.502672 -2.29151 0
M  V30 29985 C 2763.02 1.10077 -1.34755 0
M  V30 29986 O 2764.19 1.11371 -1.67805 0
M  V30 29987 C 2761.26 1.63148 -3.05914 0
M  V30 29988 C 2760.32 1.06186 -4.1596 0
M  V30 29989 C 2759.55 2.13688 -4.89053 0
M  V30 29990 O 2759.77 3.34637 -4.61924 0
M  V30 29991 O 2758.71 1.77265 -5.75205 0
M  V30 29992 H 2762.53 -0.11252 -3.03491 0
M  V30 29993 H 2760.12 -0.120968 -1.48909 0
M  V30 29994 H 2762 2.28798 -3.53878 0
M  V30 29995 H 2760.68 2.23225 -2.34419 0
M  V30 29996 H 2759.58 0.369538 -3.7227 0
M  V30 29997 H 2760.92 0.505786 -4.89594 0
M  V30 29998 N 2762.57 1.57369 -0.0852427 0
M  V30 29999 C 2763.53 2.12346 0.862662 0
M  V30 30000 C 2764.53 1.05048 1.21744 0
M  V30 30001 O 2765.72 1.30978 1.1485 0
M  V30 30002 C 2762.85 2.63592 2.16176 0
M  V30 30003 H 2764.05 2.97413 0.385459 0
M  V30 30004 H 2761.6 1.55441 0.163636 0
M  V30 30005 H 2762.33 1.82018 2.68403 0
M  V30 30006 H 2762.12 3.42033 1.91717 0
M  V30 30007 H 2763.61 3.06154 2.84006 0
M  V30 30008 N 2764.05 -0.188399 1.5647 0
M  V30 30009 C 2765.27 -0.927858 1.85487 0
M  V30 30010 C 2765.7 -1.75778 0.669606 0
M  V30 30011 O 2765.05 -1.7724 -0.381542 0
M  V30 30012 C 2765.1 -1.79434 3.12787 0
M  V30 30013 O 2764.21 -2.89395 2.9381 0
M  V30 30014 H 2763.55 -0.260914 0.61059 0
M  V30 30015 H 2766.08 -0.191693 2.037 0
M  V30 30016 H 2766.09 -2.19768 3.43753 0
M  V30 30017 H 2764.76 -1.18461 3.98673 0
M  V30 30018 H 2763.34 -2.52769 2.74157 0
M  V30 30019 N 2765.53 -1.50848 -0.456355 0
M  V30 30020 C 2766.75 -1.6663 -1.23488 0
M  V30 30021 C 2767.18 -0.355287 -1.84714 0
M  V30 30022 O 2766.53 0.682529 -1.67962 0
M  V30 30023 C 2766.58 -2.77013 -2.3086 0
M  V30 30024 O 2765.69 -2.39291 -3.35877 0
M  V30 30025 H 2765.03 -0.55622 -0.36265 0
M  V30 30026 H 2767.56 -1.97309 -0.54134 0
M  V30 30027 H 2767.57 -3.00531 -2.75944 0
M  V30 30028 H 2766.24 -3.72155 -1.85671 0
M  V30 30029 H 2764.82 -2.26274 -2.96402 0
M  V30 30030 N 2767 0.710538 -1.40674 0
M  V30 30031 C 2767.97 1.80633 -1.41083 0
M  V30 30032 C 2768.97 1.57904 -0.303811 0
M  V30 30033 O 2770.16 1.64852 -0.562966 0
M  V30 30034 C 2767.29 3.18797 -1.20754 0
M  V30 30035 H 2768.48 1.81666 -2.38615 0
M  V30 30036 H 2766.03 0.916682 -1.26596 0
M  V30 30037 H 2766.77 3.23411 -0.240021 0
M  V30 30038 H 2766.55 3.36694 -2.00947 0
M  V30 30039 H 2768.04 3.98815 -1.2384 0
M  V30 30040 N 2768.48 1.26254 0.943277 0
M  V30 30041 C 2769.71 1.14446 1.72365 0
M  V30 30042 C 2770.12 -0.300539 1.86393 0
M  V30 30043 O 2769.48 -1.20593 1.3698 0
M  V30 30044 C 2769.53 1.80605 3.13152 0
M  V30 30045 O 2769.25 3.19458 2.99797 0
M  V30 30046 C 2770.75 1.74724 4.07414 0
M  V30 30047 H 2767.97 0.398636 0.539751 0
M  V30 30048 H 2770.52 1.66834 1.18265 0
M  V30 30049 H 2768.67 1.3216 3.6416 0
M  V30 30050 H 2769.09 3.52165 3.8869 0
M  V30 30051 H 2770.56 2.25656 5.03769 0
M  V30 30052 H 2771.04 0.71332 4.33369 0
M  V30 30053 H 2771.64 2.22711 3.62326 0
M  V30 30054 N 2769.96 -1.14755 1.08024 0
M  V30 30055 C 2771.18 -1.90112 0.828983 0
M  V30 30056 C 2771.61 -1.7784 -0.612741 0
M  V30 30057 O 2770.97 -1.11586 -1.42893 0
M  V30 30058 C 2771.02 -3.38216 1.25068 0
M  V30 30059 O 2770.12 -4.10454 0.400191 0
M  V30 30060 H 2769.46 -0.591642 0.301422 0
M  V30 30061 H 2771.99 -1.45281 1.44064 0
M  V30 30062 H 2772 -3.89023 1.22984 0
M  V30 30063 H 2770.68 -3.46467 2.30073 0
M  V30 30064 H 2769.25 -3.69744 0.484117 0
M  V30 30065 N 2771.44 -0.865331 -1.31719 0
M  V30 30066 C 2772.38 -0.315776 -2.2863 0
M  V30 30067 C 2773.35 0.583186 -1.55525 0
M  V30 30068 O 2774.54 0.515818 -1.83695 0
M  V30 30069 C 2771.68 0.480713 -3.41736 0
M  V30 30070 C 2770.79 -0.445242 -4.29699 0
M  V30 30071 C 2769.93 0.364919 -5.29945 0
M  V30 30072 C 2768.97 -0.557759 -6.09553 0
M  V30 30073 N 2768.1 0.215871 -7.01768 0
M  V30 30074 H 2772.94 -1.14741 -2.75024 0
M  V30 30075 H 2770.48 -0.577233 -1.35301 0
M  V30 30076 H 2772.44 0.958235 -4.06046 0
M  V30 30077 H 2771.07 1.27709 -2.96463 0
M  V30 30078 H 2770.12 -1.04119 -3.65873 0
M  V30 30079 H 2771.43 -1.15292 -4.85293 0
M  V30 30080 H 2770.59 0.905149 -5.9991 0
M  V30 30081 H 2769.33 1.10592 -4.74996 0
M  V30 30082 H 2768.33 -1.10978 -5.38483 0
M  V30 30083 H 2769.56 -1.29753 -6.66589 0
M  V30 30084 H 2767.5 0.939764 -6.49234 0
M  V30 30085 H 2767.42 -0.432564 -7.54761 0
M  V30 30086 H 2768.69 0.737482 -7.76004 0
M  V30 30087 N 2772.92 1.44707 -0.624311 0
M  V30 30088 C 2773.88 2.29078 0.0749235 0
M  V30 30089 C 2774.88 1.40674 0.77894 0
M  V30 30090 O 2776.07 1.62619 0.624563 0
M  V30 30091 C 2773.2 3.22095 1.11657 0
M  V30 30092 H 2774.39 2.92387 -0.667064 0
M  V30 30093 H 2771.95 1.51506 -0.384125 0
M  V30 30094 H 2772.68 2.63621 1.88877 0
M  V30 30095 H 2772.47 3.87235 0.615762 0
M  V30 30096 H 2773.96 3.85492 1.60578 0
M  V30 30097 N 2774.39 0.364449 1.53328 0
M  V30 30098 C 2775.62 -0.22606 2.0536 0
M  V30 30099 C 2776.03 -1.43092 1.23779 0
M  V30 30100 O 2775.37 -1.81688 0.271171 0
M  V30 30101 C 2775.44 -0.684732 3.52919 0
M  V30 30102 C 2775.1 0.403286 4.55217 0
M  V30 30103 C 2776.1 1.25278 5.0458 0
M  V30 30104 C 2773.78 0.563204 4.99133 0
M  V30 30105 C 2775.78 2.24755 5.96459 0
M  V30 30106 C 2773.46 1.56134 5.90818 0
M  V30 30107 C 2774.46 2.40195 6.39371 0
M  V30 30108 O 2774.15 3.38306 7.29249 0
M  V30 30109 H 2773.88 -0.0436653 0.674588 0
M  V30 30110 H 2776.44 0.520817 1.98687 0
M  V30 30111 H 2774.67 -1.48319 3.57125 0
M  V30 30112 H 2776.35 -1.19812 3.87814 0
M  V30 30113 H 2777.12 1.14042 4.71401 0
M  V30 30114 H 2773 -0.0813099 4.60928 0
M  V30 30115 H 2776.54 2.90404 6.3428 0
M  V30 30116 H 2772.44 1.67418 6.23411 0
M  V30 30117 H 2773.21 3.34022 7.47243 0
M  V30 30118 N 2775.87 -1.57322 0.0935872 0
M  V30 30119 C 2777.11 -1.96179 -0.573866 0
M  V30 30120 C 2777.48 -0.974289 -1.65444 0
M  V30 30121 O 2778.68 -1.2513 -2.37899 0
M  V30 30122 C 2776.95 -3.39528 -1.11606 0
M  V30 30123 S 2778.51 -4.0038 -1.79559 0
M  V30 30124 H 2775.32 -0.685885 -0.187303 0
M  V30 30125 H 2777.93 -1.94736 0.172631 0
M  V30 30126 H 2776.63 -4.09166 -0.318078 0
M  V30 30127 H 2776.16 -3.44563 -1.89842 0
M  V30 30128 H 2778.18 -3.89061 -3.07971 0
M  V30 30129 N 2777.35 0.180099 -1.56568 0
M  V30 30130 C 2778.6 0.899465 -1.81762 0
M  V30 30131 C 2778.93 1.82275 -0.670048 0
M  V30 30132 O 2778.2 1.91705 0.328541 0
M  V30 30133 C 2778.49 1.70274 -3.17299 0
M  V30 30134 C 2778.34 0.803177 -4.42571 0
M  V30 30135 C 2779.66 2.67227 -3.49683 0
M  V30 30136 H 2776.78 0.325555 -0.661198 0
M  V30 30137 H 2779.42 0.166087 -1.89273 0
M  V30 30138 H 2777.57 2.32797 -3.11027 0
M  V30 30139 H 2779.24 0.191504 -4.60902 0
M  V30 30140 H 2777.48 0.11072 -4.33659 0
M  V30 30141 H 2778.16 1.40054 -5.33937 0
M  V30 30142 H 2780.63 2.14833 -3.56351 0
M  V30 30143 H 2779.51 3.20503 -4.45611 0
M  V30 30144 H 2779.77 3.47002 -2.73938 0
M  V30 30145 N 2778.83 1.51088 0.448349 0
M  V30 30146 C 2780.06 1.66759 1.21963 0
M  V30 30147 C 2780.47 0.359786 1.85748 0
M  V30 30148 O 2779.81 -0.670574 1.71023 0
M  V30 30149 C 2779.87 2.71816 2.35279 0
M  V30 30150 C 2779.53 4.14734 1.9195 0
M  V30 30151 C 2780.53 4.99872 1.42912 0
M  V30 30152 C 2778.22 4.60776 1.99977 0
M  V30 30153 C 2780.21 6.29109 1.02474 0
M  V30 30154 C 2777.9 5.90012 1.5915 0
M  V30 30155 C 2778.9 6.74005 1.10479 0
M  V30 30156 O 2778.58 8.00827 0.702272 0
M  V30 30157 H 2778.32 0.56304 0.374115 0
M  V30 30158 H 2780.87 1.98205 0.538893 0
M  V30 30159 H 2779.1 2.35662 3.06595 0
M  V30 30160 H 2780.79 2.76477 2.97179 0
M  V30 30161 H 2781.55 4.65508 1.36115 0
M  V30 30162 H 2777.43 3.95529 2.36807 0
M  V30 30163 H 2780.98 6.9462 0.644149 0
M  V30 30164 H 2776.87 6.23893 1.65615 0
M  V30 30165 H 2777.64 8.1429 0.829105 0
M  V30 30166 N 2780.31 -0.703068 1.41049 0
M  V30 30167 C 2781.72 -1.01273 1.23353 0
M  V30 30168 C 2781.92 -2.01157 0.117575 0
M  V30 30169 O 2780.98 -2.47078 -0.520475 0
M  V30 30170 C 2782.29 -1.54449 2.58004 0
M  V30 30171 C 2783.84 -1.66371 2.65122 0
M  V30 30172 C 2784.31 -2.22951 4.00071 0
M  V30 30173 N 2785.81 -2.30321 4.01879 0
M  V30 30174 C 2786.54 -2.75111 5.03092 0
M  V30 30175 N 2786.04 -3.1956 6.14698 0
M  V30 30176 N 2787.83 -2.74607 4.90456 0
M  V30 30177 H 2779.98 -0.0412313 2.1236 0
M  V30 30178 H 2782.24 -0.0808734 0.944544 0
M  V30 30179 H 2781.95 -0.88515 3.40379 0
M  V30 30180 H 2781.82 -2.52781 2.79967 0
M  V30 30181 H 2784.21 -2.31419 1.8311 0
M  V30 30182 H 2784.29 -0.666046 2.46977 0
M  V30 30183 H 2783.94 -1.58521 4.82528 0
M  V30 30184 H 2783.87 -3.23455 4.15553 0
M  V30 30185 H 2786.36 -1.98943 3.21294 0
M  V30 30186 H 2786.67 -3.5234 6.87805 0
M  V30 30187 H 2785.01 -3.17488 6.18245 0
M  V30 30188 H 2788.21 -2.39225 4.02354 0
M  V30 30189 H 2788.38 -3.09196 5.69475 0
M  V30 30190 N 2781.78 -1.26752 -0.936569 0
M  V30 30191 C 2783.2 -1.03965 -1.21093 0
M  V30 30192 C 2783.4 0.232337 -2.00156 0
M  V30 30193 O 2782.46 0.940233 -2.34341 0
M  V30 30194 C 2783.77 -2.2738 -1.96771 0
M  V30 30195 C 2785.32 -2.32328 -2.09744 0
M  V30 30196 C 2785.79 -3.55449 -2.88826 0
M  V30 30197 N 2787.28 -3.55953 -2.96398 0
M  V30 30198 C 2788.02 -4.47888 -3.58028 0
M  V30 30199 N 2787.51 -5.50116 -4.21122 0
M  V30 30200 N 2789.31 -4.3553 -3.55346 0
M  V30 30201 H 2781.46 -2.08442 -0.408136 0
M  V30 30202 H 2783.72 -0.916294 -0.243123 0
M  V30 30203 H 2783.43 -3.19924 -1.46088 0
M  V30 30204 H 2783.3 -2.31994 -2.9742 0
M  V30 30205 H 2785.69 -1.40296 -2.59617 0
M  V30 30206 H 2785.77 -2.31723 -1.08343 0
M  V30 30207 H 2785.41 -4.47812 -2.39639 0
M  V30 30208 H 2785.34 -3.53303 -3.90493 0
M  V30 30209 H 2787.83 -2.82015 -2.51547 0
M  V30 30210 H 2788.15 -6.16448 -4.6606 0
M  V30 30211 H 2786.49 -5.53969 -4.19695 0
M  V30 30212 H 2789.68 -3.5488 -3.0525 0
M  V30 30213 H 2789.86 -5.0737 -4.03088 0
M  V30 30214 N 2783.26 1.1418 -1.08631 0
M  V30 30215 C 2784.17 2.22948 -0.730165 0
M  V30 30216 C 2785.19 1.71981 0.26433 0
M  V30 30217 O 2786.36 2.01112 0.107706 0
M  V30 30218 C 2783.43 3.46387 -0.147288 0
M  V30 30219 C 2782.49 4.12284 -1.19669 0
M  V30 30220 C 2781.72 5.2983 -0.64153 0
M  V30 30221 O 2781.95 5.67855 0.538251 0
M  V30 30222 O 2780.88 5.85567 -1.39267 0
M  V30 30223 H 2784.71 2.55768 -1.63757 0
M  V30 30224 H 2782.29 1.22155 -0.860139 0
M  V30 30225 H 2784.17 4.21037 0.174849 0
M  V30 30226 H 2782.85 3.15286 0.733248 0
M  V30 30227 H 2781.76 3.39497 -1.57139 0
M  V30 30228 H 2783.09 4.47496 -2.04958 0
M  V30 30229 N 2784.74 0.872304 1.31258 0
M  V30 30230 C 2785.67 0.274434 2.26544 0
M  V30 30231 C 2786.65 -0.597749 1.51214 0
M  V30 30232 O 2787.84 -0.550656 1.80278 0
M  V30 30233 C 2784.96 -0.611198 3.3314 0
M  V30 30234 C 2784.01 0.189951 4.26077 0
M  V30 30235 S 2784.84 1.56998 5.11969 0
M  V30 30236 C 2786 0.690536 6.22079 0
M  V30 30237 H 2786.23 1.08215 2.76906 0
M  V30 30238 H 2783.76 0.670964 1.39059 0
M  V30 30239 H 2785.72 -1.11647 3.95026 0
M  V30 30240 H 2784.38 -1.39289 2.81527 0
M  V30 30241 H 2783.58 -0.485345 5.01658 0
M  V30 30242 H 2783.18 0.627404 3.687 0
M  V30 30243 H 2785.47 -0.0978819 6.77429 0
M  V30 30244 H 2786.41 1.41755 6.93766 0
M  V30 30245 H 2786.82 0.257052 5.63914 0
M  V30 30246 N 2786.22 -1.44374 0.631976 0
M  V30 30247 C 2787.5 -1.95483 0.0676803 0
M  V30 30248 C 2787.88 -1.57392 -1.4068 0
M  V30 30249 O 2787.22 -0.848412 -2.12166 0
M  V30 30250 C 2787.43 -3.47781 0.291453 0
M  V30 30251 C 2788.78 -4.24196 0.185102 0
M  V30 30252 O 2789.81 -3.55502 0.222865 0
M  V30 30253 O 2788.66 -5.46425 0.0907602 0
M  V30 30254 H 2785.76 -0.826712 -0.0218234 0
M  V30 30255 H 2788.3 -1.5442 0.703739 0
M  V30 30256 H 2787.08 -3.68558 1.31455 0
M  V30 30257 H 2786.7 -3.95792 -0.378702 0
M  V30 30258 N 2787.7 -0.372575 -1.53133 0
M  V30 30259 C 2789.11 0.105123 -1.86404 0
M  V30 30260 C 2789.46 1.47574 -1.29292 0
M  V30 30261 O 2788.58 2.07397 -0.617683 0
M  V30 30262 C 2789.18 0.197528 -3.38224 0
M  V30 30263 C 2787.74 0.619491 -3.71267 0
M  V30 30264 C 2786.88 -0.228968 -2.76353 0
M  V30 30265 H 2789.84 -0.591103 -1.47281 0
M  V30 30266 H 2789.86 1.01981 -3.66579 0
M  V30 30267 H 2789.37 -0.800166 -3.79762 0
M  V30 30268 H 2787.47 1.62516 -3.3529 0
M  V30 30269 H 2787.58 0.389248 -4.77516 0
M  V30 30270 H 2785.95 0.303226 -2.52889 0
M  V30 30271 H 2786.73 -1.22433 -3.20726 0
M  V30 30272 N 2789.17 1.5727 -0.101929 0
M  V30 30273 C 2790.08 2.17927 0.868608 0
M  V30 30274 C 2791.1 1.15062 1.30525 0
M  V30 30275 O 2792.28 1.47461 1.37176 0
M  V30 30276 C 2789.34 2.75313 2.10722 0
M  V30 30277 C 2788.4 3.93157 1.72413 0
M  V30 30278 C 2787.64 4.47796 2.9037 0
M  V30 30279 O 2787.86 4.0136 4.05298 0
M  V30 30280 O 2786.79 5.38724 2.68441 0
M  V30 30281 H 2790.62 3.01282 0.382491 0
M  V30 30282 H 2788.2 1.48895 0.122786 0
M  V30 30283 H 2790.09 3.11963 2.83297 0
M  V30 30284 H 2788.76 1.95 2.58373 0
M  V30 30285 H 2787.67 3.61306 0.969975 0
M  V30 30286 H 2789 4.74853 1.29519 0
M  V30 30287 N 2790.65 -0.171793 1.56661 0
M  V30 30288 C 2791.9 -0.886799 1.8116 0
M  V30 30289 C 2792.21 -1.83433 0.679105 0
M  V30 30290 O 2793.42 -2.59167 0.80901 0
M  V30 30291 C 2791.88 -1.62744 3.21002 0
M  V30 30292 C 2791.48 -0.723574 4.42118 0
M  V30 30293 C 2793.23 -2.3307 3.54794 0
M  V30 30294 C 2791.14 -1.46442 5.72982 0
M  V30 30295 H 2790.07 -0.334887 0.675549 0
M  V30 30296 H 2792.72 -0.139733 1.82967 0
M  V30 30297 H 2791.1 -2.41924 3.1351 0
M  V30 30298 H 2792.27 0.0312295 4.60789 0
M  V30 30299 H 2790.59 -0.12999 4.16197 0
M  V30 30300 H 2793.18 -2.89091 4.49811 0
M  V30 30301 H 2793.53 -3.08384 2.79651 0
M  V30 30302 H 2794.06 -1.60834 3.63837 0
M  V30 30303 H 2790.8 -0.753615 6.51154 0
M  V30 30304 H 2790.32 -2.19256 5.58289 0
M  V30 30305 H 2792 -2.01203 6.1492 0
M  V30 30306 N 2792.13 -1.51324 -0.44033 0
M  V30 30307 C 2793.41 -1.54382 -1.20106 0
M  V30 30308 C 2793.79 -0.306339 -2.08865 0
M  V30 30309 O 2793.14 0.708735 -2.17231 0
M  V30 30310 C 2793.35 -2.85623 -2.0055 0
M  V30 30311 C 2794.69 -3.3746 -2.57694 0
M  V30 30312 O 2795.72 -2.87153 -2.10764 0
M  V30 30313 O 2794.58 -4.2523 -3.43281 0
M  V30 30314 H 2791.67 -0.620561 -0.546657 0
M  V30 30315 H 2794.22 -1.63635 -0.449644 0
M  V30 30316 H 2792.99 -3.6715 -1.35339 0
M  V30 30317 H 2792.61 -2.79519 -2.82763 0
M  V30 30318 N 2793.61 0.695578 -1.41419 0
M  V30 30319 C 2794.86 1.45127 -1.40075 0
M  V30 30320 C 2795.17 1.95596 -0.0130782 0
M  V30 30321 O 2796.38 2.71221 0.122985 0
M  V30 30322 C 2794.83 2.62429 -2.46291 0
M  V30 30323 C 2794.44 2.18746 -3.90965 0
M  V30 30324 C 2796.18 3.40062 -2.54083 0
M  V30 30325 C 2794.09 3.33006 -4.88734 0
M  V30 30326 H 2793.02 0.545129 -0.520913 0
M  V30 30327 H 2795.67 0.755121 -1.67243 0
M  V30 30328 H 2794.05 3.34312 -2.12254 0
M  V30 30329 H 2795.23 1.54153 -4.3425 0
M  V30 30330 H 2793.54 1.54107 -3.86833 0
M  V30 30331 H 2796.14 4.2512 -3.2431 0
M  V30 30332 H 2796.48 3.85247 -1.57766 0
M  V30 30333 H 2797.02 2.75236 -2.87211 0
M  V30 30334 H 2793.76 2.92833 -5.86455 0
M  V30 30335 H 2793.28 3.9645 -4.50098 0
M  V30 30336 H 2794.95 3.98784 -5.0949 0
M  V30 30337 N 2795.09 1.27247 0.929833 0
M  V30 30338 C 2796.02 1.04109 2.03068 0
M  V30 30339 C 2797 -0.0378131 1.62556 0
M  V30 30340 O 2798.18 0.106902 1.88197 0
M  V30 30341 C 2795.31 0.578837 3.33717 0
M  V30 30342 C 2794.36 1.652 3.93206 0
M  V30 30343 S 2795.19 3.24394 4.26062 0
M  V30 30344 C 2796.34 2.79964 5.59795 0
M  V30 30345 H 2796.58 1.97315 2.22382 0
M  V30 30346 H 2794.11 1.11054 1.07267 0
M  V30 30347 H 2796.07 0.318812 4.0926 0
M  V30 30348 H 2794.73 -0.333127 3.12328 0
M  V30 30349 H 2793.92 1.27981 4.8748 0
M  V30 30350 H 2793.52 1.86398 3.2424 0
M  V30 30351 H 2795.82 2.25134 6.39 0
M  V30 30352 H 2796.76 3.72974 6.01911 0
M  V30 30353 H 2797.17 2.19173 5.20215 0
M  V30 30354 N 2796.57 -1.13603 1.09235 0
M  V30 30355 C 2797.81 -1.86485 0.836818 0
M  V30 30356 C 2798.17 -1.81503 -0.626159 0
M  V30 30357 O 2799.37 -2.49605 -0.997536 0
M  V30 30358 C 2797.64 -3.30725 1.35482 0
M  V30 30359 S 2799.2 -4.21124 1.23287 0
M  V30 30360 H 2796.02 -0.643339 0.302714 0
M  V30 30361 H 2798.62 -1.36934 1.39533 0
M  V30 30362 H 2797.32 -3.31905 2.41387 0
M  V30 30363 H 2796.86 -3.85338 0.792354 0
M  V30 30364 H 2798.87 -4.95864 0.182555 0
M  V30 30365 N 2798.04 -0.879253 -1.30793 0
M  V30 30366 C 2799.27 -0.509584 -2.00526 0
M  V30 30367 C 2799.69 0.900421 -1.65945 0
M  V30 30368 O 2799.04 1.59129 -0.893553 0
M  V30 30369 C 2799.09 -0.668005 -3.55274 0
M  V30 30370 O 2798.82 -2.02249 -3.88622 0
M  V30 30371 C 2800.32 -0.300572 -4.4228 0
M  V30 30372 H 2797.54 -0.19756 -0.641257 0
M  V30 30373 H 2800.08 -1.18298 -1.66811 0
M  V30 30374 H 2798.24 -0.0420524 -3.87377 0
M  V30 30375 H 2798.65 -2.03697 -4.8333 0
M  V30 30376 H 2800.12 -0.462339 -5.5006 0
M  V30 30377 H 2800.6 0.760984 -4.32557 0
M  V30 30378 H 2801.21 -0.902609 -4.15612 0
M  V30 30379 N 2799.52 1.44037 -0.639624 0
M  V30 30380 C 2800.77 2.01563 -0.147224 0
M  V30 30381 C 2801.09 1.5063 1.23837 0
M  V30 30382 O 2800.36 0.713348 1.8245 0
M  V30 30383 H 2798.94 0.745227 -0.0514362 0
M  V30 30384 H 2801.6 1.76426 -0.828236 0
M  V30 30385 H 2800.7 3.11864 -0.121412 0
M  V30 30386 N 2801 0.380691 1.52933 0
M  V30 30387 C 2802.41 -0.0952356 1.86457 0
M  V30 30388 C 2802.76 -1.46886 1.30073 0
M  V30 30389 O 2801.89 -2.07067 0.628673 0
M  V30 30390 C 2802.48 -0.179589 3.38324 0
M  V30 30391 C 2801.04 -0.599793 3.7159 0
M  V30 30392 C 2800.19 0.243621 2.76228 0
M  V30 30393 H 2803.14 0.598906 1.46965 0
M  V30 30394 H 2803.16 -1.00035 3.67115 0
M  V30 30395 H 2802.67 0.820295 3.79332 0
M  V30 30396 H 2800.77 -1.60736 3.36147 0
M  V30 30397 H 2800.89 -0.363919 4.77716 0
M  V30 30398 H 2799.25 -0.289811 2.53046 0
M  V30 30399 H 2800.03 1.24132 3.20072 0
M  V30 30400 N 2802.48 -1.57214 0.110268 0
M  V30 30401 C 2803.39 -2.18385 -0.857039 0
M  V30 30402 C 2804.4 -1.15752 -1.29913 0
M  V30 30403 O 2805.58 -1.48186 -1.36392 0
M  V30 30404 C 2802.64 -2.76426 -2.09259 0
M  V30 30405 C 2801.71 -3.94066 -1.70326 0
M  V30 30406 C 2800.94 -4.4933 -2.87991 0
M  V30 30407 O 2801.16 -4.03504 -4.03163 0
M  V30 30408 O 2800.1 -5.4014 -2.6558 0
M  V30 30409 H 2803.92 -3.0148 -0.366508 0
M  V30 30410 H 2801.51 -1.48958 -0.114888 0
M  V30 30411 H 2803.39 -3.13461 -2.81639 0
M  V30 30412 H 2802.06 -1.96368 -2.57335 0
M  V30 30413 H 2800.97 -3.61816 -0.950801 0
M  V30 30414 H 2802.3 -4.75533 -1.26999 0
M  V30 30415 N 2803.96 0.163482 -1.5675 0
M  V30 30416 C 2804.92 1.1861 -1.96123 0
M  V30 30417 C 2805.92 1.36759 -0.845789 0
M  V30 30418 O 2807.11 1.34031 -1.11271 0
M  V30 30419 C 2804.24 2.54965 -2.26287 0
M  V30 30420 H 2805.43 0.848714 -2.8764 0
M  V30 30421 H 2802.99 0.406225 -1.50929 0
M  V30 30422 H 2803.72 2.93704 -1.37509 0
M  V30 30423 H 2803.51 2.43156 -3.07599 0
M  V30 30424 H 2805 3.28648 -2.57643 0
M  V30 30425 N 2805.43 1.51555 0.432299 0
M  V30 30426 C 2806.68 1.64148 1.17898 0
M  V30 30427 C 2807 0.362401 1.91603 0
M  V30 30428 O 2806.27 -0.621936 1.85765 0
M  V30 30429 H 2804.85 0.604974 0.438196 0
M  V30 30430 H 2807.51 1.88506 0.495139 0
M  V30 30431 H 2806.61 2.47156 1.90579 0
M  V30 30432 N 2806.91 -0.688069 1.41786 0
M  V30 30433 C 2807.86 -1.82318 1.44439 0
M  V30 30434 C 2808.85 -1.6632 0.321573 0
M  V30 30435 O 2810.06 -1.7309 0.493961 0
M  V30 30436 H 2806.43 -0.600928 0.452095 0
M  V30 30437 H 2808.41 -1.77198 2.40091 0
M  V30 30438 C 2807.15 -3.2039 1.35077 0
M  V30 30439 H 2806.48 -3.3332 2.20766 0
M  V30 30440 H 2807.92 -3.99871 1.40995 0
M  V30 30441 C 2806.38 -3.36839 0.0639719 0
M  V30 30442 O 2806.91 -3.91752 -0.888426 0
M  V30 30443 N 2805.11 -2.90596 -0.0145603 0
M  V30 30444 H 2804.66 -2.46095 0.761234 0
M  V30 30445 H 2804.62 -3.01981 -0.874935 0
M  V30 30446 N 2808.39 -1.27739 -0.923072 0
M  V30 30447 C 2809.62 -1.17174 -1.70523 0
M  V30 30448 C 2810.03 0.270848 -1.86847 0
M  V30 30449 O 2809.39 1.18399 -1.38881 0
M  V30 30450 C 2809.44 -1.85564 -3.10239 0
M  V30 30451 O 2809.16 -3.24187 -2.94677 0
M  V30 30452 C 2810.66 -1.81183 -4.04583 0
M  V30 30453 H 2807.88 -0.407172 -0.53334 0
M  V30 30454 H 2810.43 -1.68694 -1.15596 0
M  V30 30455 H 2808.58 -1.37937 -3.62011 0
M  V30 30456 H 2809 -3.58304 -3.83039 0
M  V30 30457 H 2810.47 -2.33642 -5.00115 0
M  V30 30458 H 2810.95 -0.782175 -4.32179 0
M  V30 30459 H 2811.55 -2.28447 -3.58737 0
M  V30 30460 N 2809.87 1.13022 -1.09836 0
M  V30 30461 C 2810.78 2.22161 -0.75377 0
M  V30 30462 C 2811.79 1.72251 0.246074 0
M  V30 30463 O 2812.97 2.01215 0.0863697 0
M  V30 30464 C 2810.04 3.46211 -0.184019 0
M  V30 30465 C 2809.1 4.10991 -1.24035 0
M  V30 30466 C 2808.33 5.2912 -0.69769 0
M  V30 30467 O 2808.55 5.68394 0.477992 0
M  V30 30468 O 2807.49 5.84056 -1.4547 0
M  V30 30469 H 2811.31 2.54017 -1.66461 0
M  V30 30470 H 2808.9 1.21236 -0.873047 0
M  V30 30471 H 2810.78 4.21199 0.130183 0
M  V30 30472 H 2809.45 3.16046 0.699767 0
M  V30 30473 H 2808.36 3.37811 -1.60731 0
M  V30 30474 H 2809.69 4.45297 -2.09693 0
M  V30 30475 N 2811.35 0.886177 1.30325 0
M  V30 30476 C 2812.26 0.357907 2.31854 0
M  V30 30477 C 2813.27 -0.540473 1.65393 0
M  V30 30478 O 2814.45 -0.433304 1.96684 0
M  V30 30479 C 2811.51 -0.417939 3.44172 0
M  V30 30480 C 2810.57 0.510338 4.26256 0
M  V30 30481 C 2809.81 -0.228575 5.3321 0
M  V30 30482 O 2810.03 -1.45449 5.51544 0
M  V30 30483 O 2808.96 0.421938 6.00419 0
M  V30 30484 H 2812.79 1.19987 2.78993 0
M  V30 30485 H 2810.38 0.650052 1.34516 0
M  V30 30486 H 2812.26 -0.857178 4.1259 0
M  V30 30487 H 2810.93 -1.23618 2.99166 0
M  V30 30488 H 2809.84 0.998414 3.60531 0
M  V30 30489 H 2811.17 1.29462 4.74869 0
M  V30 30490 N 2812.82 -1.43695 0.647253 0
M  V30 30491 C 2813.77 -2.3075 -0.0479687 0
M  V30 30492 C 2814.74 -1.44409 -0.82068 0
M  V30 30493 O 2815.93 -1.73288 -0.798484 0
M  V30 30494 C 2813.07 -3.29912 -1.01254 0
M  V30 30495 C 2812.18 -4.31352 -0.236553 0
M  V30 30496 C 2811.31 -5.17598 -1.19438 0
M  V30 30497 C 2810.35 -6.10735 -0.408488 0
M  V30 30498 N 2809.49 -6.89626 -1.3176 0
M  V30 30499 H 2814.33 -2.89655 0.700289 0
M  V30 30500 H 2811.87 -1.427 0.357107 0
M  V30 30501 H 2813.83 -3.85906 -1.58532 0
M  V30 30502 H 2812.46 -2.7267 -1.72774 0
M  V30 30503 H 2811.51 -3.777 0.45242 0
M  V30 30504 H 2812.82 -4.9739 0.374818 0
M  V30 30505 H 2811.97 -5.78189 -1.83799 0
M  V30 30506 H 2810.71 -4.51672 -1.83967 0
M  V30 30507 H 2809.72 -5.49238 0.248507 0
M  V30 30508 H 2810.94 -6.78703 0.232308 0
M  V30 30509 H 2808.89 -6.26354 -1.9498 0
M  V30 30510 H 2808.81 -7.52164 -0.760647 0
M  V30 30511 H 2810.07 -7.54727 -1.94954 0
M  V30 30512 N 2814.3 -0.388796 -1.52729 0
M  V30 30513 C 2815.53 0.196174 -2.0647 0
M  V30 30514 C 2815.95 1.39782 -1.25868 0
M  V30 30515 O 2815.31 1.79068 -0.283594 0
M  V30 30516 C 2815.36 0.545037 -3.56457 0
M  V30 30517 O 2814.46 1.63906 -3.78429 0
M  V30 30518 H 2813.8 0.0230553 -0.6636 0
M  V30 30519 H 2816.33 -0.556119 -1.96897 0
M  V30 30520 H 2816.34 0.809487 -3.99889 0
M  V30 30521 H 2815.02 -0.333489 -4.14561 0
M  V30 30522 H 2813.6 1.36836 -3.46887 0
M  V30 30523 N 2815.78 1.57153 -0.118604 0
M  V30 30524 C 2816.74 2.14128 0.817427 0
M  V30 30525 C 2817.74 1.07606 1.19488 0
M  V30 30526 O 2818.93 1.33384 1.12046 0
M  V30 30527 C 2816.07 2.68118 2.10536 0
M  V30 30528 H 2817.26 2.98163 0.322286 0
M  V30 30529 H 2814.81 1.55753 0.130628 0
M  V30 30530 H 2815.55 1.8767 2.64482 0
M  V30 30531 H 2815.33 3.46023 1.84419 0
M  V30 30532 H 2816.82 3.1211 2.77448 0
M  V30 30533 N 2817.26 -0.155167 1.56834 0
M  V30 30534 C 2818.17 -1.21142 2.00902 0
M  V30 30535 C 2819.18 -1.47498 0.923055 0
M  V30 30536 O 2820.36 -1.59329 1.23192 0
M  V30 30537 C 2817.43 -2.52686 2.37382 0
M  V30 30538 C 2816.49 -2.3405 3.59887 0
M  V30 30539 C 2815.72 -3.59322 3.94618 0
M  V30 30540 O 2815.94 -4.65169 3.30112 0
M  V30 30541 O 2814.88 -3.52471 4.87902 0
M  V30 30542 H 2818.7 -0.86732 2.91052 0
M  V30 30543 H 2816.29 -0.363272 1.44916 0
M  V30 30544 H 2818.17 -3.30255 2.61743 0
M  V30 30545 H 2816.84 -2.86643 1.5039 0
M  V30 30546 H 2815.75 -1.54459 3.40724 0
M  V30 30547 H 2817.08 -2.05012 4.47472 0
M  V30 30548 N 2818.74 -1.51782 -0.424256 0
M  V30 30549 C 2819.65 -1.76905 -1.54084 0
M  V30 30550 C 2820.66 -0.653854 -1.61247 0
M  V30 30551 O 2821.84 -0.937583 -1.78245 0
M  V30 30552 C 2818.9 -1.90068 -2.89957 0
M  V30 30553 C 2817.96 -3.1395 -2.92803 0
M  V30 30554 C 2817.2 -3.26476 -4.22195 0
M  V30 30555 O 2817.42 -2.44625 -5.15281 0
M  V30 30556 O 2816.35 -4.19538 -4.31592 0
M  V30 30557 H 2820.18 -2.71649 -1.35795 0
M  V30 30558 H 2817.77 -1.36442 -0.608594 0
M  V30 30559 H 2819.65 -2.00637 -3.70571 0
M  V30 30560 H 2818.32 -0.985121 -3.08346 0
M  V30 30561 H 2817.23 -3.08851 -2.11097 0
M  V30 30562 H 2818.56 -4.05238 -2.79361 0
M  V30 30563 N 2820.21 0.68054 -1.42149 0
M  V30 30564 C 2821.46 1.44274 -1.42523 0
M  V30 30565 C 2821.79 1.9416 -0.0394059 0
M  V30 30566 O 2821.07 1.7053 0.935395 0
M  V30 30567 C 2821.35 2.64389 -2.4448 0
M  V30 30568 C 2821.2 2.20172 -3.9223 0
M  V30 30569 C 2822.52 3.66602 -2.43497 0
M  V30 30570 H 2819.64 0.523273 -0.518994 0
M  V30 30571 H 2822.28 0.773883 -1.73525 0
M  V30 30572 H 2820.43 3.21454 -2.18173 0
M  V30 30573 H 2822.11 1.68319 -4.29496 0
M  V30 30574 H 2820.35 1.51803 -4.06372 0
M  V30 30575 H 2821.02 3.06425 -4.59138 0
M  V30 30576 H 2823.5 3.19242 -2.66877 0
M  V30 30577 H 2822.37 4.48234 -3.16824 0
M  V30 30578 H 2822.63 4.17336 -1.45889 0
M  V30 30579 N 2821.69 1.28226 0.916285 0
M  V30 30580 C 2822.92 1.18076 1.69899 0
M  V30 30581 C 2823.34 -0.260935 1.86988 0
M  V30 30582 O 2822.69 -1.17661 1.39507 0
M  V30 30583 C 2822.74 1.87207 3.0925 0
M  V30 30584 O 2822.46 3.25745 2.92954 0
M  V30 30585 C 2823.97 1.83327 4.03617 0
M  V30 30586 H 2821.19 0.409995 0.531173 0
M  V30 30587 H 2823.73 1.69305 1.147 0
M  V30 30588 H 2821.88 1.39855 3.61275 0
M  V30 30589 H 2822.3 3.6033 3.81133 0
M  V30 30590 H 2823.77 2.36291 4.98869 0
M  V30 30591 H 2824.25 0.805083 4.31758 0
M  V30 30592 H 2824.86 2.30346 3.5752 0
M  V30 30593 N 2823.17 -1.12438 1.10433 0
M  V30 30594 C 2824.1 -2.17294 0.697025 0
M  V30 30595 C 2825.08 -1.59778 -0.301645 0
M  V30 30596 O 2826.27 -1.8743 -0.20055 0
M  V30 30597 C 2823.39 -3.38688 0.028469 0
M  V30 30598 C 2822.44 -4.14836 0.990609 0
M  V30 30599 S 2823.27 -4.73142 2.50793 0
M  V30 30600 C 2824.43 -5.9787 1.85209 0
M  V30 30601 H 2824.66 -2.51508 1.58527 0
M  V30 30602 H 2822.19 -1.23898 0.921333 0
M  V30 30603 H 2824.15 -4.08997 -0.350937 0
M  V30 30604 H 2822.81 -3.02754 -0.836576 0
M  V30 30605 H 2822.01 -5.01803 0.470079 0
M  V30 30606 H 2821.61 -3.50235 1.31192 0
M  V30 30607 H 2823.9 -6.67104 1.18229 0
M  V30 30608 H 2824.84 -6.54549 2.70132 0
M  V30 30609 H 2825.25 -5.48931 1.31662 0
M  V30 30610 N 2824.65 -0.893076 -1.29853 0
M  V30 30611 C 2825.87 -0.530101 -2.00511 0
M  V30 30612 C 2826.3 0.876169 -1.66448 0
M  V30 30613 O 2825.66 1.58206 -0.885474 0
M  V30 30614 C 2825.71 -0.721567 -3.53307 0
M  V30 30615 O 2824.81 0.228922 -4.11764 0
M  V30 30616 H 2824.15 -0.207902 -0.630613 0
M  V30 30617 H 2826.68 -1.20285 -1.65508 0
M  V30 30618 H 2826.69 -0.623669 -4.03205 0
M  V30 30619 H 2825.37 -1.74684 -3.77436 0
M  V30 30620 H 2823.94 0.0840379 -3.72805 0
M  V30 30621 N 2826.13 1.4335 -0.654865 0
M  V30 30622 C 2827.54 1.85038 -0.248538 0
M  V30 30623 C 2827.89 1.54818 1.20523 0
M  V30 30624 O 2827.01 0.997974 1.92014 0
M  V30 30625 C 2827.61 3.35874 -0.4443 0
M  V30 30626 C 2826.17 3.76287 -0.0922769 0
M  V30 30627 C 2825.32 2.67067 -0.746374 0
M  V30 30628 H 2828.27 1.3348 -0.858423 0
M  V30 30629 H 2828.29 3.79238 0.309696 0
M  V30 30630 H 2827.8 3.57838 -1.50246 0
M  V30 30631 H 2825.9 3.59935 0.963217 0
M  V30 30632 H 2826.01 4.76282 -0.51889 0
M  V30 30633 H 2824.38 2.54067 -0.179461 0
M  V30 30634 H 2825.16 2.91858 -1.80759 0
M  V30 30635 N 2827.61 0.39689 1.52521 0
M  V30 30636 C 2828.57 -0.422564 2.25271 0
M  V30 30637 C 2829.57 -0.983891 1.27186 0
M  V30 30638 O 2830.76 -0.864697 1.51224 0
M  V30 30639 C 2827.89 -1.5936 3.01359 0
M  V30 30640 H 2829.08 0.214469 2.99132 0
M  V30 30641 H 2826.64 0.149156 1.55587 0
M  V30 30642 H 2827.37 -2.26785 2.31817 0
M  V30 30643 H 2827.16 -1.19772 3.73359 0
M  V30 30644 H 2828.65 -2.17357 3.56575 0
M  V30 30645 N 2829.08 -1.57088 0.126936 0
M  V30 30646 C 2830.33 -1.9464 -0.52899 0
M  V30 30647 C 2830.65 -1.01307 -1.67321 0
M  V30 30648 O 2831.85 -1.28356 -2.39243 0
M  V30 30649 C 2830.31 -3.45947 -0.992422 0
M  V30 30650 C 2829.92 -4.47829 0.12377 0
M  V30 30651 C 2831.66 -3.92403 -1.61927 0
M  V30 30652 C 2829.57 -5.90323 -0.356807 0
M  V30 30653 H 2828.5 -0.726609 -0.201384 0
M  V30 30654 H 2831.15 -1.82317 0.208064 0
M  V30 30655 H 2829.53 -3.53532 -1.78414 0
M  V30 30656 H 2830.7 -4.51921 0.900247 0
M  V30 30657 H 2829.02 -4.11172 0.657772 0
M  V30 30658 H 2831.62 -4.96285 -1.99011 0
M  V30 30659 H 2831.96 -3.32823 -2.50069 0
M  V30 30660 H 2832.49 -3.87651 -0.892826 0
M  V30 30661 H 2829.23 -6.53675 0.488751 0
M  V30 30662 H 2828.75 -5.89635 -1.09959 0
M  V30 30663 H 2830.43 -6.41841 -0.815435 0
M  V30 30664 N 2830.56 0.146848 -1.56914 0
M  V30 30665 C 2831.52 1.16523 -1.9737 0
M  V30 30666 C 2832.52 1.35854 -0.860247 0
M  V30 30667 O 2833.71 1.32844 -1.12686 0
M  V30 30668 C 2830.85 2.52551 -2.28978 0
M  V30 30669 H 2832.04 0.818158 -2.88524 0
M  V30 30670 H 2829.59 0.390194 -1.51351 0
M  V30 30671 H 2830.33 2.92229 -1.40616 0
M  V30 30672 H 2830.11 2.3988 -3.10161 0
M  V30 30673 H 2831.6 3.25897 -2.61115 0
M  V30 30674 N 2832.04 1.52005 0.4162 0
M  V30 30675 C 2833.29 1.64946 1.16085 0
M  V30 30676 C 2833.6 0.381962 1.91834 0
M  V30 30677 O 2834.81 0.39106 2.68669 0
M  V30 30678 C 2833.26 2.9139 2.11235 0
M  V30 30679 C 2832.87 4.25221 1.41035 0
M  V30 30680 C 2834.62 3.13693 2.86002 0
M  V30 30681 C 2832.52 5.42795 2.34792 0
M  V30 30682 H 2831.45 0.614427 0.43703 0
M  V30 30683 H 2834.1 1.78488 0.42594 0
M  V30 30684 H 2832.49 2.7153 2.88249 0
M  V30 30685 H 2833.66 4.55539 0.694336 0
M  V30 30686 H 2831.97 4.08965 0.783368 0
M  V30 30687 H 2834.57 3.9871 3.56279 0
M  V30 30688 H 2834.91 2.27634 3.48552 0
M  V30 30689 H 2835.45 3.33991 2.16089 0
M  V30 30690 H 2832.19 6.31179 1.76899 0
M  V30 30691 H 2831.71 5.16826 3.04386 0
M  V30 30692 H 2833.39 5.75592 2.9547 0
M  V30 30693 N 2833.52 -0.672992 1.42508 0
M  V30 30694 C 2834.45 -1.79772 1.40561 0
M  V30 30695 C 2835.43 -1.60349 0.269634 0
M  V30 30696 O 2836.61 -1.82798 0.460137 0
M  V30 30697 C 2833.74 -3.16797 1.19821 0
M  V30 30698 C 2832.79 -3.54966 2.36435 0
M  V30 30699 S 2833.62 -3.57189 3.98969 0
M  V30 30700 C 2834.77 -4.96903 3.80576 0
M  V30 30701 H 2835.01 -1.8115 2.35737 0
M  V30 30702 H 2832.54 -0.843823 1.29302 0
M  V30 30703 H 2834.5 -3.9589 1.08542 0
M  V30 30704 H 2833.16 -3.13003 0.26227 0
M  V30 30705 H 2832.35 -4.54569 2.17677 0
M  V30 30706 H 2831.95 -2.83238 2.44238 0
M  V30 30707 H 2834.25 -5.85032 3.41678 0
M  V30 30708 H 2835.19 -5.2071 4.79862 0
M  V30 30709 H 2835.6 -4.69506 3.13407 0
M  V30 30710 N 2835 -1.2871 -0.909472 0
M  V30 30711 C 2835.93 -1.08807 -2.01727 0
M  V30 30712 C 2836.94 -0.0385025 -1.62754 0
M  V30 30713 O 2838.13 -0.282008 -1.76258 0
M  V30 30714 C 2835.23 -0.632228 -3.32951 0
M  V30 30715 C 2834.4 -1.75816 -4.00509 0
M  V30 30716 C 2833.46 -1.29497 -5.10017 0
M  V30 30717 O 2832.49 -1.99796 -5.32982 0
M  V30 30718 N 2833.69 -0.160502 -5.80278 0
M  V30 30719 H 2836.45 -2.04211 -2.19358 0
M  V30 30720 H 2834.02 -1.2052 -1.08104 0
M  V30 30721 H 2836.01 -0.305873 -4.03542 0
M  V30 30722 H 2834.58 0.229079 -3.1176 0
M  V30 30723 H 2833.8 -2.25389 -3.23409 0
M  V30 30724 H 2835.09 -2.51333 -4.4239 0
M  V30 30725 H 2834.48 0.425838 -5.64095 0
M  V30 30726 H 2833.04 0.106549 -6.51713 0
M  V30 30727 N 2836.47 1.1185 -1.11028 0
M  V30 30728 C 2837.88 1.6502 -0.873232 0
M  V30 30729 C 2838.24 1.8695 0.595331 0
M  V30 30730 O 2837.36 1.60054 1.45643 0
M  V30 30731 C 2837.96 2.99774 -1.57864 0
M  V30 30732 C 2836.51 3.49868 -1.38813 0
M  V30 30733 C 2835.66 2.24765 -1.62407 0
M  V30 30734 H 2838.61 0.955481 -1.26713 0
M  V30 30735 H 2838.63 3.66541 -1.02118 0
M  V30 30736 H 2838.15 2.83781 -2.64745 0
M  V30 30737 H 2836.25 3.71034 -0.341228 0
M  V30 30738 H 2836.36 4.28935 -2.13429 0
M  V30 30739 H 2834.72 2.32177 -1.04718 0
M  V30 30740 H 2835.51 2.11319 -2.70553 0
M  V30 30741 N 2837.95 0.89995 1.29378 0
M  V30 30742 C 2839.2 0.521971 1.94829 0
M  V30 30743 C 2839.51 -0.936443 1.71727 0
M  V30 30744 O 2840.72 -1.42195 2.31285 0
M  V30 30745 C 2839.18 0.882611 3.4891 0
M  V30 30746 C 2838.78 2.35981 3.80811 0
M  V30 30747 C 2840.53 0.574554 4.20594 0
M  V30 30748 C 2838.43 2.6613 5.28137 0
M  V30 30749 H 2837.36 0.191481 0.729281 0
M  V30 30750 H 2840.02 1.09698 1.47101 0
M  V30 30751 H 2838.4 0.236529 3.95293 0
M  V30 30752 H 2839.57 3.05147 3.45286 0
M  V30 30753 H 2837.89 2.63692 3.22266 0
M  V30 30754 H 2840.48 0.776649 5.2903 0
M  V30 30755 H 2840.83 -0.486932 4.13442 0
M  V30 30756 H 2841.36 1.17849 3.79943 0
M  V30 30757 H 2838.1 3.71077 5.40353 0
M  V30 30758 H 2837.62 2.01588 5.64909 0
M  V30 30759 H 2839.3 2.5241 5.95734 0
M  V30 30760 N 2839.43 -1.43001 0.662458 0
M  V30 30761 C 2840.36 -2.33498 -0.00975705 0
M  V30 30762 C 2841.34 -1.4999 -0.802303 0
M  V30 30763 O 2842.53 -1.78629 -0.761932 0
M  V30 30764 C 2839.66 -3.33468 -0.970388 0
M  V30 30765 C 2838.61 -4.27035 -0.287308 0
M  V30 30766 C 2837.94 -5.17114 -1.36003 0
M  V30 30767 C 2839.24 -5.15727 0.826041 0
M  V30 30768 H 2840.93 -2.89957 0.74601 0
M  V30 30769 H 2838.48 -1.39422 0.360197 0
M  V30 30770 H 2840.43 -3.95681 -1.44964 0
M  V30 30771 H 2839.15 -2.75285 -1.75743 0
M  V30 30772 H 2837.81 -3.66198 0.171584 0
M  V30 30773 H 2837.46 -4.55266 -2.13874 0
M  V30 30774 H 2837.16 -5.80539 -0.908174 0
M  V30 30775 H 2838.68 -5.82202 -1.84045 0
M  V30 30776 H 2840.1 -5.71696 0.428551 0
M  V30 30777 H 2838.5 -5.8792 1.20292 0
M  V30 30778 H 2839.57 -4.54863 1.68011 0
M  V30 30779 N 2840.91 -0.404973 -1.52308 0
M  V30 30780 C 2842.32 -0.0556535 -1.59503 0
M  V30 30781 C 2842.52 1.43154 -1.41807 0
M  V30 30782 O 2841.58 2.19789 -1.24293 0
M  V30 30783 C 2842.89 -0.546853 -2.95686 0
M  V30 30784 C 2844.44 -0.504467 -3.08908 0
M  V30 30785 C 2844.92 -0.972109 -4.47565 0
M  V30 30786 N 2846.41 -0.928759 -4.53793 0
M  V30 30787 C 2847.14 -1.26183 -5.59344 0
M  V30 30788 N 2846.64 -1.66616 -6.72466 0
M  V30 30789 N 2848.43 -1.18207 -5.4953 0
M  V30 30790 H 2840.58 -1.37299 -1.62058 0
M  V30 30791 H 2842.85 -0.563764 -0.762151 0
M  V30 30792 H 2842.55 -1.58614 -3.13902 0
M  V30 30793 H 2842.43 0.0457242 -3.77172 0
M  V30 30794 H 2844.81 0.525768 -2.90379 0
M  V30 30795 H 2844.89 -1.13305 -2.29338 0
M  V30 30796 H 2844.54 -2.00065 -4.66837 0
M  V30 30797 H 2844.47 -0.320384 -5.25624 0
M  V30 30798 H 2846.96 -0.631434 -3.72587 0
M  V30 30799 H 2847.27 -1.90353 -7.4899 0
M  V30 30800 H 2845.62 -1.70516 -6.73758 0
M  V30 30801 H 2848.81 -0.865092 -4.60037 0
M  V30 30802 H 2848.98 -1.44496 -6.31684 0
M  V30 30803 N 2842.39 1.57018 -0.135265 0
M  V30 30804 C 2843.63 1.95743 0.51876 0
M  V30 30805 C 2843.96 1.01949 1.6564 0
M  V30 30806 O 2843.22 0.046436 1.95645 0
M  V30 30807 C 2843.52 3.4079 1.07688 0
M  V30 30808 C 2843.18 4.50862 0.0589128 0
M  V30 30809 C 2841.84 4.80692 -0.220957 0
M  V30 30810 C 2844.2 5.1733 -0.633947 0
M  V30 30811 C 2841.52 5.74303 -1.19969 0
M  V30 30812 C 2843.88 6.11994 -1.60142 0
M  V30 30813 C 2842.54 6.4021 -1.88911 0
M  V30 30814 H 2841.81 0.716273 0.189828 0
M  V30 30815 H 2844.46 1.90237 -0.219614 0
M  V30 30816 H 2842.76 3.4307 1.89235 0
M  V30 30817 H 2844.46 3.68074 1.59131 0
M  V30 30818 H 2841.05 4.27636 0.287229 0
M  V30 30819 H 2845.23 4.94426 -0.43091 0
M  V30 30820 H 2840.49 5.94462 -1.42916 0
M  V30 30821 H 2844.66 6.62579 -2.14388 0
M  V30 30822 H 2842.29 7.12552 -2.64904 0
M  V30 30823 N 2843.86 -0.138524 1.5699 0
M  V30 30824 C 2844.79 -1.17237 2.01935 0
M  V30 30825 C 2845.78 -1.44318 0.900356 0
M  V30 30826 O 2846.96 -1.55093 1.16875 0
M  V30 30827 C 2844.09 -2.50347 2.40715 0
M  V30 30828 C 2843.04 -2.3777 3.55878 0
M  V30 30829 C 2842.37 -3.75667 3.80498 0
M  V30 30830 C 2843.67 -1.85463 4.88263 0
M  V30 30831 H 2845.36 -0.798622 2.88552 0
M  V30 30832 H 2842.91 -0.382719 1.38821 0
M  V30 30833 H 2844.86 -3.22905 2.70759 0
M  V30 30834 H 2843.59 -2.89574 1.51045 0
M  V30 30835 H 2842.25 -1.67663 3.26013 0
M  V30 30836 H 2841.89 -4.12344 2.88064 0
M  V30 30837 H 2841.59 -3.68111 4.58005 0
M  V30 30838 H 2843.12 -4.4976 4.12975 0
M  V30 30839 H 2844.53 -2.47821 5.1697 0
M  V30 30840 H 2842.93 -1.88777 5.69634 0
M  V30 30841 H 2844 -0.810851 4.78072 0
M  V30 30842 N 2845.34 -1.52224 -0.408133 0
M  V30 30843 C 2846.27 -1.71867 -1.51639 0
M  V30 30844 C 2847.29 -0.599083 -1.51376 0
M  V30 30845 O 2848.48 -0.874266 -1.55624 0
M  V30 30846 C 2845.58 -1.74486 -2.9053 0
M  V30 30847 C 2844.75 -3.03497 -3.14974 0
M  V30 30848 C 2843.81 -2.97915 -4.33743 0
M  V30 30849 O 2842.83 -3.71819 -4.30975 0
M  V30 30850 N 2844.04 -2.15774 -5.38908 0
M  V30 30851 H 2846.8 -2.6748 -1.35183 0
M  V30 30852 H 2844.36 -1.50473 -0.597442 0
M  V30 30853 H 2846.35 -1.68282 -3.68053 0
M  V30 30854 H 2844.92 -0.863416 -3.00439 0
M  V30 30855 H 2844.14 -3.23341 -2.25486 0
M  V30 30856 H 2845.43 -3.88839 -3.28149 0
M  V30 30857 H 2844.83 -1.55161 -5.44005 0
M  V30 30858 H 2843.39 -2.15426 -6.15171 0
M  V30 30859 N 2846.82 0.665425 -1.42863 0
M  V30 30860 C 2847.75 1.79056 -1.4987 0
M  V30 30861 C 2848.73 1.66367 -0.354423 0
M  V30 30862 O 2849.92 1.85646 -0.570002 0
M  V30 30863 C 2847.05 3.17413 -1.40949 0
M  V30 30864 C 2846 3.4485 -2.53501 0
M  V30 30865 C 2845.33 4.82879 -2.29634 0
M  V30 30866 C 2846.63 3.40808 -3.95787 0
M  V30 30867 H 2848.32 1.73449 -2.44041 0
M  V30 30868 H 2845.87 0.83305 -1.17458 0
M  V30 30869 H 2847.82 3.95866 -1.44457 0
M  V30 30870 H 2846.54 3.2372 -0.432773 0
M  V30 30871 H 2845.2 2.68761 -2.49325 0
M  V30 30872 H 2844.85 4.85848 -1.30235 0
M  V30 30873 H 2844.55 5.02199 -3.05074 0
M  V30 30874 H 2846.07 5.63605 -2.34907 0
M  V30 30875 H 2847.49 4.09217 -4.01515 0
M  V30 30876 H 2845.89 3.71664 -4.71154 0
M  V30 30877 H 2846.96 2.39209 -4.21791 0
M  V30 30878 N 2848.3 1.29191 0.902633 0
M  V30 30879 C 2849.23 1.1662 2.02292 0
M  V30 30880 C 2850.21 0.0611474 1.6999 0
M  V30 30881 O 2851.39 0.240106 1.9271 0
M  V30 30882 C 2848.52 0.838879 3.37016 0
M  V30 30883 C 2847.48 1.89993 3.83519 0
M  V30 30884 C 2846.8 1.42598 5.15335 0
M  V30 30885 C 2848.1 3.30832 4.04163 0
M  V30 30886 H 2849.8 2.10339 2.13067 0
M  V30 30887 H 2847.34 1.01268 1.02376 0
M  V30 30888 H 2849.3 0.737657 4.14893 0
M  V30 30889 H 2848.02 -0.134013 3.26325 0
M  V30 30890 H 2846.68 1.99048 3.07856 0
M  V30 30891 H 2846.33 0.441847 5.01056 0
M  V30 30892 H 2846.03 2.13556 5.47419 0
M  V30 30893 H 2847.55 1.3382 5.95755 0
M  V30 30894 H 2848.97 3.24634 4.72531 0
M  V30 30895 H 2847.36 3.99721 4.47597 0
M  V30 30896 H 2848.43 3.74026 3.08597 0
M  V30 30897 N 2849.78 -1.1126 1.1162 0
M  V30 30898 C 2851.02 -1.84668 0.876186 0
M  V30 30899 C 2851.38 -1.8279 -0.587519 0
M  V30 30900 O 2852.58 -2.51665 -0.944367 0
M  V30 30901 C 2850.85 -3.27777 1.42467 0
M  V30 30902 S 2852.41 -4.18414 1.32192 0
M  V30 30903 H 2849.23 -0.636774 0.316292 0
M  V30 30904 H 2851.83 -1.33943 1.42406 0
M  V30 30905 H 2850.54 -3.2671 2.48372 0
M  V30 30906 H 2850.07 -3.83571 0.873911 0
M  V30 30907 H 2852.08 -4.95365 0.287694 0
M  V30 30908 N 2851.25 -0.906798 -1.28899 0
M  V30 30909 C 2852.16 -0.394747 -2.31255 0
M  V30 30910 C 2853.18 0.514092 -1.66232 0
M  V30 30911 O 2854.36 0.401959 -1.97348 0
M  V30 30912 C 2851.42 0.363131 -3.44793 0
M  V30 30913 C 2850.48 -0.578087 -4.2539 0
M  V30 30914 C 2849.72 0.143717 -5.33506 0
M  V30 30915 O 2849.94 1.36656 -5.53788 0
M  V30 30916 O 2848.87 -0.517406 -5.99672 0
M  V30 30917 H 2852.7 -1.2441 -2.77048 0
M  V30 30918 H 2850.28 -0.67137 -1.33465 0
M  V30 30919 H 2852.17 0.79143 -4.13901 0
M  V30 30920 H 2850.84 1.18843 -3.01095 0
M  V30 30921 H 2849.75 -1.05564 -3.58897 0
M  V30 30922 H 2851.08 -1.37 -4.72749 0
M  V30 30923 N 2852.73 1.42648 -0.670032 0
M  V30 30924 C 2853.68 2.32589 0.0229697 0
M  V30 30925 C 2854.67 1.49557 0.795559 0
M  V30 30926 O 2855.88 1.65659 0.704061 0
M  V30 30927 H 2852.26 0.751543 0.0262209 0
M  V30 30928 H 2854.23 2.88741 -0.75306 0
M  V30 30929 C 2852.98 3.34075 0.963813 0
M  V30 30930 H 2852.3 3.98002 0.378743 0
M  V30 30931 H 2853.74 3.99604 1.41748 0
M  V30 30932 C 2852.2 2.65967 2.06792 0
M  V30 30933 O 2852.73 2.48795 3.15379 0
M  V30 30934 N 2850.93 2.25069 1.83827 0
M  V30 30935 H 2850.48 2.39236 0.955193 0
M  V30 30936 H 2850.44 1.79831 2.57892 0
M  V30 30937 N 2854.21 0.413044 1.52091 0
M  V30 30938 C 2855.16 -0.427954 2.23948 0
M  V30 30939 C 2856.15 -1.01025 1.25231 0
M  V30 30940 O 2857.34 -0.932417 1.50449 0
M  V30 30941 C 2854.47 -1.54195 3.06723 0
M  V30 30942 C 2853.55 -0.970234 4.12853 0
M  V30 30943 N 2853.94 -0.125522 5.05644 0
M  V30 30944 C 2852.24 -1.24034 4.28406 0
M  V30 30945 C 2852.94 0.192978 5.8138 0
M  V30 30946 N 2851.92 -0.417178 5.41997 0
M  V30 30947 H 2855.72 0.223679 2.93048 0
M  V30 30948 H 2853.23 0.223692 1.60852 0
M  V30 30949 H 2855.23 -2.15707 3.56758 0
M  V30 30950 H 2853.89 -2.19616 2.39163 0
M  V30 30951 H 2854.9 0.239086 5.17348 0
M  V30 30952 H 2851.58 -1.89385 3.72075 0
M  V30 30953 H 2852.97 0.878879 6.66127 0
M  V30 30954 N 2855.69 -1.56945 0.143591 0
M  V30 30955 C 2856.64 -2.17872 -0.814517 0
M  V30 30956 C 2857.63 -1.13476 -1.25776 0
M  V30 30957 O 2858.84 -1.31733 -1.22664 0
M  V30 30958 H 2855.21 -0.697583 -0.28086 0
M  V30 30959 H 2857.18 -2.97117 -0.276407 0
M  V30 30960 C 2855.93 -2.81204 -2.04498 0
M  V30 30961 H 2855.26 -3.61248 -1.71289 0
M  V30 30962 H 2856.7 -3.27342 -2.69487 0
M  V30 30963 C 2855.15 -1.79537 -2.85076 0
M  V30 30964 O 2855.68 -1.26374 -3.81304 0
M  V30 30965 N 2853.89 -1.48918 -2.49543 0
M  V30 30966 H 2853.44 -1.92341 -1.71356 0
M  V30 30967 H 2853.4 -0.811401 -3.03749 0
M  V30 30968 N 2857.17 0.130197 -1.57061 0
M  V30 30969 C 2858.58 0.483386 -1.52104 0
M  V30 30970 C 2858.78 1.82471 -0.854784 0
M  V30 30971 O 2857.84 2.4877 -0.432386 0
M  V30 30972 C 2859.15 0.478198 -2.96873 0
M  V30 30973 C 2860.7 0.562538 -3.07903 0
M  V30 30974 C 2861.18 0.587849 -4.54212 0
M  V30 30975 N 2862.67 0.649603 -4.58622 0
M  V30 30976 C 2863.4 0.690451 -5.69228 0
M  V30 30977 N 2862.9 0.689622 -6.89359 0
M  V30 30978 N 2864.69 0.73261 -5.57305 0
M  V30 30979 H 2856.84 -0.748814 -1.98763 0
M  V30 30980 H 2859.1 -0.274981 -0.907243 0
M  V30 30981 H 2858.81 -0.439506 -3.48943 0
M  V30 30982 H 2858.68 1.31007 -3.53719 0
M  V30 30983 H 2861.07 1.47066 -2.55843 0
M  V30 30984 H 2861.15 -0.296809 -2.54072 0
M  V30 30985 H 2860.8 -0.316185 -5.06915 0
M  V30 30986 H 2860.73 1.46392 -5.05843 0
M  V30 30987 H 2863.22 0.656862 -3.72147 0
M  V30 30988 H 2863.53 0.723104 -7.6941 0
M  V30 30989 H 2861.88 0.657226 -6.91885 0
M  V30 30990 H 2865.07 0.730544 -4.62364 0
M  V30 30991 H 2865.24 0.760977 -6.43516 0
M  V30 30992 N 2858.65 1.52438 0.400055 0
M  V30 30993 C 2859.56 1.79334 1.5125 0
M  V30 30994 C 2860.57 0.679425 1.60187 0
M  V30 30995 O 2861.75 0.965822 1.76731 0
M  V30 30996 C 2858.81 1.94657 2.86896 0
M  V30 30997 C 2857.87 3.18569 2.87772 0
M  V30 30998 C 2857.11 3.33152 4.16948 0
M  V30 30999 O 2857.33 2.52792 5.11324 0
M  V30 31000 O 2856.26 4.26351 4.24863 0
M  V30 31001 H 2860.09 2.73775 1.31456 0
M  V30 31002 H 2857.67 1.37393 0.58681 0
M  V30 31003 H 2859.56 2.06507 3.67332 0
M  V30 31004 H 2858.23 1.03405 3.06739 0
M  V30 31005 H 2857.14 3.1217 2.06157 0
M  V30 31006 H 2858.47 4.09631 2.72879 0
M  V30 31007 N 2860.12 -0.657839 1.43214 0
M  V30 31008 C 2861.05 -1.78259 1.50818 0
M  V30 31009 C 2862.03 -1.66176 0.363241 0
M  V30 31010 O 2863.22 -1.85342 0.579839 0
M  V30 31011 C 2860.35 -3.16661 1.4263 0
M  V30 31012 C 2859.3 -3.43501 2.55326 0
M  V30 31013 C 2858.63 -4.81654 2.32192 0
M  V30 31014 C 2859.93 -3.38704 3.97589 0
M  V30 31015 H 2861.62 -1.72152 2.44957 0
M  V30 31016 H 2859.17 -0.826809 1.17898 0
M  V30 31017 H 2861.12 -3.95095 1.46555 0
M  V30 31018 H 2859.85 -3.23486 0.449934 0
M  V30 31019 H 2858.51 -2.67435 2.50747 0
M  V30 31020 H 2858.15 -4.8515 1.32809 0
M  V30 31021 H 2857.85 -5.00574 3.07733 0
M  V30 31022 H 2859.38 -5.62352 2.37893 0
M  V30 31023 H 2860.79 -4.07082 4.0368 0
M  V30 31024 H 2859.19 -3.6916 4.73118 0
M  V30 31025 H 2860.26 -2.36968 4.23053 0
M  V30 31026 N 2861.6 -1.29668 -0.895769 0
M  V30 31027 C 2862.53 -1.10941 -2.00561 0
M  V30 31028 C 2863.55 -0.0557626 -1.62704 0
M  V30 31029 O 2864.74 -0.300687 -1.75949 0
M  V30 31030 C 2861.84 -0.667506 -3.32261 0
M  V30 31031 C 2861.01 -1.80054 -3.98622 0
M  V30 31032 C 2860.07 -1.34899 -5.08615 0
M  V30 31033 O 2859.09 -2.05438 -5.30833 0
M  V30 31034 N 2860.3 -0.222039 -5.80075 0
M  V30 31035 H 2863.06 -2.06526 -2.1718 0
M  V30 31036 H 2860.62 -1.2166 -1.0682 0
M  V30 31037 H 2862.61 -0.348657 -4.03195 0
M  V30 31038 H 2861.18 0.196 -3.11985 0
M  V30 31039 H 2860.4 -2.28806 -3.21001 0
M  V30 31040 H 2861.69 -2.56011 -4.397 0
M  V30 31041 H 2861.09 0.365984 -5.64515 0
M  V30 31042 H 2859.65 0.0374201 -6.51789 0
M  V30 31043 N 2863.08 1.10667 -1.12208 0
M  V30 31044 C 2864.03 2.19026 -0.782957 0
M  V30 31045 C 2865.02 1.67843 0.229145 0
M  V30 31046 O 2866.23 1.79787 0.0875979 0
M  V30 31047 H 2862.6 0.714223 -0.235351 0
M  V30 31048 H 2864.57 2.44871 -1.70531 0
M  V30 31049 C 2863.32 3.46791 -0.251221 0
M  V30 31050 H 2862.65 3.86535 -1.0213 0
M  V30 31051 H 2864.09 4.23968 -0.0522154 0
M  V30 31052 C 2862.54 3.21078 1.02031 0
M  V30 31053 O 2863.07 3.42525 2.09855 0
M  V30 31054 N 2861.28 2.74761 0.946299 0
M  V30 31055 H 2860.83 2.57508 0.0687317 0
M  V30 31056 H 2860.79 2.57934 1.7977 0
M  V30 31057 N 2864.56 0.913621 1.28416 0
M  V30 31058 C 2865.8 0.546708 1.9498 0
M  V30 31059 C 2866.13 -0.909576 1.71921 0
M  V30 31060 O 2865.39 -1.66205 1.03317 0
M  V30 31061 C 2865.69 0.80216 3.48282 0
M  V30 31062 C 2865.35 2.23797 3.9144 0
M  V30 31063 C 2864.01 2.63053 4.02935 0
M  V30 31064 C 2866.37 3.17234 4.13536 0
M  V30 31065 C 2863.69 3.94899 4.33903 0
M  V30 31066 C 2866.05 4.48644 4.45984 0
M  V30 31067 C 2864.71 4.87754 4.55689 0
M  V30 31068 H 2863.98 0.200055 0.713484 0
M  V30 31069 H 2866.63 1.15492 1.52754 0
M  V30 31070 H 2864.93 0.111145 3.91642 0
M  V30 31071 H 2866.63 0.497445 3.97903 0
M  V30 31072 H 2863.22 1.92336 3.8302 0
M  V30 31073 H 2867.4 2.88114 4.04109 0
M  V30 31074 H 2862.66 4.24902 4.39623 0
M  V30 31075 H 2866.83 5.21059 4.62029 0
M  V30 31076 H 2864.46 5.8995 4.7944 0
M  V30 31077 N 2866.04 -1.4229 0.677588 0
M  V30 31078 C 2866.97 -2.33495 0.0150091 0
M  V30 31079 C 2867.95 -1.50833 -0.786349 0
M  V30 31080 O 2869.13 -1.79427 -0.742943 0
M  V30 31081 C 2866.26 -3.34478 -0.934964 0
M  V30 31082 C 2865.22 -4.27315 -0.241999 0
M  V30 31083 C 2864.54 -5.18528 -1.3051 0
M  V30 31084 C 2865.84 -5.14821 0.880694 0
M  V30 31085 H 2867.54 -2.89149 0.776722 0
M  V30 31086 H 2865.08 -1.39032 0.374964 0
M  V30 31087 H 2867.03 -3.97196 -1.40759 0
M  V30 31088 H 2865.76 -2.77134 -1.72813 0
M  V30 31089 H 2864.42 -3.65996 0.210415 0
M  V30 31090 H 2864.07 -4.57509 -2.09033 0
M  V30 31091 H 2863.77 -5.8147 -0.846549 0
M  V30 31092 H 2865.29 -5.84122 -1.7786 0
M  V30 31093 H 2866.7 -5.71209 0.489163 0
M  V30 31094 H 2865.1 -5.86611 1.26521 0
M  V30 31095 H 2866.17 -4.53056 1.72826 0
M  V30 31096 N 2867.51 -0.421104 -1.5187 0
M  V30 31097 C 2868.93 -0.0725678 -1.59435 0
M  V30 31098 C 2869.13 1.41641 -1.43318 0
M  V30 31099 O 2868.19 2.18459 -1.26618 0
M  V30 31100 C 2869.5 -0.578184 -2.95089 0
M  V30 31101 C 2871.05 -0.537203 -3.08356 0
M  V30 31102 C 2871.52 -1.01952 -4.46508 0
M  V30 31103 N 2873.01 -0.976837 -4.52783 0
M  V30 31104 C 2873.75 -1.32109 -5.57974 0
M  V30 31105 N 2873.24 -1.73739 -6.70661 0
M  V30 31106 N 2875.04 -1.24029 -5.48246 0
M  V30 31107 H 2867.19 -1.3901 -1.60593 0
M  V30 31108 H 2869.45 -0.571816 -0.756128 0
M  V30 31109 H 2869.16 -1.61935 -3.12202 0
M  V30 31110 H 2869.03 0.00571743 -3.772 0
M  V30 31111 H 2871.42 0.49494 -2.9092 0
M  V30 31112 H 2871.5 -1.15731 -2.28123 0
M  V30 31113 H 2871.14 -2.05005 -4.64688 0
M  V30 31114 H 2871.07 -0.376116 -5.25255 0
M  V30 31115 H 2873.56 -0.670916 -3.71897 0
M  V30 31116 H 2873.88 -1.98287 -7.46929 0
M  V30 31117 H 2872.22 -1.77653 -6.71911 0
M  V30 31118 H 2875.41 -0.913836 -4.59093 0
M  V30 31119 H 2875.59 -1.51187 -6.30116 0
M  V30 31120 N 2868.99 1.56866 -0.151912 0
M  V30 31121 C 2869.94 2.18301 0.802952 0
M  V30 31122 C 2870.93 1.14141 1.25172 0
M  V30 31123 O 2872.14 1.32382 1.21963 0
M  V30 31124 H 2868.52 0.699062 0.277157 0
M  V30 31125 H 2870.49 2.97259 0.260646 0
M  V30 31126 C 2869.24 2.82285 2.03004 0
M  V30 31127 H 2868.56 3.62151 1.69371 0
M  V30 31128 H 2870 3.28767 2.67747 0
M  V30 31129 C 2868.46 1.81046 2.8412 0
M  V30 31130 O 2868.99 1.28395 3.80628 0
M  V30 31131 N 2867.19 1.50239 2.4875 0
M  V30 31132 H 2866.74 1.93247 1.70333 0
M  V30 31133 H 2866.7 0.827498 3.03315 0
M  V30 31134 N 2870.47 -0.121866 1.57128 0
M  V30 31135 C 2871.4 -1.17526 1.96775 0
M  V30 31136 C 2872.42 -1.37813 0.866692 0
M  V30 31137 O 2873.6 -1.36938 1.145 0
M  V30 31138 C 2870.7 -2.53578 2.24836 0
M  V30 31139 C 2869.88 -2.53932 3.56142 0
M  V30 31140 C 2868.94 -3.71709 3.7245 0
M  V30 31141 O 2867.96 -3.55426 4.44591 0
M  V30 31142 N 2869.16 -4.90161 3.11002 0
M  V30 31143 H 2871.93 -0.838035 2.87745 0
M  V30 31144 H 2869.49 -0.311171 1.58882 0
M  V30 31145 H 2871.48 -3.30923 2.32964 0
M  V30 31146 H 2870.05 -2.79494 1.40007 0
M  V30 31147 H 2869.27 -1.62322 3.59228 0
M  V30 31148 H 2870.56 -2.51223 4.42453 0
M  V30 31149 H 2869.96 -5.06294 2.52354 0
M  V30 31150 H 2868.52 -5.65193 3.24654 0
M  V30 31151 N 2871.95 -1.52648 -0.391965 0
M  V30 31152 C 2872.9 -1.7785 -1.49907 0
M  V30 31153 C 2873.89 -0.64631 -1.56586 0
M  V30 31154 O 2875.1 -0.828726 -1.59788 0
M  V30 31155 H 2871.47 -0.562699 -0.498873 0
M  V30 31156 H 2873.44 -2.70566 -1.25843 0
M  V30 31157 C 2872.19 -1.96168 -2.87077 0
M  V30 31158 H 2871.51 -2.82716 -2.82687 0
M  V30 31159 H 2872.95 -2.17793 -3.63788 0
M  V30 31160 C 2871.41 -0.733406 -3.2882 0
M  V30 31161 O 2871.94 0.0905775 -4.01598 0
M  V30 31162 N 2870.15 -0.564367 -2.85067 0
M  V30 31163 H 2869.7 -1.23602 -2.2601 0
M  V30 31164 H 2869.65 0.256111 -3.13355 0
M  V30 31165 N 2873.43 0.650235 -1.43561 0
M  V30 31166 C 2874.37 1.78425 -1.49223 0
M  V30 31167 C 2875.37 1.65409 -0.365557 0
M  V30 31168 O 2876.57 1.71719 -0.539679 0
M  V30 31169 H 2872.95 0.58873 -0.467869 0
M  V30 31170 H 2874.92 1.7077 -2.44704 0
M  V30 31171 C 2873.67 3.16696 -1.43524 0
M  V30 31172 H 2872.99 3.2735 -2.29526 0
M  V30 31173 H 2874.43 3.95992 -1.51547 0
M  V30 31174 C 2872.89 3.36551 -0.153256 0
M  V30 31175 O 2873.42 3.9397 0.784247 0
M  V30 31176 N 2871.63 2.90533 -0.0624913 0
M  V30 31177 H 2871.17 2.43991 -0.826215 0
M  V30 31178 H 2871.13 3.04194 0.794563 0
M  V30 31179 N 2874.9 1.30141 0.88888 0
M  V30 31180 C 2875.85 1.16191 1.9942 0
M  V30 31181 C 2876.82 0.0524161 1.66017 0
M  V30 31182 O 2878.01 0.221897 1.89505 0
M  V30 31183 C 2875.15 0.855671 3.34324 0
M  V30 31184 C 2874.26 2.04667 3.80441 0
M  V30 31185 C 2873.39 1.67885 5.03972 0
M  V30 31186 C 2872.43 2.83503 5.42487 0
M  V30 31187 N 2871.57 2.47044 6.57201 0
M  V30 31188 H 2876.41 2.10752 2.10683 0
M  V30 31189 H 2873.95 1.04861 1.03163 0
M  V30 31190 H 2875.91 0.658753 4.11966 0
M  V30 31191 H 2874.54 -0.0530588 3.22756 0
M  V30 31192 H 2873.59 2.35496 2.98741 0
M  V30 31193 H 2874.9 2.91265 4.04928 0
M  V30 31194 H 2874.05 1.44545 5.8923 0
M  V30 31195 H 2872.79 0.784515 4.81349 0
M  V30 31196 H 2871.8 3.07513 4.55759 0
M  V30 31197 H 2873.02 3.73617 5.67086 0
M  V30 31198 H 2870.97 1.60111 6.36161 0
M  V30 31199 H 2870.89 3.27173 6.81538 0
M  V30 31200 H 2872.15 2.27051 7.457 0
M  V30 31201 N 2876.38 -1.1007 1.12794 0
M  V30 31202 C 2877.61 -1.85885 0.908538 0
M  V30 31203 C 2878.03 -1.80842 -0.542377 0
M  V30 31204 O 2877.38 -1.19983 -1.37515 0
M  V30 31205 C 2877.43 -3.34132 1.37979 0
M  V30 31206 O 2877.15 -3.39101 2.77384 0
M  V30 31207 C 2878.66 -4.26809 1.19787 0
M  V30 31208 H 2875.88 -0.587366 0.324411 0
M  V30 31209 H 2878.42 -1.39122 1.49884 0
M  V30 31210 H 2876.57 -3.78346 0.832633 0
M  V30 31211 H 2876.99 -4.31516 2.98151 0
M  V30 31212 H 2878.46 -5.29011 1.57644 0
M  V30 31213 H 2878.94 -4.3898 0.138845 0
M  V30 31214 H 2879.55 -3.88403 1.73272 0
M  V30 31215 N 2877.86 -0.920419 -1.2793 0
M  V30 31216 C 2878.81 -0.404231 -2.29061 0
M  V30 31217 C 2879.8 0.507606 -1.61616 0
M  V30 31218 O 2881.01 0.388113 -1.75766 0
M  V30 31219 H 2877.38 -0.112136 -0.743592 0
M  V30 31220 H 2879.35 -1.27013 -2.70019 0
M  V30 31221 C 2878.1 0.334405 -3.46088 0
M  V30 31222 H 2877.43 -0.35804 -3.98194 0
M  V30 31223 H 2878.87 0.660122 -4.1883 0
M  V30 31224 C 2877.33 1.54474 -2.99398 0
M  V30 31225 O 2877.86 2.64369 -3.02444 0
M  V30 31226 N 2876.06 1.39404 -2.5498 0
M  V30 31227 H 2875.61 0.499964 -2.52702 0
M  V30 31228 H 2875.57 2.20512 -2.24102 0
M  V30 31229 N 2879.34 1.41929 -0.685124 0
M  V30 31230 C 2880.57 2.05424 -0.220088 0
M  V30 31231 C 2880.98 1.51613 1.13182 0
M  V30 31232 O 2880.32 0.654905 1.71629 0
M  V30 31233 C 2880.38 3.5939 -0.0888995 0
M  V30 31234 C 2880.05 4.35945 -1.37117 0
M  V30 31235 C 2881.04 4.6592 -2.30683 0
M  V30 31236 C 2878.73 4.75403 -1.62164 0
M  V30 31237 C 2880.72 5.343 -3.47566 0
M  V30 31238 C 2878.41 5.43522 -2.79333 0
M  V30 31239 C 2879.41 5.72897 -3.71858 0
M  V30 31240 O 2879.09 6.39616 -4.86977 0
M  V30 31241 H 2878.83 0.668233 -0.102177 0
M  V30 31242 H 2881.38 1.82873 -0.935227 0
M  V30 31243 H 2879.61 3.8064 0.681914 0
M  V30 31244 H 2881.3 4.04494 0.337598 0
M  V30 31245 H 2882.07 4.35927 -2.12586 0
M  V30 31246 H 2877.94 4.51927 -0.910132 0
M  V30 31247 H 2881.49 5.57145 -4.19804 0
M  V30 31248 H 2877.39 5.72933 -2.97352 0
M  V30 31249 H 2878.15 6.5811 -4.86656 0
M  V30 31250 N 2880.82 0.429152 1.51644 0
M  V30 31251 C 2881.76 -0.400881 2.29119 0
M  V30 31252 C 2882.76 -1.02817 1.34629 0
M  V30 31253 O 2883.96 -0.964071 1.52005 0
M  V30 31254 H 2880.34 -0.148082 0.737276 0
M  V30 31255 H 2882.31 0.27351 2.97144 0
M  V30 31256 C 2881.06 -1.49423 3.13955 0
M  V30 31257 H 2880.38 -1.0209 3.86546 0
M  V30 31258 H 2881.82 -2.04842 3.71235 0
M  V30 31259 C 2880.28 -2.47289 2.28801 0
M  V30 31260 O 2880.81 -3.51638 1.94199 0
M  V30 31261 N 2879.02 -2.17979 1.92181 0
M  V30 31262 H 2878.56 -1.33151 2.20519 0
M  V30 31263 H 2878.52 -2.83702 1.35502 0
M  V30 31264 N 2882.29 -1.56783 0.160229 0
M  V30 31265 C 2883.22 -2.20431 -0.770225 0
M  V30 31266 C 2884.21 -1.15653 -1.24734 0
M  V30 31267 O 2885.39 -1.44043 -1.30251 0
M  V30 31268 C 2882.52 -2.83634 -2.00422 0
M  V30 31269 C 2881.47 -3.94355 -1.66338 0
M  V30 31270 C 2880.8 -4.44555 -2.97111 0
M  V30 31271 C 2882.1 -5.14489 -0.899882 0
M  V30 31272 H 2883.79 -2.98439 -0.239731 0
M  V30 31273 H 2881.34 -1.43549 -0.113866 0
M  V30 31274 H 2883.29 -3.26831 -2.66006 0
M  V30 31275 H 2882.02 -2.02978 -2.55866 0
M  V30 31276 H 2880.68 -3.51796 -1.03127 0
M  V30 31277 H 2880.32 -3.60704 -3.50573 0
M  V30 31278 H 2880.02 -5.19243 -2.75064 0
M  V30 31279 H 2881.55 -4.90431 -3.63744 0
M  V30 31280 H 2882.96 -5.54448 -1.45808 0
M  V30 31281 H 2881.36 -5.95024 -0.778864 0
M  V30 31282 H 2882.43 -4.84784 0.105912 0
M  V30 31283 N 2883.77 0.113531 -1.57191 0
M  V30 31284 C 2885.02 0.821564 -1.85413 0
M  V30 31285 C 2885.35 1.79269 -0.746753 0
M  V30 31286 O 2884.63 1.92926 0.246937 0
M  V30 31287 C 2884.91 1.56663 -3.24235 0
M  V30 31288 C 2884.76 0.614745 -4.45579 0
M  V30 31289 C 2886.08 2.52155 -3.60702 0
M  V30 31290 H 2883.2 0.297218 -0.674411 0
M  V30 31291 H 2885.84 0.0856606 -1.89807 0
M  V30 31292 H 2883.99 2.19396 -3.20621 0
M  V30 31293 H 2885.67 -0.00415246 -4.613 0
M  V30 31294 H 2883.91 -0.0733094 -4.33738 0
M  V30 31295 H 2884.58 1.17282 -5.39397 0
M  V30 31296 H 2887.06 1.99525 -3.65142 0
M  V30 31297 H 2885.93 3.01315 -4.58803 0
M  V30 31298 H 2886.19 3.35071 -2.88409 0
M  V30 31299 N 2885.25 1.52854 0.383864 0
M  V30 31300 C 2886.49 1.69839 1.13728 0
M  V30 31301 C 2886.86 0.431644 1.87085 0
M  V30 31302 O 2888.06 0.477933 2.64517 0
M  V30 31303 C 2886.33 2.90247 2.08546 0
M  V30 31304 S 2887.89 3.27846 2.91654 0
M  V30 31305 H 2884.7 0.597806 0.384901 0
M  V30 31306 H 2887.31 1.90913 0.420996 0
M  V30 31307 H 2886.01 3.80659 1.53385 0
M  V30 31308 H 2885.54 2.71521 2.84675 0
M  V30 31309 H 2887.56 2.78434 4.10718 0
M  V30 31310 N 2886.73 -0.642612 1.43904 0
M  V30 31311 C 2887.64 -1.78399 1.52352 0
M  V30 31312 C 2888.66 -1.69103 0.409899 0
M  V30 31313 O 2889.83 -1.90084 0.665581 0
M  V30 31314 C 2886.9 -3.14731 1.45414 0
M  V30 31315 C 2885.96 -3.35744 2.67533 0
M  V30 31316 C 2885.19 -4.65573 2.60917 0
M  V30 31317 O 2885.41 -5.45626 1.6628 0
M  V30 31318 O 2884.35 -4.88538 3.51589 0
M  V30 31319 H 2888.17 -1.74225 2.48755 0
M  V30 31320 H 2885.76 -0.802417 1.26022 0
M  V30 31321 H 2887.64 -3.96023 1.44026 0
M  V30 31322 H 2886.32 -3.19472 0.521494 0
M  V30 31323 H 2885.22 -2.54175 2.74492 0
M  V30 31324 H 2886.56 -3.35858 3.59806 0
M  V30 31325 N 2888.21 -1.30611 -0.881966 0
M  V30 31326 C 2889.44 -1.22539 -1.66708 0
M  V30 31327 C 2889.85 0.211267 -1.87614 0
M  V30 31328 O 2889.21 1.1392 -1.42578 0
M  V30 31329 C 2889.26 -1.9534 -3.04178 0
M  V30 31330 O 2888.98 -3.33398 -2.84214 0
M  V30 31331 C 2890.48 -1.93963 -3.98614 0
M  V30 31332 H 2887.7 -0.423934 -0.520116 0
M  V30 31333 H 2890.24 -1.72287 -1.10171 0
M  V30 31334 H 2888.4 -1.49384 -3.5744 0
M  V30 31335 H 2888.81 -3.70309 -3.71446 0
M  V30 31336 H 2890.29 -2.49435 -4.92429 0
M  V30 31337 H 2890.76 -0.919273 -4.29472 0
M  V30 31338 H 2891.37 -2.39744 -3.51287 0
M  V30 31339 N 2889.69 1.0947 -1.13376 0
M  V30 31340 C 2890.62 2.18124 -0.833306 0
M  V30 31341 C 2891.6 1.68834 0.20714 0
M  V30 31342 O 2892.78 1.94087 0.0661671 0
M  V30 31343 C 2889.91 3.46019 -0.298039 0
M  V30 31344 C 2888.87 4.0864 -1.27268 0
M  V30 31345 C 2888.19 5.31355 -0.597197 0
M  V30 31346 C 2889.49 4.51192 -2.63103 0
M  V30 31347 H 2891.19 2.43515 -1.74186 0
M  V30 31348 H 2888.73 1.17037 -0.838941 0
M  V30 31349 H 2890.68 4.21332 -0.0755184 0
M  V30 31350 H 2889.41 3.20149 0.645903 0
M  V30 31351 H 2888.07 3.35345 -1.48119 0
M  V30 31352 H 2887.72 5.01765 0.352205 0
M  V30 31353 H 2887.42 5.74206 -1.24744 0
M  V30 31354 H 2888.94 6.09392 -0.383947 0
M  V30 31355 H 2890.35 5.17732 -2.46223 0
M  V30 31356 H 2888.75 5.04926 -3.24299 0
M  V30 31357 H 2889.82 3.63615 -3.20799 0
M  V30 31358 N 2891.16 0.92719 1.2744 0
M  V30 31359 C 2892.1 0.383198 2.25974 0
M  V30 31360 C 2893.11 -0.485805 1.55383 0
M  V30 31361 O 2894.3 -0.29851 1.75986 0
M  V30 31362 C 2891.4 -0.469629 3.3563 0
M  V30 31363 C 2890.57 0.379963 4.35747 0
M  V30 31364 C 2889.63 -0.410135 5.24599 0
M  V30 31365 O 2888.66 0.181988 5.68909 0
M  V30 31366 N 2889.86 -1.71007 5.5474 0
M  V30 31367 H 2892.62 1.2302 2.73288 0
M  V30 31368 H 2890.18 0.794563 1.41061 0
M  V30 31369 H 2892.18 -1.00525 3.92016 0
M  V30 31370 H 2890.75 -1.21738 2.87921 0
M  V30 31371 H 2889.97 1.09689 3.78632 0
M  V30 31372 H 2891.25 0.960805 4.99646 0
M  V30 31373 H 2890.65 -2.21347 5.20598 0
M  V30 31374 H 2889.21 -2.19223 6.13828 0
M  V30 31375 N 2892.64 -1.41564 0.692641 0
M  V30 31376 C 2893.89 -2.01275 0.22237 0
M  V30 31377 C 2894.22 -1.54842 -1.17703 0
M  V30 31378 O 2893.47 -0.74915 -1.80793 0
M  V30 31379 C 2893.77 -3.5669 0.225136 0
M  V30 31380 C 2893.44 -4.22622 1.57166 0
M  V30 31381 C 2892.1 -4.40347 1.9403 0
M  V30 31382 C 2894.45 -4.59618 2.45766 0
M  V30 31383 C 2891.78 -4.92343 3.19085 0
M  V30 31384 C 2894.13 -5.13003 3.7015 0
M  V30 31385 C 2892.79 -5.28939 4.07161 0
M  V30 31386 H 2892.06 -0.736519 0.0813711 0
M  V30 31387 H 2894.71 -1.69501 0.891153 0
M  V30 31388 H 2893.02 -3.88237 -0.527191 0
M  V30 31389 H 2894.71 -4.00696 -0.156212 0
M  V30 31390 H 2891.3 -4.09199 1.27493 0
M  V30 31391 H 2895.49 -4.45581 2.18566 0
M  V30 31392 H 2890.74 -5.02866 3.47758 0
M  V30 31393 H 2894.92 -5.4061 4.38992 0
M  V30 31394 H 2892.54 -5.68992 5.04135 0
M  V30 31395 N 2894.12 -0.437188 -1.51415 0
M  V30 31396 C 2895.05 0.364881 -2.30631 0
M  V30 31397 C 2896.03 1.02116 -1.36038 0
M  V30 31398 O 2897.22 1.02482 -1.64958 0
M  V30 31399 C 2894.35 1.46642 -3.14823 0
M  V30 31400 C 2893.3 0.933644 -4.17693 0
M  V30 31401 C 2892.63 2.13092 -4.90404 0
M  V30 31402 C 2893.93 -0.0318119 -5.2229 0
M  V30 31403 H 2895.62 -0.296193 -2.97931 0
M  V30 31404 H 2893.17 -0.14389 -1.43279 0
M  V30 31405 H 2895.12 2.03474 -3.69021 0
M  V30 31406 H 2893.84 2.15578 -2.45344 0
M  V30 31407 H 2892.5 0.387538 -3.64546 0
M  V30 31408 H 2892.15 2.80647 -4.17428 0
M  V30 31409 H 2891.85 1.78082 -5.59965 0
M  V30 31410 H 2893.37 2.70478 -5.47425 0
M  V30 31411 H 2894.79 0.446202 -5.71561 0
M  V30 31412 H 2893.18 -0.294475 -5.99377 0
M  V30 31413 H 2894.25 -0.968531 -4.75129 0
M  V30 31414 N 2895.6 1.56696 -0.168541 0
M  V30 31415 C 2896.87 1.88469 0.523334 0
M  V30 31416 C 2897.25 1.07799 1.81501 0
M  V30 31417 O 2896.6 0.171085 2.27859 0
M  V30 31418 C 2896.81 3.40447 0.767931 0
M  V30 31419 C 2898.16 4.10126 1.09917 0
M  V30 31420 O 2899.18 3.45748 0.856564 0
M  V30 31421 O 2898.04 5.23859 1.55672 0
M  V30 31422 H 2895.14 0.781879 0.269433 0
M  V30 31423 H 2897.68 1.68436 -0.206769 0
M  V30 31424 H 2896.46 3.9103 -0.145323 0
M  V30 31425 H 2896.08 3.66082 1.55145 0
M  V30 31426 N 2897.08 -0.105193 1.57249 0
M  V30 31427 C 2898.32 -0.81625 1.87395 0
M  V30 31428 C 2898.68 -1.76392 0.75828 0
M  V30 31429 O 2899.88 -2.51758 0.941879 0
M  V30 31430 C 2898.15 -1.53457 3.22778 0
M  V30 31431 S 2899.71 -2.2853 3.74592 0
M  V30 31432 H 2896.53 -0.272152 0.656852 0
M  V30 31433 H 2899.13 -0.0738747 1.9536 0
M  V30 31434 H 2897.83 -0.830604 4.01907 0
M  V30 31435 H 2897.37 -2.31705 3.17925 0
M  V30 31436 H 2899.38 -3.54496 3.47199 0
M  V30 31437 N 2898.55 -1.53055 -0.375752 0
M  V30 31438 C 2899.8 -1.67966 -1.11671 0
M  V30 31439 C 2900.12 -0.432689 -1.90754 0
M  V30 31440 O 2901.32 -0.462156 -2.67538 0
M  V30 31441 C 2899.78 -2.96888 -2.03435 0
M  V30 31442 C 2899.39 -4.28811 -1.29711 0
M  V30 31443 C 2901.13 -3.21165 -2.77585 0
M  V30 31444 C 2899.04 -5.4883 -2.20318 0
M  V30 31445 H 2897.97 -0.625798 -0.420586 0
M  V30 31446 H 2900.62 -1.79555 -0.378467 0
M  V30 31447 H 2899 -2.79077 -2.80949 0
M  V30 31448 H 2900.17 -4.5722 -0.573314 0
M  V30 31449 H 2898.49 -4.10898 -0.674663 0
M  V30 31450 H 2901.09 -4.08016 -3.45583 0
M  V30 31451 H 2901.43 -2.36795 -3.42394 0
M  V30 31452 H 2901.96 -3.39603 -2.07158 0
M  V30 31453 H 2898.7 -6.35647 -1.60102 0
M  V30 31454 H 2898.22 -5.24715 -2.90576 0
M  V30 31455 H 2899.9 -5.83224 -2.80105 0
M  V30 31456 N 2900.03 0.634971 -1.44242 0
M  V30 31457 C 2901.27 1.4062 -1.48342 0
M  V30 31458 C 2901.64 1.91676 -0.111513 0
M  V30 31459 O 2902.84 2.68786 -0.0271817 0
M  V30 31460 C 2901.11 2.54303 -2.51126 0
M  V30 31461 S 2902.67 3.42543 -2.74243 0
M  V30 31462 H 2899.49 0.479778 -0.524723 0
M  V30 31463 H 2902.09 0.735457 -1.81139 0
M  V30 31464 H 2900.79 2.151 -3.49514 0
M  V30 31465 H 2900.32 3.26209 -2.19889 0
M  V30 31466 H 2902.34 4.51624 -2.05548 0
M  V30 31467 N 2901.51 1.31076 0.875027 0
M  V30 31468 C 2902.76 1.20234 1.62445 0
M  V30 31469 C 2903.08 -0.240854 1.93507 0
M  V30 31470 O 2902.35 -1.16019 1.57849 0
M  V30 31471 H 2900.93 0.442002 0.602199 0
M  V30 31472 H 2903.59 1.64336 1.04785 0
M  V30 31473 H 2902.69 1.7704 2.57028 0
M  V30 31474 N 2902.99 -1.08867 1.13955 0
M  V30 31475 C 2904.21 -1.85451 0.928592 0
M  V30 31476 C 2904.64 -1.80838 -0.51761 0
M  V30 31477 O 2904 -1.19003 -1.36777 0
M  V30 31478 C 2904.04 -3.31111 1.4282 0
M  V30 31479 O 2903.15 -4.07755 0.617201 0
M  V30 31480 H 2902.49 -0.574833 0.33236 0
M  V30 31481 H 2905.02 -1.3744 1.51563 0
M  V30 31482 H 2905.03 -3.81957 1.43432 0
M  V30 31483 H 2903.7 -3.33784 2.48115 0
M  V30 31484 H 2902.28 -3.66658 0.67943 0
M  V30 31485 N 2904.47 -0.933936 -1.26946 0
M  V30 31486 C 2905.69 -0.594175 -1.98185 0
M  V30 31487 C 2906.11 0.829228 -1.69615 0
M  V30 31488 O 2905.47 1.55195 -0.960241 0
M  V30 31489 C 2905.52 -0.818088 -3.52122 0
M  V30 31490 O 2905.24 -2.1855 -3.79694 0
M  V30 31491 C 2906.74 -0.487887 -4.40607 0
M  V30 31492 H 2903.96 -0.22458 -0.632301 0
M  V30 31493 H 2906.5 -1.25266 -1.61643 0
M  V30 31494 H 2904.66 -0.206314 -3.8685 0
M  V30 31495 H 2905.07 -2.24013 -4.74256 0
M  V30 31496 H 2906.55 -0.695222 -5.47604 0
M  V30 31497 H 2907.02 0.576837 -4.35395 0
M  V30 31498 H 2907.63 -1.07807 -4.11409 0
M  V30 31499 N 2905.94 1.41194 -0.700139 0
M  V30 31500 C 2907.17 2.05477 -0.242215 0
M  V30 31501 C 2907.59 1.52704 1.11026 0
M  V30 31502 O 2906.94 0.677157 1.69472 0
M  V30 31503 C 2907 3.60966 -0.196334 0
M  V30 31504 O 2906.72 4.11788 -1.49539 0
M  V30 31505 C 2908.22 4.42402 0.282024 0
M  V30 31506 H 2905.44 0.661627 -0.11176 0
M  V30 31507 H 2907.98 1.80884 -0.954007 0
M  V30 31508 H 2906.14 3.84583 0.466312 0
M  V30 31509 H 2906.55 5.05868 -1.38554 0
M  V30 31510 H 2908.02 5.51373 0.262996 0
M  V30 31511 H 2908.5 4.18842 1.32166 0
M  V30 31512 H 2909.11 4.23859 -0.349787 0
M  V30 31513 N 2907.42 0.445212 1.51181 0
M  V30 31514 C 2908.67 -0.118375 2.01753 0
M  V30 31515 C 2908.99 -1.42521 1.33089 0
M  V30 31516 O 2908.26 -1.9023 0.467924 0
M  V30 31517 H 2906.84 -0.0467361 0.745537 0
M  V30 31518 H 2909.5 0.58972 1.85764 0
M  V30 31519 H 2908.6 -0.28861 3.10763 0
M  V30 31520 N 2908.9 -1.56605 0.176849 0
M  V30 31521 C 2910.15 -1.9666 -0.465758 0
M  V30 31522 C 2910.47 -1.06415 -1.63404 0
M  V30 31523 O 2909.74 -0.131637 -1.95457 0
M  V30 31524 H 2908.32 -0.726198 -0.175059 0
M  V30 31525 H 2910.98 -1.93167 0.259323 0
M  V30 31526 H 2910.08 -3.01078 -0.822085 0
M  V30 31527 N 2910.38 0.0968524 -1.57302 0
M  V30 31528 C 2911.31 1.11842 -2.04972 0
M  V30 31529 C 2912.29 1.4188 -0.938303 0
M  V30 31530 O 2913.47 1.5194 -1.20946 0
M  V30 31531 C 2910.6 2.43877 -2.47268 0
M  V30 31532 C 2909.56 2.28251 -3.62057 0
M  V30 31533 C 2908.88 3.65447 -3.90324 0
M  V30 31534 C 2910.18 1.72453 -4.93009 0
M  V30 31535 H 2911.88 0.721836 -2.90568 0
M  V30 31536 H 2909.42 0.345778 -1.39787 0
M  V30 31537 H 2911.38 3.15612 -2.79225 0
M  V30 31538 H 2910.1 2.85467 -1.58669 0
M  V30 31539 H 2908.76 1.58961 -3.30344 0
M  V30 31540 H 2908.41 4.04562 -2.98896 0
M  V30 31541 H 2908.11 3.55838 -4.67603 0
M  V30 31542 H 2909.63 4.38652 -4.24755 0
M  V30 31543 H 2911.05 2.34027 -5.23359 0
M  V30 31544 H 2909.44 1.73608 -5.74439 0
M  V30 31545 H 2910.51 0.683814 -4.80054 0
M  V30 31546 N 2911.86 1.53252 0.36763 0
M  V30 31547 C 2913.1 1.69001 1.10829 0
M  V30 31548 C 2913.43 0.44334 1.89893 0
M  V30 31549 O 2912.7 -0.542587 1.88236 0
M  V30 31550 H 2911.28 0.623015 0.412142 0
M  V30 31551 H 2913.94 1.90436 0.414742 0
M  V30 31552 H 2913.03 2.55016 1.79925 0
M  V30 31553 N 2913.34 -0.627313 1.44577 0
M  V30 31554 C 2914.27 -1.7502 1.54565 0
M  V30 31555 C 2915.25 -1.65368 0.398407 0
M  V30 31556 O 2916.43 -1.8407 0.619022 0
M  V30 31557 C 2913.56 -3.13564 1.49315 0
M  V30 31558 C 2912.52 -3.38008 2.62555 0
M  V30 31559 C 2911.84 -4.76621 2.42356 0
M  V30 31560 C 2913.14 -3.30195 4.04684 0
M  V30 31561 H 2914.84 -1.66918 2.48553 0
M  V30 31562 H 2912.38 -0.801615 1.19625 0
M  V30 31563 H 2914.33 -3.91897 1.54902 0
M  V30 31564 H 2913.06 -3.22459 0.518449 0
M  V30 31565 H 2911.72 -2.62057 2.56363 0
M  V30 31566 H 2911.37 -4.82224 1.4307 0
M  V30 31567 H 2911.07 -4.93934 3.18282 0
M  V30 31568 H 2912.59 -5.57179 2.49768 0
M  V30 31569 H 2914 -3.98427 4.12224 0
M  V30 31570 H 2912.4 -3.59041 4.80842 0
M  V30 31571 H 2913.47 -2.27941 4.27984 0
M  V30 31572 N 2914.81 -1.31539 -0.868063 0
M  V30 31573 C 2915.74 -1.21942 -1.99129 0
M  V30 31574 C 2916.72 -0.106196 -1.69768 0
M  V30 31575 O 2917.91 -0.291115 -1.92006 0
M  V30 31576 C 2915.04 -0.927938 -3.34674 0
M  V30 31577 C 2913.99 -2.00094 -3.78347 0
M  V30 31578 C 2913.32 -1.56212 -5.11373 0
M  V30 31579 C 2914.62 -3.41431 -3.9525 0
M  V30 31580 H 2916.31 -2.15915 -2.07416 0
M  V30 31581 H 2913.86 -1.03946 -0.996551 0
M  V30 31582 H 2915.81 -0.847399 -4.12792 0
M  V30 31583 H 2914.54 0.0474468 -3.26566 0
M  V30 31584 H 2913.2 -2.07141 -3.0247 0
M  V30 31585 H 2912.84 -0.574538 -4.99708 0
M  V30 31586 H 2912.54 -2.27995 -5.41564 0
M  V30 31587 H 2914.07 -1.49569 -5.91998 0
M  V30 31588 H 2915.48 -3.37048 -4.63758 0
M  V30 31589 H 2913.88 -4.11448 -4.36842 0
M  V30 31590 H 2914.95 -3.82077 -2.98572 0
M  V30 31591 N 2916.29 1.08262 -1.1453 0
M  V30 31592 C 2917.54 1.8032 -0.91263 0
M  V30 31593 C 2917.86 1.86719 0.562224 0
M  V30 31594 O 2917.13 1.36137 1.40867 0
M  V30 31595 H 2915.71 0.667843 -0.334657 0
M  V30 31596 H 2918.37 1.30881 -1.44417 0
M  V30 31597 H 2917.47 2.83096 -1.31389 0
M  V30 31598 N 2917.77 0.940655 1.26449 0
M  V30 31599 C 2918.7 0.467519 2.28772 0
M  V30 31600 C 2919.68 -0.478927 1.63219 0
M  V30 31601 O 2920.87 -0.380895 1.90428 0
M  V30 31602 C 2918 -0.268595 3.4626 0
M  V30 31603 C 2916.95 0.591246 4.23897 0
M  V30 31604 C 2916.28 -0.274797 5.33993 0
M  V30 31605 C 2917.58 1.86232 4.8797 0
M  V30 31606 H 2919.27 1.3227 2.68598 0
M  V30 31607 H 2916.82 0.637458 1.29122 0
M  V30 31608 H 2918.77 -0.610623 4.16952 0
M  V30 31609 H 2917.49 -1.15791 3.05385 0
M  V30 31610 H 2916.15 0.916161 3.54968 0
M  V30 31611 H 2915.8 -1.16345 4.8936 0
M  V30 31612 H 2915.5 0.297109 5.86848 0
M  V30 31613 H 2917.02 -0.612106 6.07524 0
M  V30 31614 H 2918.44 1.58757 5.5088 0
M  V30 31615 H 2916.83 2.37875 5.5094 0
M  V30 31616 H 2917.9 2.57402 4.10941 0
M  V30 31617 N 2919.25 -1.40821 0.707617 0
M  V30 31618 C 2920.48 -2.05048 0.252742 0
M  V30 31619 C 2920.89 -1.53394 -1.10755 0
M  V30 31620 O 2920.23 -0.682127 -1.70566 0
M  V30 31621 C 2920.29 -3.59203 0.146064 0
M  V30 31622 C 2919.95 -4.33708 1.44035 0
M  V30 31623 C 2920.95 -4.62191 2.38067 0
M  V30 31624 C 2918.64 -4.72763 1.69706 0
M  V30 31625 C 2920.63 -5.28703 3.56022 0
M  V30 31626 C 2918.32 -5.39009 2.87945 0
M  V30 31627 C 2919.32 -5.66908 3.80925 0
M  V30 31628 O 2919 -6.31788 4.97091 0
M  V30 31629 H 2918.74 -0.666523 0.112795 0
M  V30 31630 H 2921.29 -1.81362 0.964202 0
M  V30 31631 H 2919.52 -3.81677 -0.621271 0
M  V30 31632 H 2921.21 -4.0498 -0.273204 0
M  V30 31633 H 2921.97 -4.32489 2.19495 0
M  V30 31634 H 2917.85 -4.50421 0.981915 0
M  V30 31635 H 2921.4 -5.50396 4.28614 0
M  V30 31636 H 2917.29 -5.6813 3.06429 0
M  V30 31637 H 2918.06 -6.50284 4.97064 0
M  V30 31638 N 2920.73 -0.453223 -1.50943 0
M  V30 31639 C 2921.97 0.109475 -2.01403 0
M  V30 31640 C 2922.29 1.42384 -1.34113 0
M  V30 31641 O 2923.49 2.07042 -1.7563 0
M  V30 31642 C 2921.95 0.24563 -3.59061 0
M  V30 31643 C 2921.56 -1.05924 -4.35298 0
M  V30 31644 C 2923.3 0.761245 -4.17619 0
M  V30 31645 C 2921.21 -0.887855 -5.84697 0
M  V30 31646 H 2920.14 0.044688 -0.752675 0
M  V30 31647 H 2922.79 -0.585405 -1.73912 0
M  V30 31648 H 2921.17 1.00388 -3.83064 0
M  V30 31649 H 2922.35 -1.82706 -4.23031 0
M  V30 31650 H 2920.66 -1.50459 -3.88267 0
M  V30 31651 H 2923.26 0.906213 -5.26965 0
M  V30 31652 H 2923.6 1.74792 -3.77827 0
M  V30 31653 H 2924.13 0.0608717 -3.97753 0
M  V30 31654 H 2920.87 -1.84737 -6.2893 0
M  V30 31655 H 2920.39 -0.160111 -5.99586 0
M  V30 31656 H 2922.07 -0.547337 -6.44681 0
M  V30 31657 N 2922.2 1.56509 -0.185151 0
M  V30 31658 C 2923.15 2.19955 0.756466 0
M  V30 31659 C 2924.15 1.16771 1.22723 0
M  V30 31660 O 2925.35 1.34939 1.19128 0
M  V30 31661 H 2921.73 0.704784 0.262267 0
M  V30 31662 H 2923.7 2.97745 0.197535 0
M  V30 31663 C 2922.45 2.86527 1.9697 0
M  V30 31664 H 2921.77 3.65662 1.61651 0
M  V30 31665 H 2923.21 3.34372 2.60713 0
M  V30 31666 C 2921.67 1.87032 2.80215 0
M  V30 31667 O 2922.2 1.36439 3.77819 0
M  V30 31668 N 2920.4 1.55481 2.45507 0
M  V30 31669 H 2919.95 1.96816 1.66196 0
M  V30 31670 H 2919.91 0.89165 3.01491 0
M  V30 31671 N 2923.68 -0.0885089 1.57351 0
M  V30 31672 C 2924.59 -1.12512 2.05859 0
M  V30 31673 C 2925.61 -1.4345 0.984783 0
M  V30 31674 O 2926.78 -1.53961 1.29839 0
M  V30 31675 C 2923.85 -2.42391 2.47886 0
M  V30 31676 C 2922.91 -2.18576 3.6949 0
M  V30 31677 C 2922.14 -3.42261 4.09503 0
M  V30 31678 O 2922.37 -4.50749 3.49544 0
M  V30 31679 O 2921.3 -3.3146 5.02412 0
M  V30 31680 H 2925.13 -0.743094 2.94469 0
M  V30 31681 H 2922.71 -0.301481 1.46327 0
M  V30 31682 H 2924.59 -3.18857 2.75515 0
M  V30 31683 H 2923.27 -2.80007 1.62412 0
M  V30 31684 H 2922.17 -1.39869 3.46969 0
M  V30 31685 H 2923.51 -1.85849 4.55764 0
M  V30 31686 N 2925.16 -1.53445 -0.359498 0
M  V30 31687 C 2926.11 -1.80312 -1.4407 0
M  V30 31688 C 2927.08 -0.647837 -1.52945 0
M  V30 31689 O 2928.26 -0.890644 -1.68737 0
M  V30 31690 C 2925.4 -2.0042 -2.80937 0
M  V30 31691 C 2924.51 -3.28137 -2.8098 0
M  V30 31692 C 2923.65 -3.384 -4.09462 0
M  V30 31693 C 2922.69 -4.60126 -4.03671 0
M  V30 31694 N 2921.83 -4.67509 -5.23813 0
M  V30 31695 H 2926.67 -2.72568 -1.2046 0
M  V30 31696 H 2924.2 -1.35018 -0.583836 0
M  V30 31697 H 2926.16 -2.10067 -3.60455 0
M  V30 31698 H 2924.79 -1.11494 -3.02934 0
M  V30 31699 H 2923.84 -3.27414 -1.9366 0
M  V30 31700 H 2925.15 -4.17737 -2.72575 0
M  V30 31701 H 2924.31 -3.47391 -4.97398 0
M  V30 31702 H 2923.05 -2.46827 -4.20628 0
M  V30 31703 H 2922.05 -4.5123 -3.14121 0
M  V30 31704 H 2923.28 -5.53046 -3.94102 0
M  V30 31705 H 2921.22 -3.7884 -5.35552 0
M  V30 31706 H 2921.14 -5.51022 -5.17601 0
M  V30 31707 H 2922.41 -4.80791 -6.13564 0
M  V30 31708 N 2926.64 0.619637 -1.44908 0
M  V30 31709 C 2927.59 1.75219 -1.52974 0
M  V30 31710 C 2928.58 1.64596 -0.40056 0
M  V30 31711 O 2929.79 1.70536 -0.575982 0
M  V30 31712 H 2926.16 0.578673 -0.480251 0
M  V30 31713 H 2928.13 1.65541 -2.48271 0
M  V30 31714 C 2926.88 3.1358 -1.50209 0
M  V30 31715 H 2926.2 3.22408 -2.36418 0
M  V30 31716 H 2927.64 3.92688 -1.59912 0
M  V30 31717 C 2926.1 3.3615 -0.224609 0
M  V30 31718 O 2926.63 3.95545 0.700504 0
M  V30 31719 N 2924.84 2.90335 -0.124104 0
M  V30 31720 H 2924.39 2.42183 -0.877783 0
M  V30 31721 H 2924.34 3.05811 0.72986 0
M  V30 31722 N 2928.12 1.31997 0.861075 0
M  V30 31723 C 2929.36 1.22372 1.61718 0
M  V30 31724 C 2929.7 -0.215553 1.93 0
M  V30 31725 O 2928.97 -1.15095 1.56791 0
M  V30 31726 C 2929.25 2.07697 2.94167 0
M  V30 31727 C 2929.11 3.5997 2.69707 0
M  V30 31728 C 2930.43 1.93319 3.95368 0
M  V30 31729 H 2927.54 0.445891 0.586814 0
M  V30 31730 H 2930.19 1.61878 0.994759 0
M  V30 31731 H 2928.34 1.74134 3.47289 0
M  V30 31732 H 2930.01 4.03713 2.23189 0
M  V30 31733 H 2928.25 3.82956 2.03783 0
M  V30 31734 H 2928.92 4.14989 3.63989 0
M  V30 31735 H 2931.4 2.22708 3.51483 0
M  V30 31736 H 2930.27 2.55307 4.85911 0
M  V30 31737 H 2930.54 0.898998 4.32863 0
M  V30 31738 N 2929.59 -1.07653 1.15103 0
M  V30 31739 C 2930.56 -2.12949 0.847662 0
M  V30 31740 C 2931.56 -1.60088 -0.151199 0
M  V30 31741 O 2932.75 -1.74025 0.0780705 0
M  V30 31742 C 2929.88 -3.39868 0.26506 0
M  V30 31743 H 2931.07 -2.41293 1.78095 0
M  V30 31744 H 2928.63 -1.23492 0.958094 0
M  V30 31745 H 2929.36 -3.17164 -0.67657 0
M  V30 31746 H 2929.15 -3.79536 0.98462 0
M  V30 31747 H 2930.64 -4.17541 0.0702855 0
M  V30 31748 N 2931.07 -0.947348 -1.25949 0
M  V30 31749 C 2932 -0.479644 -2.28521 0
M  V30 31750 C 2932.98 0.470264 -1.6347 0
M  V30 31751 O 2934.17 0.370791 -1.90627 0
M  V30 31752 C 2931.3 0.250228 -3.46397 0
M  V30 31753 C 2930.25 -0.613718 -4.23577 0
M  V30 31754 C 2929.58 0.246474 -5.34132 0
M  V30 31755 C 2930.88 -1.88817 -4.86976 0
M  V30 31756 H 2932.57 -1.33692 -2.67893 0
M  V30 31757 H 2930.12 -0.644297 -1.28782 0
M  V30 31758 H 2932.07 0.588502 -4.1727 0
M  V30 31759 H 2930.8 1.1417 -3.05995 0
M  V30 31760 H 2929.45 -0.934973 -3.54477 0
M  V30 31761 H 2929.1 1.13748 -4.8997 0
M  V30 31762 H 2928.8 -0.328227 -5.86683 0
M  V30 31763 H 2930.33 0.579879 -6.0784 0
M  V30 31764 H 2931.74 -1.61676 -5.50031 0
M  V30 31765 H 2930.14 -2.40794 -5.49671 0
M  V30 31766 H 2931.21 -2.59577 -4.0957 0
M  V30 31767 N 2932.55 1.40444 -0.715075 0
M  V30 31768 C 2933.8 2.01194 -0.25474 0
M  V30 31769 C 2934.13 1.56569 1.14891 0
M  V30 31770 O 2933.4 0.785522 1.77932 0
M  V30 31771 C 2933.69 3.58546 -0.334211 0
M  V30 31772 C 2933.54 4.13245 -1.7762 0
M  V30 31773 C 2934.86 4.39111 0.294891 0
M  V30 31774 H 2931.98 0.730976 -0.0940379 0
M  V30 31775 H 2934.62 1.66928 -0.907479 0
M  V30 31776 H 2932.77 3.87868 0.221541 0
M  V30 31777 H 2934.44 3.94722 -2.3873 0
M  V30 31778 H 2932.69 3.67552 -2.30408 0
M  V30 31779 H 2933.36 5.22404 -1.7832 0
M  V30 31780 H 2935.83 4.15716 -0.178636 0
M  V30 31781 H 2934.71 5.48503 0.208838 0
M  V30 31782 H 2934.97 4.20065 1.37834 0
M  V30 31783 N 2934.03 0.461222 1.507 0
M  V30 31784 C 2934.98 -0.352191 2.29918 0
M  V30 31785 C 2935.97 -0.999379 1.3678 0
M  V30 31786 O 2937.18 -0.931612 1.54016 0
M  V30 31787 H 2933.55 -0.13241 0.740251 0
M  V30 31788 H 2935.52 0.336477 2.96497 0
M  V30 31789 C 2934.27 -1.4273 3.17054 0
M  V30 31790 H 2933.59 -0.938678 3.88624 0
M  V30 31791 H 2935.03 -1.96922 3.75497 0
M  V30 31792 C 2933.49 -2.4238 2.33995 0
M  V30 31793 O 2934.02 -3.4744 2.01614 0
M  V30 31794 N 2932.23 -2.13853 1.96761 0
M  V30 31795 H 2931.78 -1.28443 2.23294 0
M  V30 31796 H 2931.73 -2.80764 1.41489 0
M  V30 31797 N 2935.51 -1.56408 0.193449 0
M  V30 31798 C 2936.44 -2.16236 -0.759906 0
M  V30 31799 C 2937.45 -1.12375 -1.17795 0
M  V30 31800 O 2938.64 -1.39474 -1.11397 0
M  V30 31801 C 2935.74 -2.70827 -2.03731 0
M  V30 31802 C 2934.91 -3.99573 -1.77932 0
M  V30 31803 C 2933.97 -4.39006 -2.90103 0
M  V30 31804 O 2933 -5.0646 -2.59782 0
M  V30 31805 N 2934.2 -4.02375 -4.18419 0
M  V30 31806 H 2936.97 -2.9867 -0.248296 0
M  V30 31807 H 2934.53 -1.61896 0.011425 0
M  V30 31808 H 2936.52 -2.94192 -2.77908 0
M  V30 31809 H 2935.09 -1.92857 -2.46018 0
M  V30 31810 H 2934.31 -3.84357 -0.875423 0
M  V30 31811 H 2935.6 -4.83616 -1.58091 0
M  V30 31812 H 2934.99 -3.48114 -4.45907 0
M  V30 31813 H 2933.55 -4.30694 -4.8923 0
M  V30 31814 N 2936.98 0.0801629 -1.57396 0
M  V30 31815 C 2937.93 1.11491 -2.04138 0
M  V30 31816 C 2938.93 1.40581 -0.945162 0
M  V30 31817 O 2940.13 1.40086 -1.1303 0
M  V30 31818 H 2936.51 0.376838 -0.650766 0
M  V30 31819 H 2938.48 0.694475 -2.90206 0
M  V30 31820 C 2937.23 2.42267 -2.49403 0
M  V30 31821 H 2936.55 2.20732 -3.33343 0
M  V30 31822 H 2937.99 3.13137 -2.8587 0
M  V30 31823 C 2936.45 3.07632 -1.37347 0
M  V30 31824 O 2936.98 3.95359 -0.710899 0
M  V30 31825 N 2935.19 2.68121 -1.12069 0
M  V30 31826 H 2934.73 1.96872 -1.6613 0
M  V30 31827 H 2934.69 3.1218 -0.372971 0
M  V30 31828 N 2938.46 1.53634 0.351355 0
M  V30 31829 C 2939.39 1.84057 1.43684 0
M  V30 31830 C 2940.37 0.6951 1.55249 0
M  V30 31831 O 2941.56 0.946287 1.69585 0
M  V30 31832 C 2938.69 2.0432 2.80839 0
M  V30 31833 C 2937.64 3.20122 2.84088 0
M  V30 31834 C 2936.97 3.25703 4.24054 0
M  V30 31835 C 2938.27 4.58404 2.50326 0
M  V30 31836 H 2939.96 2.74963 1.18473 0
M  V30 31837 H 2937.51 1.32304 0.568486 0
M  V30 31838 H 2939.46 2.24187 3.56817 0
M  V30 31839 H 2938.19 1.10137 3.07469 0
M  V30 31840 H 2936.84 3.00098 2.10563 0
M  V30 31841 H 2936.49 2.29131 4.47781 0
M  V30 31842 H 2936.19 4.03516 4.2714 0
M  V30 31843 H 2937.72 3.47771 5.01884 0
M  V30 31844 H 2939.13 4.78337 3.16017 0
M  V30 31845 H 2937.53 5.38563 2.64708 0
M  V30 31846 H 2938.6 4.62545 1.45534 0
M  V30 31847 N 2939.94 -0.611943 1.45234 0
M  V30 31848 C 2940.85 -1.75127 1.56102 0
M  V30 31849 C 2941.87 -1.68196 0.445676 0
M  V30 31850 O 2943.04 -1.8863 0.705751 0
M  V30 31851 C 2940.11 -3.11576 1.52057 0
M  V30 31852 C 2939.17 -3.29994 2.74595 0
M  V30 31853 C 2938.4 -4.59934 2.70734 0
M  V30 31854 O 2938.62 -5.41976 1.77816 0
M  V30 31855 O 2937.56 -4.8097 3.61872 0
M  V30 31856 H 2941.38 -1.6891 2.52395 0
M  V30 31857 H 2938.97 -0.775505 1.27696 0
M  V30 31858 H 2940.85 -3.92879 1.52393 0
M  V30 31859 H 2939.53 -3.18294 0.589141 0
M  V30 31860 H 2938.43 -2.48296 2.79822 0
M  V30 31861 H 2939.77 -3.2815 3.66849 0
M  V30 31862 N 2941.42 -1.32452 -0.854063 0
M  V30 31863 C 2942.64 -1.26188 -1.64594 0
M  V30 31864 C 2943.07 0.167041 -1.87357 0
M  V30 31865 O 2942.43 1.11862 -1.42677 0
M  V30 31866 C 2942.47 -2.0274 -2.9821 0
M  V30 31867 O 2941.58 -1.37561 -3.88781 0
M  V30 31868 H 2940.92 -0.434868 -0.501783 0
M  V30 31869 H 2943.45 -1.74777 -1.06369 0
M  V30 31870 H 2943.46 -2.12936 -3.48026 0
M  V30 31871 H 2942.13 -3.06647 -2.80964 0
M  V30 31872 H 2940.71 -1.35916 -3.47248 0
M  V30 31873 N 2942.9 1.07041 -1.15672 0
M  V30 31874 C 2943.83 2.16308 -0.879386 0
M  V30 31875 C 2944.81 1.69235 0.171281 0
M  V30 31876 O 2945.99 1.94184 0.0249834 0
M  V30 31877 C 2943.12 3.45309 -0.371368 0
M  V30 31878 C 2942.08 4.05849 -1.35907 0
M  V30 31879 C 2941.4 5.29968 -0.709771 0
M  V30 31880 C 2942.7 4.4551 -2.72614 0
M  V30 31881 H 2944.4 2.39765 -1.79313 0
M  V30 31882 H 2941.94 1.15232 -0.863578 0
M  V30 31883 H 2943.9 4.21077 -0.164872 0
M  V30 31884 H 2942.62 3.21447 0.577849 0
M  V30 31885 H 2941.28 3.32128 -1.55198 0
M  V30 31886 H 2940.93 5.024 0.245694 0
M  V30 31887 H 2940.63 5.71431 -1.36896 0
M  V30 31888 H 2942.15 6.0844 -0.513122 0
M  V30 31889 H 2943.57 5.12393 -2.5715 0
M  V30 31890 H 2941.96 4.97934 -3.34936 0
M  V30 31891 H 2943.03 3.56728 -3.2844 0
M  V30 31892 N 2944.38 0.954014 1.25445 0
M  V30 31893 C 2945.6 0.625629 1.97214 0
M  V30 31894 C 2946.02 -0.802138 1.70913 0
M  V30 31895 O 2945.38 -1.53648 0.984809 0
M  V30 31896 C 2945.43 0.874004 3.50775 0
M  V30 31897 O 2945.15 2.24563 3.76169 0
M  V30 31898 C 2946.65 0.557922 4.39775 0
M  V30 31899 H 2943.87 0.234611 0.628648 0
M  V30 31900 H 2946.41 1.27822 1.5963 0
M  V30 31901 H 2944.57 0.267833 3.86473 0
M  V30 31902 H 2944.98 2.3153 4.70632 0
M  V30 31903 H 2946.46 0.782253 5.46429 0
M  V30 31904 H 2946.93 -0.507496 4.36258 0
M  V30 31905 H 2947.54 1.14339 4.09642 0
M  V30 31906 N 2945.85 -1.40063 0.722513 0
M  V30 31907 C 2946.76 -2.34478 0.0756396 0
M  V30 31908 C 2947.78 -1.57667 -0.736018 0
M  V30 31909 O 2948.96 -1.90021 -0.667374 0
M  V30 31910 C 2946.02 -3.36618 -0.830015 0
M  V30 31911 C 2945.08 -4.29299 -0.00752338 0
M  V30 31912 C 2944.31 -5.2656 -0.870046 0
M  V30 31913 O 2944.54 -5.29974 -2.10912 0
M  V30 31914 O 2943.47 -6.01125 -0.305348 0
M  V30 31915 H 2947.3 -2.91428 0.854597 0
M  V30 31916 H 2944.88 -1.41375 0.483057 0
M  V30 31917 H 2946.76 -3.99239 -1.34857 0
M  V30 31918 H 2945.44 -2.82071 -1.588 0
M  V30 31919 H 2944.35 -3.69941 0.556264 0
M  V30 31920 H 2945.68 -4.87017 0.712397 0
M  V30 31921 N 2947.33 -0.469207 -1.50453 0
M  V30 31922 C 2948.56 0.084055 -2.06429 0
M  V30 31923 C 2948.97 1.34225 -1.33343 0
M  V30 31924 O 2948.31 1.79388 -0.395688 0
M  V30 31925 C 2948.37 0.439987 -3.56797 0
M  V30 31926 C 2948.04 -0.715918 -4.51358 0
M  V30 31927 C 2949.04 -1.5974 -4.94752 0
M  V30 31928 C 2946.72 -0.905708 -4.94067 0
M  V30 31929 C 2948.71 -2.6531 -5.7956 0
M  V30 31930 C 2946.4 -1.96463 -5.78658 0
M  V30 31931 C 2947.4 -2.83669 -6.21306 0
M  V30 31932 O 2947.09 -3.87739 -7.04211 0
M  V30 31933 H 2946.82 -0.00290939 -0.675994 0
M  V30 31934 H 2949.37 -0.656452 -1.94628 0
M  V30 31935 H 2947.6 1.23365 -3.66494 0
M  V30 31936 H 2949.29 0.928112 -3.95147 0
M  V30 31937 H 2950.06 -1.46245 -4.62425 0
M  V30 31938 H 2945.94 -0.236407 -4.60393 0
M  V30 31939 H 2949.48 -3.33408 -6.12768 0
M  V30 31940 H 2945.38 -2.09966 -6.10397 0
M  V30 31941 H 2946.15 -3.84704 -7.22457 0
M  V30 31942 N 2948.81 1.56303 -0.201741 0
M  V30 31943 C 2950.05 1.99666 0.43736 0
M  V30 31944 C 2950.41 1.08595 1.58339 0
M  V30 31945 O 2951.61 1.41221 2.28714 0
M  V30 31946 C 2949.89 3.46409 0.879511 0
M  V30 31947 S 2951.44 4.11798 1.51551 0
M  V30 31948 H 2948.26 0.697159 0.139609 0
M  V30 31949 H 2950.86 1.93084 -0.306371 0
M  V30 31950 H 2949.57 4.10385 0.0354574 0
M  V30 31951 H 2949.1 3.56822 1.65654 0
M  V30 31952 H 2951.11 4.09352 2.80438 0
M  V30 31953 N 2950.29 -0.0718147 1.57436 0
M  V30 31954 C 2951.22 -1.11206 2.00414 0
M  V30 31955 C 2952.23 -1.34985 0.910097 0
M  V30 31956 O 2953.42 -1.33226 1.18798 0
M  V30 31957 C 2950.52 -2.46297 2.3279 0
M  V30 31958 C 2949.69 -2.42473 3.6404 0
M  V30 31959 C 2948.75 -3.59672 3.84087 0
M  V30 31960 O 2947.78 -3.41102 4.55673 0
M  V30 31961 N 2948.98 -4.80019 3.26438 0
M  V30 31962 H 2951.75 -0.746067 2.90265 0
M  V30 31963 H 2949.31 -0.260467 1.59791 0
M  V30 31964 H 2951.3 -3.23344 2.43374 0
M  V30 31965 H 2949.87 -2.74898 1.48828 0
M  V30 31966 H 2949.09 -1.50812 3.64211 0
M  V30 31967 H 2950.38 -2.37019 4.50221 0
M  V30 31968 H 2949.78 -4.9801 2.68333 0
M  V30 31969 H 2948.33 -5.54578 3.42471 0
M  V30 31970 N 2951.77 -1.53818 -0.343203 0
M  V30 31971 C 2953.01 -1.70743 -1.08127 0
M  V30 31972 C 2953.33 -0.473494 -1.89164 0
M  V30 31973 O 2952.6 0.512571 -1.89075 0
M  V30 31974 H 2951.18 -0.629493 -0.402178 0
M  V30 31975 H 2953.85 -1.91072 -0.384393 0
M  V30 31976 H 2952.94 -2.57847 -1.75845 0
M  V30 31977 N 2953.24 0.604233 -1.45557 0
M  V30 31978 C 2954.65 1.18621 -1.44173 0
M  V30 31979 C 2955.01 1.95452 -0.171115 0
M  V30 31980 O 2954.13 2.03818 0.72712 0
M  V30 31981 C 2954.73 2.15782 -2.61197 0
M  V30 31982 C 2953.28 2.69349 -2.62922 0
M  V30 31983 C 2952.43 1.44816 -2.36482 0
M  V30 31984 H 2955.38 0.393354 -1.53748 0
M  V30 31985 H 2955.4 2.98875 -2.35487 0
M  V30 31986 H 2954.92 1.59835 -3.53659 0
M  V30 31987 H 2953.02 3.29225 -1.74475 0
M  V30 31988 H 2953.13 3.13553 -3.62245 0
M  V30 31989 H 2951.49 1.73887 -1.86106 0
M  V30 31990 H 2952.28 0.907318 -3.31093 0
M  V30 31991 N 2954.72 1.32903 0.847027 0
M  V30 31992 C 2955.96 1.25221 1.61552 0
M  V30 31993 C 2956.33 -0.181396 1.91141 0
M  V30 31994 O 2957.53 -0.382059 2.66071 0
M  V30 31995 C 2955.8 2.09514 2.89549 0
M  V30 31996 S 2957.36 2.18937 3.80279 0
M  V30 31997 H 2954.17 0.445623 0.554023 0
M  V30 31998 H 2956.78 1.67841 1.00248 0
M  V30 31999 H 2955.48 3.12721 2.6577 0
M  V30 32000 H 2955.01 1.677 3.55865 0
M  V30 32001 H 2957.03 1.34446 4.77639 0
M  V30 32002 N 2956.2 -1.06426 1.16238 0
M  V30 32003 C 2957.15 -2.12119 0.836031 0
M  V30 32004 C 2958.13 -1.59845 -0.183927 0
M  V30 32005 O 2959.33 -1.76992 0.0167053 0
M  V30 32006 C 2956.45 -3.41638 0.337393 0
M  V30 32007 C 2955.54 -4.00742 1.38805 0
M  V30 32008 N 2955.93 -4.33975 2.59806 0
M  V30 32009 C 2954.23 -4.28329 1.24299 0
M  V30 32010 C 2954.93 -4.80938 3.27222 0
M  V30 32011 N 2953.91 -4.8029 2.54603 0
M  V30 32012 H 2957.71 -2.35659 1.75619 0
M  V30 32013 H 2955.22 -1.23955 1.04923 0
M  V30 32014 H 2957.22 -4.16813 0.0852007 0
M  V30 32015 H 2955.88 -3.19537 -0.576714 0
M  V30 32016 H 2956.89 -4.24366 2.96874 0
M  V30 32017 H 2953.57 -4.15679 0.389537 0
M  V30 32018 H 2954.96 -5.15867 4.30501 0
M  V30 32019 N 2957.68 -0.960653 -1.24937 0
M  V30 32020 C 2958.59 -0.492475 -2.29373 0
M  V30 32021 C 2959.6 0.443124 -1.68263 0
M  V30 32022 O 2960.78 0.317895 -1.98875 0
M  V30 32023 C 2957.85 0.216566 -3.46023 0
M  V30 32024 C 2956.91 -0.757989 -4.22555 0
M  V30 32025 C 2956.14 -0.0826907 -5.33636 0
M  V30 32026 O 2956.36 1.13045 -5.59086 0
M  V30 32027 O 2955.3 -0.771282 -5.96938 0
M  V30 32028 H 2959.12 -1.36049 -2.71522 0
M  V30 32029 H 2956.71 -0.727373 -1.30498 0
M  V30 32030 H 2958.59 0.615168 -4.16886 0
M  V30 32031 H 2957.26 1.05966 -3.05864 0
M  V30 32032 H 2956.17 -1.20692 -3.54097 0
M  V30 32033 H 2957.5 -1.56928 -4.66513 0
M  V30 32034 N 2959.16 1.39677 -0.729931 0
M  V30 32035 C 2960.1 2.32477 -0.0756998 0
M  V30 32036 C 2961.1 1.52796 0.731411 0
M  V30 32037 O 2962.3 1.68496 0.633166 0
M  V30 32038 H 2958.68 0.751979 -0.00567814 0
M  V30 32039 H 2960.65 2.85288 -0.874848 0
M  V30 32040 C 2959.4 3.37862 0.821253 0
M  V30 32041 H 2958.72 3.9925 0.209596 0
M  V30 32042 H 2960.16 4.05256 1.24672 0
M  V30 32043 C 2958.62 2.74499 1.95325 0
M  V30 32044 O 2959.15 2.61947 3.04543 0
M  V30 32045 N 2957.36 2.32663 1.74115 0
M  V30 32046 H 2956.9 2.43072 0.852865 0
M  V30 32047 H 2956.86 1.90608 2.50032 0
M  V30 32048 N 2960.63 0.47718 1.50202 0
M  V30 32049 C 2961.57 -0.350199 2.26509 0
M  V30 32050 C 2962.58 -0.951737 1.32083 0
M  V30 32051 O 2963.77 -0.839111 1.57547 0
M  V30 32052 C 2960.87 -1.50573 3.03613 0
M  V30 32053 C 2960.04 -1.01587 4.2544 0
M  V30 32054 C 2959.1 -2.04618 4.84787 0
M  V30 32055 O 2958.13 -1.62433 5.45531 0
M  V30 32056 N 2959.33 -3.37477 4.72324 0
M  V30 32057 H 2962.09 0.303993 2.98154 0
M  V30 32058 H 2959.65 0.308317 1.58937 0
M  V30 32059 H 2961.65 -2.19204 3.40194 0
M  V30 32060 H 2960.22 -2.06451 2.34727 0
M  V30 32061 H 2959.44 -0.155247 3.93894 0
M  V30 32062 H 2960.72 -0.666605 5.04414 0
M  V30 32063 H 2960.12 -3.74455 4.24028 0
M  V30 32064 H 2958.68 -4.01888 5.13156 0
M  V30 32065 N 2962.11 -1.56194 0.210027 0
M  V30 32066 C 2963.34 -2.02383 -0.429961 0
M  V30 32067 C 2963.76 -1.09001 -1.54157 0
M  V30 32068 O 2963.11 -0.0975176 -1.82239 0
M  V30 32069 C 2963.16 -3.48177 -0.972372 0
M  V30 32070 O 2962.88 -4.37997 0.0949001 0
M  V30 32071 C 2964.39 -4.09955 -1.68676 0
M  V30 32072 H 2961.61 -0.6625 -0.106463 0
M  V30 32073 H 2964.15 -2.01931 0.323107 0
M  V30 32074 H 2962.3 -3.49281 -1.67576 0
M  V30 32075 H 2962.72 -5.23577 -0.311038 0
M  V30 32076 H 2964.19 -5.13774 -2.01842 0
M  V30 32077 H 2964.67 -3.5428 -2.59581 0
M  V30 32078 H 2965.28 -4.12668 -1.02885 0
M  V30 32079 N 2963.59 0.0634645 -1.57472 0
M  V30 32080 C 2964.83 0.766279 -1.89493 0
M  V30 32081 C 2965.19 1.74319 -0.804781 0
M  V30 32082 O 2966.4 2.49172 -1.0083 0
M  V30 32083 C 2964.67 1.44845 -3.26733 0
M  V30 32084 S 2966.23 2.18518 -3.8052 0
M  V30 32085 H 2963.04 0.254641 -0.663837 0
M  V30 32086 H 2965.65 0.0220524 -1.95488 0
M  V30 32087 H 2964.35 0.723753 -4.03968 0
M  V30 32088 H 2963.88 2.23194 -3.23957 0
M  V30 32089 H 2965.9 3.45166 -3.56476 0
M  V30 32090 N 2965.07 1.53998 0.33504 0
M  V30 32091 C 2966.32 1.70867 1.07179 0
M  V30 32092 C 2966.63 0.483112 1.8954 0
M  V30 32093 O 2967.84 0.532926 2.66218 0
M  V30 32094 C 2966.29 3.02177 1.95492 0
M  V30 32095 C 2965.9 4.32099 1.18297 0
M  V30 32096 C 2967.64 3.28412 2.68972 0
M  V30 32097 C 2965.55 5.54478 2.05689 0
M  V30 32098 H 2964.48 0.636729 0.403846 0
M  V30 32099 H 2967.13 1.80495 0.330729 0
M  V30 32100 H 2965.51 2.86428 2.73451 0
M  V30 32101 H 2966.69 4.58579 0.451888 0
M  V30 32102 H 2965 4.12542 0.565484 0
M  V30 32103 H 2967.6 4.17035 3.34643 0
M  V30 32104 H 2967.94 2.4579 3.35996 0
M  V30 32105 H 2968.48 3.44976 1.98081 0
M  V30 32106 H 2965.22 6.39669 1.43193 0
M  V30 32107 H 2964.74 5.32234 2.76562 0
M  V30 32108 H 2966.41 5.90445 2.64544 0
M  V30 32109 N 2966.55 -0.596505 1.45875 0
M  V30 32110 C 2967.51 -1.6885 1.54991 0
M  V30 32111 C 2968.51 -1.5499 0.428329 0
M  V30 32112 O 2969.7 -1.59858 0.692186 0
M  V30 32113 C 2966.83 -3.08193 1.45705 0
M  V30 32114 H 2968.02 -1.6213 2.52297 0
M  V30 32115 H 2965.58 -0.813183 1.3348 0
M  V30 32116 H 2966.31 -3.2048 0.496261 0
M  V30 32117 H 2966.1 -3.19661 2.27067 0
M  V30 32118 H 2967.59 -3.87713 1.5514 0
M  V30 32119 N 2968.02 -1.3335 -0.839967 0
M  V30 32120 C 2969.25 -1.27781 -1.62726 0
M  V30 32121 C 2969.67 0.151472 -1.88191 0
M  V30 32122 O 2969.02 1.09327 -1.4613 0
M  V30 32123 C 2969.08 -2.04919 -2.9781 0
M  V30 32124 O 2968.8 -3.42271 -2.73463 0
M  V30 32125 C 2970.3 -2.06547 -3.92241 0
M  V30 32126 H 2967.52 -0.440266 -0.506366 0
M  V30 32127 H 2970.06 -1.75704 -1.04634 0
M  V30 32128 H 2968.22 -1.6068 -3.52506 0
M  V30 32129 H 2968.63 -3.81938 -3.59476 0
M  V30 32130 H 2970.1 -2.64975 -4.84244 0
M  V30 32131 H 2970.58 -1.05544 -4.2633 0
M  V30 32132 H 2971.19 -2.50799 -3.43482 0
M  V30 32133 N 2969.5 1.05808 -1.16801 0
M  V30 32134 C 2970.45 2.11673 -0.847268 0
M  V30 32135 C 2971.44 1.59941 0.175448 0
M  V30 32136 O 2972.63 1.76981 -0.0260913 0
M  V30 32137 C 2969.76 3.41454 -0.355506 0
M  V30 32138 C 2968.84 4 -1.40929 0
M  V30 32139 N 2969.23 4.32591 -2.62104 0
M  V30 32140 C 2967.53 4.27664 -1.26569 0
M  V30 32141 C 2968.23 4.79196 -3.29767 0
M  V30 32142 N 2967.21 4.78933 -2.57146 0
M  V30 32143 H 2971.01 2.34724 -1.76866 0
M  V30 32144 H 2968.53 1.23397 -1.05579 0
M  V30 32145 H 2970.52 4.16762 -0.107304 0
M  V30 32146 H 2969.18 3.19839 0.55976 0
M  V30 32147 H 2970.19 4.22785 -2.9912 0
M  V30 32148 H 2966.87 4.15466 -0.411576 0
M  V30 32149 H 2968.26 5.13576 -4.33231 0
M  V30 32150 N 2970.98 0.967265 1.24426 0
M  V30 32151 C 2971.89 0.504633 2.29108 0
M  V30 32152 C 2972.91 -0.434195 1.68496 0
M  V30 32153 O 2974.08 -0.307344 1.99041 0
M  V30 32154 C 2971.15 -0.198212 3.46133 0
M  V30 32155 C 2970.21 0.780388 4.22147 0
M  V30 32156 C 2969.44 0.110989 5.33585 0
M  V30 32157 O 2969.66 -1.10078 5.59678 0
M  V30 32158 O 2968.6 0.802928 5.9652 0
M  V30 32159 H 2972.42 1.37487 2.70797 0
M  V30 32160 H 2970.01 0.734283 1.3011 0
M  V30 32161 H 2971.89 -0.593051 4.17206 0
M  V30 32162 H 2970.57 -1.04342 3.06422 0
M  V30 32163 H 2969.47 1.22568 3.53452 0
M  V30 32164 H 2970.81 1.594 4.65674 0
M  V30 32165 N 2972.46 -1.39288 0.737328 0
M  V30 32166 C 2973.68 -2.05287 0.295273 0
M  V30 32167 C 2974.11 -1.5523 -1.06232 0
M  V30 32168 O 2973.47 -0.697072 -1.67364 0
M  V30 32169 C 2973.52 -3.59272 0.30921 0
M  V30 32170 O 2972.62 -4.06375 -0.702365 0
M  V30 32171 H 2971.96 -0.650385 0.133773 0
M  V30 32172 H 2974.49 -1.78278 1.0039 0
M  V30 32173 H 2974.5 -4.07708 0.154408 0
M  V30 32174 H 2973.18 -3.95067 1.29981 0
M  V30 32175 H 2971.75 -3.69347 -0.513509 0
M  V30 32176 N 2973.94 -0.485139 -1.49947 0
M  V30 32177 C 2974.89 0.315568 -2.30449 0
M  V30 32178 C 2975.88 0.977492 -1.38353 0
M  V30 32179 O 2977.09 0.906991 -1.55479 0
M  V30 32180 H 2973.46 0.120616 -0.742264 0
M  V30 32181 H 2975.43 -0.383604 -2.95924 0
M  V30 32182 C 2974.18 1.37668 -3.19285 0
M  V30 32183 H 2973.5 0.876733 -3.90069 0
M  V30 32184 H 2974.94 1.90923 -3.78582 0
M  V30 32185 C 2973.4 2.38627 -2.37821 0
M  V30 32186 O 2973.93 3.44189 -2.07116 0
M  V30 32187 N 2972.14 2.10696 -2.00139 0
M  V30 32188 H 2971.69 1.24874 -2.25309 0
M  V30 32189 H 2971.64 2.78477 -1.45938 0
M  V30 32190 N 2975.42 1.56081 -0.218307 0
M  V30 32191 C 2976.66 1.97826 0.413454 0
M  V30 32192 C 2976.98 1.1071 1.60525 0
M  V30 32193 O 2976.25 0.183413 1.9504 0
M  V30 32194 H 2974.83 0.730584 0.155744 0
M  V30 32195 H 2977.5 1.92412 -0.310447 0
M  V30 32196 H 2976.59 3.03152 0.741971 0
M  V30 32197 N 2976.89 -0.0551124 1.57504 0
M  V30 32198 C 2978.14 -0.749976 1.87238 0
M  V30 32199 C 2978.46 -1.7789 0.8133 0
M  V30 32200 O 2979.66 -2.52451 0.999025 0
M  V30 32201 C 2978.12 -1.38485 3.3219 0
M  V30 32202 C 2977.73 -0.393629 4.46267 0
M  V30 32203 C 2979.47 -2.0611 3.71105 0
M  V30 32204 C 2977.38 -1.03536 5.82266 0
M  V30 32205 H 2976.31 -0.283854 0.698529 0
M  V30 32206 H 2978.96 -0.00362772 1.835 0
M  V30 32207 H 2977.34 -2.18003 3.30592 0
M  V30 32208 H 2978.51 0.372946 4.59288 0
M  V30 32209 H 2976.83 0.179093 4.16015 0
M  V30 32210 H 2979.43 -2.54929 4.70016 0
M  V30 32211 H 2979.77 -2.86791 3.01756 0
M  V30 32212 H 2980.3 -1.33402 3.74765 0
M  V30 32213 H 2977.04 -0.268529 6.5495 0
M  V30 32214 H 2976.56 -1.7724 5.73015 0
M  V30 32215 H 2978.24 -1.55036 6.2815 0
M  V30 32216 N 2978.37 -1.54173 -0.326869 0
M  V30 32217 C 2979.65 -1.62866 -1.08323 0
M  V30 32218 C 2980.03 -0.460427 -2.06018 0
M  V30 32219 O 2979.38 0.545646 -2.2189 0
M  V30 32220 C 2979.59 -2.99713 -1.78811 0
M  V30 32221 C 2980.93 -3.55645 -2.31952 0
M  V30 32222 O 2981.96 -3.01996 -1.88883 0
M  V30 32223 O 2980.82 -4.49522 -3.10793 0
M  V30 32224 H 2977.91 -0.659401 -0.499119 0
M  V30 32225 H 2980.46 -1.66519 -0.327025 0
M  V30 32226 H 2979.23 -3.76177 -1.07732 0
M  V30 32227 H 2978.85 -2.99724 -2.6125 0
M  V30 32228 N 2979.85 0.58876 -1.4619 0
M  V30 32229 C 2981.1 1.34337 -1.50454 0
M  V30 32230 C 2981.41 1.9496 -0.15813 0
M  V30 32231 O 2982.62 2.71386 -0.0785395 0
M  V30 32232 C 2981.07 2.43436 -2.65079 0
M  V30 32233 C 2980.68 1.89143 -4.06114 0
M  V30 32234 C 2982.43 3.20278 -2.78608 0
M  V30 32235 C 2980.33 2.95836 -5.12089 0
M  V30 32236 H 2979.26 0.504987 -0.559914 0
M  V30 32237 H 2981.91 0.628984 -1.72383 0
M  V30 32238 H 2980.3 3.17646 -2.36468 0
M  V30 32239 H 2981.47 1.21517 -4.44489 0
M  V30 32240 H 2979.78 1.24988 -3.97199 0
M  V30 32241 H 2982.38 3.99892 -3.54951 0
M  V30 32242 H 2982.72 3.72483 -1.85909 0
M  V30 32243 H 2983.26 2.53173 -3.06836 0
M  V30 32244 H 2980 2.48525 -6.06561 0
M  V30 32245 H 2979.52 3.6197 -4.78265 0
M  V30 32246 H 2981.2 3.59893 -5.37667 0
M  V30 32247 N 2981.33 1.33794 0.832883 0
M  V30 32248 C 2982.58 1.24935 1.58348 0
M  V30 32249 C 2982.89 -0.181669 1.94755 0
M  V30 32250 O 2984.1 -0.392328 2.6865 0
M  V30 32251 C 2982.55 2.18948 2.8564 0
M  V30 32252 C 2982.16 3.67252 2.56574 0
M  V30 32253 C 2983.9 2.18974 3.63663 0
M  V30 32254 C 2981.81 4.53162 3.79998 0
M  V30 32255 H 2980.74 0.464068 0.59427 0
M  V30 32256 H 2983.39 1.58896 0.917832 0
M  V30 32257 H 2981.77 1.77925 3.53778 0
M  V30 32258 H 2982.95 4.16751 1.9661 0
M  V30 32259 H 2981.26 3.69574 1.91844 0
M  V30 32260 H 2983.86 2.80387 4.55288 0
M  V30 32261 H 2984.2 1.18638 3.99037 0
M  V30 32262 H 2984.74 2.5839 3.02456 0
M  V30 32263 H 2981.47 5.54396 3.49751 0
M  V30 32264 H 2980.99 4.08403 4.3928 0
M  V30 32265 H 2982.67 4.67268 4.47515 0
M  V30 32266 N 2982.81 -1.05187 1.1736 0
M  V30 32267 C 2984.05 -1.77581 0.956443 0
M  V30 32268 C 2984.37 -1.88672 -0.515985 0
M  V30 32269 O 2985.57 -2.57806 -0.851355 0
M  V30 32270 C 2984.03 -3.19222 1.66209 0
M  V30 32271 C 2983.64 -3.16262 3.17305 0
M  V30 32272 C 2985.38 -3.96072 1.52732 0
M  V30 32273 C 2983.29 -4.52691 3.80558 0
M  V30 32274 H 2982.22 -0.665618 0.354216 0
M  V30 32275 H 2984.87 -1.17898 1.40614 0
M  V30 32276 H 2983.25 -3.79232 1.14013 0
M  V30 32277 H 2984.43 -2.65769 3.76435 0
M  V30 32278 H 2982.74 -2.52911 3.30795 0
M  V30 32279 H 2985.34 -4.96944 1.9736 0
M  V30 32280 H 2985.68 -4.13548 0.477875 0
M  V30 32281 H 2986.21 -3.42611 2.02145 0
M  V30 32282 H 2982.95 -4.40421 4.85499 0
M  V30 32283 H 2982.47 -5.03333 3.26215 0
M  V30 32284 H 2984.15 -5.21631 3.82767 0
M  V30 32285 N 2984.28 -0.97385 -1.23911 0
M  V30 32286 C 2985.25 -0.513819 -2.23366 0
M  V30 32287 C 2986.25 0.392992 -1.55924 0
M  V30 32288 O 2987.44 0.187596 -1.73187 0
M  V30 32289 C 2984.57 0.255092 -3.39944 0
M  V30 32290 H 2985.76 -1.39312 -2.65579 0
M  V30 32291 H 2983.31 -0.759063 -1.36631 0
M  V30 32292 H 2984.05 1.15122 -3.03179 0
M  V30 32293 H 2983.83 -0.395742 -3.90098 0
M  V30 32294 H 2985.32 0.565769 -4.1375 0
M  V30 32295 N 2985.76 1.38895 -0.744705 0
M  V30 32296 C 2986.69 2.33158 -0.126396 0
M  V30 32297 C 2987.67 1.54413 0.71349 0
M  V30 32298 O 2988.86 1.82767 0.65649 0
M  V30 32299 C 2985.99 3.38558 0.774316 0
M  V30 32300 C 2984.94 4.27983 0.0378461 0
M  V30 32301 C 2984.27 5.24164 1.05622 0
M  V30 32302 C 2985.57 5.10033 -1.12532 0
M  V30 32303 H 2987.26 2.85114 -0.913794 0
M  V30 32304 H 2984.81 1.37085 -0.440871 0
M  V30 32305 H 2986.76 4.0346 1.21648 0
M  V30 32306 H 2985.48 2.85063 1.59394 0
M  V30 32307 H 2984.14 3.64575 -0.384797 0
M  V30 32308 H 2983.79 4.66961 1.86967 0
M  V30 32309 H 2983.49 5.84847 0.568158 0
M  V30 32310 H 2985.02 5.91942 1.49788 0
M  V30 32311 H 2986.43 5.68225 -0.761137 0
M  V30 32312 H 2984.83 5.79906 -1.54365 0
M  V30 32313 H 2985.9 4.44294 -1.94245 0
M  V30 32314 N 2987.24 0.493084 1.49688 0
M  V30 32315 C 2988.49 -0.0560378 2.01622 0
M  V30 32316 C 2988.8 -1.38778 1.37841 0
M  V30 32317 O 2990.01 -2.02313 1.81057 0
M  V30 32318 C 2988.46 -0.150345 3.59586 0
M  V30 32319 C 2988.07 1.17428 4.32336 0
M  V30 32320 C 2989.82 -0.650253 4.1949 0
M  V30 32321 C 2987.72 1.04256 5.82138 0
M  V30 32322 H 2986.65 -0.0247165 0.753595 0
M  V30 32323 H 2989.3 0.631309 1.72298 0
M  V30 32324 H 2987.69 -0.901967 3.85591 0
M  V30 32325 H 2988.86 1.93857 4.18038 0
M  V30 32326 H 2987.18 1.607 3.84141 0
M  V30 32327 H 2989.77 -0.766179 5.29182 0
M  V30 32328 H 2990.12 -1.64713 3.82329 0
M  V30 32329 H 2990.65 0.044607 3.97775 0
M  V30 32330 H 2987.39 2.01347 6.2381 0
M  V30 32331 H 2986.91 0.319025 5.98951 0
M  V30 32332 H 2988.59 0.71807 6.43003 0
M  V30 32333 N 2988.72 -1.55963 0.226582 0
M  V30 32334 C 2989.65 -2.23499 -0.67604 0
M  V30 32335 C 2990.63 -1.20839 -1.19716 0
M  V30 32336 O 2991.81 -1.49438 -1.24024 0
M  V30 32337 C 2988.94 -2.91879 -1.88212 0
M  V30 32338 C 2987.9 -4.01055 -1.49463 0
M  V30 32339 C 2987.22 -4.56756 -2.77989 0
M  V30 32340 C 2988.52 -5.17843 -0.68086 0
M  V30 32341 H 2990.22 -2.99187 -0.112937 0
M  V30 32342 H 2987.76 -1.43903 -0.0528793 0
M  V30 32343 H 2989.72 -3.37819 -2.51905 0
M  V30 32344 H 2988.44 -2.13647 -2.47027 0
M  V30 32345 H 2987.1 -3.55853 -0.881136 0
M  V30 32346 H 2986.75 -3.75248 -3.34959 0
M  V30 32347 H 2986.45 -5.30442 -2.52794 0
M  V30 32348 H 2987.97 -5.05417 -3.42616 0
M  V30 32349 H 2989.39 -5.60134 -1.22161 0
M  V30 32350 H 2987.78 -5.97792 -0.525793 0
M  V30 32351 H 2988.85 -4.83899 0.311431 0
M  V30 32352 N 2990.2 0.0467589 -1.57531 0
M  V30 32353 C 2991.14 1.07136 -2.06457 0
M  V30 32354 C 2992.14 1.38545 -0.974768 0
M  V30 32355 O 2993.34 1.37657 -1.15976 0
M  V30 32356 H 2989.72 0.36295 -0.658613 0
M  V30 32357 H 2991.69 0.632762 -2.91614 0
M  V30 32358 C 2990.44 2.36923 -2.54486 0
M  V30 32359 H 2989.76 2.13611 -3.3795 0
M  V30 32360 H 2991.2 3.07002 -2.92448 0
M  V30 32361 C 2989.66 3.0465 -1.43841 0
M  V30 32362 O 2990.19 3.93763 -0.7946 0
M  V30 32363 N 2988.4 2.65684 -1.17731 0
M  V30 32364 H 2987.94 1.93304 -1.70268 0
M  V30 32365 H 2987.9 3.11319 -0.439105 0
M  V30 32366 N 2991.67 1.54344 0.318688 0
M  V30 32367 C 2992.95 1.63439 1.07458 0
M  V30 32368 C 2993.33 0.471346 2.05771 0
M  V30 32369 O 2992.68 -0.533871 2.22176 0
M  V30 32370 C 2992.89 3.00657 1.77219 0
M  V30 32371 C 2994.24 3.5687 2.30063 0
M  V30 32372 O 2995.26 3.02994 1.87278 0
M  V30 32373 O 2994.12 4.51164 3.08405 0
M  V30 32374 H 2991.21 0.662038 0.495615 0
M  V30 32375 H 2993.76 1.6669 0.318189 0
M  V30 32376 H 2992.53 3.76744 1.05736 0
M  V30 32377 H 2992.16 3.01105 2.59656 0
M  V30 32378 N 2993.15 -0.580999 1.465 0
M  V30 32379 C 2994.4 -1.33537 1.51165 0
M  V30 32380 C 2994.71 -1.94873 0.168467 0
M  V30 32381 O 2995.92 -2.71341 0.0929307 0
M  V30 32382 C 2994.38 -2.42027 2.66366 0
M  V30 32383 C 2993.98 -1.86987 4.07112 0
M  V30 32384 C 2995.73 -3.18796 2.80303 0
M  V30 32385 C 2993.64 -2.93116 5.13651 0
M  V30 32386 H 2992.57 -0.502011 0.562584 0
M  V30 32387 H 2995.22 -0.619833 1.72715 0
M  V30 32388 H 2993.6 -3.16387 2.38149 0
M  V30 32389 H 2994.77 -1.19158 4.45127 0
M  V30 32390 H 2993.09 -1.2288 3.97856 0
M  V30 32391 H 2995.68 -3.98004 3.57067 0
M  V30 32392 H 2996.03 -3.71492 1.87881 0
M  V30 32393 H 2996.56 -2.51542 3.08174 0
M  V30 32394 H 2993.3 -2.45305 6.0787 0
M  V30 32395 H 2992.82 -3.59429 4.80178 0
M  V30 32396 H 2994.5 -3.57036 5.39568 0
M  V30 32397 N 2994.63 -1.34234 -0.825776 0
M  V30 32398 C 2995.58 -1.25576 -1.9579 0
M  V30 32399 C 2996.57 -0.154433 -1.68695 0
M  V30 32400 O 2997.78 -0.319227 -1.77147 0
M  V30 32401 H 2994.15 -0.390038 -0.642942 0
M  V30 32402 H 2996.12 -2.21261 -2.00215 0
M  V30 32403 C 2994.87 -1.02517 -3.32243 0
M  V30 32404 H 2994.2 -1.86493 -3.53639 0
M  V30 32405 H 2995.64 -1.00494 -4.11919 0
M  V30 32406 C 2994.1 0.271611 -3.35803 0
M  V30 32407 O 2994.63 1.27394 -3.80964 0
M  V30 32408 N 2992.83 0.303727 -2.89008 0
M  V30 32409 H 2992.38 -0.512508 -2.5245 0
M  V30 32410 H 2992.34 1.17116 -2.91773 0
M  V30 32411 N 2996.11 1.04563 -1.17917 0
M  V30 32412 C 2997.52 1.59132 -0.976411 0
M  V30 32413 C 2997.87 1.90357 0.475233 0
M  V30 32414 O 2997 1.68992 1.35169 0
M  V30 32415 C 2997.59 2.89127 -1.76609 0
M  V30 32416 C 2996.15 3.40332 -1.60783 0
M  V30 32417 C 2995.3 2.13982 -1.76372 0
M  V30 32418 H 2998.25 0.872962 -1.32533 0
M  V30 32419 H 2998.27 3.59305 -1.25222 0
M  V30 32420 H 2997.78 2.6637 -2.82257 0
M  V30 32421 H 2995.88 3.68113 -0.576501 0
M  V30 32422 H 2995.99 4.14493 -2.40275 0
M  V30 32423 H 2994.36 2.25047 -1.19272 0
M  V30 32424 H 2995.14 1.93685 -2.83445 0
M  V30 32425 N 2997.59 0.980408 1.23393 0
M  V30 32426 C 2998.52 0.540064 2.27169 0
M  V30 32427 C 2999.5 -0.426758 1.6466 0
M  V30 32428 O 3000.68 -0.320119 1.91543 0
M  V30 32429 C 2997.81 -0.158299 3.46939 0
M  V30 32430 C 2996.77 0.725806 4.21801 0
M  V30 32431 C 2996.09 -0.104772 5.34597 0
M  V30 32432 C 2997.39 2.01662 4.81798 0
M  V30 32433 H 2999.09 1.40748 2.64254 0
M  V30 32434 H 2996.63 0.678215 1.27029 0
M  V30 32435 H 2998.59 -0.477664 4.18684 0
M  V30 32436 H 2997.31 -1.06017 3.08914 0
M  V30 32437 H 2995.97 1.02863 3.51873 0
M  V30 32438 H 2995.62 -1.00717 4.92813 0
M  V30 32439 H 2995.32 0.48366 5.85606 0
M  V30 32440 H 2996.84 -0.418517 6.09164 0
M  V30 32441 H 2998.25 1.76202 5.45551 0
M  V30 32442 H 2996.65 2.55283 5.43094 0
M  V30 32443 H 2997.72 2.70345 4.02544 0
M  V30 32444 N 2999.06 -1.38498 0.75206 0
M  V30 32445 C 3000.31 -1.99756 0.306931 0
M  V30 32446 C 3000.63 -1.59994 -1.11476 0
M  V30 32447 O 2999.9 -0.856076 -1.76205 0
M  V30 32448 H 2998.48 -0.738783 0.110493 0
M  V30 32449 H 3001.15 -1.69287 0.965815 0
M  V30 32450 H 3000.24 -3.09913 0.368851 0
M  V30 32451 N 3000.54 -0.501015 -1.49424 0
M  V30 32452 C 3001.49 0.277403 -2.29127 0
M  V30 32453 C 3002.46 0.960339 -1.35524 0
M  V30 32454 O 3003.64 0.966998 -1.6448 0
M  V30 32455 C 3000.78 1.33588 -3.18195 0
M  V30 32456 C 2999.9 0.664716 -4.26855 0
M  V30 32457 C 2999.03 1.70363 -5.0314 0
M  V30 32458 C 2998.07 1.01434 -6.03637 0
M  V30 32459 N 2997.21 1.99746 -6.73087 0
M  V30 32460 H 3002.05 -0.40851 -2.95187 0
M  V30 32461 H 2999.59 -0.213301 -1.45545 0
M  V30 32462 H 3001.54 1.96155 -3.68211 0
M  V30 32463 H 3000.17 1.99055 -2.5412 0
M  V30 32464 H 2999.23 -0.0742377 -3.80328 0
M  V30 32465 H 3000.54 0.122109 -4.98651 0
M  V30 32466 H 2999.69 2.40435 -5.57024 0
M  V30 32467 H 2998.43 2.28009 -4.31118 0
M  V30 32468 H 2997.44 0.2994 -5.48984 0
M  V30 32469 H 2998.66 0.444378 -6.77645 0
M  V30 32470 H 2996.61 2.56354 -6.03836 0
M  V30 32471 H 2996.52 1.50552 -7.40858 0
M  V30 32472 H 2997.79 2.69106 -7.31575 0
M  V30 32473 N 3002.02 1.5584 -0.234849 0
M  V30 32474 C 3003.25 2.02747 0.397132 0
M  V30 32475 C 3003.66 1.1137 1.52949 0
M  V30 32476 O 3003 0.118165 1.8332 0
M  V30 32477 C 3003.06 3.4595 0.977688 0
M  V30 32478 C 3002.73 4.56995 -0.0208997 0
M  V30 32479 C 3003.73 5.13295 -0.826105 0
M  V30 32480 C 3001.41 5.02095 -0.143504 0
M  V30 32481 C 3003.4 6.13177 -1.74049 0
M  V30 32482 C 3001.09 6.01812 -1.06141 0
M  V30 32483 C 3002.09 6.5723 -1.85843 0
M  V30 32484 O 3001.78 7.55004 -2.76088 0
M  V30 32485 H 3001.51 0.668567 0.0999685 0
M  V30 32486 H 3004.06 2.02349 -0.352709 0
M  V30 32487 H 3002.29 3.43459 1.77687 0
M  V30 32488 H 3003.98 3.76427 1.51847 0
M  V30 32489 H 3004.75 4.79292 -0.741906 0
M  V30 32490 H 3000.63 4.58631 0.466776 0
M  V30 32491 H 3004.17 6.56359 -2.36302 0
M  V30 32492 H 3000.07 6.35235 -1.14657 0
M  V30 32493 H 3000.84 7.72576 -2.70313 0
M  V30 32494 N 3003.5 -0.038404 1.57553 0
M  V30 32495 C 3004.92 -0.393883 1.54663 0
M  V30 32496 C 3005.12 -1.77177 0.959716 0
M  V30 32497 O 3004.17 -2.45826 0.57669 0
M  V30 32498 C 3005.48 -0.304299 2.99156 0
M  V30 32499 C 3007.03 -0.382064 3.10659 0
M  V30 32500 C 3007.51 -0.322031 4.56866 0
M  V30 32501 N 3009 -0.381108 4.6163 0
M  V30 32502 C 3009.73 -0.3574 5.72285 0
M  V30 32503 N 3009.23 -0.286533 6.92207 0
M  V30 32504 N 3011.02 -0.406439 5.60629 0
M  V30 32505 H 3003.17 0.863425 1.94059 0
M  V30 32506 H 3005.44 0.327408 0.889667 0
M  V30 32507 H 3005.14 0.642202 3.45787 0
M  V30 32508 H 3005.02 -1.10162 3.60755 0
M  V30 32509 H 3007.4 -1.319 2.63982 0
M  V30 32510 H 3007.48 0.444436 2.5191 0
M  V30 32511 H 3007.13 0.611193 5.04209 0
M  V30 32512 H 3007.06 -1.16651 5.13517 0
M  V30 32513 H 3009.55 -0.438772 3.75344 0
M  V30 32514 H 3009.86 -0.273286 7.72317 0
M  V30 32515 H 3008.21 -0.252719 6.9454 0
M  V30 32516 H 3011.4 -0.45973 4.65837 0
M  V30 32517 H 3011.57 -0.384494 6.46858 0
M  V30 32518 N 3004.98 -1.54511 -0.310498 0
M  V30 32519 C 3005.91 -1.79671 -1.4069 0
M  V30 32520 C 3006.89 -0.647367 -1.49157 0
M  V30 32521 O 3008.07 -0.886269 -1.66366 0
M  V30 32522 C 3005.2 -1.92495 -2.78681 0
M  V30 32523 C 3004.25 -3.14866 -2.87683 0
M  V30 32524 S 3005.08 -4.73164 -2.5075 0
M  V30 32525 C 3006.23 -4.88913 -3.90788 0
M  V30 32526 H 3006.47 -2.72385 -1.19137 0
M  V30 32527 H 3004 -1.45801 -0.508078 0
M  V30 32528 H 3005.96 -2.0057 -3.58165 0
M  V30 32529 H 3004.62 -1.00736 -2.97508 0
M  V30 32530 H 3003.81 -3.20613 -3.88874 0
M  V30 32531 H 3003.41 -3.05189 -2.16184 0
M  V30 32532 H 3005.71 -4.72352 -4.85685 0
M  V30 32533 H 3006.65 -5.9101 -3.90017 0
M  V30 32534 H 3007.06 -4.17126 -3.8035 0
M  V30 32535 N 3006.46 0.573222 -1.46806 0
M  V30 32536 C 3007.73 1.33365 -1.43084 0
M  V30 32537 C 3008.11 2.10763 -0.119289 0
M  V30 32538 O 3007.46 2.10063 0.899202 0
M  V30 32539 C 3007.67 2.25168 -2.66647 0
M  V30 32540 C 3009.02 2.86697 -3.13193 0
M  V30 32541 O 3010.04 2.35477 -2.67262 0
M  V30 32542 O 3008.9 3.79754 -3.93 0
M  V30 32543 H 3006 0.599702 -0.569461 0
M  V30 32544 H 3008.54 0.593452 -1.58985 0
M  V30 32545 H 3007.31 1.67469 -3.53652 0
M  V30 32546 H 3006.94 3.06511 -2.53252 0
M  V30 32547 N 3007.93 1.3467 0.818645 0
M  V30 32548 C 3008.86 1.29249 1.94466 0
M  V30 32549 C 3009.84 0.169131 1.69257 0
M  V30 32550 O 3011.03 0.362176 1.90793 0
M  V30 32551 C 3008.16 1.05151 3.30999 0
M  V30 32552 C 3007.11 2.13999 3.7066 0
M  V30 32553 C 3006.44 1.75083 5.05223 0
M  V30 32554 C 3007.74 3.55865 3.82305 0
M  V30 32555 H 3009.43 2.23464 1.99259 0
M  V30 32556 H 3006.98 1.07573 0.957286 0
M  V30 32557 H 3008.93 1.00002 4.09362 0
M  V30 32558 H 3007.66 0.0737886 3.26517 0
M  V30 32559 H 3006.32 2.18224 2.94574 0
M  V30 32560 H 3005.96 0.759605 4.97231 0
M  V30 32561 H 3005.66 2.47938 5.32729 0
M  V30 32562 H 3007.19 1.71437 5.86039 0
M  V30 32563 H 3008.6 3.54028 4.50929 0
M  V30 32564 H 3007 4.27378 4.2127 0
M  V30 32565 H 3008.07 3.92895 2.84186 0
M  V30 32566 N 3009.41 -1.03936 1.1847 0
M  V30 32567 C 3010.66 -1.77421 0.982317 0
M  V30 32568 C 3010.99 -1.88001 -0.486757 0
M  V30 32569 O 3010.27 -1.38907 -1.36143 0
M  V30 32570 C 3010.55 -3.2062 1.63935 0
M  V30 32571 C 3010.4 -3.17976 3.18137 0
M  V30 32572 C 3011.72 -4.18765 1.35367 0
M  V30 32573 H 3008.84 -0.644056 0.358275 0
M  V30 32574 H 3011.48 -1.21402 1.46156 0
M  V30 32575 H 3009.63 -3.68453 1.23186 0
M  V30 32576 H 3011.3 -2.78123 3.68029 0
M  V30 32577 H 3009.55 -2.55972 3.50229 0
M  V30 32578 H 3010.22 -4.19101 3.59247 0
M  V30 32579 H 3012.69 -3.79485 1.70676 0
M  V30 32580 H 3011.57 -5.17175 1.83905 0
M  V30 32581 H 3011.83 -4.41233 0.2768 0
M  V30 32582 N 3010.89 -0.986938 -1.22871 0
M  V30 32583 C 3011.82 -0.552104 -2.26879 0
M  V30 32584 C 3012.8 0.418019 -1.64884 0
M  V30 32585 O 3013.99 0.309957 -1.9171 0
M  V30 32586 C 3011.12 0.139898 -3.47018 0
M  V30 32587 C 3010.07 -0.748165 -4.2141 0
M  V30 32588 C 3009.4 0.0764192 -5.34645 0
M  V30 32589 C 3010.7 -2.04214 -4.80722 0
M  V30 32590 H 3012.39 -1.42147 -2.63504 0
M  V30 32591 H 3009.94 -0.684942 -1.26667 0
M  V30 32592 H 3011.89 0.455453 -4.18931 0
M  V30 32593 H 3010.61 1.04377 -3.09472 0
M  V30 32594 H 3009.27 -1.04727 -3.51323 0
M  V30 32595 H 3008.92 0.981023 -4.93341 0
M  V30 32596 H 3008.62 -0.514709 -5.85341 0
M  V30 32597 H 3010.14 0.386206 -6.09377 0
M  V30 32598 H 3011.56 -1.79093 -5.44609 0
M  V30 32599 H 3009.95 -2.58159 -5.41732 0
M  V30 32600 H 3011.02 -2.72476 -4.01105 0
M  V30 32601 N 3012.37 1.38098 -0.759394 0
M  V30 32602 C 3013.3 2.29 -0.095695 0
M  V30 32603 C 3014.31 1.48031 0.677535 0
M  V30 32604 O 3015.5 1.70829 0.517666 0
M  V30 32605 C 3012.6 3.27049 0.888383 0
M  V30 32606 C 3011.77 4.37063 0.171575 0
M  V30 32607 C 3010.83 5.15264 1.06723 0
M  V30 32608 O 3009.86 5.66674 0.535599 0
M  V30 32609 N 3011.06 5.28801 2.39477 0
M  V30 32610 H 3013.83 2.86599 -0.876404 0
M  V30 32611 H 3011.39 1.49941 -0.610676 0
M  V30 32612 H 3013.38 3.76244 1.49072 0
M  V30 32613 H 3011.95 2.70306 1.57013 0
M  V30 32614 H 3011.17 3.89428 -0.611541 0
M  V30 32615 H 3012.46 5.07766 -0.324211 0
M  V30 32616 H 3011.86 4.88594 2.85119 0
M  V30 32617 H 3010.41 5.8135 2.94747 0
M  V30 32618 N 3013.85 0.508932 1.49156 0
M  V30 32619 C 3014.78 -0.254429 2.3211 0
M  V30 32620 C 3015.76 -0.955087 1.40755 0
M  V30 32621 O 3016.94 -0.944954 1.69659 0
M  V30 32622 C 3014.07 -1.31455 3.21461 0
M  V30 32623 C 3013.03 -0.733294 4.21671 0
M  V30 32624 C 3012.35 -1.89451 5.00012 0
M  V30 32625 C 3013.65 0.280967 5.21544 0
M  V30 32626 H 3015.35 0.438002 2.96179 0
M  V30 32627 H 3012.89 0.212087 1.4243 0
M  V30 32628 H 3014.84 -1.85636 3.78308 0
M  V30 32629 H 3013.57 -2.03627 2.5535 0
M  V30 32630 H 3012.23 -0.213167 3.6598 0
M  V30 32631 H 3011.88 -2.60411 4.30343 0
M  V30 32632 H 3011.58 -1.51163 5.67824 0
M  V30 32633 H 3013.1 -2.44051 5.59706 0
M  V30 32634 H 3014.51 -0.172995 5.73039 0
M  V30 32635 H 3012.91 0.580111 5.97289 0
M  V30 32636 H 3013.98 1.19412 4.69967 0
M  V30 32637 N 3015.32 -1.55714 0.243111 0
M  V30 32638 C 3016.27 -2.2122 -0.658039 0
M  V30 32639 C 3017.24 -1.17483 -1.17418 0
M  V30 32640 O 3018.43 -1.45917 -1.22935 0
M  V30 32641 C 3015.57 -2.9126 -1.85099 0
M  V30 32642 C 3014.68 -4.09643 -1.37173 0
M  V30 32643 C 3013.81 -4.67408 -2.52395 0
M  V30 32644 C 3012.85 -5.78049 -2.01311 0
M  V30 32645 N 3011.99 -6.30012 -3.09885 0
M  V30 32646 H 3016.83 -2.97856 -0.092733 0
M  V30 32647 H 3014.37 -1.47061 -0.0340116 0
M  V30 32648 H 3016.32 -3.30064 -2.55173 0
M  V30 32649 H 3014.95 -2.17105 -2.38884 0
M  V30 32650 H 3014.01 -3.76178 -0.565166 0
M  V30 32651 H 3015.32 -4.89527 -0.957323 0
M  V30 32652 H 3014.47 -5.08767 -3.30516 0
M  V30 32653 H 3013.21 -3.86733 -2.97135 0
M  V30 32654 H 3012.22 -5.36171 -1.21658 0
M  V30 32655 H 3013.44 -6.60573 -1.57545 0
M  V30 32656 H 3011.39 -5.52243 -3.54067 0
M  V30 32657 H 3011.3 -7.05079 -2.72763 0
M  V30 32658 H 3012.57 -6.76029 -3.88078 0
M  V30 32659 N 3016.8 0.030048 -1.57571 0
M  V30 32660 C 3017.75 1.0494 -2.07582 0
M  V30 32661 C 3018.74 1.37503 -0.989408 0
M  V30 32662 O 3019.95 1.3642 -1.1743 0
M  V30 32663 H 3016.33 0.355944 -0.662426 0
M  V30 32664 H 3018.3 0.601796 -2.92269 0
M  V30 32665 C 3017.05 2.3421 -2.56984 0
M  V30 32666 H 3016.37 2.10015 -3.40197 0
M  V30 32667 H 3017.81 3.03883 -2.95687 0
M  V30 32668 C 3016.27 3.03107 -1.47064 0
M  V30 32669 O 3016.8 3.92898 -0.836319 0
M  V30 32670 N 3015 2.6442 -1.20543 0
M  V30 32671 H 3014.55 1.91487 -1.72309 0
M  V30 32672 H 3014.51 3.10835 -0.4721 0
M  V30 32673 N 3018.28 1.54674 0.3023 0
M  V30 32674 C 3019.23 1.86288 1.39283 0
M  V30 32675 C 3020.22 0.736504 1.52552 0
M  V30 32676 O 3021.43 0.920477 1.54684 0
M  V30 32677 H 3017.8 0.590827 0.465217 0
M  V30 32678 H 3019.77 2.77443 1.09854 0
M  V30 32679 C 3018.52 2.12572 2.75152 0
M  V30 32680 H 3017.85 2.98716 2.65723 0
M  V30 32681 H 3019.29 2.38633 3.50472 0
M  V30 32682 C 3017.75 0.92387 3.23985 0
M  V30 32683 O 3018.28 0.14372 4.01443 0
M  V30 32684 N 3016.48 0.729609 2.81292 0
M  V30 32685 H 3016.03 1.36568 2.18419 0
M  V30 32686 H 3015.99 -0.0729798 3.14315 0
M  V30 32687 N 3019.76 -0.565428 1.47108 0
M  V30 32688 C 3020.72 -1.65525 1.58538 0
M  V30 32689 C 3021.72 -1.54047 0.461108 0
M  V30 32690 O 3022.91 -1.58353 0.725938 0
M  V30 32691 C 3020.04 -3.05033 1.52209 0
M  V30 32692 H 3021.24 -1.56742 2.55679 0
M  V30 32693 H 3018.79 -0.784687 1.35175 0
M  V30 32694 H 3019.52 -3.19356 0.564128 0
M  V30 32695 H 3019.31 -3.14773 2.33796 0
M  V30 32696 H 3020.8 -3.84335 1.63329 0
M  V30 32697 N 3021.24 -1.35102 -0.811492 0
M  V30 32698 C 3022.46 -1.31361 -1.60497 0
M  V30 32699 C 3022.89 0.10735 -1.87793 0
M  V30 32700 O 3022.24 1.07266 -1.46163 0
M  V30 32701 C 3022.29 -2.12124 -2.91609 0
M  V30 32702 O 3021.4 -1.4986 -3.84208 0
M  V30 32703 H 3020.74 -0.450611 -0.487694 0
M  V30 32704 H 3023.27 -1.78072 -1.00754 0
M  V30 32705 H 3023.28 -2.239 -3.41076 0
M  V30 32706 H 3021.95 -3.1543 -2.71066 0
M  V30 32707 H 3020.53 -1.46895 -3.42748 0
M  V30 32708 N 3022.71 1.03306 -1.19019 0
M  V30 32709 C 3023.66 2.11491 -0.924126 0
M  V30 32710 C 3024.63 1.65514 0.139435 0
M  V30 32711 O 3025.82 1.908 -0.00182114 0
M  V30 32712 C 3022.96 3.41962 -0.464315 0
M  V30 32713 C 3022.07 4.0151 -1.59417 0
M  V30 32714 C 3021.2 5.19974 -1.08631 0
M  V30 32715 C 3020.24 5.71568 -2.19034 0
M  V30 32716 N 3019.38 6.81311 -1.69587 0
M  V30 32717 H 3024.22 2.33587 -1.85043 0
M  V30 32718 H 3021.76 1.1457 -0.922613 0
M  V30 32719 H 3023.72 4.16815 -0.179151 0
M  V30 32720 H 3022.35 3.1999 0.425005 0
M  V30 32721 H 3021.4 3.23911 -1.99464 0
M  V30 32722 H 3022.71 4.35822 -2.42612 0
M  V30 32723 H 3021.86 6.0197 -0.756128 0
M  V30 32724 H 3020.6 4.87185 -0.224041 0
M  V30 32725 H 3019.61 4.88188 -2.52888 0
M  V30 32726 H 3020.83 6.06398 -3.0571 0
M  V30 32727 H 3018.78 6.50383 -0.856608 0
M  V30 32728 H 3018.7 7.14728 -2.46374 0
M  V30 32729 H 3019.96 7.66913 -1.39519 0
M  V30 32730 N 3024.19 0.99344 1.22346 0
M  V30 32731 C 3025.12 0.564128 2.26583 0
M  V30 32732 C 3026.1 -0.409269 1.65103 0
M  V30 32733 O 3027.29 -0.299785 1.91872 0
M  V30 32734 C 3024.42 -0.121493 3.47087 0
M  V30 32735 C 3023.37 0.770503 4.21007 0
M  V30 32736 C 3022.7 -0.0480646 5.34678 0
M  V30 32737 C 3024 2.06761 4.79632 0
M  V30 32738 H 3025.69 1.43543 2.62747 0
M  V30 32739 H 3023.24 0.69165 1.26302 0
M  V30 32740 H 3025.19 -0.43323 4.19167 0
M  V30 32741 H 3023.92 -1.02734 3.10021 0
M  V30 32742 H 3022.57 1.06589 3.50763 0
M  V30 32743 H 3022.22 -0.954846 4.93854 0
M  V30 32744 H 3021.92 0.545744 5.8506 0
M  V30 32745 H 3023.45 -0.353884 6.09574 0
M  V30 32746 H 3024.86 1.81979 5.43651 0
M  V30 32747 H 3023.26 2.61029 5.40355 0
M  V30 32748 H 3024.33 2.74599 3.99654 0
M  V30 32749 N 3025.67 -1.37693 0.766707 0
M  V30 32750 C 3026.6 -2.32927 0.163473 0
M  V30 32751 C 3027.58 -1.55528 -0.688834 0
M  V30 32752 O 3028.77 -1.83788 -0.627331 0
M  V30 32753 C 3025.9 -3.39747 -0.720356 0
M  V30 32754 C 3024.85 -4.27989 0.0302471 0
M  V30 32755 C 3024.18 -5.25778 -0.972696 0
M  V30 32756 C 3025.48 -5.08178 1.20632 0
M  V30 32757 H 3027.17 -2.83624 0.959038 0
M  V30 32758 H 3024.72 -1.36366 0.462625 0
M  V30 32759 H 3026.67 -4.05344 -1.15214 0
M  V30 32760 H 3025.39 -2.87563 -1.54839 0
M  V30 32761 H 3024.05 -3.63917 0.442749 0
M  V30 32762 H 3023.7 -4.69876 -1.79514 0
M  V30 32763 H 3023.4 -5.85677 -0.475043 0
M  V30 32764 H 3024.92 -5.94251 -1.40352 0
M  V30 32765 H 3026.34 -5.66942 0.85144 0
M  V30 32766 H 3024.74 -5.77377 1.63572 0
M  V30 32767 H 3025.81 -4.41147 2.01288 0
M  V30 32768 N 3027.15 -0.516835 -1.48884 0
M  V30 32769 C 3028.08 0.242116 -2.32241 0
M  V30 32770 C 3029.06 0.947609 -1.4126 0
M  V30 32771 O 3030.24 0.935943 -1.70158 0
M  V30 32772 C 3027.37 1.29748 -3.22153 0
M  V30 32773 C 3026.33 0.710921 -4.22054 0
M  V30 32774 C 3025.65 1.86797 -5.0101 0
M  V30 32775 C 3026.95 -0.308622 -5.21387 0
M  V30 32776 H 3028.65 -0.453703 -2.95942 0
M  V30 32777 H 3026.19 -0.219637 -1.42315 0
M  V30 32778 H 3028.15 1.83627 -3.79288 0
M  V30 32779 H 3026.87 2.0227 -2.56426 0
M  V30 32780 H 3025.53 0.193755 -3.66088 0
M  V30 32781 H 3025.18 2.58126 -4.31718 0
M  V30 32782 H 3024.88 1.48149 -5.68617 0
M  V30 32783 H 3026.4 2.4108 -5.60993 0
M  V30 32784 H 3027.82 0.142603 -5.73123 0
M  V30 32785 H 3026.21 -0.611778 -5.96973 0
M  V30 32786 H 3027.28 -1.21902 -4.69327 0
M  V30 32787 N 3028.63 1.55583 -0.251365 0
M  V30 32788 C 3029.59 2.20285 0.633011 0
M  V30 32789 C 3030.59 1.17346 1.09939 0
M  V30 32790 O 3031.78 1.424 1.00338 0
M  V30 32791 C 3028.91 2.84997 1.87055 0
M  V30 32792 H 3030.1 2.99822 0.0684319 0
M  V30 32793 H 3027.66 1.563 -0.001844 0
M  V30 32794 H 3028.39 2.0941 2.47625 0
M  V30 32795 H 3028.18 3.60408 1.5443 0
M  V30 32796 H 3029.67 3.34501 2.49998 0
M  V30 32797 N 3030.1 -0.0216912 1.57585 0
M  V30 32798 C 3031.35 -0.710091 1.88787 0
M  V30 32799 C 3031.67 -1.76125 0.85085 0
M  V30 32800 O 3032.87 -2.50276 1.05235 0
M  V30 32801 C 3031.33 -1.31407 3.35052 0
M  V30 32802 C 3030.94 -0.29888 4.47002 0
M  V30 32803 C 3032.68 -1.98192 3.75393 0
M  V30 32804 C 3030.59 -0.911624 5.84332 0
M  V30 32805 H 3029.52 -0.268973 0.704393 0
M  V30 32806 H 3032.17 0.0352961 1.83466 0
M  V30 32807 H 3030.55 -2.10941 3.35141 0
M  V30 32808 H 3031.72 0.470284 4.58394 0
M  V30 32809 H 3030.04 0.267295 4.15541 0
M  V30 32810 H 3032.64 -2.44902 4.75318 0
M  V30 32811 H 3032.98 -2.80326 3.07771 0
M  V30 32812 H 3033.51 -1.25423 3.7751 0
M  V30 32813 H 3030.25 -0.129544 6.55372 0
M  V30 32814 H 3029.77 -1.65045 5.76646 0
M  V30 32815 H 3031.45 -1.41677 6.31298 0
M  V30 32816 N 3031.58 -1.54832 -0.294093 0
M  V30 32817 C 3032.52 -1.81153 -1.38776 0
M  V30 32818 C 3033.49 -0.66315 -1.48462 0
M  V30 32819 O 3034.68 -0.903864 -1.65416 0
M  V30 32820 C 3031.81 -1.9544 -2.76624 0
M  V30 32821 C 3030.85 -3.179 -2.84327 0
M  V30 32822 S 3031.68 -4.75797 -2.45718 0
M  V30 32823 C 3032.84 -4.9303 -3.8558 0
M  V30 32824 H 3033.07 -2.73633 -1.16241 0
M  V30 32825 H 3030.61 -1.46332 -0.492585 0
M  V30 32826 H 3032.56 -2.04357 -3.56017 0
M  V30 32827 H 3031.23 -1.03886 -2.96423 0
M  V30 32828 H 3030.42 -3.2472 -3.85452 0
M  V30 32829 H 3030.02 -3.07465 -2.12935 0
M  V30 32830 H 3032.31 -4.77477 -4.80648 0
M  V30 32831 H 3033.26 -5.95113 -3.83726 0
M  V30 32832 H 3033.66 -4.21137 -3.75904 0
M  V30 32833 N 3033.06 0.557619 -1.47405 0
M  V30 32834 C 3033.97 1.69213 -1.62494 0
M  V30 32835 C 3034.99 1.66426 -0.507793 0
M  V30 32836 O 3036.16 1.8588 -0.775273 0
M  V30 32837 C 3033.23 3.05718 -1.63516 0
M  V30 32838 C 3032.29 3.19575 -2.86653 0
M  V30 32839 C 3031.52 4.49569 -2.87617 0
M  V30 32840 O 3031.75 5.35003 -1.97808 0
M  V30 32841 O 3030.68 4.67208 -3.79474 0
M  V30 32842 H 3034.51 1.59426 -2.5849 0
M  V30 32843 H 3032.09 0.727578 -1.30486 0
M  V30 32844 H 3033.97 3.86953 -1.6687 0
M  V30 32845 H 3032.65 3.15888 -0.706868 0
M  V30 32846 H 3031.55 2.37739 -2.88844 0
M  V30 32847 H 3032.89 3.14309 -3.78775 0
M  V30 32848 N 3034.54 1.35531 0.804316 0
M  V30 32849 C 3035.76 1.3221 1.59798 0
M  V30 32850 C 3036.19 -0.0973896 1.87848 0
M  V30 32851 O 3035.55 -1.06489 1.4673 0
M  V30 32852 C 3035.6 2.13668 2.9048 0
M  V30 32853 O 3034.7 1.51895 3.83408 0
M  V30 32854 H 3034.04 0.453192 0.485297 0
M  V30 32855 H 3036.57 1.78604 0.998087 0
M  V30 32856 H 3036.58 2.25706 3.39884 0
M  V30 32857 H 3035.26 3.16863 2.69389 0
M  V30 32858 H 3033.83 1.4871 3.41964 0
M  V30 32859 N 3036.02 -1.02674 1.19565 0
M  V30 32860 C 3037.43 -1.2837 0.948327 0
M  V30 32861 C 3037.63 -1.97922 -0.378062 0
M  V30 32862 O 3036.69 -2.2684 -1.10906 0
M  V30 32863 C 3038 -2.12869 2.12384 0
M  V30 32864 C 3039.55 -2.2617 2.1637 0
M  V30 32865 C 3040.03 -3.14042 3.33379 0
M  V30 32866 N 3041.52 -3.2163 3.33329 0
M  V30 32867 C 3042.25 -3.89818 4.20511 0
M  V30 32868 N 3041.75 -4.60218 5.17853 0
M  V30 32869 N 3043.54 -3.86239 4.08382 0
M  V30 32870 H 3035.69 -0.559448 2.049 0
M  V30 32871 H 3037.95 -0.309469 0.896065 0
M  V30 32872 H 3037.66 -1.69089 3.08386 0
M  V30 32873 H 3037.53 -3.13587 2.09627 0
M  V30 32874 H 3039.92 -2.6918 1.20938 0
M  V30 32875 H 3040 -1.24996 2.23181 0
M  V30 32876 H 3039.65 -2.7174 4.29092 0
M  V30 32877 H 3039.58 -4.1528 3.23806 0
M  V30 32878 H 3042.07 -2.71494 2.62868 0
M  V30 32879 H 3042.38 -5.09885 5.80721 0
M  V30 32880 H 3040.73 -4.59076 5.21799 0
M  V30 32881 H 3043.92 -3.30381 3.31612 0
M  V30 32882 H 3044.09 -4.39106 4.7654 0
M  V30 32883 N 3037.5 -0.999914 -1.21817 0
M  V30 32884 C 3038.45 -0.527143 -2.21822 0
M  V30 32885 C 3039.43 0.408487 -1.55628 0
M  V30 32886 O 3040.62 0.234166 -1.75444 0
M  V30 32887 C 3037.75 0.149926 -3.42972 0
M  V30 32888 C 3036.84 -0.806423 -4.16362 0
M  V30 32889 N 3037.23 -1.95716 -4.664 0
M  V30 32890 C 3035.53 -0.623749 -4.41617 0
M  V30 32891 C 3036.23 -2.55799 -5.22438 0
M  V30 32892 N 3035.2 -1.84004 -5.11511 0
M  V30 32893 H 3039 -1.40468 -2.58159 0
M  V30 32894 H 3036.52 -0.863078 -1.37567 0
M  V30 32895 H 3038.52 0.506058 -4.13817 0
M  V30 32896 H 3037.18 1.02351 -3.08147 0
M  V30 32897 H 3038.19 -2.33771 -4.62138 0
M  V30 32898 H 3034.86 0.203183 -4.17005 0
M  V30 32899 H 3036.25 -3.5309 -5.71644 0
M  V30 32900 N 3038.97 1.37284 -0.773999 0
M  V30 32901 C 3040.25 1.93811 -0.263977 0
M  V30 32902 C 3040.63 1.70745 1.24135 0
M  V30 32903 O 3039.98 1.05753 2.02555 0
M  V30 32904 C 3040.19 3.43085 -0.639813 0
M  V30 32905 C 3041.54 4.20183 -0.61087 0
M  V30 32906 O 3042.56 3.51457 -0.57934 0
M  V30 32907 O 3041.42 5.4274 -0.639958 0
M  V30 32908 H 3038.51 0.824714 -0.0614476 0
M  V30 32909 H 3041.06 1.46558 -0.855503 0
M  V30 32910 H 3039.83 3.53466 -1.67862 0
M  V30 32911 H 3039.45 3.97594 -0.0213526 0
M  V30 32912 N 3040.45 0.524724 1.48608 0
M  V30 32913 C 3041.68 -0.00948494 2.07398 0
M  V30 32914 C 3042.1 -1.27882 1.37941 0
M  V30 32915 O 3041.46 -1.75788 0.443664 0
M  V30 32916 C 3041.51 -0.221893 3.59917 0
M  V30 32917 O 3040.61 -1.29169 3.91649 0
M  V30 32918 H 3039.95 0.0367845 0.66298 0
M  V30 32919 H 3042.48 0.731134 1.91091 0
M  V30 32920 H 3042.49 -0.446165 4.05553 0
M  V30 32921 H 3041.17 0.705378 4.09875 0
M  V30 32922 H 3039.74 -1.05049 3.57798 0
M  V30 32923 N 3041.93 -1.55447 0.259613 0
M  V30 32924 C 3042.84 -2.2556 -0.644986 0
M  V30 32925 C 3043.86 -1.27608 -1.18289 0
M  V30 32926 O 3045.03 -1.60512 -1.21647 0
M  V30 32927 C 3042.1 -2.95113 -1.81959 0
M  V30 32928 C 3041.16 -4.08506 -1.3199 0
M  V30 32929 C 3040.39 -4.74733 -2.43852 0
M  V30 32930 O 3040.61 -4.40094 -3.62868 0
M  V30 32931 O 3039.55 -5.62994 -2.12888 0
M  V30 32932 H 3043.37 -3.03601 -0.0774866 0
M  V30 32933 H 3040.96 -1.49374 0.0276121 0
M  V30 32934 H 3042.84 -3.38878 -2.50479 0
M  V30 32935 H 3041.52 -2.20001 -2.37447 0
M  V30 32936 H 3040.42 -3.69231 -0.601611 0
M  V30 32937 H 3041.76 -4.85473 -0.81096 0
M  V30 32938 N 3043.41 0.0133338 -1.57594 0
M  V30 32939 C 3044.36 1.02733 -2.08683 0
M  V30 32940 C 3045.35 1.36446 -1.00394 0
M  V30 32941 O 3046.56 1.35166 -1.1887 0
M  V30 32942 H 3042.93 0.348898 -0.666164 0
M  V30 32943 H 3044.9 0.570764 -2.92891 0
M  V30 32944 C 3043.65 2.31471 -2.59454 0
M  V30 32945 H 3042.97 2.06395 -3.42405 0
M  V30 32946 H 3044.41 3.0073 -2.98894 0
M  V30 32947 C 3042.87 3.0153 -1.50271 0
M  V30 32948 O 3043.4 3.91989 -0.877944 0
M  V30 32949 N 3041.61 2.63126 -1.2334 0
M  V30 32950 H 3041.16 1.89649 -1.7433 0
M  V30 32951 H 3041.11 3.10317 -0.505042 0
M  V30 32952 N 3044.89 1.54985 0.285878 0
M  V30 32953 C 3045.85 1.8622 1.33621 0
M  V30 32954 C 3046.85 0.735961 1.42969 0
M  V30 32955 O 3048.04 1.0042 1.42343 0
M  V30 32956 C 3045.17 2.056 2.71922 0
M  V30 32957 H 3046.36 2.801 1.07162 0
M  V30 32958 H 3043.92 1.47279 0.523309 0
M  V30 32959 H 3044.65 1.14058 3.03581 0
M  V30 32960 H 3044.44 2.87588 2.66525 0
M  V30 32961 H 3045.93 2.31083 3.47837 0
M  V30 32962 N 3046.36 -0.549794 1.47699 0
M  V30 32963 C 3047.27 -1.68349 1.63389 0
M  V30 32964 C 3048.29 -1.66154 0.516612 0
M  V30 32965 O 3049.47 -1.85467 0.78512 0
M  V30 32966 C 3046.53 -3.04846 1.65135 0
M  V30 32967 C 3045.59 -3.18051 2.88344 0
M  V30 32968 C 3044.83 -4.48037 2.89998 0
M  V30 32969 O 3045.05 -5.33946 2.00643 0
M  V30 32970 O 3043.98 -4.65189 3.81946 0
M  V30 32971 H 3047.81 -1.58053 2.59332 0
M  V30 32972 H 3045.39 -0.720647 1.3087 0
M  V30 32973 H 3047.28 -3.86062 1.6892 0
M  V30 32974 H 3045.95 -3.15508 0.72361 0
M  V30 32975 H 3044.86 -2.36204 2.90101 0
M  V30 32976 H 3046.19 -3.12296 3.80437 0
M  V30 32977 N 3047.84 -1.35955 -0.797117 0
M  V30 32978 C 3049.26 -1.162 -1.09406 0
M  V30 32979 C 3049.46 0.0191328 -2.01491 0
M  V30 32980 O 3048.51 0.68686 -2.42978 0
M  V30 32981 C 3049.83 -2.46934 -1.71593 0
M  V30 32982 C 3051.38 -2.53227 -1.8397 0
M  V30 32983 C 3051.85 -3.84028 -2.49573 0
M  V30 32984 N 3053.34 -3.85331 -2.57049 0
M  V30 32985 C 3054.08 -4.83274 -3.086 0
M  V30 32986 N 3053.57 -5.91608 -3.60517 0
M  V30 32987 N 3055.37 -4.70701 -3.07241 0
M  V30 32988 H 3047.52 -2.11591 -0.185172 0
M  V30 32989 H 3049.78 -0.936884 -0.144752 0
M  V30 32990 H 3049.49 -3.33592 -1.11398 0
M  V30 32991 H 3049.36 -2.62177 -2.71188 0
M  V30 32992 H 3051.75 -1.66992 -2.43306 0
M  V30 32993 H 3051.83 -2.4189 -0.832027 0
M  V30 32994 H 3051.47 -4.70665 -1.90884 0
M  V30 32995 H 3051.4 -3.92657 -3.50895 0
M  V30 32996 H 3053.89 -3.07061 -2.20277 0
M  V30 32997 H 3054.21 -6.62324 -3.9818 0
M  V30 32998 H 3052.55 -5.95287 -3.5869 0
M  V30 32999 H 3055.74 -3.85202 -2.65965 0
M  V30 33000 H 3055.91 -5.47192 -3.47109 0
M  V30 33001 N 3049.32 1.02038 -1.20108 0
M  V30 33002 C 3050.57 1.74983 -1.00319 0
M  V30 33003 C 3050.88 1.89973 0.46578 0
M  V30 33004 O 3052.09 2.59973 0.782703 0
M  V30 33005 C 3050.54 3.14703 -1.74614 0
M  V30 33006 C 3050.15 3.07738 -3.25579 0
M  V30 33007 C 3051.9 3.91884 -1.63179 0
M  V30 33008 C 3049.8 4.42442 -3.92427 0
M  V30 33009 H 3048.73 0.655992 -0.371739 0
M  V30 33010 H 3051.38 1.14129 -1.4369 0
M  V30 33011 H 3049.77 3.76076 -1.24027 0
M  V30 33012 H 3050.94 2.55695 -3.83349 0
M  V30 33013 H 3049.26 2.44051 -3.37384 0
M  V30 33014 H 3051.85 4.91536 -2.10466 0
M  V30 33015 H 3052.2 4.12136 -0.587352 0
M  V30 33016 H 3052.73 3.37131 -2.11158 0
M  V30 33017 H 3049.47 4.27394 -4.97006 0
M  V30 33018 H 3048.99 4.94507 -3.39445 0
M  V30 33019 H 3050.67 5.11299 -3.96462 0
M  V30 33020 N 3050.8 1.00636 1.21285 0
M  V30 33021 C 3051.73 0.588128 2.25972 0
M  V30 33022 C 3052.71 -0.391735 1.65528 0
M  V30 33023 O 3053.89 -0.279418 1.92179 0
M  V30 33024 C 3051.02 -0.0846726 3.47197 0
M  V30 33025 C 3049.98 0.815113 4.20167 0
M  V30 33026 C 3049.3 0.00864792 5.34699 0
M  V30 33027 C 3050.6 2.11836 4.77412 0
M  V30 33028 H 3052.3 1.46322 2.61209 0
M  V30 33029 H 3049.84 0.705007 1.25561 0
M  V30 33030 H 3051.8 -0.388747 4.19603 0
M  V30 33031 H 3050.52 -0.994401 3.11094 0
M  V30 33032 H 3049.18 1.10303 3.49612 0
M  V30 33033 H 3048.83 -0.902412 4.94839 0
M  V30 33034 H 3048.53 0.607767 5.84448 0
M  V30 33035 H 3050.05 -0.28921 6.09915 0
M  V30 33036 H 3051.47 1.87735 5.41691 0
M  V30 33037 H 3049.86 2.66745 5.37557 0
M  V30 33038 H 3050.93 2.78823 3.96719 0
M  V30 33039 N 3052.28 -1.36872 0.781268 0
M  V30 33040 C 3053.52 -1.99454 0.349924 0
M  V30 33041 C 3053.85 -1.62014 -1.07618 0
M  V30 33042 O 3053.11 -0.862611 -1.75663 0
M  V30 33043 C 3053.41 -3.54536 0.451522 0
M  V30 33044 C 3053.07 -4.11772 1.83725 0
M  V30 33045 C 3051.73 -4.27116 2.21642 0
M  V30 33046 C 3054.09 -4.43058 2.74498 0
M  V30 33047 C 3051.41 -4.71054 3.4975 0
M  V30 33048 C 3053.77 -4.88424 4.02026 0
M  V30 33049 C 3052.43 -5.01974 4.39975 0
M  V30 33050 H 3051.7 -0.729853 0.128046 0
M  V30 33051 H 3054.35 -1.63491 0.997145 0
M  V30 33052 H 3052.65 -3.90804 -0.27922 0
M  V30 33053 H 3054.35 -4.00878 0.0989314 0
M  V30 33054 H 3050.94 -4.00262 1.53258 0
M  V30 33055 H 3055.12 -4.30779 2.46461 0
M  V30 33056 H 3050.38 -4.79732 3.79035 0
M  V30 33057 H 3054.55 -5.11597 4.72484 0
M  V30 33058 H 3052.18 -5.35779 5.393 0
M  V30 33059 N 3053.75 -0.532597 -1.48328 0
M  V30 33060 C 3054.7 0.242093 -2.31337 0
M  V30 33061 C 3055.7 0.932981 -1.41392 0
M  V30 33062 O 3056.9 0.857068 -1.58286 0
M  V30 33063 H 3053.28 0.0969405 -0.745726 0
M  V30 33064 H 3055.25 -0.477556 -2.94554 0
M  V30 33065 C 3054 1.2744 -3.23503 0
M  V30 33066 H 3053.32 0.752192 -3.9266 0
M  V30 33067 H 3054.76 1.78782 -3.84465 0
M  V30 33068 C 3053.22 2.3094 -2.45292 0
M  V30 33069 O 3053.75 3.37425 -2.17961 0
M  V30 33070 N 3051.96 2.04222 -2.06741 0
M  V30 33071 H 3051.5 1.17643 -2.29168 0
M  V30 33072 H 3051.46 2.73693 -1.54723 0
M  V30 33073 N 3055.23 1.55307 -0.267853 0
M  V30 33074 C 3056.17 2.18328 0.663935 0
M  V30 33075 C 3057.14 1.14189 1.15757 0
M  V30 33076 O 3058.33 1.42679 1.23187 0
M  V30 33077 C 3055.45 2.80073 1.90465 0
M  V30 33078 C 3054.5 3.9745 1.54711 0
M  V30 33079 S 3055.33 5.31763 0.631561 0
M  V30 33080 C 3056.49 5.96973 1.88081 0
M  V30 33081 H 3056.72 2.97022 0.128434 0
M  V30 33082 H 3054.26 1.54312 -0.0521562 0
M  V30 33083 H 3056.21 3.16279 2.61683 0
M  V30 33084 H 3054.87 2.01286 2.41128 0
M  V30 33085 H 3054.07 4.39317 2.47014 0
M  V30 33086 H 3053.67 3.6263 0.91519 0
M  V30 33087 H 3055.96 6.15764 2.82562 0
M  V30 33088 H 3056.9 6.91916 1.50527 0
M  V30 33089 H 3057.31 5.26255 2.04244 0
M  V30 33090 N 3056.71 -0.00497598 1.57599 0
M  V30 33091 C 3058.13 -0.360988 1.55464 0
M  V30 33092 C 3058.33 -1.75101 0.997082 0
M  V30 33093 O 3057.38 -2.44548 0.628704 0
M  V30 33094 C 3058.7 -0.240775 2.99734 0
M  V30 33095 C 3060.24 -0.316083 3.114 0
M  V30 33096 C 3060.72 -0.22505 4.57447 0
M  V30 33097 N 3062.21 -0.283104 4.62334 0
M  V30 33098 C 3062.94 -0.23593 5.72914 0
M  V30 33099 N 3062.44 -0.139641 6.92659 0
M  V30 33100 N 3064.23 -0.28743 5.61365 0
M  V30 33101 H 3056.38 0.904393 1.92183 0
M  V30 33102 H 3058.65 0.346205 0.882522 0
M  V30 33103 H 3058.35 0.715404 3.44347 0
M  V30 33104 H 3058.23 -1.02485 3.63011 0
M  V30 33105 H 3060.61 -1.2627 2.6672 0
M  V30 33106 H 3060.7 0.497769 2.5091 0
M  V30 33107 H 3060.34 0.718006 5.02799 0
M  V30 33108 H 3060.27 -1.05732 5.15876 0
M  V30 33109 H 3062.76 -0.359057 3.7619 0
M  V30 33110 H 3063.07 -0.109404 7.72723 0
M  V30 33111 H 3061.42 -0.10534 6.9492 0
M  V30 33112 H 3064.61 -0.360815 4.66707 0
M  V30 33113 H 3064.78 -0.2472 6.47528 0
M  V30 33114 N 3058.19 -1.55135 -0.277654 0
M  V30 33115 C 3059.6 -1.66278 -0.849034 0
M  V30 33116 C 3059.95 -0.586733 -1.87221 0
M  V30 33117 O 3059.08 0.272597 -2.14676 0
M  V30 33118 C 3059.67 -3.01432 -1.54675 0
M  V30 33119 C 3058.23 -3.14617 -2.06623 0
M  V30 33120 C 3057.38 -2.62058 -0.906702 0
M  V30 33121 H 3060.33 -1.58608 -0.0541078 0
M  V30 33122 H 3060.35 -2.9416 -2.41351 0
M  V30 33123 H 3059.86 -3.79727 -0.801823 0
M  V30 33124 H 3057.96 -2.41087 -2.84091 0
M  V30 33125 H 3058.07 -4.21114 -2.28473 0
M  V30 33126 H 3056.44 -2.19097 -1.29879 0
M  V30 33127 H 3057.22 -3.42852 -0.175353 0
M  V30 33128 N 3059.67 0.541953 -1.47989 0
M  V30 33129 C 3061.08 0.869359 -1.33844 0
M  V30 33130 C 3061.28 1.98604 -0.340409 0
M  V30 33131 O 3060.34 2.51331 0.242652 0
M  V30 33132 C 3061.65 1.24818 -2.73571 0
M  V30 33133 C 3063.2 1.35875 -2.8197 0
M  V30 33134 C 3063.67 1.77106 -4.22371 0
M  V30 33135 N 3065.17 1.8423 -4.24987 0
M  V30 33136 C 3065.9 2.17493 -5.30551 0
M  V30 33137 N 3065.4 2.49264 -6.46405 0
M  V30 33138 N 3067.19 2.18397 -5.17937 0
M  V30 33139 H 3059.34 -0.195038 -2.11503 0
M  V30 33140 H 3061.6 -0.0246029 -0.947681 0
M  V30 33141 H 3061.31 0.501374 -3.48108 0
M  V30 33142 H 3061.18 2.201 -3.06326 0
M  V30 33143 H 3063.57 2.09635 -2.07695 0
M  V30 33144 H 3063.65 0.387434 -2.52849 0
M  V30 33145 H 3063.3 1.03911 -4.97157 0
M  V30 33146 H 3063.23 2.75267 -4.48927 0
M  V30 33147 H 3065.72 1.62003 -3.41414 0
M  V30 33148 H 3066.03 2.73716 -7.22703 0
M  V30 33149 H 3064.37 2.4681 -6.497 0
M  V30 33150 H 3067.57 1.93026 -4.26449 0
M  V30 33151 H 3067.74 2.4399 -6.00311 0
M  V30 33152 N 3061.15 1.36376 0.789896 0
M  V30 33153 C 3062.06 1.32815 1.93384 0
M  V30 33154 C 3063.07 0.230407 1.72468 0
M  V30 33155 O 3064.25 0.462691 1.96013 0
M  V30 33156 C 3061.31 1.11626 3.28238 0
M  V30 33157 C 3060.37 2.30871 3.61935 0
M  V30 33158 C 3059.61 2.10684 4.90355 0
M  V30 33159 O 3059.83 1.08178 5.60048 0
M  V30 33160 O 3058.76 2.98449 5.22697 0
M  V30 33161 H 3062.59 2.29125 1.99338 0
M  V30 33162 H 3060.17 1.16918 0.93008 0
M  V30 33163 H 3062.06 1.01726 4.08937 0
M  V30 33164 H 3060.73 0.183788 3.23178 0
M  V30 33165 H 3059.64 2.4634 2.81544 0
M  V30 33166 H 3060.97 3.22624 3.71719 0
M  V30 33167 N 3062.62 -1.014 1.20647 0
M  V30 33168 C 3063.55 -2.11866 0.981588 0
M  V30 33169 C 3064.53 -1.6986 -0.0903413 0
M  V30 33170 O 3065.72 -1.94082 0.0676927 0
M  V30 33171 C 3062.85 -3.43144 0.535696 0
M  V30 33172 C 3061.8 -3.98902 1.55116 0
M  V30 33173 C 3061.13 -5.25978 0.961817 0
M  V30 33174 C 3062.43 -4.31995 2.9356 0
M  V30 33175 H 3064.12 -2.30937 1.90548 0
M  V30 33176 H 3061.67 -1.1098 0.917573 0
M  V30 33177 H 3063.62 -4.19811 0.365586 0
M  V30 33178 H 3062.35 -3.23838 -0.423825 0
M  V30 33179 H 3061.01 -3.24345 1.70868 0
M  V30 33180 H 3060.65 -5.03 -0.00571266 0
M  V30 33181 H 3060.35 -5.64249 1.64003 0
M  V30 33182 H 3061.88 -6.05299 0.802832 0
M  V30 33183 H 3063.29 -4.99541 2.81304 0
M  V30 33184 H 3061.69 -4.81386 3.58312 0
M  V30 33185 H 3062.76 -3.40652 3.45086 0
M  V30 33186 N 3064.1 -1.01278 -1.2075 0
M  V30 33187 C 3065.35 -0.700958 -1.90301 0
M  V30 33188 C 3065.68 0.767111 -1.78407 0
M  V30 33189 O 3064.96 1.55691 -1.16578 0
M  V30 33190 C 3065.24 -1.13248 -3.41829 0
M  V30 33191 C 3065.09 -2.66058 -3.62675 0
M  V30 33192 C 3066.41 -0.700814 -4.34484 0
M  V30 33193 H 3063.53 -0.256119 -0.691066 0
M  V30 33194 H 3066.17 -1.25984 -1.42225 0
M  V30 33195 H 3064.32 -0.656969 -3.82905 0
M  V30 33196 H 3065.99 -3.21432 -3.30876 0
M  V30 33197 H 3064.24 -3.0721 -3.06276 0
M  V30 33198 H 3064.91 -2.91304 -4.68877 0
M  V30 33199 H 3067.38 -1.10955 -4.01034 0
M  V30 33200 H 3066.26 -1.03083 -5.39134 0
M  V30 33201 H 3066.52 0.397703 -4.40308 0
M  V30 33202 N 3065.58 1.36456 -0.788516 0
M  V30 33203 C 3066.86 1.9352 -0.284518 0
M  V30 33204 C 3067.24 1.72052 1.22317 0
M  V30 33205 O 3066.58 1.07895 2.01422 0
M  V30 33206 C 3066.79 3.42387 -0.676166 0
M  V30 33207 C 3068.14 4.19511 -0.655401 0
M  V30 33208 O 3069.17 3.50823 -0.616584 0
M  V30 33209 O 3068.03 5.42031 -0.697486 0
M  V30 33210 H 3065.12 0.824016 -0.0701914 0
M  V30 33211 H 3067.67 1.45642 -0.870999 0
M  V30 33212 H 3066.44 3.51665 -1.71602 0
M  V30 33213 H 3066.06 3.97549 -0.0635216 0
M  V30 33214 N 3067.06 0.540456 1.48043 0
M  V30 33215 C 3068.3 0.0102074 2.02797 0
M  V30 33216 C 3068.64 -1.32937 1.41568 0
M  V30 33217 O 3067.91 -1.86108 0.565172 0
M  V30 33218 C 3068.19 -0.100695 3.59959 0
M  V30 33219 C 3068.05 1.26479 4.31652 0
M  V30 33220 C 3069.37 -0.822379 4.32348 0
M  V30 33221 H 3066.49 0.00518347 0.736982 0
M  V30 33222 H 3069.13 0.699511 1.76655 0
M  V30 33223 H 3067.28 -0.687757 3.82364 0
M  V30 33224 H 3068.95 1.89377 4.20635 0
M  V30 33225 H 3067.19 1.84393 3.9266 0
M  V30 33226 H 3067.86 1.14008 5.40098 0
M  V30 33227 H 3070.34 -0.324091 4.14836 0
M  V30 33228 H 3069.22 -0.868898 5.41979 0
M  V30 33229 H 3069.48 -1.87494 4.00373 0
M  V30 33230 N 3068.54 -1.55163 0.276085 0
M  V30 33231 C 3069.47 -2.18677 -0.652347 0
M  V30 33232 C 3070.45 -1.14802 -1.15149 0
M  V30 33233 O 3071.63 -1.4333 -1.22428 0
M  V30 33234 C 3068.76 -2.81079 -1.88977 0
M  V30 33235 C 3067.8 -3.98265 -1.52602 0
M  V30 33236 S 3068.64 -5.3209 -0.603351 0
M  V30 33237 C 3069.79 -5.97962 -1.84913 0
M  V30 33238 H 3070.03 -2.97086 -0.112681 0
M  V30 33239 H 3067.56 -1.54282 0.060339 0
M  V30 33240 H 3069.52 -3.17662 -2.60002 0
M  V30 33241 H 3068.18 -2.02562 -2.40058 0
M  V30 33242 H 3067.37 -4.40621 -2.44681 0
M  V30 33243 H 3066.97 -3.6311 -0.895946 0
M  V30 33244 H 3069.26 -6.17254 -2.79292 0
M  V30 33245 H 3070.21 -6.92704 -1.46856 0
M  V30 33246 H 3070.62 -5.27331 -2.01451 0
M  V30 33247 N 3070.01 -0.00338196 -1.576 0
M  V30 33248 C 3070.96 0.986938 -2.08634 0
M  V30 33249 C 3071.93 1.33925 -0.982514 0
M  V30 33250 O 3073.12 1.43703 -1.25515 0
M  V30 33251 C 3070.26 2.27256 -2.59709 0
M  V30 33252 C 3069.37 1.97898 -3.84006 0
M  V30 33253 C 3068.5 3.20567 -4.23569 0
M  V30 33254 C 3067.54 2.8691 -5.40693 0
M  V30 33255 N 3066.68 4.02126 -5.75534 0
M  V30 33256 H 3071.52 0.544804 -2.92978 0
M  V30 33257 H 3069.06 0.25735 -1.44831 0
M  V30 33258 H 3071.01 3.02418 -2.87401 0
M  V30 33259 H 3069.64 2.69133 -1.78234 0
M  V30 33260 H 3068.7 1.13089 -3.63201 0
M  V30 33261 H 3070.01 1.69093 -4.69264 0
M  V30 33262 H 3069.16 4.04071 -4.52561 0
M  V30 33263 H 3067.9 3.52512 -3.37026 0
M  V30 33264 H 3066.91 2.01814 -5.11421 0
M  V30 33265 H 3068.13 2.56209 -6.28915 0
M  V30 33266 H 3066.08 4.33962 -4.91948 0
M  V30 33267 H 3065.99 3.76857 -6.55374 0
M  V30 33268 H 3067.26 4.8641 -6.09119 0
M  V30 33269 N 3071.49 1.5528 0.269423 0
M  V30 33270 C 3072.44 1.892 1.353 0
M  V30 33271 C 3073.43 0.768697 1.50955 0
M  V30 33272 O 3074.64 0.953081 1.52697 0
M  V30 33273 H 3071.01 0.600562 0.45258 0
M  V30 33274 H 3072.99 2.79711 1.03944 0
M  V30 33275 C 3071.73 2.1836 2.70581 0
M  V30 33276 H 3071.06 3.04286 2.59327 0
M  V30 33277 H 3072.5 2.46013 3.45331 0
M  V30 33278 C 3070.96 0.992384 3.21952 0
M  V30 33279 O 3071.49 0.228839 4.01048 0
M  V30 33280 N 3069.69 0.789111 2.79681 0
M  V30 33281 H 3069.24 1.41171 2.15473 0
M  V30 33282 H 3069.2 -0.00629249 3.14399 0
M  V30 33283 N 3072.97 -0.534097 1.48274 0
M  V30 33284 C 3073.93 -1.62124 1.62013 0
M  V30 33285 C 3074.93 -1.53034 0.49368 0
M  V30 33286 O 3076.12 -1.56778 0.759364 0
M  V30 33287 C 3073.25 -3.01736 1.58645 0
M  V30 33288 H 3074.45 -1.51284 2.58946 0
M  V30 33289 H 3072 -0.755837 1.36809 0
M  V30 33290 H 3072.74 -3.18087 0.631741 0
M  V30 33291 H 3072.52 -3.09743 2.4042 0
M  V30 33292 H 3074.01 -3.80784 1.71445 0
M  V30 33293 N 3074.45 -1.36793 -0.782652 0
M  V30 33294 C 3075.68 -1.34373 -1.56932 0
M  V30 33295 C 3076.09 0.0754496 -1.8905 0
M  V30 33296 O 3075.43 1.04465 -1.51105 0
M  V30 33297 C 3075.49 -2.10666 -2.91307 0
M  V30 33298 C 3075.15 -3.5971 -2.81883 0
M  V30 33299 C 3076.15 -4.5382 -2.5366 0
M  V30 33300 C 3073.84 -4.02687 -3.00247 0
M  V30 33301 C 3075.83 -5.88884 -2.43914 0
M  V30 33302 C 3073.52 -5.3784 -2.90122 0
M  V30 33303 C 3074.52 -6.30752 -2.61995 0
M  V30 33304 O 3074.2 -7.63422 -2.51876 0
M  V30 33305 H 3073.94 -0.462324 -0.493186 0
M  V30 33306 H 3076.49 -1.80581 -0.978759 0
M  V30 33307 H 3074.72 -1.59131 -3.5244 0
M  V30 33308 H 3076.41 -2.01018 -3.52628 0
M  V30 33309 H 3077.17 -4.21928 -2.39169 0
M  V30 33310 H 3073.05 -3.30737 -3.21145 0
M  V30 33311 H 3076.6 -6.61373 -2.2188 0
M  V30 33312 H 3072.49 -5.69338 -3.04179 0
M  V30 33313 H 3073.26 -7.73621 -2.67307 0
M  V30 33314 N 3075.93 1.00759 -1.21184 0
M  V30 33315 C 3076.87 2.11603 -0.965766 0
M  V30 33316 C 3077.87 1.69181 0.0860731 0
M  V30 33317 O 3079.07 1.79882 -0.0650874 0
M  V30 33318 H 3075.45 0.691707 -0.295035 0
M  V30 33319 H 3077.42 2.29537 -1.90671 0
M  V30 33320 C 3076.17 3.43414 -0.544225 0
M  V30 33321 H 3075.49 3.76489 -1.34521 0
M  V30 33322 H 3076.93 4.22 -0.411342 0
M  V30 33323 C 3075.39 3.2857 0.744525 0
M  V30 33324 O 3075.92 3.59078 1.80071 0
M  V30 33325 N 3074.13 2.81792 0.710034 0
M  V30 33326 H 3073.67 2.57164 -0.149755 0
M  V30 33327 H 3073.63 2.72242 1.57264 0
M  V30 33328 N 3077.4 1.01917 1.20211 0
M  V30 33329 C 3078.34 0.549764 2.22509 0
M  V30 33330 C 3079.35 -0.369207 1.58558 0
M  V30 33331 O 3080.54 -0.167145 1.77716 0
M  V30 33332 C 3077.64 -0.219373 3.38189 0
M  V30 33333 C 3076.81 0.702142 4.31728 0
M  V30 33334 C 3075.87 -0.0198699 5.26196 0
M  V30 33335 O 3074.9 0.60349 5.65992 0
M  V30 33336 N 3076.1 -1.29387 5.65897 0
M  V30 33337 H 3078.86 1.42953 2.63409 0
M  V30 33338 H 3076.42 0.89701 1.34779 0
M  V30 33339 H 3078.42 -0.711693 3.98393 0
M  V30 33340 H 3076.99 -1.00046 2.96158 0
M  V30 33341 H 3076.21 1.37472 3.69452 0
M  V30 33342 H 3077.49 1.32878 4.91142 0
M  V30 33343 H 3076.89 -1.82121 5.35582 0
M  V30 33344 H 3075.45 -1.73087 6.28398 0
M  V30 33345 N 3078.88 -1.36036 0.795742 0
M  V30 33346 C 3080.13 -1.98678 0.370326 0
M  V30 33347 C 3080.45 -1.6346 -1.06329 0
M  V30 33348 O 3079.72 -0.911701 -1.73392 0
M  V30 33349 H 3078.3 -0.734894 0.133941 0
M  V30 33350 H 3080.96 -1.66128 1.01918 0
M  V30 33351 H 3080.06 -3.08582 0.467261 0
M  V30 33352 N 3080.36 -0.5483 -1.47755 0
M  V30 33353 C 3081.29 0.192799 -2.32703 0
M  V30 33354 C 3082.27 0.917432 -1.43238 0
M  V30 33355 O 3083.46 0.899639 -1.72105 0
M  V30 33356 C 3080.59 1.22885 -3.24833 0
M  V30 33357 C 3079.54 0.621237 -4.23467 0
M  V30 33358 C 3078.87 1.76128 -5.04859 0
M  V30 33359 C 3080.17 -0.419146 -5.20615 0
M  V30 33360 H 3081.86 -0.516375 -2.94913 0
M  V30 33361 H 3079.41 -0.249775 -1.41817 0
M  V30 33362 H 3081.36 1.7554 -3.83097 0
M  V30 33363 H 3080.08 1.96785 -2.60659 0
M  V30 33364 H 3078.74 0.116059 -3.66416 0
M  V30 33365 H 3078.39 2.4891 -4.37096 0
M  V30 33366 H 3078.09 1.36055 -5.71632 0
M  V30 33367 H 3079.61 2.29126 -5.6598 0
M  V30 33368 H 3081.03 0.0210026 -5.73296 0
M  V30 33369 H 3079.43 -0.738267 -5.95541 0
M  V30 33370 H 3080.5 -1.3183 -4.66636 0
M  V30 33371 N 3081.84 1.55014 -0.28431 0
M  V30 33372 C 3082.75 2.26557 0.60902 0
M  V30 33373 C 3083.76 1.29474 1.16244 0
M  V30 33374 O 3084.94 1.62427 1.19078 0
M  V30 33375 C 3082.01 2.97971 1.77241 0
M  V30 33376 C 3081.07 4.10554 1.25475 0
M  V30 33377 C 3080.3 4.78553 2.36269 0
M  V30 33378 O 3080.52 4.45811 3.55821 0
M  V30 33379 O 3079.46 5.6631 2.03904 0
M  V30 33380 H 3083.28 3.03686 0.0291764 0
M  V30 33381 H 3080.87 1.49312 -0.0513728 0
M  V30 33382 H 3082.75 3.4282 2.45056 0
M  V30 33383 H 3081.42 2.23751 2.33917 0
M  V30 33384 H 3080.33 3.70141 0.542794 0
M  V30 33385 H 3081.66 4.86702 0.733623 0
M  V30 33386 N 3083.32 0.0117398 1.57596 0
M  V30 33387 C 3084.56 -0.674997 1.92933 0
M  V30 33388 C 3084.92 -1.70281 0.887034 0
M  V30 33389 O 3086.12 -2.44078 1.12603 0
M  V30 33390 C 3084.39 -1.29092 3.33272 0
M  V30 33391 S 3085.95 -2.00114 3.90512 0
M  V30 33392 H 3082.77 -0.222679 0.67523 0
M  V30 33393 H 3085.37 0.0712424 1.9537 0
M  V30 33394 H 3084.08 -0.530191 4.06961 0
M  V30 33395 H 3083.61 -2.07484 3.34237 0
M  V30 33396 H 3085.62 -3.27765 3.72538 0
M  V30 33397 N 3084.79 -1.55421 -0.261185 0
M  V30 33398 C 3086.07 -1.67314 -1.01318 0
M  V30 33399 C 3086.45 -0.547391 -2.03879 0
M  V30 33400 O 3085.8 0.451044 -2.24004 0
M  V30 33401 C 3086.01 -3.07027 -1.65938 0
M  V30 33402 C 3087.36 -3.65163 -2.16659 0
M  V30 33403 O 3088.38 -3.09736 -1.75904 0
M  V30 33404 O 3087.24 -4.62299 -2.91447 0
M  V30 33405 H 3084.33 -0.679977 -0.470703 0
M  V30 33406 H 3086.88 -1.67756 -0.256104 0
M  V30 33407 H 3085.65 -3.80408 -0.916801 0
M  V30 33408 H 3085.28 -3.10535 -2.48302 0
M  V30 33409 N 3086.27 0.526227 -1.48555 0
M  V30 33410 C 3087.22 1.62671 -1.59756 0
M  V30 33411 C 3088.21 1.54348 -0.454479 0
M  V30 33412 O 3089.4 1.62305 -0.70612 0
M  V30 33413 C 3086.53 3.0138 -1.64393 0
M  V30 33414 C 3085.61 3.14793 -2.84194 0
M  V30 33415 N 3086 2.98168 -4.0857 0
M  V30 33416 C 3084.3 3.45854 -2.81605 0
M  V30 33417 C 3085 3.15097 -4.88967 0
M  V30 33418 N 3083.98 3.42841 -4.21854 0
M  V30 33419 H 3087.78 1.48434 -2.53662 0
M  V30 33420 H 3085.3 0.731776 -1.44979 0
M  V30 33421 H 3087.29 3.80436 -1.70512 0
M  V30 33422 H 3085.95 3.16706 -0.716062 0
M  V30 33423 H 3086.96 2.74855 -4.38948 0
M  V30 33424 H 3083.64 3.67514 -1.9809 0
M  V30 33425 H 3085.03 3.0695 -5.97688 0
M  V30 33426 N 3087.75 1.37206 0.775387 0
M  V30 33427 C 3089 1.31952 1.53078 0
M  V30 33428 C 3089.32 -0.0966521 1.9476 0
M  V30 33429 O 3088.59 -1.03991 1.6602 0
M  V30 33430 H 3087.17 0.485454 0.567753 0
M  V30 33431 H 3089.83 1.71655 0.92306 0
M  V30 33432 H 3088.93 1.95618 2.43187 0
M  V30 33433 N 3089.23 -1.00115 1.21716 0
M  V30 33434 C 3090.51 -1.71234 0.945421 0
M  V30 33435 C 3090.89 -2.0403 -0.541736 0
M  V30 33436 O 3090.23 -1.71708 -1.5076 0
M  V30 33437 C 3090.44 -2.96896 1.83449 0
M  V30 33438 C 3091.79 -3.69846 2.08565 0
M  V30 33439 O 3092.82 -3.06886 1.8083 0
M  V30 33440 O 3091.67 -4.831 2.55494 0
M  V30 33441 H 3088.77 -0.747003 0.354847 0
M  V30 33442 H 3091.31 -1.05823 1.32663 0
M  V30 33443 H 3090.09 -2.691 2.84079 0
M  V30 33444 H 3089.71 -3.70047 1.45434 0
M  V30 33445 N 3090.71 -1.02553 -1.19669 0
M  V30 33446 C 3091.98 -0.634804 -1.85012 0
M  V30 33447 C 3092.36 0.886673 -1.91576 0
M  V30 33448 O 3091.71 1.78202 -1.43025 0
M  V30 33449 C 3091.92 -1.29298 -3.24165 0
M  V30 33450 C 3093.27 -1.41409 -4.00361 0
M  V30 33451 O 3094.29 -1.24989 -3.33551 0
M  V30 33452 O 3093.15 -1.68029 -5.20027 0
M  V30 33453 H 3090.25 -0.22021 -0.797143 0
M  V30 33454 H 3092.79 -1.12347 -1.27186 0
M  V30 33455 H 3091.57 -2.3322 -3.14204 0
M  V30 33456 H 3091.19 -0.791963 -3.89633 0
M  V30 33457 N 3092.19 1.35612 -0.802945 0
M  V30 33458 C 3093.1 2.33638 -0.212218 0
M  V30 33459 C 3094.11 1.6169 0.642842 0
M  V30 33460 O 3095.29 1.93589 0.555451 0
M  V30 33461 C 3092.35 3.40885 0.632346 0
M  V30 33462 C 3091.41 4.28613 -0.242783 0
M  V30 33463 C 3090.65 5.30737 0.561567 0
M  V30 33464 O 3090.87 5.41369 1.79654 0
M  V30 33465 O 3089.8 6.01883 -0.0456445 0
M  V30 33466 H 3093.63 2.8595 -1.02305 0
M  V30 33467 H 3091.21 1.38318 -0.564661 0
M  V30 33468 H 3093.1 4.06422 1.11351 0
M  V30 33469 H 3091.77 2.9085 1.42084 0
M  V30 33470 H 3090.68 3.66069 -0.771005 0
M  V30 33471 H 3092.01 4.82035 -0.99513 0
M  V30 33472 N 3093.66 0.556128 1.47462 0
M  V30 33473 C 3094.91 0.0316067 2.02075 0
M  V30 33474 C 3095.23 -1.32256 1.43295 0
M  V30 33475 O 3094.5 -1.86235 0.607743 0
M  V30 33476 H 3093.08 0.00869473 0.746949 0
M  V30 33477 H 3095.74 0.725891 1.80878 0
M  V30 33478 H 3094.84 -0.057299 3.12047 0
M  V30 33479 N 3095.14 -1.54861 0.292527 0
M  V30 33480 C 3096.39 -1.99573 -0.318598 0
M  V30 33481 C 3096.71 -1.18243 -1.5506 0
M  V30 33482 O 3095.98 -0.27626 -1.93942 0
M  V30 33483 H 3094.56 -0.737183 -0.120709 0
M  V30 33484 H 3097.22 -1.90711 0.401896 0
M  V30 33485 H 3096.32 -3.06347 -0.596488 0
M  V30 33486 N 3096.62 -0.0200973 -1.57587 0
M  V30 33487 C 3097.9 0.698645 -1.82697 0
M  V30 33488 C 3098.28 1.90854 -0.902115 0
M  V30 33489 O 3097.62 2.28457 0.0444432 0
M  V30 33490 C 3097.83 1.0854 -3.31693 0
M  V30 33491 C 3099.18 1.48083 -3.9794 0
M  V30 33492 O 3100.21 1.17863 -3.36135 0
M  V30 33493 O 3099.07 2.04355 -5.06854 0
M  V30 33494 H 3096.16 0.341929 -0.753003 0
M  V30 33495 H 3098.71 -0.0470899 -1.69635 0
M  V30 33496 H 3097.48 0.223887 -3.90659 0
M  V30 33497 H 3097.1 1.88959 -3.49829 0
M  V30 33498 N 3098.1 1.55557 0.252939 0
M  V30 33499 C 3099.37 1.67849 1.00429 0
M  V30 33500 C 3099.75 0.558196 2.03586 0
M  V30 33501 O 3099.1 -0.439158 2.2424 0
M  V30 33502 C 3099.31 3.07903 1.64307 0
M  V30 33503 C 3100.66 3.66307 2.1472 0
M  V30 33504 O 3101.68 3.10664 1.74259 0
M  V30 33505 O 3100.54 4.63838 2.88992 0
M  V30 33506 H 3097.64 0.682463 0.46709 0
M  V30 33507 H 3100.18 1.6789 0.247204 0
M  V30 33508 H 3098.96 3.80889 0.896614 0
M  V30 33509 H 3098.58 3.11847 2.46652 0
M  V30 33510 N 3099.58 -0.518341 1.48832 0
M  V30 33511 C 3100.82 -1.271 1.5713 0
M  V30 33512 C 3101.14 -1.93363 0.252132 0
M  V30 33513 O 3100.41 -1.81901 -0.727249 0
M  V30 33514 H 3098.99 -0.472106 0.5789 0
M  V30 33515 H 3101.66 -0.602229 1.85362 0
M  V30 33516 H 3100.75 -2.04414 2.35842 0
M  V30 33517 N 3101.05 -1.37615 -0.7681 0
M  V30 33518 C 3102.3 -1.33222 -1.52904 0
M  V30 33519 C 3102.63 0.0820876 -1.94026 0
M  V30 33520 O 3101.91 1.0402 -1.64347 0
M  V30 33521 C 3102.19 -2.27468 -2.7916 0
M  V30 33522 C 3102.04 -3.77694 -2.44269 0
M  V30 33523 C 3103.36 -2.20095 -3.81112 0
M  V30 33524 H 3100.48 -0.485256 -0.554703 0
M  V30 33525 H 3103.12 -1.68346 -0.880882 0
M  V30 33526 H 3101.27 -1.97645 -3.34468 0
M  V30 33527 H 3102.95 -4.18129 -1.94848 0
M  V30 33528 H 3101.19 -3.96084 -1.76918 0
M  V30 33529 H 3101.86 -4.39078 -3.34537 0
M  V30 33530 H 3104.34 -2.46391 -3.35307 0
M  V30 33531 H 3103.21 -2.88174 -4.67169 0
M  V30 33532 H 3103.47 -1.19505 -4.25642 0
M  V30 33533 N 3102.53 0.994677 -1.22245 0
M  V30 33534 C 3103.76 1.77485 -1.07302 0
M  V30 33535 C 3104.18 1.84379 0.37227 0
M  V30 33536 O 3103.54 1.29496 1.26888 0
M  V30 33537 C 3103.59 3.18715 -1.6868 0
M  V30 33538 O 3102.69 4.01561 -0.939272 0
M  V30 33539 H 3102.03 0.546604 -0.376988 0
M  V30 33540 H 3104.56 1.24962 -1.62005 0
M  V30 33541 H 3104.57 3.69351 -1.73331 0
M  V30 33542 H 3103.25 3.13012 -2.73855 0
M  V30 33543 H 3101.82 3.60099 -0.968647 0
M  V30 33544 N 3104.01 1.03186 1.19123 0
M  V30 33545 C 3105.42 0.759294 1.70563 0
M  V30 33546 C 3105.77 -0.720761 1.82481 0
M  V30 33547 O 3104.9 -1.56163 1.49807 0
M  V30 33548 C 3105.49 1.37168 3.09791 0
M  V30 33549 C 3104.05 1.14763 3.58478 0
M  V30 33550 C 3103.2 1.46788 2.35263 0
M  V30 33551 H 3106.15 1.19941 1.03923 0
M  V30 33552 H 3106.17 0.770215 3.72623 0
M  V30 33553 H 3105.68 2.44888 3.01084 0
M  V30 33554 H 3103.78 0.0887837 3.72494 0
M  V30 33555 H 3103.9 1.83844 4.42423 0
M  V30 33556 H 3102.26 0.887296 2.38745 0
M  V30 33557 H 3103.04 2.55597 2.29183 0
M  V30 33558 N 3105.49 -1.35184 0.810125 0
M  V30 33559 C 3106.44 -2.2974 0.220968 0
M  V30 33560 C 3107.41 -1.52981 -0.646997 0
M  V30 33561 O 3108.59 -1.81405 -0.591335 0
M  V30 33562 C 3105.73 -3.39455 -0.62161 0
M  V30 33563 C 3104.84 -4.31173 0.26718 0
M  V30 33564 C 3103.98 -5.27983 -0.58374 0
M  V30 33565 C 3103.02 -6.11338 0.30523 0
M  V30 33566 N 3102.15 -7.00275 -0.505868 0
M  V30 33567 H 3106.99 -2.79534 1.03271 0
M  V30 33568 H 3104.53 -1.37572 0.520792 0
M  V30 33569 H 3106.49 -4.01737 -1.12532 0
M  V30 33570 H 3105.12 -2.90929 -1.39858 0
M  V30 33571 H 3104.17 -3.69866 0.889015 0
M  V30 33572 H 3105.48 -4.89645 0.951268 0
M  V30 33573 H 3104.64 -5.95654 -1.15244 0
M  V30 33574 H 3103.38 -4.70016 -1.30138 0
M  V30 33575 H 3102.38 -5.42611 0.886171 0
M  V30 33576 H 3103.61 -6.71384 1.02079 0
M  V30 33577 H 3101.55 -6.44793 -1.20742 0
M  V30 33578 H 3101.47 -7.55905 0.120099 0
M  V30 33579 H 3102.74 -7.7229 -1.05773 0
M  V30 33580 N 3106.97 -0.56394 -1.47165 0
M  V30 33581 C 3108.24 0.0235828 -1.95586 0
M  V30 33582 C 3108.62 1.47869 -1.50658 0
M  V30 33583 O 3107.97 2.15892 -0.748517 0
M  V30 33584 C 3108.18 -0.128902 -3.48762 0
M  V30 33585 C 3109.53 0.0129797 -4.24598 0
M  V30 33586 O 3110.55 -0.0567868 -3.56155 0
M  V30 33587 O 3109.41 0.164236 -5.46253 0
M  V30 33588 H 3106.51 0.0603644 -0.824794 0
M  V30 33589 H 3109.05 -0.630938 -1.57535 0
M  V30 33590 H 3107.82 -1.1412 -3.74289 0
M  V30 33591 H 3107.45 0.562921 -3.93595 0
M  V30 33592 N 3108.44 1.54704 -0.300735 0
M  V30 33593 C 3109.69 2.00431 0.309076 0
M  V30 33594 C 3110.02 1.18882 1.5356 0
M  V30 33595 O 3109.3 0.265239 1.92683 0
M  V30 33596 C 3109.58 3.53889 0.665933 0
M  V30 33597 C 3109.43 4.46177 -0.569709 0
M  V30 33598 C 3110.75 4.14018 1.49255 0
M  V30 33599 H 3107.87 0.728614 0.110865 0
M  V30 33600 H 3110.51 1.85462 -0.412781 0
M  V30 33601 H 3108.66 3.66775 1.28094 0
M  V30 33602 H 3110.34 4.45197 -1.20818 0
M  V30 33603 H 3108.58 4.16786 -1.203 0
M  V30 33604 H 3109.25 5.5131 -0.275882 0
M  V30 33605 H 3111.73 4.04566 0.972908 0
M  V30 33606 H 3110.6 5.21551 1.71102 0
M  V30 33607 H 3110.86 3.65876 2.48167 0
M  V30 33608 N 3109.92 0.0284543 1.57574 0
M  V30 33609 C 3111.17 -0.649046 1.91394 0
M  V30 33610 C 3111.49 -1.72706 0.905399 0
M  V30 33611 O 3110.76 -1.95828 -0.0531763 0
M  V30 33612 H 3109.34 -0.242727 0.706465 0
M  V30 33613 H 3112 0.0761002 1.94751 0
M  V30 33614 H 3111.1 -1.10221 2.91989 0
M  V30 33615 N 3111.4 -1.55689 -0.244686 0
M  V30 33616 C 3112.35 -1.86894 -1.30593 0
M  V30 33617 C 3113.33 -0.729997 -1.43387 0
M  V30 33618 O 3114.53 -0.991966 -1.46591 0
M  V30 33619 C 3111.66 -2.16906 -2.66095 0
M  V30 33620 C 3110.74 -3.37134 -2.57297 0
M  V30 33621 N 3111.13 -4.56347 -2.18131 0
M  V30 33622 C 3109.43 -3.40288 -2.88305 0
M  V30 33623 C 3110.13 -5.38485 -2.20019 0
M  V30 33624 N 3109.11 -4.77603 -2.59608 0
M  V30 33625 H 3112.91 -2.76593 -0.99365 0
M  V30 33626 H 3110.42 -1.55945 -0.453307 0
M  V30 33627 H 3112.42 -2.37428 -3.42686 0
M  V30 33628 H 3111.08 -1.28507 -2.98188 0
M  V30 33629 H 3112.09 -4.81931 -1.89639 0
M  V30 33630 H 3108.77 -2.62167 -3.24923 0
M  V30 33631 H 3110.16 -6.43866 -1.92059 0
M  V30 33632 N 3112.88 0.510441 -1.49105 0
M  V30 33633 C 3113.83 1.63389 -1.6555 0
M  V30 33634 C 3114.82 1.61171 -0.52155 0
M  V30 33635 O 3116.03 1.65793 -0.700894 0
M  V30 33636 H 3112.4 0.541455 -0.521853 0
M  V30 33637 H 3114.37 1.46669 -2.59867 0
M  V30 33638 C 3113.12 3.01574 -1.73056 0
M  V30 33639 H 3112.44 3.03983 -2.59682 0
M  V30 33640 H 3113.88 3.79744 -1.886 0
M  V30 33641 C 3112.34 3.33558 -0.473339 0
M  V30 33642 O 3112.87 3.99651 0.405169 0
M  V30 33643 N 3111.08 2.88614 -0.339125 0
M  V30 33644 H 3110.63 2.35005 -1.05501 0
M  V30 33645 H 3110.58 3.10382 0.501006 0
M  V30 33646 N 3114.36 1.38021 0.760791 0
M  V30 33647 C 3115.61 1.33153 1.51503 0
M  V30 33648 C 3115.92 -0.078178 1.95444 0
M  V30 33649 O 3117.12 -0.249371 2.70352 0
M  V30 33650 C 3115.58 2.33781 2.73632 0
M  V30 33651 C 3115.19 3.80336 2.36746 0
M  V30 33652 C 3116.93 2.37943 3.51544 0
M  V30 33653 C 3114.84 4.72667 3.55443 0
M  V30 33654 H 3113.77 0.494917 0.568835 0
M  V30 33655 H 3116.42 1.63538 0.832314 0
M  V30 33656 H 3114.8 1.96428 3.43849 0
M  V30 33657 H 3115.98 4.26587 1.74242 0
M  V30 33658 H 3114.29 3.79223 1.71984 0
M  V30 33659 H 3116.89 3.04126 4.39785 0
M  V30 33660 H 3117.23 1.39624 3.92187 0
M  V30 33661 H 3117.76 2.74059 2.88334 0
M  V30 33662 H 3114.5 5.72156 3.19872 0
M  V30 33663 H 3114.02 4.31114 4.17014 0
M  V30 33664 H 3115.7 4.90333 4.22117 0
M  V30 33665 N 3115.83 -0.98818 1.22771 0
M  V30 33666 C 3117.06 -1.76123 1.08001 0
M  V30 33667 C 3117.47 -1.85506 -0.37203 0
M  V30 33668 O 3116.82 -1.32782 -1.26943 0
M  V30 33669 C 3116.88 -3.20831 1.62196 0
M  V30 33670 C 3116.54 -3.3498 3.10865 0
M  V30 33671 C 3117.54 -3.2192 4.08244 0
M  V30 33672 C 3115.22 -3.59879 3.50417 0
M  V30 33673 C 3117.22 -3.33551 5.43159 0
M  V30 33674 C 3114.9 -3.71151 4.85479 0
M  V30 33675 C 3115.9 -3.57996 5.8166 0
M  V30 33676 O 3115.59 -3.68883 7.14269 0
M  V30 33677 H 3115.32 -0.559799 0.378947 0
M  V30 33678 H 3117.88 -1.25076 1.62927 0
M  V30 33679 H 3116.11 -3.73092 1.01682 0
M  V30 33680 H 3117.8 -3.79869 1.43017 0
M  V30 33681 H 3118.56 -3.0259 3.79031 0
M  V30 33682 H 3114.44 -3.69193 2.76075 0
M  V30 33683 H 3117.98 -3.232 6.18213 0
M  V30 33684 H 3113.88 -3.89989 5.14372 0
M  V30 33685 H 3114.65 -3.85726 7.21912 0
M  V30 33686 N 3117.31 -1.03816 -1.18575 0
M  V30 33687 C 3118.56 -0.735268 -1.87821 0
M  V30 33688 C 3118.87 0.739787 -1.8107 0
M  V30 33689 O 3120.08 1.1561 -2.45656 0
M  V30 33690 C 3118.54 -1.26492 -3.36939 0
M  V30 33691 C 3118.14 -2.76842 -3.52225 0
M  V30 33692 C 3119.89 -1.03844 -4.11603 0
M  V30 33693 C 3117.8 -3.23178 -4.95288 0
M  V30 33694 H 3116.73 -0.271346 -0.703482 0
M  V30 33695 H 3119.38 -1.25367 -1.33998 0
M  V30 33696 H 3117.76 -0.674386 -3.90215 0
M  V30 33697 H 3118.93 -3.41631 -3.09233 0
M  V30 33698 H 3117.25 -2.97874 -2.90964 0
M  V30 33699 H 3119.84 -1.35979 -5.17121 0
M  V30 33700 H 3120.19 0.0244213 -4.16293 0
M  V30 33701 H 3120.72 -1.59345 -3.64492 0
M  V30 33702 H 3117.46 -4.28833 -4.95765 0
M  V30 33703 H 3116.98 -2.63123 -5.39005 0
M  V30 33704 H 3118.66 -3.17055 -5.6399 0
M  V30 33705 N 3118.79 1.34753 -0.817283 0
M  V30 33706 C 3119.72 2.3216 -0.24981 0
M  V30 33707 C 3120.7 1.57978 0.630636 0
M  V30 33708 O 3121.89 1.8599 0.558687 0
M  V30 33709 C 3119.02 3.42187 0.593765 0
M  V30 33710 C 3117.97 4.27582 -0.189072 0
M  V30 33711 C 3117.3 5.29026 0.776886 0
M  V30 33712 C 3118.6 5.03351 -1.39409 0
M  V30 33713 H 3120.29 2.7987 -1.06364 0
M  V30 33714 H 3117.84 1.34555 -0.512917 0
M  V30 33715 H 3119.79 4.09341 1.0009 0
M  V30 33716 H 3118.51 2.93112 1.44059 0
M  V30 33717 H 3117.17 3.62023 -0.577509 0
M  V30 33718 H 3116.82 4.76215 1.61951 0
M  V30 33719 H 3116.52 5.87036 0.257345 0
M  V30 33720 H 3118.04 5.9905 1.182 0
M  V30 33721 H 3119.46 5.63391 -1.06127 0
M  V30 33722 H 3117.86 5.70908 -1.84888 0
M  V30 33723 H 3118.93 4.33373 -2.17523 0
M  V30 33724 N 3120.27 0.571737 1.46864 0
M  V30 33725 C 3121.23 -0.157459 2.28658 0
M  V30 33726 C 3122.23 -0.829148 1.37774 0
M  V30 33727 O 3123.42 -0.682782 1.60261 0
M  V30 33728 C 3120.55 -1.23196 3.17861 0
M  V30 33729 H 3121.75 0.561222 2.94602 0
M  V30 33730 H 3119.3 0.329256 1.52793 0
M  V30 33731 H 3120.04 -1.98258 2.5664 0
M  V30 33732 H 3119.82 -0.754964 3.84763 0
M  V30 33733 H 3121.31 -1.74371 3.79453 0
M  V30 33734 N 3121.75 -1.54542 0.308935 0
M  V30 33735 C 3122.7 -2.20529 -0.578863 0
M  V30 33736 C 3123.68 -1.1809 -1.09286 0
M  V30 33737 O 3124.87 -1.43779 -1.03231 0
M  V30 33738 C 3122 -2.95558 -1.74644 0
M  V30 33739 C 3121.09 -4.05321 -1.24802 0
M  V30 33740 N 3121.48 -5.03628 -0.468192 0
M  V30 33741 C 3119.78 -4.19006 -1.52806 0
M  V30 33742 C 3120.48 -5.8135 -0.201794 0
M  V30 33743 N 3119.45 -5.37919 -0.783833 0
M  V30 33744 H 3123.26 -2.9389 0.0244012 0
M  V30 33745 H 3120.77 -1.61999 0.114077 0
M  V30 33746 H 3122.77 -3.41305 -2.39408 0
M  V30 33747 H 3121.43 -2.23716 -2.35332 0
M  V30 33748 H 3122.44 -5.17778 -0.112362 0
M  V30 33749 H 3119.12 -3.58373 -2.14185 0
M  V30 33750 H 3120.51 -6.70554 0.425047 0
M  V30 33751 N 3123.23 -0.0368104 -1.57557 0
M  V30 33752 C 3124.16 0.971359 -2.07599 0
M  V30 33753 C 3125.17 1.28395 -1.00092 0
M  V30 33754 O 3126.36 1.24726 -1.27694 0
M  V30 33755 C 3123.46 2.29675 -2.49204 0
M  V30 33756 C 3122.63 2.16819 -3.79879 0
M  V30 33757 C 3121.69 3.32358 -4.07951 0
M  V30 33758 O 3120.72 3.08901 -4.78088 0
M  V30 33759 N 3121.92 4.56391 -3.5873 0
M  V30 33760 H 3124.68 0.544337 -2.94715 0
M  V30 33761 H 3122.25 0.149771 -1.61206 0
M  V30 33762 H 3124.24 3.0581 -2.6507 0
M  V30 33763 H 3122.81 2.63992 -1.67412 0
M  V30 33764 H 3122.03 1.25364 -3.73735 0
M  V30 33765 H 3123.32 2.05441 -4.6548 0
M  V30 33766 H 3122.71 4.78342 -3.02003 0
M  V30 33767 H 3121.27 5.29668 -3.79861 0
M  V30 33768 N 3124.7 1.55817 0.236426 0
M  V30 33769 C 3125.63 1.94208 1.29636 0
M  V30 33770 C 3126.61 0.808346 1.49666 0
M  V30 33771 O 3127.8 1.06947 1.62098 0
M  V30 33772 C 3124.93 2.24589 2.6491 0
M  V30 33773 C 3123.88 3.40313 2.59559 0
M  V30 33774 C 3123.21 3.56261 3.98726 0
M  V30 33775 C 3124.51 4.7571 2.15633 0
M  V30 33776 H 3126.2 2.82993 0.977503 0
M  V30 33777 H 3123.75 1.36156 0.46878 0
M  V30 33778 H 3125.7 2.50037 3.39204 0
M  V30 33779 H 3124.43 1.32641 2.98453 0
M  V30 33780 H 3123.09 3.1489 1.87722 0
M  V30 33781 H 3122.73 2.61715 4.29551 0
M  V30 33782 H 3122.43 4.34089 3.96031 0
M  V30 33783 H 3123.96 3.84041 4.74705 0
M  V30 33784 H 3125.37 5.00461 2.79664 0
M  V30 33785 H 3123.77 5.56714 2.24029 0
M  V30 33786 H 3124.84 4.72066 1.10822 0
M  V30 33787 N 3126.18 -0.502526 1.49373 0
M  V30 33788 C 3127.14 -1.58651 1.65416 0
M  V30 33789 C 3128.14 -1.51953 0.52603 0
M  V30 33790 O 3129.33 -1.55132 0.792448 0
M  V30 33791 C 3126.47 -2.98303 1.6501 0
M  V30 33792 H 3127.66 -1.45757 2.62097 0
M  V30 33793 H 3125.21 -0.726648 1.38382 0
M  V30 33794 H 3125.95 -3.16676 0.69907 0
M  V30 33795 H 3125.73 -3.04573 2.46936 0
M  V30 33796 H 3127.22 -3.77062 1.79483 0
M  V30 33797 N 3127.66 -1.38422 -0.75346 0
M  V30 33798 C 3129.08 -1.19622 -1.05654 0
M  V30 33799 C 3129.28 -0.0449797 -2.0145 0
M  V30 33800 O 3128.33 0.60921 -2.45041 0
M  V30 33801 C 3129.64 -2.52268 -1.6365 0
M  V30 33802 C 3131.19 -2.58952 -1.75821 0
M  V30 33803 C 3131.67 -3.91774 -2.37229 0
M  V30 33804 N 3133.16 -3.93314 -2.44659 0
M  V30 33805 C 3133.89 -4.92847 -2.93069 0
M  V30 33806 N 3133.39 -6.02778 -3.41513 0
M  V30 33807 N 3135.18 -4.80238 -2.9211 0
M  V30 33808 H 3127.33 -2.12073 -0.117762 0
M  V30 33809 H 3129.6 -0.941015 -0.114873 0
M  V30 33810 H 3129.3 -3.36967 -1.00728 0
M  V30 33811 H 3129.18 -2.70672 -2.6271 0
M  V30 33812 H 3131.56 -1.74648 -2.3787 0
M  V30 33813 H 3131.64 -2.44415 -0.75465 0
M  V30 33814 H 3131.29 -4.765 -1.75813 0
M  V30 33815 H 3131.22 -4.03622 -3.38226 0
M  V30 33816 H 3133.71 -3.13913 -2.10397 0
M  V30 33817 H 3134.02 -6.74656 -3.76907 0
M  V30 33818 H 3132.37 -6.06397 -3.39569 0
M  V30 33819 H 3135.56 -3.93468 -2.53575 0
M  V30 33820 H 3135.73 -5.57958 -3.29525 0
M  V30 33821 N 3129.14 0.981655 -1.23294 0
M  V30 33822 C 3130.09 2.05856 -0.980169 0
M  V30 33823 C 3131.07 1.60733 0.0733761 0
M  V30 33824 O 3132.26 1.76457 -0.138592 0
M  V30 33825 C 3129.39 3.38502 -0.571938 0
M  V30 33826 C 3128.48 3.90228 -1.66082 0
M  V30 33827 N 3128.87 4.15047 -2.89085 0
M  V30 33828 C 3127.17 4.18749 -1.53511 0
M  V30 33829 C 3127.87 4.57253 -3.59575 0
M  V30 33830 N 3126.84 4.6161 -2.87084 0
M  V30 33831 H 3130.65 2.23001 -1.91436 0
M  V30 33832 H 3128.16 1.16432 -1.13213 0
M  V30 33833 H 3130.16 4.15236 -0.372132 0
M  V30 33834 H 3128.82 3.22751 0.355222 0
M  V30 33835 H 3129.83 4.02907 -3.25402 0
M  V30 33836 H 3126.51 4.12008 -0.674964 0
M  V30 33837 H 3127.9 4.84985 -4.65015 0
M  V30 33838 N 3130.62 1.04444 1.18022 0
M  V30 33839 C 3131.56 0.632596 2.23832 0
M  V30 33840 C 3132.56 -0.342459 1.65902 0
M  V30 33841 O 3133.76 -0.209339 1.78779 0
M  V30 33842 H 3130.14 0.186366 0.728541 0
M  V30 33843 H 3132.11 1.5353 2.55873 0
M  V30 33844 C 3130.86 0.0154272 3.47697 0
M  V30 33845 H 3130.18 0.756773 3.92572 0
M  V30 33846 H 3131.62 -0.235466 4.23346 0
M  V30 33847 C 3130.08 -1.23574 3.13418 0
M  V30 33848 O 3130.61 -2.32604 3.27503 0
M  V30 33849 N 3128.82 -1.13048 2.6771 0
M  V30 33850 H 3128.36 -0.243232 2.56449 0
M  V30 33851 H 3128.32 -1.96851 2.45147 0
M  V30 33852 N 3132.09 -1.34317 0.824418 0
M  V30 33853 C 3133.04 -2.29493 0.245322 0
M  V30 33854 C 3134.01 -1.53659 -0.630735 0
M  V30 33855 O 3135.2 -1.82022 -0.572062 0
M  V30 33856 C 3132.34 -3.40096 -0.585572 0
M  V30 33857 C 3131.45 -4.30865 0.312897 0
M  V30 33858 C 3130.58 -5.28572 -0.527708 0
M  V30 33859 C 3129.62 -6.1098 0.370054 0
M  V30 33860 N 3128.76 -7.00772 -0.431566 0
M  V30 33861 H 3133.6 -2.78423 1.0623 0
M  V30 33862 H 3131.14 -1.37012 0.535354 0
M  V30 33863 H 3133.09 -4.02908 -1.08264 0
M  V30 33864 H 3131.72 -2.92396 -1.36765 0
M  V30 33865 H 3130.78 -3.68902 0.928194 0
M  V30 33866 H 3132.09 -4.88609 1.00315 0
M  V30 33867 H 3131.24 -5.96843 -1.0892 0
M  V30 33868 H 3129.98 -4.7137 -1.25146 0
M  V30 33869 H 3128.99 -5.41641 0.943672 0
M  V30 33870 H 3130.21 -6.70264 1.09194 0
M  V30 33871 H 3128.16 -6.46037 -1.13896 0
M  V30 33872 H 3128.07 -7.55735 0.200266 0
M  V30 33873 H 3129.34 -7.73369 -0.975759 0
M  V30 33874 N 3133.57 -0.579517 -1.46558 0
M  V30 33875 C 3134.5 0.143396 -2.33059 0
M  V30 33876 C 3135.48 0.886843 -1.45152 0
M  V30 33877 O 3136.67 0.862931 -1.73975 0
M  V30 33878 C 3133.8 1.15968 -3.27366 0
M  V30 33879 C 3132.75 0.531274 -4.2469 0
M  V30 33880 C 3132.08 1.65379 -5.08482 0
M  V30 33881 C 3133.38 -0.529482 -5.19609 0
M  V30 33882 H 3135.07 -0.578814 -2.93752 0
M  V30 33883 H 3132.62 -0.2798 -1.41256 0
M  V30 33884 H 3134.57 1.67375 -3.86735 0
M  V30 33885 H 3133.29 1.91212 -2.64774 0
M  V30 33886 H 3131.95 0.0383105 -3.6658 0
M  V30 33887 H 3131.6 2.39583 -4.42277 0
M  V30 33888 H 3131.3 1.23899 -5.74389 0
M  V30 33889 H 3132.83 2.17069 -5.70713 0
M  V30 33890 H 3134.24 -0.100607 -5.73212 0
M  V30 33891 H 3132.64 -0.864425 -5.93841 0
M  V30 33892 H 3133.71 -1.41699 -4.63734 0
M  V30 33893 N 3135.05 1.54376 -0.317127 0
M  V30 33894 C 3135.98 2.27061 0.544583 0
M  V30 33895 C 3136.96 1.27613 1.12467 0
M  V30 33896 O 3138.15 1.56415 1.151 0
M  V30 33897 C 3135.28 3.02356 1.70874 0
M  V30 33898 C 3134.23 4.09087 1.25826 0
M  V30 33899 C 3133.56 4.72187 2.50886 0
M  V30 33900 C 3134.86 5.20932 0.377784 0
M  V30 33901 H 3136.55 2.99336 -0.0616898 0
M  V30 33902 H 3134.1 1.43966 -0.0311101 0
M  V30 33903 H 3136.05 3.51931 2.3178 0
M  V30 33904 H 3134.77 2.27686 2.34151 0
M  V30 33905 H 3133.43 3.60385 0.672164 0
M  V30 33906 H 3133.08 3.94139 3.12511 0
M  V30 33907 H 3132.78 5.44279 2.21438 0
M  V30 33908 H 3134.3 5.24533 3.12566 0
M  V30 33909 H 3135.72 5.66303 0.892957 0
M  V30 33910 H 3134.12 5.99841 0.176368 0
M  V30 33911 H 3135.19 4.8126 -0.593028 0
M  V30 33912 N 3136.53 0.0451655 1.57535 0
M  V30 33913 C 3137.46 -0.960336 2.08111 0
M  V30 33914 C 3138.47 -1.27863 1.00772 0
M  V30 33915 O 3139.66 -1.24047 1.28353 0
M  V30 33916 C 3136.76 -2.2835 2.50418 0
M  V30 33917 C 3135.94 -2.14802 3.81024 0
M  V30 33918 C 3134.99 -3.3019 4.09708 0
M  V30 33919 O 3134.02 -3.06362 4.7972 0
M  V30 33920 N 3135.22 -4.54482 3.61146 0
M  V30 33921 H 3137.99 -0.5287 2.95 0
M  V30 33922 H 3135.55 -0.14122 1.61283 0
M  V30 33923 H 3137.54 -3.044 2.66688 0
M  V30 33924 H 3136.11 -2.63101 1.6881 0
M  V30 33925 H 3135.33 -1.2338 3.74394 0
M  V30 33926 H 3136.62 -2.0297 4.66563 0
M  V30 33927 H 3136.02 -4.76733 3.04535 0
M  V30 33928 H 3134.57 -5.27647 3.82665 0
M  V30 33929 N 3138.01 -1.5594 -0.228159 0
M  V30 33930 C 3138.94 -1.8835 -1.30602 0
M  V30 33931 C 3139.95 -0.771223 -1.43374 0
M  V30 33932 O 3141.14 -1.04948 -1.44389 0
M  V30 33933 C 3138.24 -2.07119 -2.68244 0
M  V30 33934 C 3137.41 -3.38099 -2.77503 0
M  V30 33935 C 3136.47 -3.4638 -3.96115 0
M  V30 33936 O 3135.5 -4.1946 -3.84763 0
M  V30 33937 N 3136.7 -2.7704 -5.10127 0
M  V30 33938 H 3139.47 -2.81398 -1.03127 0
M  V30 33939 H 3137.03 -1.56405 -0.418218 0
M  V30 33940 H 3139.02 -2.09982 -3.45962 0
M  V30 33941 H 3137.59 -1.20728 -2.88346 0
M  V30 33942 H 3136.81 -3.47391 -1.86314 0
M  V30 33943 H 3138.1 -4.24394 -2.80654 0
M  V30 33944 H 3137.49 -2.17433 -5.22245 0
M  V30 33945 H 3136.05 -2.85572 -5.85911 0
M  V30 33946 N 3139.48 0.494597 -1.49638 0
M  V30 33947 C 3140.42 1.61334 -1.6139 0
M  V30 33948 C 3141.4 1.55877 -0.462732 0
M  V30 33949 O 3142.58 1.75841 -0.679133 0
M  V30 33950 C 3139.71 2.99865 -1.57476 0
M  V30 33951 C 3138.75 3.23561 -2.77868 0
M  V30 33952 S 3139.59 3.05991 -4.39465 0
M  V30 33953 C 3140.74 4.46906 -4.38208 0
M  V30 33954 H 3140.97 1.51122 -2.56026 0
M  V30 33955 H 3138.51 0.680228 -1.38608 0
M  V30 33956 H 3140.47 3.79742 -1.55905 0
M  V30 33957 H 3139.13 3.07486 -0.641161 0
M  V30 33958 H 3138.32 4.24706 -2.71368 0
M  V30 33959 H 3137.92 2.51416 -2.76886 0
M  V30 33960 H 3140.21 5.39112 -4.10322 0
M  V30 33961 H 3141.16 4.58455 -5.39653 0
M  V30 33962 H 3141.56 4.27885 -3.68205 0
M  V30 33963 N 3140.96 1.3882 0.746109 0
M  V30 33964 C 3141.89 1.39375 1.87341 0
M  V30 33965 C 3142.87 0.258613 1.68123 0
M  V30 33966 O 3144.06 0.462802 1.88605 0
M  V30 33967 C 3141.19 1.22549 3.2496 0
M  V30 33968 C 3140.14 2.33346 3.58795 0
M  V30 33969 C 3139.47 2.01618 4.95232 0
M  V30 33970 C 3140.77 3.7563 3.62904 0
M  V30 33971 H 3142.46 2.33712 1.87134 0
M  V30 33972 H 3140.01 1.12497 0.898917 0
M  V30 33973 H 3141.96 1.21561 4.03486 0
M  V30 33974 H 3140.69 0.246764 3.25666 0
M  V30 33975 H 3139.34 2.33532 2.82592 0
M  V30 33976 H 3138.99 1.02211 4.92506 0
M  V30 33977 H 3138.69 2.75828 5.18838 0
M  V30 33978 H 3140.22 2.02261 5.76127 0
M  V30 33979 H 3141.63 3.77433 4.31529 0
M  V30 33980 H 3140.03 4.49107 3.98023 0
M  V30 33981 H 3141.1 4.07407 2.6296 0
M  V30 33982 N 3142.44 -0.975103 1.23812 0
M  V30 33983 C 3143.39 -2.06841 1.02398 0
M  V30 33984 C 3144.36 -1.6599 -0.0603078 0
M  V30 33985 O 3145.54 -1.90574 0.0928522 0
M  V30 33986 C 3142.68 -3.39357 0.626941 0
M  V30 33987 C 3141.8 -3.93447 1.78392 0
M  V30 33988 C 3140.93 -5.14199 1.33316 0
M  V30 33989 C 3139.97 -5.60467 2.46055 0
M  V30 33990 N 3139.11 -6.72444 2.019 0
M  V30 33991 H 3143.95 -2.24493 1.95977 0
M  V30 33992 H 3141.48 -1.10038 0.976225 0
M  V30 33993 H 3143.44 -4.15486 0.377815 0
M  V30 33994 H 3142.07 -3.21653 -0.27185 0
M  V30 33995 H 3141.12 -3.14026 2.14691 0
M  V30 33996 H 3142.44 -4.2375 2.63129 0
M  V30 33997 H 3141.59 -5.97677 1.04247 0
M  V30 33998 H 3140.33 -4.85561 0.456228 0
M  V30 33999 H 3139.33 -4.75567 2.75892 0
M  V30 34000 H 3140.56 -5.91121 3.34294 0
M  V30 34001 H 3138.5 -6.45555 1.16594 0
M  V30 34002 H 3138.42 -7.02159 2.80194 0
M  V30 34003 H 3139.69 -7.59383 1.7595 0
M  V30 34004 N 3143.92 -1.05068 -1.17467 0
M  V30 34005 C 3145.33 -0.786333 -1.69333 0
M  V30 34006 C 3145.68 0.691639 -1.83605 0
M  V30 34007 O 3144.81 1.5376 -1.52272 0
M  V30 34008 C 3145.4 -1.42079 -3.07569 0
M  V30 34009 C 3143.96 -1.20452 -3.56607 0
M  V30 34010 C 3143.11 -1.50512 -2.32898 0
M  V30 34011 H 3146.06 -1.21579 -1.02001 0
M  V30 34012 H 3146.08 -0.829399 -3.71351 0
M  V30 34013 H 3145.59 -2.49647 -2.9715 0
M  V30 34014 H 3143.69 -0.148033 -3.72306 0
M  V30 34015 H 3143.8 -1.9086 -4.39442 0
M  V30 34016 H 3142.17 -0.925165 -2.37303 0
M  V30 34017 H 3142.95 -2.59211 -2.25088 0
M  V30 34018 N 3145.4 1.33878 -0.831529 0
M  V30 34019 C 3146.64 1.97626 -0.422872 0
M  V30 34020 C 3146.97 1.66222 1.01958 0
M  V30 34021 O 3146.24 0.957353 1.70914 0
M  V30 34022 H 3144.82 0.731084 -0.153378 0
M  V30 34023 H 3147.48 1.63368 -1.06287 0
M  V30 34024 H 3146.57 3.07235 -0.548912 0
M  V30 34025 N 3146.87 0.587281 1.46249 0
M  V30 34026 C 3148.1 0.0784881 2.07251 0
M  V30 34027 C 3148.52 -1.21916 1.43241 0
M  V30 34028 O 3147.88 -1.73748 0.517822 0
M  V30 34029 C 3147.93 -0.0690403 3.60534 0
M  V30 34030 O 3147.03 -1.12441 3.96775 0
M  V30 34031 H 3146.38 0.0648707 0.660824 0
M  V30 34032 H 3148.91 0.811524 1.87818 0
M  V30 34033 H 3148.92 -0.273754 4.07081 0
M  V30 34034 H 3147.59 0.878586 4.06514 0
M  V30 34035 H 3146.17 -0.897788 3.61931 0
M  V30 34036 N 3148.35 -1.54206 0.325309 0
M  V30 34037 C 3149.63 -1.92777 -0.331096 0
M  V30 34038 C 3150.01 -1.25509 -1.69737 0
M  V30 34039 O 3149.36 -0.399424 -2.24982 0
M  V30 34040 C 3149.57 -3.46444 -0.421575 0
M  V30 34041 C 3150.92 -4.19103 -0.681037 0
M  V30 34042 O 3151.94 -3.5261 -0.504426 0
M  V30 34043 O 3150.8 -5.36861 -1.02187 0
M  V30 34044 H 3147.89 -0.805016 -0.189416 0
M  V30 34045 H 3150.44 -1.65501 0.375152 0
M  V30 34046 H 3149.21 -3.87585 0.53793 0
M  V30 34047 H 3148.83 -3.79831 -1.17533 0
M  V30 34048 N 3149.83 -0.0535194 -1.57509 0
M  V30 34049 C 3151.24 0.481836 -1.80375 0
M  V30 34050 C 3151.59 1.70774 -0.965947 0
M  V30 34051 O 3150.72 2.15623 -0.183205 0
M  V30 34052 C 3151.31 0.88092 -3.27147 0
M  V30 34053 C 3149.87 1.36124 -3.50923 0
M  V30 34054 C 3149.02 0.337562 -2.75238 0
M  V30 34055 H 3151.97 -0.279381 -1.56221 0
M  V30 34056 H 3151.99 1.74367 -3.38196 0
M  V30 34057 H 3151.5 -0.0115092 -3.88098 0
M  V30 34058 H 3149.6 2.27278 -2.95255 0
M  V30 34059 H 3149.72 1.35178 -4.59634 0
M  V30 34060 H 3148.08 0.810949 -2.41445 0
M  V30 34061 H 3148.86 -0.546823 -3.38917 0
M  V30 34062 N 3151.31 1.56059 0.219886 0
M  V30 34063 C 3152.59 1.69942 0.968464 0
M  V30 34064 C 3152.97 0.601254 2.02356 0
M  V30 34065 O 3152.31 -0.391494 2.25121 0
M  V30 34066 C 3152.52 3.11319 1.57739 0
M  V30 34067 C 3153.87 3.70779 2.06901 0
M  V30 34068 O 3154.9 3.14291 1.6763 0
M  V30 34069 O 3153.76 4.69864 2.79088 0
M  V30 34070 H 3150.85 0.692217 0.452509 0
M  V30 34071 H 3153.4 1.68376 0.211536 0
M  V30 34072 H 3152.17 3.82705 0.81562 0
M  V30 34073 H 3151.79 3.17009 2.39982 0
M  V30 34074 N 3152.79 -0.486655 1.49898 0
M  V30 34075 C 3153.7 -1.61267 1.70382 0
M  V30 34076 C 3154.71 -1.63813 0.586619 0
M  V30 34077 O 3155.89 -1.8197 0.863076 0
M  V30 34078 C 3152.95 -2.97568 1.77916 0
M  V30 34079 C 3152.02 -3.05535 3.01574 0
M  V30 34080 C 3151.25 -4.35334 3.08739 0
M  V30 34081 O 3151.47 -5.24956 2.23109 0
M  V30 34082 O 3150.41 -4.48571 4.01333 0
M  V30 34083 H 3154.23 -1.46912 2.65802 0
M  V30 34084 H 3151.82 -0.664492 1.33809 0
M  V30 34085 H 3153.7 -3.7855 1.85142 0
M  V30 34086 H 3152.37 -3.12155 0.856777 0
M  V30 34087 H 3151.28 -2.23687 2.99858 0
M  V30 34088 H 3152.61 -2.95879 3.9334 0
M  V30 34089 N 3154.27 -1.39214 -0.738737 0
M  V30 34090 C 3155.51 -1.35964 -1.49526 0
M  V30 34091 C 3155.83 0.0449809 -1.94948 0
M  V30 34092 O 3155.1 0.995523 -1.68719 0
M  V30 34093 H 3153.68 -0.500336 -0.554683 0
M  V30 34094 H 3156.35 -1.74042 -0.877224 0
M  V30 34095 H 3155.44 -2.01997 -2.37915 0
M  V30 34096 N 3155.74 0.968523 -1.24328 0
M  V30 34097 C 3157.02 1.68667 -0.990489 0
M  V30 34098 C 3157.4 2.05395 0.487451 0
M  V30 34099 O 3156.75 1.75645 1.46155 0
M  V30 34100 C 3156.96 2.91928 -1.91257 0
M  V30 34101 C 3158.31 3.64186 -2.18297 0
M  V30 34102 O 3159.33 3.01984 -1.88903 0
M  V30 34103 O 3158.19 4.76156 -2.68212 0
M  V30 34104 H 3155.28 0.737332 -0.374527 0
M  V30 34105 H 3157.83 1.02269 -1.35422 0
M  V30 34106 H 3156.6 2.61473 -2.91114 0
M  V30 34107 H 3156.22 3.66061 -1.55194 0
M  V30 34108 N 3157.22 1.0569 1.16908 0
M  V30 34109 C 3158.13 0.673189 2.24734 0
M  V30 34110 C 3159.15 -0.308013 1.71252 0
M  V30 34111 O 3160.32 -0.158853 2.00773 0
M  V30 34112 C 3157.39 0.0590869 3.4665 0
M  V30 34113 C 3156.45 1.09138 4.15196 0
M  V30 34114 C 3155.68 0.506484 5.31291 0
M  V30 34115 O 3155.91 -0.682592 5.66301 0
M  V30 34116 O 3154.84 1.2432 5.88921 0
M  V30 34117 H 3158.67 1.57195 2.59853 0
M  V30 34118 H 3156.25 0.828773 1.24305 0
M  V30 34119 H 3158.13 -0.281944 4.20456 0
M  V30 34120 H 3156.81 -0.813249 3.13318 0
M  V30 34121 H 3155.71 1.48448 3.43386 0
M  V30 34122 H 3157.05 1.93503 4.52567 0
M  V30 34123 N 3158.7 -1.33435 0.838617 0
M  V30 34124 C 3159.66 -2.27521 0.276883 0
M  V30 34125 C 3160.66 -1.50946 -0.554249 0
M  V30 34126 O 3161.85 -1.70267 -0.368077 0
M  V30 34127 C 3158.98 -3.35398 -0.609977 0
M  V30 34128 H 3160.18 -2.78717 1.1071 0
M  V30 34129 H 3157.73 -1.43834 0.611682 0
M  V30 34130 H 3158.47 -2.89443 -1.46264 0
M  V30 34131 H 3158.25 -3.92097 -0.0152926 0
M  V30 34132 H 3159.74 -4.05541 -0.996297 0
M  V30 34133 N 3160.18 -0.595029 -1.45935 0
M  V30 34134 C 3161.11 0.118669 -2.33198 0
M  V30 34135 C 3162.09 0.871398 -1.46084 0
M  V30 34136 O 3163.27 0.84443 -1.7488 0
M  V30 34137 C 3160.4 1.12489 -3.28578 0
M  V30 34138 C 3159.36 0.4862 -4.25229 0
M  V30 34139 C 3158.68 1.59977 -5.10207 0
M  V30 34140 C 3159.98 -0.584564 -5.19018 0
M  V30 34141 H 3161.68 -0.609938 -2.93121 0
M  V30 34142 H 3159.22 -0.294766 -1.40951 0
M  V30 34143 H 3161.18 1.63264 -3.88488 0
M  V30 34144 H 3159.9 1.88393 -2.66788 0
M  V30 34145 H 3158.56 -0.000572401 -3.666 0
M  V30 34146 H 3158.21 2.34878 -4.44793 0
M  V30 34147 H 3157.91 1.178 -5.75671 0
M  V30 34148 H 3159.43 2.11004 -5.72983 0
M  V30 34149 H 3160.85 -0.161398 -5.73073 0
M  V30 34150 H 3159.24 -0.927361 -5.92891 0
M  V30 34151 H 3160.31 -1.46609 -4.62205 0
M  V30 34152 N 3161.66 1.54031 -0.333483 0
M  V30 34153 C 3162.6 2.24681 0.527942 0
M  V30 34154 C 3163.57 1.24129 1.10369 0
M  V30 34155 O 3164.76 1.52836 1.14218 0
M  V30 34156 C 3161.9 3.01556 1.67803 0
M  V30 34157 C 3161.01 4.16944 1.13056 0
M  V30 34158 C 3160.15 4.81328 2.24714 0
M  V30 34159 C 3159.18 5.88802 1.67267 0
M  V30 34160 N 3158.32 6.47008 2.72626 0
M  V30 34161 H 3163.16 2.9789 -0.0810831 0
M  V30 34162 H 3160.7 1.47009 -0.0517868 0
M  V30 34163 H 3162.66 3.4438 2.35496 0
M  V30 34164 H 3161.29 2.30663 2.25819 0
M  V30 34165 H 3160.34 3.78833 0.344882 0
M  V30 34166 H 3161.65 4.94276 0.670286 0
M  V30 34167 H 3160.8 5.27172 3.00292 0
M  V30 34168 H 3159.54 4.03399 2.74082 0
M  V30 34169 H 3158.55 5.42352 0.901907 0
M  V30 34170 H 3159.77 6.68634 1.18763 0
M  V30 34171 H 3157.72 5.71947 3.21267 0
M  V30 34172 H 3157.64 7.19782 2.31191 0
M  V30 34173 H 3158.9 6.97506 3.48003 0
M  V30 34174 N 3163.13 0.0618717 1.57479 0
M  V30 34175 C 3164.36 -0.617905 1.97143 0
M  V30 34176 C 3164.77 -1.64279 0.938562 0
M  V30 34177 O 3164.11 -1.83506 -0.0843527 0
M  V30 34178 C 3164.18 -1.35257 3.33085 0
M  V30 34179 C 3163.84 -0.482292 4.54448 0
M  V30 34180 C 3164.84 0.256045 5.19269 0
M  V30 34181 C 3162.52 -0.410079 5.00623 0
M  V30 34182 C 3164.52 1.05492 6.2861 0
M  V30 34183 C 3162.2 0.392476 6.09838 0
M  V30 34184 C 3163.2 1.12365 6.73694 0
M  V30 34185 O 3162.89 1.91299 7.80807 0
M  V30 34186 H 3162.62 -0.172957 0.6535 0
M  V30 34187 H 3165.18 0.127817 2.05002 0
M  V30 34188 H 3163.41 -2.14415 3.21812 0
M  V30 34189 H 3165.09 -1.92362 3.57424 0
M  V30 34190 H 3165.86 0.209788 4.84546 0
M  V30 34191 H 3161.74 -0.968804 4.50705 0
M  V30 34192 H 3165.28 1.62614 6.78382 0
M  V30 34193 H 3161.18 0.440333 6.43996 0
M  V30 34194 H 3161.95 1.83625 7.97637 0
M  V30 34195 N 3164.61 -1.56173 -0.211607 0
M  V30 34196 C 3165.84 -1.83474 -0.949772 0
M  V30 34197 C 3166.25 -0.640084 -1.78044 0
M  V30 34198 O 3165.59 0.40067 -1.79277 0
M  V30 34199 C 3165.66 -3.0465 -1.90862 0
M  V30 34200 C 3165.32 -4.39243 -1.26152 0
M  V30 34201 C 3166.32 -5.15865 -0.646507 0
M  V30 34202 C 3164 -4.85972 -1.27031 0
M  V30 34203 C 3166 -6.37381 -0.0489192 0
M  V30 34204 C 3163.68 -6.07428 -0.66888 0
M  V30 34205 C 3164.68 -6.82974 -0.0592487 0
M  V30 34206 O 3164.37 -8.02132 0.532797 0
M  V30 34207 H 3164.1 -0.613705 -0.283447 0
M  V30 34208 H 3166.65 -2.04121 -0.228904 0
M  V30 34209 H 3164.88 -2.79847 -2.66875 0
M  V30 34210 H 3166.57 -3.18738 -2.51318 0
M  V30 34211 H 3167.34 -4.80865 -0.631971 0
M  V30 34212 H 3163.22 -4.27137 -1.73421 0
M  V30 34213 H 3166.76 -6.96289 0.427536 0
M  V30 34214 H 3162.66 -6.41899 -0.680862 0
M  V30 34215 H 3163.43 -8.1738 0.428086 0
M  V30 34216 N 3166.09 0.478699 -1.50154 0
M  V30 34217 C 3167.05 1.56 -1.67919 0
M  V30 34218 C 3168.05 1.51096 -0.550138 0
M  V30 34219 O 3169.24 1.53852 -0.817028 0
M  V30 34220 C 3166.38 2.9564 -1.69735 0
M  V30 34221 H 3167.57 1.41569 -2.64383 0
M  V30 34222 H 3165.12 0.704541 -1.3952 0
M  V30 34223 H 3165.86 3.15523 -0.749361 0
M  V30 34224 H 3165.64 3.00606 -2.5175 0
M  V30 34225 H 3167.13 3.74159 -1.85459 0
M  V30 34226 N 3167.57 1.39603 0.731343 0
M  V30 34227 C 3168.52 1.38765 1.86674 0
M  V30 34228 C 3169.51 0.270277 1.6723 0
M  V30 34229 O 3170.72 0.440502 1.74527 0
M  V30 34230 H 3167.09 0.433402 0.614546 0
M  V30 34231 H 3169.06 2.34528 1.84497 0
M  V30 34232 C 3167.81 1.25161 3.24392 0
M  V30 34233 H 3167.13 2.10412 3.39951 0
M  V30 34234 H 3168.57 1.28632 4.04017 0
M  V30 34235 C 3167.03 -0.0396384 3.36877 0
M  V30 34236 O 3167.56 -1.00847 3.88835 0
M  V30 34237 N 3165.77 -0.103914 2.90414 0
M  V30 34238 H 3165.32 0.685198 2.4832 0
M  V30 34239 H 3165.27 -0.967382 2.99147 0
M  V30 34240 N 3169.05 -0.961916 1.2484 0
M  V30 34241 C 3170 -2.04271 1.01279 0
M  V30 34242 C 3170.98 -1.60829 -0.0477957 0
M  V30 34243 O 3172.17 -1.76214 0.166647 0
M  V30 34244 C 3169.3 -3.37549 0.625719 0
M  V30 34245 C 3168.39 -3.87536 1.72269 0
M  V30 34246 N 3168.78 -4.10395 2.95651 0
M  V30 34247 C 3167.08 -4.16253 1.60153 0
M  V30 34248 C 3167.78 -4.51475 3.66804 0
M  V30 34249 N 3166.75 -4.56984 2.94391 0
M  V30 34250 H 3170.56 -2.19927 1.94959 0
M  V30 34251 H 3168.07 -1.14617 1.15051 0
M  V30 34252 H 3170.07 -4.14591 0.438145 0
M  V30 34253 H 3168.73 -3.23275 -0.30383 0
M  V30 34254 H 3169.74 -3.97679 3.31771 0
M  V30 34255 H 3166.41 -4.10882 0.740425 0
M  V30 34256 H 3167.8 -4.77526 4.72672 0
M  V30 34257 N 3170.52 -1.06308 -1.16346 0
M  V30 34258 C 3171.75 -0.800647 -1.90781 0
M  V30 34259 C 3172.17 0.645002 -1.77441 0
M  V30 34260 O 3171.52 1.44158 -1.11914 0
M  V30 34261 C 3171.58 -1.18627 -3.41482 0
M  V30 34262 O 3171.3 -2.57519 -3.54423 0
M  V30 34263 C 3172.8 -0.951601 -4.32966 0
M  V30 34264 H 3170.02 -0.290258 -0.604972 0
M  V30 34265 H 3172.56 -1.41675 -1.47474 0
M  V30 34266 H 3170.72 -0.6147 -3.82492 0
M  V30 34267 H 3171.13 -2.72962 -4.47875 0
M  V30 34268 H 3172.6 -1.27105 -5.37167 0
M  V30 34269 H 3173.08 0.112657 -4.39055 0
M  V30 34270 H 3173.69 -1.50756 -3.97684 0
M  V30 34271 N 3172 1.32989 -0.845682 0
M  V30 34272 C 3172.97 2.27371 -0.288945 0
M  V30 34273 C 3173.97 1.51238 0.546236 0
M  V30 34274 O 3175.16 1.7046 0.359042 0
M  V30 34275 C 3172.29 3.35717 0.592181 0
M  V30 34276 H 3173.48 2.78126 -1.12186 0
M  V30 34277 H 3171.03 1.43507 -0.619302 0
M  V30 34278 H 3171.77 2.90215 1.44727 0
M  V30 34279 H 3171.55 3.921 -0.00550147 0
M  V30 34280 H 3173.04 4.06064 0.974776 0
M  V30 34281 N 3173.48 0.60276 1.45618 0
M  V30 34282 C 3174.41 -0.156972 2.28662 0
M  V30 34283 C 3175.43 -0.836372 1.39673 0
M  V30 34284 O 3176.61 -0.70257 1.64092 0
M  V30 34285 C 3173.71 -1.243 3.15282 0
M  V30 34286 C 3172.89 -0.651655 4.32518 0
M  V30 34287 C 3171.95 -1.62796 5.00384 0
M  V30 34288 O 3170.97 -1.15614 5.57335 0
M  V30 34289 N 3172.17 -2.96233 4.99226 0
M  V30 34290 H 3174.94 0.555586 2.94505 0
M  V30 34291 H 3172.5 0.441908 1.55752 0
M  V30 34292 H 3174.49 -1.89584 3.57547 0
M  V30 34293 H 3173.06 -1.85815 2.51379 0
M  V30 34294 H 3172.28 0.179139 3.93793 0
M  V30 34295 H 3173.57 -0.236713 5.08249 0
M  V30 34296 H 3172.97 -3.37171 4.54238 0
M  V30 34297 H 3171.53 -3.56951 5.4537 0
M  V30 34298 N 3174.96 -1.53852 0.341647 0
M  V30 34299 C 3176.21 -2.00063 -0.25644 0
M  V30 34300 C 3176.52 -1.23343 -1.51808 0
M  V30 34301 O 3177.73 -1.60021 -2.1933 0
M  V30 34302 C 3176.18 -3.56304 -0.507505 0
M  V30 34303 C 3175.79 -4.41877 0.738129 0
M  V30 34304 C 3177.53 -4.10935 -1.06455 0
M  V30 34305 C 3175.44 -5.89624 0.457969 0
M  V30 34306 H 3174.37 -0.747393 -0.0996012 0
M  V30 34307 H 3177.02 -1.77726 0.456681 0
M  V30 34308 H 3175.4 -3.74699 -1.28128 0
M  V30 34309 H 3176.58 -4.35258 1.51286 0
M  V30 34310 H 3174.89 -3.98228 1.21668 0
M  V30 34311 H 3177.49 -5.18928 -1.28908 0
M  V30 34312 H 3177.83 -3.64036 -2.0195 0
M  V30 34313 H 3178.37 -3.96244 -0.351531 0
M  V30 34314 H 3175.11 -6.40753 1.38258 0
M  V30 34315 H 3174.63 -5.99152 -0.278712 0
M  V30 34316 H 3176.3 -6.46957 0.0745051 0
M  V30 34317 N 3176.44 -0.0702223 -1.57443 0
M  V30 34318 C 3177.35 0.912339 -2.16133 0
M  V30 34319 C 3178.36 1.32817 -1.12409 0
M  V30 34320 O 3179.54 1.40119 -1.44667 0
M  V30 34321 C 3176.6 2.16226 -2.71011 0
M  V30 34322 C 3175.66 1.80299 -3.89603 0
M  V30 34323 C 3174.9 2.99333 -4.41855 0
M  V30 34324 O 3175.12 4.13302 -3.93113 0
M  V30 34325 O 3174.05 2.7924 -5.33206 0
M  V30 34326 H 3177.88 0.443114 -3.0045 0
M  V30 34327 H 3175.47 0.15276 -1.48617 0
M  V30 34328 H 3177.35 2.89525 -3.06192 0
M  V30 34329 H 3176.02 2.62249 -1.89755 0
M  V30 34330 H 3174.93 1.04257 -3.59279 0
M  V30 34331 H 3176.26 1.3906 -4.72147 0
M  V30 34332 N 3177.91 1.56283 0.203321 0
M  V30 34333 C 3179.16 1.79336 0.923118 0
M  V30 34334 C 3179.48 0.64201 1.84764 0
M  V30 34335 O 3180.68 0.75663 2.60744 0
M  V30 34336 C 3179.14 3.17658 1.69179 0
M  V30 34337 C 3178.75 4.40571 0.812503 0
M  V30 34338 C 3180.49 3.50026 2.40171 0
M  V30 34339 C 3178.4 5.69915 1.57957 0
M  V30 34340 H 3177.33 0.668665 0.34843 0
M  V30 34341 H 3179.98 1.82649 0.176568 0
M  V30 34342 H 3178.36 3.08572 2.48192 0
M  V30 34343 H 3179.53 4.60759 0.0616146 0
M  V30 34344 H 3177.85 4.15851 0.213817 0
M  V30 34345 H 3180.45 4.43896 2.98095 0
M  V30 34346 H 3180.79 2.73381 3.13956 0
M  V30 34347 H 3181.32 3.60523 1.68132 0
M  V30 34348 H 3178.06 6.49503 0.884653 0
M  V30 34349 H 3177.58 5.53758 2.3046 0
M  V30 34350 H 3179.26 6.10741 2.13552 0
M  V30 34351 N 3179.39 -0.470729 1.50406 0
M  V30 34352 C 3180.64 -1.2246 1.61652 0
M  V30 34353 C 3180.97 -1.91611 0.316068 0
M  V30 34354 O 3180.25 -1.82133 -0.682477 0
M  V30 34355 C 3180.53 -2.26796 2.79706 0
M  V30 34356 C 3180.38 -1.61948 4.19634 0
M  V30 34357 C 3181.7 -3.28104 2.93319 0
M  V30 34358 H 3178.82 -0.443857 0.588353 0
M  V30 34359 H 3181.46 -0.518344 1.82793 0
M  V30 34360 H 3179.61 -2.87031 2.61812 0
M  V30 34361 H 3181.29 -1.05308 4.49119 0
M  V30 34362 H 3179.53 -0.922599 4.23876 0
M  V30 34363 H 3180.2 -2.3777 4.98166 0
M  V30 34364 H 3182.68 -2.77892 3.09702 0
M  V30 34365 H 3181.55 -3.98436 3.77544 0
M  V30 34366 H 3181.81 -3.92246 2.03949 0
M  V30 34367 N 3180.87 -1.39989 -0.72393 0
M  V30 34368 C 3182.29 -1.21836 -1.03093 0
M  V30 34369 C 3182.49 -0.0877001 -2.01309 0
M  V30 34370 O 3181.54 0.557096 -2.46278 0
M  V30 34371 C 3182.86 -2.55682 -1.58262 0
M  V30 34372 C 3184.4 -2.62623 -1.70288 0
M  V30 34373 C 3184.88 -3.96717 -2.28865 0
M  V30 34374 N 3186.37 -3.98415 -2.36262 0
M  V30 34375 C 3187.11 -4.98953 -2.82549 0
M  V30 34376 N 3186.6 -6.09886 -3.2865 0
M  V30 34377 N 3188.39 -4.86326 -2.81858 0
M  V30 34378 H 3180.55 -2.12275 -0.0727518 0
M  V30 34379 H 3182.81 -0.943239 -0.0948863 0
M  V30 34380 H 3182.51 -3.39028 -0.935582 0
M  V30 34381 H 3182.39 -2.76183 -2.5691 0
M  V30 34382 H 3184.78 -1.79655 -2.34112 0
M  V30 34383 H 3184.86 -2.45961 -0.702637 0
M  V30 34384 H 3184.5 -4.80122 -1.65666 0
M  V30 34385 H 3184.43 -4.10706 -3.29588 0
M  V30 34386 H 3186.92 -3.18305 -2.03691 0
M  V30 34387 H 3187.23 -6.82499 -3.62512 0
M  V30 34388 H 3185.58 -6.13464 -3.2663 0
M  V30 34389 H 3188.77 -3.98758 -2.45172 0
M  V30 34390 H 3188.94 -5.64822 -3.17616 0
M  V30 34391 N 3182.35 0.955282 -1.25348 0
M  V30 34392 C 3183.3 2.03731 -1.02361 0
M  V30 34393 C 3184.28 1.60852 0.0392658 0
M  V30 34394 O 3185.48 1.76123 -0.17599 0
M  V30 34395 C 3182.6 3.37213 -0.643611 0
M  V30 34396 C 3181.69 3.86617 -1.74322 0
M  V30 34397 N 3182.08 4.08821 -2.97823 0
M  V30 34398 C 3180.38 4.15398 -1.62358 0
M  V30 34399 C 3181.08 4.49523 -3.69193 0
M  V30 34400 N 3180.06 4.55417 -2.96811 0
M  V30 34401 H 3183.86 2.1889 -1.96123 0
M  V30 34402 H 3181.37 1.14005 -1.15657 0
M  V30 34403 H 3183.37 4.14353 -0.460126 0
M  V30 34404 H 3182.03 3.23432 0.286682 0
M  V30 34405 H 3183.04 3.95914 -3.33875 0
M  V30 34406 H 3179.72 4.10483 -0.762205 0
M  V30 34407 H 3181.11 4.75012 -4.75198 0
M  V30 34408 N 3183.83 1.06924 1.1578 0
M  V30 34409 C 3185.1 0.703032 1.82529 0
M  V30 34410 C 3185.48 -0.81496 1.94735 0
M  V30 34411 O 3184.83 -1.72771 1.4954 0
M  V30 34412 C 3185.04 1.4124 3.19143 0
M  V30 34413 C 3186.39 1.56171 3.94836 0
M  V30 34414 O 3187.41 1.37282 3.28682 0
M  V30 34415 O 3186.27 1.87214 5.13433 0
M  V30 34416 H 3183.37 0.249644 0.788421 0
M  V30 34417 H 3185.91 1.1699 1.22929 0
M  V30 34418 H 3184.69 2.44721 3.05332 0
M  V30 34419 H 3184.31 0.936027 3.86425 0
M  V30 34420 N 3185.31 -1.32538 0.852723 0
M  V30 34421 C 3186.72 -1.50103 0.542324 0
M  V30 34422 C 3186.92 -1.78888 -0.927434 0
M  V30 34423 O 3185.98 -1.85731 -1.71057 0
M  V30 34424 C 3187.29 -2.64649 1.42764 0
M  V30 34425 C 3188.84 -2.78534 1.42787 0
M  V30 34426 C 3189.31 -3.96156 2.29835 0
M  V30 34427 N 3190.8 -4.03414 2.2762 0
M  V30 34428 C 3191.54 -4.93656 2.91704 0
M  V30 34429 N 3191.04 -5.88918 3.64893 0
M  V30 34430 N 3192.83 -4.86763 2.81102 0
M  V30 34431 H 3184.98 -1.12119 1.80397 0
M  V30 34432 H 3187.24 -0.552433 0.770404 0
M  V30 34433 H 3186.95 -2.50101 2.4727 0
M  V30 34434 H 3186.82 -3.60386 1.11364 0
M  V30 34435 H 3189.21 -2.92505 0.390468 0
M  V30 34436 H 3189.29 -1.83516 1.78201 0
M  V30 34437 H 3188.93 -3.82943 3.33642 0
M  V30 34438 H 3188.86 -4.90446 1.91755 0
M  V30 34439 H 3191.36 -3.35247 1.74408 0
M  V30 34440 H 3191.67 -6.54469 4.10963 0
M  V30 34441 H 3190.01 -5.88951 3.69001 0
M  V30 34442 H 3193.2 -4.1131 2.23476 0
M  V30 34443 H 3193.38 -5.5689 3.31328 0
M  V30 34444 N 3186.78 -0.610474 -1.45296 0
M  V30 34445 C 3188.01 -0.113247 -2.0659 0
M  V30 34446 C 3188.43 1.20358 -1.45462 0
M  V30 34447 O 3187.78 1.73375 -0.569854 0
M  V30 34448 C 3187.83 0.0297776 -3.61488 0
M  V30 34449 O 3187.56 -1.23496 -4.20334 0
M  V30 34450 C 3189.06 0.558125 -4.39773 0
M  V30 34451 H 3186.28 -0.0701672 -0.667321 0
M  V30 34452 H 3188.82 -0.839026 -1.86496 0
M  V30 34453 H 3186.98 0.705896 -3.80915 0
M  V30 34454 H 3187.39 -1.06649 -5.13543 0
M  V30 34455 H 3188.86 0.607278 -5.48649 0
M  V30 34456 H 3189.34 1.58099 -4.09757 0
M  V30 34457 H 3189.95 -0.0840452 -4.25217 0
M  V30 34458 N 3188.26 1.53669 -0.349801 0
M  V30 34459 C 3189.19 2.2154 0.54727 0
M  V30 34460 C 3190.17 1.20165 1.09541 0
M  V30 34461 O 3191.36 1.49008 1.15451 0
M  V30 34462 C 3188.48 2.89775 1.75351 0
M  V30 34463 C 3187.53 4.05092 1.33426 0
M  V30 34464 S 3188.36 5.34363 0.348797 0
M  V30 34465 C 3189.52 6.06103 1.56172 0
M  V30 34466 H 3189.75 2.97286 -0.0291914 0
M  V30 34467 H 3187.28 1.53818 -0.13388 0
M  V30 34468 H 3189.24 3.29706 2.44549 0
M  V30 34469 H 3187.9 2.13784 2.3012 0
M  V30 34470 H 3187.1 4.51794 2.2338 0
M  V30 34471 H 3186.7 3.66971 0.721682 0
M  V30 34472 H 3188.99 6.29876 2.49524 0
M  V30 34473 H 3189.93 6.98922 1.13639 0
M  V30 34474 H 3190.34 5.36342 1.76062 0
M  V30 34475 N 3189.74 0.0785709 1.57404 0
M  V30 34476 C 3190.65 -0.900864 2.16614 0
M  V30 34477 C 3191.67 -1.32219 1.13112 0
M  V30 34478 O 3192.84 -1.3935 1.45408 0
M  V30 34479 C 3189.91 -2.14786 2.72154 0
M  V30 34480 C 3188.97 -1.78231 3.90554 0
M  V30 34481 C 3188.2 -2.96985 4.43436 0
M  V30 34482 O 3188.42 -4.11211 3.95299 0
M  V30 34483 O 3187.36 -2.76409 5.34679 0
M  V30 34484 H 3191.18 -0.427174 3.00681 0
M  V30 34485 H 3188.77 -0.144876 1.48696 0
M  V30 34486 H 3190.65 -2.87897 3.07723 0
M  V30 34487 H 3189.33 -2.61239 1.91143 0
M  V30 34488 H 3188.23 -1.0235 3.59827 0
M  V30 34489 H 3189.57 -1.36554 4.72878 0
M  V30 34490 N 3191.22 -1.56389 -0.19503 0
M  V30 34491 C 3192.15 -1.91078 -1.26577 0
M  V30 34492 C 3193.16 -0.801461 -1.41705 0
M  V30 34493 O 3194.35 -1.07987 -1.4213 0
M  V30 34494 C 3191.45 -2.12763 -2.6379 0
M  V30 34495 C 3190.62 -3.43909 -2.70269 0
M  V30 34496 C 3189.68 -3.54705 -3.88679 0
M  V30 34497 O 3188.71 -4.27527 -3.75779 0
M  V30 34498 N 3189.91 -2.87798 -5.04136 0
M  V30 34499 H 3192.68 -2.83522 -0.971351 0
M  V30 34500 H 3190.24 -1.57257 -0.384948 0
M  V30 34501 H 3192.23 -2.17273 -3.4143 0
M  V30 34502 H 3190.8 -1.26817 -2.8572 0
M  V30 34503 H 3190.02 -3.51265 -1.78903 0
M  V30 34504 H 3191.31 -4.30252 -2.71589 0
M  V30 34505 H 3190.71 -2.28461 -5.17515 0
M  V30 34506 H 3189.26 -2.97936 -5.79722 0
M  V30 34507 N 3192.7 0.462746 -1.50653 0
M  V30 34508 C 3193.94 1.21102 -1.61298 0
M  V30 34509 C 3194.26 1.92918 -0.322791 0
M  V30 34510 O 3195.46 2.69744 -0.308258 0
M  V30 34511 C 3193.92 2.20095 -2.84756 0
M  V30 34512 C 3193.53 1.54044 -4.20683 0
M  V30 34513 C 3195.27 2.95513 -3.0475 0
M  V30 34514 C 3193.18 2.51372 -5.35319 0
M  V30 34515 H 3192.11 0.455717 -0.600698 0
M  V30 34516 H 3194.76 0.480625 -1.77094 0
M  V30 34517 H 3193.14 2.96462 -2.62538 0
M  V30 34518 H 3194.32 0.834088 -4.53188 0
M  V30 34519 H 3192.63 0.908757 -4.06363 0
M  V30 34520 H 3195.23 3.68371 -3.87565 0
M  V30 34521 H 3195.57 3.55387 -2.16808 0
M  V30 34522 H 3196.1 2.26257 -3.27189 0
M  V30 34523 H 3192.84 1.96224 -6.25441 0
M  V30 34524 H 3192.36 3.20135 -5.07222 0
M  V30 34525 H 3194.04 3.1303 -5.66234 0
M  V30 34526 N 3194.17 1.40371 0.716495 0
M  V30 34527 C 3195.42 1.38805 1.47854 0
M  V30 34528 C 3195.75 -0.0100194 1.94197 0
M  V30 34529 O 3195.03 -0.978491 1.68095 0
M  V30 34530 C 3195.31 2.37672 2.70526 0
M  V30 34531 C 3195.16 3.865 2.30083 0
M  V30 34532 C 3196.48 2.34088 3.7268 0
M  V30 34533 H 3193.6 0.505509 0.536311 0
M  V30 34534 H 3196.24 1.715 0.817794 0
M  V30 34535 H 3194.39 2.09922 3.26902 0
M  V30 34536 H 3196.07 4.25073 1.79195 0
M  V30 34537 H 3194.31 4.02377 1.62095 0
M  V30 34538 H 3194.98 4.51191 3.1801 0
M  V30 34539 H 3197.46 2.58666 3.25931 0
M  V30 34540 H 3196.33 3.05314 4.56152 0
M  V30 34541 H 3196.59 1.3522 4.20913 0
M  V30 34542 N 3195.65 -0.948621 1.25853 0
M  V30 34543 C 3196.9 -1.69395 1.10957 0
M  V30 34544 C 3197.23 -1.91354 -0.34841 0
M  V30 34545 O 3196.48 -1.48653 -1.27282 0
M  V30 34546 C 3196.78 -3.07843 1.8157 0
M  V30 34547 C 3196.45 -3.05664 3.31482 0
M  V30 34548 C 3195.11 -3.04777 3.72376 0
M  V30 34549 C 3197.46 -2.98536 4.27231 0
M  V30 34550 C 3194.79 -2.94518 5.07421 0
M  V30 34551 C 3197.14 -2.89818 5.62306 0
M  V30 34552 C 3195.81 -2.8727 6.02522 0
M  V30 34553 H 3195.08 -0.619861 0.406022 0
M  V30 34554 H 3197.72 -1.10784 1.56202 0
M  V30 34555 H 3196.03 -3.70033 1.28774 0
M  V30 34556 H 3197.72 -3.64345 1.67492 0
M  V30 34557 H 3194.31 -3.0713 2.98947 0
M  V30 34558 H 3198.5 -2.98335 3.96623 0
M  V30 34559 H 3193.75 -2.90918 5.37751 0
M  V30 34560 H 3197.93 -2.83264 6.36187 0
M  V30 34561 H 3195.56 -2.79076 7.07121 0
M  V30 34562 N 3197.13 -1.07536 -1.15212 0
M  V30 34563 C 3198.54 -0.822074 -1.67627 0
M  V30 34564 C 3198.89 0.652538 -1.85031 0
M  V30 34565 O 3198.02 1.50495 -1.55499 0
M  V30 34566 C 3198.61 -1.48571 -3.04487 0
M  V30 34567 C 3197.17 -1.27989 -3.53971 0
M  V30 34568 C 3196.32 -1.55418 -2.29653 0
M  V30 34569 H 3199.27 -1.23715 -0.993994 0
M  V30 34570 H 3199.29 -0.907981 -3.69508 0
M  V30 34571 H 3198.8 -2.55894 -2.91788 0
M  V30 34572 H 3196.9 -0.226971 -3.71908 0
M  V30 34573 H 3197.02 -2.00138 -4.35295 0
M  V30 34574 H 3195.38 -0.975293 -2.35287 0
M  V30 34575 H 3196.16 -2.63927 -2.19539 0
M  V30 34576 N 3198.61 1.32084 -0.85974 0
M  V30 34577 C 3199.85 1.97366 -0.466306 0
M  V30 34578 C 3200.19 1.67852 0.976698 0
M  V30 34579 O 3199.46 0.969479 1.68616 0
M  V30 34580 C 3199.75 3.52993 -0.711913 0
M  V30 34581 C 3199.6 3.92118 -2.20371 0
M  V30 34582 C 3200.92 4.39765 -0.171638 0
M  V30 34583 H 3198.04 0.716913 -0.170895 0
M  V30 34584 H 3200.68 1.56382 -1.0791 0
M  V30 34585 H 3198.83 3.88034 -0.190326 0
M  V30 34586 H 3200.5 3.67231 -2.79176 0
M  V30 34587 H 3198.74 3.41094 -2.68025 0
M  V30 34588 H 3199.41 5.0059 -2.32623 0
M  V30 34589 H 3201.89 4.11489 -0.617737 0
M  V30 34590 H 3200.77 5.47631 -0.373017 0
M  V30 34591 H 3201.03 4.32296 0.925883 0
M  V30 34592 N 3200.09 0.618171 1.4497 0
M  V30 34593 C 3201.5 0.201367 1.85611 0
M  V30 34594 C 3201.85 -1.24424 1.51701 0
M  V30 34595 O 3200.97 -1.94492 0.948784 0
M  V30 34596 C 3201.57 0.358678 3.36896 0
M  V30 34597 C 3200.13 -0.0035158 3.764 0
M  V30 34598 C 3199.27 0.678165 2.6888 0
M  V30 34599 H 3202.23 0.824176 1.35621 0
M  V30 34600 H 3202.25 -0.406109 3.78327 0
M  V30 34601 H 3201.76 1.4109 3.61546 0
M  V30 34602 H 3199.86 -1.05451 3.57367 0
M  V30 34603 H 3199.97 0.397511 4.77448 0
M  V30 34604 H 3198.34 0.114744 2.54441 0
M  V30 34605 H 3199.12 1.73273 2.96364 0
M  V30 34606 N 3201.56 -1.53481 0.357946 0
M  V30 34607 C 3202.51 -2.27 -0.507325 0
M  V30 34608 C 3203.51 -1.29687 -1.08985 0
M  V30 34609 O 3204.71 -1.47343 -1.03393 0
M  V30 34610 H 3201.09 -0.729566 -0.182313 0
M  V30 34611 H 3203.06 -2.98096 0.134599 0
M  V30 34612 C 3201.81 -3.06643 -1.63906 0
M  V30 34613 H 3201.13 -3.81363 -1.20011 0
M  V30 34614 H 3202.57 -3.61276 -2.21937 0
M  V30 34615 C 3201.03 -2.17016 -2.57693 0
M  V30 34616 O 3201.56 -1.77584 -3.60315 0
M  V30 34617 N 3199.77 -1.81803 -2.26707 0
M  V30 34618 H 3199.31 -2.14068 -1.43292 0
M  V30 34619 H 3199.27 -1.2212 -2.89714 0
M  V30 34620 N 3203.04 -0.0869173 -1.5736 0
M  V30 34621 C 3204.29 0.578353 -1.9323 0
M  V30 34622 C 3204.6 1.69845 -0.970157 0
M  V30 34623 O 3205.81 2.42432 -1.22226 0
M  V30 34624 C 3204.27 1.08014 -3.43309 0
M  V30 34625 C 3203.87 -0.0097601 -4.47999 0
M  V30 34626 C 3205.62 1.71861 -3.88154 0
M  V30 34627 C 3203.53 0.506925 -5.89223 0
M  V30 34628 H 3202.46 0.21981 -0.721249 0
M  V30 34629 H 3205.11 -0.161598 -1.82787 0
M  V30 34630 H 3203.49 1.87353 -3.48877 0
M  V30 34631 H 3204.66 -0.784944 -4.54065 0
M  V30 34632 H 3202.98 -0.552918 -4.12713 0
M  V30 34633 H 3205.57 2.11577 -4.91059 0
M  V30 34634 H 3205.92 2.58458 -3.26351 0
M  V30 34635 H 3206.45 0.991192 -3.85253 0
M  V30 34636 H 3203.19 -0.322236 -6.54707 0
M  V30 34637 H 3202.71 1.24929 -5.86645 0
M  V30 34638 H 3204.39 0.978515 -6.39558 0
M  V30 34639 N 3204.52 1.5649 0.186734 0
M  V30 34640 C 3205.76 1.82902 0.912491 0
M  V30 34641 C 3206.12 0.665629 1.80093 0
M  V30 34642 O 3207.33 0.809832 2.56311 0
M  V30 34643 C 3205.6 3.14371 1.70017 0
M  V30 34644 S 3207.16 3.62215 2.4768 0
M  V30 34645 H 3203.97 0.641828 0.305905 0
M  V30 34646 H 3206.58 1.94713 0.175255 0
M  V30 34647 H 3205.28 3.9705 1.03825 0
M  V30 34648 H 3204.81 3.0546 2.47907 0
M  V30 34649 H 3206.83 3.28316 3.72053 0
M  V30 34650 N 3206 -0.45475 1.50897 0
M  V30 34651 C 3206.91 -1.57617 1.73764 0
M  V30 34652 C 3207.92 -1.62532 0.621234 0
M  V30 34653 O 3209.1 -1.80098 0.901481 0
M  V30 34654 C 3206.17 -2.93727 1.84188 0
M  V30 34655 C 3205.23 -2.99069 3.07987 0
M  V30 34656 C 3204.46 -4.28687 3.17904 0
M  V30 34657 O 3204.68 -5.20105 2.34194 0
M  V30 34658 O 3203.62 -4.39957 4.10757 0
M  V30 34659 H 3207.44 -1.4124 2.68858 0
M  V30 34660 H 3205.03 -0.63596 1.35188 0
M  V30 34661 H 3206.91 -3.74538 1.9313 0
M  V30 34662 H 3205.58 -3.10268 0.922797 0
M  V30 34663 H 3204.49 -2.17277 3.04535 0
M  V30 34664 H 3205.82 -2.87469 3.99528 0
M  V30 34665 N 3207.48 -1.40749 -0.709041 0
M  V30 34666 C 3208.71 -1.42502 -1.49588 0
M  V30 34667 C 3209.11 -0.0248675 -1.89184 0
M  V30 34668 O 3208.46 0.963082 -1.5643 0
M  V30 34669 C 3208.52 -2.25812 -2.79731 0
M  V30 34670 C 3208.18 -3.74146 -2.62419 0
M  V30 34671 C 3209.18 -4.66628 -2.29248 0
M  V30 34672 C 3206.87 -4.18036 -2.7848 0
M  V30 34673 C 3208.86 -6.00986 -2.12356 0
M  V30 34674 C 3206.55 -5.52463 -2.61205 0
M  V30 34675 C 3207.54 -6.43753 -2.28192 0
M  V30 34676 O 3207.23 -7.757 -2.11055 0
M  V30 34677 H 3206.96 -0.487817 -0.467985 0
M  V30 34678 H 3209.52 -1.85515 -0.881661 0
M  V30 34679 H 3207.75 -1.7759 -3.4351 0
M  V30 34680 H 3209.44 -2.19427 -3.41477 0
M  V30 34681 H 3210.2 -4.34013 -2.16467 0
M  V30 34682 H 3206.08 -3.47295 -3.03162 0
M  V30 34683 H 3209.63 -6.72205 -1.8651 0
M  V30 34684 H 3205.52 -5.84661 -2.73572 0
M  V30 34685 H 3206.29 -7.86702 -2.25924 0
M  V30 34686 N 3208.96 0.941933 -1.26354 0
M  V30 34687 C 3209.89 2.05782 -1.10344 0
M  V30 34688 C 3210.87 1.70098 -0.00884555 0
M  V30 34689 O 3212.05 1.93357 -0.180733 0
M  V30 34690 C 3209.18 3.39437 -0.734848 0
M  V30 34691 C 3208.14 3.8918 -1.7811 0
M  V30 34692 C 3207.46 5.19476 -1.26684 0
M  V30 34693 C 3208.76 4.14145 -3.18247 0
M  V30 34694 H 3210.46 2.19435 -2.03688 0
M  V30 34695 H 3208 1.05442 -0.980717 0
M  V30 34696 H 3209.95 4.16966 -0.609726 0
M  V30 34697 H 3208.68 3.25759 0.234297 0
M  V30 34698 H 3207.34 3.13831 -1.89488 0
M  V30 34699 H 3206.99 5.02177 -0.28756 0
M  V30 34700 H 3206.69 5.53727 -1.96622 0
M  V30 34701 H 3208.21 5.99589 -1.15437 0
M  V30 34702 H 3209.62 4.8229 -3.0995 0
M  V30 34703 H 3208.02 4.59677 -3.85768 0
M  V30 34704 H 3209.09 3.19953 -3.6436 0
M  V30 34705 N 3210.43 1.08146 1.1464 0
M  V30 34706 C 3211.66 0.830898 1.89483 0
M  V30 34707 C 3212.08 -0.616691 1.78444 0
M  V30 34708 O 3211.43 -1.42359 1.14194 0
M  V30 34709 C 3211.48 1.24045 3.39551 0
M  V30 34710 O 3211.21 2.63125 3.50281 0
M  V30 34711 C 3212.71 1.02036 4.31397 0
M  V30 34712 H 3209.93 0.299846 0.600278 0
M  V30 34713 H 3212.47 1.44003 1.45201 0
M  V30 34714 H 3210.63 0.675474 3.81466 0
M  V30 34715 H 3211.04 2.80053 4.43476 0
M  V30 34716 H 3212.51 1.35634 5.35077 0
M  V30 34717 H 3212.99 -0.0427925 4.39179 0
M  V30 34718 H 3213.6 1.57064 3.95236 0
M  V30 34719 N 3211.91 -1.31626 0.866732 0
M  V30 34720 C 3213.33 -1.4952 0.558214 0
M  V30 34721 C 3213.53 -1.79862 -0.908408 0
M  V30 34722 O 3212.58 -1.87534 -1.69077 0
M  V30 34723 C 3213.9 -2.63119 1.45563 0
M  V30 34724 C 3215.44 -2.77003 1.45733 0
M  V30 34725 C 3215.92 -3.93696 2.34024 0
M  V30 34726 N 3217.41 -4.00977 2.31886 0
M  V30 34727 C 3218.15 -4.90534 2.96924 0
M  V30 34728 N 3217.64 -5.85015 3.71119 0
M  V30 34729 N 3219.43 -4.83754 2.86249 0
M  V30 34730 H 3211.59 -1.102 1.81576 0
M  V30 34731 H 3213.85 -0.54423 0.77622 0
M  V30 34732 H 3213.55 -2.47464 2.49909 0
M  V30 34733 H 3213.43 -3.59184 1.15181 0
M  V30 34734 H 3215.82 -2.92075 0.42147 0
M  V30 34735 H 3215.9 -1.81615 1.80137 0
M  V30 34736 H 3215.54 -3.79383 3.37685 0
M  V30 34737 H 3215.47 -4.88385 1.96946 0
M  V30 34738 H 3217.96 -3.33378 1.77954 0
M  V30 34739 H 3218.27 -6.50073 4.17881 0
M  V30 34740 H 3216.62 -5.85004 3.75227 0
M  V30 34741 H 3219.81 -4.08917 2.27826 0
M  V30 34742 H 3219.98 -5.53344 3.37216 0
M  V30 34743 N 3213.39 -0.62585 -1.4464 0
M  V30 34744 C 3214.3 0.0835721 -2.34451 0
M  V30 34745 C 3215.32 0.841263 -1.52311 0
M  V30 34746 O 3216.49 0.794721 -1.85057 0
M  V30 34747 C 3213.56 1.05642 -3.30213 0
M  V30 34748 C 3212.62 0.298683 -4.2826 0
M  V30 34749 C 3211.85 1.22519 -5.19447 0
M  V30 34750 O 3212.07 2.46372 -5.14448 0
M  V30 34751 O 3211.01 0.712365 -5.9767 0
M  V30 34752 H 3214.83 -0.654964 -2.96553 0
M  V30 34753 H 3212.42 -0.386055 -1.44326 0
M  V30 34754 H 3214.3 1.61625 -3.89172 0
M  V30 34755 H 3212.98 1.77566 -2.70651 0
M  V30 34756 H 3211.88 -0.304066 -3.72862 0
M  V30 34757 H 3213.22 -0.380431 -4.90728 0
M  V30 34758 N 3214.87 1.53289 -0.36608 0
M  V30 34759 C 3216.09 2.06156 0.226803 0
M  V30 34760 C 3216.52 1.23779 1.41635 0
M  V30 34761 O 3215.88 0.25698 1.7947 0
M  V30 34762 C 3215.92 3.55609 0.597894 0
M  V30 34763 O 3215.03 3.75954 1.69505 0
M  V30 34764 H 3214.37 0.663184 0.032904 0
M  V30 34765 H 3216.9 1.97701 -0.526828 0
M  V30 34766 H 3216.91 3.98643 0.868761 0
M  V30 34767 H 3215.58 4.1501 -0.271911 0
M  V30 34768 H 3214.16 3.44817 1.4197 0
M  V30 34769 N 3216.35 0.0952613 1.57312 0
M  V30 34770 C 3217.29 -0.86362 2.14033 0
M  V30 34771 C 3218.26 -1.27969 1.05892 0
M  V30 34772 O 3219.45 -1.36141 1.3368 0
M  V30 34773 C 3216.59 -2.11728 2.72517 0
M  V30 34774 C 3215.7 -1.75173 3.9489 0
M  V30 34775 C 3214.84 -2.95326 4.41538 0
M  V30 34776 C 3213.87 -2.54898 5.56501 0
M  V30 34777 N 3213.01 -3.67887 5.98 0
M  V30 34778 H 3217.85 -0.373063 2.95656 0
M  V30 34779 H 3215.39 -0.172472 1.46085 0
M  V30 34780 H 3217.35 -2.85147 3.04544 0
M  V30 34781 H 3215.98 -2.58283 1.93622 0
M  V30 34782 H 3215.03 -0.917215 3.69177 0
M  V30 34783 H 3216.34 -1.41446 4.78325 0
M  V30 34784 H 3215.49 -3.76999 4.75349 0
M  V30 34785 H 3214.23 -3.32263 3.57005 0
M  V30 34786 H 3213.24 -1.71653 5.22317 0
M  V30 34787 H 3214.46 -2.19105 6.42783 0
M  V30 34788 H 3212.41 -4.04542 5.16412 0
M  V30 34789 H 3212.33 -3.38006 6.76231 0
M  V30 34790 H 3213.59 -4.50069 6.36442 0
M  V30 34791 N 3217.82 -1.56587 -0.178432 0
M  V30 34792 C 3219.06 -1.83383 -0.902778 0
M  V30 34793 C 3219.43 -0.675171 -1.79737 0
M  V30 34794 O 3220.63 -0.823413 -2.55878 0
M  V30 34795 C 3218.9 -3.15268 -1.68347 0
M  V30 34796 S 3220.46 -3.63524 -2.45756 0
M  V30 34797 H 3217.28 -0.643441 -0.302497 0
M  V30 34798 H 3219.88 -1.94803 -0.164927 0
M  V30 34799 H 3218.58 -3.97595 -1.01718 0
M  V30 34800 H 3218.11 -3.0677 -2.46283 0
M  V30 34801 H 3220.13 -3.30284 -3.70306 0
M  V30 34802 N 3219.3 0.446741 -1.51136 0
M  V30 34803 C 3220.72 0.782479 -1.39102 0
M  V30 34804 C 3220.92 1.96037 -0.466025 0
M  V30 34805 O 3219.97 2.52366 0.0823235 0
M  V30 34806 C 3221.29 1.07168 -2.80955 0
M  V30 34807 C 3222.83 1.17668 -2.9004 0
M  V30 34808 C 3223.31 1.49886 -4.32779 0
M  V30 34809 N 3224.8 1.56829 -4.35843 0
M  V30 34810 C 3225.54 1.83312 -5.43309 0
M  V30 34811 N 3225.03 2.0765 -6.60949 0
M  V30 34812 N 3226.82 1.85016 -5.30778 0
M  V30 34813 H 3218.98 -0.329151 -2.09834 0
M  V30 34814 H 3221.24 -0.084822 -0.944198 0
M  V30 34815 H 3220.94 0.278976 -3.50592 0
M  V30 34816 H 3220.82 2.00173 -3.19704 0
M  V30 34817 H 3223.21 1.96002 -2.20607 0
M  V30 34818 H 3223.29 0.225847 -2.54801 0
M  V30 34819 H 3222.93 0.720835 -5.02759 0
M  V30 34820 H 3222.86 2.4616 -4.65524 0
M  V30 34821 H 3225.35 1.39962 -3.51026 0
M  V30 34822 H 3225.66 2.27201 -7.38647 0
M  V30 34823 H 3224.01 2.04992 -6.64081 0
M  V30 34824 H 3227.2 1.65515 -4.37861 0
M  V30 34825 H 3227.37 2.05318 -6.14612 0
M  V30 34826 N 3220.78 1.41123 0.701567 0
M  V30 34827 C 3222.03 1.40366 1.46374 0
M  V30 34828 C 3222.36 0.0105784 1.94197 0
M  V30 34829 O 3221.63 -0.960608 1.69123 0
M  V30 34830 C 3221.92 2.40528 2.67989 0
M  V30 34831 C 3221.77 3.88918 2.25971 0
M  V30 34832 C 3223.09 2.38028 3.70177 0
M  V30 34833 H 3220.21 0.511169 0.53092 0
M  V30 34834 H 3222.85 1.72357 0.799558 0
M  V30 34835 H 3221 2.13377 3.24657 0
M  V30 34836 H 3222.67 4.26949 1.74676 0
M  V30 34837 H 3220.91 4.04074 1.57818 0
M  V30 34838 H 3221.59 4.54539 3.13207 0
M  V30 34839 H 3224.06 2.62109 3.23169 0
M  V30 34840 H 3222.94 3.10135 4.52888 0
M  V30 34841 H 3223.2 1.39677 4.19455 0
M  V30 34842 N 3222.26 -0.935219 1.26852 0
M  V30 34843 C 3223.5 -1.68209 1.12748 0
M  V30 34844 C 3223.83 -1.91713 -0.328094 0
M  V30 34845 O 3223.09 -1.49995 -1.25698 0
M  V30 34846 C 3223.39 -3.05899 1.84825 0
M  V30 34847 C 3223.05 -3.02131 3.34705 0
M  V30 34848 C 3221.71 -3.00811 3.75588 0
M  V30 34849 C 3224.07 -2.93987 4.30373 0
M  V30 34850 C 3221.39 -2.8912 5.10516 0
M  V30 34851 C 3223.75 -2.83838 5.65348 0
M  V30 34852 C 3222.41 -2.80863 6.05535 0
M  V30 34853 H 3221.68 -0.615519 0.412573 0
M  V30 34854 H 3224.33 -1.09121 1.57368 0
M  V30 34855 H 3222.63 -3.68647 1.32691 0
M  V30 34856 H 3224.33 -3.62548 1.71347 0
M  V30 34857 H 3220.92 -3.03942 3.02187 0
M  V30 34858 H 3225.1 -2.94111 3.99765 0
M  V30 34859 H 3220.36 -2.85198 5.40807 0
M  V30 34860 H 3224.53 -2.76501 6.39156 0
M  V30 34861 H 3222.16 -2.71561 7.10041 0
M  V30 34862 N 3223.74 -1.08752 -1.14065 0
M  V30 34863 C 3224.68 -0.715234 -2.2133 0
M  V30 34864 C 3225.68 0.28065 -1.67059 0
M  V30 34865 O 3226.88 0.142842 -1.79432 0
M  V30 34866 H 3223.26 -0.213277 -0.721122 0
M  V30 34867 H 3225.23 -1.62921 -2.49999 0
M  V30 34868 C 3223.98 -0.144462 -3.474 0
M  V30 34869 H 3223.3 -0.901953 -3.89493 0
M  V30 34870 H 3224.74 0.0781819 -4.23928 0
M  V30 34871 C 3223.2 1.11856 -3.17789 0
M  V30 34872 O 3223.73 2.20289 -3.3591 0
M  V30 34873 N 3221.94 1.03034 -2.71721 0
M  V30 34874 H 3221.48 0.147885 -2.57175 0
M  V30 34875 H 3221.44 1.87617 -2.52284 0
M  V30 34876 N 3225.21 1.31165 -0.873701 0
M  V30 34877 C 3226.44 2.00741 -0.501079 0
M  V30 34878 C 3226.86 1.65562 0.907447 0
M  V30 34879 O 3226.21 0.886799 1.59506 0
M  V30 34880 C 3226.27 3.55554 -0.652939 0
M  V30 34881 O 3225.99 3.89476 -2.006 0
M  V30 34882 C 3227.49 4.42403 -0.28182 0
M  V30 34883 H 3224.71 0.642089 -0.19484 0
M  V30 34884 H 3227.25 1.67311 -1.1759 0
M  V30 34885 H 3225.41 3.87392 -0.0256308 0
M  V30 34886 H 3225.82 4.84189 -2.01646 0
M  V30 34887 H 3227.29 5.50251 -0.439017 0
M  V30 34888 H 3227.77 4.32231 0.779313 0
M  V30 34889 H 3228.38 4.15991 -0.884983 0
M  V30 34890 N 3226.69 0.633512 1.44307 0
M  V30 34891 C 3227.92 0.1461 2.06384 0
M  V30 34892 C 3228.34 -1.18029 1.47359 0
M  V30 34893 O 3227.69 -1.72447 0.597364 0
M  V30 34894 C 3227.74 0.0277357 3.61489 0
M  V30 34895 O 3227.46 1.30167 4.18316 0
M  V30 34896 C 3228.97 -0.48809 4.40605 0
M  V30 34897 H 3226.19 0.0807749 0.66612 0
M  V30 34898 H 3228.73 0.868589 1.85137 0
M  V30 34899 H 3226.88 -0.645206 3.81989 0
M  V30 34900 H 3227.3 1.14806 5.11781 0
M  V30 34901 H 3228.77 -0.519916 5.49546 0
M  V30 34902 H 3229.25 -1.51561 4.12221 0
M  V30 34903 H 3229.86 0.151683 4.25029 0
M  V30 34904 N 3228.17 -1.53093 0.374204 0
M  V30 34905 C 3229.08 -2.29722 -0.475894 0
M  V30 34906 C 3230.1 -1.36031 -1.08497 0
M  V30 34907 O 3231.27 -1.69093 -1.09405 0
M  V30 34908 C 3228.34 -3.07797 -1.59567 0
M  V30 34909 C 3227.4 -4.17171 -1.01325 0
M  V30 34910 C 3226.63 -4.91514 -2.07966 0
M  V30 34911 O 3226.85 -4.65798 -3.29223 0
M  V30 34912 O 3225.79 -5.77235 -1.7054 0
M  V30 34913 H 3229.61 -3.0334 0.147931 0
M  V30 34914 H 3227.2 -1.48758 0.138338 0
M  V30 34915 H 3229.08 -3.56524 -2.24652 0
M  V30 34916 H 3227.76 -2.37008 -2.20474 0
M  V30 34917 H 3226.66 -3.72676 -0.326067 0
M  V30 34918 H 3228 -4.90151 -0.448613 0
M  V30 34919 N 3229.65 -0.103603 -1.57259 0
M  V30 34920 C 3231.06 0.253035 -1.57581 0
M  V30 34921 C 3231.26 1.67817 -1.11534 0
M  V30 34922 O 3230.32 2.39636 -0.795674 0
M  V30 34923 C 3231.63 0.0337224 -3.00681 0
M  V30 34924 C 3233.18 0.100815 -3.12838 0
M  V30 34925 C 3233.66 -0.09061 -4.5791 0
M  V30 34926 N 3235.15 -0.0360604 -4.63186 0
M  V30 34927 C 3235.88 -0.159299 -5.73179 0
M  V30 34928 N 3235.38 -0.337849 -6.91976 0
M  V30 34929 N 3237.17 -0.099965 -5.62011 0
M  V30 34930 H 3229.32 -1.03464 -1.85497 0
M  V30 34931 H 3231.59 -0.406178 -0.856577 0
M  V30 34932 H 3231.29 -0.950918 -3.38601 0
M  V30 34933 H 3231.17 0.772341 -3.69208 0
M  V30 34934 H 3233.55 1.07597 -2.74785 0
M  V30 34935 H 3233.63 -0.669433 -2.46885 0
M  V30 34936 H 3233.28 -1.06267 -4.96659 0
M  V30 34937 H 3233.21 0.699436 -5.21934 0
M  V30 34938 H 3235.7 0.0990546 -3.7777 0
M  V30 34939 H 3236.01 -0.423168 -7.71641 0
M  V30 34940 H 3234.36 -0.373626 -6.93995 0
M  V30 34941 H 3237.55 0.0384534 -4.68084 0
M  V30 34942 H 3237.72 -0.199456 -6.47693 0
M  V30 34943 N 3231.13 1.56679 0.170126 0
M  V30 34944 C 3232.4 1.72937 0.913908 0
M  V30 34945 C 3232.78 0.665328 2.00341 0
M  V30 34946 O 3232.13 -0.319676 2.26253 0
M  V30 34947 C 3232.34 3.16179 1.47755 0
M  V30 34948 C 3233.69 3.77174 1.95001 0
M  V30 34949 O 3234.71 3.19465 1.57546 0
M  V30 34950 O 3233.57 4.78505 2.63998 0
M  V30 34951 H 3230.67 0.706263 0.430257 0
M  V30 34952 H 3233.21 1.68964 0.157861 0
M  V30 34953 H 3231.98 3.85106 0.693452 0
M  V30 34954 H 3231.61 3.24483 2.29775 0
M  V30 34955 N 3232.6 -0.43872 1.5137 0
M  V30 34956 C 3233.51 -1.55765 1.75426 0
M  V30 34957 C 3234.53 -1.61864 0.638438 0
M  V30 34958 O 3235.71 -1.79132 0.920532 0
M  V30 34959 C 3232.77 -2.91757 1.87293 0
M  V30 34960 C 3231.83 -2.95786 3.11142 0
M  V30 34961 C 3231.07 -4.25291 3.22433 0
M  V30 34962 O 3231.29 -5.17592 2.39697 0
M  V30 34963 O 3230.22 -4.35576 4.154 0
M  V30 34964 H 3234.05 -1.38381 2.70341 0
M  V30 34965 H 3231.63 -0.621586 1.35855 0
M  V30 34966 H 3233.52 -3.72469 1.97091 0
M  V30 34967 H 3232.19 -3.09272 0.955653 0
M  V30 34968 H 3231.1 -2.14034 3.06823 0
M  V30 34969 H 3232.43 -2.83216 4.02554 0
M  V30 34970 N 3234.08 -1.41493 -0.694073 0
M  V30 34971 C 3235.01 -1.39392 -1.81941 0
M  V30 34972 C 3236.03 -0.295864 -1.60089 0
M  V30 34973 O 3237.22 -0.557688 -1.69564 0
M  V30 34974 C 3234.32 -1.15173 -3.18729 0
M  V30 34975 C 3233.49 -2.37047 -3.67597 0
M  V30 34976 C 3232.55 -2.08662 -4.8306 0
M  V30 34977 O 3231.57 -2.81712 -4.94598 0
M  V30 34978 N 3232.78 -1.0778 -5.70407 0
M  V30 34979 H 3235.54 -2.36384 -1.84235 0
M  V30 34980 H 3233.1 -1.36125 -0.876451 0
M  V30 34981 H 3235.09 -0.941333 -3.936 0
M  V30 34982 H 3233.66 -0.267727 -3.11451 0
M  V30 34983 H 3232.88 -2.73779 -2.83617 0
M  V30 34984 H 3234.17 -3.18246 -3.96985 0
M  V30 34985 H 3233.57 -0.473223 -5.63717 0
M  V30 34986 H 3232.13 -0.927291 -6.4517 0
M  V30 34987 N 3235.56 0.928479 -1.27346 0
M  V30 34988 C 3236.81 1.67277 -1.13414 0
M  V30 34989 C 3237.13 1.92345 0.320664 0
M  V30 34990 O 3236.4 1.52917 1.22447 0
M  V30 34991 H 3234.98 0.619961 -0.416722 0
M  V30 34992 H 3237.64 1.1149 -1.59862 0
M  V30 34993 H 3236.74 2.64128 -1.66261 0
M  V30 34994 N 3237.04 1.09355 1.13486 0
M  V30 34995 C 3238.26 0.851114 1.89132 0
M  V30 34996 C 3238.69 -0.591944 1.78543 0
M  V30 34997 O 3238.05 -1.41581 1.13246 0
M  V30 34998 C 3238.09 1.29007 3.36734 0
M  V30 34999 O 3237.2 0.448065 4.09959 0
M  V30 35000 H 3236.54 0.308306 0.588084 0
M  V30 35001 H 3239.07 1.4575 1.4359 0
M  V30 35002 H 3239.08 1.27515 3.87561 0
M  V30 35003 H 3237.75 2.34101 3.43758 0
M  V30 35004 H 3236.33 0.527235 3.69154 0
M  V30 35005 N 3238.52 -1.307 0.880644 0
M  V30 35006 C 3239.46 -2.28246 0.342437 0
M  V30 35007 C 3240.43 -1.56195 -0.564996 0
M  V30 35008 O 3241.62 -1.84285 -0.494345 0
M  V30 35009 C 3238.76 -3.42273 -0.440799 0
M  V30 35010 C 3237.87 -4.29151 0.49536 0
M  V30 35011 C 3237.01 -5.30335 -0.303047 0
M  V30 35012 C 3236.05 -6.08861 0.628858 0
M  V30 35013 N 3235.18 -7.01972 -0.133957 0
M  V30 35014 H 3240.02 -2.73667 1.17943 0
M  V30 35015 H 3237.56 -1.34618 0.592984 0
M  V30 35016 H 3239.52 -4.07137 -0.910782 0
M  V30 35017 H 3238.15 -2.97933 -1.2424 0
M  V30 35018 H 3237.2 -3.64633 1.08382 0
M  V30 35019 H 3238.51 -4.83914 1.20948 0
M  V30 35020 H 3237.67 -6.00925 -0.835075 0
M  V30 35021 H 3236.41 -4.76254 -1.05041 0
M  V30 35022 H 3235.41 -5.37151 1.17255 0
M  V30 35023 H 3236.64 -6.65029 1.37524 0
M  V30 35024 H 3234.58 -6.50286 -0.863932 0
M  V30 35025 H 3234.5 -7.54205 0.520618 0
M  V30 35026 H 3235.77 -7.76811 -0.646868 0
M  V30 35027 N 3240 -0.641156 -1.43969 0
M  V30 35028 C 3241.24 -0.149886 -2.02245 0
M  V30 35029 C 3241.57 1.22869 -1.50389 0
M  V30 35030 O 3240.85 1.81772 -0.692035 0
M  V30 35031 C 3241.13 -0.147512 -3.59798 0
M  V30 35032 C 3240.99 -1.55914 -4.21913 0
M  V30 35033 C 3242.3 0.52259 -4.36986 0
M  V30 35034 H 3239.42 -0.0559403 -0.734874 0
M  V30 35035 H 3242.07 -0.819543 -1.71416 0
M  V30 35036 H 3240.22 0.422721 -3.86193 0
M  V30 35037 H 3241.89 -2.17903 -4.0659 0
M  V30 35038 H 3240.13 -2.11004 -3.79024 0
M  V30 35039 H 3240.8 -1.50943 -5.30962 0
M  V30 35040 H 3243.28 0.0375494 -4.16083 0
M  V30 35041 H 3242.15 0.493476 -5.46677 0
M  V30 35042 H 3242.41 1.59468 -4.12338 0
M  V30 35043 N 3241.47 1.52892 -0.382318 0
M  V30 35044 C 3242.42 2.27778 0.471147 0
M  V30 35045 C 3243.42 1.31404 1.06908 0
M  V30 35046 O 3244.62 1.48969 1.01036 0
M  V30 35047 H 3241 0.732374 0.170683 0
M  V30 35048 H 3242.97 2.97844 -0.182007 0
M  V30 35049 C 3241.72 3.09212 1.59007 0
M  V30 35050 H 3241.04 3.83224 1.13928 0
M  V30 35051 H 3242.48 3.64761 2.16161 0
M  V30 35052 C 3240.94 2.21088 2.54208 0
M  V30 35053 O 3241.47 1.83294 3.57444 0
M  V30 35054 N 3239.67 1.85387 2.23786 0
M  V30 35055 H 3239.22 2.1632 1.39869 0
M  V30 35056 H 3239.18 1.26714 2.87734 0
M  V30 35057 N 3242.95 0.111941 1.57202 0
M  V30 35058 C 3244.23 -0.590939 1.8646 0
M  V30 35059 C 3244.61 -1.85269 1.01185 0
M  V30 35060 O 3243.96 -2.28327 0.0888292 0
M  V30 35061 C 3244.17 -0.890166 3.37457 0
M  V30 35062 C 3245.51 -1.2463 4.05897 0
M  V30 35063 O 3246.54 -0.980652 3.42435 0
M  V30 35064 O 3245.4 -1.74456 5.17907 0
M  V30 35065 H 3242.49 -0.297445 0.771658 0
M  V30 35066 H 3245.04 0.145912 1.69072 0
M  V30 35067 H 3243.81 0.0042589 3.913 0
M  V30 35068 H 3243.43 -1.68242 3.60251 0
M  V30 35069 N 3244.43 -1.56767 -0.161814 0
M  V30 35070 C 3245.68 -1.82529 -0.876892 0
M  V30 35071 C 3246 -0.690524 -1.8183 0
M  V30 35072 O 3245.26 0.321556 -1.9304 0
M  V30 35073 C 3245.56 -3.14525 -1.69731 0
M  V30 35074 C 3245.22 -4.41745 -0.903997 0
M  V30 35075 C 3243.89 -4.76298 -0.685084 0
M  V30 35076 C 3246.24 -5.20036 -0.34819 0
M  V30 35077 C 3243.57 -5.86614 0.100583 0
M  V30 35078 C 3245.92 -6.31175 0.424438 0
M  V30 35079 C 3244.58 -6.64288 0.654065 0
M  V30 35080 H 3243.85 -0.667921 -0.320878 0
M  V30 35081 H 3246.5 -1.90978 -0.141304 0
M  V30 35082 H 3244.8 -3.01461 -2.50257 0
M  V30 35083 H 3246.5 -3.3167 -2.2538 0
M  V30 35084 H 3243.09 -4.14648 -1.08467 0
M  V30 35085 H 3247.28 -4.93728 -0.504634 0
M  V30 35086 H 3242.53 -6.10721 0.288136 0
M  V30 35087 H 3246.71 -6.9104 0.862325 0
M  V30 35088 H 3244.33 -7.49606 1.26473 0
M  V30 35089 N 3245.91 0.430686 -1.51601 0
M  V30 35090 C 3247.15 1.17956 -1.64598 0
M  V30 35091 C 3247.48 1.91037 -0.365415 0
M  V30 35092 O 3246.74 1.84562 0.650794 0
M  V30 35093 C 3247.04 2.21604 -2.80404 0
M  V30 35094 C 3246.7 1.65487 -4.19434 0
M  V30 35095 C 3245.36 1.49907 -4.57254 0
M  V30 35096 C 3247.72 1.24295 -5.06162 0
M  V30 35097 C 3245.04 0.916174 -5.79502 0
M  V30 35098 C 3247.4 0.674327 -6.28996 0
M  V30 35099 C 3246.06 0.505474 -6.65583 0
M  V30 35100 H 3245.33 0.431631 -0.602308 0
M  V30 35101 H 3247.98 0.469693 -1.85651 0
M  V30 35102 H 3246.28 2.98654 -2.536 0
M  V30 35103 H 3247.98 2.7938 -2.87659 0
M  V30 35104 H 3244.57 1.78592 -3.89619 0
M  V30 35105 H 3248.75 1.3515 -4.77544 0
M  V30 35106 H 3244.01 0.773173 -6.06492 0
M  V30 35107 H 3248.18 0.346657 -6.95537 0
M  V30 35108 H 3245.81 0.0516852 -7.60182 0
M  V30 35109 N 3247.39 1.4186 0.686559 0
M  V30 35110 C 3248.32 1.40355 1.81199 0
M  V30 35111 C 3249.33 0.30435 1.5993 0
M  V30 35112 O 3250.52 0.566673 1.69266 0
M  V30 35113 C 3247.62 1.16862 3.18114 0
M  V30 35114 C 3246.79 2.38993 3.66335 0
M  V30 35115 C 3245.85 2.11221 4.81946 0
M  V30 35116 O 3244.88 2.84331 4.93097 0
M  V30 35117 N 3246.08 1.10803 5.69827 0
M  V30 35118 H 3248.84 2.37358 1.82979 0
M  V30 35119 H 3246.41 1.36588 0.86922 0
M  V30 35120 H 3248.4 0.962194 3.93095 0
M  V30 35121 H 3246.97 0.284241 3.11305 0
M  V30 35122 H 3246.19 2.75279 2.82161 0
M  V30 35123 H 3247.48 3.20347 3.95292 0
M  V30 35124 H 3246.87 0.503111 5.63458 0
M  V30 35125 H 3245.43 0.961492 6.44669 0
M  V30 35126 N 3248.86 -0.921712 1.27837 0
M  V30 35127 C 3249.8 -2.02756 1.06877 0
M  V30 35128 C 3250.81 -1.62784 0.0229704 0
M  V30 35129 O 3252 -1.76519 0.265176 0
M  V30 35130 C 3249.1 -3.33539 0.600429 0
M  V30 35131 C 3248.27 -4.02169 1.71986 0
M  V30 35132 C 3247.33 -5.11229 1.24624 0
M  V30 35133 O 3246.36 -5.34864 1.94701 0
M  V30 35134 N 3247.56 -5.80405 0.105123 0
M  V30 35135 H 3250.32 -2.21297 2.02108 0
M  V30 35136 H 3247.88 -1.09249 1.19483 0
M  V30 35137 H 3249.88 -4.03816 0.267352 0
M  V30 35138 H 3248.45 -3.11527 -0.258817 0
M  V30 35139 H 3247.67 -3.25545 2.22292 0
M  V30 35140 H 3248.95 -4.44768 2.471 0
M  V30 35141 H 3248.35 -5.63663 -0.479646 0
M  V30 35142 H 3246.91 -6.51582 -0.168732 0
M  V30 35143 N 3250.34 -1.09956 -1.12905 0
M  V30 35144 C 3251.57 -0.860938 -1.88137 0
M  V30 35145 C 3251.98 0.588224 -1.79403 0
M  V30 35146 O 3251.34 1.40524 -1.16444 0
M  V30 35147 C 3251.39 -1.29431 -3.37535 0
M  V30 35148 O 3251.11 -2.68664 -3.46051 0
M  V30 35149 C 3252.61 -1.08886 -4.29719 0
M  V30 35150 H 3249.83 -0.309358 -0.595432 0
M  V30 35151 H 3252.38 -1.46295 -1.42892 0
M  V30 35152 H 3250.53 -0.736076 -3.80343 0
M  V30 35153 H 3250.95 -2.87073 -4.38964 0
M  V30 35154 H 3252.42 -1.4413 -5.32851 0
M  V30 35155 H 3252.9 -0.0270825 -4.39192 0
M  V30 35156 H 3253.5 -1.63332 -3.92687 0
M  V30 35157 N 3251.82 1.30231 -0.887563 0
M  V30 35158 C 3252.73 2.31816 -0.360374 0
M  V30 35159 C 3253.75 1.65451 0.538712 0
M  V30 35160 O 3254.92 1.9673 0.431211 0
M  V30 35161 C 3251.99 3.44216 0.414276 0
M  V30 35162 C 3251.05 4.26201 -0.514874 0
M  V30 35163 C 3250.28 5.33234 0.222901 0
M  V30 35164 O 3250.5 5.51699 1.44862 0
M  V30 35165 O 3249.44 6.00374 -0.428327 0
M  V30 35166 H 3253.26 2.78865 -1.20284 0
M  V30 35167 H 3250.85 1.34447 -0.651483 0
M  V30 35168 H 3252.73 4.12681 0.852787 0
M  V30 35169 H 3251.41 2.99297 1.233 0
M  V30 35170 H 3250.31 3.60424 -1.00225 0
M  V30 35171 H 3251.65 4.74731 -1.29967 0
M  V30 35172 N 3253.3 0.648782 1.43627 0
M  V30 35173 C 3254.58 0.0904894 1.95391 0
M  V30 35174 C 3254.96 -1.38834 1.59023 0
M  V30 35175 O 3254.3 -2.11161 0.873115 0
M  V30 35176 C 3254.51 0.332021 3.47417 0
M  V30 35177 C 3255.86 0.234595 4.23951 0
M  V30 35178 O 3256.89 0.264339 3.55218 0
M  V30 35179 O 3255.74 0.154524 5.46281 0
M  V30 35180 H 3252.84 -0.0121738 0.82691 0
M  V30 35181 H 3255.38 0.721712 1.53588 0
M  V30 35182 H 3254.16 1.35748 3.66999 0
M  V30 35183 H 3253.78 -0.332486 3.96207 0
M  V30 35184 N 3254.78 -1.52688 0.390421 0
M  V30 35185 C 3255.71 -2.294 -0.435629 0
M  V30 35186 C 3256.69 -1.32834 -1.0625 0
M  V30 35187 O 3257.87 -1.61728 -1.07506 0
M  V30 35188 C 3255 -3.10165 -1.56254 0
M  V30 35189 C 3253.96 -4.14624 -1.06165 0
M  V30 35190 C 3253.28 -4.83619 -2.28071 0
M  V30 35191 C 3254.58 -5.22141 -0.12881 0
M  V30 35192 H 3256.28 -2.98701 0.204437 0
M  V30 35193 H 3253.82 -1.43654 0.0997629 0
M  V30 35194 H 3255.78 -3.62589 -2.14725 0
M  V30 35195 H 3254.5 -2.38599 -2.23021 0
M  V30 35196 H 3253.16 -3.63182 -0.499455 0
M  V30 35197 H 3252.81 -4.08601 -2.93351 0
M  V30 35198 H 3252.51 -5.54224 -1.95217 0
M  V30 35199 H 3254.03 -5.38849 -2.87183 0
M  V30 35200 H 3255.44 -5.69919 -0.621749 0
M  V30 35201 H 3253.84 -5.99999 0.110024 0
M  V30 35202 H 3254.91 -4.77883 0.821968 0
M  V30 35203 N 3256.25 -0.120276 -1.5714 0
M  V30 35204 C 3257.48 0.544311 -1.99301 0
M  V30 35205 C 3257.89 1.60683 -0.998886 0
M  V30 35206 O 3257.24 1.83693 0.0161874 0
M  V30 35207 C 3257.3 1.22802 -3.37876 0
M  V30 35208 C 3256.96 0.313294 -4.55925 0
M  V30 35209 C 3257.96 -0.448592 -5.17961 0
M  V30 35210 C 3255.64 0.223993 -5.018 0
M  V30 35211 C 3257.64 -1.2875 -6.24261 0
M  V30 35212 C 3255.32 -0.618543 -6.07962 0
M  V30 35213 C 3256.32 -1.37292 -6.69059 0
M  V30 35214 O 3256.01 -2.20146 -7.73169 0
M  V30 35215 H 3255.74 0.148584 -0.659469 0
M  V30 35216 H 3258.3 -0.203815 -2.04386 0
M  V30 35217 H 3256.53 2.02324 -3.29548 0
M  V30 35218 H 3258.22 1.78964 -3.64317 0
M  V30 35219 H 3258.98 -0.38948 -4.83434 0
M  V30 35220 H 3254.86 0.80086 -4.5399 0
M  V30 35221 H 3258.4 -1.87679 -6.7188 0
M  V30 35222 H 3254.3 -0.679045 -6.41918 0
M  V30 35223 H 3255.07 -2.13102 -7.90272 0
M  V30 35224 N 3257.73 1.56851 0.153498 0
M  V30 35225 C 3258.68 1.98715 1.20893 0
M  V30 35226 C 3259.67 0.878554 1.44837 0
M  V30 35227 O 3260.88 1.06372 1.45207 0
M  V30 35228 H 3257.26 0.632479 0.406785 0
M  V30 35229 H 3259.23 2.86651 0.829095 0
M  V30 35230 C 3257.98 2.3783 2.53638 0
M  V30 35231 H 3257.3 3.22683 2.36041 0
M  V30 35232 H 3258.74 2.70951 3.26131 0
M  V30 35233 C 3257.2 1.22847 3.13704 0
M  V30 35234 O 3257.73 0.525696 3.98245 0
M  V30 35235 N 3255.93 0.994398 2.73057 0
M  V30 35236 H 3255.48 1.56765 2.04408 0
M  V30 35237 H 3255.44 0.226939 3.1358 0
M  V30 35238 N 3259.21 -0.42264 1.51827 0
M  V30 35239 C 3260.12 -1.53896 1.77069 0
M  V30 35240 C 3261.14 -1.61178 0.65557 0
M  V30 35241 O 3262.31 -1.78145 0.939479 0
M  V30 35242 C 3259.38 -2.89754 1.90377 0
M  V30 35243 C 3258.44 -2.92469 3.14262 0
M  V30 35244 C 3257.67 -4.21848 3.26926 0
M  V30 35245 O 3257.89 -5.15021 2.45173 0
M  V30 35246 O 3256.83 -4.31145 4.19997 0
M  V30 35247 H 3260.65 -1.35506 2.71794 0
M  V30 35248 H 3258.24 -0.607141 1.36507 0
M  V30 35249 H 3260.12 -3.70357 2.01031 0
M  V30 35250 H 3258.8 -3.08241 0.988402 0
M  V30 35251 H 3257.7 -2.10768 3.09075 0
M  V30 35252 H 3259.04 -2.7893 4.05535 0
M  V30 35253 N 3260.69 -1.42222 -0.679027 0
M  V30 35254 C 3261.62 -1.39797 -1.80366 0
M  V30 35255 C 3262.6 -0.262834 -1.60462 0
M  V30 35256 O 3263.78 -0.452384 -1.82991 0
M  V30 35257 C 3260.91 -1.18477 -3.17303 0
M  V30 35258 C 3259.96 -2.34928 -3.55965 0
M  V30 35259 S 3260.79 -3.97452 -3.58877 0
M  V30 35260 C 3261.95 -3.78466 -4.98512 0
M  V30 35261 H 3262.18 -2.34967 -1.82148 0
M  V30 35262 H 3259.71 -1.28943 -0.849297 0
M  V30 35263 H 3261.67 -1.06863 -3.96347 0
M  V30 35264 H 3260.33 -0.248999 -3.13111 0
M  V30 35265 H 3259.52 -2.15748 -4.55488 0
M  V30 35266 H 3259.13 -2.43035 -2.84271 0
M  V30 35267 H 3261.42 -3.39195 -5.86475 0
M  V30 35268 H 3262.36 -4.7765 -5.22739 0
M  V30 35269 H 3262.77 -3.11414 -4.70831 0
M  V30 35270 N 3262.17 0.91492 -1.28324 0
M  V30 35271 C 3263.11 2.0172 -1.1215 0
M  V30 35272 C 3264.08 1.66089 -0.0189571 0
M  V30 35273 O 3265.27 1.89914 -0.183672 0
M  V30 35274 C 3262.41 3.3598 -0.788139 0
M  V30 35275 C 3261.52 3.84487 -1.9696 0
M  V30 35276 C 3260.66 5.07252 -1.57697 0
M  V30 35277 C 3259.7 5.48089 -2.72516 0
M  V30 35278 N 3258.83 6.62045 -2.33753 0
M  V30 35279 H 3263.67 2.14887 -2.06465 0
M  V30 35280 H 3261.21 1.05255 -1.02761 0
M  V30 35281 H 3263.17 4.1321 -0.575618 0
M  V30 35282 H 3261.8 3.22584 0.118076 0
M  V30 35283 H 3260.85 3.03425 -2.29429 0
M  V30 35284 H 3262.16 4.10714 -2.83047 0
M  V30 35285 H 3261.32 5.92022 -1.32645 0
M  V30 35286 H 3260.05 4.82832 -0.687376 0
M  V30 35287 H 3259.06 4.61862 -2.98268 0
M  V30 35288 H 3260.28 5.74499 -3.62116 0
M  V30 35289 H 3258.23 6.39257 -1.47261 0
M  V30 35290 H 3258.15 6.87991 -3.13376 0
M  V30 35291 H 3259.42 7.50123 -2.11981 0
M  V30 35292 N 3263.64 1.10553 1.1232 0
M  V30 35293 C 3264.89 0.859859 1.84331 0
M  V30 35294 C 3265.25 -0.60802 1.8254 0
M  V30 35295 O 3264.54 -1.44265 1.26088 0
M  V30 35296 C 3264.73 1.3438 3.31175 0
M  V30 35297 C 3264.56 2.8572 3.47267 0
M  V30 35298 C 3263.33 3.53736 3.60831 0
M  V30 35299 C 3265.53 3.83817 3.42329 0
M  V30 35300 N 3263.51 4.93385 3.65301 0
M  V30 35301 C 3264.88 5.09483 3.53309 0
M  V30 35302 C 3266.94 3.76507 3.25802 0
M  V30 35303 C 3265.64 6.28702 3.49466 0
M  V30 35304 C 3267.67 4.95226 3.23273 0
M  V30 35305 C 3267.03 6.19741 3.34815 0
M  V30 35306 H 3263.13 0.367663 0.690179 0
M  V30 35307 H 3265.71 1.40813 1.34461 0
M  V30 35308 H 3263.88 0.822833 3.79584 0
M  V30 35309 H 3265.61 1.04224 3.91049 0
M  V30 35310 H 3262.37 3.04184 3.63 0
M  V30 35311 H 3262.79 5.66164 3.71197 0
M  V30 35312 H 3267.44 2.81154 3.15772 0
M  V30 35313 H 3265.15 7.24341 3.58267 0
M  V30 35314 H 3268.74 4.9128 3.11665 0
M  V30 35315 H 3267.62 7.10064 3.32834 0
M  V30 35316 N 3265.12 -1.29758 0.894457 0
M  V30 35317 C 3266.05 -2.26876 0.325565 0
M  V30 35318 C 3267.07 -1.54096 -0.525191 0
M  V30 35319 O 3268.26 -1.7517 -0.343201 0
M  V30 35320 C 3265.36 -3.34326 -0.554893 0
M  V30 35321 C 3264.53 -4.36572 0.268945 0
M  V30 35322 C 3263.59 -5.23386 -0.543509 0
M  V30 35323 O 3262.61 -5.69188 0.0371455 0
M  V30 35324 N 3263.82 -5.50209 -1.85069 0
M  V30 35325 H 3266.58 -2.7633 1.16025 0
M  V30 35326 H 3264.14 -1.43038 0.758407 0
M  V30 35327 H 3266.13 -3.89331 -1.10469 0
M  V30 35328 H 3264.7 -2.8473 -1.29026 0
M  V30 35329 H 3263.92 -3.81301 1.00017 0
M  V30 35330 H 3265.21 -5.01929 0.833337 0
M  V30 35331 H 3264.61 -5.14796 -2.34524 0
M  V30 35332 H 3263.17 -6.0805 -2.34773 0
M  V30 35333 N 3266.6 -0.65639 -1.4328 0
M  V30 35334 C 3267.55 0.0332749 -2.30776 0
M  V30 35335 C 3268.52 0.811468 -1.44929 0
M  V30 35336 O 3269.7 0.787434 -1.73793 0
M  V30 35337 C 3266.84 0.991508 -3.3055 0
M  V30 35338 C 3265.96 0.209083 -4.31494 0
M  V30 35339 C 3265.09 1.1614 -5.18348 0
M  V30 35340 C 3264.13 0.369592 -6.10983 0
M  V30 35341 N 3263.27 1.27366 -6.90451 0
M  V30 35342 H 3268.11 -0.718718 -2.89203 0
M  V30 35343 H 3265.64 -0.366186 -1.42469 0
M  V30 35344 H 3267.6 1.56071 -3.86908 0
M  V30 35345 H 3266.23 1.71034 -2.73765 0
M  V30 35346 H 3265.28 -0.47646 -3.77404 0
M  V30 35347 H 3266.6 -0.406481 -4.97141 0
M  V30 35348 H 3265.75 1.80114 -5.79348 0
M  V30 35349 H 3264.49 1.81087 -4.52834 0
M  V30 35350 H 3263.49 -0.283474 -5.49069 0
M  V30 35351 H 3264.72 -0.275519 -6.78541 0
M  V30 35352 H 3262.66 1.90988 -6.27582 0
M  V30 35353 H 3262.58 0.712738 -7.52633 0
M  V30 35354 H 3263.85 1.90145 -7.55953 0
M  V30 35355 N 3268.08 1.52478 -0.398513 0
M  V30 35356 C 3269.03 2.26718 0.432172 0
M  V30 35357 C 3270 1.28698 1.05005 0
M  V30 35358 O 3271.18 1.57543 1.07633 0
M  V30 35359 C 3268.32 3.08402 1.54862 0
M  V30 35360 C 3267.43 4.21364 0.952705 0
M  V30 35361 C 3266.57 4.90426 2.04097 0
M  V30 35362 C 3265.61 5.95367 1.42143 0
M  V30 35363 N 3264.75 6.57989 2.44939 0
M  V30 35364 H 3269.59 2.97278 -0.207355 0
M  V30 35365 H 3267.12 1.46657 -0.114092 0
M  V30 35366 H 3269.08 3.54058 2.20677 0
M  V30 35367 H 3267.71 2.40033 2.15833 0
M  V30 35368 H 3266.76 3.79955 0.183895 0
M  V30 35369 H 3268.07 4.96674 0.460044 0
M  V30 35370 H 3267.23 5.39434 2.77662 0
M  V30 35371 H 3265.97 4.1466 2.56725 0
M  V30 35372 H 3264.97 5.45689 0.671065 0
M  V30 35373 H 3266.2 6.7307 0.902975 0
M  V30 35374 H 3264.14 5.85058 2.9672 0
M  V30 35375 H 3264.06 7.2894 2.00455 0
M  V30 35376 H 3265.33 7.11638 3.18106 0
M  V30 35377 N 3269.56 0.128608 1.57074 0
M  V30 35378 C 3270.81 -0.526918 1.94696 0
M  V30 35379 C 3271.12 -1.67213 1.01485 0
M  V30 35380 O 3272.33 -2.39106 1.2861 0
M  V30 35381 C 3270.78 -0.98874 3.46052 0
M  V30 35382 C 3270.39 0.128536 4.47816 0
M  V30 35383 C 3272.13 -1.6151 3.92575 0
M  V30 35384 C 3270.04 -0.350525 5.9036 0
M  V30 35385 H 3268.97 -0.20061 0.726823 0
M  V30 35386 H 3271.62 0.210004 1.82294 0
M  V30 35387 H 3270 -1.78037 3.53721 0
M  V30 35388 H 3271.18 0.905056 4.51825 0
M  V30 35389 H 3269.49 0.662147 4.11102 0
M  V30 35390 H 3272.09 -1.98483 4.96496 0
M  V30 35391 H 3272.43 -2.49715 3.33089 0
M  V30 35392 H 3272.97 -0.8887 3.87746 0
M  V30 35393 H 3269.7 0.495707 6.53623 0
M  V30 35394 H 3269.22 -1.09332 5.89751 0
M  V30 35395 H 3270.9 -0.808604 6.41927 0
M  V30 35396 N 3271.04 -1.5693 -0.145178 0
M  V30 35397 C 3272.45 -1.51636 -0.497878 0
M  V30 35398 C 3272.65 -0.837334 -1.83278 0
M  V30 35399 O 3271.71 -0.408628 -2.49172 0
M  V30 35400 C 3273.02 -2.96403 -0.506505 0
M  V30 35401 C 3274.57 -3.07353 -0.591893 0
M  V30 35402 C 3275.04 -4.5363 -0.631164 0
M  V30 35403 N 3276.53 -4.57982 -0.693337 0
M  V30 35404 C 3277.27 -5.68543 -0.744736 0
M  V30 35405 N 3276.77 -6.8867 -0.755371 0
M  V30 35406 N 3278.56 -5.56581 -0.785756 0
M  V30 35407 H 3270.71 -1.99468 0.729814 0
M  V30 35408 H 3272.97 -0.909826 0.266311 0
M  V30 35409 H 3272.68 -3.49347 0.406189 0
M  V30 35410 H 3272.55 -3.52453 -1.34377 0
M  V30 35411 H 3274.94 -2.54428 -1.49501 0
M  V30 35412 H 3275.02 -2.54344 0.272551 0
M  V30 35413 H 3274.66 -5.07193 0.267799 0
M  V30 35414 H 3274.59 -5.04423 -1.51212 0
M  V30 35415 H 3277.09 -3.71504 -0.692343 0
M  V30 35416 H 3277.4 -7.68685 -0.796489 0
M  V30 35417 H 3275.74 -6.91227 -0.723217 0
M  V30 35418 H 3278.93 -4.61646 -0.774631 0
M  V30 35419 H 3279.11 -6.42761 -0.822348 0
M  V30 35420 N 3272.51 0.414582 -1.52049 0
M  V30 35421 C 3273.46 1.5253 -1.75605 0
M  V30 35422 C 3274.46 1.57528 -0.622993 0
M  V30 35423 O 3275.66 1.61 -0.804914 0
M  V30 35424 H 3272.04 0.507171 -0.555231 0
M  V30 35425 H 3274.01 1.29845 -2.68668 0
M  V30 35426 C 3272.76 2.89958 -1.91885 0
M  V30 35427 H 3272.08 2.86853 -2.78488 0
M  V30 35428 H 3273.52 3.66981 -2.12369 0
M  V30 35429 C 3271.98 3.29873 -0.684511 0
M  V30 35430 O 3272.51 4.01419 0.150185 0
M  V30 35431 N 3270.71 2.85874 -0.521986 0
M  V30 35432 H 3270.26 2.2782 -1.20233 0
M  V30 35433 H 3270.22 3.1294 0.3026 0
M  V30 35434 N 3273.99 1.4258 0.671475 0
M  V30 35435 C 3274.94 1.46557 1.8062 0
M  V30 35436 C 3275.93 0.340961 1.65933 0
M  V30 35437 O 3277.14 0.514128 1.72501 0
M  V30 35438 H 3273.51 0.459077 0.595611 0
M  V30 35439 H 3275.49 2.42142 1.74384 0
M  V30 35440 C 3274.23 1.38807 3.18791 0
M  V30 35441 H 3273.56 2.24641 3.30721 0
M  V30 35442 H 3275 1.45652 3.98198 0
M  V30 35443 C 3273.46 0.103278 3.36742 0
M  V30 35444 O 3273.99 -0.842646 3.92762 0
M  V30 35445 N 3272.19 0.0193545 2.90594 0
M  V30 35446 H 3271.74 0.789903 2.4519 0
M  V30 35447 H 3271.7 -0.839633 3.02981 0
M  V30 35448 N 3275.47 -0.908102 1.28807 0
M  V30 35449 C 3276.88 -1.47295 1.14722 0
M  V30 35450 C 3277.23 -1.9446 -0.260729 0
M  V30 35451 O 3276.36 -1.82968 -1.1555 0
M  V30 35452 C 3276.95 -2.67708 2.07648 0
M  V30 35453 C 3275.51 -3.20355 1.9761 0
M  V30 35454 C 3274.66 -1.93054 1.99061 0
M  V30 35455 H 3277.61 -0.720258 1.41414 0
M  V30 35456 H 3277.63 -3.43162 1.64379 0
M  V30 35457 H 3277.14 -2.3335 3.10112 0
M  V30 35458 H 3275.24 -3.59425 0.982045 0
M  V30 35459 H 3275.36 -3.85221 2.84853 0
M  V30 35460 H 3273.72 -2.10397 1.43545 0
M  V30 35461 H 3274.5 -1.60984 3.03215 0
M  V30 35462 N 3276.95 -1.11147 -1.11732 0
M  V30 35463 C 3277.91 -0.770341 -2.15867 0
M  V30 35464 C 3278.91 0.208814 -1.59438 0
M  V30 35465 O 3280.1 -0.0152822 -1.74193 0
M  V30 35466 C 3277.23 -0.142362 -3.40603 0
M  V30 35467 H 3278.43 -1.6928 -2.47557 0
M  V30 35468 H 3275.98 -0.912951 -1.26866 0
M  V30 35469 H 3276.71 0.79047 -3.14519 0
M  V30 35470 H 3276.5 -0.847154 -3.82839 0
M  V30 35471 H 3277.99 0.0802874 -4.17523 0
M  V30 35472 N 3278.43 1.29282 -0.901326 0
M  V30 35473 C 3279.36 2.30101 -0.396949 0
M  V30 35474 C 3280.34 1.61669 0.528891 0
M  V30 35475 O 3281.52 1.89167 0.439273 0
M  V30 35476 C 3278.65 3.4527 0.374945 0
M  V30 35477 C 3277.61 4.25514 -0.460615 0
M  V30 35478 C 3276.93 5.32896 0.438873 0
M  V30 35479 C 3278.23 4.93466 -1.71139 0
M  V30 35480 H 3279.93 2.72539 -1.23948 0
M  V30 35481 H 3277.47 1.31021 -0.597451 0
M  V30 35482 H 3279.42 4.14878 0.738549 0
M  V30 35483 H 3278.15 3.0168 1.25127 0
M  V30 35484 H 3276.81 3.57617 -0.806573 0
M  V30 35485 H 3276.46 4.85551 1.31338 0
M  V30 35486 H 3276.16 5.87484 -0.116509 0
M  V30 35487 H 3277.68 6.05355 0.798634 0
M  V30 35488 H 3279.09 5.55502 -1.41742 0
M  V30 35489 H 3277.49 5.57995 -2.20821 0
M  V30 35490 H 3278.56 4.18662 -2.44643 0
M  V30 35491 N 3279.9 0.663979 1.4293 0
M  V30 35492 C 3281.15 0.181773 2.01683 0
M  V30 35493 C 3281.48 -1.20799 1.52439 0
M  V30 35494 O 3280.73 -1.82266 0.712572 0
M  V30 35495 C 3281.03 0.153226 3.57071 0
M  V30 35496 C 3280.7 1.48619 4.25703 0
M  V30 35497 C 3279.36 1.85119 4.44167 0
M  V30 35498 C 3281.71 2.36456 4.64476 0
M  V30 35499 C 3279.04 3.09101 4.98672 0
M  V30 35500 C 3281.39 3.59739 5.20356 0
M  V30 35501 C 3280.06 3.96422 5.37035 0
M  V30 35502 H 3279.33 0.0665155 0.738009 0
M  V30 35503 H 3281.97 0.856822 1.71262 0
M  V30 35504 H 3280.28 -0.605304 3.87096 0
M  V30 35505 H 3281.98 -0.236911 4.003 0
M  V30 35506 H 3278.57 1.19222 4.11684 0
M  V30 35507 H 3282.75 2.09544 4.49894 0
M  V30 35508 H 3278.01 3.37556 5.0977 0
M  V30 35509 H 3282.18 4.28011 5.49345 0
M  V30 35510 H 3279.81 4.92569 5.79033 0
M  V30 35511 N 3281.38 -1.52265 0.406593 0
M  V30 35512 C 3282.63 -2.02749 -0.162664 0
M  V30 35513 C 3282.98 -1.28698 -1.4302 0
M  V30 35514 O 3282.28 -0.383914 -1.87714 0
M  V30 35515 C 3282.47 -3.54335 -0.467062 0
M  V30 35516 C 3282.3 -4.43069 0.769418 0
M  V30 35517 C 3281.07 -4.88454 1.29386 0
M  V30 35518 C 3283.27 -4.87222 1.64679 0
M  V30 35519 N 3281.25 -5.61308 2.48609 0
M  V30 35520 C 3282.62 -5.58831 2.68529 0
M  V30 35521 C 3284.67 -4.69241 1.66485 0
M  V30 35522 C 3283.38 -6.14368 3.74092 0
M  V30 35523 C 3285.4 -5.25673 2.70965 0
M  V30 35524 C 3284.77 -5.97202 3.73536 0
M  V30 35525 H 3280.86 -0.781714 -0.0211569 0
M  V30 35526 H 3283.45 -1.86462 0.560371 0
M  V30 35527 H 3281.62 -3.707 -1.15914 0
M  V30 35528 H 3283.35 -3.91505 -1.02498 0
M  V30 35529 H 3280.11 -4.65868 0.852272 0
M  V30 35530 H 3280.53 -6.02378 3.08981 0
M  V30 35531 H 3285.17 -4.13428 0.885263 0
M  V30 35532 H 3282.89 -6.69253 4.52908 0
M  V30 35533 H 3286.48 -5.13631 2.73267 0
M  V30 35534 H 3285.36 -6.40087 4.53054 0
M  V30 35535 N 3282.86 -0.136936 -1.57004 0
M  V30 35536 C 3284.11 0.516677 -1.95798 0
M  V30 35537 C 3284.44 1.65531 -1.02126 0
M  V30 35538 O 3283.69 1.9564 -0.0485179 0
M  V30 35539 C 3283.99 1.07325 -3.40905 0
M  V30 35540 C 3283.66 0.0541148 -4.50868 0
M  V30 35541 C 3282.32 -0.226072 -4.80669 0
M  V30 35542 C 3284.67 -0.639451 -5.17262 0
M  V30 35543 C 3282 -1.2058 -5.74175 0
M  V30 35544 C 3284.35 -1.60793 -6.11824 0
M  V30 35545 C 3283.01 -1.89592 -6.40009 0
M  V30 35546 H 3282.28 0.189065 -0.716474 0
M  V30 35547 H 3284.93 -0.221639 -1.90213 0
M  V30 35548 H 3283.24 1.8887 -3.43271 0
M  V30 35549 H 3284.93 1.58739 -3.68243 0
M  V30 35550 H 3281.52 0.282678 -4.27667 0
M  V30 35551 H 3285.71 -0.436172 -4.9438 0
M  V30 35552 H 3280.96 -1.43548 -5.9431 0
M  V30 35553 H 3285.14 -2.15093 -6.6235 0
M  V30 35554 H 3282.76 -2.65662 -7.12269 0
M  V30 35555 N 3284.34 1.57005 0.136853 0
M  V30 35556 C 3285.56 1.88438 0.866372 0
M  V30 35557 C 3285.99 0.727036 1.73481 0
M  V30 35558 O 3285.35 -0.323063 1.78398 0
M  V30 35559 C 3285.39 3.18517 1.69054 0
M  V30 35560 O 3284.5 3.03165 2.79579 0
M  V30 35561 H 3283.84 0.618838 0.240698 0
M  V30 35562 H 3286.37 2.0422 0.124617 0
M  V30 35563 H 3286.38 3.50793 2.08347 0
M  V30 35564 H 3285.05 4.02352 1.05289 0
M  V30 35565 H 3283.63 2.8232 2.43619 0
M  V30 35566 N 3285.82 -0.406513 1.52267 0
M  V30 35567 C 3287.23 -0.745324 1.41128 0
M  V30 35568 C 3287.43 -1.94732 0.517837 0
M  V30 35569 O 3286.49 -2.52495 -0.0153843 0
M  V30 35570 C 3287.8 -0.996809 2.83697 0
M  V30 35571 C 3289.35 -1.09936 2.93058 0
M  V30 35572 C 3289.82 -1.38359 4.36601 0
M  V30 35573 N 3291.32 -1.45219 4.39847 0
M  V30 35574 C 3292.05 -1.68843 5.47978 0
M  V30 35575 N 3291.55 -1.90053 6.66222 0
M  V30 35576 N 3293.34 -1.70879 5.35497 0
M  V30 35577 H 3285.49 0.384669 2.08888 0
M  V30 35578 H 3287.75 0.109826 0.941617 0
M  V30 35579 H 3287.46 -0.185924 3.51208 0
M  V30 35580 H 3287.33 -1.91627 3.24899 0
M  V30 35581 H 3289.72 -1.90084 2.25726 0
M  V30 35582 H 3289.8 -0.158211 2.5531 0
M  V30 35583 H 3289.45 -0.587284 5.04493 0
M  V30 35584 H 3289.38 -2.33731 4.71887 0
M  V30 35585 H 3291.87 -1.30606 3.54613 0
M  V30 35586 H 3292.18 -2.07537 7.44411 0
M  V30 35587 H 3290.52 -1.87313 6.69282 0
M  V30 35588 H 3293.72 -1.53848 4.42096 0
M  V30 35589 H 3293.89 -1.88951 6.1984 0
M  V30 35590 N 3287.29 -1.42934 -0.663904 0
M  V30 35591 C 3288.24 -1.43713 -1.77005 0
M  V30 35592 C 3289.23 -0.306976 -1.57945 0
M  V30 35593 O 3290.42 -0.549996 -1.68238 0
M  V30 35594 C 3287.55 -1.35255 -3.15533 0
M  V30 35595 C 3286.64 -2.53258 -3.40178 0
M  V30 35596 N 3287.03 -3.78647 -3.35351 0
M  V30 35597 C 3285.32 -2.47753 -3.70857 0
M  V30 35598 C 3286.03 -4.57091 -3.59782 0
M  V30 35599 N 3285 -3.87661 -3.81077 0
M  V30 35600 H 3288.8 -2.38543 -1.71682 0
M  V30 35601 H 3286.32 -1.37436 -0.865167 0
M  V30 35602 H 3288.31 -1.33895 -3.94813 0
M  V30 35603 H 3286.97 -0.414365 -3.22045 0
M  V30 35604 H 3287.99 -4.11087 -3.15004 0
M  V30 35605 H 3284.66 -1.62568 -3.84549 0
M  V30 35606 H 3286.05 -5.66096 -3.61918 0
M  V30 35607 N 3288.77 0.901258 -1.29287 0
M  V30 35608 C 3290.02 1.64624 -1.1654 0
M  V30 35609 C 3290.33 1.93548 0.282589 0
M  V30 35610 O 3291.54 2.6625 0.531349 0
M  V30 35611 C 3290 2.96627 -2.03814 0
M  V30 35612 C 3289.6 2.75305 -3.53428 0
M  V30 35613 C 3291.35 3.74546 -1.99788 0
M  V30 35614 C 3289.26 4.03024 -4.32811 0
M  V30 35615 H 3288.19 0.617574 -0.432572 0
M  V30 35616 H 3290.84 0.999132 -1.53914 0
M  V30 35617 H 3289.22 3.62542 -1.59308 0
M  V30 35618 H 3290.39 2.17992 -4.05975 0
M  V30 35619 H 3288.71 2.10783 -3.59109 0
M  V30 35620 H 3291.3 4.69238 -2.56358 0
M  V30 35621 H 3291.65 4.04661 -0.977501 0
M  V30 35622 H 3292.18 3.1547 -2.4233 0
M  V30 35623 H 3288.92 3.78077 -5.3548 0
M  V30 35624 H 3288.44 4.59902 -3.85033 0
M  V30 35625 H 3290.12 4.71183 -4.43391 0
M  V30 35626 N 3290.25 1.11738 1.11141 0
M  V30 35627 C 3291.48 0.89104 1.87284 0
M  V30 35628 C 3291.9 -0.553939 1.79759 0
M  V30 35629 O 3291.26 -1.39147 1.16223 0
M  V30 35630 C 3291.31 1.3612 3.33922 0
M  V30 35631 O 3290.41 0.534923 4.08916 0
M  V30 35632 H 3289.75 0.320711 0.581412 0
M  V30 35633 H 3292.28 1.48763 1.40466 0
M  V30 35634 H 3292.29 1.35707 3.84769 0
M  V30 35635 H 3290.97 2.4134 3.38715 0
M  V30 35636 H 3289.54 0.605419 3.67953 0
M  V30 35637 N 3291.73 -1.28802 0.90817 0
M  V30 35638 C 3292.66 -2.29887 0.409146 0
M  V30 35639 C 3293.64 -1.61947 -0.52031 0
M  V30 35640 O 3294.82 -1.89397 -0.429235 0
M  V30 35641 C 3291.95 -3.45464 -0.356629 0
M  V30 35642 C 3290.91 -4.25264 0.483175 0
M  V30 35643 C 3290.23 -5.33121 -0.410606 0
M  V30 35644 C 3291.53 -4.92552 1.73753 0
M  V30 35645 H 3293.23 -2.71878 1.25391 0
M  V30 35646 H 3290.77 -1.30702 0.604391 0
M  V30 35647 H 3292.73 -4.15263 -0.716537 0
M  V30 35648 H 3291.45 -3.02339 -1.23525 0
M  V30 35649 H 3290.11 -3.57184 0.825527 0
M  V30 35650 H 3289.76 -4.8624 -1.28761 0
M  V30 35651 H 3289.46 -5.87414 0.147663 0
M  V30 35652 H 3290.98 -6.0577 -0.766519 0
M  V30 35653 H 3292.4 -5.54742 1.44686 0
M  V30 35654 H 3290.79 -5.56816 2.23777 0
M  V30 35655 H 3291.86 -4.17359 2.4686 0
M  V30 35656 N 3293.21 -0.67155 -1.42576 0
M  V30 35657 C 3294.45 -0.201419 -2.024 0
M  V30 35658 C 3294.81 1.17783 -1.52135 0
M  V30 35659 O 3294.1 1.77862 -0.712436 0
M  V30 35660 C 3294.29 -0.17216 -3.56985 0
M  V30 35661 C 3294.12 -1.54703 -4.22252 0
M  V30 35662 C 3292.89 -2.14399 -4.5756 0
M  V30 35663 C 3295.09 -2.48907 -4.50055 0
M  V30 35664 N 3293.07 -3.447 -5.07991 0
M  V30 35665 C 3294.44 -3.6386 -5.02002 0
M  V30 35666 C 3296.5 -2.47478 -4.3204 0
M  V30 35667 C 3295.2 -4.77633 -5.37828 0
M  V30 35668 C 3297.23 -3.60345 -4.68941 0
M  V30 35669 C 3296.59 -4.74025 -5.21037 0
M  V30 35670 H 3292.69 -0.118553 -0.772961 0
M  V30 35671 H 3295.27 -0.883833 -1.73483 0
M  V30 35672 H 3293.44 0.479655 -3.85427 0
M  V30 35673 H 3295.18 0.310549 -4.03507 0
M  V30 35674 H 3291.93 -1.66921 -4.43209 0
M  V30 35675 H 3292.36 -4.11428 -5.37639 0
M  V30 35676 H 3297 -1.60817 -3.91021 0
M  V30 35677 H 3294.72 -5.64972 -5.77782 0
M  V30 35678 H 3298.3 -3.60463 -4.56681 0
M  V30 35679 H 3297.18 -5.59916 -5.49058 0
M  V30 35680 N 3294.68 1.52047 -0.414663 0
M  V30 35681 C 3295.93 2.01474 0.158999 0
M  V30 35682 C 3296.25 1.30191 1.45173 0
M  V30 35683 O 3295.52 0.429503 1.91134 0
M  V30 35684 H 3294.1 0.744444 0.0617473 0
M  V30 35685 H 3296.77 1.86915 -0.552174 0
M  V30 35686 H 3295.86 3.10118 0.351163 0
M  V30 35687 N 3296.16 0.145261 1.56929 0
M  V30 35688 C 3297.39 -0.516528 2.00865 0
M  V30 35689 C 3297.81 -1.5774 1.02469 0
M  V30 35690 O 3297.17 -1.813 0.000177307 0
M  V30 35691 C 3297.22 -1.09557 3.43554 0
M  V30 35692 O 3296.32 -2.21049 3.48154 0
M  V30 35693 H 3295.66 -0.12651 0.651837 0
M  V30 35694 H 3298.19 0.241481 2.0317 0
M  V30 35695 H 3298.2 -1.42466 3.82318 0
M  V30 35696 H 3296.88 -0.318677 4.14677 0
M  V30 35697 H 3295.46 -1.89381 3.21231 0
M  V30 35698 N 3297.64 -1.57075 -0.128525 0
M  V30 35699 C 3298.89 -1.83536 -0.836503 0
M  V30 35700 C 3299.2 -0.729432 -1.8149 0
M  V30 35701 O 3300.41 -0.880173 -2.56837 0
M  V30 35702 C 3298.87 -3.25368 -1.5383 0
M  V30 35703 C 3298.47 -4.43945 -0.601376 0
M  V30 35704 C 3300.22 -3.61086 -2.23197 0
M  V30 35705 C 3298.12 -5.76803 -1.30585 0
M  V30 35706 H 3297.05 -0.684527 -0.31613 0
M  V30 35707 H 3299.71 -1.83283 -0.0892232 0
M  V30 35708 H 3298.09 -3.20062 -2.33187 0
M  V30 35709 H 3299.26 -4.60528 0.15829 0
M  V30 35710 H 3297.58 -4.16397 -0.0151661 0
M  V30 35711 H 3300.17 -4.57613 -2.76577 0
M  V30 35712 H 3300.52 -2.88049 -3.00555 0
M  V30 35713 H 3301.05 -3.68134 -1.50739 0
M  V30 35714 H 3297.79 -6.52984 -0.573759 0
M  V30 35715 H 3297.31 -5.64123 -2.03777 0
M  V30 35716 H 3298.99 -6.20234 -1.84169 0
M  V30 35717 N 3299.12 0.398432 -1.5248 0
M  V30 35718 C 3300.34 1.17036 -1.71223 0
M  V30 35719 C 3300.77 1.83223 -0.425548 0
M  V30 35720 O 3300.13 1.70445 0.617908 0
M  V30 35721 C 3300.18 2.20116 -2.85624 0
M  V30 35722 O 3299.28 3.26497 -2.5194 0
M  V30 35723 H 3298.62 0.34115 -0.56966 0
M  V30 35724 H 3301.15 0.465617 -1.99231 0
M  V30 35725 H 3301.16 2.64269 -3.10847 0
M  V30 35726 H 3299.84 1.71327 -3.78972 0
M  V30 35727 H 3298.41 2.87548 -2.37425 0
M  V30 35728 N 3300.6 1.43284 0.656314 0
M  V30 35729 C 3301.84 1.44737 1.41624 0
M  V30 35730 C 3302.17 0.0705234 1.94372 0
M  V30 35731 O 3301.43 -0.924006 1.72513 0
M  V30 35732 C 3301.73 2.43426 2.61684 0
M  V30 35733 C 3301.39 3.89374 2.27373 0
M  V30 35734 C 3300.05 4.29125 2.17727 0
M  V30 35735 C 3302.41 4.8136 1.99854 0
M  V30 35736 C 3299.73 5.58818 1.78715 0
M  V30 35737 C 3302.09 6.11415 1.62342 0
M  V30 35738 C 3300.75 6.50145 1.51219 0
M  V30 35739 H 3300.02 0.52963 0.518241 0
M  V30 35740 H 3302.67 1.76344 0.74667 0
M  V30 35741 H 3300.97 2.05212 3.33759 0
M  V30 35742 H 3302.67 2.41806 3.19892 0
M  V30 35743 H 3299.26 3.57913 2.35789 0
M  V30 35744 H 3303.44 4.51423 2.06229 0
M  V30 35745 H 3298.7 5.87669 1.68687 0
M  V30 35746 H 3302.87 6.82166 1.40079 0
M  V30 35747 H 3300.5 7.50547 1.20761 0
M  V30 35748 N 3302.08 -0.894389 1.29763 0
M  V30 35749 C 3303.02 -2.02048 1.15236 0
M  V30 35750 C 3304.02 -1.69269 0.0665962 0
M  V30 35751 O 3305.22 -1.78566 0.226777 0
M  V30 35752 H 3301.6 -0.662335 0.356114 0
M  V30 35753 H 3303.57 -2.11438 2.10562 0
M  V30 35754 C 3302.32 -3.3712 0.851202 0
M  V30 35755 H 3301.64 -3.62849 1.67872 0
M  V30 35756 H 3303.08 -4.16583 0.789613 0
M  V30 35757 C 3301.54 -3.33939 -0.445678 0
M  V30 35758 O 3302.07 -3.73832 -1.47011 0
M  V30 35759 N 3300.28 -2.87041 -0.453443 0
M  V30 35760 H 3299.82 -2.54772 0.380681 0
M  V30 35761 H 3299.78 -2.85295 -1.32114 0
M  V30 35762 N 3303.55 -1.12326 -1.10547 0
M  V30 35763 C 3304.48 -0.812454 -2.1891 0
M  V30 35764 C 3305.46 0.223241 -1.68629 0
M  V30 35765 O 3306.65 0.0846843 -1.94015 0
M  V30 35766 C 3303.78 -0.265008 -3.46287 0
M  V30 35767 C 3302.73 -1.23363 -4.09836 0
M  V30 35768 C 3302.06 -0.546467 -5.319 0
M  V30 35769 C 3303.36 -2.58786 -4.53682 0
M  V30 35770 H 3305.05 -1.71855 -2.45166 0
M  V30 35771 H 3302.6 -0.827735 -1.17833 0
M  V30 35772 H 3304.55 -0.0353105 -4.21385 0
M  V30 35773 H 3303.28 0.676423 -3.19519 0
M  V30 35774 H 3301.94 -1.44912 -3.36743 0
M  V30 35775 H 3301.58 0.400068 -5.01406 0
M  V30 35776 H 3301.28 -1.19259 -5.7537 0
M  V30 35777 H 3302.81 -0.32578 -6.0973 0
M  V30 35778 H 3304.22 -2.41272 -5.20058 0
M  V30 35779 H 3302.62 -3.19466 -5.07998 0
M  V30 35780 H 3303.69 -3.17315 -3.66659 0
M  V30 35781 N 3305.03 1.28319 -0.914988 0
M  V30 35782 C 3305.99 2.2552 -0.409063 0
M  V30 35783 C 3306.99 1.53921 0.4653 0
M  V30 35784 O 3308.18 1.72123 0.26818 0
M  V30 35785 C 3305.32 3.38384 0.413393 0
M  V30 35786 H 3306.51 2.71789 -1.26771 0
M  V30 35787 H 3304.06 1.40023 -0.694501 0
M  V30 35788 H 3304.8 2.97479 1.29139 0
M  V30 35789 H 3304.58 3.91519 -0.213337 0
M  V30 35790 H 3306.07 4.1066 0.75816 0
M  V30 35791 N 3306.51 0.679102 1.42218 0
M  V30 35792 C 3307.76 0.203455 2.01777 0
M  V30 35793 C 3308.09 -1.18838 1.53594 0
M  V30 35794 O 3307.36 -1.79873 0.739985 0
M  V30 35795 C 3307.65 0.242855 3.5928 0
M  V30 35796 C 3307.5 1.67046 4.17631 0
M  V30 35797 C 3308.82 -0.406547 4.38218 0
M  V30 35798 H 3305.94 0.0754045 0.733132 0
M  V30 35799 H 3308.58 0.864703 1.69183 0
M  V30 35800 H 3306.73 -0.32018 3.87178 0
M  V30 35801 H 3308.4 2.28607 4.0067 0
M  V30 35802 H 3306.64 2.20979 3.73297 0
M  V30 35803 H 3307.32 1.64968 5.26773 0
M  V30 35804 H 3309.79 0.0727809 4.16036 0
M  V30 35805 H 3308.67 -0.348361 5.47793 0
M  V30 35806 H 3308.93 -1.48479 4.16421 0
M  V30 35807 N 3307.99 -1.51825 0.42272 0
M  V30 35808 C 3309.23 -2.01954 -0.148606 0
M  V30 35809 C 3309.56 -1.30767 -1.4398 0
M  V30 35810 O 3308.82 -0.406702 -1.91427 0
M  V30 35811 C 3309.12 -3.5481 -0.429454 0
M  V30 35812 C 3308.78 -4.44204 0.774166 0
M  V30 35813 C 3307.44 -4.68358 1.10428 0
M  V30 35814 C 3309.8 -4.96745 1.57779 0
M  V30 35815 C 3307.12 -5.42298 2.23897 0
M  V30 35816 C 3309.48 -5.71928 2.70335 0
M  V30 35817 C 3308.14 -5.9435 3.03817 0
M  V30 35818 H 3307.41 -0.739002 -0.0543787 0
M  V30 35819 H 3310.06 -1.82916 0.566924 0
M  V30 35820 H 3308.36 -3.72101 -1.22671 0
M  V30 35821 H 3310.06 -3.91119 -0.884692 0
M  V30 35822 H 3306.65 -4.25592 0.506909 0
M  V30 35823 H 3310.83 -4.77981 1.33597 0
M  V30 35824 H 3306.09 -5.57876 2.50169 0
M  V30 35825 H 3310.26 -6.11632 3.32984 0
M  V30 35826 H 3307.89 -6.51424 3.91855 0
M  V30 35827 N 3309.47 -0.153581 -1.5685 0
M  V30 35828 C 3310.71 0.495877 -1.95509 0
M  V30 35829 C 3311.03 1.65577 -1.04132 0
M  V30 35830 O 3312.23 2.37029 -1.32398 0
M  V30 35831 C 3310.69 0.933561 -3.47581 0
M  V30 35832 C 3310.3 -0.199763 -4.47554 0
M  V30 35833 C 3312.04 1.55244 -3.95094 0
M  V30 35834 C 3309.95 0.256559 -5.90843 0
M  V30 35835 H 3308.88 0.189022 -0.729922 0
M  V30 35836 H 3311.53 -0.238979 -1.81937 0
M  V30 35837 H 3309.91 1.72387 -3.56509 0
M  V30 35838 H 3311.09 -0.976823 -4.50327 0
M  V30 35839 H 3309.4 -0.727466 -4.09996 0
M  V30 35840 H 3312 1.90559 -4.99591 0
M  V30 35841 H 3312.34 2.44384 -3.3702 0
M  V30 35842 H 3312.87 0.826901 -3.89111 0
M  V30 35843 H 3309.61 -0.59963 -6.52752 0
M  V30 35844 H 3309.13 0.999354 -5.91416 0
M  V30 35845 H 3310.81 0.706376 -6.43132 0
M  V30 35846 N 3310.94 1.57141 0.120193 0
M  V30 35847 C 3311.89 2.01235 1.1665 0
M  V30 35848 C 3312.89 0.909079 1.42941 0
M  V30 35849 O 3314.09 1.09428 1.42918 0
M  V30 35850 H 3310.47 0.640965 0.393278 0
M  V30 35851 H 3312.44 2.88345 0.768106 0
M  V30 35852 C 3311.19 2.43156 2.48536 0
M  V30 35853 H 3310.51 3.27618 2.29143 0
M  V30 35854 H 3311.95 2.77808 3.2031 0
M  V30 35855 C 3310.41 1.29473 3.11028 0
M  V30 35856 O 3310.94 0.610052 3.97041 0
M  V30 35857 N 3309.14 1.05209 2.70886 0
M  V30 35858 H 3308.69 1.61066 2.01036 0
M  V30 35859 H 3308.65 0.293402 3.13028 0
M  V30 35860 N 3312.42 -0.39034 1.5269 0
M  V30 35861 C 3313.35 -1.48322 1.80341 0
M  V30 35862 C 3314.33 -1.56968 0.655365 0
M  V30 35863 O 3315.52 -1.71938 0.902822 0
M  V30 35864 C 3312.65 -2.85948 1.97106 0
M  V30 35865 C 3311.6 -2.92143 3.12788 0
M  V30 35866 C 3310.93 -4.32205 3.14806 0
M  V30 35867 C 3312.23 -2.61911 4.51885 0
M  V30 35868 H 3313.92 -1.25432 2.71859 0
M  V30 35869 H 3311.47 -0.601972 1.30814 0
M  V30 35870 H 3313.42 -3.62407 2.15033 0
M  V30 35871 H 3312.15 -3.10173 1.02277 0
M  V30 35872 H 3310.8 -2.18132 2.94642 0
M  V30 35873 H 3310.45 -4.53467 2.17661 0
M  V30 35874 H 3310.15 -4.37271 3.92515 0
M  V30 35875 H 3311.68 -5.10572 3.34886 0
M  V30 35876 H 3313.09 -3.28088 4.7014 0
M  V30 35877 H 3311.49 -2.78328 5.31652 0
M  V30 35878 H 3312.56 -1.57258 4.58692 0
M  V30 35879 N 3313.9 -1.4363 -0.648706 0
M  V30 35880 C 3314.86 -1.48803 -1.74328 0
M  V30 35881 C 3315.86 -0.372175 -1.56434 0
M  V30 35882 O 3317.05 -0.634106 -1.62249 0
M  V30 35883 C 3314.19 -1.345 -3.13245 0
M  V30 35884 H 3315.38 -2.46288 -1.7112 0
M  V30 35885 H 3312.93 -1.30462 -0.860775 0
M  V30 35886 H 3313.67 -0.380402 -3.22061 0
M  V30 35887 H 3313.45 -2.15395 -3.27639 0
M  V30 35888 H 3314.94 -1.41062 -3.93054 0
M  V30 35889 N 3315.38 0.887495 -1.30236 0
M  V30 35890 C 3316.62 1.64151 -1.19089 0
M  V30 35891 C 3316.96 1.92527 0.254394 0
M  V30 35892 O 3316.23 1.5444 1.1823 0
M  V30 35893 C 3316.52 2.98292 -2.01728 0
M  V30 35894 C 3316.37 2.76905 -3.54463 0
M  V30 35895 C 3317.69 3.99183 -1.85314 0
M  V30 35896 H 3314.81 0.595678 -0.433977 0
M  V30 35897 H 3317.45 1.02717 -1.59841 0
M  V30 35898 H 3315.6 3.50727 -1.67102 0
M  V30 35899 H 3317.27 2.31277 -3.99135 0
M  V30 35900 H 3315.51 2.11457 -3.78772 0
M  V30 35901 H 3316.18 3.72276 -4.07571 0
M  V30 35902 H 3318.66 3.55899 -2.15581 0
M  V30 35903 H 3317.54 4.90956 -2.45465 0
M  V30 35904 H 3317.8 4.34586 -0.811604 0
M  V30 35905 N 3316.86 1.12911 1.0995 0
M  V30 35906 C 3317.82 0.804586 2.14614 0
M  V30 35907 C 3318.82 -0.183422 1.5975 0
M  V30 35908 O 3320.01 0.0429929 1.74147 0
M  V30 35909 C 3317.14 0.196531 3.40333 0
M  V30 35910 H 3318.33 1.73197 2.44832 0
M  V30 35911 H 3315.89 0.933019 1.25397 0
M  V30 35912 H 3316.62 -0.740333 3.15737 0
M  V30 35913 H 3316.41 0.907953 3.81443 0
M  V30 35914 H 3317.9 -0.013853 4.17598 0
M  V30 35915 N 3318.33 -1.27832 0.92178 0
M  V30 35916 C 3319.26 -2.29441 0.433506 0
M  V30 35917 C 3320.25 -1.6249 -0.503104 0
M  V30 35918 O 3321.43 -1.89842 -0.409122 0
M  V30 35919 C 3318.56 -3.45823 -0.319968 0
M  V30 35920 C 3317.51 -4.24728 0.528253 0
M  V30 35921 C 3316.84 -5.33527 -0.354038 0
M  V30 35922 C 3318.14 -4.90681 1.78967 0
M  V30 35923 H 3319.83 -2.70532 1.28268 0
M  V30 35924 H 3317.38 -1.30054 0.61822 0
M  V30 35925 H 3319.33 -4.16 -0.672453 0
M  V30 35926 H 3318.06 -3.03633 -1.20311 0
M  V30 35927 H 3316.72 -3.56289 0.863364 0
M  V30 35928 H 3316.36 -4.87579 -1.23596 0
M  V30 35929 H 3316.06 -5.87225 0.209958 0
M  V30 35930 H 3317.59 -6.06549 -0.702226 0
M  V30 35931 H 3319 -5.53176 1.50561 0
M  V30 35932 H 3317.4 -5.54411 2.2967 0
M  V30 35933 H 3318.47 -4.14717 2.51273 0
M  V30 35934 N 3319.81 -0.686634 -1.41856 0
M  V30 35935 C 3321.06 -0.213836 -2.01368 0
M  V30 35936 C 3321.39 1.18359 -1.54342 0
M  V30 35937 O 3320.64 1.81109 -0.741479 0
M  V30 35938 C 3320.94 -0.210014 -3.56782 0
M  V30 35939 C 3320.61 -1.55373 -4.23285 0
M  V30 35940 C 3319.27 -1.92162 -4.41166 0
M  V30 35941 C 3321.62 -2.43815 -4.60656 0
M  V30 35942 C 3318.95 -3.16995 -4.93691 0
M  V30 35943 C 3321.3 -3.67972 -5.14567 0
M  V30 35944 C 3319.97 -4.04915 -5.3066 0
M  V30 35945 H 3319.24 -0.0782482 -0.736857 0
M  V30 35946 H 3321.88 -0.883959 -1.69878 0
M  V30 35947 H 3320.19 0.543644 -3.8801 0
M  V30 35948 H 3321.88 0.173197 -4.00626 0
M  V30 35949 H 3318.47 -1.25757 -4.09735 0
M  V30 35950 H 3322.66 -2.16675 -4.46504 0
M  V30 35951 H 3317.91 -3.45624 -5.04335 0
M  V30 35952 H 3322.09 -4.36697 -5.42466 0
M  V30 35953 H 3319.72 -5.01719 -5.71124 0
M  V30 35954 N 3321.29 1.51599 -0.430766 0
M  V30 35955 C 3322.52 2.06148 0.136563 0
M  V30 35956 C 3322.93 1.29884 1.37575 0
M  V30 35957 O 3322.27 0.349906 1.80337 0
M  V30 35958 C 3322.33 3.55562 0.530647 0
M  V30 35959 C 3322 4.53033 -0.600818 0
M  V30 35960 C 3322.99 4.98657 -1.47097 0
M  V30 35961 C 3320.68 4.96212 -0.779678 0
M  V30 35962 C 3322.67 5.86124 -2.50475 0
M  V30 35963 C 3320.36 5.83471 -1.81673 0
M  V30 35964 C 3321.36 6.28324 -2.67766 0
M  V30 35965 O 3321.05 7.13851 -3.69692 0
M  V30 35966 H 3320.78 0.675849 0.0142952 0
M  V30 35967 H 3323.33 1.96235 -0.606707 0
M  V30 35968 H 3321.56 3.63236 1.32652 0
M  V30 35969 H 3323.25 3.92657 1.02837 0
M  V30 35970 H 3324.02 4.65998 -1.34429 0
M  V30 35971 H 3319.9 4.60846 -0.119163 0
M  V30 35972 H 3323.44 6.21055 -3.17706 0
M  V30 35973 H 3319.34 6.15543 -1.94364 0
M  V30 35974 H 3320.11 7.32014 -3.66194 0
M  V30 35975 N 3322.77 0.161897 1.56766 0
M  V30 35976 C 3324.18 -0.356434 1.83266 0
M  V30 35977 C 3324.53 -1.63715 1.08129 0
M  V30 35978 O 3323.66 -2.13849 0.331308 0
M  V30 35979 C 3324.25 -0.653463 3.32438 0
M  V30 35980 C 3322.81 -1.11626 3.59467 0
M  V30 35981 C 3321.96 -0.147155 2.76909 0
M  V30 35982 H 3324.91 0.386335 1.53926 0
M  V30 35983 H 3324.93 -1.50655 3.49404 0
M  V30 35984 H 3324.44 0.278835 3.87097 0
M  V30 35985 H 3322.54 -2.06399 3.1021 0
M  V30 35986 H 3322.65 -1.03194 4.67855 0
M  V30 35987 H 3321.02 -0.642696 2.46458 0
M  V30 35988 H 3321.8 0.778996 3.34345 0
M  V30 35989 N 3324.25 -1.57203 -0.111858 0
M  V30 35990 C 3325.49 -1.85226 -0.818378 0
M  V30 35991 C 3325.82 -0.748022 -1.79541 0
M  V30 35992 O 3325.08 0.259979 -1.93965 0
M  V30 35993 C 3325.38 -3.19766 -1.59638 0
M  V30 35994 C 3325.04 -4.44397 -0.763002 0
M  V30 35995 C 3323.7 -4.78237 -0.533206 0
M  V30 35996 C 3326.06 -5.2088 -0.182569 0
M  V30 35997 C 3323.38 -5.85997 0.287159 0
M  V30 35998 C 3325.74 -6.29505 0.625027 0
M  V30 35999 C 3324.4 -6.61871 0.865072 0
M  V30 36000 H 3323.67 -0.677791 -0.299466 0
M  V30 36001 H 3326.32 -1.91331 -0.0804746 0
M  V30 36002 H 3324.62 -3.0927 -2.4054 0
M  V30 36003 H 3326.32 -3.38672 -2.14714 0
M  V30 36004 H 3322.91 -4.17889 -0.952204 0
M  V30 36005 H 3327.09 -4.95083 -0.347303 0
M  V30 36006 H 3322.35 -6.09495 0.482286 0
M  V30 36007 H 3326.52 -6.87947 1.08174 0
M  V30 36008 H 3324.15 -7.45203 1.50257 0
M  V30 36009 N 3325.72 0.382237 -1.52894 0
M  V30 36010 C 3326.97 1.12437 -1.67935 0
M  V30 36011 C 3327.29 1.90308 -0.425199 0
M  V30 36012 O 3326.56 1.8771 0.560524 0
M  V30 36013 H 3325.14 0.418068 -0.619054 0
M  V30 36014 H 3327.81 0.432895 -1.90032 0
M  V30 36015 H 3326.9 1.8235 -2.53288 0
M  V30 36016 N 3327.2 1.43972 0.64108 0
M  V30 36017 C 3328.48 1.36707 1.39895 0
M  V30 36018 C 3328.86 0.0208422 2.1109 0
M  V30 36019 O 3328.21 -0.996214 2.0564 0
M  V30 36020 C 3328.42 2.55853 2.37361 0
M  V30 36021 C 3329.77 2.99479 3.00995 0
M  V30 36022 O 3330.79 2.55987 2.47688 0
M  V30 36023 O 3329.65 3.74858 3.97673 0
M  V30 36024 H 3326.74 0.540866 0.625614 0
M  V30 36025 H 3329.29 1.56044 0.66697 0
M  V30 36026 H 3328.06 3.45455 1.83784 0
M  V30 36027 H 3327.68 2.38678 3.17991 0
M  V30 36028 N 3328.68 -0.880575 1.30704 0
M  V30 36029 C 3329.96 -1.61443 1.10433 0
M  V30 36030 C 3330.34 -2.08265 -0.344801 0
M  V30 36031 O 3329.69 -1.85296 -1.33708 0
M  V30 36032 C 3329.9 -2.78059 2.10913 0
M  V30 36033 C 3331.24 -3.48283 2.42867 0
M  V30 36034 O 3332.27 -2.88253 2.09257 0
M  V30 36035 O 3331.13 -4.56548 3.00377 0
M  V30 36036 H 3328.22 -0.70978 0.424431 0
M  V30 36037 H 3330.77 -0.926966 1.42146 0
M  V30 36038 H 3329.54 -2.40798 3.08435 0
M  V30 36039 H 3329.16 -3.545 1.80043 0
M  V30 36040 N 3330.16 -1.13492 -1.09349 0
M  V30 36041 C 3331.41 -0.895382 -1.81183 0
M  V30 36042 C 3331.73 0.580015 -1.86174 0
M  V30 36043 O 3331 1.4216 -1.34787 0
M  V30 36044 H 3329.58 -0.328269 -0.671006 0
M  V30 36045 H 3332.24 -1.43162 -1.32253 0
M  V30 36046 H 3331.34 -1.28681 -2.84337 0
M  V30 36047 N 3331.64 1.27341 -0.928546 0
M  V30 36048 C 3332.91 1.8942 -0.487792 0
M  V30 36049 C 3333.29 1.84034 1.03415 0
M  V30 36050 O 3332.64 1.28613 1.88868 0
M  V30 36051 C 3332.85 3.33305 -1.03484 0
M  V30 36052 C 3334.2 4.10215 -1.09584 0
M  V30 36053 O 3335.22 3.42324 -0.984524 0
M  V30 36054 O 3334.08 5.31601 -1.2674 0
M  V30 36055 H 3331.18 0.811954 -0.157033 0
M  V30 36056 H 3333.72 1.35603 -1.02029 0
M  V30 36057 H 3332.5 3.31522 -2.07867 0
M  V30 36058 H 3332.12 3.94643 -0.484037 0
M  V30 36059 N 3333.12 0.694147 1.4149 0
M  V30 36060 C 3334.03 0.0283827 2.34583 0
M  V30 36061 C 3335.04 -0.767635 1.56152 0
M  V30 36062 O 3336.22 -0.705523 1.88638 0
M  V30 36063 C 3333.28 -0.897667 3.34877 0
M  V30 36064 C 3332.34 -0.0940151 4.29197 0
M  V30 36065 C 3331.58 -0.975959 5.24701 0
M  V30 36066 O 3331.8 -2.21547 5.25617 0
M  V30 36067 O 3330.73 -0.426398 6.00388 0
M  V30 36068 H 3334.56 0.795708 2.93091 0
M  V30 36069 H 3332.14 0.454475 1.4232 0
M  V30 36070 H 3334.03 -1.42873 3.96441 0
M  V30 36071 H 3332.7 -1.64451 2.78815 0
M  V30 36072 H 3331.61 0.481618 3.70987 0
M  V30 36073 H 3332.94 0.614131 4.88354 0
M  V30 36074 N 3334.59 -1.51368 0.438799 0
M  V30 36075 C 3335.84 -2.01701 -0.126926 0
M  V30 36076 C 3336.16 -1.32484 -1.43084 0
M  V30 36077 O 3335.43 -0.459856 -1.90426 0
M  V30 36078 H 3334.01 -0.745332 -0.0498961 0
M  V30 36079 H 3336.67 -1.86012 0.58184 0
M  V30 36080 H 3335.77 -3.10638 -0.301781 0
M  V30 36081 N 3336.07 -0.170208 -1.56678 0
M  V30 36082 C 3337.3 0.481327 -2.01223 0
M  V30 36083 C 3337.71 1.56881 -1.05042 0
M  V30 36084 O 3337.07 1.82428 -0.0511072 0
M  V30 36085 C 3337.12 1.06067 -3.4559 0
M  V30 36086 O 3336.84 0.0165984 -4.38097 0
M  V30 36087 C 3338.34 1.79054 -4.0553 0
M  V30 36088 H 3335.56 0.123289 -0.659576 0
M  V30 36089 H 3338.11 -0.271612 -2.02688 0
M  V30 36090 H 3336.26 1.76411 -3.44903 0
M  V30 36091 H 3336.68 0.444184 -5.22616 0
M  V30 36092 H 3338.15 2.14852 -5.08471 0
M  V30 36093 H 3338.63 2.68513 -3.47559 0
M  V30 36094 H 3339.23 1.13354 -4.09916 0
M  V30 36095 N 3337.55 1.5726 0.10352 0
M  V30 36096 C 3338.48 2.04496 1.1271 0
M  V30 36097 C 3339.46 0.93228 1.42276 0
M  V30 36098 O 3340.65 1.20301 1.52451 0
M  V30 36099 C 3337.78 2.46232 2.44923 0
M  V30 36100 C 3336.73 3.61086 2.29784 0
M  V30 36101 C 3336.06 3.88771 3.67098 0
M  V30 36102 C 3337.36 4.92273 1.74541 0
M  V30 36103 H 3339.05 2.9026 0.734147 0
M  V30 36104 H 3336.6 1.39639 0.351701 0
M  V30 36105 H 3338.55 2.77885 3.16793 0
M  V30 36106 H 3337.27 1.57458 2.86137 0
M  V30 36107 H 3335.93 3.29667 1.6036 0
M  V30 36108 H 3335.58 2.97178 4.05825 0
M  V30 36109 H 3335.28 4.66091 3.57817 0
M  V30 36110 H 3336.8 4.22891 4.40449 0
M  V30 36111 H 3338.22 5.22362 2.36244 0
M  V30 36112 H 3336.61 5.73698 1.76041 0
M  V30 36113 H 3337.68 4.7976 0.704158 0
M  V30 36114 N 3339.03 -0.374123 1.53095 0
M  V30 36115 C 3340.25 -1.14297 1.73063 0
M  V30 36116 C 3340.68 -1.82523 0.454643 0
M  V30 36117 O 3340.04 -1.71407 -0.590713 0
M  V30 36118 C 3340.08 -2.15544 2.8909 0
M  V30 36119 O 3339.19 -3.22447 2.57102 0
M  V30 36120 H 3338.53 -0.332044 0.575015 0
M  V30 36121 H 3341.06 -0.433862 1.99947 0
M  V30 36122 H 3341.07 -2.5929 3.15012 0
M  V30 36123 H 3339.74 -1.65276 3.8165 0
M  V30 36124 H 3338.32 -2.83734 2.4197 0
M  V30 36125 N 3340.51 -1.4431 -0.633436 0
M  V30 36126 C 3341.92 -1.41754 -1.21502 0
M  V30 36127 C 3342.27 -0.131701 -1.95757 0
M  V30 36128 O 3341.39 0.768037 -2.02312 0
M  V30 36129 C 3341.99 -2.56796 -2.21 0
M  V30 36130 C 3340.55 -2.57442 -2.74591 0
M  V30 36131 C 3339.69 -2.33516 -1.49551 0
M  V30 36132 H 3342.64 -1.52924 -0.424251 0
M  V30 36133 H 3342.67 -2.29417 -3.03559 0
M  V30 36134 H 3342.18 -3.50367 -1.66927 0
M  V30 36135 H 3340.28 -1.67807 -3.32673 0
M  V30 36136 H 3340.39 -3.55854 -3.20787 0
M  V30 36137 H 3338.76 -1.82564 -1.77602 0
M  V30 36138 H 3339.54 -3.29198 -0.973841 0
M  V30 36139 N 3341.98 0.873632 -1.3117 0
M  V30 36140 C 3342.91 1.99644 -1.21097 0
M  V30 36141 C 3343.9 1.69812 -0.0989982 0
M  V30 36142 O 3345.08 1.92127 -0.282973 0
M  V30 36143 C 3342.21 3.35064 -0.913743 0
M  V30 36144 C 3341.16 3.79192 -1.98489 0
M  V30 36145 C 3340.49 5.1203 -1.54042 0
M  V30 36146 C 3341.79 3.96693 -3.39752 0
M  V30 36147 H 3343.48 2.08329 -2.15033 0
M  V30 36148 H 3341.03 1.00095 -1.03523 0
M  V30 36149 H 3342.98 4.13147 -0.829893 0
M  V30 36150 H 3341.71 3.26542 0.0612897 0
M  V30 36151 H 3340.37 3.03346 -2.05857 0
M  V30 36152 H 3340.01 4.99947 -0.553349 0
M  V30 36153 H 3339.71 5.42526 -2.25697 0
M  V30 36154 H 3341.24 5.92627 -1.47058 0
M  V30 36155 H 3342.65 4.65182 -3.3508 0
M  V30 36156 H 3341.05 4.38582 -4.09592 0
M  V30 36157 H 3342.12 3.00189 -3.80808 0
M  V30 36158 N 3343.46 1.1407 1.08746 0
M  V30 36159 C 3344.71 0.906769 1.81063 0
M  V30 36160 C 3345.04 -0.566812 1.86058 0
M  V30 36161 O 3344.29 -1.4358 1.32979 0
M  V30 36162 C 3344.59 1.44848 3.26732 0
M  V30 36163 C 3344.26 2.94011 3.4186 0
M  V30 36164 C 3342.92 3.34735 3.45697 0
M  V30 36165 C 3345.27 3.89943 3.45824 0
M  V30 36166 C 3342.6 4.70061 3.51083 0
M  V30 36167 C 3344.95 5.25122 3.52746 0
M  V30 36168 C 3343.62 5.65363 3.54854 0
M  V30 36169 H 3342.89 0.33181 0.662558 0
M  V30 36170 H 3345.53 1.4238 1.28063 0
M  V30 36171 H 3343.84 0.852306 3.82417 0
M  V30 36172 H 3345.53 1.24347 3.81233 0
M  V30 36173 H 3342.12 2.61524 3.39563 0
M  V30 36174 H 3346.31 3.59563 3.42094 0
M  V30 36175 H 3341.56 5.00604 3.51006 0
M  V30 36176 H 3345.74 5.99266 3.54758 0
M  V30 36177 H 3343.37 6.70209 3.5878 0
M  V30 36178 N 3344.94 -1.26847 0.935286 0
M  V30 36179 C 3346.17 -1.9866 0.595739 0
M  V30 36180 C 3346.59 -1.69239 -0.820971 0
M  V30 36181 O 3345.95 -0.93701 -1.55209 0
M  V30 36182 C 3346 -3.50744 0.837337 0
M  V30 36183 O 3345.1 -4.12294 -0.0934189 0
M  V30 36184 H 3344.44 -0.623437 0.228523 0
M  V30 36185 H 3346.97 -1.61463 1.25661 0
M  V30 36186 H 3346.98 -4.00937 0.755897 0
M  V30 36187 H 3345.66 -3.71489 1.86999 0
M  V30 36188 H 3344.23 -3.7288 0.0385779 0
M  V30 36189 N 3346.42 -0.701641 -1.4112 0
M  V30 36190 C 3347.66 -0.23553 -2.01428 0
M  V30 36191 C 3348 1.1638 -1.55465 0
M  V30 36192 O 3347.27 1.78673 -0.768508 0
M  V30 36193 C 3347.56 -0.299982 -3.58848 0
M  V30 36194 C 3347.41 -1.73669 -4.14921 0
M  V30 36195 C 3348.73 0.336779 -4.3881 0
M  V30 36196 H 3345.85 -0.0870584 -0.73184 0
M  V30 36197 H 3348.49 -0.891509 -1.67786 0
M  V30 36198 H 3346.64 0.258542 -3.87639 0
M  V30 36199 H 3348.31 -2.34952 -3.96983 0
M  V30 36200 H 3346.55 -2.2689 -3.69734 0
M  V30 36201 H 3347.22 -1.73327 -5.24082 0
M  V30 36202 H 3349.7 -0.138959 -4.15868 0
M  V30 36203 H 3348.58 0.261167 -5.48278 0
M  V30 36204 H 3348.84 1.41836 -4.1873 0
M  V30 36205 N 3347.9 1.51133 -0.446821 0
M  V30 36206 C 3348.83 2.30859 0.350189 0
M  V30 36207 C 3349.81 1.36686 1.01247 0
M  V30 36208 O 3350.99 1.65607 1.0143 0
M  V30 36209 C 3348.12 3.1575 1.44635 0
M  V30 36210 C 3347.08 4.18279 0.907029 0
M  V30 36211 C 3346.4 4.91751 2.09965 0
M  V30 36212 C 3347.7 5.22259 -0.0650676 0
M  V30 36213 H 3349.4 2.97737 -0.315157 0
M  V30 36214 H 3346.94 1.43185 -0.15301 0
M  V30 36215 H 3348.9 3.70309 2.0112 0
M  V30 36216 H 3347.62 2.46712 2.14012 0
M  V30 36217 H 3346.28 3.64785 0.364318 0
M  V30 36218 H 3345.93 4.19207 2.77983 0
M  V30 36219 H 3345.63 5.61087 1.74513 0
M  V30 36220 H 3347.15 5.49136 2.66987 0
M  V30 36221 H 3348.56 5.71833 0.409799 0
M  V30 36222 H 3346.96 5.99177 -0.332634 0
M  V30 36223 H 3348.03 4.74503 -0.998764 0
M  V30 36224 N 3349.37 0.178515 1.56586 0
M  V30 36225 C 3350.3 -0.744447 2.21315 0
M  V30 36226 C 3351.29 -1.23375 1.17101 0
M  V30 36227 O 3352.47 -1.28561 1.45553 0
M  V30 36228 C 3349.6 -1.97098 2.85954 0
M  V30 36229 C 3348.55 -1.61725 3.96269 0
M  V30 36230 C 3347.88 -2.91903 4.47992 0
M  V30 36231 C 3349.18 -0.839778 5.15505 0
M  V30 36232 H 3350.87 -0.204885 2.98698 0
M  V30 36233 H 3348.42 -0.0971053 1.43672 0
M  V30 36234 H 3350.37 -2.62174 3.29913 0
M  V30 36235 H 3349.1 -2.5348 2.0595 0
M  V30 36236 H 3347.76 -0.990146 3.52975 0
M  V30 36237 H 3347.4 -3.4634 3.64771 0
M  V30 36238 H 3347.1 -2.68986 5.22418 0
M  V30 36239 H 3348.63 -3.57996 4.94643 0
M  V30 36240 H 3350.04 -1.39328 5.56112 0
M  V30 36241 H 3348.44 -0.709369 5.95893 0
M  V30 36242 H 3349.51 0.162482 4.84628 0
M  V30 36243 N 3350.85 -1.57312 -0.0951784 0
M  V30 36244 C 3352.1 -1.8723 -0.794753 0
M  V30 36245 C 3352.45 -0.769336 -1.76349 0
M  V30 36246 O 3351.75 0.22867 -1.90231 0
M  V30 36247 C 3351.94 -3.21441 -1.56238 0
M  V30 36248 C 3351.77 -4.44689 -0.669485 0
M  V30 36249 C 3350.54 -5.04316 -0.31525 0
M  V30 36250 C 3352.74 -5.14295 0.0235079 0
M  V30 36251 N 3350.72 -6.11099 0.585817 0
M  V30 36252 C 3352.09 -6.1504 0.782646 0
M  V30 36253 C 3354.15 -4.97805 0.0974371 0
M  V30 36254 C 3352.85 -7.01078 1.60881 0
M  V30 36255 C 3354.87 -5.84349 0.910496 0
M  V30 36256 C 3354.24 -6.84615 1.65775 0
M  V30 36257 H 3350.34 -0.73501 -0.266992 0
M  V30 36258 H 3352.92 -1.94616 -0.0572902 0
M  V30 36259 H 3351.09 -3.15108 -2.27072 0
M  V30 36260 H 3352.82 -3.39085 -2.20914 0
M  V30 36261 H 3349.58 -4.68938 -0.662889 0
M  V30 36262 H 3350 -6.69136 1.0289 0
M  V30 36263 H 3354.64 -4.20225 -0.465946 0
M  V30 36264 H 3352.36 -7.78049 2.18325 0
M  V30 36265 H 3355.95 -5.73651 0.970371 0
M  V30 36266 H 3354.83 -7.50422 2.27676 0
M  V30 36267 N 3352.33 0.365999 -1.53291 0
M  V30 36268 C 3353.58 1.10599 -1.68673 0
M  V30 36269 C 3353.89 1.90475 -0.444826 0
M  V30 36270 O 3355.1 2.67238 -0.479182 0
M  V30 36271 C 3353.55 2.0154 -2.98177 0
M  V30 36272 C 3353.16 1.26978 -4.29628 0
M  V30 36273 C 3354.91 2.75534 -3.22926 0
M  V30 36274 C 3352.81 2.16819 -5.50221 0
M  V30 36275 H 3351.74 0.416593 -0.628464 0
M  V30 36276 H 3354.39 0.367027 -1.79792 0
M  V30 36277 H 3352.78 2.79166 -2.8086 0
M  V30 36278 H 3353.95 0.544189 -4.57575 0
M  V30 36279 H 3352.27 0.648486 -4.11319 0
M  V30 36280 H 3354.86 3.42978 -4.10208 0
M  V30 36281 H 3355.21 3.4088 -2.3897 0
M  V30 36282 H 3355.74 2.04992 -3.40915 0
M  V30 36283 H 3352.48 1.56051 -6.36654 0
M  V30 36284 H 3352 2.87229 -5.26554 0
M  V30 36285 H 3353.68 2.76386 -5.84995 0
M  V30 36286 N 3353.81 1.44644 0.625774 0
M  V30 36287 C 3354.77 1.51558 1.71939 0
M  V30 36288 C 3355.77 0.397015 1.55822 0
M  V30 36289 O 3356.96 0.659838 1.6122 0
M  V30 36290 C 3354.09 1.39466 3.11066 0
M  V30 36291 H 3355.29 2.48979 1.67181 0
M  V30 36292 H 3352.84 1.31815 0.839911 0
M  V30 36293 H 3353.57 0.431591 3.21415 0
M  V30 36294 H 3353.36 2.2058 3.24171 0
M  V30 36295 H 3354.85 1.47297 3.9076 0
M  V30 36296 N 3355.29 -0.866663 1.31631 0
M  V30 36297 C 3356.53 -1.62236 1.21686 0
M  V30 36298 C 3356.87 -1.92907 -0.223733 0
M  V30 36299 O 3356.14 -1.56302 -1.15758 0
M  V30 36300 C 3356.42 -2.95045 2.06448 0
M  V30 36301 C 3356.28 -2.71231 3.58823 0
M  V30 36302 C 3357.6 -3.96184 1.91641 0
M  V30 36303 H 3354.71 -0.588699 0.443399 0
M  V30 36304 H 3357.36 -1.00161 1.61455 0
M  V30 36305 H 3355.51 -3.48024 1.7266 0
M  V30 36306 H 3357.18 -2.24898 4.02764 0
M  V30 36307 H 3355.42 -2.05404 3.82088 0
M  V30 36308 H 3356.09 -3.65745 4.13442 0
M  V30 36309 H 3358.57 -3.52424 2.21216 0
M  V30 36310 H 3357.44 -4.86989 2.53245 0
M  V30 36311 H 3357.71 -4.3324 0.88064 0
M  V30 36312 N 3356.77 -1.14645 -1.0814 0
M  V30 36313 C 3357.73 -0.838627 -2.13307 0
M  V30 36314 C 3358.73 0.157984 -1.60022 0
M  V30 36315 O 3359.92 -0.0706927 -1.74057 0
M  V30 36316 C 3357.05 -0.25065 -3.39977 0
M  V30 36317 H 3358.24 -1.7707 -2.42046 0
M  V30 36318 H 3355.8 -0.95285 -1.23897 0
M  V30 36319 H 3356.53 0.690008 -3.16874 0
M  V30 36320 H 3356.32 -0.968523 -3.7995 0
M  V30 36321 H 3357.81 -0.0525849 -4.17567 0
M  V30 36322 N 3358.24 1.26349 -0.942 0
M  V30 36323 C 3359.49 1.93008 -0.585745 0
M  V30 36324 C 3359.81 1.74713 0.879476 0
M  V30 36325 O 3361.01 2.35835 1.34514 0
M  V30 36326 C 3359.47 3.45819 -0.996848 0
M  V30 36327 C 3359.08 3.72846 -2.48374 0
M  V30 36328 C 3360.82 4.18477 -0.712525 0
M  V30 36329 C 3358.73 5.19102 -2.8335 0
M  V30 36330 H 3357.66 0.722592 -0.215354 0
M  V30 36331 H 3360.31 1.43415 -1.14475 0
M  V30 36332 H 3358.69 3.94302 -0.366365 0
M  V30 36333 H 3359.86 3.35066 -3.16334 0
M  V30 36334 H 3358.18 3.13423 -2.74145 0
M  V30 36335 H 3360.78 5.2619 -0.950162 0
M  V30 36336 H 3361.12 4.1482 0.350738 0
M  V30 36337 H 3361.65 3.75863 -1.30277 0
M  V30 36338 H 3358.39 5.27861 -3.88643 0
M  V30 36339 H 3357.91 5.57976 -2.20052 0
M  V30 36340 H 3359.59 5.87113 -2.71859 0
M  V30 36341 N 3359.72 0.709115 1.40746 0
M  V30 36342 C 3360.96 0.25018 2.02863 0
M  V30 36343 C 3361.33 -1.13317 1.54995 0
M  V30 36344 O 3362.53 -1.68872 2.09131 0
M  V30 36345 C 3360.8 0.320176 3.55963 0
M  V30 36346 S 3362.36 -0.0627236 4.38755 0
M  V30 36347 H 3359.17 0.0997116 0.703973 0
M  V30 36348 H 3361.78 0.9299 1.71968 0
M  V30 36349 H 3360.48 1.32873 3.88295 0
M  V30 36350 H 3360.01 -0.378239 3.91577 0
M  V30 36351 H 3362.03 -1.28663 4.79229 0
M  V30 36352 N 3361.2 -1.50894 0.454829 0
M  V30 36353 C 3362.43 -2.06639 -0.1039 0
M  V30 36354 C 3362.84 -1.32047 -1.34941 0
M  V30 36355 O 3362.2 -0.385004 -1.78393 0
M  V30 36356 C 3362.25 -3.59185 -0.408483 0
M  V30 36357 O 3361.97 -4.30962 0.78761 0
M  V30 36358 C 3363.47 -4.31501 -1.01597 0
M  V30 36359 H 3360.69 -0.671 -0.000160044 0
M  V30 36360 H 3363.24 -1.94262 0.638942 0
M  V30 36361 H 3361.39 -3.71418 -1.10124 0
M  V30 36362 H 3361.81 -5.21892 0.522381 0
M  V30 36363 H 3363.28 -5.39263 -1.17896 0
M  V30 36364 H 3363.76 -3.90931 -2.00175 0
M  V30 36365 H 3364.36 -4.23756 -0.362081 0
M  V30 36366 N 3362.68 -0.186817 -1.56489 0
M  V30 36367 C 3363.9 0.463091 -2.02164 0
M  V30 36368 C 3364.33 1.54967 -1.06615 0
M  V30 36369 O 3363.69 1.81236 -0.0482457 0
M  V30 36370 C 3363.73 1.0041 -3.46338 0
M  V30 36371 O 3362.84 2.1174 -3.53892 0
M  V30 36372 H 3362.18 0.109183 -0.654962 0
M  V30 36373 H 3364.71 -0.295263 -2.02458 0
M  V30 36374 H 3364.72 1.3228 -3.85961 0
M  V30 36375 H 3363.39 0.20862 -4.15376 0
M  V30 36376 H 3361.97 1.80797 -3.26139 0
M  V30 36377 N 3364.16 1.57361 0.0868344 0
M  V30 36378 C 3365.09 1.97909 1.13611 0
M  V30 36379 C 3366.07 0.853588 1.38393 0
M  V30 36380 O 3367.25 1.1146 1.52016 0
M  V30 36381 C 3364.38 2.30293 2.4836 0
M  V30 36382 C 3363.42 3.52696 2.39807 0
M  V30 36383 S 3364.26 5.04104 1.80664 0
M  V30 36384 C 3365.41 5.39674 3.17021 0
M  V30 36385 H 3365.65 2.86598 0.790488 0
M  V30 36386 H 3363.18 1.51559 0.294821 0
M  V30 36387 H 3365.14 2.49627 3.25878 0
M  V30 36388 H 3363.8 1.42159 2.80088 0
M  V30 36389 H 3362.99 3.72824 3.39143 0
M  V30 36390 H 3362.59 3.32915 1.70421 0
M  V30 36391 H 3364.88 5.36825 4.1331 0
M  V30 36392 H 3365.83 6.40617 3.01688 0
M  V30 36393 H 3366.24 4.67133 3.16933 0
M  V30 36394 N 3365.63 -0.357865 1.53483 0
M  V30 36395 C 3366.56 -1.44463 1.83446 0
M  V30 36396 C 3367.54 -1.55543 0.688513 0
M  V30 36397 O 3368.73 -1.69985 0.93909 0
M  V30 36398 C 3365.86 -2.81703 2.03127 0
M  V30 36399 C 3364.81 -2.85442 3.18915 0
M  V30 36400 C 3364.14 -4.25431 3.23902 0
M  V30 36401 C 3365.44 -2.52267 4.57339 0
M  V30 36402 H 3367.13 -1.19637 2.74458 0
M  V30 36403 H 3364.68 -0.574089 1.32061 0
M  V30 36404 H 3366.63 -3.57764 2.22672 0
M  V30 36405 H 3365.36 -3.07933 1.08833 0
M  V30 36406 H 3364.02 -2.11833 2.99203 0
M  V30 36407 H 3363.66 -4.48749 2.27231 0
M  V30 36408 H 3363.36 -4.28847 4.01702 0
M  V30 36409 H 3364.89 -5.03354 3.4564 0
M  V30 36410 H 3366.3 -3.18042 4.76993 0
M  V30 36411 H 3364.7 -2.66988 5.37436 0
M  V30 36412 H 3365.77 -1.47493 4.61924 0
M  V30 36413 N 3367.11 -1.44974 -0.618094 0
M  V30 36414 C 3368.36 -1.48441 -1.37737 0
M  V30 36415 C 3368.69 -0.122033 -1.94117 0
M  V30 36416 O 3367.94 0.877943 -1.74902 0
M  V30 36417 C 3368.24 -2.50278 -2.55138 0
M  V30 36418 C 3367.91 -3.95266 -2.16969 0
M  V30 36419 C 3366.57 -4.34747 -2.06273 0
M  V30 36420 C 3368.92 -4.8649 -1.87022 0
M  V30 36421 C 3366.25 -5.6336 -1.63836 0
M  V30 36422 C 3368.6 -6.15504 -1.46074 0
M  V30 36423 C 3367.26 -6.53926 -1.33929 0
M  V30 36424 H 3366.53 -0.543184 -0.504016 0
M  V30 36425 H 3369.18 -1.78261 -0.699653 0
M  V30 36426 H 3367.49 -2.13989 -3.28201 0
M  V30 36427 H 3369.18 -2.50203 -3.13368 0
M  V30 36428 H 3365.77 -3.64038 -2.26217 0
M  V30 36429 H 3369.96 -4.56733 -1.94188 0
M  V30 36430 H 3365.21 -5.91935 -1.53047 0
M  V30 36431 H 3369.39 -6.8564 -1.21944 0
M  V30 36432 H 3367.01 -7.53485 -1.00819 0
M  V30 36433 N 3368.59 0.85967 -1.32089 0
M  V30 36434 C 3369.84 1.61349 -1.22363 0
M  V30 36435 C 3370.16 1.933 0.215762 0
M  V30 36436 O 3369.42 1.57068 1.16739 0
M  V30 36437 C 3369.72 2.94603 -2.02345 0
M  V30 36438 C 3369.38 2.82103 -3.51751 0
M  V30 36439 C 3368.05 2.78401 -3.92487 0
M  V30 36440 C 3370.4 2.68395 -4.46781 0
M  V30 36441 C 3367.73 2.58863 -5.26504 0
M  V30 36442 C 3370.08 2.50394 -5.80935 0
M  V30 36443 C 3368.74 2.45081 -6.2088 0
M  V30 36444 H 3368.01 0.590418 -0.447758 0
M  V30 36445 H 3370.66 0.997608 -1.63463 0
M  V30 36446 H 3368.96 3.60283 -1.53959 0
M  V30 36447 H 3370.66 3.51941 -1.92193 0
M  V30 36448 H 3367.25 2.85807 -3.19394 0
M  V30 36449 H 3371.44 2.70304 -4.16233 0
M  V30 36450 H 3366.69 2.53182 -5.56515 0
M  V30 36451 H 3370.87 2.38766 -6.54189 0
M  V30 36452 H 3368.49 2.29701 -7.24666 0
M  V30 36453 N 3370.07 1.15217 1.0753 0
M  V30 36454 C 3371.31 0.925923 1.80091 0
M  V30 36455 C 3371.64 -0.547046 1.86648 0
M  V30 36456 O 3370.9 -1.42161 1.34494 0
M  V30 36457 C 3371.2 1.48306 3.25177 0
M  V30 36458 C 3370.86 2.9762 3.38723 0
M  V30 36459 C 3369.52 3.38382 3.42127 0
M  V30 36460 C 3371.88 3.93589 3.41669 0
M  V30 36461 C 3369.2 4.73758 3.46078 0
M  V30 36462 C 3371.56 5.28834 3.47156 0
M  V30 36463 C 3370.22 5.69095 3.48837 0
M  V30 36464 H 3369.49 0.338819 0.659001 0
M  V30 36465 H 3372.14 1.43731 1.26546 0
M  V30 36466 H 3370.44 0.892818 3.81492 0
M  V30 36467 H 3372.14 1.28383 3.79893 0
M  V30 36468 H 3368.73 2.6511 3.36771 0
M  V30 36469 H 3372.91 3.63171 3.38261 0
M  V30 36470 H 3368.17 5.04299 3.45677 0
M  V30 36471 H 3372.34 6.02995 3.48382 0
M  V30 36472 H 3369.97 6.73977 3.51652 0
M  V30 36473 N 3371.55 -1.25848 0.948687 0
M  V30 36474 C 3372.77 -1.98017 0.616776 0
M  V30 36475 C 3373.2 -1.701 -0.802975 0
M  V30 36476 O 3372.55 -0.953419 -1.54206 0
M  V30 36477 C 3372.6 -3.49836 0.874491 0
M  V30 36478 O 3371.71 -4.1237 -0.0496843 0
M  V30 36479 H 3371.05 -0.620978 0.235123 0
M  V30 36480 H 3373.58 -1.60122 1.27367 0
M  V30 36481 H 3373.59 -4.00112 0.79838 0
M  V30 36482 H 3372.26 -3.69485 1.90929 0
M  V30 36483 H 3370.84 -3.72818 0.0781247 0
M  V30 36484 N 3373.02 -0.716569 -1.40368 0
M  V30 36485 C 3373.97 -0.064635 -2.30709 0
M  V30 36486 C 3374.94 0.749268 -1.4824 0
M  V30 36487 O 3376.13 0.713014 -1.76977 0
M  V30 36488 C 3373.27 0.850419 -3.34458 0
M  V30 36489 C 3372.38 0.0258834 -4.31992 0
M  V30 36490 C 3371.51 0.940507 -5.22808 0
M  V30 36491 C 3370.55 0.11012 -6.12001 0
M  V30 36492 N 3369.69 0.979674 -6.95231 0
M  V30 36493 H 3374.53 -0.840733 -2.85895 0
M  V30 36494 H 3372.07 -0.426283 -1.40788 0
M  V30 36495 H 3374.03 1.39521 -3.93179 0
M  V30 36496 H 3372.66 1.59269 -2.80773 0
M  V30 36497 H 3371.71 -0.636102 -3.75044 0
M  V30 36498 H 3373.02 -0.61697 -4.9497 0
M  V30 36499 H 3372.17 1.55379 -5.86466 0
M  V30 36500 H 3370.91 1.61718 -4.60107 0
M  V30 36501 H 3369.92 -0.516097 -5.47372 0
M  V30 36502 H 3371.14 -0.563063 -6.76762 0
M  V30 36503 H 3369.09 1.64198 -6.35118 0
M  V30 36504 H 3369.01 0.392879 -7.54978 0
M  V30 36505 H 3370.27 1.57911 -7.63338 0
M  V30 36506 N 3374.5 1.50651 -0.462825 0
M  V30 36507 C 3375.91 1.86699 -0.00572188 0
M  V30 36508 C 3376.26 1.37824 1.39638 0
M  V30 36509 O 3375.39 0.739715 2.03365 0
M  V30 36510 C 3375.98 3.388 -0.00360738 0
M  V30 36511 C 3374.54 3.7429 0.397995 0
M  V30 36512 C 3373.69 2.74506 -0.392622 0
M  V30 36513 H 3376.64 1.43512 -0.677494 0
M  V30 36514 H 3376.66 3.71987 0.80039 0
M  V30 36515 H 3376.17 3.74342 -1.0242 0
M  V30 36516 H 3374.28 3.44346 1.42325 0
M  V30 36517 H 3374.39 4.78985 0.105083 0
M  V30 36518 H 3372.75 2.54243 0.152564 0
M  V30 36519 H 3373.54 3.12892 -1.41257 0
M  V30 36520 N 3375.98 0.195113 1.56388 0
M  V30 36521 C 3377.23 -0.444309 1.97873 0
M  V30 36522 C 3377.56 -1.61269 1.08193 0
M  V30 36523 O 3376.83 -1.94038 0.133938 0
M  V30 36524 C 3377.12 -0.904429 3.48557 0
M  V30 36525 C 3376.97 0.265772 4.49014 0
M  V30 36526 C 3378.29 -1.76992 4.02941 0
M  V30 36527 H 3375.41 -0.160029 0.719416 0
M  V30 36528 H 3378.05 0.286038 1.87835 0
M  V30 36529 H 3376.2 -1.52676 3.57243 0
M  V30 36530 H 3377.87 0.903442 4.52367 0
M  V30 36531 H 3376.12 0.917536 4.23986 0
M  V30 36532 H 3376.79 -0.0986864 5.51912 0
M  V30 36533 H 3379.26 -1.24507 3.97036 0
M  V30 36534 H 3378.14 -2.06083 5.08745 0
M  V30 36535 H 3378.4 -2.72412 3.48202 0
M  V30 36536 N 3377.46 -1.57404 -0.0784879 0
M  V30 36537 C 3378.71 -1.86551 -0.777366 0
M  V30 36538 C 3379.03 -0.786173 -1.7845 0
M  V30 36539 O 3378.3 0.185876 -1.95016 0
M  V30 36540 H 3376.88 -0.688375 -0.290085 0
M  V30 36541 H 3379.54 -1.94819 -0.0561675 0
M  V30 36542 H 3378.64 -2.83841 -1.29771 0
M  V30 36543 N 3378.94 0.34972 -1.53671 0
M  V30 36544 C 3380.19 1.08804 -1.69837 0
M  V30 36545 C 3380.5 1.89992 -0.465003 0
M  V30 36546 O 3381.7 2.66715 -0.507499 0
M  V30 36547 C 3380.16 1.98366 -3.00298 0
M  V30 36548 C 3379.77 1.22414 -4.30951 0
M  V30 36549 C 3381.51 2.72093 -3.2583 0
M  V30 36550 C 3379.42 2.10971 -5.5249 0
M  V30 36551 H 3378.35 0.409904 -0.632847 0
M  V30 36552 H 3381 0.347937 -1.80171 0
M  V30 36553 H 3379.38 2.76171 -2.83805 0
M  V30 36554 H 3380.56 0.495626 -4.58127 0
M  V30 36555 H 3378.87 0.604824 -4.11984 0
M  V30 36556 H 3381.47 3.38607 -4.13823 0
M  V30 36557 H 3381.81 3.38326 -2.42572 0
M  V30 36558 H 3382.34 2.01364 -3.4307 0
M  V30 36559 H 3379.08 1.4929 -6.38273 0
M  V30 36560 H 3378.6 2.81628 -5.29571 0
M  V30 36561 H 3380.28 2.70166 -5.87894 0
M  V30 36562 N 3380.41 1.45299 0.610397 0
M  V30 36563 C 3381.83 1.29643 0.930849 0
M  V30 36564 C 3382.03 0.247393 1.99976 0
M  V30 36565 O 3381.09 -0.35963 2.49926 0
M  V30 36566 C 3382.4 2.6745 1.37444 0
M  V30 36567 C 3383.95 2.75325 1.4888 0
M  V30 36568 C 3384.42 4.1365 1.96616 0
M  V30 36569 N 3385.91 4.1593 2.03854 0
M  V30 36570 C 3386.65 5.19828 2.42006 0
M  V30 36571 N 3386.14 6.34074 2.79146 0
M  V30 36572 N 3387.94 5.07186 2.42321 0
M  V30 36573 H 3380.09 2.12182 -0.0961632 0
M  V30 36574 H 3382.35 0.947797 0.0196316 0
M  V30 36575 H 3382.06 3.4539 0.663215 0
M  V30 36576 H 3381.93 2.95725 2.3415 0
M  V30 36577 H 3384.32 1.9769 2.19095 0
M  V30 36578 H 3384.4 2.50766 0.504962 0
M  V30 36579 H 3384.04 4.91768 1.2699 0
M  V30 36580 H 3383.97 4.35598 2.95909 0
M  V30 36581 H 3386.46 3.33485 1.77753 0
M  V30 36582 H 3386.78 7.09148 3.07131 0
M  V30 36583 H 3385.12 6.37479 2.76849 0
M  V30 36584 H 3388.31 4.1698 2.12709 0
M  V30 36585 H 3388.49 5.88276 2.71727 0
M  V30 36586 N 3381.89 -0.852653 1.32543 0
M  V30 36587 C 3383.3 -1.42297 1.20866 0
M  V30 36588 C 3383.65 -1.95391 -0.178017 0
M  V30 36589 O 3382.78 -1.87704 -1.07686 0
M  V30 36590 C 3383.37 -2.5866 2.18816 0
M  V30 36591 C 3381.93 -3.11685 2.1102 0
M  V30 36592 C 3381.08 -1.84438 2.0707 0
M  V30 36593 H 3384.03 -0.659631 1.44342 0
M  V30 36594 H 3384.05 -3.35881 1.78785 0
M  V30 36595 H 3383.56 -2.19987 3.1973 0
M  V30 36596 H 3381.67 -3.54937 1.13361 0
M  V30 36597 H 3381.78 -3.72793 3.00935 0
M  V30 36598 H 3380.14 -2.0412 1.52339 0
M  V30 36599 H 3380.93 -1.47979 3.0977 0
M  V30 36600 N 3383.37 -1.15786 -1.06918 0
M  V30 36601 C 3384.62 -0.93546 -1.79598 0
M  V30 36602 C 3384.95 0.53714 -1.86936 0
M  V30 36603 O 3384.2 1.41446 -1.35246 0
M  V30 36604 C 3384.5 -1.50028 -3.24386 0
M  V30 36605 C 3384.17 -2.99412 -3.3714 0
M  V30 36606 C 3382.83 -3.40192 -3.40328 0
M  V30 36607 C 3385.18 -3.95395 -3.39577 0
M  V30 36608 C 3382.51 -4.75587 -3.43561 0
M  V30 36609 C 3384.86 -5.30667 -3.44347 0
M  V30 36610 C 3383.52 -5.70937 -3.45814 0
M  V30 36611 H 3382.79 -0.342309 -0.657195 0
M  V30 36612 H 3385.44 -1.444 -1.25782 0
M  V30 36613 H 3383.75 -0.913037 -3.81013 0
M  V30 36614 H 3385.44 -1.30396 -3.79207 0
M  V30 36615 H 3382.03 -2.66893 -3.3536 0
M  V30 36616 H 3386.22 -3.6496 -3.3633 0
M  V30 36617 H 3381.47 -5.06125 -3.42997 0
M  V30 36618 H 3385.65 -6.04834 -3.45179 0
M  V30 36619 H 3383.27 -6.75833 -3.48072 0
M  V30 36620 N 3384.85 1.25343 -0.955348 0
M  V30 36621 C 3385.78 2.28211 -0.494186 0
M  V30 36622 C 3386.76 1.63766 0.459846 0
M  V30 36623 O 3387.94 1.9086 0.358645 0
M  V30 36624 C 3385.07 3.4655 0.228167 0
M  V30 36625 C 3384.03 4.23178 -0.640676 0
M  V30 36626 C 3383.35 5.34278 0.212459 0
M  V30 36627 C 3384.65 4.85764 -1.91914 0
M  V30 36628 H 3386.35 2.67036 -1.35395 0
M  V30 36629 H 3383.89 1.28369 -0.652484 0
M  V30 36630 H 3385.85 4.17637 0.561921 0
M  V30 36631 H 3384.57 3.06716 1.12219 0
M  V30 36632 H 3383.23 3.53874 -0.957525 0
M  V30 36633 H 3382.88 4.90684 1.10626 0
M  V30 36634 H 3382.58 5.86462 -0.365576 0
M  V30 36635 H 3384.1 6.08197 0.541164 0
M  V30 36636 H 3385.52 5.4899 -1.65175 0
M  V30 36637 H 3383.91 5.48127 -2.44289 0
M  V30 36638 H 3384.98 4.07909 -2.6218 0
M  V30 36639 N 3386.33 0.724003 1.39986 0
M  V30 36640 C 3387.57 0.267546 2.01027 0
M  V30 36641 C 3387.91 -1.13892 1.57297 0
M  V30 36642 O 3387.18 -1.77428 0.796836 0
M  V30 36643 C 3387.46 0.357034 3.58326 0
M  V30 36644 C 3387.32 1.80248 4.12105 0
M  V30 36645 C 3388.64 -0.266925 4.3929 0
M  V30 36646 H 3385.76 0.0986904 0.730362 0
M  V30 36647 H 3388.4 0.918089 1.66346 0
M  V30 36648 H 3386.55 -0.19684 3.88001 0
M  V30 36649 H 3388.22 2.41238 3.93194 0
M  V30 36650 H 3386.46 2.32744 3.66078 0
M  V30 36651 H 3387.13 1.81643 5.21258 0
M  V30 36652 H 3389.61 0.205103 4.15594 0
M  V30 36653 H 3388.49 -0.173908 5.48624 0
M  V30 36654 H 3388.75 -1.35156 4.20934 0
M  V30 36655 N 3387.81 -1.50403 0.470808 0
M  V30 36656 C 3389.03 -2.07229 -0.0842475 0
M  V30 36657 C 3389.46 -1.33241 -1.32772 0
M  V30 36658 O 3388.81 -0.380002 -1.77273 0
M  V30 36659 C 3388.86 -3.58883 -0.351502 0
M  V30 36660 O 3387.97 -3.86738 -1.43204 0
M  V30 36661 H 3387.31 -0.663875 0.0128596 0
M  V30 36662 H 3389.84 -1.93602 0.661769 0
M  V30 36663 H 3389.85 -4.03681 -0.59208 0
M  V30 36664 H 3388.52 -4.12151 0.557157 0
M  V30 36665 H 3387.1 -3.53778 -1.17879 0
M  V30 36666 N 3389.28 -0.203404 -1.56282 0
M  V30 36667 C 3390.53 0.433426 -1.96988 0
M  V30 36668 C 3390.85 1.62181 -1.09347 0
M  V30 36669 O 3392.05 2.32697 -1.39872 0
M  V30 36670 C 3390.51 0.822508 -3.50375 0
M  V30 36671 C 3390.12 -0.342048 -4.46692 0
M  V30 36672 C 3391.86 1.42596 -3.99833 0
M  V30 36673 C 3389.77 0.0684569 -5.9136 0
M  V30 36674 H 3388.7 0.165704 -0.735566 0
M  V30 36675 H 3391.35 -0.29674 -1.81085 0
M  V30 36676 H 3389.73 1.60958 -3.61813 0
M  V30 36677 H 3390.9 -1.1196 -4.46992 0
M  V30 36678 H 3389.22 -0.857535 -4.07474 0
M  V30 36679 H 3391.82 1.74568 -5.05401 0
M  V30 36680 H 3392.16 2.33538 -3.44624 0
M  V30 36681 H 3392.69 0.702689 -3.91545 0
M  V30 36682 H 3389.43 -0.806994 -6.50514 0
M  V30 36683 H 3388.95 0.810694 -5.94296 0
M  V30 36684 H 3390.63 0.501411 -6.45054 0
M  V30 36685 N 3390.76 1.57444 0.0701393 0
M  V30 36686 C 3391.69 1.99102 1.11505 0
M  V30 36687 C 3392.67 0.868219 1.3748 0
M  V30 36688 O 3393.86 1.13066 1.50825 0
M  V30 36689 C 3390.98 2.32914 2.45904 0
M  V30 36690 C 3390.03 3.5522 2.36053 0
M  V30 36691 S 3390.86 5.05992 1.75307 0
M  V30 36692 C 3392.02 5.43006 3.11279 0
M  V30 36693 H 3392.25 2.87421 0.760046 0
M  V30 36694 H 3389.78 1.51863 0.278729 0
M  V30 36695 H 3391.74 2.53069 3.23212 0
M  V30 36696 H 3390.4 1.45122 2.78565 0
M  V30 36697 H 3389.6 3.76401 3.3517 0
M  V30 36698 H 3389.2 3.34704 1.6688 0
M  V30 36699 H 3391.49 5.41178 4.07593 0
M  V30 36700 H 3392.43 6.4378 2.94877 0
M  V30 36701 H 3392.84 4.70469 3.11961 0
M  V30 36702 N 3392.24 -0.341566 1.53854 0
M  V30 36703 C 3393.17 -1.42509 1.84968 0
M  V30 36704 C 3394.15 -1.54804 0.704972 0
M  V30 36705 O 3395.34 -1.68979 0.957066 0
M  V30 36706 C 3392.47 -2.79533 2.06104 0
M  V30 36707 C 3391.42 -2.82044 3.21924 0
M  V30 36708 C 3390.75 -4.21971 3.28396 0
M  V30 36709 C 3392.05 -2.47402 4.59988 0
M  V30 36710 H 3393.74 -1.1672 2.75712 0
M  V30 36711 H 3391.29 -0.56005 1.32663 0
M  V30 36712 H 3393.24 -3.55382 2.26454 0
M  V30 36713 H 3391.96 -3.06762 1.12093 0
M  V30 36714 H 3390.62 -2.08648 3.01433 0
M  V30 36715 H 3390.27 -4.46313 2.31977 0
M  V30 36716 H 3389.97 -4.24562 4.06228 0
M  V30 36717 H 3391.49 -4.9966 3.5096 0
M  V30 36718 H 3392.91 -3.12965 4.8034 0
M  V30 36719 H 3391.3 -2.61273 5.40237 0
M  V30 36720 H 3392.37 -1.42586 4.63462 0
M  V30 36721 N 3393.72 -1.45621 -0.602683 0
M  V30 36722 C 3395.13 -1.30135 -0.92396 0
M  V30 36723 C 3395.33 -0.257995 -1.99842 0
M  V30 36724 O 3394.39 0.346371 -2.50113 0
M  V30 36725 C 3395.7 -2.68175 -1.36024 0
M  V30 36726 C 3397.25 -2.7611 -1.47418 0
M  V30 36727 C 3397.73 -4.14687 -1.9442 0
M  V30 36728 N 3399.22 -4.17005 -2.01646 0
M  V30 36729 C 3399.95 -5.21104 -2.39246 0
M  V30 36730 N 3399.45 -6.35545 -2.7578 0
M  V30 36731 N 3401.24 -5.08464 -2.39627 0
M  V30 36732 H 3393.39 -2.12128 0.107414 0
M  V30 36733 H 3395.65 -0.947887 -0.0146049 0
M  V30 36734 H 3395.36 -3.45737 -0.644889 0
M  V30 36735 H 3395.23 -2.96963 -2.32579 0
M  V30 36736 H 3397.62 -1.98849 -2.18043 0
M  V30 36737 H 3397.7 -2.51031 -0.491656 0
M  V30 36738 H 3397.35 -4.92435 -1.2438 0
M  V30 36739 H 3397.28 -4.37161 -2.93595 0
M  V30 36740 H 3399.77 -3.34423 -1.75982 0
M  V30 36741 H 3400.08 -7.10767 -3.03366 0
M  V30 36742 H 3398.43 -6.38939 -2.73464 0
M  V30 36743 H 3401.62 -4.18102 -2.10495 0
M  V30 36744 H 3401.79 -5.89708 -2.68604 0
M  V30 36745 N 3395.2 0.845612 -1.32993 0
M  V30 36746 C 3396.42 1.63788 -1.27233 0
M  V30 36747 C 3396.85 1.87459 0.155108 0
M  V30 36748 O 3396.2 1.43386 1.10951 0
M  V30 36749 C 3396.25 2.96913 -2.04634 0
M  V30 36750 O 3395.36 3.87897 -1.40033 0
M  V30 36751 H 3394.7 0.499004 -0.438054 0
M  V30 36752 H 3397.23 1.05254 -1.7545 0
M  V30 36753 H 3397.24 3.46663 -2.15147 0
M  V30 36754 H 3395.91 2.79005 -3.0843 0
M  V30 36755 H 3394.49 3.46376 -1.38124 0
M  V30 36756 N 3396.67 1.16351 1.06302 0
M  V30 36757 C 3397.92 0.939454 1.78486 0
M  V30 36758 C 3398.24 -0.533965 1.88171 0
M  V30 36759 O 3399.44 -0.875917 2.56982 0
M  V30 36760 C 3397.9 1.63155 3.20794 0
M  V30 36761 C 3397.51 3.14273 3.19275 0
M  V30 36762 C 3399.25 1.48945 3.97512 0
M  V30 36763 C 3397.16 3.76221 4.56302 0
M  V30 36764 H 3396.09 0.347849 0.668967 0
M  V30 36765 H 3398.74 1.39483 1.19234 0
M  V30 36766 H 3397.12 1.10389 3.80303 0
M  V30 36767 H 3398.29 3.73882 2.69349 0
M  V30 36768 H 3396.61 3.28366 2.56056 0
M  V30 36769 H 3399.21 1.92609 4.98804 0
M  V30 36770 H 3399.55 0.438392 4.13985 0
M  V30 36771 H 3400.08 1.98867 3.44524 0
M  V30 36772 H 3396.82 4.81275 4.45034 0
M  V30 36773 H 3396.34 3.21397 5.06423 0
M  V30 36774 H 3398.02 3.77772 5.2526 0
M  V30 36775 N 3398.15 -1.24835 0.961982 0
M  V30 36776 C 3399.38 -1.96527 0.637249 0
M  V30 36777 C 3399.79 -1.71624 -0.79635 0
M  V30 36778 O 3399.13 -0.993399 -1.54523 0
M  V30 36779 C 3399.19 -3.49905 0.825034 0
M  V30 36780 C 3398.86 -3.98496 2.23718 0
M  V30 36781 C 3399.86 -4.08618 3.21446 0
M  V30 36782 C 3397.54 -4.3197 2.56335 0
M  V30 36783 C 3399.53 -4.51538 4.4988 0
M  V30 36784 C 3397.22 -4.74575 3.84996 0
M  V30 36785 C 3398.22 -4.84323 4.81581 0
M  V30 36786 O 3397.91 -5.2598 6.07947 0
M  V30 36787 H 3397.64 -0.633009 0.237225 0
M  V30 36788 H 3400.19 -1.5977 1.29084 0
M  V30 36789 H 3398.42 -3.86531 0.114287 0
M  V30 36790 H 3400.11 -4.02806 0.500249 0
M  V30 36791 H 3400.88 -3.8298 2.97576 0
M  V30 36792 H 3396.76 -4.23605 1.81879 0
M  V30 36793 H 3400.3 -4.59062 5.25269 0
M  V30 36794 H 3396.2 -4.99659 4.0867 0
M  V30 36795 H 3396.97 -5.44146 6.11431 0
M  V30 36796 N 3399.63 -0.731417 -1.396 0
M  V30 36797 C 3400.86 -0.287926 -2.04887 0
M  V30 36798 C 3401.27 1.07597 -1.5514 0
M  V30 36799 O 3400.63 1.67922 -0.71474 0
M  V30 36800 C 3400.68 -0.276692 -3.6044 0
M  V30 36801 O 3400.4 -1.58675 -4.08355 0
M  V30 36802 C 3401.9 0.183408 -4.4292 0
M  V30 36803 H 3399.12 -0.126471 -0.658974 0
M  V30 36804 H 3401.67 -0.994063 -1.78714 0
M  V30 36805 H 3399.82 0.380529 -3.85527 0
M  V30 36806 H 3400.24 -1.49788 -5.02657 0
M  V30 36807 H 3401.71 0.14011 -5.51822 0
M  V30 36808 H 3402.19 1.22804 -4.21682 0
M  V30 36809 H 3402.79 -0.444116 -4.22975 0
M  V30 36810 N 3401.11 1.50152 -0.478778 0
M  V30 36811 C 3402.36 2.01559 0.0752745 0
M  V30 36812 C 3402.67 1.3651 1.40087 0
M  V30 36813 O 3403.88 1.79118 2.04032 0
M  V30 36814 C 3402.33 3.59426 0.184651 0
M  V30 36815 C 3401.94 4.33437 -1.13297 0
M  V30 36816 C 3403.68 4.18851 0.690252 0
M  V30 36817 C 3401.59 5.83106 -0.986968 0
M  V30 36818 H 3400.52 0.753325 0.0319063 0
M  V30 36819 H 3403.17 1.72893 -0.614839 0
M  V30 36820 H 3401.55 3.84713 0.93872 0
M  V30 36821 H 3402.73 4.19869 -1.89859 0
M  V30 36822 H 3401.04 3.85657 -1.57028 0
M  V30 36823 H 3403.64 5.28427 0.81664 0
M  V30 36824 H 3403.98 3.8074 1.68354 0
M  V30 36825 H 3404.52 3.97799 -0.00664838 0
M  V30 36826 H 3401.26 6.25703 -1.95386 0
M  V30 36827 H 3400.78 5.99228 -0.261857 0
M  V30 36828 H 3402.45 6.43659 -0.656681 0
M  V30 36829 N 3402.59 0.211689 1.56172 0
M  V30 36830 C 3403.83 -0.421836 1.97649 0
M  V30 36831 C 3404.16 -1.60993 1.10029 0
M  V30 36832 O 3403.43 -1.95116 0.175143 0
M  V30 36833 H 3402.01 -0.158839 0.729917 0
M  V30 36834 H 3404.67 0.302288 1.92542 0
M  V30 36835 H 3403.76 -0.754815 3.02835 0
M  V30 36836 N 3404.06 -1.57479 -0.0617887 0
M  V30 36837 C 3404.99 -2.07413 -1.07248 0
M  V30 36838 C 3405.98 -0.969674 -1.39755 0
M  V30 36839 O 3407.16 -1.243 -1.49208 0
M  V30 36840 C 3404.29 -2.52639 -2.38308 0
M  V30 36841 C 3403.24 -3.67052 -2.2013 0
M  V30 36842 C 3402.57 -3.98368 -3.56661 0
M  V30 36843 C 3403.87 -4.96728 -1.61428 0
M  V30 36844 H 3405.56 -2.92104 -0.656932 0
M  V30 36845 H 3403.11 -1.40522 -0.314554 0
M  V30 36846 H 3405.06 -2.86186 -3.09314 0
M  V30 36847 H 3403.79 -1.64989 -2.81862 0
M  V30 36848 H 3402.45 -3.33803 -1.51563 0
M  V30 36849 H 3402.09 -3.07833 -3.97804 0
M  V30 36850 H 3401.79 -4.75414 -3.45334 0
M  V30 36851 H 3403.32 -4.3442 -4.29082 0
M  V30 36852 H 3404.73 -5.28442 -2.22311 0
M  V30 36853 H 3403.13 -5.78164 -1.60769 0
M  V30 36854 H 3404.2 -4.81458 -0.57671 0
M  V30 36855 N 3405.54 0.333401 -1.54033 0
M  V30 36856 C 3406.79 1.07037 -1.71428 0
M  V30 36857 C 3407.11 1.88859 -0.485529 0
M  V30 36858 O 3406.38 1.89398 0.500522 0
M  V30 36859 H 3404.96 0.398162 -0.632041 0
M  V30 36860 H 3407.62 0.372219 -1.91313 0
M  V30 36861 H 3406.72 1.742 -2.58961 0
M  V30 36862 N 3407.02 1.45939 0.594952 0
M  V30 36863 C 3408.43 1.44926 1.17701 0
M  V30 36864 C 3408.78 0.183557 1.95339 0
M  V30 36865 O 3407.91 -0.714127 2.04277 0
M  V30 36866 C 3408.5 2.62565 2.14114 0
M  V30 36867 C 3407.06 2.64632 2.67669 0
M  V30 36868 C 3406.21 2.37399 1.43307 0
M  V30 36869 H 3409.16 1.53995 0.383556 0
M  V30 36870 H 3409.18 2.37385 2.9737 0
M  V30 36871 H 3408.69 3.54669 1.57579 0
M  V30 36872 H 3406.79 1.76568 3.28107 0
M  V30 36873 H 3406.91 3.64234 3.1124 0
M  V30 36874 H 3405.27 1.87209 1.72699 0
M  V30 36875 H 3406.05 3.31664 0.886218 0
M  V30 36876 N 3408.5 -0.838547 1.3344 0
M  V30 36877 C 3409.73 -1.6259 1.27954 0
M  V30 36878 C 3410.14 -1.88207 -0.149469 0
M  V30 36879 O 3409.5 -1.46246 -1.09171 0
M  V30 36880 C 3409.55 -2.97591 2.05235 0
M  V30 36881 O 3409.27 -2.73099 3.42562 0
M  V30 36882 C 3410.77 -3.92021 2.06964 0
M  V30 36883 H 3407.99 -0.505897 0.440805 0
M  V30 36884 H 3410.54 -1.04447 1.75816 0
M  V30 36885 H 3408.69 -3.52335 1.61055 0
M  V30 36886 H 3409.1 -3.5907 3.82321 0
M  V30 36887 H 3410.58 -4.83962 2.6549 0
M  V30 36888 H 3411.06 -4.26217 1.05998 0
M  V30 36889 H 3411.66 -3.43215 2.51164 0
M  V30 36890 N 3409.98 -1.16914 -1.05683 0
M  V30 36891 C 3410.91 -0.90457 -2.15267 0
M  V30 36892 C 3411.89 0.151519 -1.69424 0
M  V30 36893 O 3413.07 0.00231957 -1.942 0
M  V30 36894 C 3410.2 -0.411642 -3.44852 0
M  V30 36895 C 3409.16 -1.40635 -4.04235 0
M  V30 36896 C 3408.48 -0.771572 -5.29104 0
M  V30 36897 C 3409.78 -2.77795 -4.42298 0
M  V30 36898 H 3411.48 -1.82099 -2.37656 0
M  V30 36899 H 3409.02 -0.876967 -1.14216 0
M  V30 36900 H 3410.98 -0.214003 -4.20856 0
M  V30 36901 H 3409.7 0.540296 -3.221 0
M  V30 36902 H 3408.36 -1.59064 -3.30294 0
M  V30 36903 H 3408.01 0.187045 -5.02652 0
M  V30 36904 H 3407.71 -1.43555 -5.69794 0
M  V30 36905 H 3409.23 -0.584094 -6.078 0
M  V30 36906 H 3410.64 -2.63112 -5.09357 0
M  V30 36907 H 3409.04 -3.40724 -4.93991 0
M  V30 36908 H 3410.11 -3.32581 -3.52871 0
M  V30 36909 N 3411.45 1.24323 -0.968589 0
M  V30 36910 C 3412.7 1.91722 -0.626553 0
M  V30 36911 C 3413.02 1.76539 0.842219 0
M  V30 36912 O 3414.22 2.38635 1.29482 0
M  V30 36913 C 3412.68 3.43627 -1.06998 0
M  V30 36914 C 3412.29 3.67494 -2.56227 0
M  V30 36915 C 3414.03 4.16872 -0.80113 0
M  V30 36916 C 3411.94 5.12975 -2.94297 0
M  V30 36917 H 3410.87 0.717861 -0.230633 0
M  V30 36918 H 3413.52 1.40954 -1.17491 0
M  V30 36919 H 3411.9 3.93436 -0.449919 0
M  V30 36920 H 3413.07 3.28281 -3.2337 0
M  V30 36921 H 3411.39 3.07537 -2.80731 0
M  V30 36922 H 3413.99 5.24056 -1.06156 0
M  V30 36923 H 3414.33 4.15471 0.262669 0
M  V30 36924 H 3414.86 3.73015 -1.3822 0
M  V30 36925 H 3411.6 5.19499 -3.99752 0
M  V30 36926 H 3411.12 5.53183 -2.31838 0
M  V30 36927 H 3412.8 5.81214 -2.84252 0
M  V30 36928 N 3412.93 0.73881 1.3921 0
M  V30 36929 C 3413.86 0.116511 2.33209 0
M  V30 36930 C 3414.84 -0.720029 1.54109 0
M  V30 36931 O 3416.03 -0.664232 1.82487 0
M  V30 36932 C 3413.16 -0.788661 3.38227 0
M  V30 36933 C 3412.11 -0.0559884 4.27963 0
M  V30 36934 C 3411.44 -1.07843 5.23712 0
M  V30 36935 C 3412.74 1.10369 5.10506 0
M  V30 36936 H 3414.43 0.9017 2.85499 0
M  V30 36937 H 3411.98 0.435056 1.37271 0
M  V30 36938 H 3413.93 -1.23357 4.0294 0
M  V30 36939 H 3412.66 -1.60601 2.84385 0
M  V30 36940 H 3411.31 0.369339 3.64735 0
M  V30 36941 H 3410.96 -1.88944 4.66164 0
M  V30 36942 H 3410.66 -0.592946 5.84601 0
M  V30 36943 H 3412.19 -1.52296 5.91302 0
M  V30 36944 H 3413.6 0.737043 5.68542 0
M  V30 36945 H 3412 1.51906 5.80556 0
M  V30 36946 H 3413.07 1.92359 4.45113 0
M  V30 36947 N 3414.41 -1.49895 0.486734 0
M  V30 36948 C 3415.34 -2.31706 -0.288858 0
M  V30 36949 C 3416.32 -1.39322 -0.975877 0
M  V30 36950 O 3417.51 -1.68238 -0.970036 0
M  V30 36951 C 3414.64 -3.19474 -1.36212 0
M  V30 36952 C 3413.59 -4.20536 -0.795811 0
M  V30 36953 C 3412.92 -4.97145 -1.96853 0
M  V30 36954 C 3414.22 -5.21903 0.203513 0
M  V30 36955 H 3415.91 -2.96796 0.393986 0
M  V30 36956 H 3413.46 -1.42729 0.19092 0
M  V30 36957 H 3415.41 -3.75511 -1.91231 0
M  V30 36958 H 3414.13 -2.52299 -2.07395 0
M  V30 36959 H 3412.79 -3.65623 -0.267473 0
M  V30 36960 H 3412.44 -4.2643 -2.66771 0
M  V30 36961 H 3412.14 -5.65517 -1.59575 0
M  V30 36962 H 3413.66 -5.56022 -2.52333 0
M  V30 36963 H 3415.08 -5.72719 -0.258044 0
M  V30 36964 H 3413.48 -5.98085 0.491379 0
M  V30 36965 H 3414.55 -4.71688 1.12422 0
M  V30 36966 N 3415.89 -0.219968 -1.56057 0
M  V30 36967 C 3417.14 0.411348 -1.97869 0
M  V30 36968 C 3417.46 1.60407 -1.10881 0
M  V30 36969 O 3416.73 1.9502 -0.185488 0
M  V30 36970 H 3415.31 0.154966 -0.730749 0
M  V30 36971 H 3417.97 -0.312495 -1.92378 0
M  V30 36972 H 3417.07 0.738744 -3.03231 0
M  V30 36973 N 3417.37 1.57509 0.0534363 0
M  V30 36974 C 3418.33 2.0394 1.046 0
M  V30 36975 C 3419.33 0.93938 1.30508 0
M  V30 36976 O 3420.52 1.20374 1.2592 0
M  V30 36977 C 3417.65 2.43567 2.38512 0
M  V30 36978 H 3418.85 2.92872 0.645432 0
M  V30 36979 H 3416.4 1.53401 0.299656 0
M  V30 36980 H 3417.13 1.57717 2.83365 0
M  V30 36981 H 3416.92 3.23855 2.21044 0
M  V30 36982 H 3418.41 2.80001 3.09821 0
M  V30 36983 N 3418.85 -0.325228 1.54208 0
M  V30 36984 C 3419.81 -1.38317 1.82759 0
M  V30 36985 C 3420.81 -1.44796 0.699338 0
M  V30 36986 O 3422 -1.44853 0.967646 0
M  V30 36987 C 3419.13 -2.77066 1.98613 0
M  V30 36988 H 3420.32 -1.14256 2.77282 0
M  V30 36989 H 3417.88 -0.560621 1.459 0
M  V30 36990 H 3418.61 -3.06385 1.06295 0
M  V30 36991 H 3418.4 -2.73758 2.80712 0
M  V30 36992 H 3419.89 -3.53605 2.22156 0
M  V30 36993 N 3420.32 -1.46252 -0.587204 0
M  V30 36994 C 3421.27 -1.56839 -1.71768 0
M  V30 36995 C 3422.27 -0.437125 -1.63663 0
M  V30 36996 O 3423.47 -0.613827 -1.6921 0
M  V30 36997 H 3419.85 -0.493022 -0.567832 0
M  V30 36998 H 3421.82 -2.51897 -1.5997 0
M  V30 36999 C 3420.57 -1.57157 -3.10156 0
M  V30 37000 H 3419.89 -2.43541 -3.17061 0
M  V30 37001 H 3421.33 -1.6862 -3.89029 0
M  V30 37002 C 3419.79 -0.299433 -3.35567 0
M  V30 37003 O 3420.32 0.612221 -3.97007 0
M  V30 37004 N 3418.52 -0.188746 -2.89986 0
M  V30 37005 H 3418.07 -0.931512 -2.40168 0
M  V30 37006 H 3418.03 0.661558 -3.07361 0
M  V30 37007 N 3421.8 0.831459 -1.33883 0
M  V30 37008 C 3422.73 1.9569 -1.27387 0
M  V30 37009 C 3423.71 1.69411 -0.152972 0
M  V30 37010 O 3424.9 1.9113 -0.343954 0
M  V30 37011 C 3422.03 3.31988 -1.01988 0
M  V30 37012 C 3420.98 3.72685 -2.10452 0
M  V30 37013 C 3420.31 5.0687 -1.70254 0
M  V30 37014 C 3421.61 3.85684 -3.52201 0
M  V30 37015 H 3423.3 2.01382 -2.21552 0
M  V30 37016 H 3420.85 0.967507 -1.06655 0
M  V30 37017 H 3422.8 4.10298 -0.960913 0
M  V30 37018 H 3421.52 3.26572 -0.0426283 0
M  V30 37019 H 3420.18 2.96643 -2.15403 0
M  V30 37020 H 3419.83 4.97934 -0.712124 0
M  V30 37021 H 3419.53 5.35071 -2.42843 0
M  V30 37022 H 3421.06 5.87648 -1.65837 0
M  V30 37023 H 3422.47 4.54287 -3.49709 0
M  V30 37024 H 3420.87 4.25329 -4.23338 0
M  V30 37025 H 3421.94 2.87922 -3.90165 0
M  V30 37026 N 3423.28 1.17472 1.05062 0
M  V30 37027 C 3424.52 0.974756 1.7966 0
M  V30 37028 C 3424.88 -0.487824 1.85699 0
M  V30 37029 O 3426.08 -0.806909 2.56403 0
M  V30 37030 C 3424.36 1.59982 3.19595 0
M  V30 37031 S 3425.91 1.54623 4.10655 0
M  V30 37032 H 3422.73 0.35026 0.61874 0
M  V30 37033 H 3425.33 1.4944 1.26047 0
M  V30 37034 H 3424.04 2.65674 3.12802 0
M  V30 37035 H 3423.57 1.08003 3.78284 0
M  V30 37036 H 3425.58 0.55512 4.93085 0
M  V30 37037 N 3424.76 -1.23807 0.975168 0
M  V30 37038 C 3425.71 -2.27087 0.503436 0
M  V30 37039 C 3426.7 -1.6367 -0.436861 0
M  V30 37040 O 3427.91 -1.77287 -0.311329 0
M  V30 37041 H 3424.28 -0.738014 0.144359 0
M  V30 37042 H 3426.25 -2.64242 1.38632 0
M  V30 37043 C 3425 -3.47215 -0.183621 0
M  V30 37044 H 3424.32 -3.9626 0.530822 0
M  V30 37045 H 3425.76 -4.21304 -0.477405 0
M  V30 37046 C 3424.22 -3.05831 -1.41311 0
M  V30 37047 O 3424.75 -3.13651 -2.50969 0
M  V30 37048 N 3422.96 -2.608 -1.28186 0
M  V30 37049 H 3422.51 -2.54636 -0.389625 0
M  V30 37050 H 3422.46 -2.33477 -2.10561 0
M  V30 37051 N 3426.24 -0.746182 -1.38816 0
M  V30 37052 C 3427.18 -0.113557 -2.3052 0
M  V30 37053 C 3428.15 0.717656 -1.49796 0
M  V30 37054 O 3429.34 0.675314 -1.78449 0
M  V30 37055 C 3426.48 0.779284 -3.36186 0
M  V30 37056 C 3425.59 -0.0657543 -4.3195 0
M  V30 37057 C 3424.73 0.8294 -5.24685 0
M  V30 37058 C 3423.76 -0.0197187 -6.12097 0
M  V30 37059 N 3422.9 0.831984 -6.97153 0
M  V30 37060 H 3427.74 -0.901186 -2.84047 0
M  V30 37061 H 3425.28 -0.45605 -1.39852 0
M  V30 37062 H 3427.24 1.31149 -3.9605 0
M  V30 37063 H 3425.87 1.53277 -2.84088 0
M  V30 37064 H 3424.92 -0.715511 -3.7361 0
M  V30 37065 H 3426.23 -0.721821 -4.9355 0
M  V30 37066 H 3425.38 1.42905 -5.8963 0
M  V30 37067 H 3424.12 1.51922 -4.63434 0
M  V30 37068 H 3423.13 -0.632087 -5.46154 0
M  V30 37069 H 3424.35 -0.706488 -6.75415 0
M  V30 37070 H 3422.3 1.50689 -6.38458 0
M  V30 37071 H 3422.22 0.232649 -7.55642 0
M  V30 37072 H 3423.48 1.41684 -7.66515 0
M  V30 37073 N 3427.71 1.49635 -0.494676 0
M  V30 37074 C 3428.96 2.01628 0.0538922 0
M  V30 37075 C 3429.28 1.37988 1.38631 0
M  V30 37076 O 3430.48 1.81272 2.0212 0
M  V30 37077 C 3428.94 3.59602 0.146519 0
M  V30 37078 C 3428.55 4.32211 -1.17888 0
M  V30 37079 C 3430.29 4.19559 0.645788 0
M  V30 37080 C 3428.2 5.82027 -1.04876 0
M  V30 37081 H 3427.13 0.753621 0.0239145 0
M  V30 37082 H 3429.78 1.72231 -0.633142 0
M  V30 37083 H 3428.16 3.85687 0.897863 0
M  V30 37084 H 3429.33 4.17832 -1.94302 0
M  V30 37085 H 3427.65 3.8397 -1.61109 0
M  V30 37086 H 3430.25 5.29263 0.760547 0
M  V30 37087 H 3430.59 3.82504 1.64306 0
M  V30 37088 H 3431.12 3.9777 -0.04884 0
M  V30 37089 H 3427.86 6.23596 -2.02011 0
M  V30 37090 H 3427.38 5.98917 -0.325399 0
M  V30 37091 H 3429.06 6.42926 -0.724912 0
M  V30 37092 N 3429.19 0.228241 1.55939 0
M  V30 37093 C 3430.44 -0.402237 1.98771 0
M  V30 37094 C 3430.77 -1.58938 1.1159 0
M  V30 37095 O 3430.05 -1.93711 0.175067 0
M  V30 37096 C 3430.33 -0.830291 3.50397 0
M  V30 37097 C 3430.18 0.360954 4.48349 0
M  V30 37098 C 3431.5 -1.68405 4.06605 0
M  V30 37099 H 3428.62 -0.144733 0.722649 0
M  V30 37100 H 3431.26 0.325817 1.87186 0
M  V30 37101 H 3429.41 -1.45064 3.60401 0
M  V30 37102 H 3431.08 0.999193 4.50349 0
M  V30 37103 H 3429.33 1.00726 4.21944 0
M  V30 37104 H 3430 0.0184045 5.51997 0
M  V30 37105 H 3432.47 -1.16057 3.99587 0
M  V30 37106 H 3431.35 -1.95245 5.13001 0
M  V30 37107 H 3431.61 -2.64964 3.53901 0
M  V30 37108 N 3430.67 -1.57536 -0.0450825 0
M  V30 37109 C 3431.92 -1.88531 -0.739081 0
M  V30 37110 C 3432.25 -0.823498 -1.76207 0
M  V30 37111 O 3431.5 0.177477 -1.94894 0
M  V30 37112 C 3431.8 -3.26249 -1.45932 0
M  V30 37113 C 3431.47 -4.47234 -0.573831 0
M  V30 37114 C 3430.13 -4.80068 -0.32989 0
M  V30 37115 C 3432.48 -5.21186 0.0385188 0
M  V30 37116 C 3429.81 -5.84252 0.535442 0
M  V30 37117 C 3432.16 -6.26287 0.891459 0
M  V30 37118 C 3430.82 -6.57606 1.14502 0
M  V30 37119 H 3430.09 -0.689883 -0.270449 0
M  V30 37120 H 3432.74 -1.915 0.000747764 0
M  V30 37121 H 3431.05 -3.19194 -2.27206 0
M  V30 37122 H 3432.74 -3.47474 -2.00156 0
M  V30 37123 H 3429.33 -4.21551 -0.774107 0
M  V30 37124 H 3433.52 -4.96111 -0.137009 0
M  V30 37125 H 3428.77 -6.06901 0.74036 0
M  V30 37126 H 3432.95 -6.8274 1.37255 0
M  V30 37127 H 3430.57 -7.38159 1.81728 0
M  V30 37128 N 3432.15 0.317045 -1.54378 0
M  V30 37129 C 3433.08 1.39549 -1.87212 0
M  V30 37130 C 3434.06 1.53662 -0.72951 0
M  V30 37131 O 3435.24 1.67435 -0.983828 0
M  V30 37132 C 3432.37 2.76218 -2.10525 0
M  V30 37133 C 3431.33 2.76887 -3.26371 0
M  V30 37134 C 3430.65 4.16693 -3.35068 0
M  V30 37135 C 3431.95 2.40053 -4.63866 0
M  V30 37136 H 3433.65 1.12318 -2.77534 0
M  V30 37137 H 3431.19 0.538874 -1.33537 0
M  V30 37138 H 3433.15 3.51735 -2.32079 0
M  V30 37139 H 3431.87 3.0494 -1.16959 0
M  V30 37140 H 3430.53 2.03826 -3.04714 0
M  V30 37141 H 3430.18 4.42566 -2.39049 0
M  V30 37142 H 3429.88 4.18045 -4.12931 0
M  V30 37143 H 3431.4 4.94013 -3.58864 0
M  V30 37144 H 3432.82 3.05283 -4.85258 0
M  V30 37145 H 3431.21 2.52645 -5.44326 0
M  V30 37146 H 3432.28 1.35194 -4.65672 0
M  V30 37147 N 3433.63 1.46561 0.57944 0
M  V30 37148 C 3434.87 1.52266 1.33951 0
M  V30 37149 C 3435.21 0.175123 1.93409 0
M  V30 37150 O 3434.48 -0.813819 1.76656 0
M  V30 37151 C 3434.76 2.62375 2.4664 0
M  V30 37152 C 3434.62 4.0667 1.92197 0
M  V30 37153 C 3435.94 2.68544 3.48672 0
M  V30 37154 H 3433.05 0.554325 0.485688 0
M  V30 37155 H 3435.7 1.78514 0.650608 0
M  V30 37156 H 3433.85 2.40125 3.05405 0
M  V30 37157 H 3435.52 4.40217 1.37864 0
M  V30 37158 H 3433.76 4.15995 1.23005 0
M  V30 37159 H 3434.43 4.79448 2.73557 0
M  V30 37160 H 3436.91 2.88554 2.99792 0
M  V30 37161 H 3435.78 3.47401 4.24975 0
M  V30 37162 H 3436.05 1.74724 4.06108 0
M  V30 37163 N 3435.1 -0.824347 1.34322 0
M  V30 37164 C 3436.33 -1.61743 1.29823 0
M  V30 37165 C 3436.75 -1.87682 -0.125265 0
M  V30 37166 O 3436.11 -1.45133 -1.08656 0
M  V30 37167 C 3436.16 -2.93619 2.09332 0
M  V30 37168 O 3435.26 -3.85621 1.46187 0
M  V30 37169 H 3434.61 -0.491971 0.445937 0
M  V30 37170 H 3437.14 -1.02449 1.77103 0
M  V30 37171 H 3437.15 -3.43197 2.20635 0
M  V30 37172 H 3435.82 -2.74063 3.12829 0
M  V30 37173 H 3434.4 -3.44134 1.43617 0
M  V30 37174 N 3436.58 -1.18028 -1.04437 0
M  V30 37175 C 3437.83 -0.973345 -1.77573 0
M  V30 37176 C 3438.16 0.497367 -1.88033 0
M  V30 37177 O 3437.41 1.38545 -1.38216 0
M  V30 37178 C 3437.71 -1.56875 -3.21131 0
M  V30 37179 C 3437.38 -3.06496 -3.30713 0
M  V30 37180 C 3436.04 -3.47334 -3.33035 0
M  V30 37181 C 3438.39 -4.02509 -3.31113 0
M  V30 37182 C 3435.72 -4.82767 -3.33395 0
M  V30 37183 C 3438.07 -5.37852 -3.33013 0
M  V30 37184 C 3436.74 -5.78144 -3.33626 0
M  V30 37185 H 3436.01 -0.356172 -0.649786 0
M  V30 37186 H 3438.65 -1.47035 -1.2269 0
M  V30 37187 H 3436.96 -0.99365 -3.78991 0
M  V30 37188 H 3438.65 -1.3841 -3.76356 0
M  V30 37189 H 3435.24 -2.73946 -3.29623 0
M  V30 37190 H 3439.43 -3.72012 -3.28513 0
M  V30 37191 H 3434.68 -5.13287 -3.32185 0
M  V30 37192 H 3438.86 -6.1202 -3.32272 0
M  V30 37193 H 3436.49 -6.83064 -3.33659 0
M  V30 37194 N 3438.06 1.23288 -0.98172 0
M  V30 37195 C 3439.31 1.92023 -0.6523 0
M  V30 37196 C 3439.64 1.76397 0.812266 0
M  V30 37197 O 3438.91 1.12578 1.58608 0
M  V30 37198 C 3439.2 3.446 -1.04512 0
M  V30 37199 C 3439.05 3.69329 -2.56742 0
M  V30 37200 C 3440.37 4.36127 -0.590014 0
M  V30 37201 H 3437.49 0.69736 -0.238449 0
M  V30 37202 H 3440.13 1.45385 -1.22324 0
M  V30 37203 H 3438.28 3.84453 -0.55931 0
M  V30 37204 H 3439.95 3.3895 -3.12907 0
M  V30 37205 H 3438.2 3.13995 -2.99316 0
M  V30 37206 H 3438.87 4.76139 -2.79277 0
M  V30 37207 H 3441.34 4.03728 -1.00713 0
M  V30 37208 H 3440.22 5.41582 -0.893287 0
M  V30 37209 H 3440.48 4.39153 0.50963 0
M  V30 37210 N 3439.54 0.753533 1.38418 0
M  V30 37211 C 3440.79 0.309056 1.99723 0
M  V30 37212 C 3441.11 -1.11305 1.60113 0
M  V30 37213 O 3440.38 -1.76114 0.857951 0
M  V30 37214 H 3438.96 0.111279 0.738665 0
M  V30 37215 H 3441.62 0.967615 1.69184 0
M  V30 37216 H 3440.72 0.372149 3.09873 0
M  V30 37217 N 3441.02 -1.49371 0.502605 0
M  V30 37218 C 3441.96 -2.30802 -0.288652 0
M  V30 37219 C 3442.96 -1.39484 -0.961279 0
M  V30 37220 O 3444.16 -1.56527 -0.888785 0
M  V30 37221 H 3440.54 -0.743621 -0.111945 0
M  V30 37222 H 3442.51 -2.95456 0.418114 0
M  V30 37223 C 3441.26 -3.2087 -1.33932 0
M  V30 37224 H 3440.58 -3.91065 -0.83115 0
M  V30 37225 H 3442.02 -3.80785 -1.86492 0
M  V30 37226 C 3440.48 -2.4059 -2.35835 0
M  V30 37227 O 3441.01 -2.11119 -3.41748 0
M  V30 37228 N 3439.22 -2.02584 -2.08346 0
M  V30 37229 H 3438.76 -2.26751 -1.22236 0
M  V30 37230 H 3438.72 -1.49178 -2.76755 0
M  V30 37231 N 3442.49 -0.236508 -1.55815 0
M  V30 37232 C 3443.91 0.118573 -1.59159 0
M  V30 37233 C 3444.11 1.57761 -1.25355 0
M  V30 37234 O 3443.17 2.3203 -0.995904 0
M  V30 37235 C 3444.48 -0.221228 -2.99885 0
M  V30 37236 C 3446.03 -0.164679 -3.12566 0
M  V30 37237 C 3446.5 -0.478365 -4.55495 0
M  V30 37238 N 3447.99 -0.428483 -4.61214 0
M  V30 37239 C 3448.73 -0.644498 -5.69766 0
M  V30 37240 N 3448.22 -0.923087 -6.86623 0
M  V30 37241 N 3450.02 -0.575913 -5.59142 0
M  V30 37242 H 3442.17 -1.18812 -1.76061 0
M  V30 37243 H 3444.43 -0.477312 -0.819071 0
M  V30 37244 H 3444.14 -1.23446 -3.29323 0
M  V30 37245 H 3444.01 0.456657 -3.74426 0
M  V30 37246 H 3446.4 0.839214 -2.82916 0
M  V30 37247 H 3446.48 -0.876261 -2.40323 0
M  V30 37248 H 3446.12 -1.47976 -4.85866 0
M  V30 37249 H 3446.05 0.254578 -5.25984 0
M  V30 37250 H 3448.54 -0.221464 -3.77251 0
M  V30 37251 H 3448.86 -1.07561 -7.65278 0
M  V30 37252 H 3447.2 -0.960446 -6.88332 0
M  V30 37253 H 3450.39 -0.358389 -4.66726 0
M  V30 37254 H 3450.57 -0.747662 -6.43672 0
M  V30 37255 N 3443.97 1.57557 0.0367273 0
M  V30 37256 C 3445.22 1.88547 0.727632 0
M  V30 37257 C 3445.54 0.83321 1.76303 0
M  V30 37258 O 3444.81 -0.134106 1.9544 0
M  V30 37259 H 3443.39 0.695824 0.271732 0
M  V30 37260 H 3446.05 1.94899 0.00449489 0
M  V30 37261 H 3445.15 2.87182 1.222 0
M  V30 37262 N 3445.45 -0.308854 1.54544 0
M  V30 37263 C 3446.68 -1.06419 1.77433 0
M  V30 37264 C 3447.09 -1.81208 0.530003 0
M  V30 37265 O 3446.45 -1.7552 -0.499881 0
M  V30 37266 C 3446.5 -2.05087 2.97694 0
M  V30 37267 O 3446.22 -1.33333 4.17317 0
M  V30 37268 C 3447.72 -2.92722 3.3291 0
M  V30 37269 H 3444.94 -0.315938 0.591966 0
M  V30 37270 H 3447.49 -0.350512 2.01474 0
M  V30 37271 H 3445.64 -2.71968 2.75884 0
M  V30 37272 H 3446.06 -1.9953 4.85065 0
M  V30 37273 H 3447.53 -3.5782 4.2032 0
M  V30 37274 H 3448.01 -3.60606 2.50719 0
M  V30 37275 H 3448.61 -2.31382 3.56851 0
M  V30 37276 N 3446.93 -1.46867 -0.571659 0
M  V30 37277 C 3448.18 -1.52748 -1.32945 0
M  V30 37278 C 3448.5 -0.183728 -1.9363 0
M  V30 37279 O 3447.76 0.821855 -1.77606 0
M  V30 37280 C 3448.06 -2.58269 -2.47047 0
M  V30 37281 C 3447.72 -4.01969 -2.04284 0
M  V30 37282 C 3446.39 -4.41089 -1.92337 0
M  V30 37283 C 3448.74 -4.92193 -1.7145 0
M  V30 37284 C 3446.07 -5.68287 -1.4583 0
M  V30 37285 C 3448.42 -6.1984 -1.26418 0
M  V30 37286 C 3447.08 -6.57856 -1.13057 0
M  V30 37287 H 3446.35 -0.558944 -0.48648 0
M  V30 37288 H 3449 -1.80397 -0.642587 0
M  V30 37289 H 3447.3 -2.24322 -3.21227 0
M  V30 37290 H 3449 -2.60046 -3.0525 0
M  V30 37291 H 3445.59 -3.71051 -2.14521 0
M  V30 37292 H 3449.78 -4.62679 -1.79559 0
M  V30 37293 H 3445.03 -5.96504 -1.34138 0
M  V30 37294 H 3449.21 -6.89173 -1.00069 0
M  V30 37295 H 3446.83 -7.56311 -0.767962 0
M  V30 37296 N 3448.41 0.817212 -1.34757 0
M  V30 37297 C 3449.64 1.60533 -1.30525 0
M  V30 37298 C 3450.05 1.88421 0.119508 0
M  V30 37299 O 3449.41 1.47964 1.06831 0
M  V30 37300 C 3449.46 2.94289 -2.09944 0
M  V30 37301 O 3449.18 2.67615 -3.46863 0
M  V30 37302 C 3450.68 3.88679 -2.13174 0
M  V30 37303 H 3447.9 0.49882 -0.448797 0
M  V30 37304 H 3450.44 1.01636 -1.77455 0
M  V30 37305 H 3448.6 3.49728 -1.6664 0
M  V30 37306 H 3449.01 3.52942 -3.87985 0
M  V30 37307 H 3450.49 4.79677 -2.73156 0
M  V30 37308 H 3450.96 4.24477 -1.12765 0
M  V30 37309 H 3451.57 3.39176 -2.56592 0
M  V30 37310 N 3449.89 1.1858 1.0381 0
M  V30 37311 C 3451.3 0.936034 1.29269 0
M  V30 37312 C 3451.5 -0.396931 1.97552 0
M  V30 37313 O 3450.56 -1.13065 2.25771 0
M  V30 37314 C 3451.87 2.10343 2.14886 0
M  V30 37315 C 3453.42 2.14202 2.28224 0
M  V30 37316 C 3453.89 3.30367 3.17209 0
M  V30 37317 N 3455.38 3.30245 3.24796 0
M  V30 37318 C 3456.12 4.16772 3.93813 0
M  V30 37319 N 3455.62 5.13438 4.65138 0
M  V30 37320 N 3457.41 4.04678 3.90118 0
M  V30 37321 H 3449.56 2.04357 0.578975 0
M  V30 37322 H 3451.82 0.893072 0.318005 0
M  V30 37323 H 3451.53 3.06758 1.72024 0
M  V30 37324 H 3451.4 2.06625 3.15573 0
M  V30 37325 H 3453.79 1.18364 2.70322 0
M  V30 37326 H 3453.87 2.21978 1.2712 0
M  V30 37327 H 3453.51 4.26479 2.75822 0
M  V30 37328 H 3453.44 3.19828 4.18351 0
M  V30 37329 H 3455.94 2.60265 2.7399 0
M  V30 37330 H 3456.25 5.75829 5.15403 0
M  V30 37331 H 3454.59 5.17395 4.64034 0
M  V30 37332 H 3457.78 3.28444 3.3353 0
M  V30 37333 H 3457.96 4.72328 4.43633 0
M  V30 37334 N 3451.36 -1.22766 0.988245 0
M  V30 37335 C 3452.61 -1.91013 0.660188 0
M  V30 37336 C 3452.93 -1.77392 -0.809756 0
M  V30 37337 O 3452.2 -1.1582 -1.57996 0
M  V30 37338 H 3450.78 -0.70699 0.241192 0
M  V30 37339 H 3453.44 -1.49222 1.25375 0
M  V30 37340 H 3452.54 -2.98274 0.918656 0
M  V30 37341 N 3452.84 -0.760864 -1.38017 0
M  V30 37342 C 3454.07 -0.33084 -2.03934 0
M  V30 37343 C 3454.48 1.04818 -1.57511 0
M  V30 37344 O 3453.82 1.67837 -0.746748 0
M  V30 37345 C 3453.88 -0.283093 -3.58384 0
M  V30 37346 C 3453.55 -1.60488 -4.27893 0
M  V30 37347 C 3454.55 -2.55538 -4.52765 0
M  V30 37348 C 3452.23 -1.87632 -4.65939 0
M  V30 37349 C 3454.22 -3.75947 -5.14726 0
M  V30 37350 C 3451.91 -3.08313 -5.27623 0
M  V30 37351 C 3452.91 -4.02291 -5.51952 0
M  V30 37352 O 3452.6 -5.20849 -6.12349 0
M  V30 37353 H 3452.33 -0.138159 -0.661731 0
M  V30 37354 H 3454.88 -1.03274 -1.77549 0
M  V30 37355 H 3453.11 0.475103 -3.8377 0
M  V30 37356 H 3454.8 0.118392 -4.05727 0
M  V30 37357 H 3455.57 -2.35846 -4.23794 0
M  V30 37358 H 3451.45 -1.15316 -4.46344 0
M  V30 37359 H 3454.99 -4.49314 -5.33631 0
M  V30 37360 H 3450.89 -3.27896 -5.56017 0
M  V30 37361 H 3451.66 -5.21528 -6.30833 0
M  V30 37362 N 3454.32 1.49102 -0.510519 0
M  V30 37363 C 3455.74 1.58723 -0.167089 0
M  V30 37364 C 3455.94 1.51473 1.32884 0
M  V30 37365 O 3454.99 1.39363 2.10557 0
M  V30 37366 C 3456.3 2.91136 -0.752344 0
M  V30 37367 C 3457.85 3.04623 -0.719311 0
M  V30 37368 C 3458.33 4.39668 -1.2828 0
M  V30 37369 N 3459.82 4.46185 -1.24391 0
M  V30 37370 C 3460.55 5.49147 -1.65 0
M  V30 37371 N 3460.05 6.59164 -2.13247 0
M  V30 37372 N 3461.84 5.39916 -1.56357 0
M  V30 37373 H 3453.99 1.52057 -1.48298 0
M  V30 37374 H 3456.26 0.720849 -0.615696 0
M  V30 37375 H 3455.96 3.02038 -1.80183 0
M  V30 37376 H 3455.84 3.76568 -0.218218 0
M  V30 37377 H 3458.22 2.93345 0.321362 0
M  V30 37378 H 3458.3 2.2085 -1.29069 0
M  V30 37379 H 3457.95 4.51699 -2.3223 0
M  V30 37380 H 3457.88 5.22096 -0.687271 0
M  V30 37381 H 3460.37 3.67258 -0.89051 0
M  V30 37382 H 3460.68 7.3384 -2.42278 0
M  V30 37383 H 3459.03 6.6018 -2.17228 0
M  V30 37384 H 3462.22 4.52859 -1.18477 0
M  V30 37385 H 3462.39 6.2003 -1.88328 0
M  V30 37386 N 3455.8 0.244768 1.55688 0
M  V30 37387 C 3456.76 -0.642344 2.20015 0
M  V30 37388 C 3457.76 -1.10435 1.16879 0
M  V30 37389 O 3458.95 -1.00941 1.41974 0
M  V30 37390 C 3456.08 -1.88262 2.84201 0
M  V30 37391 H 3457.28 -0.081141 2.9979 0
M  V30 37392 H 3454.83 -0.0047817 1.56299 0
M  V30 37393 H 3455.56 -2.4851 2.08358 0
M  V30 37394 H 3455.35 -1.55956 3.5975 0
M  V30 37395 H 3456.84 -2.51414 3.33438 0
M  V30 37396 N 3457.28 -1.57574 -0.0283712 0
M  V30 37397 C 3458.52 -1.89584 -0.720109 0
M  V30 37398 C 3458.85 -0.842592 -1.74969 0
M  V30 37399 O 3458.13 0.14226 -1.93979 0
M  V30 37400 C 3458.41 -3.32232 -1.38903 0
M  V30 37401 C 3458.27 -4.48251 -0.372919 0
M  V30 37402 C 3459.58 -3.73808 -2.32283 0
M  V30 37403 H 3456.7 -0.689495 -0.260318 0
M  V30 37404 H 3459.35 -1.89992 0.0170941 0
M  V30 37405 H 3457.5 -3.32015 -2.01739 0
M  V30 37406 H 3459.17 -4.60603 0.253573 0
M  V30 37407 H 3457.41 -4.32707 0.307726 0
M  V30 37408 H 3458.08 -5.44949 -0.879453 0
M  V30 37409 H 3460.56 -3.75396 -1.7949 0
M  V30 37410 H 3459.43 -4.74424 -2.76067 0
M  V30 37411 H 3459.69 -3.06105 -3.18986 0
M  V30 37412 N 3458.75 0.300654 -1.54706 0
M  V30 37413 C 3460 1.03346 -1.73212 0
M  V30 37414 C 3460.32 1.88417 -0.525213 0
M  V30 37415 O 3461.52 2.64965 -0.592095 0
M  V30 37416 C 3459.98 1.88712 -3.06457 0
M  V30 37417 C 3459.59 1.08642 -4.34627 0
M  V30 37418 C 3461.33 2.6159 -3.34322 0
M  V30 37419 C 3459.24 1.93287 -5.58922 0
M  V30 37420 H 3458.17 0.389562 -0.645567 0
M  V30 37421 H 3460.82 0.290441 -1.81187 0
M  V30 37422 H 3459.2 2.67002 -2.92448 0
M  V30 37423 H 3460.37 0.349626 -4.59472 0
M  V30 37424 H 3458.69 0.473448 -4.137 0
M  V30 37425 H 3461.29 3.25271 -4.24386 0
M  V30 37426 H 3461.63 3.30437 -2.53213 0
M  V30 37427 H 3462.16 1.90348 -3.49303 0
M  V30 37428 H 3458.9 1.28908 -6.427 0
M  V30 37429 H 3458.42 2.64638 -5.38263 0
M  V30 37430 H 3460.1 2.51326 -5.96192 0
M  V30 37431 N 3460.23 1.47168 0.563863 0
M  V30 37432 C 3461.16 1.62028 1.68134 0
M  V30 37433 C 3462.14 0.469927 1.6348 0
M  V30 37434 O 3463.33 0.698464 1.81205 0
M  V30 37435 C 3460.46 1.62806 3.06776 0
M  V30 37436 C 3459.41 2.77002 3.26273 0
M  V30 37437 C 3458.74 2.62849 4.65633 0
M  V30 37438 C 3460.04 4.18657 3.12288 0
M  V30 37439 H 3461.73 2.55575 1.55954 0
M  V30 37440 H 3459.28 1.22997 0.748848 0
M  V30 37441 H 3461.23 1.71794 3.84792 0
M  V30 37442 H 3459.96 0.658153 3.199 0
M  V30 37443 H 3458.61 2.67514 2.50663 0
M  V30 37444 H 3458.26 1.639 4.75548 0
M  V30 37445 H 3457.96 3.39456 4.79629 0
M  V30 37446 H 3459.49 2.73756 5.45793 0
M  V30 37447 H 3460.9 4.29156 3.80128 0
M  V30 37448 H 3459.3 4.95998 3.37796 0
M  V30 37449 H 3460.37 4.3749 2.09119 0
M  V30 37450 N 3461.71 -0.810054 1.35188 0
M  V30 37451 C 3462.99 -1.55363 1.18835 0
M  V30 37452 C 3463.37 -2.098 -0.233919 0
M  V30 37453 O 3462.72 -1.92123 -1.23698 0
M  V30 37454 C 3462.93 -2.66488 2.25355 0
M  V30 37455 C 3464.27 -3.34919 2.60987 0
M  V30 37456 O 3465.3 -2.76756 2.24243 0
M  V30 37457 O 3464.16 -4.39984 3.24155 0
M  V30 37458 H 3461.25 -0.686284 0.461458 0
M  V30 37459 H 3463.8 -0.850315 1.4686 0
M  V30 37460 H 3462.57 -2.2411 3.20765 0
M  V30 37461 H 3462.19 -3.44458 1.98581 0
M  V30 37462 N 3463.19 -1.19129 -1.0318 0
M  V30 37463 C 3464.12 -0.86974 -2.10976 0
M  V30 37464 C 3465.1 0.172003 -1.61688 0
M  V30 37465 O 3466.28 0.0489693 -1.88436 0
M  V30 37466 C 3463.41 -0.301108 -3.37359 0
M  V30 37467 C 3462.46 -1.32144 -4.05512 0
M  V30 37468 S 3463.29 -2.88079 -4.5141 0
M  V30 37469 C 3464.45 -2.32751 -5.81014 0
M  V30 37470 H 3464.68 -1.78265 -2.37926 0
M  V30 37471 H 3462.21 -1.01811 -1.16077 0
M  V30 37472 H 3464.17 0.0204484 -4.10495 0
M  V30 37473 H 3462.83 0.590063 -3.08508 0
M  V30 37474 H 3462.02 -0.872634 -4.96388 0
M  V30 37475 H 3461.63 -1.58969 -3.38533 0
M  V30 37476 H 3463.92 -1.71564 -6.55417 0
M  V30 37477 H 3464.86 -3.21963 -6.30671 0
M  V30 37478 H 3465.27 -1.75438 -5.36546 0
M  V30 37479 N 3464.67 1.2224 -0.994741 0
M  V30 37480 C 3465.63 2.22462 -0.551658 0
M  V30 37481 C 3466.63 1.56568 0.36647 0
M  V30 37482 O 3467.82 1.7348 0.158173 0
M  V30 37483 C 3464.95 3.40328 0.197356 0
M  V30 37484 H 3466.14 2.63176 -1.43799 0
M  V30 37485 H 3463.7 1.35323 -0.782144 0
M  V30 37486 H 3464.43 3.05089 1.09959 0
M  V30 37487 H 3464.22 3.8937 -0.461897 0
M  V30 37488 H 3465.71 4.1465 0.495461 0
M  V30 37489 N 3466.14 0.768172 1.37611 0
M  V30 37490 C 3467.39 0.330876 1.99779 0
M  V30 37491 C 3467.72 -1.09159 1.6098 0
M  V30 37492 O 3466.97 -1.76478 0.845809 0
M  V30 37493 C 3467.27 0.417671 3.54951 0
M  V30 37494 C 3466.94 1.79787 4.13506 0
M  V30 37495 C 3465.6 2.17556 4.29212 0
M  V30 37496 C 3467.95 2.70258 4.45657 0
M  V30 37497 C 3465.28 3.45239 4.7437 0
M  V30 37498 C 3467.63 3.97347 4.92238 0
M  V30 37499 C 3466.3 4.35166 5.06149 0
M  V30 37500 H 3465.57 0.121076 0.731041 0
M  V30 37501 H 3468.21 0.981499 1.64435 0
M  V30 37502 H 3466.52 -0.316498 3.9052 0
M  V30 37503 H 3468.22 0.0606742 4.00954 0
M  V30 37504 H 3464.81 1.49432 4.01706 0
M  V30 37505 H 3468.99 2.42339 4.33111 0
M  V30 37506 H 3464.25 3.7444 4.83327 0
M  V30 37507 H 3468.42 4.67581 5.16082 0
M  V30 37508 H 3466.05 5.34163 5.40901 0
M  V30 37509 N 3467.62 -1.48829 0.518419 0
M  V30 37510 C 3468.55 -2.32267 -0.239644 0
M  V30 37511 C 3469.53 -1.41361 -0.946105 0
M  V30 37512 O 3470.72 -1.70258 -0.934132 0
M  V30 37513 C 3467.85 -3.22291 -1.29405 0
M  V30 37514 C 3466.8 -4.2213 -0.706429 0
M  V30 37515 C 3466.13 -5.01208 -1.86264 0
M  V30 37516 C 3467.43 -5.21354 0.31417 0
M  V30 37517 H 3469.12 -2.95894 0.456852 0
M  V30 37518 H 3466.67 -1.42292 0.221151 0
M  V30 37519 H 3468.62 -3.79483 -1.83223 0
M  V30 37520 H 3467.35 -2.56641 -2.01997 0
M  V30 37521 H 3466 -3.66108 -0.189859 0
M  V30 37522 H 3465.65 -4.31992 -2.57666 0
M  V30 37523 H 3465.35 -5.68775 -1.47544 0
M  V30 37524 H 3466.88 -5.61249 -2.40483 0
M  V30 37525 H 3468.29 -5.73137 -0.136503 0
M  V30 37526 H 3466.69 -5.96908 0.618131 0
M  V30 37527 H 3467.76 -4.69197 1.22402 0
M  V30 37528 N 3469.1 -0.253021 -1.55556 0
M  V30 37529 C 3470.33 0.373444 -2.03197 0
M  V30 37530 C 3470.74 1.51639 -1.13147 0
M  V30 37531 O 3470.08 1.83169 -0.139551 0
M  V30 37532 C 3470.14 0.937247 -3.47068 0
M  V30 37533 C 3469.81 -0.0742316 -4.5694 0
M  V30 37534 C 3470.8 -0.885952 -5.12296 0
M  V30 37535 C 3468.49 -0.202091 -5.01893 0
M  V30 37536 C 3470.48 -1.81193 -6.11104 0
M  V30 37537 C 3468.17 -1.13157 -6.00532 0
M  V30 37538 C 3469.17 -1.93501 -6.55016 0
M  V30 37539 O 3468.86 -2.84881 -7.5173 0
M  V30 37540 H 3468.59 0.0921592 -0.669688 0
M  V30 37541 H 3471.14 -0.3763 -2.01924 0
M  V30 37542 H 3469.37 1.73666 -3.4551 0
M  V30 37543 H 3471.06 1.47444 -3.78173 0
M  V30 37544 H 3471.83 -0.797791 -4.78393 0
M  V30 37545 H 3467.71 0.41322 -4.59144 0
M  V30 37546 H 3471.25 -2.43946 -6.53556 0
M  V30 37547 H 3467.15 -1.22063 -6.33854 0
M  V30 37548 H 3467.92 -2.79311 -7.69368 0
M  V30 37549 N 3470.58 1.57587 0.0200142 0
M  V30 37550 C 3471.53 2.03617 1.02587 0
M  V30 37551 C 3472.51 0.927139 1.31503 0
M  V30 37552 O 3473.7 1.191 1.30936 0
M  V30 37553 C 3470.83 2.52658 2.32419 0
M  V30 37554 C 3469.92 3.704 2.06555 0
M  V30 37555 N 3470.31 4.82804 1.50778 0
M  V30 37556 C 3468.61 3.77947 2.36796 0
M  V30 37557 C 3469.31 5.64371 1.40926 0
M  V30 37558 N 3468.29 5.09761 1.88797 0
M  V30 37559 H 3472.09 2.87942 0.588784 0
M  V30 37560 H 3469.6 1.60818 0.226135 0
M  V30 37561 H 3471.6 2.839 3.05298 0
M  V30 37562 H 3470.26 1.69743 2.76798 0
M  V30 37563 H 3471.27 5.0406 1.18926 0
M  V30 37564 H 3467.95 3.0585 2.84187 0
M  V30 37565 H 3469.34 6.64683 0.982144 0
M  V30 37566 N 3472.06 -0.292445 1.54863 0
M  V30 37567 C 3473.3 -1.0281 1.74809 0
M  V30 37568 C 3473.64 -1.86629 0.536968 0
M  V30 37569 O 3472.91 -1.8884 -0.46582 0
M  V30 37570 C 3473.19 -1.92695 3.04205 0
M  V30 37571 C 3473.05 -1.11998 4.35633 0
M  V30 37572 C 3474.37 -2.91728 3.29519 0
M  V30 37573 H 3471.48 -0.372351 0.636022 0
M  V30 37574 H 3474.13 -0.302036 1.87584 0
M  V30 37575 H 3472.28 -2.54603 2.93445 0
M  V30 37576 H 3473.95 -0.523109 4.58324 0
M  V30 37577 H 3472.19 -0.422904 4.31734 0
M  V30 37578 H 3472.86 -1.78163 5.22458 0
M  V30 37579 H 3475.34 -2.39951 3.39945 0
M  V30 37580 H 3474.21 -3.51779 4.21358 0
M  V30 37581 H 3474.48 -3.65839 2.48223 0
M  V30 37582 N 3473.53 -1.47465 -0.55605 0
M  V30 37583 C 3474.5 -1.59589 -1.64512 0
M  V30 37584 C 3475.5 -0.470908 -1.5375 0
M  V30 37585 O 3476.69 -0.736007 -1.57888 0
M  V30 37586 C 3473.82 -1.54149 -3.04058 0
M  V30 37587 H 3475.01 -2.56672 -1.55111 0
M  V30 37588 H 3472.57 -1.35672 -0.776063 0
M  V30 37589 H 3473.3 -0.584451 -3.1899 0
M  V30 37590 H 3473.09 -2.35795 -3.13278 0
M  V30 37591 H 3474.58 -1.65773 -3.83287 0
M  V30 37592 N 3475.01 0.802873 -1.35616 0
M  V30 37593 C 3476.24 1.58909 -1.32028 0
M  V30 37594 C 3476.65 1.88917 0.103506 0
M  V30 37595 O 3475.99 1.49538 1.06696 0
M  V30 37596 C 3476.06 2.94403 -2.06319 0
M  V30 37597 C 3475.72 2.87192 -3.55486 0
M  V30 37598 C 3476.72 2.6037 -4.50004 0
M  V30 37599 C 3474.4 3.06192 -3.98186 0
M  V30 37600 C 3476.4 2.52629 -5.85198 0
M  V30 37601 C 3474.08 2.98075 -5.33474 0
M  V30 37602 C 3475.08 2.7133 -6.26793 0
M  V30 37603 O 3474.77 2.63182 -7.59599 0
M  V30 37604 H 3474.5 0.499995 -0.454952 0
M  V30 37605 H 3477.06 1.00546 -1.79108 0
M  V30 37606 H 3475.29 3.54764 -1.53882 0
M  V30 37607 H 3476.97 3.55573 -1.95761 0
M  V30 37608 H 3477.74 2.45406 -4.18331 0
M  V30 37609 H 3473.62 3.26019 -3.25933 0
M  V30 37610 H 3477.16 2.31674 -6.58007 0
M  V30 37611 H 3473.06 3.12597 -5.64759 0
M  V30 37612 H 3473.83 2.78762 -7.69567 0
M  V30 37613 N 3476.49 1.19674 1.02547 0
M  V30 37614 C 3477.74 1.00296 1.76263 0
M  V30 37615 C 3478.07 -0.464783 1.88556 0
M  V30 37616 O 3477.35 -1.34513 1.40487 0
M  V30 37617 C 3477.63 1.67666 3.18685 0
M  V30 37618 C 3477.48 3.21826 3.14242 0
M  V30 37619 C 3478.8 1.40245 4.17156 0
M  V30 37620 H 3475.92 0.365767 0.639831 0
M  V30 37621 H 3478.56 1.47563 1.19688 0
M  V30 37622 H 3476.71 1.27478 3.6699 0
M  V30 37623 H 3478.38 3.7125 2.73809 0
M  V30 37624 H 3476.63 3.53193 2.51867 0
M  V30 37625 H 3477.3 3.64114 4.1488 0
M  V30 37626 H 3479.77 1.75093 3.77467 0
M  V30 37627 H 3478.65 1.89928 5.14994 0
M  V30 37628 H 3478.91 0.328275 4.4088 0
M  V30 37629 N 3477.97 -1.21711 1.00121 0
M  V30 37630 C 3478.9 -2.26219 0.578544 0
M  V30 37631 C 3479.88 -1.6536 -0.398748 0
M  V30 37632 O 3481.07 -1.92059 -0.287562 0
M  V30 37633 C 3478.2 -3.47158 -0.0993898 0
M  V30 37634 C 3477.15 -4.20508 0.797294 0
M  V30 37635 C 3476.48 -5.34698 -0.0140185 0
M  V30 37636 C 3477.78 -4.78306 2.09811 0
M  V30 37637 H 3479.47 -2.61827 1.45213 0
M  V30 37638 H 3477.02 -1.25859 0.699678 0
M  V30 37639 H 3478.97 -4.19434 -0.406531 0
M  V30 37640 H 3477.69 -3.10669 -1.00758 0
M  V30 37641 H 3476.35 -3.50077 1.0882 0
M  V30 37642 H 3476 -4.94452 -0.923381 0
M  V30 37643 H 3475.7 -5.84701 0.582986 0
M  V30 37644 H 3477.22 -6.09787 -0.315062 0
M  V30 37645 H 3478.64 -5.42481 1.85437 0
M  V30 37646 H 3477.03 -5.38682 2.64464 0
M  V30 37647 H 3478.1 -3.97897 2.77139 0
M  V30 37648 N 3479.45 -0.775459 -1.37202 0
M  V30 37649 C 3480.69 -0.341972 -1.99896 0
M  V30 37650 C 3481.03 1.07975 -1.61416 0
M  V30 37651 O 3480.3 1.74349 -0.862138 0
M  V30 37652 C 3480.58 -0.489778 -3.56754 0
M  V30 37653 C 3480.44 -1.95418 -4.05132 0
M  V30 37654 C 3481.76 0.103702 -4.39978 0
M  V30 37655 H 3478.88 -0.125729 -0.726196 0
M  V30 37656 H 3481.52 -0.979195 -1.62824 0
M  V30 37657 H 3479.67 0.0527001 -3.88464 0
M  V30 37658 H 3481.34 -2.55665 -3.8397 0
M  V30 37659 H 3479.58 -2.4617 -3.57187 0
M  V30 37660 H 3480.25 -2.00864 -5.14157 0
M  V30 37661 H 3482.73 -0.359207 -4.14547 0
M  V30 37662 H 3481.61 -0.0298302 -5.48892 0
M  V30 37663 H 3481.87 1.1944 -4.2566 0
M  V30 37664 N 3480.93 1.48552 -0.526305 0
M  V30 37665 C 3482.17 2.04399 0.0071726 0
M  V30 37666 C 3482.53 1.39498 1.31926 0
M  V30 37667 O 3483.73 1.8621 1.93854 0
M  V30 37668 C 3482 3.57162 0.130455 0
M  V30 37669 S 3483.56 4.34476 0.614527 0
M  V30 37670 H 3480.38 0.710925 -0.0103027 0
M  V30 37671 H 3482.98 1.82306 -0.70603 0
M  V30 37672 H 3481.68 4.01932 -0.829375 0
M  V30 37673 H 3481.22 3.83701 0.868146 0
M  V30 37674 H 3483.23 4.59221 1.87965 0
M  V30 37675 N 3482.4 0.261267 1.55419 0
M  V30 37676 C 3483.34 -0.673184 2.18045 0
M  V30 37677 C 3484.31 -1.1624 1.13698 0
M  V30 37678 O 3485.5 -1.23791 1.42155 0
M  V30 37679 C 3482.63 -1.9165 2.79263 0
M  V30 37680 C 3481.67 -1.56395 3.96791 0
M  V30 37681 S 3482.5 -0.654097 5.3149 0
M  V30 37682 C 3483.66 -1.9061 5.9617 0
M  V30 37683 H 3483.89 -0.141024 2.96965 0
M  V30 37684 H 3481.43 0.0456143 1.54333 0
M  V30 37685 H 3483.38 -2.63021 3.15167 0
M  V30 37686 H 3482.05 -2.4198 2.00262 0
M  V30 37687 H 3481.24 -2.48875 4.38266 0
M  V30 37688 H 3480.84 -0.930554 3.62238 0
M  V30 37689 H 3483.13 -2.85169 6.14561 0
M  V30 37690 H 3484.08 -1.53459 6.91271 0
M  V30 37691 H 3484.48 -2.06473 5.25385 0
M  V30 37692 N 3483.88 -1.57596 -0.0116567 0
M  V30 37693 C 3484.81 -2.1072 -1.00595 0
M  V30 37694 C 3485.79 -1.01364 -1.36599 0
M  V30 37695 O 3486.98 -1.28984 -1.45178 0
M  V30 37696 C 3484.11 -2.60093 -2.3015 0
M  V30 37697 C 3483.06 -3.73869 -2.08341 0
M  V30 37698 C 3482.39 -4.09513 -3.43807 0
M  V30 37699 C 3483.69 -5.01612 -1.45543 0
M  V30 37700 H 3485.38 -2.94046 -0.563669 0
M  V30 37701 H 3482.93 -1.41452 -0.269689 0
M  V30 37702 H 3484.88 -2.95882 -3.00053 0
M  V30 37703 H 3483.6 -1.73873 -2.7647 0
M  V30 37704 H 3482.26 -3.38456 -1.40866 0
M  V30 37705 H 3481.91 -3.20333 -3.87809 0
M  V30 37706 H 3481.61 -4.8616 -3.30034 0
M  V30 37707 H 3483.14 -4.47851 -4.15044 0
M  V30 37708 H 3484.55 -5.35247 -2.05387 0
M  V30 37709 H 3482.95 -5.82986 -1.42294 0
M  V30 37710 H 3484.02 -4.83049 -0.423246 0
M  V30 37711 N 3485.36 0.284228 -1.55016 0
M  V30 37712 C 3486.61 1.01529 -1.74746 0
M  V30 37713 C 3486.93 1.87218 -0.545367 0
M  V30 37714 O 3486.2 1.90894 0.440013 0
M  V30 37715 H 3484.78 0.377853 -0.644388 0
M  V30 37716 H 3487.44 0.311166 -1.924 0
M  V30 37717 H 3486.54 1.65873 -2.64372 0
M  V30 37718 N 3486.84 1.47758 0.548222 0
M  V30 37719 C 3487.77 1.63802 1.66406 0
M  V30 37720 C 3488.75 0.48724 1.62972 0
M  V30 37721 O 3489.93 0.717644 1.80454 0
M  V30 37722 C 3487.06 1.66051 3.05032 0
M  V30 37723 C 3486.02 2.80447 3.23317 0
M  V30 37724 C 3485.34 2.67773 4.62819 0
M  V30 37725 C 3486.64 4.21945 3.0783 0
M  V30 37726 H 3488.34 2.57215 1.53234 0
M  V30 37727 H 3485.88 1.23784 0.735761 0
M  V30 37728 H 3487.84 1.75866 3.82948 0
M  V30 37729 H 3486.56 0.692046 3.19184 0
M  V30 37730 H 3485.22 2.70157 2.47812 0
M  V30 37731 H 3484.87 1.68935 4.73783 0
M  V30 37732 H 3484.57 3.44524 4.76001 0
M  V30 37733 H 3486.09 2.79529 5.42859 0
M  V30 37734 H 3487.51 4.33164 3.75555 0
M  V30 37735 H 3485.9 4.99553 3.32517 0
M  V30 37736 H 3486.97 4.39683 2.04467 0
M  V30 37737 N 3488.32 -0.79567 1.3604 0
M  V30 37738 C 3489.56 -1.55327 1.29922 0
M  V30 37739 C 3489.89 -1.94109 -0.123291 0
M  V30 37740 O 3489.15 -1.62459 -1.09112 0
M  V30 37741 C 3489.44 -2.84614 2.16171 0
M  V30 37742 C 3489.11 -2.64999 3.6481 0
M  V30 37743 C 3487.77 -2.59358 4.05323 0
M  V30 37744 C 3490.12 -2.46773 4.59078 0
M  V30 37745 C 3487.45 -2.33448 5.38255 0
M  V30 37746 C 3489.8 -2.22391 5.9222 0
M  V30 37747 C 3488.47 -2.15179 6.31866 0
M  V30 37748 H 3487.74 -0.568383 0.475418 0
M  V30 37749 H 3490.39 -0.918482 1.68036 0
M  V30 37750 H 3488.69 -3.52527 1.70973 0
M  V30 37751 H 3490.39 -3.42371 2.08766 0
M  V30 37752 H 3486.98 -2.70242 3.32667 0
M  V30 37753 H 3491.16 -2.50137 4.28655 0
M  V30 37754 H 3486.42 -2.26342 5.67961 0
M  V30 37755 H 3490.59 -2.07282 6.64836 0
M  V30 37756 H 3488.22 -1.94865 7.348 0
M  V30 37757 N 3489.79 -1.20217 -1.0191 0
M  V30 37758 C 3491.04 -1.01229 -1.75729 0
M  V30 37759 C 3491.37 0.454777 -1.888 0
M  V30 37760 O 3490.65 1.33766 -1.41198 0
M  V30 37761 C 3490.93 -1.69353 -3.17792 0
M  V30 37762 C 3490.78 -3.23488 -3.12531 0
M  V30 37763 C 3492.1 -1.42455 -4.16407 0
M  V30 37764 H 3489.22 -0.369155 -0.637882 0
M  V30 37765 H 3491.86 -1.48195 -1.18904 0
M  V30 37766 H 3490.01 -1.29422 -3.66309 0
M  V30 37767 H 3491.69 -3.72697 -2.71836 0
M  V30 37768 H 3489.93 -3.54524 -2.49991 0
M  V30 37769 H 3490.6 -3.66309 -4.12943 0
M  V30 37770 H 3493.08 -1.77092 -3.76534 0
M  V30 37771 H 3491.95 -1.92657 -5.13979 0
M  V30 37772 H 3492.21 -0.351651 -4.40699 0
M  V30 37773 N 3491.27 1.21178 -1.00765 0
M  V30 37774 C 3492.22 2.21482 -0.541257 0
M  V30 37775 C 3493.21 1.55885 0.398569 0
M  V30 37776 O 3494.4 1.7559 0.22299 0
M  V30 37777 C 3491.53 3.43061 0.128085 0
M  V30 37778 C 3490.61 4.1584 -0.832918 0
M  V30 37779 N 3491 4.65144 -1.98682 0
M  V30 37780 C 3489.3 4.41211 -0.651856 0
M  V30 37781 C 3490 5.20799 -2.59121 0
M  V30 37782 N 3488.98 5.10329 -1.87258 0
M  V30 37783 H 3492.78 2.57259 -1.42109 0
M  V30 37784 H 3490.3 1.37015 -0.87182 0
M  V30 37785 H 3492.29 4.14131 0.479698 0
M  V30 37786 H 3490.95 3.08792 1.00387 0
M  V30 37787 H 3491.96 4.6064 -2.36709 0
M  V30 37788 H 3488.64 4.17126 0.176627 0
M  V30 37789 H 3490.03 5.69384 -3.56723 0
M  V30 37790 N 3492.75 0.782725 1.36789 0
M  V30 37791 C 3493.66 0.177511 2.33927 0
M  V30 37792 C 3494.68 -0.666774 1.60718 0
M  V30 37793 O 3495.85 -0.584128 1.92743 0
M  V30 37794 C 3492.92 -0.682881 3.39908 0
M  V30 37795 C 3491.98 0.179129 4.28926 0
M  V30 37796 C 3491.21 -0.640293 5.29845 0
M  V30 37797 O 3491.43 -1.87671 5.38642 0
M  V30 37798 O 3490.37 -0.0437106 6.01884 0
M  V30 37799 H 3494.19 0.980492 2.87437 0
M  V30 37800 H 3491.78 0.544065 1.39141 0
M  V30 37801 H 3493.66 -1.17372 4.04724 0
M  V30 37802 H 3492.34 -1.46386 2.88709 0
M  V30 37803 H 3491.24 0.716576 3.67173 0
M  V30 37804 H 3492.58 0.923462 4.83459 0
M  V30 37805 N 3494.23 -1.48271 0.534176 0
M  V30 37806 C 3495.48 -2.025 0.00160818 0
M  V30 37807 C 3495.8 -1.41087 -1.33883 0
M  V30 37808 O 3495.06 -0.547577 -1.87883 0
M  V30 37809 C 3495.36 -3.57019 -0.165081 0
M  V30 37810 C 3495.02 -4.37238 1.10153 0
M  V30 37811 C 3493.69 -4.58876 1.44866 0
M  V30 37812 C 3496.04 -4.83672 1.94192 0
M  V30 37813 C 3493.37 -5.24196 2.63506 0
M  V30 37814 C 3495.72 -5.503 3.12015 0
M  V30 37815 C 3494.38 -5.70176 3.47068 0
M  V30 37816 H 3493.65 -0.741 0.000588475 0
M  V30 37817 H 3496.3 -1.78207 0.701045 0
M  V30 37818 H 3494.6 -3.80175 -0.947317 0
M  V30 37819 H 3496.3 -3.96604 -0.592132 0
M  V30 37820 H 3492.89 -4.20659 0.821206 0
M  V30 37821 H 3497.07 -4.66754 1.68685 0
M  V30 37822 H 3492.33 -5.37782 2.90862 0
M  V30 37823 H 3496.5 -5.85248 3.77437 0
M  V30 37824 H 3494.13 -6.20563 4.39097 0
M  V30 37825 N 3495.71 -0.269505 -1.55279 0
M  V30 37826 C 3496.95 0.348878 -1.99472 0
M  V30 37827 C 3497.28 1.56281 -1.15787 0
M  V30 37828 O 3496.54 1.94525 -0.214149 0
M  V30 37829 C 3496.84 0.780474 -3.48774 0
M  V30 37830 C 3496.5 -0.328192 -4.49704 0
M  V30 37831 C 3495.16 -0.632628 -4.77023 0
M  V30 37832 C 3497.52 -1.07553 -5.09982 0
M  V30 37833 C 3494.84 -1.68808 -5.6189 0
M  V30 37834 C 3497.2 -2.12067 -5.95995 0
M  V30 37835 C 3495.86 -2.43151 -6.21638 0
M  V30 37836 H 3495.13 0.127664 -0.72992 0
M  V30 37837 H 3497.78 -0.382048 -1.8765 0
M  V30 37838 H 3496.08 1.59098 -3.58043 0
M  V30 37839 H 3497.78 1.26959 -3.80371 0
M  V30 37840 H 3494.37 -0.0807884 -4.28524 0
M  V30 37841 H 3498.55 -0.853592 -4.88904 0
M  V30 37842 H 3493.81 -1.934 -5.80006 0
M  V30 37843 H 3497.98 -2.70453 -6.41738 0
M  V30 37844 H 3495.61 -3.25071 -6.87192 0
M  V30 37845 N 3497.18 1.576 0.00329885 0
M  V30 37846 C 3498.41 1.9442 0.698896 0
M  V30 37847 C 3498.82 0.869829 1.6802 0
M  V30 37848 O 3498.17 -0.160161 1.83 0
M  V30 37849 C 3498.23 3.27207 1.48915 0
M  V30 37850 C 3497.89 4.52065 0.669794 0
M  V30 37851 C 3498.89 5.19884 -0.0411071 0
M  V30 37852 C 3496.57 4.98499 0.616737 0
M  V30 37853 C 3498.57 6.32434 -0.794087 0
M  V30 37854 C 3496.25 6.1094 -0.139971 0
M  V30 37855 C 3497.25 6.77764 -0.84412 0
M  V30 37856 O 3496.94 7.8805 -1.58849 0
M  V30 37857 H 3496.67 0.645789 0.199832 0
M  V30 37858 H 3499.23 2.05355 -0.0429395 0
M  V30 37859 H 3497.46 3.12671 2.27539 0
M  V30 37860 H 3499.15 3.49164 2.06977 0
M  V30 37861 H 3499.91 4.84999 -0.00924806 0
M  V30 37862 H 3495.79 4.46314 1.15434 0
M  V30 37863 H 3499.33 6.84526 -1.34423 0
M  V30 37864 H 3495.23 6.45266 -0.173663 0
M  V30 37865 H 3496 8.04547 -1.50485 0
M  V30 37866 N 3498.66 -0.276003 1.55164 0
M  V30 37867 C 3499.89 -1.0306 1.79982 0
M  V30 37868 C 3500.31 -1.79262 0.5698 0
M  V30 37869 O 3499.67 -1.74816 -0.480509 0
M  V30 37870 C 3499.72 -1.96723 3.02213 0
M  V30 37871 O 3498.82 -3.05444 2.77088 0
M  V30 37872 H 3498.16 -0.294803 0.594968 0
M  V30 37873 H 3500.69 -0.305825 2.02301 0
M  V30 37874 H 3500.7 -2.38732 3.30864 0
M  V30 37875 H 3499.38 -1.4067 3.91388 0
M  V30 37876 H 3497.96 -2.67771 2.59524 0
M  V30 37877 N 3500.14 -1.48046 -0.540378 0
M  V30 37878 C 3501.39 -1.55533 -1.29675 0
M  V30 37879 C 3501.72 -0.224758 -1.93197 0
M  V30 37880 O 3500.97 0.783997 -1.7931 0
M  V30 37881 C 3501.27 -2.63451 -2.41513 0
M  V30 37882 C 3500.94 -4.06211 -1.95712 0
M  V30 37883 C 3499.6 -4.4507 -1.82938 0
M  V30 37884 C 3501.95 -4.95719 -1.60971 0
M  V30 37885 C 3499.28 -5.71253 -1.33743 0
M  V30 37886 C 3501.63 -6.22382 -1.13242 0
M  V30 37887 C 3500.29 -6.60106 -0.99077 0
M  V30 37888 H 3499.56 -0.569137 -0.474515 0
M  V30 37889 H 3502.21 -1.81719 -0.604177 0
M  V30 37890 H 3500.52 -2.31085 -3.16397 0
M  V30 37891 H 3502.21 -2.66462 -2.99665 0
M  V30 37892 H 3498.8 -3.75518 -2.06602 0
M  V30 37893 H 3502.99 -4.66384 -1.69705 0
M  V30 37894 H 3498.24 -5.99215 -1.21455 0
M  V30 37895 H 3502.42 -6.9114 -0.854279 0
M  V30 37896 H 3500.04 -7.5777 -0.607364 0
M  V30 37897 N 3501.62 0.788444 -1.3646 0
M  V30 37898 C 3502.55 1.91539 -1.33549 0
M  V30 37899 C 3503.53 1.68838 -0.206792 0
M  V30 37900 O 3504.71 1.89939 -0.404586 0
M  V30 37901 C 3501.84 3.28575 -1.12498 0
M  V30 37902 C 3500.8 3.65801 -2.22202 0
M  V30 37903 C 3500.12 5.01197 -1.86294 0
M  V30 37904 C 3501.42 3.74283 -3.64293 0
M  V30 37905 H 3503.12 1.94232 -2.27847 0
M  V30 37906 H 3500.66 0.933086 -1.09679 0
M  V30 37907 H 3502.62 4.07033 -1.09096 0
M  V30 37908 H 3501.34 3.26271 -0.146503 0
M  V30 37909 H 3500 2.8964 -2.24732 0
M  V30 37910 H 3499.65 4.95416 -0.870177 0
M  V30 37911 H 3499.35 5.27074 -2.59743 0
M  V30 37912 H 3500.87 5.82075 -1.84449 0
M  V30 37913 H 3502.29 4.42931 -3.63985 0
M  V30 37914 H 3500.68 4.11645 -4.36655 0
M  V30 37915 H 3501.75 2.75364 -3.99128 0
M  V30 37916 N 3503.1 1.20755 1.01271 0
M  V30 37917 C 3504.03 0.983842 2.11761 0
M  V30 37918 C 3505.01 -0.0885337 1.69869 0
M  V30 37919 O 3506.19 0.069758 1.94075 0
M  V30 37920 C 3503.32 0.539348 3.43086 0
M  V30 37921 C 3502.28 1.55541 3.98737 0
M  V30 37922 C 3501.6 0.967414 5.25876 0
M  V30 37923 C 3502.9 2.94019 4.31683 0
M  V30 37924 H 3504.6 1.90794 2.30734 0
M  V30 37925 H 3502.14 0.918754 1.10882 0
M  V30 37926 H 3504.1 0.370053 4.19772 0
M  V30 37927 H 3502.82 -0.420378 3.23883 0
M  V30 37928 H 3501.48 1.71213 3.24163 0
M  V30 37929 H 3501.13 -0.000359892 5.03 0
M  V30 37930 H 3500.83 1.64604 5.64074 0
M  V30 37931 H 3502.35 0.809273 6.05213 0
M  V30 37932 H 3503.76 2.81835 4.99241 0
M  V30 37933 H 3502.16 3.58824 4.81005 0
M  V30 37934 H 3503.23 3.45448 3.40284 0
M  V30 37935 N 3504.58 -1.20642 1.01406 0
M  V30 37936 C 3505.82 -1.89945 0.701942 0
M  V30 37937 C 3506.15 -1.78688 -0.768181 0
M  V30 37938 O 3505.41 -1.16365 -1.57346 0
M  V30 37939 C 3505.7 -3.40691 1.08001 0
M  V30 37940 C 3505.37 -3.72148 2.54592 0
M  V30 37941 C 3504.03 -3.80444 2.94646 0
M  V30 37942 C 3506.38 -3.86648 3.49504 0
M  V30 37943 C 3503.71 -4.00694 4.28557 0
M  V30 37944 C 3506.06 -4.08408 4.831 0
M  V30 37945 C 3504.73 -4.14933 5.22864 0
M  V30 37946 H 3504 -0.695057 0.256859 0
M  V30 37947 H 3506.65 -1.42958 1.27418 0
M  V30 37948 H 3504.95 -3.89475 0.426158 0
M  V30 37949 H 3506.65 -3.92605 0.816245 0
M  V30 37950 H 3503.24 -3.66289 2.22555 0
M  V30 37951 H 3507.42 -3.79596 3.19719 0
M  V30 37952 H 3502.68 -4.0398 4.58923 0
M  V30 37953 H 3506.85 -4.1857 5.56572 0
M  V30 37954 H 3504.48 -4.30377 6.26642 0
M  V30 37955 N 3506.05 -0.789968 -1.36372 0
M  V30 37956 C 3507.33 -0.286577 -1.93489 0
M  V30 37957 C 3507.71 1.22133 -1.72182 0
M  V30 37958 O 3507.06 2.01307 -1.0811 0
M  V30 37959 C 3507.27 -0.679809 -3.42315 0
M  V30 37960 C 3508.62 -0.659865 -4.19441 0
M  V30 37961 O 3509.64 -0.620317 -3.50757 0
M  V30 37962 O 3508.5 -0.703254 -5.41956 0
M  V30 37963 H 3505.59 -0.0710682 -0.823941 0
M  V30 37964 H 3508.14 -0.872549 -1.4555 0
M  V30 37965 H 3506.91 -1.71976 -3.51482 0
M  V30 37966 H 3506.53 -0.0677522 -3.97542 0
M  V30 37967 N 3507.53 1.47986 -0.542031 0
M  V30 37968 C 3508.46 2.32619 0.202662 0
M  V30 37969 C 3509.44 1.42848 0.923496 0
M  V30 37970 O 3510.63 1.71722 0.906927 0
M  V30 37971 C 3507.76 3.24309 1.24261 0
M  V30 37972 C 3506.71 4.232 0.639183 0
M  V30 37973 C 3506.04 5.04108 1.78266 0
M  V30 37974 C 3507.34 5.20788 -0.397073 0
M  V30 37975 H 3509.03 2.9513 -0.503868 0
M  V30 37976 H 3506.58 1.41922 -0.243761 0
M  V30 37977 H 3508.53 3.8235 1.77163 0
M  V30 37978 H 3507.25 2.59822 1.97888 0
M  V30 37979 H 3505.91 3.66364 0.131591 0
M  V30 37980 H 3505.56 4.36037 2.50761 0
M  V30 37981 H 3505.26 5.7105 1.38477 0
M  V30 37982 H 3506.79 5.65004 2.31523 0
M  V30 37983 H 3508.2 5.73282 0.045305 0
M  V30 37984 H 3506.6 5.95849 -0.713015 0
M  V30 37985 H 3507.67 4.6719 -1.29851 0
M  V30 37986 N 3509.01 0.277736 1.55133 0
M  V30 37987 C 3510.26 -0.338796 1.9995 0
M  V30 37988 C 3510.59 -1.55308 1.1659 0
M  V30 37989 O 3509.86 -1.93056 0.236605 0
M  V30 37990 C 3510.15 -0.718395 3.52861 0
M  V30 37991 C 3510 0.503411 4.46974 0
M  V30 37992 C 3511.32 -1.55384 4.11757 0
M  V30 37993 H 3508.44 -0.121669 0.726888 0
M  V30 37994 H 3511.08 0.385203 1.86054 0
M  V30 37995 H 3509.23 -1.33525 3.64833 0
M  V30 37996 H 3510.9 1.14196 4.46942 0
M  V30 37997 H 3509.14 1.14099 4.18526 0
M  V30 37998 H 3509.82 0.194009 5.51659 0
M  V30 37999 H 3512.29 -1.03286 4.03077 0
M  V30 38000 H 3511.17 -1.78826 5.18953 0
M  V30 38001 H 3511.43 -2.53571 3.62152 0
M  V30 38002 N 3510.49 -1.57599 0.00505908 0
M  V30 38003 C 3511.72 -1.94788 -0.688575 0
M  V30 38004 C 3512.13 -0.878728 -1.67556 0
M  V30 38005 O 3511.47 0.150454 -1.83083 0
M  V30 38006 C 3511.53 -3.27993 -1.47177 0
M  V30 38007 C 3511.19 -4.52414 -0.645811 0
M  V30 38008 C 3512.19 -5.19855 0.0686772 0
M  V30 38009 C 3509.88 -4.98819 -0.590292 0
M  V30 38010 C 3511.87 -6.32004 0.827616 0
M  V30 38011 C 3509.56 -6.10857 0.172369 0
M  V30 38012 C 3510.56 -6.77307 0.880051 0
M  V30 38013 O 3510.24 -7.87196 1.63026 0
M  V30 38014 H 3509.98 -0.64684 -0.196404 0
M  V30 38015 H 3512.53 -2.05329 0.0538294 0
M  V30 38016 H 3510.76 -3.13873 -2.25877 0
M  V30 38017 H 3512.45 -3.50256 -2.05122 0
M  V30 38018 H 3513.21 -4.84987 0.0349686 0
M  V30 38019 H 3509.09 -4.4692 -1.13066 0
M  V30 38020 H 3512.64 -6.83804 1.38052 0
M  V30 38021 H 3508.53 -6.45165 0.20788 0
M  V30 38022 H 3509.3 -8.03738 1.5475 0
M  V30 38023 N 3511.97 0.267771 -1.55309 0
M  V30 38024 C 3513.38 0.615234 -1.47265 0
M  V30 38025 C 3513.58 1.89279 -0.691058 0
M  V30 38026 O 3512.64 2.51608 -0.212009 0
M  V30 38027 C 3513.95 0.737339 -2.9152 0
M  V30 38028 C 3515.5 0.831048 -3.01766 0
M  V30 38029 C 3515.97 0.984887 -4.47285 0
M  V30 38030 N 3517.46 1.05028 -4.51136 0
M  V30 38031 C 3518.2 1.18821 -5.60954 0
M  V30 38032 N 3517.7 1.29299 -6.80627 0
M  V30 38033 N 3519.49 1.21972 -5.48707 0
M  V30 38034 H 3511.64 -0.571176 -2.04576 0
M  V30 38035 H 3513.9 -0.194157 -0.927905 0
M  V30 38036 H 3513.61 -0.131036 -3.51456 0
M  V30 38037 H 3513.48 1.61597 -3.40832 0
M  V30 38038 H 3515.87 1.68989 -2.41923 0
M  V30 38039 H 3515.95 -0.0722959 -2.55698 0
M  V30 38040 H 3515.59 0.130686 -5.07732 0
M  V30 38041 H 3515.52 1.90296 -4.91014 0
M  V30 38042 H 3518.02 0.981487 -3.64932 0
M  V30 38043 H 3518.33 1.39672 -7.60073 0
M  V30 38044 H 3516.67 1.26294 -6.83429 0
M  V30 38045 H 3519.86 1.1342 -4.54152 0
M  V30 38046 H 3520.04 1.32377 -6.34335 0
M  V30 38047 N 3513.44 1.48331 0.532519 0
M  V30 38048 C 3514.35 1.65342 1.6643 0
M  V30 38049 C 3515.37 0.535968 1.6554 0
M  V30 38050 O 3516.55 0.806711 1.84538 0
M  V30 38051 C 3513.61 1.68682 3.02898 0
M  V30 38052 C 3512.67 2.92036 3.14664 0
M  V30 38053 C 3511.9 2.95207 4.44622 0
M  V30 38054 O 3512.13 2.0686 5.31568 0
M  V30 38055 O 3511.06 3.87349 4.607 0
M  V30 38056 H 3514.89 2.61159 1.55016 0
M  V30 38057 H 3512.47 1.31702 0.705325 0
M  V30 38058 H 3514.35 1.73414 3.84065 0
M  V30 38059 H 3513.03 0.760382 3.14642 0
M  V30 38060 H 3511.94 2.92838 2.32802 0
M  V30 38061 H 3513.27 3.84056 3.07835 0
M  V30 38062 N 3514.92 -0.781196 1.36876 0
M  V30 38063 C 3515.83 -1.92534 1.34044 0
M  V30 38064 C 3516.85 -1.72318 0.241384 0
M  V30 38065 O 3518.02 -1.95714 0.475163 0
M  V30 38066 C 3515.09 -3.27521 1.13714 0
M  V30 38067 C 3514.15 -3.60458 2.33171 0
M  V30 38068 C 3513.38 -4.89003 2.13802 0
M  V30 38069 O 3513.61 -5.59348 1.11741 0
M  V30 38070 O 3512.54 -5.20786 3.01771 0
M  V30 38071 H 3516.37 -1.97875 2.3039 0
M  V30 38072 H 3513.95 -0.922616 1.17508 0
M  V30 38073 H 3515.83 -4.08281 1.04328 0
M  V30 38074 H 3514.51 -3.23054 0.204363 0
M  V30 38075 H 3513.41 -2.7997 2.48128 0
M  V30 38076 H 3514.75 -3.69657 3.24984 0
M  V30 38077 N 3516.4 -1.21291 -1.0063 0
M  V30 38078 C 3517.63 -1.05527 -1.77965 0
M  V30 38079 C 3518.04 0.394991 -1.84622 0
M  V30 38080 O 3517.4 1.27407 -1.30667 0
M  V30 38081 C 3517.45 -1.64437 -3.21936 0
M  V30 38082 O 3517.17 -3.03789 -3.15664 0
M  V30 38083 C 3518.67 -1.53767 -4.15777 0
M  V30 38084 H 3515.89 -0.370655 -0.559335 0
M  V30 38085 H 3518.44 -1.606 -1.26601 0
M  V30 38086 H 3516.59 -1.1346 -3.70413 0
M  V30 38087 H 3517.01 -3.31931 -4.06106 0
M  V30 38088 H 3518.48 -1.99731 -5.14598 0
M  V30 38089 H 3518.96 -0.491888 -4.36437 0
M  V30 38090 H 3519.56 -2.03986 -3.73189 0
M  V30 38091 N 3517.88 1.20103 -1.02045 0
M  V30 38092 C 3518.81 2.2527 -0.61446 0
M  V30 38093 C 3519.79 1.65974 0.37239 0
M  V30 38094 O 3520.97 1.92492 0.256971 0
M  V30 38095 C 3518.1 3.47272 0.0441474 0
M  V30 38096 C 3517.06 4.19187 -0.864092 0
M  V30 38097 C 3516.38 5.34653 -0.0710491 0
M  V30 38098 C 3517.68 4.74908 -2.17394 0
M  V30 38099 H 3519.38 2.59484 -1.4936 0
M  V30 38100 H 3516.92 1.2473 -0.719612 0
M  V30 38101 H 3518.88 4.20028 0.339751 0
M  V30 38102 H 3517.6 3.12233 0.958027 0
M  V30 38103 H 3516.26 3.48301 -1.14376 0
M  V30 38104 H 3515.91 4.95858 0.844601 0
M  V30 38105 H 3515.61 5.83699 -0.675933 0
M  V30 38106 H 3517.13 6.10211 0.218011 0
M  V30 38107 H 3518.55 5.39463 -1.94044 0
M  V30 38108 H 3516.94 5.34407 -2.73001 0
M  V30 38109 H 3518.01 3.93438 -2.83434 0
M  V30 38110 N 3519.36 0.797189 1.35951 0
M  V30 38111 C 3520.29 0.215318 2.32505 0
M  V30 38112 C 3521.27 -0.654018 1.57024 0
M  V30 38113 O 3522.45 -0.586235 1.8514 0
M  V30 38114 C 3519.58 -0.644497 3.41268 0
M  V30 38115 C 3518.54 0.125576 4.27816 0
M  V30 38116 C 3517.86 -0.855335 5.27814 0
M  V30 38117 C 3519.16 1.31922 5.05365 0
M  V30 38118 H 3520.86 1.02198 2.81418 0
M  V30 38119 H 3518.4 0.492886 1.35302 0
M  V30 38120 H 3520.36 -1.06156 4.0781 0
M  V30 38121 H 3519.08 -1.48395 2.90941 0
M  V30 38122 H 3517.74 0.523703 3.6284 0
M  V30 38123 H 3517.39 -1.69003 4.73758 0
M  V30 38124 H 3517.09 -0.344463 5.86589 0
M  V30 38125 H 3518.61 -1.2708 5.97229 0
M  V30 38126 H 3520.02 0.977518 5.64905 0
M  V30 38127 H 3518.42 1.76392 5.7359 0
M  V30 38128 H 3519.49 2.11065 4.36554 0
M  V30 38129 N 3520.83 -1.47696 0.549872 0
M  V30 38130 C 3521.78 -2.31603 -0.215078 0
M  V30 38131 C 3522.78 -1.42472 -0.916416 0
M  V30 38132 O 3523.98 -1.59275 -0.838537 0
M  V30 38133 H 3520.36 -0.746806 -0.088231 0
M  V30 38134 H 3522.33 -2.93976 0.511899 0
M  V30 38135 C 3521.08 -3.24968 -1.23656 0
M  V30 38136 H 3520.4 -3.93511 -0.706315 0
M  V30 38137 H 3521.84 -3.86525 -1.74283 0
M  V30 38138 C 3520.3 -2.47971 -2.28062 0
M  V30 38139 O 3520.83 -2.21884 -3.34858 0
M  V30 38140 N 3519.04 -2.0911 -2.01795 0
M  V30 38141 H 3518.58 -2.30525 -1.14961 0
M  V30 38142 H 3518.54 -1.57907 -2.71869 0
M  V30 38143 N 3522.31 -0.285959 -1.54984 0
M  V30 38144 C 3523.56 0.328188 -2.00127 0
M  V30 38145 C 3523.89 1.54687 -1.17412 0
M  V30 38146 O 3523.17 1.92927 -0.24684 0
M  V30 38147 C 3523.45 0.699671 -3.53237 0
M  V30 38148 C 3523.3 -0.527108 -4.46701 0
M  V30 38149 C 3524.62 1.53199 -4.12575 0
M  V30 38150 H 3521.74 0.117813 -0.727523 0
M  V30 38151 H 3524.38 -0.395065 -1.85847 0
M  V30 38152 H 3522.53 1.31588 -3.65536 0
M  V30 38153 H 3524.2 -1.16565 -4.4633 0
M  V30 38154 H 3522.45 -1.16317 -4.17915 0
M  V30 38155 H 3523.12 -0.223262 -5.51548 0
M  V30 38156 H 3525.59 1.01147 -4.03619 0
M  V30 38157 H 3524.47 1.76071 -5.19894 0
M  V30 38158 H 3524.73 2.51647 -3.63492 0
M  V30 38159 N 3523.79 1.57594 -0.0134169 0
M  V30 38160 C 3525.04 1.90322 0.667862 0
M  V30 38161 C 3525.35 0.889871 1.74186 0
M  V30 38162 O 3526.56 1.10784 2.47869 0
M  V30 38163 C 3525.01 3.37896 1.23911 0
M  V30 38164 C 3524.62 4.47557 0.199234 0
M  V30 38165 C 3526.37 3.79715 1.89781 0
M  V30 38166 C 3524.27 5.86217 0.781236 0
M  V30 38167 H 3523.2 0.71021 0.253216 0
M  V30 38168 H 3525.85 1.83342 -0.0761551 0
M  V30 38169 H 3524.24 3.39757 2.03423 0
M  V30 38170 H 3525.41 4.57233 -0.572276 0
M  V30 38171 H 3523.73 4.14843 -0.359792 0
M  V30 38172 H 3526.32 4.80655 2.34253 0
M  V30 38173 H 3526.67 3.13939 2.73401 0
M  V30 38174 H 3527.2 3.8021 1.16983 0
M  V30 38175 H 3523.94 6.55498 -0.016475 0
M  V30 38176 H 3523.46 5.80179 1.52159 0
M  V30 38177 H 3525.14 6.34297 1.27579 0
M  V30 38178 N 3525.27 -0.259531 1.55448 0
M  V30 38179 C 3526.22 -1.3211 1.8925 0
M  V30 38180 C 3527.19 -1.48436 0.745374 0
M  V30 38181 O 3528.37 -1.62625 0.997883 0
M  V30 38182 C 3525.51 -2.6739 2.18166 0
M  V30 38183 C 3524.62 -2.59176 3.45618 0
M  V30 38184 C 3523.76 -3.86725 3.64167 0
M  V30 38185 C 3522.8 -3.73075 4.85264 0
M  V30 38186 N 3521.93 -4.92488 5.004 0
M  V30 38187 H 3526.77 -1.02584 2.79787 0
M  V30 38188 H 3524.31 -0.495314 1.3851 0
M  V30 38189 H 3526.27 -3.46118 2.32933 0
M  V30 38190 H 3524.9 -2.95091 1.30848 0
M  V30 38191 H 3523.95 -1.72085 3.39251 0
M  V30 38192 H 3525.26 -2.44995 4.34487 0
M  V30 38193 H 3524.42 -4.73895 3.78825 0
M  V30 38194 H 3523.16 -4.03788 2.73508 0
M  V30 38195 H 3522.16 -2.84288 4.70596 0
M  V30 38196 H 3523.39 -3.57518 5.77371 0
M  V30 38197 H 3521.33 -5.09937 4.12675 0
M  V30 38198 H 3521.25 -4.8089 5.83336 0
M  V30 38199 H 3522.52 -5.81193 5.19457 0
M  V30 38200 N 3526.75 -1.48611 -0.524645 0
M  V30 38201 C 3527.97 -1.60828 -1.30955 0
M  V30 38202 C 3528.4 -0.270715 -1.86142 0
M  V30 38203 O 3527.75 0.758386 -1.64676 0
M  V30 38204 C 3527.8 -2.66201 -2.43248 0
M  V30 38205 O 3526.91 -2.23731 -3.46436 0
M  V30 38206 H 3526.25 -0.539111 -0.387629 0
M  V30 38207 H 3528.78 -1.94636 -0.630721 0
M  V30 38208 H 3528.79 -2.8764 -2.89357 0
M  V30 38209 H 3527.46 -3.63304 -2.02442 0
M  V30 38210 H 3526.04 -2.12527 -3.06409 0
M  V30 38211 N 3528.22 0.773926 -1.37289 0
M  V30 38212 C 3529.47 1.53468 -1.32573 0
M  V30 38213 C 3529.8 1.9399 0.0903119 0
M  V30 38214 O 3529.08 1.63905 1.04716 0
M  V30 38215 C 3529.36 2.80122 -2.26282 0
M  V30 38216 C 3529.21 2.45868 -3.76655 0
M  V30 38217 C 3530.53 3.82041 -2.18478 0
M  V30 38218 H 3527.65 0.556756 -0.4829 0
M  V30 38219 H 3530.29 0.88801 -1.67971 0
M  V30 38220 H 3528.44 3.35303 -1.96225 0
M  V30 38221 H 3530.12 1.96618 -4.173 0
M  V30 38222 H 3528.36 1.78595 -3.95331 0
M  V30 38223 H 3529.03 3.36395 -4.37656 0
M  V30 38224 H 3531.51 3.36348 -2.44968 0
M  V30 38225 H 3530.38 4.68387 -2.86191 0
M  V30 38226 H 3530.64 4.26145 -1.177 0
M  V30 38227 N 3529.7 1.21823 0.99985 0
M  V30 38228 C 3530.93 1.0647 1.77403 0
M  V30 38229 C 3531.35 -0.385194 1.84829 0
M  V30 38230 O 3530.7 -1.26712 1.3134 0
M  V30 38231 C 3530.75 1.66142 3.21059 0
M  V30 38232 O 3530.47 3.05459 3.14048 0
M  V30 38233 C 3531.98 1.5597 4.14956 0
M  V30 38234 H 3529.2 0.373616 0.557361 0
M  V30 38235 H 3531.74 1.61269 1.25747 0
M  V30 38236 H 3529.89 1.15422 3.69806 0
M  V30 38237 H 3530.31 3.3408 4.0434 0
M  V30 38238 H 3531.78 2.02457 5.13532 0
M  V30 38239 H 3532.26 0.515026 4.3617 0
M  V30 38240 H 3532.87 2.05962 3.72102 0
M  V30 38241 N 3531.18 -1.1956 1.0268 0
M  V30 38242 C 3532.6 -1.41225 0.743491 0
M  V30 38243 C 3532.8 -1.89938 -0.672753 0
M  V30 38244 O 3531.85 -2.07479 -1.43905 0
M  V30 38245 C 3533.17 -2.42514 1.77785 0
M  V30 38246 C 3534.71 -2.56264 1.79716 0
M  V30 38247 C 3535.19 -3.60806 2.82105 0
M  V30 38248 N 3536.68 -3.68299 2.80909 0
M  V30 38249 C 3537.41 -4.48876 3.56788 0
M  V30 38250 N 3536.91 -5.33175 4.42376 0
M  V30 38251 N 3538.7 -4.43506 3.45339 0
M  V30 38252 H 3530.85 -0.862601 1.94095 0
M  V30 38253 H 3533.12 -0.441299 0.839023 0
M  V30 38254 H 3532.82 -2.1374 2.79299 0
M  V30 38255 H 3532.7 -3.41658 1.59842 0
M  V30 38256 H 3535.08 -2.84362 0.788806 0
M  V30 38257 H 3535.17 -1.5728 2.01734 0
M  V30 38258 H 3534.81 -3.3345 3.8311 0
M  V30 38259 H 3534.74 -4.59435 2.57346 0
M  V30 38260 H 3537.23 -3.08093 2.18832 0
M  V30 38261 H 3537.54 -5.91771 4.97018 0
M  V30 38262 H 3535.89 -5.32642 4.4645 0
M  V30 38263 H 3539.08 -3.7669 2.77889 0
M  V30 38264 H 3539.25 -5.06064 4.04727 0
M  V30 38265 N 3532.66 -0.804387 -1.35526 0
M  V30 38266 C 3533.61 -0.20129 -2.31727 0
M  V30 38267 C 3534.6 0.647723 -1.56528 0
M  V30 38268 O 3535.81 0.541133 -1.71673 0
M  V30 38269 H 3532.18 -0.0463297 -0.750571 0
M  V30 38270 H 3534.15 -1.02782 -2.8014 0
M  V30 38271 C 3532.9 0.637369 -3.41808 0
M  V30 38272 H 3532.22 -0.00658726 -3.99799 0
M  V30 38273 H 3533.66 1.02577 -4.11405 0
M  V30 38274 C 3532.12 1.80197 -2.84659 0
M  V30 38275 O 3532.65 2.89934 -2.78031 0
M  V30 38276 N 3530.86 1.6128 -2.41737 0
M  V30 38277 H 3530.41 0.720188 -2.47328 0
M  V30 38278 H 3530.36 2.3936 -2.03848 0
M  V30 38279 N 3534.14 1.47403 -0.557697 0
M  V30 38280 C 3535.39 2.02072 -0.0337571 0
M  V30 38281 C 3535.71 1.43435 1.32104 0
M  V30 38282 O 3534.98 0.609724 1.8617 0
M  V30 38283 H 3533.56 0.74694 -0.00948961 0
M  V30 38284 H 3536.22 1.80801 -0.727815 0
M  V30 38285 H 3535.31 3.12053 0.0539782 0
M  V30 38286 N 3535.62 0.294175 1.5483 0
M  V30 38287 C 3537.03 -0.0594208 1.59489 0
M  V30 38288 C 3537.23 -1.52999 1.31124 0
M  V30 38289 O 3536.29 -2.28174 1.08133 0
M  V30 38290 C 3537.6 0.332376 2.98857 0
M  V30 38291 C 3539.15 0.280573 3.1174 0
M  V30 38292 C 3539.62 0.64709 4.53406 0
M  V30 38293 N 3541.11 0.599364 4.59306 0
M  V30 38294 C 3541.85 0.855519 5.66982 0
M  V30 38295 N 3541.35 1.17729 6.82724 0
M  V30 38296 N 3543.14 0.783038 5.56619 0
M  V30 38297 H 3535.29 1.25265 1.7153 0
M  V30 38298 H 3537.55 0.507382 0.800792 0
M  V30 38299 H 3537.26 1.35584 3.24515 0
M  V30 38300 H 3537.13 -0.317376 3.75862 0
M  V30 38301 H 3539.52 -0.733633 2.85835 0
M  V30 38302 H 3539.6 0.964852 2.36906 0
M  V30 38303 H 3539.24 1.65907 4.80039 0
M  V30 38304 H 3539.17 -0.059187 5.26567 0
M  V30 38305 H 3541.67 0.361325 3.76169 0
M  V30 38306 H 3541.98 1.3589 7.60759 0
M  V30 38307 H 3540.32 1.21525 6.84293 0
M  V30 38308 H 3543.51 0.531364 4.65074 0
M  V30 38309 H 3543.69 0.986041 6.40454 0
M  V30 38310 N 3537.09 -1.57585 0.0217743 0
M  V30 38311 C 3538.32 -1.96197 -0.672425 0
M  V30 38312 C 3538.74 -0.897856 -1.65288 0
M  V30 38313 O 3538.1 0.14197 -1.80743 0
M  V30 38314 C 3538.15 -3.33907 -1.36156 0
M  V30 38315 O 3537.25 -3.29751 -2.47665 0
M  V30 38316 H 3536.59 -0.639911 -0.177227 0
M  V30 38317 H 3539.12 -2.04438 0.0814433 0
M  V30 38318 H 3539.13 -3.69971 -1.72003 0
M  V30 38319 H 3537.81 -4.10902 -0.64282 0
M  V30 38320 H 3536.39 -3.05394 -2.13984 0
M  V30 38321 N 3538.57 0.251283 -1.55584 0
M  V30 38322 C 3539.82 0.977828 -1.76413 0
M  V30 38323 C 3540.13 1.8665 -0.58489 0
M  V30 38324 O 3541.34 2.62947 -0.676092 0
M  V30 38325 C 3539.8 1.78867 -3.12305 0
M  V30 38326 C 3539.4 0.947597 -4.37864 0
M  V30 38327 C 3541.15 2.50821 -3.42475 0
M  V30 38328 C 3539.05 1.75407 -5.64789 0
M  V30 38329 H 3537.98 0.368827 -0.657634 0
M  V30 38330 H 3540.64 0.23265 -1.82019 0
M  V30 38331 H 3539.02 2.57563 -3.00794 0
M  V30 38332 H 3540.19 0.203271 -4.60351 0
M  V30 38333 H 3538.51 0.341593 -4.14997 0
M  V30 38334 H 3541.1 3.11604 -4.34519 0
M  V30 38335 H 3541.45 3.22214 -2.63597 0
M  V30 38336 H 3541.98 1.79138 -3.55182 0
M  V30 38337 H 3538.72 1.08396 -6.46475 0
M  V30 38338 H 3538.24 2.47379 -5.4641 0
M  V30 38339 H 3539.92 2.32231 -6.03885 0
M  V30 38340 N 3540.05 1.48887 0.516757 0
M  V30 38341 C 3541.3 1.56827 1.26839 0
M  V30 38342 C 3541.61 0.253032 1.93956 0
M  V30 38343 O 3542.82 0.210813 2.7068 0
M  V30 38344 C 3541.27 2.76637 2.30218 0
M  V30 38345 C 3540.88 4.14856 1.6911 0
M  V30 38346 C 3542.63 2.93898 3.06307 0
M  V30 38347 C 3540.53 5.25909 2.70507 0
M  V30 38348 H 3539.46 0.583878 0.477077 0
M  V30 38349 H 3542.11 1.75246 0.544156 0
M  V30 38350 H 3540.5 2.51679 3.05734 0
M  V30 38351 H 3541.67 4.49887 0.996924 0
M  V30 38352 H 3539.98 4.02822 1.05466 0
M  V30 38353 H 3542.58 3.74033 3.82104 0
M  V30 38354 H 3542.92 2.03855 3.62972 0
M  V30 38355 H 3543.46 3.18819 2.37906 0
M  V30 38356 H 3540.2 6.1796 2.18644 0
M  V30 38357 H 3539.72 4.95351 3.38212 0
M  V30 38358 H 3541.4 5.54581 3.3324 0
M  V30 38359 N 3541.53 -0.766635 1.37697 0
M  V30 38360 C 3542.46 -1.8939 1.36579 0
M  V30 38361 C 3543.44 -1.68488 0.233626 0
M  V30 38362 O 3544.62 -1.89271 0.434753 0
M  V30 38363 C 3541.75 -3.26744 1.17711 0
M  V30 38364 C 3540.71 -3.62219 2.27994 0
M  V30 38365 C 3540.03 -4.9817 1.94244 0
M  V30 38366 C 3541.33 -3.6844 3.70201 0
M  V30 38367 H 3543.03 -1.90583 2.30908 0
M  V30 38368 H 3540.57 -0.915518 1.1115 0
M  V30 38369 H 3542.53 -4.05246 1.15558 0
M  V30 38370 H 3541.25 -3.25997 0.198392 0
M  V30 38371 H 3539.91 -2.86028 2.29311 0
M  V30 38372 H 3539.56 -4.93969 0.948883 0
M  V30 38373 H 3539.26 -5.22875 2.68095 0
M  V30 38374 H 3540.78 -5.79067 1.93686 0
M  V30 38375 H 3542.2 -4.37084 3.70986 0
M  V30 38376 H 3540.59 -4.04647 4.43149 0
M  V30 38377 H 3541.66 -2.68979 4.03458 0
M  V30 38378 N 3543.01 -1.22351 -0.993375 0
M  V30 38379 C 3544.23 -1.07409 -1.76836 0
M  V30 38380 C 3544.65 0.375387 -1.85031 0
M  V30 38381 O 3544.01 1.26014 -1.3201 0
M  V30 38382 C 3544.06 -1.67843 -3.20174 0
M  V30 38383 O 3543.78 -3.0712 -3.12424 0
M  V30 38384 C 3545.28 -1.58169 -4.14123 0
M  V30 38385 H 3542.5 -0.376567 -0.555372 0
M  V30 38386 H 3545.04 -1.61934 -1.2489 0
M  V30 38387 H 3543.2 -1.17382 -3.69189 0
M  V30 38388 H 3543.61 -3.3622 -4.02562 0
M  V30 38389 H 3545.09 -2.05178 -5.12451 0
M  V30 38390 H 3545.56 -0.53815 -4.35891 0
M  V30 38391 H 3546.17 -2.07933 -3.71004 0
M  V30 38392 N 3544.48 1.19014 -1.03313 0
M  V30 38393 C 3545.45 2.20594 -0.622153 0
M  V30 38394 C 3546.45 1.57655 0.316474 0
M  V30 38395 O 3547.64 1.73896 0.102902 0
M  V30 38396 C 3544.77 3.40784 0.0889833 0
M  V30 38397 H 3545.96 2.58468 -1.52099 0
M  V30 38398 H 3543.51 1.32766 -0.8248 0
M  V30 38399 H 3544.25 3.08433 1.00198 0
M  V30 38400 H 3544.03 3.87703 -0.585538 0
M  V30 38401 H 3545.52 4.16017 0.363292 0
M  V30 38402 N 3545.96 0.811563 1.35098 0
M  V30 38403 C 3547.21 0.39485 1.98919 0
M  V30 38404 C 3547.54 -1.03658 1.64222 0
M  V30 38405 O 3546.82 -1.72001 0.908061 0
M  V30 38406 C 3547.1 0.584193 3.5533 0
M  V30 38407 C 3546.95 2.06091 3.99808 0
M  V30 38408 C 3548.27 0.0129869 4.40098 0
M  V30 38409 H 3545.39 0.144939 0.722608 0
M  V30 38410 H 3548.03 1.02202 1.60171 0
M  V30 38411 H 3546.18 0.0503129 3.88467 0
M  V30 38412 H 3547.85 2.65756 3.77057 0
M  V30 38413 H 3546.1 2.55554 3.50535 0
M  V30 38414 H 3546.77 2.14425 5.08651 0
M  V30 38415 H 3549.24 0.46899 4.13449 0
M  V30 38416 H 3548.12 0.175349 5.4862 0
M  V30 38417 H 3548.38 -1.08113 4.28677 0
M  V30 38418 N 3547.44 -1.47105 0.565506 0
M  V30 38419 C 3548.37 -2.32912 -0.165629 0
M  V30 38420 C 3549.35 -1.44299 -0.900653 0
M  V30 38421 O 3550.54 -1.73143 -0.879493 0
M  V30 38422 C 3547.67 -3.26245 -1.19086 0
M  V30 38423 C 3546.62 -4.24164 -0.571774 0
M  V30 38424 C 3545.95 -5.06881 -1.70224 0
M  V30 38425 C 3547.25 -5.20091 0.479876 0
M  V30 38426 H 3548.94 -2.94291 0.550757 0
M  V30 38427 H 3546.49 -1.41516 0.266309 0
M  V30 38428 H 3548.44 -3.8512 -1.71058 0
M  V30 38429 H 3547.16 -2.62938 -1.9373 0
M  V30 38430 H 3545.82 -3.66527 -0.0732886 0
M  V30 38431 H 3545.47 -4.39971 -2.43792 0
M  V30 38432 H 3545.17 -5.73181 -1.29374 0
M  V30 38433 H 3546.69 -5.68616 -2.22505 0
M  V30 38434 H 3548.11 -5.73282 0.045905 0
M  V30 38435 H 3546.5 -5.94639 0.807719 0
M  V30 38436 H 3547.57 -4.65065 1.37267 0
M  V30 38437 N 3548.92 -0.302382 -1.54672 0
M  V30 38438 C 3549.88 0.560244 -2.22247 0
M  V30 38439 C 3550.88 1.06021 -1.20897 0
M  V30 38440 O 3552.07 0.956022 -1.45622 0
M  V30 38441 C 3549.2 1.77584 -2.90993 0
M  V30 38442 H 3550.4 -0.0301801 -2.99885 0
M  V30 38443 H 3547.95 -0.0532311 -1.56209 0
M  V30 38444 H 3548.68 2.40606 -2.17438 0
M  V30 38445 H 3548.47 1.42497 -3.6529 0
M  V30 38446 H 3549.96 2.38865 -3.42539 0
M  V30 38447 N 3550.4 1.57571 -0.0301311 0
M  V30 38448 C 3551.33 2.13313 0.949732 0
M  V30 38449 C 3552.31 1.04951 1.33863 0
M  V30 38450 O 3553.49 1.32788 1.41707 0
M  V30 38451 C 3550.62 2.66103 2.23173 0
M  V30 38452 C 3549.58 3.79262 1.98355 0
M  V30 38453 C 3548.9 4.18484 3.32829 0
M  V30 38454 C 3550.2 5.05294 1.32193 0
M  V30 38455 H 3551.9 2.95437 0.48551 0
M  V30 38456 H 3549.44 1.42117 0.232091 0
M  V30 38457 H 3551.4 3.03734 2.92103 0
M  V30 38458 H 3550.12 1.81142 2.71763 0
M  V30 38459 H 3548.78 3.42071 1.31843 0
M  V30 38460 H 3548.43 3.30503 3.79179 0
M  V30 38461 H 3548.13 4.94739 3.17028 0
M  V30 38462 H 3549.65 4.58698 4.03024 0
M  V30 38463 H 3551.06 5.40504 1.91123 0
M  V30 38464 H 3549.46 5.86554 1.26787 0
M  V30 38465 H 3550.53 4.84002 0.295025 0
M  V30 38466 N 3551.87 -0.243029 1.55715 0
M  V30 38467 C 3553.12 -0.968459 1.76929 0
M  V30 38468 C 3553.44 -1.86338 0.59478 0
M  V30 38469 O 3554.64 -2.62585 0.690027 0
M  V30 38470 C 3553.1 -1.77208 3.1325 0
M  V30 38471 C 3552.71 -0.924363 4.3836 0
M  V30 38472 C 3554.45 -2.49001 3.438 0
M  V30 38473 C 3552.36 -1.7241 5.65711 0
M  V30 38474 H 3551.29 -0.365334 0.659581 0
M  V30 38475 H 3553.94 -0.222994 1.8214 0
M  V30 38476 H 3552.32 -2.55964 3.02156 0
M  V30 38477 H 3553.49 -0.178855 4.60453 0
M  V30 38478 H 3551.81 -0.31958 4.15172 0
M  V30 38479 H 3554.41 -3.09296 4.36165 0
M  V30 38480 H 3554.75 -3.20812 2.65303 0
M  V30 38481 H 3555.28 -1.77252 3.56127 0
M  V30 38482 H 3552.02 -1.04966 6.47041 0
M  V30 38483 H 3551.54 -2.44478 5.47714 0
M  V30 38484 H 3553.22 -2.29025 6.05109 0
M  V30 38485 N 3553.35 -1.49159 -0.508854 0
M  V30 38486 C 3554.28 -1.68157 -1.62005 0
M  V30 38487 C 3555.26 -0.530278 -1.61623 0
M  V30 38488 O 3556.45 -0.765236 -1.78487 0
M  V30 38489 C 3553.58 -1.7408 -3.00522 0
M  V30 38490 C 3552.53 -2.8892 -3.15767 0
M  V30 38491 C 3551.86 -2.7995 -4.55557 0
M  V30 38492 C 3553.16 -4.29959 -2.96535 0
M  V30 38493 H 3554.85 -2.61187 -1.46361 0
M  V30 38494 H 3552.4 -1.25692 -0.702683 0
M  V30 38495 H 3554.35 -1.85957 -3.78151 0
M  V30 38496 H 3553.08 -0.776428 -3.17237 0
M  V30 38497 H 3551.73 -2.76633 -2.40562 0
M  V30 38498 H 3551.38 -1.81437 -4.69137 0
M  V30 38499 H 3551.08 -3.57023 -4.667 0
M  V30 38500 H 3552.61 -2.93824 -5.35257 0
M  V30 38501 H 3554.02 -4.42969 -3.63939 0
M  V30 38502 H 3552.42 -5.08193 -3.19155 0
M  V30 38503 H 3553.49 -4.4495 -1.92737 0
M  V30 38504 N 3554.83 0.759322 -1.38102 0
M  V30 38505 C 3556.08 1.52053 -1.34193 0
M  V30 38506 C 3556.41 1.94075 0.0697316 0
M  V30 38507 O 3555.68 1.65006 1.02972 0
M  V30 38508 C 3555.97 2.77706 -2.29241 0
M  V30 38509 C 3555.82 2.41859 -3.79242 0
M  V30 38510 C 3557.14 3.79702 -2.22518 0
M  V30 38511 H 3554.26 0.551602 -0.488778 0
M  V30 38512 H 3556.9 0.870144 -1.68904 0
M  V30 38513 H 3555.05 3.33203 -1.9977 0
M  V30 38514 H 3556.72 1.92181 -4.19361 0
M  V30 38515 H 3554.97 1.74392 -3.97203 0
M  V30 38516 H 3555.64 3.31734 -4.41199 0
M  V30 38517 H 3558.11 3.33731 -2.48521 0
M  V30 38518 H 3556.99 4.65325 -2.91143 0
M  V30 38519 H 3557.25 4.24872 -1.22213 0
M  V30 38520 N 3556.31 1.22876 0.986873 0
M  V30 38521 C 3557.54 1.08188 1.76008 0
M  V30 38522 C 3557.95 -0.370055 1.85546 0
M  V30 38523 O 3557.29 -1.26802 1.32917 0
M  V30 38524 C 3557.35 1.62537 3.20658 0
M  V30 38525 C 3557.02 3.11222 3.34649 0
M  V30 38526 C 3558.01 4.08587 3.21486 0
M  V30 38527 C 3555.7 3.508 3.59506 0
M  V30 38528 C 3557.69 5.43514 3.32973 0
M  V30 38529 C 3555.38 4.85874 3.70634 0
M  V30 38530 C 3556.38 5.8204 3.57377 0
M  V30 38531 O 3556.06 7.14662 3.68122 0
M  V30 38532 H 3555.8 0.379543 0.559395 0
M  V30 38533 H 3558.35 1.6306 1.24902 0
M  V30 38534 H 3556.58 1.02079 3.72984 0
M  V30 38535 H 3558.27 1.43422 3.79717 0
M  V30 38536 H 3559.04 3.79353 3.02186 0
M  V30 38537 H 3554.91 2.76467 3.68899 0
M  V30 38538 H 3558.46 6.18557 3.22542 0
M  V30 38539 H 3554.36 5.14787 3.89442 0
M  V30 38540 H 3555.12 7.22322 3.84958 0
M  V30 38541 N 3557.79 -1.18464 1.03942 0
M  V30 38542 C 3558.72 -2.24264 0.650221 0
M  V30 38543 C 3559.7 -1.66545 -0.345938 0
M  V30 38544 O 3560.88 -1.92877 -0.226314 0
M  V30 38545 C 3558.01 -3.47298 0.0111061 0
M  V30 38546 C 3556.97 -4.17759 0.930672 0
M  V30 38547 C 3556.29 -5.34472 0.156099 0
M  V30 38548 C 3557.59 -4.71389 2.24921 0
M  V30 38549 H 3559.29 -2.57075 1.53469 0
M  V30 38550 H 3556.83 -1.23569 0.739365 0
M  V30 38551 H 3558.79 -4.20516 -0.272885 0
M  V30 38552 H 3557.51 -3.13718 -0.908233 0
M  V30 38553 H 3556.17 -3.46437 1.19903 0
M  V30 38554 H 3555.82 -4.97139 -0.765607 0
M  V30 38555 H 3555.52 -5.8255 0.768709 0
M  V30 38556 H 3557.04 -6.1048 -0.120904 0
M  V30 38557 H 3558.45 -5.36307 2.02601 0
M  V30 38558 H 3556.85 -5.29996 2.81468 0
M  V30 38559 H 3557.92 -3.88879 2.89657 0
M  V30 38560 N 3559.26 -0.818716 -1.34665 0
M  V30 38561 C 3560.51 -0.404794 -1.98413 0
M  V30 38562 C 3560.84 1.03109 -1.64921 0
M  V30 38563 O 3560.09 1.73217 -0.910725 0
M  V30 38564 C 3560.39 -0.549121 -3.53156 0
M  V30 38565 C 3560.06 -1.9501 -4.06549 0
M  V30 38566 C 3558.72 -2.33336 -4.20842 0
M  V30 38567 C 3561.07 -2.86612 -4.35319 0
M  V30 38568 C 3558.4 -3.62607 -4.6123 0
M  V30 38569 C 3560.75 -4.15342 -4.77151 0
M  V30 38570 C 3559.42 -4.53651 -4.8965 0
M  V30 38571 H 3558.69 -0.148125 -0.726044 0
M  V30 38572 H 3561.33 -1.04185 -1.60679 0
M  V30 38573 H 3559.64 0.171341 -3.91425 0
M  V30 38574 H 3561.34 -0.209444 -4.00453 0
M  V30 38575 H 3557.93 -1.64238 -3.95884 0
M  V30 38576 H 3562.11 -2.58247 -4.23819 0
M  V30 38577 H 3557.37 -3.9212 -4.69097 0
M  V30 38578 H 3561.54 -4.86413 -4.98373 0
M  V30 38579 H 3559.17 -5.5387 -5.20703 0
M  V30 38580 N 3560.74 1.46803 -0.573299 0
M  V30 38581 C 3561.97 2.07317 -0.0587081 0
M  V30 38582 C 3562.39 1.42071 1.23278 0
M  V30 38583 O 3561.75 0.501219 1.74234 0
M  V30 38584 C 3561.8 3.60452 0.10344 0
M  V30 38585 O 3560.9 3.95684 1.16222 0
M  V30 38586 H 3560.24 0.661412 -0.058562 0
M  V30 38587 H 3562.77 1.88583 -0.793565 0
M  V30 38588 H 3562.78 4.06801 0.312587 0
M  V30 38589 H 3561.46 4.07334 -0.839755 0
M  V30 38590 H 3560.04 3.61058 0.932283 0
M  V30 38591 N 3562.22 0.31058 1.54509 0
M  V30 38592 C 3563.47 -0.296696 1.99506 0
M  V30 38593 C 3563.78 -1.54263 1.2026 0
M  V30 38594 O 3564.99 -2.22509 1.5557 0
M  V30 38595 C 3563.44 -0.579188 3.55209 0
M  V30 38596 C 3563.05 0.648952 4.43275 0
M  V30 38597 C 3564.8 -1.14713 4.08707 0
M  V30 38598 C 3562.7 0.339081 5.90427 0
M  V30 38599 H 3561.63 -0.114639 0.745234 0
M  V30 38600 H 3564.28 0.42078 1.7861 0
M  V30 38601 H 3562.67 -1.35651 3.72041 0
M  V30 38602 H 3563.84 1.42486 4.38217 0
M  V30 38603 H 3562.16 1.1362 4.00599 0
M  V30 38604 H 3564.75 -1.39337 5.16226 0
M  V30 38605 H 3565.1 -2.09243 3.59893 0
M  V30 38606 H 3565.63 -0.431293 3.95455 0
M  V30 38607 H 3562.37 1.2532 6.43409 0
M  V30 38608 H 3561.89 -0.39937 5.98469 0
M  V30 38609 H 3563.57 -0.0558559 6.46976 0
M  V30 38610 N 3563.7 -1.57553 0.0384871 0
M  V30 38611 C 3564.95 -1.9136 -0.637499 0
M  V30 38612 C 3565.26 -0.91747 -1.72748 0
M  V30 38613 O 3566.47 -1.14713 -2.46076 0
M  V30 38614 C 3564.92 -3.39825 -1.1852 0
M  V30 38615 C 3564.53 -4.47817 -0.128007 0
M  V30 38616 C 3566.28 -3.82686 -1.83716 0
M  V30 38617 C 3564.18 -5.87386 -0.687875 0
M  V30 38618 H 3563.11 -0.714148 -0.241885 0
M  V30 38619 H 3565.76 -1.83198 0.105314 0
M  V30 38620 H 3564.15 -3.4295 -1.97992 0
M  V30 38621 H 3565.32 -4.56264 0.644945 0
M  V30 38622 H 3563.63 -4.14218 0.425745 0
M  V30 38623 H 3566.23 -4.84321 -2.26577 0
M  V30 38624 H 3566.57 -3.18249 -2.68371 0
M  V30 38625 H 3567.11 -3.82023 -1.10919 0
M  V30 38626 H 3563.85 -6.55389 0.120757 0
M  V30 38627 H 3563.37 -5.82526 -1.4291 0
M  V30 38628 H 3565.05 -6.36246 -1.17472 0
M  V30 38629 N 3565.18 0.234767 -1.55842 0
M  V30 38630 C 3566.43 0.959186 -1.77888 0
M  V30 38631 C 3566.75 1.85389 -0.604653 0
M  V30 38632 O 3566.02 1.92198 0.379059 0
M  V30 38633 H 3564.6 0.357161 -0.656083 0
M  V30 38634 H 3567.26 0.249797 -1.93293 0
M  V30 38635 H 3566.35 1.57378 -2.69515 0
M  V30 38636 N 3566.66 1.49427 0.500936 0
M  V30 38637 C 3567.9 1.58917 1.25506 0
M  V30 38638 C 3568.23 0.275902 1.92533 0
M  V30 38639 O 3567.49 -0.73618 1.81325 0
M  V30 38640 C 3567.78 2.69762 2.34443 0
M  V30 38641 C 3567.45 4.11257 1.84873 0
M  V30 38642 C 3566.11 4.49764 1.71073 0
M  V30 38643 C 3568.46 4.99813 1.47771 0
M  V30 38644 C 3565.79 5.74598 1.18551 0
M  V30 38645 C 3568.14 6.25165 0.967008 0
M  V30 38646 C 3566.81 6.62501 0.815407 0
M  V30 38647 H 3566.08 0.581518 0.459258 0
M  V30 38648 H 3568.73 1.83257 0.555785 0
M  V30 38649 H 3567.03 2.39393 3.10159 0
M  V30 38650 H 3568.73 2.74313 2.92495 0
M  V30 38651 H 3565.32 3.80863 1.96573 0
M  V30 38652 H 3569.5 4.70719 1.5728 0
M  V30 38653 H 3564.76 6.02225 1.05525 0
M  V30 38654 H 3568.93 6.93162 0.670735 0
M  V30 38655 H 3566.56 7.59114 0.406241 0
M  V30 38656 N 3568.13 -0.751987 1.38502 0
M  V30 38657 C 3569.06 -1.8793 1.3858 0
M  V30 38658 C 3570.04 -1.68231 0.251483 0
M  V30 38659 O 3571.23 -1.88799 0.454803 0
M  V30 38660 C 3568.36 -3.25477 1.2117 0
M  V30 38661 C 3567.31 -3.59781 2.31823 0
M  V30 38662 C 3566.64 -4.96082 1.99517 0
M  V30 38663 C 3567.94 -3.64493 3.74088 0
M  V30 38664 H 3569.63 -1.88123 2.32917 0
M  V30 38665 H 3567.18 -0.903678 1.12114 0
M  V30 38666 H 3569.13 -4.03998 1.19849 0
M  V30 38667 H 3567.86 -3.25768 0.232957 0
M  V30 38668 H 3566.52 -2.8358 2.32332 0
M  V30 38669 H 3566.16 -4.92935 1.00122 0
M  V30 38670 H 3565.86 -5.20002 2.73626 0
M  V30 38671 H 3567.39 -5.7698 1.99817 0
M  V30 38672 H 3568.8 -4.33125 3.75601 0
M  V30 38673 H 3567.2 -3.99924 4.47416 0
M  V30 38674 H 3568.27 -2.64685 4.06288 0
M  V30 38675 N 3569.61 -1.23398 -0.980343 0
M  V30 38676 C 3570.86 -1.0661 -1.72164 0
M  V30 38677 C 3571.19 0.396995 -1.90405 0
M  V30 38678 O 3570.44 1.31024 -1.45366 0
M  V30 38679 C 3570.74 -1.73677 -3.12364 0
M  V30 38680 C 3570.41 -3.23596 -3.14001 0
M  V30 38681 C 3569.07 -3.64499 -3.14155 0
M  V30 38682 C 3571.42 -4.19495 -3.09312 0
M  V30 38683 C 3568.75 -4.99761 -3.07336 0
M  V30 38684 C 3571.1 -5.54748 -3.04035 0
M  V30 38685 C 3569.76 -5.95016 -3.02511 0
M  V30 38686 H 3569.03 -0.390115 -0.629993 0
M  V30 38687 H 3571.68 -1.53332 -1.14724 0
M  V30 38688 H 3569.99 -1.19315 -3.73191 0
M  V30 38689 H 3571.68 -1.58165 -3.6849 0
M  V30 38690 H 3568.27 -2.91034 -3.14639 0
M  V30 38691 H 3572.46 -3.88902 -3.08332 0
M  V30 38692 H 3567.71 -5.30174 -3.04509 0
M  V30 38693 H 3571.89 -6.28772 -2.99363 0
M  V30 38694 H 3569.51 -6.9979 -2.96982 0
M  V30 38695 N 3571.09 1.17911 -1.04569 0
M  V30 38696 C 3572.02 2.23916 -0.662105 0
M  V30 38697 C 3573 1.66726 0.337101 0
M  V30 38698 O 3574.19 1.92994 0.216082 0
M  V30 38699 C 3571.32 3.47287 -0.029524 0
M  V30 38700 C 3570.27 4.17259 -0.952814 0
M  V30 38701 C 3569.6 5.34382 -0.184441 0
M  V30 38702 C 3570.9 4.7019 -2.27418 0
M  V30 38703 H 3572.59 2.56257 -1.5483 0
M  V30 38704 H 3570.14 1.23176 -0.745908 0
M  V30 38705 H 3572.09 4.20654 0.25058 0
M  V30 38706 H 3570.81 3.14195 0.891583 0
M  V30 38707 H 3569.47 3.45797 -1.21738 0
M  V30 38708 H 3569.12 4.97538 0.739232 0
M  V30 38709 H 3568.82 5.82134 -0.799592 0
M  V30 38710 H 3570.34 6.10536 0.0885271 0
M  V30 38711 H 3571.76 5.35225 -2.05443 0
M  V30 38712 H 3570.15 5.28496 -2.84275 0
M  V30 38713 H 3571.22 3.87337 -2.91715 0
M  V30 38714 N 3572.57 0.825847 1.34229 0
M  V30 38715 C 3573.51 0.247764 2.29466 0
M  V30 38716 C 3574.48 -0.6291 1.53726 0
M  V30 38717 O 3575.67 -0.570124 1.82083 0
M  V30 38718 C 3572.81 -0.581952 3.40158 0
M  V30 38719 C 3571.92 0.317482 4.30832 0
M  V30 38720 C 3571.06 -0.522083 5.28628 0
M  V30 38721 C 3570.1 0.376555 6.10941 0
M  V30 38722 N 3569.23 -0.424109 7.00818 0
M  V30 38723 H 3574.07 1.06526 2.7831 0
M  V30 38724 H 3571.61 0.536812 1.36955 0
M  V30 38725 H 3573.57 -1.07836 4.03023 0
M  V30 38726 H 3572.2 -1.36453 2.92541 0
M  V30 38727 H 3571.25 0.932119 3.68803 0
M  V30 38728 H 3572.56 1.00835 4.88502 0
M  V30 38729 H 3571.72 -1.08284 5.96958 0
M  V30 38730 H 3570.46 -1.24644 4.71503 0
M  V30 38731 H 3569.46 0.949436 5.4154 0
M  V30 38732 H 3570.69 1.09907 6.70147 0
M  V30 38733 H 3568.63 -1.13209 6.46158 0
M  V30 38734 H 3568.55 0.208308 7.55713 0
M  V30 38735 H 3569.82 -0.967528 7.73472 0
M  V30 38736 N 3574.05 -1.46497 0.581077 0
M  V30 38737 C 3575.32 -1.956 -0.000755464 0
M  V30 38738 C 3575.7 -1.52374 -1.46101 0
M  V30 38739 O 3575.05 -0.773661 -2.15004 0
M  V30 38740 C 3575.26 -3.48588 0.169595 0
M  V30 38741 C 3576.61 -4.24584 0.0365736 0
M  V30 38742 O 3577.63 -3.56064 0.0983478 0
M  V30 38743 O 3576.49 -5.46408 -0.100475 0
M  V30 38744 H 3573.59 -0.825442 -0.0507345 0
M  V30 38745 H 3576.13 -1.56788 0.64928 0
M  V30 38746 H 3574.9 -3.72932 1.1848 0
M  V30 38747 H 3574.53 -3.94225 -0.516948 0
M  V30 38748 N 3575.52 -0.31877 -1.54343 0
M  V30 38749 C 3576.8 0.339265 -1.92635 0
M  V30 38750 C 3577.18 1.70267 -1.24789 0
M  V30 38751 O 3576.53 2.25149 -0.389884 0
M  V30 38752 C 3576.74 0.436257 -3.46263 0
M  V30 38753 C 3578.09 0.698797 -4.1881 0
M  V30 38754 O 3579.11 0.519369 -3.52393 0
M  V30 38755 O 3577.97 1.04461 -5.36423 0
M  V30 38756 H 3575.06 0.192826 -0.804206 0
M  V30 38757 H 3577.61 -0.368133 -1.65659 0
M  V30 38758 H 3576.38 -0.521495 -3.87809 0
M  V30 38759 H 3576 1.19142 -3.79329 0
M  V30 38760 N 3577 1.5753 -0.0468419 0
M  V30 38761 C 3578.25 1.92519 0.627905 0
M  V30 38762 C 3578.58 0.924831 1.71106 0
M  V30 38763 O 3577.83 -0.0635468 1.95597 0
M  V30 38764 C 3578.13 3.34202 1.26663 0
M  V30 38765 C 3577.8 4.49819 0.312105 0
M  V30 38766 C 3576.46 4.81175 0.0494356 0
M  V30 38767 C 3578.81 5.20075 -0.34232 0
M  V30 38768 C 3576.14 5.80136 -0.875166 0
M  V30 38769 C 3578.49 6.20024 -1.25509 0
M  V30 38770 C 3577.15 6.49812 -1.52647 0
M  V30 38771 H 3576.42 0.704477 0.229767 0
M  V30 38772 H 3579.07 1.9117 -0.112396 0
M  V30 38773 H 3577.38 3.31898 2.0821 0
M  V30 38774 H 3579.07 3.58553 1.79557 0
M  V30 38775 H 3575.66 4.25348 0.527013 0
M  V30 38776 H 3579.85 4.96066 -0.152471 0
M  V30 38777 H 3575.1 6.01552 -1.09294 0
M  V30 38778 H 3579.28 6.73576 -1.76827 0
M  V30 38779 H 3576.9 7.26308 -2.24456 0
M  V30 38780 N 3578.48 -0.226499 1.55964 0
M  V30 38781 C 3579.71 -0.968641 1.82825 0
M  V30 38782 C 3580.12 -1.78144 0.625313 0
M  V30 38783 O 3579.48 -1.77923 -0.406139 0
M  V30 38784 C 3579.53 -1.89018 3.08147 0
M  V30 38785 O 3579.25 -1.11025 4.23798 0
M  V30 38786 C 3580.75 -2.74663 3.47958 0
M  V30 38787 H 3577.97 -0.284115 0.607881 0
M  V30 38788 H 3580.52 -0.243222 2.03048 0
M  V30 38789 H 3578.67 -2.56962 2.89913 0
M  V30 38790 H 3579.09 -1.73537 4.9496 0
M  V30 38791 H 3580.56 -3.35036 4.38696 0
M  V30 38792 H 3581.04 -3.46809 2.69482 0
M  V30 38793 H 3581.64 -2.12141 3.68614 0
M  V30 38794 N 3579.96 -1.4969 -0.493005 0
M  V30 38795 C 3580.89 -1.61561 -1.61162 0
M  V30 38796 C 3581.87 -0.46439 -1.55827 0
M  V30 38797 O 3583.05 -0.681004 -1.75769 0
M  V30 38798 C 3580.18 -1.57796 -2.99697 0
M  V30 38799 C 3579.23 -2.78213 -3.23265 0
M  V30 38800 S 3580.06 -4.39791 -3.05523 0
M  V30 38801 C 3581.22 -4.38683 -4.46439 0
M  V30 38802 H 3581.45 -2.56187 -1.50849 0
M  V30 38803 H 3578.98 -1.38681 -0.678753 0
M  V30 38804 H 3580.94 -1.56309 -3.79576 0
M  V30 38805 H 3579.6 -0.644433 -3.07418 0
M  V30 38806 H 3578.79 -2.7182 -4.24417 0
M  V30 38807 H 3578.4 -2.77153 -2.51122 0
M  V30 38808 H 3580.69 -4.10895 -5.38676 0
M  V30 38809 H 3581.63 -5.4014 -4.5788 0
M  V30 38810 H 3582.04 -3.6866 -4.27493 0
M  V30 38811 N 3581.44 0.744631 -1.38899 0
M  V30 38812 C 3582.35 1.88913 -1.39101 0
M  V30 38813 C 3583.36 1.71617 -0.286986 0
M  V30 38814 O 3584.54 1.94386 -0.526886 0
M  V30 38815 C 3581.6 3.24391 -1.22358 0
M  V30 38816 C 3580.66 3.54149 -2.42646 0
M  V30 38817 C 3579.9 4.83163 -2.26692 0
M  V30 38818 O 3580.12 5.56189 -1.26532 0
M  V30 38819 O 3579.05 5.12602 -3.15473 0
M  V30 38820 H 3582.88 1.91697 -2.35555 0
M  V30 38821 H 3580.47 0.891137 -1.19913 0
M  V30 38822 H 3582.35 4.05372 -1.15116 0
M  V30 38823 H 3581.02 3.22399 -0.289943 0
M  V30 38824 H 3579.93 2.73293 -2.55464 0
M  V30 38825 H 3581.26 3.60911 -3.3467 0
M  V30 38826 N 3582.91 1.23916 0.973785 0
M  V30 38827 C 3584.16 1.07681 1.7185 0
M  V30 38828 C 3584.49 -0.384392 1.90358 0
M  V30 38829 O 3583.77 -1.28433 1.46066 0
M  V30 38830 C 3584.05 1.81031 3.11287 0
M  V30 38831 C 3583.9 3.34865 3.00309 0
M  V30 38832 C 3585.22 1.57812 4.10833 0
M  V30 38833 H 3582.34 0.392575 0.623742 0
M  V30 38834 H 3584.98 1.52506 1.13322 0
M  V30 38835 H 3583.13 1.42929 3.61253 0
M  V30 38836 H 3584.81 3.82529 2.57817 0
M  V30 38837 H 3583.05 3.63558 2.36661 0
M  V30 38838 H 3583.72 3.81383 3.99063 0
M  V30 38839 H 3586.2 1.90945 3.69701 0
M  V30 38840 H 3585.07 2.116 5.06475 0
M  V30 38841 H 3585.33 0.514971 4.3909 0
M  V30 38842 N 3584.39 -1.17355 1.05193 0
M  V30 38843 C 3585.67 -1.83552 0.675858 0
M  V30 38844 C 3586.05 -1.93503 -0.843778 0
M  V30 38845 O 3585.4 -1.46959 -1.74972 0
M  V30 38846 C 3585.61 -3.21205 1.36487 0
M  V30 38847 C 3586.96 -3.97111 1.50292 0
M  V30 38848 O 3587.98 -3.30684 1.32388 0
M  V30 38849 O 3586.84 -5.16155 1.79571 0
M  V30 38850 H 3583.93 -0.79204 0.237912 0
M  V30 38851 H 3586.48 -1.24652 1.15152 0
M  V30 38852 H 3585.25 -3.08931 2.40161 0
M  V30 38853 H 3584.87 -3.87772 0.878559 0
M  V30 38854 N 3585.87 -0.832954 -1.3379 0
M  V30 38855 C 3587.29 -0.519981 -1.50892 0
M  V30 38856 C 3587.49 0.953888 -1.77491 0
M  V30 38857 O 3586.54 1.73795 -1.83171 0
M  V30 38858 C 3587.86 -1.3882 -2.66739 0
M  V30 38859 C 3589.4 -1.38636 -2.80623 0
M  V30 38860 C 3589.88 -2.23929 -3.99524 0
M  V30 38861 N 3591.37 -2.21607 -4.06749 0
M  V30 38862 C 3592.1 -2.84344 -4.97932 0
M  V30 38863 N 3591.6 -3.56111 -5.9427 0
M  V30 38864 N 3593.39 -2.73845 -4.90882 0
M  V30 38865 H 3585.54 -1.78712 -1.14785 0
M  V30 38866 H 3587.81 -0.762118 -0.563809 0
M  V30 38867 H 3587.51 -2.4353 -2.53744 0
M  V30 38868 H 3587.39 -1.06002 -3.61999 0
M  V30 38869 H 3589.77 -0.347002 -2.93053 0
M  V30 38870 H 3589.86 -1.75457 -1.86141 0
M  V30 38871 H 3589.5 -3.2792 -3.87854 0
M  V30 38872 H 3589.43 -1.84453 -4.93239 0
M  V30 38873 H 3591.92 -1.69412 -3.37799 0
M  V30 38874 H 3592.23 -4.01202 -6.60497 0
M  V30 38875 H 3590.58 -3.60218 -5.94364 0
M  V30 38876 H 3593.77 -2.17346 -4.14582 0
M  V30 38877 H 3593.94 -3.23024 -5.61747 0
M  V30 38878 N 3587.35 1.46186 -0.588837 0
M  V30 38879 C 3588.28 2.33146 0.128554 0
M  V30 38880 C 3589.26 1.45714 0.877582 0
M  V30 38881 O 3590.44 1.7452 0.851836 0
M  V30 38882 C 3587.57 3.28098 1.13881 0
M  V30 38883 C 3586.53 4.2502 0.504221 0
M  V30 38884 C 3585.85 5.09525 1.62138 0
M  V30 38885 C 3587.15 5.19262 -0.562557 0
M  V30 38886 H 3588.85 2.93377 -0.597507 0
M  V30 38887 H 3586.39 1.41074 -0.288789 0
M  V30 38888 H 3588.35 3.87792 1.64909 0
M  V30 38889 H 3587.07 2.65987 1.89522 0
M  V30 38890 H 3585.73 3.66597 0.0149681 0
M  V30 38891 H 3585.38 4.43794 2.36762 0
M  V30 38892 H 3585.08 5.75166 1.20239 0
M  V30 38893 H 3586.6 5.72084 2.13431 0
M  V30 38894 H 3588.02 5.73136 -0.137103 0
M  V30 38895 H 3586.41 5.93279 -0.902219 0
M  V30 38896 H 3587.48 4.62823 -1.44648 0
M  V30 38897 N 3588.83 0.32695 1.54171 0
M  V30 38898 C 3589.77 -0.537461 2.24455 0
M  V30 38899 C 3590.74 -1.10894 1.2366 0
M  V30 38900 O 3591.93 -1.14865 1.5235 0
M  V30 38901 C 3589.07 -1.6908 3.00842 0
M  V30 38902 C 3588.18 -1.14823 4.16461 0
M  V30 38903 C 3587.32 -2.26752 4.80372 0
M  V30 38904 C 3586.36 -1.69761 5.88088 0
M  V30 38905 N 3585.49 -2.75367 6.45846 0
M  V30 38906 H 3590.33 0.0684546 2.97921 0
M  V30 38907 H 3587.87 0.0455545 1.47029 0
M  V30 38908 H 3589.83 -2.36953 3.43379 0
M  V30 38909 H 3588.46 -2.26795 2.29704 0
M  V30 38910 H 3587.51 -0.360938 3.78684 0
M  V30 38911 H 3588.82 -0.691233 4.93987 0
M  V30 38912 H 3587.98 -3.02524 5.25894 0
M  V30 38913 H 3586.71 -2.75789 4.02233 0
M  V30 38914 H 3585.72 -0.92489 5.41965 0
M  V30 38915 H 3586.94 -1.21597 6.68125 0
M  V30 38916 H 3584.89 -3.23689 5.7058 0
M  V30 38917 H 3584.81 -2.3424 7.18796 0
M  V30 38918 H 3586.08 -3.50957 6.96024 0
M  V30 38919 N 3590.3 -1.57503 0.0551955 0
M  V30 38920 C 3591.25 -2.12953 -0.935628 0
M  V30 38921 C 3592.25 -1.06231 -1.31952 0
M  V30 38922 O 3593.45 -1.24634 -1.29871 0
M  V30 38923 H 3589.83 -0.680703 -0.319606 0
M  V30 38924 H 3591.8 -2.95095 -0.442885 0
M  V30 38925 C 3590.55 -2.69272 -2.19972 0
M  V30 38926 H 3589.87 -3.51055 -1.91313 0
M  V30 38927 H 3591.31 -3.11686 -2.87451 0
M  V30 38928 C 3589.77 -1.63238 -2.94712 0
M  V30 38929 O 3590.3 -1.04754 -3.87801 0
M  V30 38930 N 3588.51 -1.34663 -2.57515 0
M  V30 38931 H 3588.05 -1.82411 -1.8189 0
M  V30 38932 H 3588.01 -0.63948 -3.07828 0
M  V30 38933 N 3591.78 0.218225 -1.56082 0
M  V30 38934 C 3593.2 0.568072 -1.49148 0
M  V30 38935 C 3593.4 1.86985 -0.750926 0
M  V30 38936 O 3592.45 2.50807 -0.291948 0
M  V30 38937 C 3593.77 0.644221 -2.93718 0
M  V30 38938 C 3595.32 0.734623 -3.04257 0
M  V30 38939 C 3595.79 0.842088 -4.50192 0
M  V30 38940 N 3597.28 0.906222 -4.54249 0
M  V30 38941 C 3598.02 1.00914 -5.6445 0
M  V30 38942 N 3597.51 1.0758 -6.84396 0
M  V30 38943 N 3599.31 1.04454 -5.5231 0
M  V30 38944 H 3591.46 -0.635971 -2.02655 0
M  V30 38945 H 3593.72 -0.223579 -0.921258 0
M  V30 38946 H 3593.43 -0.242782 -3.50861 0
M  V30 38947 H 3593.3 1.50672 -3.458 0
M  V30 38948 H 3595.69 1.61207 -2.47177 0
M  V30 38949 H 3595.77 -0.153608 -2.55338 0
M  V30 38950 H 3595.41 -0.0309107 -5.07891 0
M  V30 38951 H 3595.34 1.74578 -4.9682 0
M  V30 38952 H 3597.83 0.86489 -3.6787 0
M  V30 38953 H 3598.15 1.1542 -7.64132 0
M  V30 38954 H 3596.49 1.04488 -6.87101 0
M  V30 38955 H 3599.68 0.989137 -4.5753 0
M  V30 38956 H 3599.85 1.12129 -6.38225 0
M  V30 38957 N 3593.26 1.4995 0.485059 0
M  V30 38958 C 3594.49 1.63973 1.26176 0
M  V30 38959 C 3594.9 0.317441 1.86112 0
M  V30 38960 O 3594.26 -0.699008 1.68583 0
M  V30 38961 C 3594.31 2.7205 2.38057 0
M  V30 38962 O 3594.03 3.99152 1.80581 0
M  V30 38963 C 3595.53 2.96922 3.29169 0
M  V30 38964 H 3592.75 0.551571 0.382113 0
M  V30 38965 H 3595.3 1.96086 0.580573 0
M  V30 38966 H 3593.45 2.42671 3.01976 0
M  V30 38967 H 3593.87 4.58811 2.54151 0
M  V30 38968 H 3595.34 3.7624 4.03915 0
M  V30 38969 H 3595.82 2.0745 3.87119 0
M  V30 38970 H 3596.42 3.27779 2.71 0
M  V30 38971 N 3594.74 -0.737255 1.39292 0
M  V30 38972 C 3596.15 -1.31541 1.32491 0
M  V30 38973 C 3596.5 -1.96196 -0.0117817 0
M  V30 38974 O 3595.63 -1.96155 -0.913904 0
M  V30 38975 C 3596.22 -2.39185 2.3995 0
M  V30 38976 C 3594.78 -2.9268 2.36676 0
M  V30 38977 C 3593.93 -1.66225 2.21956 0
M  V30 38978 H 3596.88 -0.534928 1.49413 0
M  V30 38979 H 3596.9 -3.1952 2.06608 0
M  V30 38980 H 3596.41 -1.92098 3.37224 0
M  V30 38981 H 3594.51 -3.44052 1.43034 0
M  V30 38982 H 3594.63 -3.45948 3.31447 0
M  V30 38983 H 3592.99 -1.90475 1.6909 0
M  V30 38984 H 3593.77 -1.21193 3.21196 0
M  V30 38985 N 3596.22 -1.24431 -0.967199 0
M  V30 38986 C 3597.46 -1.08591 -1.71277 0
M  V30 38987 C 3597.8 0.374291 -1.90559 0
M  V30 38988 O 3597.07 1.27657 -1.46745 0
M  V30 38989 C 3597.35 -1.8268 -3.10323 0
M  V30 38990 C 3597.21 -3.36453 -2.98529 0
M  V30 38991 C 3598.53 -1.59988 -4.0999 0
M  V30 38992 H 3595.65 -0.395877 -0.621651 0
M  V30 38993 H 3598.29 -1.53105 -1.12512 0
M  V30 38994 H 3596.44 -1.44842 -3.6049 0
M  V30 38995 H 3598.11 -3.83891 -2.55784 0
M  V30 38996 H 3596.35 -3.64808 -2.34729 0
M  V30 38997 H 3597.02 -3.83494 -3.97035 0
M  V30 38998 H 3599.5 -1.92903 -3.68684 0
M  V30 38999 H 3598.38 -2.14283 -5.05345 0
M  V30 39000 H 3598.64 -0.53825 -4.38811 0
M  V30 39001 N 3597.7 1.16795 -1.05814 0
M  V30 39002 C 3598.92 1.91118 -0.792553 0
M  V30 39003 C 3599.34 1.77166 0.652518 0
M  V30 39004 O 3598.7 1.11302 1.44631 0
M  V30 39005 C 3598.75 3.41982 -1.17178 0
M  V30 39006 O 3598.47 3.55512 -2.56014 0
M  V30 39007 C 3599.97 4.33365 -0.933239 0
M  V30 39008 H 3597.19 0.606197 -0.287691 0
M  V30 39009 H 3599.73 1.48073 -1.41049 0
M  V30 39010 H 3597.89 3.82749 -0.598481 0
M  V30 39011 H 3598.3 4.49028 -2.71061 0
M  V30 39012 H 3599.78 5.37701 -1.24826 0
M  V30 39013 H 3600.25 4.39004 0.131268 0
M  V30 39014 H 3600.86 3.9832 -1.49069 0
M  V30 39015 N 3599.17 0.840037 1.33346 0
M  V30 39016 C 3600.42 0.435447 1.97353 0
M  V30 39017 C 3600.74 -1.00897 1.66867 0
M  V30 39018 O 3600.01 -1.70301 0.968216 0
M  V30 39019 H 3598.59 0.15803 0.730093 0
M  V30 39020 H 3601.25 1.07325 1.62688 0
M  V30 39021 H 3600.35 0.568464 3.06879 0
M  V30 39022 N 3600.65 -1.45872 0.596582 0
M  V30 39023 C 3601.88 -2.07197 0.091683 0
M  V30 39024 C 3602.3 -1.44015 -1.21002 0
M  V30 39025 O 3601.66 -0.528875 -1.73415 0
M  V30 39026 C 3601.71 -3.60571 -0.0460823 0
M  V30 39027 O 3600.81 -3.97483 -1.09912 0
M  V30 39028 H 3600.15 -0.660397 0.0690771 0
M  V30 39029 H 3602.68 -1.87297 0.823467 0
M  V30 39030 H 3602.69 -4.07247 -0.247828 0
M  V30 39031 H 3601.37 -4.05946 0.904452 0
M  V30 39032 H 3599.94 -3.62495 -0.874724 0
M  V30 39033 N 3602.13 -0.335122 -1.53996 0
M  V30 39034 C 3603.08 0.541349 -2.2148 0
M  V30 39035 C 3604.06 1.07266 -1.19928 0
M  V30 39036 O 3605.26 1.00776 -1.4551 0
M  V30 39037 C 3602.38 1.69602 -2.9848 0
M  V30 39038 C 3601.47 1.17905 -4.07381 0
M  V30 39039 N 3601.86 0.382643 -5.04351 0
M  V30 39040 C 3600.16 1.45672 -4.2154 0
M  V30 39041 C 3600.86 0.103091 -5.81609 0
M  V30 39042 N 3599.84 0.692418 -5.39172 0
M  V30 39043 H 3603.64 -0.0742801 -2.93806 0
M  V30 39044 H 3601.15 -0.141557 -1.61782 0
M  V30 39045 H 3603.15 2.33581 -3.4532 0
M  V30 39046 H 3601.81 2.31501 -2.27678 0
M  V30 39047 H 3602.82 0.0244622 -5.17894 0
M  V30 39048 H 3599.5 2.08072 -3.61956 0
M  V30 39049 H 3600.89 -0.5388 -6.69736 0
M  V30 39050 N 3603.61 1.57472 -0.0635475 0
M  V30 39051 C 3604.54 2.09218 0.935983 0
M  V30 39052 C 3605.55 1.02257 1.26678 0
M  V30 39053 O 3606.74 1.29792 1.22541 0
M  V30 39054 C 3603.84 2.53066 2.25412 0
M  V30 39055 C 3603.01 3.83504 2.1034 0
M  V30 39056 C 3602.07 4.13534 3.25386 0
M  V30 39057 O 3601.1 4.83263 3.00742 0
M  V30 39058 N 3602.3 3.66425 4.50237 0
M  V30 39059 H 3605.07 2.95597 0.494236 0
M  V30 39060 H 3602.63 1.61437 0.122388 0
M  V30 39061 H 3604.62 2.70223 3.01267 0
M  V30 39062 H 3603.19 1.71869 2.61113 0
M  V30 39063 H 3602.41 3.75809 1.19002 0
M  V30 39064 H 3603.7 4.689 1.97511 0
M  V30 39065 H 3603.1 3.10078 4.73147 0
M  V30 39066 H 3601.65 3.88797 5.23145 0
M  V30 39067 N 3605.09 -0.209945 1.56195 0
M  V30 39068 C 3606.33 -0.933988 1.80013 0
M  V30 39069 C 3606.66 -1.8352 0.635141 0
M  V30 39070 O 3605.94 -1.91043 -0.365066 0
M  V30 39071 C 3606.22 -1.76299 3.13992 0
M  V30 39072 C 3606.08 -0.887489 4.40958 0
M  V30 39073 C 3607.39 -2.73851 3.44519 0
M  V30 39074 H 3604.51 -0.338114 0.654865 0
M  V30 39075 H 3607.16 -0.202177 1.88921 0
M  V30 39076 H 3605.31 -2.3869 3.06528 0
M  V30 39077 H 3606.98 -0.279426 4.60453 0
M  V30 39078 H 3605.22 -0.193457 4.33368 0
M  V30 39079 H 3605.89 -1.50218 5.31167 0
M  V30 39080 H 3608.37 -2.21594 3.52186 0
M  V30 39081 H 3607.24 -3.28949 4.39413 0
M  V30 39082 H 3607.5 -3.52166 2.67266 0
M  V30 39083 N 3606.56 -1.50205 -0.4771 0
M  V30 39084 C 3607.97 -1.5382 -1.05812 0
M  V30 39085 C 3608.33 -0.338203 -1.93263 0
M  V30 39086 O 3607.45 0.54954 -2.09306 0
M  V30 39087 C 3608.05 -2.7875 -1.92572 0
M  V30 39088 C 3606.6 -2.85066 -2.45794 0
M  V30 39089 C 3605.75 -2.48036 -1.23989 0
M  V30 39090 H 3608.7 -1.56556 -0.259971 0
M  V30 39091 H 3608.72 -2.60265 -2.77565 0
M  V30 39092 H 3608.24 -3.6607 -1.28897 0
M  V30 39093 H 3606.34 -2.02083 -3.13039 0
M  V30 39094 H 3606.45 -3.87815 -2.81312 0
M  V30 39095 H 3604.81 -2.00341 -1.57276 0
M  V30 39096 H 3605.6 -3.37658 -0.619858 0
M  V30 39097 N 3608.04 0.729857 -1.39681 0
M  V30 39098 C 3609.27 1.51907 -1.4047 0
M  V30 39099 C 3609.69 1.888 -0.000563129 0
M  V30 39100 O 3609.04 1.54459 0.972045 0
M  V30 39101 C 3609.09 2.80341 -2.28235 0
M  V30 39102 O 3608.81 2.45014 -3.6318 0
M  V30 39103 C 3610.32 3.74335 -2.37461 0
M  V30 39104 H 3607.54 0.469269 -0.479612 0
M  V30 39105 H 3610.08 0.901451 -1.8356 0
M  V30 39106 H 3608.23 3.38423 -1.88544 0
M  V30 39107 H 3608.65 3.27553 -4.09645 0
M  V30 39108 H 3610.12 4.61334 -3.03108 0
M  V30 39109 H 3610.6 4.16446 -1.39532 0
M  V30 39110 H 3611.21 3.22171 -2.77643 0
M  V30 39111 N 3609.52 1.24942 0.960587 0
M  V30 39112 C 3610.45 0.991265 2.05546 0
M  V30 39113 C 3611.43 -0.0774421 1.62415 0
M  V30 39114 O 3612.62 0.0609778 1.88401 0
M  V30 39115 C 3609.74 0.497286 3.35029 0
M  V30 39116 C 3608.79 1.55562 3.97118 0
M  V30 39117 S 3609.62 3.13908 4.33846 0
M  V30 39118 C 3610.78 2.6623 5.66456 0
M  V30 39119 H 3611.01 1.91834 2.27128 0
M  V30 39120 H 3608.54 1.08406 1.09944 0
M  V30 39121 H 3610.5 0.218917 4.09916 0
M  V30 39122 H 3609.16 -0.409191 3.11423 0
M  V30 39123 H 3608.36 1.16056 4.90456 0
M  V30 39124 H 3607.96 1.78436 3.28689 0
M  V30 39125 H 3610.25 2.09485 6.443 0
M  V30 39126 H 3611.19 3.58185 6.10827 0
M  V30 39127 H 3611.6 2.06422 5.25405 0
M  V30 39128 N 3611 -1.16233 1.06432 0
M  V30 39129 C 3612.23 -1.90695 0.802677 0
M  V30 39130 C 3612.64 -1.77509 -0.643113 0
M  V30 39131 O 3612 -1.12068 -1.44038 0
M  V30 39132 C 3612.05 -3.41355 1.1899 0
M  V30 39133 O 3611.77 -3.54149 2.57896 0
M  V30 39134 C 3613.27 -4.32864 0.956208 0
M  V30 39135 H 3610.49 -0.604663 0.290901 0
M  V30 39136 H 3613.04 -1.47323 1.41832 0
M  V30 39137 H 3611.19 -3.82426 0.61877 0
M  V30 39138 H 3611.6 -4.47584 2.73439 0
M  V30 39139 H 3613.08 -5.37031 1.27676 0
M  V30 39140 H 3613.56 -4.39067 -0.107984 0
M  V30 39141 H 3614.16 -3.97524 1.51179 0
M  V30 39142 N 3612.48 -0.847097 -1.32899 0
M  V30 39143 C 3613.41 -0.301462 -2.31546 0
M  V30 39144 C 3614.39 0.595289 -1.59343 0
M  V30 39145 O 3615.57 0.517118 -1.87188 0
M  V30 39146 C 3612.7 0.517394 -3.43424 0
M  V30 39147 C 3611.66 -0.28427 -4.27055 0
M  V30 39148 C 3610.98 0.658851 -5.30625 0
M  V30 39149 C 3612.28 -1.50587 -5.00121 0
M  V30 39150 H 3613.98 -1.12572 -2.77431 0
M  V30 39151 H 3611.52 -0.542763 -1.33379 0
M  V30 39152 H 3613.48 0.90947 -4.11469 0
M  V30 39153 H 3612.2 1.37494 -2.96248 0
M  V30 39154 H 3610.86 -0.658008 -3.60646 0
M  V30 39155 H 3610.51 1.51303 -4.79704 0
M  V30 39156 H 3610.21 0.126517 -5.87464 0
M  V30 39157 H 3611.73 1.04827 -6.01534 0
M  V30 39158 H 3613.14 -1.1865 -5.60888 0
M  V30 39159 H 3611.54 -1.97559 -5.66648 0
M  V30 39160 H 3612.61 -2.27122 -4.2842 0
M  V30 39161 N 3613.95 1.45554 -0.604309 0
M  V30 39162 C 3615.18 2.06636 -0.104489 0
M  V30 39163 C 3615.6 1.44951 1.20974 0
M  V30 39164 O 3614.95 0.562499 1.73615 0
M  V30 39165 C 3615.01 3.61472 0.0451011 0
M  V30 39166 O 3614.73 4.20853 -1.21713 0
M  V30 39167 C 3616.23 4.39532 0.576762 0
M  V30 39168 H 3613.45 0.667613 -0.0673378 0
M  V30 39169 H 3615.99 1.8685 -0.831112 0
M  V30 39170 H 3614.15 3.80612 0.722037 0
M  V30 39171 H 3614.56 5.1399 -1.04471 0
M  V30 39172 H 3616.03 5.48387 0.630531 0
M  V30 39173 H 3616.51 4.09084 1.59835 0
M  V30 39174 H 3617.12 4.25249 -0.0660191 0
M  V30 39175 N 3615.43 0.343284 1.53816 0
M  V30 39176 C 3616.66 -0.254708 2.05326 0
M  V30 39177 C 3617.08 -1.44235 1.21827 0
M  V30 39178 O 3616.43 -1.8073 0.253539 0
M  V30 39179 C 3616.48 -0.670012 3.55237 0
M  V30 39180 O 3616.2 0.470399 4.35567 0
M  V30 39181 C 3617.71 -1.32875 4.22917 0
M  V30 39182 H 3614.93 -0.0492206 0.669192 0
M  V30 39183 H 3617.47 0.495194 1.98414 0
M  V30 39184 H 3615.62 -1.36986 3.62372 0
M  V30 39185 H 3616.04 0.139395 5.24315 0
M  V30 39186 H 3617.51 -1.5701 5.29199 0
M  V30 39187 H 3617.99 -2.28222 3.75248 0
M  V30 39188 H 3618.6 -0.670946 4.19974 0
M  V30 39189 N 3616.91 -1.57436 0.0718977 0
M  V30 39190 C 3617.84 -2.08333 -0.931267 0
M  V30 39191 C 3618.82 -0.98847 -1.29105 0
M  V30 39192 O 3620.01 -1.26186 -1.40033 0
M  V30 39193 C 3617.13 -2.54108 -2.23935 0
M  V30 39194 C 3616.18 -3.7503 -2.03113 0
M  V30 39195 S 3617.01 -5.1972 -1.29039 0
M  V30 39196 C 3618.17 -5.68827 -2.61126 0
M  V30 39197 H 3618.4 -2.93096 -0.498184 0
M  V30 39198 H 3615.93 -1.53756 -0.140869 0
M  V30 39199 H 3617.89 -2.81141 -2.99115 0
M  V30 39200 H 3616.55 -1.69613 -2.64368 0
M  V30 39201 H 3615.75 -4.05048 -2.9992 0
M  V30 39202 H 3615.35 -3.4837 -1.36068 0
M  V30 39203 H 3617.64 -5.75678 -3.57214 0
M  V30 39204 H 3618.58 -6.67715 -2.35717 0
M  V30 39205 H 3618.99 -4.96645 -2.68336 0
M  V30 39206 N 3618.39 0.201658 -1.56305 0
M  V30 39207 C 3619.32 1.27777 -1.89072 0
M  V30 39208 C 3620.3 1.44264 -0.750116 0
M  V30 39209 O 3621.48 1.59759 -1.00047 0
M  V30 39210 C 3618.61 2.64534 -2.11518 0
M  V30 39211 C 3617.66 2.64953 -3.34218 0
M  V30 39212 S 3618.49 2.17038 -4.89545 0
M  V30 39213 C 3619.65 3.55632 -5.1505 0
M  V30 39214 H 3619.88 0.997922 -2.80051 0
M  V30 39215 H 3617.41 0.404846 -1.48998 0
M  V30 39216 H 3619.37 3.43258 -2.25132 0
M  V30 39217 H 3618.03 2.89733 -1.213 0
M  V30 39218 H 3617.22 3.65495 -3.4703 0
M  V30 39219 H 3616.83 1.94306 -3.19564 0
M  V30 39220 H 3619.12 4.51454 -5.05168 0
M  V30 39221 H 3620.06 3.4772 -6.16844 0
M  V30 39222 H 3620.47 3.5024 -4.4271 0
M  V30 39223 N 3619.87 1.50456 0.469128 0
M  V30 39224 C 3620.78 1.72252 1.59268 0
M  V30 39225 C 3621.79 0.605697 1.63117 0
M  V30 39226 O 3622.97 0.884254 1.8095 0
M  V30 39227 C 3620.03 1.81377 2.95471 0
M  V30 39228 C 3619.09 3.05119 3.01994 0
M  V30 39229 C 3618.33 3.13799 4.31701 0
M  V30 39230 O 3618.55 2.2922 5.22316 0
M  V30 39231 O 3617.48 4.0654 4.43857 0
M  V30 39232 H 3621.31 2.67498 1.438 0
M  V30 39233 H 3618.9 1.34575 0.648831 0
M  V30 39234 H 3620.78 1.89547 3.76364 0
M  V30 39235 H 3619.45 0.893148 3.11134 0
M  V30 39236 H 3618.36 3.02448 2.20173 0
M  V30 39237 H 3619.69 3.96766 2.91269 0
M  V30 39238 N 3621.34 -0.722439 1.40066 0
M  V30 39239 C 3622.31 -1.81822 1.39547 0
M  V30 39240 C 3623.31 -1.58156 0.290413 0
M  V30 39241 O 3624.5 -1.65324 0.54897 0
M  V30 39242 C 3621.63 -3.19809 1.18046 0
M  V30 39243 H 3622.82 -1.83683 2.37067 0
M  V30 39244 H 3620.38 -0.927382 1.25815 0
M  V30 39245 H 3621.11 -3.23602 0.212593 0
M  V30 39246 H 3620.9 -3.38386 1.98085 0
M  V30 39247 H 3622.39 -3.99851 1.20454 0
M  V30 39248 N 3622.82 -1.2545 -0.953947 0
M  V30 39249 C 3624.06 -1.11444 -1.71346 0
M  V30 39250 C 3624.43 0.338715 -1.88989 0
M  V30 39251 O 3625.63 0.600606 -2.62004 0
M  V30 39252 C 3623.9 -1.84872 -3.05871 0
M  V30 39253 S 3625.46 -1.86766 -3.97069 0
M  V30 39254 H 3622.28 -0.39832 -0.58895 0
M  V30 39255 H 3624.88 -1.58984 -1.13773 0
M  V30 39256 H 3623.58 -2.89691 -2.90701 0
M  V30 39257 H 3623.11 -1.37722 -3.68505 0
M  V30 39258 H 3625.13 -0.945195 -4.87114 0
M  V30 39259 N 3624.3 1.15667 -1.07047 0
M  V30 39260 C 3625.26 2.18503 -0.692019 0
M  V30 39261 C 3626.26 1.58582 0.266157 0
M  V30 39262 O 3627.45 1.74135 0.047526 0
M  V30 39263 C 3624.59 3.40894 -0.0194796 0
M  V30 39264 H 3625.78 2.53498 -1.60245 0
M  V30 39265 H 3623.33 1.30074 -0.866621 0
M  V30 39266 H 3624.07 3.11465 0.903343 0
M  V30 39267 H 3623.85 3.85644 -0.708587 0
M  V30 39268 H 3625.34 4.16962 0.230756 0
M  V30 39269 N 3625.78 0.854133 1.32447 0
M  V30 39270 C 3626.73 0.296382 2.28889 0
M  V30 39271 C 3627.7 -0.596351 1.55025 0
M  V30 39272 O 3628.88 -0.531373 1.83251 0
M  V30 39273 C 3626.02 -0.509669 3.41316 0
M  V30 39274 C 3625.13 0.408796 4.30061 0
M  V30 39275 C 3624.27 -0.409835 5.29617 0
M  V30 39276 C 3623.31 0.50606 6.10004 0
M  V30 39277 N 3622.45 -0.27536 7.0156 0
M  V30 39278 H 3627.29 1.12405 2.75987 0
M  V30 39279 H 3624.82 0.565741 1.35786 0
M  V30 39280 H 3626.78 -0.992625 4.05219 0
M  V30 39281 H 3625.41 -1.30217 2.9537 0
M  V30 39282 H 3624.46 1.01014 3.66743 0
M  V30 39283 H 3625.77 1.11174 4.86253 0
M  V30 39284 H 3624.93 -0.955978 5.99121 0
M  V30 39285 H 3623.67 -1.14615 4.74041 0
M  V30 39286 H 3622.67 1.06409 5.39404 0
M  V30 39287 H 3623.9 1.24097 6.67665 0
M  V30 39288 H 3621.84 -0.994773 6.48414 0
M  V30 39289 H 3621.76 0.368559 7.55101 0
M  V30 39290 H 3623.03 -0.803245 7.7535 0
M  V30 39291 N 3627.26 -1.45231 0.61202 0
M  V30 39292 C 3628.17 -2.34361 -0.10594 0
M  V30 39293 C 3629.18 -1.51502 -0.855758 0
M  V30 39294 O 3630.36 -1.8429 -0.812344 0
M  V30 39295 C 3627.42 -3.2919 -1.08788 0
M  V30 39296 C 3626.49 -4.27955 -0.339535 0
M  V30 39297 C 3625.72 -5.18254 -1.2747 0
M  V30 39298 O 3625.94 -5.12074 -2.5127 0
M  V30 39299 O 3624.88 -5.96963 -0.769364 0
M  V30 39300 H 3628.7 -2.97165 0.626636 0
M  V30 39301 H 3626.29 -1.44688 0.372265 0
M  V30 39302 H 3628.17 -3.87612 -1.65332 0
M  V30 39303 H 3626.84 -2.68944 -1.80141 0
M  V30 39304 H 3625.75 -3.73135 0.268473 0
M  V30 39305 H 3627.08 -4.91068 0.333588 0
M  V30 39306 N 3628.74 -0.351436 -1.53632 0
M  V30 39307 C 3629.68 0.516943 -2.26783 0
M  V30 39308 C 3630.68 1.09534 -1.29223 0
M  V30 39309 O 3631.88 1.04017 -1.46903 0
M  V30 39310 H 3628.26 0.185404 -0.728786 0
M  V30 39311 H 3630.23 -0.121961 -2.98151 0
M  V30 39312 C 3628.98 1.65204 -3.05946 0
M  V30 39313 H 3628.3 1.21626 -3.80851 0
M  V30 39314 H 3629.74 2.23466 -3.60332 0
M  V30 39315 C 3628.2 2.58611 -2.15922 0
M  V30 39316 O 3628.73 3.61064 -1.76055 0
M  V30 39317 N 3626.94 2.27475 -1.80841 0
M  V30 39318 H 3626.48 1.44199 -2.13458 0
M  V30 39319 H 3626.44 2.90229 -1.20891 0
M  V30 39320 N 3630.21 1.57396 -0.0802459 0
M  V30 39321 C 3631.45 1.95685 0.590478 0
M  V30 39322 C 3631.82 0.960228 1.66264 0
M  V30 39323 O 3633.02 1.23108 2.38951 0
M  V30 39324 C 3631.29 3.38569 1.1448 0
M  V30 39325 S 3632.85 3.98843 1.82947 0
M  V30 39326 H 3629.67 0.684273 0.193111 0
M  V30 39327 H 3632.27 1.94876 -0.156115 0
M  V30 39328 H 3630.97 4.08881 0.352756 0
M  V30 39329 H 3630.5 3.42941 1.92756 0
M  V30 39330 H 3632.52 3.86436 3.11258 0
M  V30 39331 N 3631.69 -0.193366 1.56409 0
M  V30 39332 C 3632.92 -0.933742 1.85192 0
M  V30 39333 C 3633.34 -1.7599 0.664022 0
M  V30 39334 O 3632.7 -1.77118 -0.387167 0
M  V30 39335 C 3632.75 -1.80427 3.12216 0
M  V30 39336 O 3631.85 -2.90327 2.92889 0
M  V30 39337 H 3631.19 -0.262851 0.609758 0
M  V30 39338 H 3633.72 -0.198159 2.03638 0
M  V30 39339 H 3633.73 -2.20858 3.43054 0
M  V30 39340 H 3632.41 -1.19726 3.98294 0
M  V30 39341 H 3630.98 -2.53638 2.73354 0
M  V30 39342 N 3633.17 -1.50702 -0.461142 0
M  V30 39343 C 3634.58 -1.54934 -1.04175 0
M  V30 39344 C 3634.93 -0.358682 -1.92894 0
M  V30 39345 O 3634.06 0.527309 -2.09877 0
M  V30 39346 C 3634.65 -2.80776 -1.89605 0
M  V30 39347 C 3633.21 -2.87657 -2.42756 0
M  V30 39348 C 3632.36 -2.49337 -1.21351 0
M  V30 39349 H 3635.31 -1.56823 -0.243351 0
M  V30 39350 H 3635.33 -2.63194 -2.74789 0
M  V30 39351 H 3634.84 -3.67416 -1.25007 0
M  V30 39352 H 3632.94 -2.05392 -3.10878 0
M  V30 39353 H 3633.06 -3.90777 -2.77183 0
M  V30 39354 H 3631.42 -2.01997 -1.55142 0
M  V30 39355 H 3632.2 -3.38296 -0.58401 0
M  V30 39356 N 3634.65 0.715001 -1.40447 0
M  V30 39357 C 3635.88 1.50409 -1.42073 0
M  V30 39358 C 3636.29 1.88789 -0.0205879 0
M  V30 39359 O 3635.65 1.55481 0.955608 0
M  V30 39360 C 3635.7 2.77905 -2.31195 0
M  V30 39361 O 3635.42 2.41148 -3.65759 0
M  V30 39362 C 3636.92 3.71796 -2.41418 0
M  V30 39363 H 3634.14 0.464155 -0.484562 0
M  V30 39364 H 3636.68 0.881932 -1.84505 0
M  V30 39365 H 3634.84 3.36404 -1.92123 0
M  V30 39366 H 3635.25 3.2319 -4.13096 0
M  V30 39367 H 3636.73 4.58093 -3.07984 0
M  V30 39368 H 3637.2 4.14943 -1.43941 0
M  V30 39369 H 3637.81 3.19208 -2.81045 0
M  V30 39370 N 3636.13 1.25954 0.947281 0
M  V30 39371 C 3637.37 1.1053 1.68719 0
M  V30 39372 C 3637.69 -0.352181 1.92403 0
M  V30 39373 O 3638.89 -0.626989 2.64161 0
M  V30 39374 C 3637.35 1.92988 3.03782 0
M  V30 39375 C 3636.96 3.43273 2.87867 0
M  V30 39376 C 3638.7 1.86156 3.81505 0
M  V30 39377 C 3636.61 4.18 4.18366 0
M  V30 39378 H 3635.54 0.410027 0.632767 0
M  V30 39379 H 3638.19 1.50212 1.05397 0
M  V30 39380 H 3636.57 1.46134 3.6805 0
M  V30 39381 H 3637.75 3.97853 2.32487 0
M  V30 39382 H 3636.06 3.51277 2.23592 0
M  V30 39383 H 3638.66 2.39275 4.78175 0
M  V30 39384 H 3639 0.830981 4.07922 0
M  V30 39385 H 3639.53 2.30799 3.24001 0
M  V30 39386 H 3636.27 5.21501 3.97135 0
M  V30 39387 H 3635.79 3.68203 4.73484 0
M  V30 39388 H 3637.47 4.26116 4.86861 0
M  V30 39389 N 3637.6 -1.15097 1.07659 0
M  V30 39390 C 3639.02 -1.67539 0.823858 0
M  V30 39391 C 3639.37 -1.851 -0.650569 0
M  V30 39392 O 3638.49 -1.55659 -1.5033 0
M  V30 39393 C 3639.09 -3.04328 1.48895 0
M  V30 39394 C 3637.65 -3.53835 1.28365 0
M  V30 39395 C 3636.79 -2.29487 1.55663 0
M  V30 39396 H 3639.74 -0.992677 1.23821 0
M  V30 39397 H 3639.76 -3.69411 0.911913 0
M  V30 39398 H 3639.28 -2.91515 2.56204 0
M  V30 39399 H 3637.38 -3.71884 0.230929 0
M  V30 39400 H 3637.49 -4.35082 2.00601 0
M  V30 39401 H 3635.85 -2.35183 0.977796 0
M  V30 39402 H 3636.64 -2.19258 2.6416 0
M  V30 39403 N 3639.08 -0.861145 -1.31993 0
M  V30 39404 C 3640.05 -0.315461 -2.27019 0
M  V30 39405 C 3641.05 0.528549 -1.51865 0
M  V30 39406 O 3642.24 0.339124 -1.70867 0
M  V30 39407 C 3639.37 0.552961 -3.36385 0
M  V30 39408 H 3640.56 -1.15424 -2.76798 0
M  V30 39409 H 3638.11 -0.636007 -1.42775 0
M  V30 39410 H 3638.85 1.4133 -2.91884 0
M  V30 39411 H 3638.63 -0.0512608 -3.92066 0
M  V30 39412 H 3640.12 0.927321 -4.07174 0
M  V30 39413 N 3640.56 1.44905 -0.619713 0
M  V30 39414 C 3641.79 2.07025 -0.124635 0
M  V30 39415 C 3642.21 1.45921 1.18695 0
M  V30 39416 O 3641.57 0.556396 1.72551 0
M  V30 39417 C 3641.62 3.60598 -0.0112872 0
M  V30 39418 O 3640.72 3.99182 1.03575 0
M  V30 39419 H 3640.06 0.659215 -0.0795747 0
M  V30 39420 H 3642.59 1.85963 -0.85316 0
M  V30 39421 H 3642.6 4.07589 0.183008 0
M  V30 39422 H 3641.28 4.04456 -0.96892 0
M  V30 39423 H 3639.85 3.63841 0.816944 0
M  V30 39424 N 3642.04 0.359579 1.53443 0
M  V30 39425 C 3642.99 -0.504909 2.27054 0
M  V30 39426 C 3643.98 -1.08847 1.29803 0
M  V30 39427 O 3645.19 -1.03236 1.47453 0
M  V30 39428 H 3641.56 -0.181537 0.729759 0
M  V30 39429 H 3643.53 0.137771 2.98082 0
M  V30 39430 C 3642.28 -1.63579 3.06818 0
M  V30 39431 H 3641.6 -1.19605 3.8149 0
M  V30 39432 H 3643.04 -2.21552 3.61512 0
M  V30 39433 C 3641.5 -2.57462 2.1729 0
M  V30 39434 O 3642.03 -3.60126 1.77968 0
M  V30 39435 N 3640.24 -2.26513 1.82045 0
M  V30 39436 H 3639.79 -1.43065 2.1422 0
M  V30 39437 H 3639.74 -2.89584 1.22428 0
M  V30 39438 N 3643.52 -1.57351 0.0885919 0
M  V30 39439 C 3644.74 -1.98451 -0.585203 0
M  V30 39440 C 3645.16 -0.967511 -1.62125 0
M  V30 39441 O 3644.52 0.0437245 -1.82448 0
M  V30 39442 C 3644.57 -3.39613 -1.23875 0
M  V30 39443 O 3644.29 -4.37419 -0.244146 0
M  V30 39444 C 3645.79 -3.95681 -1.99878 0
M  V30 39445 H 3643.01 -0.652282 -0.157384 0
M  V30 39446 H 3645.55 -2.03825 0.165959 0
M  V30 39447 H 3643.71 -3.35274 -1.94089 0
M  V30 39448 H 3644.12 -5.19603 -0.715058 0
M  V30 39449 H 3645.6 -4.96624 -2.40974 0
M  V30 39450 H 3646.07 -3.33142 -2.86205 0
M  V30 39451 H 3646.68 -4.03474 -1.34494 0
M  V30 39452 N 3644.99 0.185069 -1.5651 0
M  V30 39453 C 3645.96 1.21301 -1.9447 0
M  V30 39454 C 3646.96 1.37912 -0.826862 0
M  V30 39455 O 3648.15 1.35552 -1.09413 0
M  V30 39456 C 3645.28 2.58059 -2.22751 0
M  V30 39457 H 3646.47 0.888273 -2.86443 0
M  V30 39458 H 3644.03 0.426986 -1.50355 0
M  V30 39459 H 3644.76 2.95571 -1.33448 0
M  V30 39460 H 3644.55 2.47372 -3.04219 0
M  V30 39461 H 3646.04 3.32168 -2.5309 0
M  V30 39462 N 3646.47 1.50945 0.453144 0
M  V30 39463 C 3647.75 1.53359 1.2141 0
M  V30 39464 C 3648.13 0.28862 2.09118 0
M  V30 39465 O 3647.48 -0.727126 2.16622 0
M  V30 39466 C 3647.69 2.83913 2.02964 0
M  V30 39467 C 3649.04 3.35263 2.60546 0
M  V30 39468 O 3650.06 2.85356 2.13191 0
M  V30 39469 O 3648.92 4.22304 3.46874 0
M  V30 39470 H 3646.01 0.615904 0.551898 0
M  V30 39471 H 3648.56 1.63248 0.463501 0
M  V30 39472 H 3647.33 3.65989 1.38447 0
M  V30 39473 H 3646.95 2.77112 2.85122 0
M  V30 39474 N 3647.95 -0.707543 1.40825 0
M  V30 39475 C 3648.86 -1.85158 1.44061 0
M  V30 39476 C 3649.88 -1.70796 0.332387 0
M  V30 39477 O 3651.05 -1.92921 0.578239 0
M  V30 39478 C 3648.12 -3.21033 1.30916 0
M  V30 39479 C 3647.18 -3.47591 2.5195 0
M  V30 39480 C 3646.41 -4.76983 2.39423 0
M  V30 39481 O 3646.63 -5.52638 1.41234 0
M  V30 39482 O 3645.57 -5.04057 3.28953 0
M  V30 39483 H 3649.39 -1.85384 2.40555 0
M  V30 39484 H 3646.98 -0.859031 1.22233 0
M  V30 39485 H 3648.86 -4.02177 1.25823 0
M  V30 39486 H 3647.54 -3.21517 0.375319 0
M  V30 39487 H 3646.44 -2.66424 2.6262 0
M  V30 39488 H 3647.78 -3.51911 3.44122 0
M  V30 39489 N 3649.43 -1.26454 -0.940588 0
M  V30 39490 C 3650.34 -1.09842 -2.07297 0
M  V30 39491 C 3651.35 -0.0317783 -1.73971 0
M  V30 39492 O 3652.53 -0.23563 -2.00017 0
M  V30 39493 C 3649.6 -0.733796 -3.38846 0
M  V30 39494 C 3648.66 -1.87992 -3.8595 0
M  V30 39495 C 3647.89 -1.53259 -5.11221 0
M  V30 39496 O 3648.11 -0.434591 -5.68742 0
M  V30 39497 O 3647.05 -2.36753 -5.53382 0
M  V30 39498 H 3650.87 -2.04841 -2.24219 0
M  V30 39499 H 3648.46 -1.05522 -1.05761 0
M  V30 39500 H 3650.34 -0.543204 -4.17884 0
M  V30 39501 H 3649.01 0.186786 -3.23161 0
M  V30 39502 H 3647.92 -2.12547 -3.07854 0
M  V30 39503 H 3649.25 -2.78024 -4.06157 0
M  V30 39504 N 3650.91 1.14525 -1.08268 0
M  V30 39505 C 3652.14 1.8912 -0.831706 0
M  V30 39506 C 3652.54 1.78764 0.619671 0
M  V30 39507 O 3651.89 1.1438 1.43746 0
M  V30 39508 C 3651.95 3.39831 -1.17282 0
M  V30 39509 C 3651.61 3.73971 -2.62669 0
M  V30 39510 C 3652.61 3.7421 -3.60919 0
M  V30 39511 C 3650.3 4.03994 -2.98487 0
M  V30 39512 C 3652.29 4.03994 -4.93019 0
M  V30 39513 C 3649.98 4.33441 -4.30781 0
M  V30 39514 C 3650.97 4.33424 -5.27857 0
M  V30 39515 O 3650.66 4.62158 -6.57773 0
M  V30 39516 H 3650.39 0.605935 -0.299697 0
M  V30 39517 H 3652.95 1.45975 -1.445 0
M  V30 39518 H 3651.18 3.83421 -0.502525 0
M  V30 39519 H 3652.87 3.9573 -0.902901 0
M  V30 39520 H 3653.63 3.51104 -3.34591 0
M  V30 39521 H 3649.51 4.03161 -2.23568 0
M  V30 39522 H 3653.06 4.03896 -5.68783 0
M  V30 39523 H 3648.95 4.56016 -4.56858 0
M  V30 39524 H 3649.72 4.79881 -6.63066 0
M  V30 39525 N 3652.39 0.868133 1.31534 0
M  V30 39526 C 3653.3 0.325921 2.32325 0
M  V30 39527 C 3654.31 -0.563214 1.64633 0
M  V30 39528 O 3655.49 -0.460368 1.96068 0
M  V30 39529 C 3652.55 -0.465329 3.43563 0
M  V30 39530 C 3651.61 0.451547 4.26919 0
M  V30 39531 C 3650.85 -0.302035 5.32845 0
M  V30 39532 O 3651.07 -1.53036 5.49487 0
M  V30 39533 O 3650 0.339154 6.00944 0
M  V30 39534 H 3653.83 1.16131 2.8062 0
M  V30 39535 H 3651.41 0.631452 1.354 0
M  V30 39536 H 3653.3 -0.913956 4.11369 0
M  V30 39537 H 3651.97 -1.27729 2.97434 0
M  V30 39538 H 3650.88 0.948634 3.61873 0
M  V30 39539 H 3652.21 1.22905 4.76608 0
M  V30 39540 N 3653.86 -1.44574 0.627389 0
M  V30 39541 C 3655.14 -1.95503 0.0614736 0
M  V30 39542 C 3655.52 -1.56944 -1.41179 0
M  V30 39543 O 3654.87 -0.841671 -2.12434 0
M  V30 39544 C 3655.08 -3.47872 0.28041 0
M  V30 39545 C 3656.43 -4.24253 0.171633 0
M  V30 39546 O 3657.45 -3.55571 0.211577 0
M  V30 39547 O 3656.31 -5.46451 0.0734112 0
M  V30 39548 H 3653.4 -0.826639 -0.024448 0
M  V30 39549 H 3655.95 -1.54643 0.698832 0
M  V30 39550 H 3654.72 -3.68974 1.30284 0
M  V30 39551 H 3654.34 -3.9567 -0.391267 0
M  V30 39552 N 3655.34 -0.367711 -1.5325 0
M  V30 39553 C 3656.59 0.220878 -2.00889 0
M  V30 39554 C 3656.91 1.49108 -1.25665 0
M  V30 39555 O 3656.18 1.92364 -0.370525 0
M  V30 39556 H 3654.76 0.0846102 -0.742193 0
M  V30 39557 H 3657.42 -0.494435 -1.88524 0
M  V30 39558 H 3656.52 0.44636 -3.08892 0
M  V30 39559 N 3656.82 1.57302 -0.0969353 0
M  V30 39560 C 3658.07 1.93595 0.566038 0
M  V30 39561 C 3658.38 0.980952 1.69224 0
M  V30 39562 O 3659.59 1.23767 2.41648 0
M  V30 39563 C 3658.04 3.4399 1.05826 0
M  V30 39564 C 3657.65 4.47984 -0.0382858 0
M  V30 39565 C 3659.4 3.89241 1.69386 0
M  V30 39566 C 3657.3 5.89534 0.469397 0
M  V30 39567 H 3656.23 0.722634 0.215213 0
M  V30 39568 H 3658.88 1.8268 -0.173234 0
M  V30 39569 H 3657.27 3.50062 1.85128 0
M  V30 39570 H 3658.44 4.53556 -0.813841 0
M  V30 39571 H 3656.75 4.12352 -0.579186 0
M  V30 39572 H 3659.35 4.92397 2.08446 0
M  V30 39573 H 3659.69 3.2799 2.56375 0
M  V30 39574 H 3660.23 3.85877 0.966641 0
M  V30 39575 H 3656.97 6.54489 -0.363917 0
M  V30 39576 H 3656.49 5.87429 1.21192 0
M  V30 39577 H 3658.17 6.40168 0.937772 0
M  V30 39578 N 3658.3 -0.176766 1.56606 0
M  V30 39579 C 3659.21 -1.23899 1.99214 0
M  V30 39580 C 3660.22 -1.48756 0.902641 0
M  V30 39581 O 3661.4 -1.61011 1.20985 0
M  V30 39582 C 3658.46 -2.55934 2.33878 0
M  V30 39583 C 3657.53 -2.38988 3.56628 0
M  V30 39584 C 3656.76 -3.64726 3.89629 0
M  V30 39585 O 3656.98 -4.69674 3.2367 0
M  V30 39586 O 3655.92 -3.59161 4.82998 0
M  V30 39587 H 3659.74 -0.907347 2.89829 0
M  V30 39588 H 3657.33 -0.383209 1.44402 0
M  V30 39589 H 3659.21 -3.33831 2.57167 0
M  V30 39590 H 3657.88 -2.88689 1.46426 0
M  V30 39591 H 3656.79 -1.5914 3.38564 0
M  V30 39592 H 3658.12 -2.11159 4.44604 0
M  V30 39593 N 3659.78 -1.51183 -0.445132 0
M  V30 39594 C 3661.19 -1.39185 -0.780999 0
M  V30 39595 C 3661.39 -0.468111 -1.95987 0
M  V30 39596 O 3660.45 0.0796379 -2.52374 0
M  V30 39597 C 3661.76 -2.81069 -1.06869 0
M  V30 39598 C 3663.31 -2.90165 -1.17359 0
M  V30 39599 C 3663.78 -4.32939 -1.49426 0
M  V30 39600 N 3665.27 -4.36009 -1.56366 0
M  V30 39601 C 3666.01 -5.43503 -1.82734 0
M  V30 39602 N 3665.51 -6.61169 -2.06947 0
M  V30 39603 N 3667.3 -5.30975 -1.84451 0
M  V30 39604 H 3659.45 -2.09799 0.331384 0
M  V30 39605 H 3661.71 -0.944107 0.0858268 0
M  V30 39606 H 3661.42 -3.50621 -0.275245 0
M  V30 39607 H 3661.29 -3.19917 -1.99833 0
M  V30 39608 H 3663.68 -2.20815 -1.95767 0
M  V30 39609 H 3663.76 -2.54825 -0.223135 0
M  V30 39610 H 3663.4 -5.02835 -0.715485 0
M  V30 39611 H 3663.33 -4.65786 -2.45664 0
M  V30 39612 H 3665.83 -3.51174 -1.39589 0
M  V30 39613 H 3666.14 -7.38889 -2.26414 0
M  V30 39614 H 3664.48 -6.64299 -2.04285 0
M  V30 39615 H 3667.67 -4.38037 -1.65049 0
M  V30 39616 H 3667.85 -6.14831 -2.04664 0
M  V30 39617 N 3661.25 0.700065 -1.41198 0
M  V30 39618 C 3662.48 1.48894 -1.4366 0
M  V30 39619 C 3662.9 1.88756 -0.0406103 0
M  V30 39620 O 3662.25 1.56486 0.939063 0
M  V30 39621 C 3662.3 2.75437 -2.3413 0
M  V30 39622 O 3662.03 2.37255 -3.68296 0
M  V30 39623 C 3663.53 3.69214 -2.45348 0
M  V30 39624 H 3660.75 0.45899 -0.489458 0
M  V30 39625 H 3663.29 0.862313 -1.8543 0
M  V30 39626 H 3661.45 3.34347 -1.9568 0
M  V30 39627 H 3661.86 3.1879 -4.16501 0
M  V30 39628 H 3663.33 4.54801 -3.12826 0
M  V30 39629 H 3663.81 4.13393 -1.48334 0
M  V30 39630 H 3664.42 3.16209 -2.84415 0
M  V30 39631 N 3662.73 1.26951 0.933869 0
M  V30 39632 C 3663.97 1.14156 1.69552 0
M  V30 39633 C 3664.34 -0.308606 1.89504 0
M  V30 39634 O 3665.54 -0.558848 2.62926 0
M  V30 39635 C 3663.81 1.89715 3.02891 0
M  V30 39636 S 3665.37 1.9306 3.94047 0
M  V30 39637 H 3662.18 0.40764 0.582538 0
M  V30 39638 H 3664.79 1.60774 1.1123 0
M  V30 39639 H 3663.49 2.94279 2.86056 0
M  V30 39640 H 3663.02 1.43567 3.66268 0
M  V30 39641 H 3665.04 1.02257 4.85549 0
M  V30 39642 N 3664.21 -1.13949 1.08873 0
M  V30 39643 C 3665.49 -1.81309 0.733912 0
M  V30 39644 C 3665.87 -1.9609 -0.78179 0
M  V30 39645 O 3665.21 -1.52451 -1.70208 0
M  V30 39646 C 3665.42 -3.167 1.46637 0
M  V30 39647 C 3666.77 -3.92129 1.6285 0
M  V30 39648 O 3667.8 -3.26305 1.42841 0
M  V30 39649 O 3666.66 -5.10181 1.95902 0
M  V30 39650 H 3663.75 -0.78407 0.26299 0
M  V30 39651 H 3666.3 -1.20925 1.1906 0
M  V30 39652 H 3665.07 -3.01134 2.49868 0
M  V30 39653 H 3664.69 -3.84781 1.00148 0
M  V30 39654 N 3665.69 -0.875096 -1.31072 0
M  V30 39655 C 3666.92 -0.503214 -2.00687 0
M  V30 39656 C 3667.33 0.905685 -1.65659 0
M  V30 39657 O 3666.69 1.59411 -0.888496 0
M  V30 39658 C 3666.74 -0.656722 -3.55485 0
M  V30 39659 O 3666.46 -2.01014 -3.89262 0
M  V30 39660 C 3667.96 -0.286528 -4.42373 0
M  V30 39661 H 3665.18 -0.195523 -0.641881 0
M  V30 39662 H 3667.72 -1.17767 -1.67186 0
M  V30 39663 H 3665.88 -0.0297533 -3.87389 0
M  V30 39664 H 3666.29 -2.02161 -4.83974 0
M  V30 39665 H 3667.77 -0.444872 -5.50204 0
M  V30 39666 H 3668.24 0.774713 -4.32313 0
M  V30 39667 H 3668.85 -0.88941 -4.15896 0
M  V30 39668 N 3667.17 1.44239 -0.635047 0
M  V30 39669 C 3668.1 2.33437 0.054315 0
M  V30 39670 C 3669.08 1.48432 0.83078 0
M  V30 39671 O 3670.26 1.77142 0.795882 0
M  V30 39672 C 3667.39 3.31555 1.03385 0
M  V30 39673 C 3666.35 4.26409 0.368749 0
M  V30 39674 C 3665.67 5.14425 1.45846 0
M  V30 39675 C 3666.97 5.17209 -0.727472 0
M  V30 39676 H 3668.67 2.91328 -0.69054 0
M  V30 39677 H 3666.21 1.40084 -0.333524 0
M  V30 39678 H 3668.17 3.92843 1.52488 0
M  V30 39679 H 3666.89 2.71881 1.80964 0
M  V30 39680 H 3665.55 3.66459 -0.10167 0
M  V30 39681 H 3665.2 4.51102 2.22523 0
M  V30 39682 H 3664.9 5.78701 1.0188 0
M  V30 39683 H 3666.42 5.78584 1.95122 0
M  V30 39684 H 3667.83 5.7241 -0.319373 0
M  V30 39685 H 3666.23 5.90108 -1.09051 0
M  V30 39686 H 3667.3 4.57987 -1.593 0
M  V30 39687 N 3668.64 0.375833 1.53053 0
M  V30 39688 C 3669.57 -0.457499 2.28974 0
M  V30 39689 C 3670.56 -1.07513 1.31814 0
M  V30 39690 O 3671.74 -1.09045 1.60695 0
M  V30 39691 C 3668.87 -1.59206 3.08659 0
M  V30 39692 C 3667.82 -1.10116 4.13592 0
M  V30 39693 C 3667.15 -2.32676 4.81421 0
M  V30 39694 C 3668.45 -0.178628 5.21994 0
M  V30 39695 H 3670.14 0.175925 2.98883 0
M  V30 39696 H 3667.69 0.0860506 1.43743 0
M  V30 39697 H 3669.64 -2.18176 3.60524 0
M  V30 39698 H 3668.37 -2.25287 2.3646 0
M  V30 39699 H 3667.03 -0.534087 3.62689 0
M  V30 39700 H 3666.67 -2.97236 4.05783 0
M  V30 39701 H 3666.37 -2.00497 5.52336 0
M  V30 39702 H 3667.9 -2.92312 5.36084 0
M  V30 39703 H 3669.31 -0.676104 5.69299 0
M  V30 39704 H 3667.71 0.052766 6.00077 0
M  V30 39705 H 3668.78 0.77633 4.78645 0
M  V30 39706 N 3670.12 -1.57248 0.105276 0
M  V30 39707 C 3671.06 -2.10262 -0.886867 0
M  V30 39708 C 3672.03 -1.01563 -1.26979 0
M  V30 39709 O 3673.22 -1.29128 -1.37325 0
M  V30 39710 C 3670.34 -2.58801 -2.18494 0
M  V30 39711 C 3669.39 -3.79254 -1.95112 0
M  V30 39712 S 3670.22 -5.22341 -1.17986 0
M  V30 39713 C 3671.38 -5.74238 -2.49002 0
M  V30 39714 H 3671.61 -2.94087 -0.435902 0
M  V30 39715 H 3669.15 -1.5402 -0.108224 0
M  V30 39716 H 3671.1 -2.87423 -2.93084 0
M  V30 39717 H 3669.76 -1.75182 -2.60711 0
M  V30 39718 H 3668.96 -4.11319 -2.91261 0
M  V30 39719 H 3668.56 -3.51178 -1.28648 0
M  V30 39720 H 3670.85 -5.83125 -3.44922 0
M  V30 39721 H 3671.79 -6.72564 -2.21501 0
M  V30 39722 H 3672.2 -5.02225 -2.57741 0
M  V30 39723 N 3671.6 0.168458 -1.56697 0
M  V30 39724 C 3672.84 0.891083 -1.83954 0
M  V30 39725 C 3673.2 1.79304 -0.686601 0
M  V30 39726 O 3674.41 2.55348 -0.839689 0
M  V30 39727 C 3672.68 1.66336 -3.16334 0
M  V30 39728 S 3674.24 2.43436 -3.65081 0
M  V30 39729 H 3671.05 0.298394 -0.645354 0
M  V30 39730 H 3673.66 0.152519 -1.94904 0
M  V30 39731 H 3672.36 0.991845 -3.98234 0
M  V30 39732 H 3671.89 2.44325 -3.08332 0
M  V30 39733 H 3673.91 3.68196 -3.32636 0
M  V30 39734 N 3673.08 1.51417 0.437109 0
M  V30 39735 C 3674.33 1.6333 1.18347 0
M  V30 39736 C 3674.64 0.355489 1.92343 0
M  V30 39737 O 3675.85 0.353998 2.69182 0
M  V30 39738 C 3674.3 2.88451 2.1523 0
M  V30 39739 C 3673.91 4.23237 1.46882 0
M  V30 39740 C 3675.65 3.09721 2.90298 0
M  V30 39741 C 3673.56 5.39508 2.4225 0
M  V30 39742 H 3672.49 0.608346 0.445456 0
M  V30 39743 H 3675.14 1.77884 0.450497 0
M  V30 39744 H 3673.52 2.67532 2.91964 0
M  V30 39745 H 3674.7 4.54539 0.757048 0
M  V30 39746 H 3673.01 4.07847 0.839654 0
M  V30 39747 H 3675.61 3.93762 3.6174 0
M  V30 39748 H 3675.95 2.22809 3.51656 0
M  V30 39749 H 3676.49 3.30982 2.20671 0
M  V30 39750 H 3673.23 6.28681 1.8558 0
M  V30 39751 H 3672.75 5.12582 3.11479 0
M  V30 39752 H 3674.42 5.71466 3.03374 0
M  V30 39753 N 3674.56 -0.692567 1.41567 0
M  V30 39754 C 3675.8 -1.45477 1.41295 0
M  V30 39755 C 3676.14 -1.94186 0.0229434 0
M  V30 39756 O 3675.41 -1.69731 -0.949819 0
M  V30 39757 C 3675.69 -2.66453 2.42229 0
M  V30 39758 C 3675.55 -2.2349 3.90349 0
M  V30 39759 C 3676.87 -3.68653 2.4038 0
M  V30 39760 H 3673.98 -0.527654 0.514539 0
M  V30 39761 H 3676.63 -0.788567 1.72863 0
M  V30 39762 H 3674.78 -3.23292 2.1544 0
M  V30 39763 H 3676.45 -1.71954 4.28053 0
M  V30 39764 H 3674.69 -1.55242 4.05071 0
M  V30 39765 H 3675.36 -3.10306 4.56524 0
M  V30 39766 H 3677.84 -3.21494 2.64161 0
M  V30 39767 H 3676.71 -4.50904 3.13012 0
M  V30 39768 H 3676.98 -4.18557 1.42345 0
M  V30 39769 N 3676.03 -1.27445 -0.927123 0
M  V30 39770 C 3677.26 -1.16632 -1.70894 0
M  V30 39771 C 3677.68 0.276779 -1.8676 0
M  V30 39772 O 3677.03 1.18839 -1.38505 0
M  V30 39773 C 3677.09 -1.84578 -3.10826 0
M  V30 39774 O 3676.81 -3.2325 -2.95705 0
M  V30 39775 C 3678.31 -1.79898 -4.05156 0
M  V30 39776 H 3675.53 -0.405477 -0.53463 0
M  V30 39777 H 3678.07 -1.68327 -1.16131 0
M  V30 39778 H 3676.23 -1.36787 -3.62447 0
M  V30 39779 H 3676.64 -3.57086 -3.84174 0
M  V30 39780 H 3678.11 -2.32053 -5.00855 0
M  V30 39781 H 3678.59 -0.768449 -4.32425 0
M  V30 39782 H 3679.2 -2.27307 -3.5946 0
M  V30 39783 N 3677.51 1.1337 -1.09476 0
M  V30 39784 C 3678.76 1.84932 -0.832355 0
M  V30 39785 C 3679.09 1.83336 0.640437 0
M  V30 39786 O 3678.37 1.27183 1.47156 0
M  V30 39787 C 3678.65 3.3307 -1.36882 0
M  V30 39788 C 3678.5 3.43176 -2.90775 0
M  V30 39789 C 3679.82 4.28518 -1.00302 0
M  V30 39790 H 3676.94 0.671458 -0.303832 0
M  V30 39791 H 3679.58 1.33064 -1.35624 0
M  V30 39792 H 3677.73 3.77372 -0.9232 0
M  V30 39793 H 3679.4 3.07582 -3.43789 0
M  V30 39794 H 3677.65 2.84036 -3.27881 0
M  V30 39795 H 3678.32 4.47352 -3.23389 0
M  V30 39796 H 3680.79 3.9229 -1.38735 0
M  V30 39797 H 3679.67 5.30603 -1.40542 0
M  V30 39798 H 3679.93 4.42011 0.0887356 0
M  V30 39799 N 3678.99 0.882035 1.30606 0
M  V30 39800 C 3679.92 0.362747 2.30665 0
M  V30 39801 C 3680.9 -0.552833 1.60866 0
M  V30 39802 O 3682.09 -0.467306 1.88494 0
M  V30 39803 C 3679.22 -0.426159 3.44675 0
M  V30 39804 C 3678.17 0.397397 4.26151 0
M  V30 39805 C 3677.5 -0.517933 5.32186 0
M  V30 39806 C 3678.8 1.63794 4.95952 0
M  V30 39807 H 3680.49 1.19888 2.74349 0
M  V30 39808 H 3678.04 0.577935 1.31894 0
M  V30 39809 H 3679.99 -0.800057 4.13735 0
M  V30 39810 H 3678.71 -1.29591 2.99789 0
M  V30 39811 H 3677.37 0.753395 3.58775 0
M  V30 39812 H 3677.02 -1.38531 4.83547 0
M  V30 39813 H 3676.72 0.0292834 5.87593 0
M  V30 39814 H 3678.24 -0.888411 6.04102 0
M  V30 39815 H 3679.66 1.3348 5.57545 0
M  V30 39816 H 3678.06 2.12513 5.61211 0
M  V30 39817 H 3679.13 2.38401 4.22247 0
M  V30 39818 N 3680.47 -1.439 0.642688 0
M  V30 39819 C 3681.42 -2.32502 -0.0673517 0
M  V30 39820 C 3682.41 -1.48011 -0.823955 0
M  V30 39821 O 3683.62 -1.64285 -0.735546 0
M  V30 39822 H 3679.99 -0.750905 -0.0405583 0
M  V30 39823 H 3681.96 -2.90126 0.697821 0
M  V30 39824 C 3680.71 -3.32175 -1.02739 0
M  V30 39825 H 3680.03 -3.97207 -0.454627 0
M  V30 39826 H 3681.47 -3.96826 -1.49348 0
M  V30 39827 C 3679.93 -2.61973 -2.1183 0
M  V30 39828 O 3680.46 -2.42731 -3.2007 0
M  V30 39829 N 3678.67 -2.2152 -1.88088 0
M  V30 39830 H 3678.22 -2.3737 -1.00067 0
M  V30 39831 H 3678.17 -1.74877 -2.61276 0
M  V30 39832 N 3681.95 -0.383945 -1.52852 0
M  V30 39833 C 3682.88 0.488777 -2.23928 0
M  V30 39834 C 3683.89 1.03113 -1.25982 0
M  V30 39835 O 3685.08 0.934372 -1.52091 0
M  V30 39836 C 3682.18 1.68952 -2.93783 0
M  V30 39837 C 3681.35 1.27548 -4.1839 0
M  V30 39838 C 3680.41 2.34032 -4.71292 0
M  V30 39839 O 3679.44 1.95661 -5.34514 0
M  V30 39840 N 3680.64 3.65873 -4.50685 0
M  V30 39841 H 3683.41 -0.120136 -2.99459 0
M  V30 39842 H 3680.97 -0.210032 -1.60532 0
M  V30 39843 H 3682.96 2.39702 -3.26075 0
M  V30 39844 H 3681.53 2.2049 -2.21592 0
M  V30 39845 H 3680.75 0.397088 -3.92195 0
M  V30 39846 H 3682.04 0.975418 -4.99363 0
M  V30 39847 H 3681.44 3.99812 -4.00208 0
M  V30 39848 H 3679.99 4.32672 -4.87481 0
M  V30 39849 N 3683.43 1.5719 -0.113614 0
M  V30 39850 C 3684.67 1.94624 0.544608 0
M  V30 39851 C 3684.99 0.997457 1.67558 0
M  V30 39852 O 3684.26 0.0527865 1.95829 0
M  V30 39853 H 3682.84 0.718556 0.204173 0
M  V30 39854 H 3685.51 1.94055 -0.181292 0
M  V30 39855 H 3684.6 2.97522 0.942713 0
M  V30 39856 N 3684.9 -0.160146 1.56784 0
M  V30 39857 C 3685.83 -1.20009 2.003 0
M  V30 39858 C 3686.81 -1.45545 0.880382 0
M  V30 39859 O 3688 -1.56689 1.14726 0
M  V30 39860 C 3685.13 -2.5364 2.37242 0
M  V30 39861 C 3684.08 -2.42652 3.52568 0
M  V30 39862 C 3683.41 -3.80875 3.75284 0
M  V30 39863 C 3684.71 -1.92174 4.85661 0
M  V30 39864 H 3686.4 -0.838311 2.87424 0
M  V30 39865 H 3683.95 -0.401813 1.3828 0
M  V30 39866 H 3685.9 -3.26605 2.66284 0
M  V30 39867 H 3684.63 -2.91628 1.4704 0
M  V30 39868 H 3683.29 -1.7214 3.23672 0
M  V30 39869 H 3682.93 -4.16275 2.82354 0
M  V30 39870 H 3682.63 -3.74388 4.52888 0
M  V30 39871 H 3684.16 -4.55408 4.06738 0
M  V30 39872 H 3685.57 -2.54922 5.13505 0
M  V30 39873 H 3683.97 -1.96609 5.66979 0
M  V30 39874 H 3685.04 -0.876658 4.7691 0
M  V30 39875 N 3686.38 -1.51647 -0.429072 0
M  V30 39876 C 3687.8 -1.40006 -0.766192 0
M  V30 39877 C 3688 -0.488871 -1.9548 0
M  V30 39878 O 3687.05 0.0528657 -2.52445 0
M  V30 39879 C 3688.37 -2.82186 -1.03881 0
M  V30 39880 C 3689.91 -2.91394 -1.14275 0
M  V30 39881 C 3690.39 -4.34499 -1.44825 0
M  V30 39882 N 3691.88 -4.37643 -1.51732 0
M  V30 39883 C 3692.62 -5.45411 -1.76959 0
M  V30 39884 N 3692.11 -6.63327 -1.99922 0
M  V30 39885 N 3693.9 -5.32901 -1.78809 0
M  V30 39886 H 3686.06 -2.09436 0.353617 0
M  V30 39887 H 3688.32 -0.943143 0.0958354 0
M  V30 39888 H 3688.02 -3.50894 -0.238041 0
M  V30 39889 H 3687.9 -3.22018 -1.96429 0
M  V30 39890 H 3690.29 -2.22879 -1.93414 0
M  V30 39891 H 3690.37 -2.55047 -0.196095 0
M  V30 39892 H 3690.01 -5.03566 -0.662112 0
M  V30 39893 H 3689.94 -4.68365 -2.4071 0
M  V30 39894 H 3692.43 -3.52635 -1.35856 0
M  V30 39895 H 3692.74 -7.41248 -2.18565 0
M  V30 39896 H 3691.09 -6.66428 -1.97228 0
M  V30 39897 H 3694.28 -4.39763 -1.60394 0
M  V30 39898 H 3694.45 -6.16967 -1.98131 0
M  V30 39899 N 3687.86 0.685049 -1.41932 0
M  V30 39900 C 3688.81 1.82011 -1.44827 0
M  V30 39901 C 3689.8 1.66251 -0.325112 0
M  V30 39902 O 3691.01 1.72984 -0.497644 0
M  V30 39903 H 3687.38 0.599964 -0.453373 0
M  V30 39904 H 3689.35 1.76687 -2.40467 0
M  V30 39905 C 3688.1 3.20101 -1.35759 0
M  V30 39906 H 3687.43 3.3285 -2.21475 0
M  V30 39907 H 3688.87 3.9957 -1.41845 0
M  V30 39908 C 3687.32 3.36825 -0.0711408 0
M  V30 39909 O 3687.85 3.91941 0.880086 0
M  V30 39910 N 3686.06 2.90599 0.00837544 0
M  V30 39911 H 3685.61 2.45933 -0.76647 0
M  V30 39912 H 3685.57 3.02166 0.868506 0
M  V30 39913 N 3689.34 1.27935 0.920351 0
M  V30 39914 C 3690.59 1.14477 1.66552 0
M  V30 39915 C 3690.91 -0.30841 1.92546 0
M  V30 39916 O 3690.18 -1.21471 1.53693 0
M  V30 39917 H 3688.76 0.420662 0.617295 0
M  V30 39918 H 3691.42 1.60569 1.1047 0
M  V30 39919 H 3690.51 1.67939 2.63064 0
M  V30 39920 N 3690.82 -1.12788 1.10076 0
M  V30 39921 C 3692.06 -1.83851 0.839244 0
M  V30 39922 C 3692.38 -1.84303 -0.636991 0
M  V30 39923 O 3691.65 -1.30351 -1.46237 0
M  V30 39924 H 3690.23 -0.680783 0.30748 0
M  V30 39925 H 3692.9 -1.36593 1.39027 0
M  V30 39926 H 3691.99 -2.8816 1.19877 0
M  V30 39927 N 3692.29 -0.888949 -1.30136 0
M  V30 39928 C 3693.54 -0.508393 -1.95601 0
M  V30 39929 C 3693.86 0.946347 -1.70497 0
M  V30 39930 O 3693.13 1.6659 -1.03076 0
M  V30 39931 H 3691.71 -0.185018 -0.723725 0
M  V30 39932 H 3694.37 -1.13289 -1.58592 0
M  V30 39933 H 3693.47 -0.681968 -3.04558 0
M  V30 39934 N 3693.77 1.43557 -0.65031 0
M  V30 39935 C 3695.02 2.02146 -0.162761 0
M  V30 39936 C 3695.35 1.51169 1.21909 0
M  V30 39937 O 3694.63 0.703595 1.81328 0
M  V30 39938 C 3694.91 3.59697 -0.170419 0
M  V30 39939 C 3694.76 4.20912 -1.58597 0
M  V30 39940 C 3696.08 4.3731 0.494755 0
M  V30 39941 H 3693.2 0.734503 -0.0606184 0
M  V30 39942 H 3695.84 1.70891 -0.830441 0
M  V30 39943 H 3693.99 3.86455 0.398122 0
M  V30 39944 H 3695.66 4.05195 -2.20488 0
M  V30 39945 H 3693.91 3.77673 -2.13414 0
M  V30 39946 H 3694.58 5.2999 -1.54321 0
M  V30 39947 H 3697.05 4.16099 0.011055 0
M  V30 39948 H 3695.93 5.4698 0.458657 0
M  V30 39949 H 3696.19 4.13345 1.56839 0
M  V30 39950 N 3695.25 0.392045 1.52646 0
M  V30 39951 C 3696.5 -0.18889 2.01215 0
M  V30 39952 C 3696.82 -1.4709 1.28021 0
M  V30 39953 O 3696.09 -1.9175 0.401081 0
M  V30 39954 H 3694.67 -0.0727919 0.743445 0
M  V30 39955 H 3697.33 0.524365 1.87714 0
M  V30 39956 H 3696.43 -0.397161 3.09563 0
M  V30 39957 N 3696.73 -1.57127 0.121948 0
M  V30 39958 C 3698.01 -1.86832 -0.579054 0
M  V30 39959 C 3698.39 -1.02363 -1.84621 0
M  V30 39960 O 3697.73 -0.103366 -2.28266 0
M  V30 39961 C 3697.94 -3.38017 -0.86866 0
M  V30 39962 C 3699.29 -4.06682 -1.22043 0
M  V30 39963 O 3700.32 -3.43052 -0.958828 0
M  V30 39964 O 3699.17 -5.19007 -1.71155 0
M  V30 39965 H 3696.27 -0.773536 -0.292526 0
M  V30 39966 H 3698.81 -1.68975 0.156674 0
M  V30 39967 H 3697.59 -3.91289 0.0291744 0
M  V30 39968 H 3697.21 -3.61315 -1.65944 0
M  V30 39969 N 3698.21 0.151829 -1.56867 0
M  V30 39970 C 3699.45 0.866534 -1.83355 0
M  V30 39971 C 3699.79 1.81036 -0.702816 0
M  V30 39972 O 3699.06 1.92267 0.29391 0
M  V30 39973 C 3699.34 1.64524 -3.20319 0
M  V30 39974 C 3699.2 0.723219 -4.43948 0
M  V30 39975 C 3700.52 2.60876 -3.54446 0
M  V30 39976 H 3697.63 0.313576 -0.666963 0
M  V30 39977 H 3700.28 0.131921 -1.89541 0
M  V30 39978 H 3698.43 2.27149 -3.15176 0
M  V30 39979 H 3700.1 0.108339 -4.61173 0
M  V30 39980 H 3698.34 0.0324819 -4.33788 0
M  V30 39981 H 3699.01 1.30401 -5.36376 0
M  V30 39982 H 3701.49 2.0837 -3.60168 0
M  V30 39983 H 3700.36 3.12414 -4.51319 0
M  V30 39984 H 3700.63 3.42004 -2.80152 0
M  V30 39985 N 3699.68 1.51872 0.421024 0
M  V30 39986 C 3700.61 1.77316 1.51925 0
M  V30 39987 C 3701.6 0.623607 1.58257 0
M  V30 39988 O 3702.78 0.867998 1.73722 0
M  V30 39989 C 3699.91 1.91305 2.89861 0
M  V30 39990 C 3698.86 3.06839 2.98385 0
M  V30 39991 C 3698.19 3.06034 4.3846 0
M  V30 39992 C 3699.49 4.46516 2.70962 0
M  V30 39993 H 3701.18 2.69276 1.30884 0
M  V30 39994 H 3698.73 1.29575 0.628206 0
M  V30 39995 H 3700.68 2.07688 3.66666 0
M  V30 39996 H 3699.41 0.960066 3.1217 0
M  V30 39997 H 3698.07 2.90188 2.24024 0
M  V30 39998 H 3697.71 2.0848 4.57761 0
M  V30 39999 H 3697.41 3.83625 4.4509 0
M  V30 40000 H 3698.94 3.24531 5.17216 0
M  V30 40001 H 3700.35 4.63434 3.37493 0
M  V30 40002 H 3698.75 5.25936 2.88983 0
M  V30 40003 H 3699.82 4.5543 1.66468 0
M  V30 40004 N 3701.16 -0.677513 1.42294 0
M  V30 40005 C 3702.58 -0.990312 1.2516 0
M  V30 40006 C 3702.78 -2.00912 0.153839 0
M  V30 40007 O 3701.83 -2.47976 -0.475824 0
M  V30 40008 C 3703.15 -1.49771 2.60748 0
M  V30 40009 C 3704.7 -1.61562 2.6808 0
M  V30 40010 C 3705.17 -2.15698 4.04028 0
M  V30 40011 N 3706.66 -2.23035 4.05968 0
M  V30 40012 C 3707.4 -2.65991 5.07973 0
M  V30 40013 N 3706.89 -3.08421 6.20362 0
M  V30 40014 N 3708.69 -2.65716 4.9533 0
M  V30 40015 H 3700.84 -0.00292089 2.124 0
M  V30 40016 H 3703.1 -0.0638234 0.945849 0
M  V30 40017 H 3702.81 -0.823612 3.4192 0
M  V30 40018 H 3702.68 -2.4769 2.84481 0
M  V30 40019 H 3705.07 -2.28078 1.87255 0
M  V30 40020 H 3705.15 -0.62139 2.48138 0
M  V30 40021 H 3704.79 -1.49792 4.85309 0
M  V30 40022 H 3704.72 -3.15907 4.2132 0
M  V30 40023 H 3707.21 -1.93116 3.2483 0
M  V30 40024 H 3707.53 -3.39877 6.94049 0
M  V30 40025 H 3705.87 -3.06285 6.23871 0
M  V30 40026 H 3709.06 -2.31929 4.06604 0
M  V30 40027 H 3709.23 -2.98874 5.7496 0
M  V30 40028 N 3702.64 -1.28421 -0.913554 0
M  V30 40029 C 3704.06 -1.06132 -1.19198 0
M  V30 40030 C 3704.26 0.196197 -2.00543 0
M  V30 40031 O 3703.31 0.897811 -2.35999 0
M  V30 40032 C 3704.63 -2.30892 -1.92638 0
M  V30 40033 C 3706.17 -2.36073 -2.0552 0
M  V30 40034 C 3706.65 -3.606 -2.82368 0
M  V30 40035 N 3708.14 -3.61241 -2.89929 0
M  V30 40036 C 3708.87 -4.54273 -3.49891 0
M  V30 40037 N 3708.37 -5.57623 -4.11131 0
M  V30 40038 N 3710.16 -4.41868 -3.47432 0
M  V30 40039 H 3702.31 -2.09144 -0.370473 0
M  V30 40040 H 3704.58 -0.92053 -0.226556 0
M  V30 40041 H 3704.28 -3.22507 -1.40294 0
M  V30 40042 H 3704.16 -2.37321 -2.93187 0
M  V30 40043 H 3706.54 -1.44956 -2.57044 0
M  V30 40044 H 3706.63 -2.33639 -1.04146 0
M  V30 40045 H 3706.27 -4.52062 -2.31523 0
M  V30 40046 H 3706.2 -3.60289 -3.84057 0
M  V30 40047 H 3708.69 -2.86506 -2.46419 0
M  V30 40048 H 3709 -6.24754 -4.54866 0
M  V30 40049 H 3707.35 -5.61449 -4.09635 0
M  V30 40050 H 3710.54 -3.60328 -2.98799 0
M  V30 40051 H 3710.71 -5.14558 -3.93871 0
M  V30 40052 N 3704.12 1.12202 -1.10672 0
M  V30 40053 C 3705.53 1.65296 -0.867988 0
M  V30 40054 C 3705.88 1.8676 0.601264 0
M  V30 40055 O 3705.01 1.5959 1.4615 0
M  V30 40056 C 3705.6 3.00274 -1.56912 0
M  V30 40057 C 3704.16 3.50307 -1.37702 0
M  V30 40058 C 3703.31 2.2528 -1.61692 0
M  V30 40059 H 3706.26 0.959499 -1.26409 0
M  V30 40060 H 3706.28 3.66863 -1.00954 0
M  V30 40061 H 3705.79 2.8462 -2.63843 0
M  V30 40062 H 3703.89 3.71141 -0.329446 0
M  V30 40063 H 3704 4.2961 -2.12066 0
M  V30 40064 H 3702.37 2.32508 -1.03981 0
M  V30 40065 H 3703.15 2.12177 -2.69881 0
M  V30 40066 N 3705.6 0.895838 1.29663 0
M  V30 40067 C 3706.82 0.534368 2.00398 0
M  V30 40068 C 3707.25 -0.872625 1.66634 0
M  V30 40069 O 3706.6 -1.58017 0.888839 0
M  V30 40070 C 3706.65 0.729085 3.53153 0
M  V30 40071 O 3705.76 -0.220158 4.11812 0
M  V30 40072 H 3705.1 0.209244 0.630169 0
M  V30 40073 H 3707.63 1.20637 1.65251 0
M  V30 40074 H 3707.64 0.63225 4.03071 0
M  V30 40075 H 3706.31 1.75487 3.77064 0
M  V30 40076 H 3704.89 -0.0761031 3.72822 0
M  V30 40077 N 3707.07 -1.43211 0.657914 0
M  V30 40078 C 3708.02 -2.30779 -0.0308191 0
M  V30 40079 C 3708.99 -1.45015 -0.809925 0
M  V30 40080 O 3710.18 -1.73877 -0.785584 0
M  V30 40081 C 3707.32 -3.30655 -0.98799 0
M  V30 40082 C 3706.43 -4.31516 -0.204491 0
M  V30 40083 C 3705.56 -5.18472 -1.15588 0
M  V30 40084 C 3704.6 -6.11022 -0.36309 0
M  V30 40085 N 3703.74 -6.90586 -1.26632 0
M  V30 40086 H 3708.58 -2.89126 0.721796 0
M  V30 40087 H 3706.12 -1.4243 0.367702 0
M  V30 40088 H 3708.08 -3.87074 -1.55659 0
M  V30 40089 H 3706.71 -2.73947 -1.70743 0
M  V30 40090 H 3705.76 -3.77353 0.480476 0
M  V30 40091 H 3707.07 -4.97097 0.411771 0
M  V30 40092 H 3706.22 -5.79539 -1.79497 0
M  V30 40093 H 3704.96 -4.53027 -1.80605 0
M  V30 40094 H 3703.97 -5.49038 0.289316 0
M  V30 40095 H 3705.19 -6.78511 0.282739 0
M  V30 40096 H 3703.14 -6.27785 -1.9032 0
M  V30 40097 H 3703.06 -7.52708 -0.704728 0
M  V30 40098 H 3704.32 -7.56155 -1.8934 0
M  V30 40099 N 3708.55 -0.400135 -1.52436 0
M  V30 40100 C 3709.83 0.236676 -1.94163 0
M  V30 40101 C 3710.21 1.63413 -1.33639 0
M  V30 40102 O 3709.56 2.22766 -0.508682 0
M  V30 40103 C 3709.77 0.252098 -3.48088 0
M  V30 40104 C 3711.12 0.475812 -4.21926 0
M  V30 40105 O 3712.14 0.331843 -3.54651 0
M  V30 40106 O 3711 0.7588 -5.41207 0
M  V30 40107 H 3708.09 0.149926 -0.813296 0
M  V30 40108 H 3710.64 -0.455428 -1.63475 0
M  V30 40109 H 3709.41 -0.726331 -3.845 0
M  V30 40110 H 3709.03 0.988675 -3.85112 0
M  V30 40111 N 3710.03 1.57061 -0.13028 0
M  V30 40112 C 3710.94 2.19459 0.829159 0
M  V30 40113 C 3711.96 1.17397 1.28428 0
M  V30 40114 O 3713.13 1.49911 1.34494 0
M  V30 40115 C 3710.2 2.79069 2.05722 0
M  V30 40116 C 3709.26 3.96203 1.65294 0
M  V30 40117 C 3708.49 4.52961 2.82245 0
M  V30 40118 O 3708.71 4.08605 3.97992 0
M  V30 40119 O 3707.65 5.43478 2.5868 0
M  V30 40120 H 3711.47 3.01923 0.328086 0
M  V30 40121 H 3709.06 1.49092 0.0959099 0
M  V30 40122 H 3710.94 3.17022 2.77624 0
M  V30 40123 H 3709.62 1.99629 2.54814 0
M  V30 40124 H 3708.52 3.62997 0.904648 0
M  V30 40125 H 3709.86 4.77112 1.20933 0
M  V30 40126 N 3711.51 -0.143508 1.56945 0
M  V30 40127 C 3712.92 -0.703218 1.7295 0
M  V30 40128 C 3713.27 -1.81496 0.745225 0
M  V30 40129 O 3712.4 -2.16224 -0.0873764 0
M  V30 40130 C 3712.99 -1.28239 3.13593 0
M  V30 40131 C 3711.55 -1.78863 3.31187 0
M  V30 40132 C 3710.7 -0.678484 2.68872 0
M  V30 40133 H 3713.65 0.0821943 1.58487 0
M  V30 40134 H 3713.67 -2.15218 3.13785 0
M  V30 40135 H 3713.18 -0.473019 3.85207 0
M  V30 40136 H 3711.28 -2.62356 2.64576 0
M  V30 40137 H 3711.4 -1.91494 4.39166 0
M  V30 40138 H 3709.76 -1.10599 2.29434 0
M  V30 40139 H 3710.54 0.119497 3.43092 0
M  V30 40140 N 3712.99 -1.52093 -0.412964 0
M  V30 40141 C 3713.92 -1.78119 -1.50983 0
M  V30 40142 C 3714.9 -0.631991 -1.57924 0
M  V30 40143 O 3716.08 -0.877198 -1.7326 0
M  V30 40144 C 3713.21 -1.9284 -2.88843 0
M  V30 40145 C 3712.17 -3.08417 -2.96754 0
M  V30 40146 C 3711.49 -3.08355 -4.36831 0
M  V30 40147 C 3712.79 -4.47947 -2.68591 0
M  V30 40148 H 3714.49 -2.69967 -1.29454 0
M  V30 40149 H 3712.03 -1.29906 -0.621325 0
M  V30 40150 H 3713.99 -2.0963 -3.65559 0
M  V30 40151 H 3712.71 -0.976607 -3.11657 0
M  V30 40152 H 3711.37 -2.91371 -2.22482 0
M  V30 40153 H 3711.02 -2.10905 -4.56649 0
M  V30 40154 H 3710.72 -3.8598 -4.4305 0
M  V30 40155 H 3712.24 -3.27269 -5.15487 0
M  V30 40156 H 3713.66 -4.65217 -3.35031 0
M  V30 40157 H 3712.05 -5.27461 -2.8619 0
M  V30 40158 H 3713.12 -4.56306 -1.6405 0
M  V30 40159 N 3714.47 0.669957 -1.42651 0
M  V30 40160 C 3715.71 1.42999 -1.43379 0
M  V30 40161 C 3716.04 1.94431 -0.0519728 0
M  V30 40162 O 3715.3 1.71623 0.940426 0
M  V30 40163 C 3715.59 2.63995 -2.40918 0
M  V30 40164 C 3715.26 2.31078 -3.87187 0
M  V30 40165 C 3713.92 2.21812 -4.27028 0
M  V30 40166 C 3716.27 2.04439 -4.79431 0
M  V30 40167 C 3713.6 1.84039 -5.57087 0
M  V30 40168 C 3715.95 1.68168 -6.09838 0
M  V30 40169 C 3714.62 1.57416 -6.48673 0
M  V30 40170 H 3713.89 0.523271 -0.524661 0
M  V30 40171 H 3716.54 0.763463 -1.75623 0
M  V30 40172 H 3714.84 3.35702 -2.02018 0
M  V30 40173 H 3716.54 3.22185 -2.38743 0
M  V30 40174 H 3713.13 2.39194 -3.55646 0
M  V30 40175 H 3717.31 2.10528 -4.49435 0
M  V30 40176 H 3712.57 1.74287 -5.86032 0
M  V30 40177 H 3716.74 1.46582 -6.80798 0
M  V30 40178 H 3714.37 1.27917 -7.49361 0
M  V30 40179 N 3715.94 1.28904 0.90673 0
M  V30 40180 C 3716.91 1.13443 1.99156 0
M  V30 40181 C 3717.91 0.0719834 1.60639 0
M  V30 40182 O 3719.1 0.318347 1.71266 0
M  V30 40183 C 3716.23 0.733231 3.32921 0
M  V30 40184 H 3717.42 2.09798 2.14301 0
M  V30 40185 H 3714.97 1.1199 1.09032 0
M  V30 40186 H 3715.71 -0.230769 3.23478 0
M  V30 40187 H 3715.49 1.5008 3.62241 0
M  V30 40188 H 3716.98 0.647912 4.12543 0
M  V30 40189 N 3717.42 -1.11614 1.11266 0
M  V30 40190 C 3718.38 -2.15784 0.772638 0
M  V30 40191 C 3719.38 -1.59461 -0.207117 0
M  V30 40192 O 3720.57 -1.74192 0.0171359 0
M  V30 40193 C 3717.71 -3.40587 0.145987 0
M  V30 40194 H 3718.9 -2.47376 1.69543 0
M  V30 40195 H 3716.45 -1.26768 0.9143 0
M  V30 40196 H 3717.19 -3.14603 -0.787123 0
M  V30 40197 H 3716.97 -3.82749 0.851228 0
M  V30 40198 H 3718.46 -4.17531 -0.0758442 0
M  V30 40199 N 3718.9 -0.902701 -1.29186 0
M  V30 40200 C 3720.32 -0.599235 -1.47923 0
M  V30 40201 C 3720.52 0.858462 -1.82298 0
M  V30 40202 O 3719.57 1.63841 -1.92126 0
M  V30 40203 C 3720.88 -1.52764 -2.59005 0
M  V30 40204 C 3722.43 -1.53316 -2.72879 0
M  V30 40205 C 3722.91 -2.44792 -3.87093 0
M  V30 40206 N 3724.4 -2.42856 -3.9443 0
M  V30 40207 C 3725.13 -3.10338 -4.82159 0
M  V30 40208 N 3724.63 -3.87111 -5.74558 0
M  V30 40209 N 3726.42 -2.99481 -4.75676 0
M  V30 40210 H 3718.57 -1.84546 -1.05151 0
M  V30 40211 H 3720.84 -0.790933 -0.522618 0
M  V30 40212 H 3720.54 -2.56638 -2.40478 0
M  V30 40213 H 3720.42 -1.25042 -3.55871 0
M  V30 40214 H 3722.8 -0.501855 -2.90801 0
M  V30 40215 H 3722.88 -1.85077 -1.76579 0
M  V30 40216 H 3722.53 -3.48019 -3.69926 0
M  V30 40217 H 3722.46 -2.10339 -4.82768 0
M  V30 40218 H 3724.95 -1.8708 -3.28344 0
M  V30 40219 H 3725.26 -4.3565 -6.38302 0
M  V30 40220 H 3723.61 -3.91217 -5.74434 0
M  V30 40221 H 3726.8 -2.39016 -4.02478 0
M  V30 40222 H 3726.97 -3.52347 -5.43834 0
M  V30 40223 N 3720.38 1.4286 -0.6655 0
M  V30 40224 C 3721.62 2.01962 -0.184192 0
M  V30 40225 C 3721.96 1.52453 1.20298 0
M  V30 40226 O 3721.23 0.722788 1.80571 0
M  V30 40227 C 3721.51 3.59496 -0.20856 0
M  V30 40228 C 3721.37 4.19206 -1.63053 0
M  V30 40229 C 3722.69 4.3781 0.448344 0
M  V30 40230 H 3719.81 0.733819 -0.0684053 0
M  V30 40231 H 3722.45 1.7 -0.84852 0
M  V30 40232 H 3720.6 3.86855 0.357111 0
M  V30 40233 H 3722.27 4.02833 -2.24773 0
M  V30 40234 H 3720.51 3.75388 -2.17407 0
M  V30 40235 H 3721.18 5.28323 -1.59934 0
M  V30 40236 H 3723.66 4.16087 -0.0330784 0
M  V30 40237 H 3722.54 5.47436 0.400616 0
M  V30 40238 H 3722.8 4.14985 1.52446 0
M  V30 40239 N 3721.86 0.408213 1.52221 0
M  V30 40240 C 3723.1 -0.168119 2.02102 0
M  V30 40241 C 3723.43 -1.44868 1.29333 0
M  V30 40242 O 3722.71 -1.90356 0.39937 0
M  V30 40243 C 3722.99 -0.416758 3.5768 0
M  V30 40244 C 3722.85 0.880412 4.411 0
M  V30 40245 C 3724.16 -1.19929 4.23444 0
M  V30 40246 H 3721.28 -0.0596273 0.734584 0
M  V30 40247 H 3723.93 0.541499 1.8212 0
M  V30 40248 H 3722.08 -1.02124 3.74837 0
M  V30 40249 H 3723.75 1.51664 4.35656 0
M  V30 40250 H 3721.99 1.49159 4.0735 0
M  V30 40251 H 3722.66 0.660845 5.4803 0
M  V30 40252 H 3725.14 -0.687533 4.10381 0
M  V30 40253 H 3724.01 -1.34201 5.32242 0
M  V30 40254 H 3724.27 -2.21966 3.82339 0
M  V30 40255 N 3723.33 -1.56989 0.138607 0
M  V30 40256 C 3724.56 -1.99922 -0.521014 0
M  V30 40257 C 3724.97 -1.01757 -1.59506 0
M  V30 40258 O 3724.31 -0.00525142 -1.83699 0
M  V30 40259 C 3724.38 -3.39286 -1.1885 0
M  V30 40260 C 3724.04 -4.56259 -0.260064 0
M  V30 40261 C 3725.04 -5.17402 0.50901 0
M  V30 40262 C 3722.72 -5.02028 -0.165416 0
M  V30 40263 C 3724.72 -6.22716 1.36026 0
M  V30 40264 C 3722.4 -6.07198 0.689453 0
M  V30 40265 C 3723.4 -6.67411 1.45091 0
M  V30 40266 O 3723.09 -7.70547 2.29155 0
M  V30 40267 H 3722.82 -0.661158 -0.140878 0
M  V30 40268 H 3725.38 -2.04135 0.227653 0
M  V30 40269 H 3723.61 -3.31887 -1.98464 0
M  V30 40270 H 3725.29 -3.66381 -1.747 0
M  V30 40271 H 3726.06 -4.82946 0.445872 0
M  V30 40272 H 3721.94 -4.54894 -0.747823 0
M  V30 40273 H 3725.48 -6.69644 1.95508 0
M  V30 40274 H 3721.38 -6.41082 0.753913 0
M  V30 40275 H 3722.15 -7.87731 2.2231 0
M  V30 40276 N 3724.81 0.135183 -1.57019 0
M  V30 40277 C 3726.09 0.875159 -1.7493 0
M  V30 40278 C 3726.47 1.98809 -0.70979 0
M  V30 40279 O 3725.82 2.26909 0.269198 0
M  V30 40280 C 3726.03 1.40675 -3.19392 0
M  V30 40281 C 3727.37 1.8655 -3.81424 0
M  V30 40282 O 3728.4 1.50391 -3.22895 0
M  V30 40283 O 3727.26 2.53274 -4.84267 0
M  V30 40284 H 3724.35 0.414418 -0.715672 0
M  V30 40285 H 3726.9 0.120185 -1.69274 0
M  V30 40286 H 3725.67 0.607496 -3.86556 0
M  V30 40287 H 3725.29 2.2249 -3.29521 0
M  V30 40288 N 3726.29 1.5231 0.404892 0
M  V30 40289 C 3727.22 1.78917 1.50036 0
M  V30 40290 C 3728.2 0.640357 1.57586 0
M  V30 40291 O 3729.39 0.886374 1.72792 0
M  V30 40292 C 3726.52 1.94369 2.87816 0
M  V30 40293 C 3725.47 3.09986 2.95114 0
M  V30 40294 C 3724.8 3.10667 4.3519 0
M  V30 40295 C 3726.1 4.49365 2.66211 0
M  V30 40296 H 3727.79 2.70649 1.2802 0
M  V30 40297 H 3725.34 1.30234 0.614427 0
M  V30 40298 H 3727.29 2.11565 3.64442 0
M  V30 40299 H 3726.01 0.993122 3.11134 0
M  V30 40300 H 3724.67 2.92547 2.20934 0
M  V30 40301 H 3724.32 2.13324 4.55524 0
M  V30 40302 H 3724.02 3.88325 4.40996 0
M  V30 40303 H 3725.54 3.29999 5.13744 0
M  V30 40304 H 3726.96 4.66988 3.32559 0
M  V30 40305 H 3725.36 5.28972 2.83388 0
M  V30 40306 H 3726.43 4.5717 1.61628 0
M  V30 40307 N 3727.77 -0.662382 1.43004 0
M  V30 40308 C 3728.7 -1.78737 1.50251 0
M  V30 40309 C 3729.68 -1.66291 0.357963 0
M  V30 40310 O 3730.86 -1.85525 0.573952 0
M  V30 40311 C 3727.99 -3.17112 1.41624 0
M  V30 40312 C 3726.95 -3.4431 2.54234 0
M  V30 40313 C 3726.27 -4.82389 2.30662 0
M  V30 40314 C 3727.57 -3.39965 3.96511 0
M  V30 40315 H 3729.27 -1.72929 2.44409 0
M  V30 40316 H 3726.81 -0.830548 1.17635 0
M  V30 40317 H 3728.77 -3.95558 1.45299 0
M  V30 40318 H 3727.49 -3.23627 0.439662 0
M  V30 40319 H 3726.15 -2.6823 2.49896 0
M  V30 40320 H 3725.8 -4.85569 1.31268 0
M  V30 40321 H 3725.5 -5.01548 3.06142 0
M  V30 40322 H 3727.02 -5.63104 2.36106 0
M  V30 40323 H 3728.44 -4.08361 4.02385 0
M  V30 40324 H 3726.83 -3.7066 4.71944 0
M  V30 40325 H 3727.9 -2.3831 4.22299 0
M  V30 40326 N 3729.25 -1.29383 -0.899882 0
M  V30 40327 C 3730.49 -1.17344 -1.65036 0
M  V30 40328 C 3730.82 0.275101 -1.92545 0
M  V30 40329 O 3730.08 1.21514 -1.53404 0
M  V30 40330 C 3730.38 -1.93191 -3.00686 0
M  V30 40331 C 3730.04 -3.4291 -2.92786 0
M  V30 40332 C 3728.7 -3.83741 -2.90339 0
M  V30 40333 C 3731.06 -4.38317 -2.82007 0
M  V30 40334 C 3728.38 -5.18295 -2.74931 0
M  V30 40335 C 3730.74 -5.72961 -2.68139 0
M  V30 40336 C 3729.4 -6.1305 -2.64058 0
M  V30 40337 H 3728.67 -0.429391 -0.603908 0
M  V30 40338 H 3731.32 -1.60318 -1.0474 0
M  V30 40339 H 3729.62 -1.42807 -3.64847 0
M  V30 40340 H 3731.32 -1.8128 -3.57685 0
M  V30 40341 H 3727.91 -3.10454 -2.95493 0
M  V30 40342 H 3732.09 -4.07724 -2.82975 0
M  V30 40343 H 3727.35 -5.48466 -2.70176 0
M  V30 40344 H 3731.52 -6.46538 -2.5877 0
M  V30 40345 H 3729.15 -7.1726 -2.51877 0
M  V30 40346 N 3730.72 1.11022 -1.11856 0
M  V30 40347 C 3731.95 1.86378 -0.891452 0
M  V30 40348 C 3732.36 1.80645 0.562485 0
M  V30 40349 O 3731.71 1.18895 1.40035 0
M  V30 40350 C 3731.77 3.35928 -1.28035 0
M  V30 40351 C 3731.43 3.65425 -2.74434 0
M  V30 40352 C 3732.43 3.62538 -3.72642 0
M  V30 40353 C 3730.11 3.94293 -3.11189 0
M  V30 40354 C 3732.11 3.88104 -5.05622 0
M  V30 40355 C 3729.79 4.19516 -4.44353 0
M  V30 40356 C 3730.79 4.16411 -5.41379 0
M  V30 40357 O 3730.48 4.40997 -6.72143 0
M  V30 40358 H 3730.21 0.596094 -0.318823 0
M  V30 40359 H 3732.77 1.41304 -1.49071 0
M  V30 40360 H 3731 3.81628 -0.624253 0
M  V30 40361 H 3732.69 3.92658 -1.02834 0
M  V30 40362 H 3733.45 3.40281 -3.45592 0
M  V30 40363 H 3729.33 3.95844 -2.36281 0
M  V30 40364 H 3732.87 3.85596 -5.81345 0
M  V30 40365 H 3728.77 4.41251 -4.71135 0
M  V30 40366 H 3729.54 4.58543 -6.77997 0
M  V30 40367 N 3732.2 0.90954 1.28706 0
M  V30 40368 C 3733.45 0.540515 1.95153 0
M  V30 40369 C 3733.78 -0.91503 1.71632 0
M  V30 40370 O 3733.03 -1.66532 1.02789 0
M  V30 40371 C 3733.33 0.791098 3.48535 0
M  V30 40372 C 3733 2.22553 3.92149 0
M  V30 40373 C 3731.66 2.61773 4.03768 0
M  V30 40374 C 3734.01 3.15919 4.14541 0
M  V30 40375 C 3731.34 3.93519 4.35155 0
M  V30 40376 C 3733.69 4.47226 4.47406 0
M  V30 40377 C 3732.36 4.86304 4.57236 0
M  V30 40378 H 3731.63 0.197788 0.714115 0
M  V30 40379 H 3734.27 1.15007 1.5312 0
M  V30 40380 H 3732.58 0.0987101 3.91676 0
M  V30 40381 H 3734.27 0.48481 3.98059 0
M  V30 40382 H 3730.86 1.91119 3.83629 0
M  V30 40383 H 3735.05 2.86829 4.05022 0
M  V30 40384 H 3730.3 4.23504 4.4097 0
M  V30 40385 H 3734.48 5.19589 4.63681 0
M  V30 40386 H 3732.11 5.88425 4.81311 0
M  V30 40387 N 3733.68 -1.42505 0.673067 0
M  V30 40388 C 3734.93 -2.00786 0.191835 0
M  V30 40389 C 3735.24 -1.53831 -1.20812 0
M  V30 40390 O 3736.45 -2.04518 -1.78563 0
M  V30 40391 C 3734.9 -3.58713 0.292108 0
M  V30 40392 C 3734.51 -4.14656 1.696 0
M  V30 40393 C 3736.26 -4.24299 -0.130501 0
M  V30 40394 C 3734.16 -5.64942 1.74914 0
M  V30 40395 H 3733.09 -0.750931 0.0679584 0
M  V30 40396 H 3735.74 -1.63248 0.837997 0
M  V30 40397 H 3734.13 -3.93746 -0.421916 0
M  V30 40398 H 3735.3 -3.91086 2.43697 0
M  V30 40399 H 3733.62 -3.61514 2.06631 0
M  V30 40400 H 3736.21 -5.34585 -0.110926 0
M  V30 40401 H 3736.56 -3.99653 -1.16545 0
M  V30 40402 H 3737.09 -3.9422 0.532456 0
M  V30 40403 H 3733.83 -5.94383 2.76385 0
M  V30 40404 H 3733.35 -5.90508 1.0517 0
M  V30 40405 H 3735.03 -6.29329 1.50179 0
M  V30 40406 N 3735.16 -0.41628 -1.52003 0
M  V30 40407 C 3736.4 0.157398 -2.02188 0
M  V30 40408 C 3736.74 1.4418 -1.30099 0
M  V30 40409 O 3736.01 1.90141 -0.409459 0
M  V30 40410 C 3736.3 0.397784 -3.57896 0
M  V30 40411 C 3736.15 -0.903792 -4.40626 0
M  V30 40412 C 3737.47 1.17681 -4.24074 0
M  V30 40413 H 3734.59 0.0557308 -0.73489 0
M  V30 40414 H 3737.23 -0.55115 -1.81831 0
M  V30 40415 H 3735.38 1.00135 -3.75373 0
M  V30 40416 H 3737.05 -1.53972 -4.34845 0
M  V30 40417 H 3735.29 -1.51317 -4.06553 0
M  V30 40418 H 3735.96 -0.689899 -5.47672 0
M  V30 40419 H 3738.44 0.66576 -4.10739 0
M  V30 40420 H 3737.32 1.31376 -5.32946 0
M  V30 40421 H 3737.58 2.19936 -3.83511 0
M  V30 40422 N 3736.64 1.56914 -0.146931 0
M  V30 40423 C 3737.89 1.95297 0.50416 0
M  V30 40424 C 3738.2 1.03429 1.66017 0
M  V30 40425 O 3739.4 1.31392 2.37589 0
M  V30 40426 C 3737.86 3.47182 0.948287 0
M  V30 40427 C 3737.47 4.47635 -0.180789 0
M  V30 40428 C 3739.21 3.94433 1.56917 0
M  V30 40429 C 3737.12 5.90729 0.281603 0
M  V30 40430 H 3736.05 0.729115 0.192114 0
M  V30 40431 H 3738.7 1.82037 -0.231264 0
M  V30 40432 H 3737.08 3.55775 1.73897 0
M  V30 40433 H 3738.26 4.50737 -0.957724 0
M  V30 40434 H 3736.57 4.10301 -0.710079 0
M  V30 40435 H 3739.17 4.98779 1.92675 0
M  V30 40436 H 3739.51 3.35981 2.4581 0
M  V30 40437 H 3740.04 3.88757 0.843388 0
M  V30 40438 H 3736.78 6.53 -0.571954 0
M  V30 40439 H 3736.3 5.90987 1.02442 0
M  V30 40440 H 3737.98 6.42827 0.733633 0
M  V30 40441 N 3738.11 -0.126854 1.57089 0
M  V30 40442 C 3739.36 -0.83455 1.83625 0
M  V30 40443 C 3739.68 -1.81412 0.731363 0
M  V30 40444 O 3740.88 -2.56743 0.882905 0
M  V30 40445 C 3739.34 -1.53484 3.25531 0
M  V30 40446 C 3738.95 -0.596652 4.44009 0
M  V30 40447 C 3740.69 -2.22813 3.61323 0
M  V30 40448 C 3738.6 -1.29972 5.76941 0
M  V30 40449 H 3737.53 -0.315402 0.684863 0
M  V30 40450 H 3740.18 -0.0872728 1.83292 0
M  V30 40451 H 3738.56 -2.32846 3.2031 0
M  V30 40452 H 3739.73 0.16319 4.60511 0
M  V30 40453 H 3738.05 -0.0107349 4.16399 0
M  V30 40454 H 3740.65 -2.7609 4.57907 0
M  V30 40455 H 3740.99 -3.00249 2.88369 0
M  V30 40456 H 3741.52 -1.50347 3.68294 0
M  V30 40457 H 3738.26 -0.56681 6.53045 0
M  V30 40458 H 3737.78 -2.03177 5.6434 0
M  V30 40459 H 3739.46 -1.83509 6.2043 0
M  V30 40460 N 3739.59 -1.52523 -0.396809 0
M  V30 40461 C 3740.84 -1.66411 -1.13975 0
M  V30 40462 C 3741.15 -0.40636 -1.91332 0
M  V30 40463 O 3742.36 -0.425242 -2.68149 0
M  V30 40464 C 3740.82 -2.94056 -2.07507 0
M  V30 40465 C 3740.42 -4.26983 -1.35608 0
M  V30 40466 C 3742.17 -3.17309 -2.81984 0
M  V30 40467 C 3740.08 -5.45741 -2.2786 0
M  V30 40468 H 3739.01 -0.619943 -0.42917 0
M  V30 40469 H 3741.66 -1.79016 -0.403176 0
M  V30 40470 H 3740.04 -2.75179 -2.84768 0
M  V30 40471 H 3741.21 -4.56386 -0.636269 0
M  V30 40472 H 3739.53 -4.09929 -0.731225 0
M  V30 40473 H 3742.12 -4.03214 -3.51173 0
M  V30 40474 H 3742.47 -2.32054 -3.45625 0
M  V30 40475 H 3743 -3.36716 -2.11818 0
M  V30 40476 H 3739.74 -6.33381 -1.68847 0
M  V30 40477 H 3739.26 -5.2066 -2.9778 0
M  V30 40478 H 3740.94 -5.79308 -2.88116 0
M  V30 40479 N 3741.07 0.654789 -1.43354 0
M  V30 40480 C 3742.32 1.4168 -1.45102 0
M  V30 40481 C 3742.65 1.94057 -0.0744205 0
M  V30 40482 O 3741.93 1.7219 0.904484 0
M  V30 40483 C 3742.21 2.59937 -2.49209 0
M  V30 40484 C 3742.06 2.13062 -3.96137 0
M  V30 40485 C 3743.38 3.62151 -2.5007 0
M  V30 40486 H 3740.5 0.513826 -0.528348 0
M  V30 40487 H 3743.14 0.742458 -1.74893 0
M  V30 40488 H 3741.29 3.17466 -2.23936 0
M  V30 40489 H 3742.96 1.60545 -4.32462 0
M  V30 40490 H 3741.21 1.44448 -4.09044 0
M  V30 40491 H 3741.88 2.98093 -4.64591 0
M  V30 40492 H 3744.35 3.14377 -2.72592 0
M  V30 40493 H 3743.23 4.42447 -3.24857 0
M  V30 40494 H 3743.49 4.14636 -1.53392 0
M  V30 40495 N 3742.55 1.29858 0.893007 0
M  V30 40496 C 3743.48 1.1812 2.0142 0
M  V30 40497 C 3744.46 0.0737786 1.6994 0
M  V30 40498 O 3745.65 0.254421 1.92526 0
M  V30 40499 C 3742.78 0.863901 3.36384 0
M  V30 40500 C 3741.73 1.92838 3.82096 0
M  V30 40501 C 3741.06 1.46424 5.14261 0
M  V30 40502 C 3742.36 3.33826 4.01693 0
M  V30 40503 H 3744.05 2.11917 2.11498 0
M  V30 40504 H 3741.6 1.02026 1.01621 0
M  V30 40505 H 3743.55 0.76847 4.14334 0
M  V30 40506 H 3742.27 -0.109758 3.26416 0
M  V30 40507 H 3740.93 2.01331 3.06368 0
M  V30 40508 H 3740.58 0.479071 5.00713 0
M  V30 40509 H 3740.28 2.17618 5.45817 0
M  V30 40510 H 3741.8 1.38244 5.94744 0
M  V30 40511 H 3743.22 3.28137 4.70105 0
M  V30 40512 H 3741.61 4.03037 4.44614 0
M  V30 40513 H 3742.68 3.76309 3.05809 0
M  V30 40514 N 3744.03 -1.10427 1.12443 0
M  V30 40515 C 3744.98 -2.18859 0.787616 0
M  V30 40516 C 3745.97 -1.67891 -0.225573 0
M  V30 40517 O 3747.18 -1.79805 -0.0837712 0
M  V30 40518 H 3743.55 -0.71372 0.236871 0
M  V30 40519 H 3745.52 -2.44507 1.71052 0
M  V30 40520 C 3744.27 -3.46737 0.258601 0
M  V30 40521 H 3743.59 -3.86317 1.02952 0
M  V30 40522 H 3745.03 -4.23956 0.0612387 0
M  V30 40523 C 3743.49 -3.21295 -1.01348 0
M  V30 40524 O 3744.02 -3.42971 -2.09126 0
M  V30 40525 N 3742.23 -2.74962 -0.940449 0
M  V30 40526 H 3741.78 -2.57522 -0.0632509 0
M  V30 40527 H 3741.73 -2.58316 -1.79221 0
M  V30 40528 N 3745.51 -0.916353 -1.28221 0
M  V30 40529 C 3746.44 -0.423776 -2.29622 0
M  V30 40530 C 3747.42 0.509987 -1.62275 0
M  V30 40531 O 3748.6 0.417166 -1.89666 0
M  V30 40532 C 3745.73 0.334625 -3.45684 0
M  V30 40533 C 3744.69 -0.510243 -4.24948 0
M  V30 40534 C 3744.01 0.376652 -5.33372 0
M  V30 40535 C 3745.31 -1.76886 -4.91435 0
M  V30 40536 H 3747.01 -1.2712 -2.71074 0
M  V30 40537 H 3744.55 -0.612701 -1.30315 0
M  V30 40538 H 3746.5 0.690081 -4.15711 0
M  V30 40539 H 3745.23 1.21597 -3.0312 0
M  V30 40540 H 3743.89 -0.848253 -3.56651 0
M  V30 40541 H 3743.54 1.25662 -4.8705 0
M  V30 40542 H 3743.24 -0.185063 -5.87309 0
M  V30 40543 H 3744.76 0.727932 -6.06245 0
M  V30 40544 H 3746.17 -1.48215 -5.5381 0
M  V30 40545 H 3744.57 -2.27318 -5.5538 0
M  V30 40546 H 3745.64 -2.49512 -4.15778 0
M  V30 40547 N 3746.98 1.42146 -0.680615 0
M  V30 40548 C 3748.23 2.00681 -0.20248 0
M  V30 40549 C 3748.55 1.54469 1.19994 0
M  V30 40550 O 3749.75 2.05462 1.77475 0
M  V30 40551 C 3748.21 3.58553 -0.311127 0
M  V30 40552 C 3747.82 4.13751 -1.71797 0
M  V30 40553 C 3749.56 4.24363 0.107997 0
M  V30 40554 C 3747.47 5.64006 -1.77907 0
M  V30 40555 H 3746.4 0.75056 -0.0719398 0
M  V30 40556 H 3749.05 1.62801 -0.846642 0
M  V30 40557 H 3747.43 3.93964 0.401029 0
M  V30 40558 H 3748.6 3.89788 -2.45768 0
M  V30 40559 H 3746.92 3.60413 -2.08545 0
M  V30 40560 H 3749.52 5.34636 0.0825744 0
M  V30 40561 H 3749.86 4.00266 1.14424 0
M  V30 40562 H 3750.39 3.93933 -0.553355 0
M  V30 40563 H 3747.13 5.92909 -2.79533 0
M  V30 40564 H 3746.65 5.89942 -1.083 0
M  V30 40565 H 3748.33 6.28524 -1.53515 0
M  V30 40566 N 3748.46 0.424336 1.5178 0
M  V30 40567 C 3749.71 -0.146457 2.0197 0
M  V30 40568 C 3750.04 -1.43841 1.3092 0
M  V30 40569 O 3749.29 -1.91384 0.408739 0
M  V30 40570 C 3749.59 -0.425678 3.54856 0
M  V30 40571 C 3749.26 0.778893 4.44122 0
M  V30 40572 C 3747.92 1.10926 4.6824 0
M  V30 40573 C 3750.27 1.58308 4.96576 0
M  V30 40574 C 3747.6 2.24473 5.4206 0
M  V30 40575 C 3749.95 2.70944 5.7164 0
M  V30 40576 C 3748.61 3.0445 5.94026 0
M  V30 40577 H 3747.88 -0.0535922 0.739059 0
M  V30 40578 H 3750.53 0.568871 1.82855 0
M  V30 40579 H 3748.84 -1.22275 3.72231 0
M  V30 40580 H 3750.53 -0.880529 3.91213 0
M  V30 40581 H 3747.12 0.511438 4.25538 0
M  V30 40582 H 3751.31 1.34106 4.77838 0
M  V30 40583 H 3746.56 2.50762 5.57609 0
M  V30 40584 H 3750.74 3.33635 6.11278 0
M  V30 40585 H 3748.36 3.92548 6.51007 0
M  V30 40586 N 3749.94 -1.56833 0.15525 0
M  V30 40587 C 3751.19 -1.95999 -0.492816 0
M  V30 40588 C 3751.51 -1.04153 -1.64855 0
M  V30 40589 O 3750.78 -0.104689 -1.9562 0
M  V30 40590 H 3749.36 -0.723716 -0.18505 0
M  V30 40591 H 3752.02 -1.93506 0.232678 0
M  V30 40592 H 3751.12 -2.99917 -0.863499 0
M  V30 40593 N 3751.42 0.118521 -1.57154 0
M  V30 40594 C 3752.66 0.827447 -1.85152 0
M  V30 40595 C 3753 1.79505 -0.741058 0
M  V30 40596 O 3752.27 1.92847 0.253061 0
M  V30 40597 C 3752.55 1.57692 -3.23736 0
M  V30 40598 C 3752.41 0.628889 -4.45382 0
M  V30 40599 C 3753.73 2.53299 -3.599 0
M  V30 40600 H 3750.85 0.299358 -0.673464 0
M  V30 40601 H 3753.49 0.0916864 -1.89779 0
M  V30 40602 H 3751.64 2.20412 -3.19923 0
M  V30 40603 H 3753.31 0.0104935 -4.61299 0
M  V30 40604 H 3751.55 -0.0595382 -4.33759 0
M  V30 40605 H 3752.22 1.18994 -5.39022 0
M  V30 40606 H 3754.7 2.00684 -3.64507 0
M  V30 40607 H 3753.58 3.0277 -4.57844 0
M  V30 40608 H 3753.84 3.35985 -2.87344 0
M  V30 40609 N 3752.9 1.52731 0.388715 0
M  V30 40610 C 3754.14 1.67013 1.13091 0
M  V30 40611 C 3754.46 0.416501 1.91114 0
M  V30 40612 O 3755.66 0.439457 2.6792 0
M  V30 40613 C 3754.12 2.95152 2.05944 0
M  V30 40614 C 3753.73 4.27696 1.33342 0
M  V30 40615 C 3755.47 3.188 2.80297 0
M  V30 40616 C 3753.38 5.46942 2.24963 0
M  V30 40617 H 3752.31 0.62221 0.425876 0
M  V30 40618 H 3754.96 1.79227 0.393677 0
M  V30 40619 H 3753.34 2.76685 2.83304 0
M  V30 40620 H 3754.52 4.56717 0.612056 0
M  V30 40621 H 3752.83 4.10311 0.709475 0
M  V30 40622 H 3755.43 4.05071 3.49029 0
M  V30 40623 H 3755.77 2.33883 3.4439 0
M  V30 40624 H 3756.3 3.37835 2.1003 0
M  V30 40625 H 3753.04 6.34267 1.65485 0
M  V30 40626 H 3752.56 5.22232 2.95014 0
M  V30 40627 H 3754.24 5.80828 2.8504 0
M  V30 40628 N 3754.37 -0.647178 1.43699 0
M  V30 40629 C 3755.62 -1.40289 1.4492 0
M  V30 40630 C 3755.94 -1.95439 0.0794587 0
M  V30 40631 O 3757.14 -2.71482 -0.0308574 0
M  V30 40632 C 3755.6 -2.53918 2.55056 0
M  V30 40633 C 3755.21 -2.0535 3.98165 0
M  V30 40634 C 3756.95 -3.31242 2.65479 0
M  V30 40635 C 3754.86 -3.16226 4.99755 0
M  V30 40636 H 3753.79 -0.527134 0.539115 0
M  V30 40637 H 3756.44 -0.697921 1.6971 0
M  V30 40638 H 3754.82 -3.26915 2.23479 0
M  V30 40639 H 3755.99 -1.39325 4.39232 0
M  V30 40640 H 3754.31 -1.40889 3.91841 0
M  V30 40641 H 3756.91 -4.13867 3.38553 0
M  V30 40642 H 3757.25 -3.7967 1.70751 0
M  V30 40643 H 3757.78 -2.65329 2.96387 0
M  V30 40644 H 3754.52 -2.72759 5.96056 0
M  V30 40645 H 3754.04 -3.80944 4.63294 0
M  V30 40646 H 3755.72 -3.81261 5.22732 0
M  V30 40647 N 3755.85 -1.3033 -0.886108 0
M  V30 40648 C 3757.13 -1.09747 -1.6191 0
M  V30 40649 C 3757.51 0.353626 -2.08117 0
M  V30 40650 O 3756.86 1.34492 -1.84727 0
M  V30 40651 C 3757.07 -2.09732 -2.78951 0
M  V30 40652 C 3758.42 -2.41388 -3.49309 0
M  V30 40653 O 3759.44 -2.08033 -2.89138 0
M  V30 40654 O 3758.3 -2.98439 -4.57817 0
M  V30 40655 H 3755.39 -0.421418 -0.711573 0
M  V30 40656 H 3757.94 -1.41752 -0.932984 0
M  V30 40657 H 3756.71 -3.07411 -2.42103 0
M  V30 40658 H 3756.33 -1.78538 -3.5526 0
M  V30 40659 N 3757.33 1.0983 -1.13028 0
M  V30 40660 C 3758.56 1.85691 -0.912493 0
M  V30 40661 C 3758.97 1.80957 0.538526 0
M  V30 40662 O 3758.33 1.20275 1.3726 0
M  V30 40663 C 3758.38 3.33837 -1.3869 0
M  V30 40664 O 3758.1 3.3851 -2.78105 0
M  V30 40665 C 3759.6 4.26553 -1.20695 0
M  V30 40666 H 3756.82 0.586674 -0.32566 0
M  V30 40667 H 3759.37 1.38803 -1.5018 0
M  V30 40668 H 3757.52 3.78168 -0.840683 0
M  V30 40669 H 3757.94 4.30881 -2.99069 0
M  V30 40670 H 3759.41 5.28674 -1.58769 0
M  V30 40671 H 3759.89 4.3895 -0.148188 0
M  V30 40672 H 3760.49 3.88033 -1.74099 0
M  V30 40673 N 3758.81 0.92314 1.27734 0
M  V30 40674 C 3760.06 0.561183 1.94569 0
M  V30 40675 C 3760.38 -0.896775 1.72593 0
M  V30 40676 O 3759.64 -1.65433 1.04549 0
M  V30 40677 C 3759.94 0.82802 3.47676 0
M  V30 40678 C 3759.6 2.267 3.89766 0
M  V30 40679 C 3758.27 2.6604 4.00969 0
M  V30 40680 C 3760.62 3.20298 4.11167 0
M  V30 40681 C 3757.95 3.98112 4.30956 0
M  V30 40682 C 3760.3 4.51946 4.42637 0
M  V30 40683 C 3758.96 4.91127 4.52052 0
M  V30 40684 H 3758.23 0.205351 0.711977 0
M  V30 40685 H 3760.88 1.16624 1.51892 0
M  V30 40686 H 3759.18 0.140247 3.91549 0
M  V30 40687 H 3760.88 0.527002 3.97522 0
M  V30 40688 H 3757.47 1.95177 3.81581 0
M  V30 40689 H 3761.65 2.91109 4.01957 0
M  V30 40690 H 3756.91 4.28157 4.36453 0
M  V30 40691 H 3761.08 5.24478 4.58144 0
M  V30 40692 H 3758.71 5.93497 4.75043 0
M  V30 40693 N 3760.29 -1.41783 0.688143 0
M  V30 40694 C 3761.25 -2.29184 0.0271814 0
M  V30 40695 C 3762.25 -1.44004 -0.715511 0
M  V30 40696 O 3763.44 -1.65239 -0.551513 0
M  V30 40697 C 3760.57 -3.26749 -0.972003 0
M  V30 40698 H 3761.76 -2.89126 0.796631 0
M  V30 40699 H 3759.32 -1.49645 0.451224 0
M  V30 40700 H 3760.05 -2.71772 -1.76948 0
M  V30 40701 H 3759.84 -3.89593 -0.442678 0
M  V30 40702 H 3761.33 -3.92262 -1.43249 0
M  V30 40703 N 3761.76 -0.432379 -1.51553 0
M  V30 40704 C 3763.04 0.195438 -1.94621 0
M  V30 40705 C 3763.42 1.60542 -1.37075 0
M  V30 40706 O 3762.77 2.21637 -0.55582 0
M  V30 40707 C 3762.98 0.178206 -3.48545 0
M  V30 40708 C 3764.33 0.386209 -4.2284 0
M  V30 40709 O 3765.35 0.256541 -3.55275 0
M  V30 40710 O 3764.21 0.643831 -5.42694 0
M  V30 40711 H 3761.3 0.132641 -0.816294 0
M  V30 40712 H 3763.85 -0.49 -1.62472 0
M  V30 40713 H 3762.62 -0.807726 -3.82873 0
M  V30 40714 H 3762.25 0.906764 -3.87122 0
M  V30 40715 N 3763.24 1.56749 -0.163565 0
M  V30 40716 C 3764.17 2.20594 0.765532 0
M  V30 40717 C 3765.15 1.15918 1.24487 0
M  V30 40718 O 3766.34 1.4432 1.29944 0
M  V30 40719 C 3763.47 2.8406 1.99818 0
M  V30 40720 C 3762.42 3.94708 1.65499 0
M  V30 40721 C 3761.75 4.45186 2.96164 0
M  V30 40722 C 3763.05 5.1468 0.88893 0
M  V30 40723 H 3764.74 2.98489 0.233378 0
M  V30 40724 H 3762.29 1.43573 0.11081 0
M  V30 40725 H 3764.24 3.27397 2.6531 0
M  V30 40726 H 3762.97 2.03522 2.55434 0
M  V30 40727 H 3761.62 3.52015 1.02378 0
M  V30 40728 H 3761.27 3.61449 3.49805 0
M  V30 40729 H 3760.97 5.19827 2.73958 0
M  V30 40730 H 3762.5 4.91204 3.62699 0
M  V30 40731 H 3763.91 5.54757 1.44628 0
M  V30 40732 H 3762.31 5.95189 0.766198 0
M  V30 40733 H 3763.38 4.84761 -0.11623 0
M  V30 40734 N 3764.72 -0.110185 1.57214 0
M  V30 40735 C 3766.14 -0.463977 1.52707 0
M  V30 40736 C 3766.34 -1.81368 0.877952 0
M  V30 40737 O 3765.39 -2.482 0.46403 0
M  V30 40738 C 3766.71 -0.440354 2.97458 0
M  V30 40739 C 3768.25 -0.523282 3.08595 0
M  V30 40740 C 3768.73 -0.52996 4.54924 0
M  V30 40741 N 3770.22 -0.591147 4.59412 0
M  V30 40742 C 3770.95 -0.617906 5.70061 0
M  V30 40743 N 3770.45 -0.601779 6.90181 0
M  V30 40744 N 3772.24 -0.661581 5.58193 0
M  V30 40745 H 3764.39 0.774065 1.97793 0
M  V30 40746 H 3766.66 0.286512 0.903668 0
M  V30 40747 H 3766.36 0.483906 3.48355 0
M  V30 40748 H 3766.24 -1.26492 3.55358 0
M  V30 40749 H 3768.62 -1.43796 2.57695 0
M  V30 40750 H 3768.71 0.32914 2.53674 0
M  V30 40751 H 3768.35 0.380712 5.06471 0
M  V30 40752 H 3768.28 -1.39939 5.07666 0
M  V30 40753 H 3770.77 -0.609417 3.72954 0
M  V30 40754 H 3771.08 -0.625064 7.70268 0
M  V30 40755 H 3769.43 -0.569064 6.92666 0
M  V30 40756 H 3772.62 -0.671605 4.63257 0
M  V30 40757 H 3772.79 -0.678967 6.44433 0
M  V30 40758 N 3766.2 -1.52935 -0.38061 0
M  V30 40759 C 3767.42 -1.72577 -1.1503 0
M  V30 40760 C 3767.85 -0.446901 -1.82714 0
M  V30 40761 O 3767.21 0.597974 -1.71155 0
M  V30 40762 C 3767.25 -2.88174 -2.16768 0
M  V30 40763 O 3766.36 -2.55733 -3.23534 0
M  V30 40764 H 3765.7 -0.573602 -0.334479 0
M  V30 40765 H 3768.23 -1.99761 -0.442334 0
M  V30 40766 H 3768.24 -3.1391 -2.60623 0
M  V30 40767 H 3766.91 -3.80946 -1.66893 0
M  V30 40768 H 3765.49 -2.40765 -2.84757 0
M  V30 40769 N 3767.68 0.639548 -1.4404 0
M  V30 40770 C 3768.59 1.78074 -1.52731 0
M  V30 40771 C 3769.6 1.69015 -0.413497 0
M  V30 40772 O 3770.78 1.89942 -0.669625 0
M  V30 40773 C 3767.84 3.14421 -1.46083 0
M  V30 40774 C 3766.9 3.35174 -2.68247 0
M  V30 40775 C 3766.14 4.65016 -2.61907 0
M  V30 40776 O 3766.36 5.4527 -1.6744 0
M  V30 40777 O 3765.29 4.87788 -3.52627 0
M  V30 40778 H 3769.12 1.73696 -2.49125 0
M  V30 40779 H 3766.71 0.799733 -1.26193 0
M  V30 40780 H 3768.59 3.95716 -1.44868 0
M  V30 40781 H 3767.26 3.1936 -0.528292 0
M  V30 40782 H 3766.17 2.5359 -2.75032 0
M  V30 40783 H 3767.5 3.35091 -3.6052 0
M  V30 40784 N 3769.15 1.30798 0.879184 0
M  V30 40785 C 3770.1 1.1767 1.98551 0
M  V30 40786 C 3771.07 0.0647523 1.65974 0
M  V30 40787 O 3772.26 0.235974 1.89335 0
M  V30 40788 C 3769.4 0.880493 3.33678 0
M  V30 40789 C 3768.51 2.07488 3.7891 0
M  V30 40790 C 3767.64 1.71626 5.02711 0
M  V30 40791 C 3766.68 2.87527 5.40366 0
M  V30 40792 N 3765.82 2.51921 6.55347 0
M  V30 40793 H 3770.66 2.12312 2.09111 0
M  V30 40794 H 3768.2 1.05625 1.02381 0
M  V30 40795 H 3770.16 0.68935 4.11465 0
M  V30 40796 H 3768.79 -0.0290716 3.22787 0
M  V30 40797 H 3767.84 2.37709 2.96982 0
M  V30 40798 H 3769.15 2.94266 4.02752 0
M  V30 40799 H 3768.3 1.4892 5.88139 0
M  V30 40800 H 3767.04 0.820265 4.80752 0
M  V30 40801 H 3766.05 3.10891 4.53461 0
M  V30 40802 H 3767.27 3.77821 5.64294 0
M  V30 40803 H 3765.22 1.64834 6.34953 0
M  V30 40804 H 3765.14 3.32229 6.79087 0
M  V30 40805 H 3766.4 2.32586 7.43992 0
M  V30 40806 N 3770.63 -1.09229 1.13608 0
M  V30 40807 C 3771.57 -2.15768 0.773098 0
M  V30 40808 C 3772.58 -1.6149 -0.20612 0
M  V30 40809 O 3773.77 -1.78494 0.0143693 0
M  V30 40810 C 3770.87 -3.38667 0.125534 0
M  V30 40811 C 3770.04 -4.22354 1.13736 0
M  V30 40812 C 3769.1 -5.23673 0.515114 0
M  V30 40813 O 3768.13 -5.56926 1.1757 0
M  V30 40814 N 3769.33 -5.76118 -0.711927 0
M  V30 40815 H 3772.09 -2.47514 1.68988 0
M  V30 40816 H 3769.65 -1.24963 1.02937 0
M  V30 40817 H 3771.65 -4.03564 -0.303038 0
M  V30 40818 H 3770.22 -3.04794 -0.69423 0
M  V30 40819 H 3769.44 -3.53564 1.74315 0
M  V30 40820 H 3770.72 -4.75091 1.82115 0
M  V30 40821 H 3770.12 -5.51321 -1.26735 0
M  V30 40822 H 3768.68 -6.42738 -1.08313 0
M  V30 40823 N 3772.11 -0.929901 -1.27242 0
M  V30 40824 C 3773.06 -0.429326 -2.26772 0
M  V30 40825 C 3774.03 0.504952 -1.58239 0
M  V30 40826 O 3775.21 0.423629 -1.86038 0
M  V30 40827 C 3772.35 0.309805 -3.43707 0
M  V30 40828 C 3771.47 -0.658839 -4.26947 0
M  V30 40829 C 3770.6 0.100356 -5.31105 0
M  V30 40830 C 3769.64 -0.860849 -6.06016 0
M  V30 40831 N 3768.78 -0.134138 -7.01972 0
M  V30 40832 H 3773.62 -1.28305 -2.68964 0
M  V30 40833 H 3771.15 -0.643946 -1.32256 0
M  V30 40834 H 3773.11 0.754682 -4.10317 0
M  V30 40835 H 3771.74 1.12775 -3.02459 0
M  V30 40836 H 3770.79 -1.22224 -3.6023 0
M  V30 40837 H 3772.11 -1.39335 -4.78944 0
M  V30 40838 H 3771.26 0.605047 -6.03675 0
M  V30 40839 H 3770 0.867818 -4.79917 0
M  V30 40840 H 3769 -1.37677 -5.32283 0
M  V30 40841 H 3770.23 -1.62813 -6.59294 0
M  V30 40842 H 3768.18 0.615037 -6.5311 0
M  V30 40843 H 3768.09 -0.808178 -7.51668 0
M  V30 40844 H 3769.36 0.349828 -7.78715 0
M  V30 40845 N 3773.59 1.41416 -0.695653 0
M  V30 40846 C 3774.54 2.3078 -0.0303788 0
M  V30 40847 C 3775.51 1.47112 0.771192 0
M  V30 40848 O 3776.69 1.75899 0.739208 0
M  V30 40849 C 3773.83 3.33158 0.899976 0
M  V30 40850 C 3772.94 4.31906 0.0900102 0
M  V30 40851 C 3772.08 5.21354 1.01801 0
M  V30 40852 C 3771.12 6.1177 0.20096 0
M  V30 40853 N 3770.26 6.93701 1.08277 0
M  V30 40854 H 3775.1 2.87111 -0.798199 0
M  V30 40855 H 3772.63 1.41405 -0.405335 0
M  V30 40856 H 3774.59 3.91065 1.45342 0
M  V30 40857 H 3773.22 2.78377 1.63419 0
M  V30 40858 H 3772.27 3.75947 -0.580356 0
M  V30 40859 H 3773.58 4.95831 -0.543423 0
M  V30 40860 H 3772.74 5.84095 1.64068 0
M  V30 40861 H 3771.48 4.57656 1.6853 0
M  V30 40862 H 3770.48 5.48078 -0.434783 0
M  V30 40863 H 3771.71 6.77523 -0.462535 0
M  V30 40864 H 3769.65 6.32611 1.73608 0
M  V30 40865 H 3769.57 7.54312 0.504913 0
M  V30 40866 H 3770.84 7.60909 1.69225 0
M  V30 40867 N 3775.07 0.44041 1.51321 0
M  V30 40868 C 3775.98 -0.375569 2.31574 0
M  V30 40869 C 3776.99 -1.0248 1.40619 0
M  V30 40870 O 3778.17 -1.0195 1.7369 0
M  V30 40871 C 3775.23 -1.46034 3.14444 0
M  V30 40872 C 3774.3 -0.830917 4.21182 0
M  V30 40873 C 3773.53 -1.864 5.00091 0
M  V30 40874 O 3773.75 -3.08661 4.79671 0
M  V30 40875 O 3772.69 -1.45283 5.84103 0
M  V30 40876 H 3776.51 0.279673 3.0241 0
M  V30 40877 H 3774.1 0.202883 1.48016 0
M  V30 40878 H 3775.98 -2.08939 3.65954 0
M  V30 40879 H 3774.65 -2.09961 2.4637 0
M  V30 40880 H 3773.56 -0.163732 3.73742 0
M  V30 40881 H 3774.89 -0.235088 4.91638 0
M  V30 40882 N 3776.55 -1.5666 0.171876 0
M  V30 40883 C 3777.46 -2.2158 -0.770682 0
M  V30 40884 C 3778.47 -1.20761 -1.25271 0
M  V30 40885 O 3779.65 -1.53425 -1.30472 0
M  V30 40886 C 3776.71 -2.84425 -1.98251 0
M  V30 40887 C 3775.77 -4.00446 -1.54731 0
M  V30 40888 C 3775.01 -4.60285 -2.70137 0
M  V30 40889 O 3775.23 -4.19014 -3.87019 0
M  V30 40890 O 3774.16 -5.50145 -2.4418 0
M  V30 40891 H 3777.99 -3.02686 -0.247921 0
M  V30 40892 H 3775.57 -1.49294 -0.0563471 0
M  V30 40893 H 3777.46 -3.24271 -2.69121 0
M  V30 40894 H 3776.13 -2.06315 -2.49431 0
M  V30 40895 H 3775.04 -3.65268 -0.808088 0
M  V30 40896 H 3776.37 -4.80151 -1.08241 0
M  V30 40897 N 3778.02 0.101846 -1.57271 0
M  V30 40898 C 3779.27 0.805231 -1.8493 0
M  V30 40899 C 3779.59 1.80226 -0.760131 0
M  V30 40900 O 3780.79 2.55306 -0.923639 0
M  V30 40901 C 3779.25 1.48285 -3.27932 0
M  V30 40902 C 3778.86 0.525938 -4.44902 0
M  V30 40903 C 3780.6 2.17036 -3.64822 0
M  V30 40904 C 3778.51 1.20777 -5.78936 0
M  V30 40905 H 3777.44 0.304466 -0.689794 0
M  V30 40906 H 3780.09 0.0581015 -1.83408 0
M  V30 40907 H 3778.47 2.27721 -3.23974 0
M  V30 40908 H 3779.64 -0.236433 -4.60193 0
M  V30 40909 H 3777.96 -0.0555118 -4.16363 0
M  V30 40910 H 3780.56 2.6877 -4.62241 0
M  V30 40911 H 3780.9 2.95623 -2.93109 0
M  V30 40912 H 3781.43 1.44469 -3.70639 0
M  V30 40913 H 3778.17 0.462845 -6.53864 0
M  V30 40914 H 3777.69 1.94173 -5.67501 0
M  V30 40915 H 3779.37 1.73615 -6.23271 0
M  V30 40916 N 3779.5 1.53135 0.372494 0
M  V30 40917 C 3780.43 1.8206 1.46207 0
M  V30 40918 C 3781.41 0.673639 1.56193 0
M  V30 40919 O 3782.6 0.922827 1.70873 0
M  V30 40920 C 3779.73 2.0043 2.83628 0
M  V30 40921 C 3778.68 3.16177 2.88473 0
M  V30 40922 C 3778.01 3.19828 4.28502 0
M  V30 40923 C 3779.31 4.54911 2.5662 0
M  V30 40924 H 3781 2.73304 1.22251 0
M  V30 40925 H 3778.55 1.31508 0.586665 0
M  V30 40926 H 3780.5 2.19248 3.59873 0
M  V30 40927 H 3779.22 1.05889 3.08958 0
M  V30 40928 H 3777.88 2.97168 2.14679 0
M  V30 40929 H 3777.53 2.22938 4.50896 0
M  V30 40930 H 3777.23 3.97591 4.3266 0
M  V30 40931 H 3778.76 3.40822 5.06629 0
M  V30 40932 H 3780.17 4.73937 3.22579 0
M  V30 40933 H 3778.57 5.34864 2.72104 0
M  V30 40934 H 3779.64 4.60496 1.51894 0
M  V30 40935 N 3780.98 -0.6319 1.44377 0
M  V30 40936 C 3781.93 -1.7439 1.51184 0
M  V30 40937 C 3782.9 -1.6216 0.359627 0
M  V30 40938 O 3784.08 -1.82095 0.569757 0
M  V30 40939 C 3781.22 -3.12634 1.4613 0
M  V30 40940 C 3780.33 -3.35846 2.71719 0
M  V30 40941 C 3779.47 -4.64057 2.58504 0
M  V30 40942 C 3778.51 -4.80445 3.79261 0
M  V30 40943 N 3777.65 -5.99933 3.64726 0
M  V30 40944 H 3782.49 -1.67908 2.46193 0
M  V30 40945 H 3780.02 -0.819086 1.22186 0
M  V30 40946 H 3781.98 -3.92583 1.4119 0
M  V30 40947 H 3780.61 -3.18134 0.546887 0
M  V30 40948 H 3779.66 -2.49843 2.86849 0
M  V30 40949 H 3780.97 -3.43835 3.61357 0
M  V30 40950 H 3780.13 -5.52165 2.51393 0
M  V30 40951 H 3778.87 -4.58426 1.66425 0
M  V30 40952 H 3777.87 -3.90767 3.86757 0
M  V30 40953 H 3779.1 -4.87892 4.72375 0
M  V30 40954 H 3777.04 -5.95392 2.75398 0
M  V30 40955 H 3776.96 -6.08975 4.4798 0
M  V30 40956 H 3778.23 -6.90604 3.61505 0
M  V30 40957 N 3782.46 -1.31262 -0.872235 0
M  V30 40958 C 3783.69 -1.23775 -1.65793 0
M  V30 40959 C 3784.1 0.197318 -1.87766 0
M  V30 40960 O 3783.46 1.12858 -1.4342 0
M  V30 40961 C 3783.51 -1.97595 -3.02718 0
M  V30 40962 O 3783.23 -3.35501 -2.81729 0
M  V30 40963 C 3784.73 -1.9692 -3.97162 0
M  V30 40964 H 3781.95 -0.427787 -0.516952 0
M  V30 40965 H 3784.49 -1.73101 -1.08887 0
M  V30 40966 H 3782.65 -1.52036 -3.5632 0
M  V30 40967 H 3783.06 -3.73059 -3.68683 0
M  V30 40968 H 3784.54 -2.53087 -4.90562 0
M  V30 40969 H 3785.01 -0.951164 -4.28777 0
M  V30 40970 H 3785.62 -2.42348 -3.49496 0
M  V30 40971 N 3783.94 1.08625 -1.14186 0
M  V30 40972 C 3785.16 1.84713 -0.932136 0
M  V30 40973 C 3785.58 1.81518 0.519303 0
M  V30 40974 O 3784.94 1.21724 1.35976 0
M  V30 40975 C 3784.99 3.32348 -1.42223 0
M  V30 40976 O 3784.71 3.35542 -2.8168 0
M  V30 40977 C 3786.21 4.25249 -1.25213 0
M  V30 40978 H 3783.43 0.583187 -0.331864 0
M  V30 40979 H 3785.97 1.37202 -1.51644 0
M  V30 40980 H 3784.13 3.77255 -0.880746 0
M  V30 40981 H 3784.54 4.27684 -3.03622 0
M  V30 40982 H 3786.02 5.2696 -1.64368 0
M  V30 40983 H 3786.49 4.38768 -0.194736 0
M  V30 40984 H 3787.1 3.86165 -1.78204 0
M  V30 40985 N 3785.41 0.936635 1.26747 0
M  V30 40986 C 3786.65 0.589204 1.95724 0
M  V30 40987 C 3787.02 -0.855115 1.71906 0
M  V30 40988 O 3788.22 -1.31126 2.34647 0
M  V30 40989 C 3786.49 0.916767 3.45442 0
M  V30 40990 S 3788.05 0.679196 4.33512 0
M  V30 40991 H 3784.87 0.217174 0.67702 0
M  V30 40992 H 3787.47 1.20698 1.53793 0
M  V30 40993 H 3786.17 1.96544 3.60276 0
M  V30 40994 H 3785.7 0.288535 3.9234 0
M  V30 40995 H 3787.72 -0.458777 4.94075 0
M  V30 40996 N 3786.89 -1.41045 0.703143 0
M  V30 40997 C 3788.14 -2.01105 0.237322 0
M  V30 40998 C 3788.47 -1.55713 -1.16549 0
M  V30 40999 O 3787.72 -0.762565 -1.80232 0
M  V30 41000 C 3788.02 -3.56513 0.251637 0
M  V30 41001 C 3787.69 -4.21443 1.60302 0
M  V30 41002 C 3786.35 -4.38893 1.97297 0
M  V30 41003 C 3788.7 -4.57779 2.49175 0
M  V30 41004 C 3786.03 -4.89958 3.22735 0
M  V30 41005 C 3788.38 -5.10238 3.73952 0
M  V30 41006 C 3787.05 -5.25898 4.11081 0
M  V30 41007 H 3786.32 -0.735894 0.0868423 0
M  V30 41008 H 3788.96 -1.68834 0.903725 0
M  V30 41009 H 3787.27 -3.88618 -0.498325 0
M  V30 41010 H 3788.96 -4.00801 -0.12643 0
M  V30 41011 H 3785.55 -4.0824 1.3053 0
M  V30 41012 H 3789.74 -4.43945 2.21872 0
M  V30 41013 H 3784.99 -5.00268 3.51486 0
M  V30 41014 H 3789.17 -5.37332 4.42998 0
M  V30 41015 H 3786.8 -5.6523 5.0835 0
M  V30 41016 N 3788.37 -0.448429 -1.51086 0
M  V30 41017 C 3789.62 0.115869 -2.01367 0
M  V30 41018 C 3789.93 1.42809 -1.3366 0
M  V30 41019 O 3791.14 2.07599 -1.74971 0
M  V30 41020 C 3789.59 0.257029 -3.58981 0
M  V30 41021 C 3789.2 -1.04541 -4.35632 0
M  V30 41022 C 3790.95 0.7745 -4.17375 0
M  V30 41023 C 3788.85 -0.869286 -5.84976 0
M  V30 41024 H 3787.78 0.0470775 -0.752529 0
M  V30 41025 H 3790.43 -0.579881 -1.74097 0
M  V30 41026 H 3788.82 1.01604 -3.82744 0
M  V30 41027 H 3789.99 -1.81362 -4.23609 0
M  V30 41028 H 3788.31 -1.49226 -3.88742 0
M  V30 41029 H 3790.9 0.922939 -5.26674 0
M  V30 41030 H 3791.25 1.75991 -3.7727 0
M  V30 41031 H 3791.78 0.0734998 -3.97732 0
M  V30 41032 H 3788.52 -1.8274 -6.29513 0
M  V30 41033 H 3788.04 -0.141074 -5.99634 0
M  V30 41034 H 3789.72 -0.526866 -6.44851 0
M  V30 41035 N 3789.85 1.56567 -0.180181 0
M  V30 41036 C 3791.09 1.99044 0.464834 0
M  V30 41037 C 3791.45 1.06402 1.5982 0
M  V30 41038 O 3792.65 1.38056 2.30638 0
M  V30 41039 C 3790.92 3.45164 0.927166 0
M  V30 41040 S 3792.48 4.0967 1.57212 0
M  V30 41041 H 3789.3 0.695169 0.149203 0
M  V30 41042 H 3791.9 1.93488 -0.279733 0
M  V30 41043 H 3790.61 4.10297 0.0920093 0
M  V30 41044 H 3790.14 3.54506 1.70556 0
M  V30 41045 H 3792.15 4.05449 2.86052 0
M  V30 41046 N 3791.33 -0.0935042 1.57322 0
M  V30 41047 C 3792.57 -0.795132 1.85801 0
M  V30 41048 C 3792.9 -1.79192 0.76911 0
M  V30 41049 O 3792.17 -1.9483 -0.204477 0
M  V30 41050 H 3790.75 -0.296641 0.685575 0
M  V30 41051 H 3793.41 -0.074755 1.94757 0
M  V30 41052 H 3792.5 -1.32474 2.8259 0
M  V30 41053 N 3792.8 -1.5333 -0.364368 0
M  V30 41054 C 3793.73 -1.82832 -1.4524 0
M  V30 41055 C 3794.72 -0.681913 -1.55833 0
M  V30 41056 O 3795.9 -0.931875 -1.70381 0
M  V30 41057 C 3793.03 -2.01931 -2.82562 0
M  V30 41058 C 3791.98 -3.17702 -2.86792 0
M  V30 41059 C 3791.31 -3.22096 -4.268 0
M  V30 41060 C 3792.61 -4.56265 -2.54204 0
M  V30 41061 H 3794.3 -2.73949 -1.208 0
M  V30 41062 H 3791.85 -1.31817 -0.579682 0
M  V30 41063 H 3793.8 -2.21153 -3.58705 0
M  V30 41064 H 3792.53 -1.07526 -3.08392 0
M  V30 41065 H 3791.19 -2.98302 -2.131 0
M  V30 41066 H 3790.83 -2.25326 -4.49708 0
M  V30 41067 H 3790.53 -3.9988 -4.30546 0
M  V30 41068 H 3792.06 -3.43504 -5.04815 0
M  V30 41069 H 3793.47 -4.75641 -3.20061 0
M  V30 41070 H 3791.87 -5.36299 -2.69264 0
M  V30 41071 H 3792.94 -4.61295 -1.4945 0
M  V30 41072 N 3794.28 0.624234 -1.4471 0
M  V30 41073 C 3795.19 1.76444 -1.54611 0
M  V30 41074 C 3796.21 1.68567 -0.4314 0
M  V30 41075 O 3797.38 1.89221 -0.689733 0
M  V30 41076 C 3794.45 3.12854 -1.4941 0
M  V30 41077 C 3793.51 3.3231 -2.71787 0
M  V30 41078 C 3792.74 4.62212 -2.66825 0
M  V30 41079 O 3792.97 5.43464 -1.73214 0
M  V30 41080 O 3791.9 4.84021 -3.57781 0
M  V30 41081 H 3795.73 1.71044 -2.50954 0
M  V30 41082 H 3793.31 0.786304 -1.27034 0
M  V30 41083 H 3795.19 3.94157 -1.49057 0
M  V30 41084 H 3793.87 3.18782 -0.562135 0
M  V30 41085 H 3792.78 2.50659 -2.77706 0
M  V30 41086 H 3794.11 3.31249 -3.64054 0
M  V30 41087 N 3795.76 1.31723 0.865262 0
M  V30 41088 C 3797.18 1.10483 1.15177 0
M  V30 41089 C 3797.38 -0.121631 2.01133 0
M  V30 41090 O 3796.43 -0.809603 2.39169 0
M  V30 41091 C 3797.75 2.37883 1.83935 0
M  V30 41092 C 3799.29 2.43538 1.96616 0
M  V30 41093 C 3799.77 3.70832 2.6879 0
M  V30 41094 N 3801.26 3.71753 2.76322 0
M  V30 41095 C 3801.99 4.66946 3.3279 0
M  V30 41096 N 3801.49 5.72497 3.90152 0
M  V30 41097 N 3803.28 4.54458 3.30793 0
M  V30 41098 H 3795.43 2.10375 0.292595 0
M  V30 41099 H 3797.7 0.928305 0.192235 0
M  V30 41100 H 3797.4 3.27491 1.28227 0
M  V30 41101 H 3797.28 2.48039 2.84177 0
M  V30 41102 H 3799.66 1.54396 2.51487 0
M  V30 41103 H 3799.75 2.37343 0.954029 0
M  V30 41104 H 3799.39 4.60343 2.14585 0
M  V30 41105 H 3799.32 3.74294 3.7042 0
M  V30 41106 H 3801.81 2.95455 2.35616 0
M  V30 41107 H 3802.12 6.41205 4.31365 0
M  V30 41108 H 3800.47 5.76265 3.88515 0
M  V30 41109 H 3803.66 3.7117 2.8522 0
M  V30 41110 H 3803.83 5.28822 3.74502 0
M  V30 41111 N 3797.24 -1.08018 1.14761 0
M  V30 41112 C 3798.52 -1.77164 0.828988 0
M  V30 41113 C 3798.9 -1.99958 -0.676748 0
M  V30 41114 O 3798.24 -1.61259 -1.61888 0
M  V30 41115 C 3798.45 -3.08482 1.63218 0
M  V30 41116 C 3799.8 -3.82945 1.83407 0
M  V30 41117 O 3800.83 -3.18274 1.59937 0
M  V30 41118 O 3799.68 -4.9908 2.2267 0
M  V30 41119 H 3796.78 -0.769027 0.304182 0
M  V30 41120 H 3799.32 -1.14444 1.25302 0
M  V30 41121 H 3798.1 -2.87466 2.65479 0
M  V30 41122 H 3797.72 -3.78931 1.20404 0
M  V30 41123 N 3798.72 -0.943344 -1.26249 0
M  V30 41124 C 3799.66 -0.453354 -2.26304 0
M  V30 41125 C 3800.63 0.48814 -1.58765 0
M  V30 41126 O 3801.82 0.403873 -1.86477 0
M  V30 41127 C 3798.96 0.273333 -3.44016 0
M  V30 41128 C 3798.07 -0.704085 -4.26224 0
M  V30 41129 C 3797.21 0.04402 -5.31182 0
M  V30 41130 C 3796.25 -0.925077 -6.05069 0
M  V30 41131 N 3795.38 -0.208584 -7.0179 0
M  V30 41132 H 3800.22 -1.31151 -2.67588 0
M  V30 41133 H 3797.76 -0.657937 -1.31566 0
M  V30 41134 H 3799.72 0.71112 -4.11095 0
M  V30 41135 H 3798.35 1.09561 -3.03638 0
M  V30 41136 H 3797.4 -1.26038 -3.58913 0
M  V30 41137 H 3798.71 -1.44407 -4.77439 0
M  V30 41138 H 3797.87 0.540985 -6.04283 0
M  V30 41139 H 3796.6 0.816867 -4.8081 0
M  V30 41140 H 3795.61 -1.43315 -5.30793 0
M  V30 41141 H 3796.83 -1.69797 -6.5753 0
M  V30 41142 H 3794.78 0.545731 -6.53726 0
M  V30 41143 H 3794.7 -0.887857 -7.50768 0
M  V30 41144 H 3795.97 0.267215 -7.79042 0
M  V30 41145 N 3800.2 1.4067 -0.710613 0
M  V30 41146 C 3801.44 2.00976 -0.247984 0
M  V30 41147 C 3801.77 1.56329 1.15722 0
M  V30 41148 O 3801.03 0.772112 1.79825 0
M  V30 41149 C 3801.32 3.56375 -0.270541 0
M  V30 41150 C 3800.99 4.20587 -1.62535 0
M  V30 41151 C 3799.65 4.37841 -1.99622 0
M  V30 41152 C 3802 4.56451 -2.51599 0
M  V30 41153 C 3799.33 4.8824 -3.25329 0
M  V30 41154 C 3801.68 5.08247 -3.76653 0
M  V30 41155 C 3800.35 5.23711 -4.13864 0
M  V30 41156 H 3799.62 0.735423 -0.0907437 0
M  V30 41157 H 3802.27 1.68353 -0.912666 0
M  V30 41158 H 3800.57 3.88877 0.477708 0
M  V30 41159 H 3802.27 4.00862 0.105173 0
M  V30 41160 H 3798.86 4.07542 -1.32693 0
M  V30 41161 H 3803.04 4.42762 -2.24223 0
M  V30 41162 H 3798.3 4.98396 -3.54134 0
M  V30 41163 H 3802.47 5.34975 -4.45841 0
M  V30 41164 H 3800.1 5.62526 -5.1134 0
M  V30 41165 N 3801.67 0.456435 1.50846 0
M  V30 41166 C 3802.95 -0.164451 1.94907 0
M  V30 41167 C 3803.33 -1.58341 1.39612 0
M  V30 41168 O 3802.68 -2.20725 0.59101 0
M  V30 41169 C 3802.89 -0.122733 3.48784 0
M  V30 41170 C 3804.24 -0.31889 4.23401 0
M  V30 41171 O 3805.26 -0.199988 3.55638 0
M  V30 41172 O 3804.12 -0.557412 5.4365 0
M  V30 41173 H 3801.21 -0.119638 0.818301 0
M  V30 41174 H 3803.76 0.515786 1.61672 0
M  V30 41175 H 3802.53 0.868535 3.81539 0
M  V30 41176 H 3802.15 -0.845062 3.88516 0
M  V30 41177 N 3803.15 -1.56469 0.188482 0
M  V30 41178 C 3804.1 -2.20116 -0.751783 0
M  V30 41179 C 3805.09 -1.17032 -1.22474 0
M  V30 41180 O 3806.3 -1.35192 -1.1884 0
M  V30 41181 H 3802.67 -0.70534 -0.260766 0
M  V30 41182 H 3804.65 -2.97787 -0.191197 0
M  V30 41183 C 3803.39 -2.86946 -1.9636 0
M  V30 41184 H 3802.72 -3.66006 -1.60873 0
M  V30 41185 H 3804.16 -3.34926 -2.60001 0
M  V30 41186 C 3802.62 -1.87628 -2.79817 0
M  V30 41187 O 3803.15 -1.37243 -3.77528 0
M  V30 41188 N 3801.35 -1.56004 -2.45176 0
M  V30 41189 H 3800.9 -1.9717 -1.65777 0
M  V30 41190 H 3800.86 -0.898065 -3.01301 0
M  V30 41191 N 3804.63 0.0851597 -1.5737 0
M  V30 41192 C 3805.58 1.10259 -2.0276 0
M  V30 41193 C 3806.55 1.39233 -0.905726 0
M  V30 41194 O 3807.73 1.50527 -1.17244 0
M  V30 41195 C 3804.87 2.41487 -2.46532 0
M  V30 41196 C 3803.98 2.19158 -3.72282 0
M  V30 41197 C 3803.12 3.43856 -4.04891 0
M  V30 41198 C 3802.16 3.16832 -5.23721 0
M  V30 41199 N 3801.3 4.33824 -5.52034 0
M  V30 41200 H 3806.14 0.708532 -2.89454 0
M  V30 41201 H 3803.67 0.338307 -1.43157 0
M  V30 41202 H 3805.63 3.18086 -2.69957 0
M  V30 41203 H 3804.26 2.7872 -1.62834 0
M  V30 41204 H 3803.31 1.33315 -3.56274 0
M  V30 41205 H 3804.62 1.95189 -4.59024 0
M  V30 41206 H 3803.78 4.28857 -4.29146 0
M  V30 41207 H 3802.52 3.70889 -3.1669 0
M  V30 41208 H 3801.52 2.30225 -4.99276 0
M  V30 41209 H 3802.75 2.91135 -6.13528 0
M  V30 41210 H 3800.69 4.60914 -4.66792 0
M  V30 41211 H 3800.61 4.1308 -6.33168 0
M  V30 41212 H 3801.88 5.19861 -5.80831 0
M  V30 41213 N 3806.11 1.53521 0.356231 0
M  V30 41214 C 3807.34 1.74077 1.11825 0
M  V30 41215 C 3807.75 0.47403 1.82752 0
M  V30 41216 O 3807.11 -0.553618 1.739 0
M  V30 41217 C 3807.16 2.91247 2.14144 0
M  V30 41218 O 3806.88 4.1302 1.46103 0
M  V30 41219 C 3808.38 3.23751 3.0282 0
M  V30 41220 H 3805.6 0.581971 0.333992 0
M  V30 41221 H 3808.14 2.00301 0.4123 0
M  V30 41222 H 3806.3 2.67391 2.80323 0
M  V30 41223 H 3806.71 4.787 2.14352 0
M  V30 41224 H 3808.19 4.09118 3.70576 0
M  V30 41225 H 3808.66 2.39512 3.68145 0
M  V30 41226 H 3809.27 3.49567 2.42246 0
M  V30 41227 N 3807.59 -0.616551 1.45039 0
M  V30 41228 C 3808.83 -1.37783 1.48808 0
M  V30 41229 C 3809.16 -1.93792 0.125845 0
M  V30 41230 O 3808.44 -1.74527 -0.858513 0
M  V30 41231 C 3808.72 -2.53238 2.56013 0
M  V30 41232 C 3808.58 -2.02484 4.01647 0
M  V30 41233 C 3809.89 -3.55393 2.59584 0
M  V30 41234 H 3807.01 -0.499638 0.541785 0
M  V30 41235 H 3809.66 -0.695828 1.768 0
M  V30 41236 H 3807.81 -3.11418 2.32274 0
M  V30 41237 H 3809.48 -1.49022 4.36566 0
M  V30 41238 H 3807.72 -1.33552 4.1273 0
M  V30 41239 H 3808.39 -2.85671 4.72331 0
M  V30 41240 H 3810.87 -3.07039 2.80831 0
M  V30 41241 H 3809.74 -4.33678 3.36474 0
M  V30 41242 H 3810 -4.10424 1.64332 0
M  V30 41243 N 3809.06 -1.3218 -0.858264 0
M  V30 41244 C 3810.29 -1.25665 -1.64994 0
M  V30 41245 C 3810.71 0.172989 -1.87303 0
M  V30 41246 O 3810.07 1.12314 -1.42321 0
M  V30 41247 C 3810.12 -2.01792 -2.98852 0
M  V30 41248 O 3809.22 -1.36326 -3.89216 0
M  V30 41249 H 3808.56 -0.433272 -0.503161 0
M  V30 41250 H 3811.09 -1.74438 -1.06923 0
M  V30 41251 H 3811.1 -2.1183 -3.48701 0
M  V30 41252 H 3809.78 -3.05753 -2.81936 0
M  V30 41253 H 3808.36 -1.34813 -3.47678 0
M  V30 41254 N 3810.54 1.07407 -1.15332 0
M  V30 41255 C 3811.79 1.79993 -0.927839 0
M  V30 41256 C 3812.12 1.86707 0.545059 0
M  V30 41257 O 3811.37 1.34645 1.42018 0
M  V30 41258 C 3811.67 3.25019 -1.48652 0
M  V30 41259 C 3811.34 3.38406 -2.9798 0
M  V30 41260 C 3810 3.41767 -3.38746 0
M  V30 41261 C 3812.35 3.4125 -3.93952 0
M  V30 41262 C 3809.68 3.45574 -4.74126 0
M  V30 41263 C 3812.03 3.46593 -5.29203 0
M  V30 41264 C 3810.69 3.48231 -5.69466 0
M  V30 41265 H 3809.96 0.65864 -0.33952 0
M  V30 41266 H 3812.61 1.26393 -1.43865 0
M  V30 41267 H 3810.92 3.81397 -0.896878 0
M  V30 41268 H 3812.61 3.79756 -1.28787 0
M  V30 41269 H 3809.2 3.36488 -2.65469 0
M  V30 41270 H 3813.39 3.37875 -3.63531 0
M  V30 41271 H 3808.64 3.4514 -5.04667 0
M  V30 41272 H 3812.82 3.4774 -6.03365 0
M  V30 41273 H 3810.44 3.50934 -6.74351 0
M  V30 41274 N 3812.02 0.950026 1.25747 0
M  V30 41275 C 3812.93 0.473011 2.29782 0
M  V30 41276 C 3813.95 -0.457374 1.67881 0
M  V30 41277 O 3815.12 -0.334745 1.98599 0
M  V30 41278 C 3812.19 -0.245894 3.45827 0
M  V30 41279 C 3811.25 0.722137 4.23183 0
M  V30 41280 C 3810.48 0.0374455 5.33687 0
M  V30 41281 O 3810.7 -1.1778 5.58107 0
M  V30 41282 O 3809.64 0.720645 5.9757 0
M  V30 41283 H 3813.46 1.33742 2.72666 0
M  V30 41284 H 3811.05 0.716283 1.3111 0
M  V30 41285 H 3812.93 -0.65049 4.16349 0
M  V30 41286 H 3811.61 -1.08555 3.04955 0
M  V30 41287 H 3810.51 1.17685 3.55107 0
M  V30 41288 H 3811.85 1.52967 4.67827 0
M  V30 41289 N 3813.5 -1.40291 0.718063 0
M  V30 41290 C 3814.41 -2.34501 0.0681947 0
M  V30 41291 C 3815.42 -1.57432 -0.74102 0
M  V30 41292 O 3816.6 -1.89808 -0.673404 0
M  V30 41293 C 3813.66 -3.36353 -0.840699 0
M  V30 41294 C 3812.73 -4.29295 -0.0211533 0
M  V30 41295 C 3811.96 -5.26282 -0.88676 0
M  V30 41296 O 3812.18 -5.29302 -2.12594 0
M  V30 41297 O 3811.12 -6.01025 -0.324432 0
M  V30 41298 H 3814.94 -2.91698 0.84534 0
M  V30 41299 H 3812.53 -1.41528 0.478566 0
M  V30 41300 H 3814.41 -3.98808 -1.36124 0
M  V30 41301 H 3813.08 -2.81566 -1.59695 0
M  V30 41302 H 3811.99 -3.70116 0.544516 0
M  V30 41303 H 3813.32 -4.87241 0.696931 0
M  V30 41304 N 3814.98 -0.464428 -1.50602 0
M  V30 41305 C 3815.93 0.351696 -2.25271 0
M  V30 41306 C 3816.91 0.967163 -1.28588 0
M  V30 41307 O 3818.1 0.880816 -1.53527 0
M  V30 41308 C 3815.23 1.43695 -3.1178 0
M  V30 41309 C 3814.32 0.829547 -4.15908 0
M  V30 41310 N 3814.71 -0.0461734 -5.05779 0
M  V30 41311 C 3813.01 1.09422 -4.32369 0
M  V30 41312 C 3813.71 -0.390196 -5.8039 0
M  V30 41313 N 3812.68 0.232976 -5.43101 0
M  V30 41314 H 3816.49 -0.323015 -2.9212 0
M  V30 41315 H 3814 -0.278159 -1.6 0
M  V30 41316 H 3816 2.03474 -3.63873 0
M  V30 41317 H 3814.66 2.11372 -2.46479 0
M  V30 41318 H 3815.67 -0.414544 -5.16238 0
M  V30 41319 H 3812.34 1.76647 -3.78288 0
M  V30 41320 H 3813.73 -1.10447 -6.6276 0
M  V30 41321 N 3816.45 1.56367 -0.196777 0
M  V30 41322 C 3817.7 1.96803 0.441773 0
M  V30 41323 C 3818.02 1.08659 1.62643 0
M  V30 41324 O 3819.22 1.38884 2.33288 0
M  V30 41325 C 3817.68 3.50023 0.837354 0
M  V30 41326 C 3817.29 4.46833 -0.323109 0
M  V30 41327 C 3819.03 3.99225 1.44289 0
M  V30 41328 C 3816.94 5.91326 0.0935245 0
M  V30 41329 H 3815.87 0.734857 0.168821 0
M  V30 41330 H 3818.52 1.81209 -0.289061 0
M  V30 41331 H 3816.9 3.61127 1.6249 0
M  V30 41332 H 3818.07 4.47462 -1.10064 0
M  V30 41333 H 3816.39 4.07834 -0.840254 0
M  V30 41334 H 3818.99 5.04656 1.76709 0
M  V30 41335 H 3819.33 3.43631 2.34997 0
M  V30 41336 H 3819.86 3.91243 0.719281 0
M  V30 41337 H 3816.6 6.5085 -0.779411 0
M  V30 41338 H 3816.12 5.93947 0.835879 0
M  V30 41339 H 3817.8 6.44836 0.528751 0
M  V30 41340 N 3817.93 -0.0768128 1.57413 0
M  V30 41341 C 3818.88 -1.09182 2.03342 0
M  V30 41342 C 3819.85 -1.38751 0.913097 0
M  V30 41343 O 3821.03 -1.49903 1.18041 0
M  V30 41344 C 3818.17 -2.40176 2.47809 0
M  V30 41345 C 3817.29 -2.17181 3.73439 0
M  V30 41346 C 3816.42 -3.41704 4.06709 0
M  V30 41347 C 3815.46 -3.14051 5.25394 0
M  V30 41348 N 3814.6 -4.3089 5.54327 0
M  V30 41349 H 3819.44 -0.693172 2.89826 0
M  V30 41350 H 3816.98 -0.33071 1.43334 0
M  V30 41351 H 3818.93 -3.1665 2.71641 0
M  V30 41352 H 3817.56 -2.77853 1.64309 0
M  V30 41353 H 3816.62 -1.31424 3.56976 0
M  V30 41354 H 3817.93 -1.92752 4.60052 0
M  V30 41355 H 3817.08 -4.26575 4.31414 0
M  V30 41356 H 3815.82 -3.69204 3.18652 0
M  V30 41357 H 3814.83 -2.27574 5.0049 0
M  V30 41358 H 3816.05 -2.87878 6.15064 0
M  V30 41359 H 3814 -4.58432 4.6923 0
M  V30 41360 H 3813.91 -4.09716 6.35349 0
M  V30 41361 H 3815.18 -5.16773 5.8358 0
M  V30 41362 N 3819.41 -1.53708 -0.348084 0
M  V30 41363 C 3820.64 -1.74978 -1.11343 0
M  V30 41364 C 3821.06 -0.485557 -1.81725 0
M  V30 41365 O 3820.42 0.561535 -1.72385 0
M  V30 41366 C 3820.47 -2.92707 -2.10606 0
M  V30 41367 O 3819.57 -2.62538 -3.18037 0
M  V30 41368 H 3818.91 -0.580568 -0.322237 0
M  V30 41369 H 3821.44 -2.00655 -0.399862 0
M  V30 41370 H 3821.45 -3.19368 -2.53906 0
M  V30 41371 H 3820.13 -3.844 -1.58775 0
M  V30 41372 H 3818.7 -2.46751 -2.79586 0
M  V30 41373 N 3820.89 0.608851 -1.45364 0
M  V30 41374 C 3821.8 1.74794 -1.56474 0
M  V30 41375 C 3822.81 1.681 -0.449255 0
M  V30 41376 O 3823.99 1.88479 -0.709764 0
M  V30 41377 C 3821.06 3.11252 -1.5272 0
M  V30 41378 C 3820.12 3.29409 -2.75297 0
M  V30 41379 C 3819.35 4.59356 -2.71712 0
M  V30 41380 O 3819.57 5.41596 -1.78969 0
M  V30 41381 O 3818.51 4.80199 -3.62895 0
M  V30 41382 H 3822.33 1.68372 -2.52754 0
M  V30 41383 H 3819.92 0.772786 -1.27861 0
M  V30 41384 H 3821.8 3.92554 -1.53229 0
M  V30 41385 H 3820.47 3.18167 -0.595914 0
M  V30 41386 H 3819.38 2.477 -2.80349 0
M  V30 41387 H 3820.71 3.27369 -3.67547 0
M  V30 41388 N 3822.37 1.32633 0.851242 0
M  V30 41389 C 3823.32 1.18435 1.94826 0
M  V30 41390 C 3824.3 0.0903893 1.60646 0
M  V30 41391 O 3825.49 0.317243 1.74134 0
M  V30 41392 C 3822.62 0.913065 3.30935 0
M  V30 41393 C 3821.71 2.04888 3.71324 0
M  V30 41394 N 3822.1 3.29777 3.83511 0
M  V30 41395 C 3820.4 1.95282 4.00975 0
M  V30 41396 C 3821.1 4.04192 4.18334 0
M  V30 41397 N 3820.07 3.3252 4.30037 0
M  V30 41398 H 3823.88 2.13112 2.02387 0
M  V30 41399 H 3821.39 1.24462 1.04321 0
M  V30 41400 H 3823.39 0.792293 4.09302 0
M  V30 41401 H 3822.05 -0.025304 3.2469 0
M  V30 41402 H 3823.06 3.64672 3.67742 0
M  V30 41403 H 3819.73 1.09028 4.03013 0
M  V30 41404 H 3821.12 5.11906 4.35204 0
M  V30 41405 N 3823.84 -1.06794 1.159 0
M  V30 41406 C 3824.79 -2.16243 0.856846 0
M  V30 41407 C 3825.79 -1.68524 -0.172045 0
M  V30 41408 O 3826.99 -1.7998 -0.0265253 0
M  V30 41409 H 3823.37 -0.705823 0.259457 0
M  V30 41410 H 3825.34 -2.38941 1.78744 0
M  V30 41411 C 3824.09 -3.45739 0.368782 0
M  V30 41412 H 3823.41 -3.82846 1.1519 0
M  V30 41413 H 3824.85 -4.23546 0.196086 0
M  V30 41414 C 3823.31 -3.24356 -0.910745 0
M  V30 41415 O 3823.84 -3.49451 -1.98109 0
M  V30 41416 N 3822.05 -2.77814 -0.852496 0
M  V30 41417 H 3821.59 -2.57593 0.0187099 0
M  V30 41418 H 3821.55 -2.63887 -1.70912 0
M  V30 41419 N 3825.32 -0.956681 -1.25241 0
M  V30 41420 C 3826.26 -0.422725 -2.2425 0
M  V30 41421 C 3827.23 0.497079 -1.54816 0
M  V30 41422 O 3828.42 0.430986 -1.83507 0
M  V30 41423 C 3825.54 0.390936 -3.36436 0
M  V30 41424 C 3824.59 -0.469559 -4.23907 0
M  V30 41425 S 3825.42 -1.90305 -5.00544 0
M  V30 41426 C 3826.58 -1.09787 -6.16196 0
M  V30 41427 H 3826.81 -1.2618 -2.69195 0
M  V30 41428 H 3824.35 -0.760903 -1.34349 0
M  V30 41429 H 3826.3 0.854445 -4.01509 0
M  V30 41430 H 3824.96 1.20486 -2.90072 0
M  V30 41431 H 3824.16 0.154605 -5.03763 0
M  V30 41432 H 3823.76 -0.868358 -3.6378 0
M  V30 41433 H 3826.05 -0.347537 -6.76608 0
M  V30 41434 H 3826.99 -1.87043 -6.8295 0
M  V30 41435 H 3827.4 -0.627102 -5.61006 0
M  V30 41436 N 3826.8 1.39908 -0.725493 0
M  V30 41437 C 3828.05 2.01484 -0.278544 0
M  V30 41438 C 3828.4 1.5652 1.11889 0
M  V30 41439 O 3827.69 0.779821 1.75012 0
M  V30 41440 C 3827.89 3.56068 -0.308324 0
M  V30 41441 C 3827.72 4.16038 -1.70711 0
M  V30 41442 C 3826.49 4.49041 -2.31711 0
M  V30 41443 C 3828.69 4.40224 -2.65908 0
M  V30 41444 N 3826.67 4.94461 -3.63843 0
M  V30 41445 C 3828.04 4.87745 -3.8276 0
M  V30 41446 C 3830.09 4.22277 -2.63792 0
M  V30 41447 C 3828.8 5.19201 -4.97818 0
M  V30 41448 C 3830.82 4.54841 -3.77986 0
M  V30 41449 C 3830.18 5.0256 -4.93572 0
M  V30 41450 H 3826.28 0.767872 -0.147976 0
M  V30 41451 H 3828.87 1.69983 -0.94942 0
M  V30 41452 H 3827.04 3.86977 0.332158 0
M  V30 41453 H 3828.77 4.04398 0.156273 0
M  V30 41454 H 3825.53 4.36513 -1.8372 0
M  V30 41455 H 3825.95 5.2154 -4.31654 0
M  V30 41456 H 3830.59 3.84596 -1.75629 0
M  V30 41457 H 3828.31 5.55792 -5.86619 0
M  V30 41458 H 3831.9 4.42586 -3.77635 0
M  V30 41459 H 3830.78 5.27281 -5.80469 0
M  V30 41460 N 3828.28 0.472408 1.50353 0
M  V30 41461 C 3829.23 -0.339745 2.25455 0
M  V30 41462 C 3830.21 -0.96033 1.29099 0
M  V30 41463 O 3831.4 -0.872661 1.53992 0
M  V30 41464 C 3828.53 -1.4204 3.12537 0
M  V30 41465 C 3827.62 -0.807479 4.16342 0
M  V30 41466 N 3828.01 0.0729955 5.05747 0
M  V30 41467 C 3826.31 -1.07127 4.32943 0
M  V30 41468 C 3827.01 0.42097 5.80175 0
M  V30 41469 N 3825.99 -0.204171 5.43216 0
M  V30 41470 H 3829.79 0.338502 2.91944 0
M  V30 41471 H 3827.3 0.28664 1.5985 0
M  V30 41472 H 3829.3 -2.01542 3.64947 0
M  V30 41473 H 3827.96 -2.10062 2.47596 0
M  V30 41474 H 3828.97 0.441915 5.16011 0
M  V30 41475 H 3825.65 -1.74638 3.7922 0
M  V30 41476 H 3827.04 1.1396 6.62165 0
M  V30 41477 N 3829.76 -1.5626 0.205067 0
M  V30 41478 C 3830.99 -2.01952 -0.435752 0
M  V30 41479 C 3831.4 -1.08431 -1.55047 0
M  V30 41480 O 3830.74 -0.0831598 -1.83512 0
M  V30 41481 C 3830.8 -3.44021 -1.04353 0
M  V30 41482 C 3830.46 -4.56952 -0.0663152 0
M  V30 41483 C 3831.46 -5.14778 0.728 0
M  V30 41484 C 3829.15 -5.02277 0.0476601 0
M  V30 41485 C 3831.14 -6.16387 1.62316 0
M  V30 41486 C 3828.83 -6.03728 0.946366 0
M  V30 41487 C 3829.83 -6.60657 1.73267 0
M  V30 41488 O 3829.51 -7.60135 2.6163 0
M  V30 41489 H 3829.25 -0.666538 -0.112709 0
M  V30 41490 H 3831.8 -2.02985 0.314029 0
M  V30 41491 H 3830.03 -3.40006 -1.84209 0
M  V30 41492 H 3831.72 -3.73461 -1.59003 0
M  V30 41493 H 3832.48 -4.8062 0.650305 0
M  V30 41494 H 3828.36 -4.57656 -0.554214 0
M  V30 41495 H 3831.91 -6.60749 2.23734 0
M  V30 41496 H 3827.8 -6.37308 1.02514 0
M  V30 41497 H 3828.57 -7.77593 2.55521 0
M  V30 41498 N 3831.24 0.0684638 -1.57451 0
M  V30 41499 C 3832.17 1.08127 -2.06956 0
M  V30 41500 C 3833.15 1.40164 -0.963741 0
M  V30 41501 O 3834.33 1.49734 -1.23667 0
M  V30 41502 C 3831.46 2.39377 -2.51627 0
M  V30 41503 C 3830.42 2.21684 -3.66115 0
M  V30 41504 C 3829.74 3.58347 -3.96852 0
M  V30 41505 C 3831.04 1.63532 -4.96039 0
M  V30 41506 H 3832.74 0.669309 -2.91823 0
M  V30 41507 H 3830.28 0.320508 -1.40388 0
M  V30 41508 H 3832.23 3.10525 -2.84873 0
M  V30 41509 H 3830.96 2.82559 -1.63793 0
M  V30 41510 H 3829.62 1.52976 -3.33157 0
M  V30 41511 H 3829.27 3.99105 -3.06144 0
M  V30 41512 H 3828.97 3.47346 -4.73946 0
M  V30 41513 H 3830.49 4.3092 -4.32597 0
M  V30 41514 H 3831.9 2.24549 -5.27495 0
M  V30 41515 H 3830.3 1.63218 -5.77477 0
M  V30 41516 H 3831.37 0.597115 -4.81209 0
M  V30 41517 N 3832.71 1.5389 0.339928 0
M  V30 41518 C 3833.94 1.74999 1.09813 0
M  V30 41519 C 3834.35 0.490779 1.82724 0
M  V30 41520 O 3833.69 -0.547436 1.75353 0
M  V30 41521 C 3833.76 2.87838 2.15383 0
M  V30 41522 C 3833.42 4.27317 1.62015 0
M  V30 41523 C 3834.42 5.08758 1.07055 0
M  V30 41524 C 3832.1 4.73813 1.66752 0
M  V30 41525 C 3834.1 6.34797 0.575418 0
M  V30 41526 C 3831.78 5.99824 1.16851 0
M  V30 41527 C 3832.78 6.80149 0.623385 0
M  V30 41528 O 3832.47 8.03792 0.131824 0
M  V30 41529 H 3832.2 0.588185 0.333188 0
M  V30 41530 H 3834.76 2.01531 0.396785 0
M  V30 41531 H 3832.99 2.56839 2.89086 0
M  V30 41532 H 3834.67 2.96882 2.76796 0
M  V30 41533 H 3835.44 4.73999 1.02715 0
M  V30 41534 H 3831.32 4.11347 2.08122 0
M  V30 41535 H 3834.86 6.9744 0.149267 0
M  V30 41536 H 3830.76 6.34078 1.20893 0
M  V30 41537 H 3831.53 8.18122 0.248776 0
M  V30 41538 N 3834.19 -0.601133 1.45685 0
M  V30 41539 C 3835.44 -1.35995 1.50038 0
M  V30 41540 C 3835.77 -1.93961 0.144679 0
M  V30 41541 O 3835.02 -1.75915 -0.857471 0
M  V30 41542 C 3835.32 -2.522 2.53239 0
M  V30 41543 C 3834.99 -2.12341 3.97771 0
M  V30 41544 C 3833.65 -2.01185 4.37125 0
M  V30 41545 C 3836 -1.81331 4.88639 0
M  V30 41546 C 3833.33 -1.5725 5.65234 0
M  V30 41547 C 3835.68 -1.38881 6.17167 0
M  V30 41548 C 3834.34 -1.26288 6.55445 0
M  V30 41549 H 3833.61 -0.497643 0.549029 0
M  V30 41550 H 3836.26 -0.678802 1.79066 0
M  V30 41551 H 3834.57 -3.25682 2.17804 0
M  V30 41552 H 3836.26 -3.10427 2.53843 0
M  V30 41553 H 3832.85 -2.21953 3.66654 0
M  V30 41554 H 3837.04 -1.88845 4.58968 0
M  V30 41555 H 3832.29 -1.46129 5.9368 0
M  V30 41556 H 3836.47 -1.13934 6.87017 0
M  V30 41557 H 3834.09 -0.920184 7.5461 0
M  V30 41558 N 3835.67 -1.33083 -0.844196 0
M  V30 41559 C 3836.92 -1.23588 -1.59402 0
M  V30 41560 C 3837.23 0.198174 -1.94594 0
M  V30 41561 O 3838.44 0.415091 -2.68308 0
M  V30 41562 C 3836.89 -2.16518 -2.87486 0
M  V30 41563 C 3836.5 -3.65063 -2.59678 0
M  V30 41564 C 3838.25 -2.15883 -3.65506 0
M  V30 41565 C 3836.15 -4.49924 -3.83826 0
M  V30 41566 H 3835.08 -0.459013 -0.598183 0
M  V30 41567 H 3837.73 -1.58113 -0.931271 0
M  V30 41568 H 3836.12 -1.74919 -3.55273 0
M  V30 41569 H 3837.29 -4.15069 -2.00136 0
M  V30 41570 H 3835.6 -3.67934 -1.94971 0
M  V30 41571 H 3838.2 -2.76517 -4.57649 0
M  V30 41572 H 3838.54 -1.15251 -4.00029 0
M  V30 41573 H 3839.08 -2.55816 -3.04636 0
M  V30 41574 H 3835.82 -5.51411 -3.54438 0
M  V30 41575 H 3835.34 -4.04664 -4.42727 0
M  V30 41576 H 3837.02 -4.63457 -4.5146 0
M  V30 41577 N 3837.15 1.06178 -1.16464 0
M  V30 41578 C 3838.39 1.79264 -0.94828 0
M  V30 41579 C 3838.73 1.87038 0.522546 0
M  V30 41580 O 3838 1.36284 1.38769 0
M  V30 41581 C 3838.28 3.2369 -1.57787 0
M  V30 41582 C 3838.14 3.23989 -3.12011 0
M  V30 41583 C 3839.46 4.21272 -1.27351 0
M  V30 41584 H 3836.58 0.650776 -0.345919 0
M  V30 41585 H 3839.22 1.24169 -1.43812 0
M  V30 41586 H 3837.37 3.70736 -1.16133 0
M  V30 41587 H 3839.04 2.85096 -3.62654 0
M  V30 41588 H 3837.28 2.62609 -3.45281 0
M  V30 41589 H 3837.95 4.2588 -3.51184 0
M  V30 41590 H 3840.43 3.82673 -1.63403 0
M  V30 41591 H 3839.31 5.2059 -1.74002 0
M  V30 41592 H 3839.57 4.41681 -0.192546 0
M  V30 41593 N 3838.63 0.96331 1.24732 0
M  V30 41594 C 3839.56 0.508707 2.27891 0
M  V30 41595 C 3840.54 -0.449409 1.64056 0
M  V30 41596 O 3841.72 -0.346485 1.91084 0
M  V30 41597 C 3838.85 -0.206096 3.46688 0
M  V30 41598 C 3837.81 0.667608 4.22761 0
M  V30 41599 C 3837.13 -0.178435 5.34402 0
M  V30 41600 C 3838.43 1.95003 4.84532 0
M  V30 41601 H 3840.13 1.37093 2.66169 0
M  V30 41602 H 3837.67 0.660645 1.27951 0
M  V30 41603 H 3839.62 -0.535317 4.17986 0
M  V30 41604 H 3838.35 -1.10264 3.07424 0
M  V30 41605 H 3837.01 0.980038 3.53257 0
M  V30 41606 H 3836.66 -1.07499 4.91379 0
M  V30 41607 H 3836.36 0.402911 5.86217 0
M  V30 41608 H 3837.88 -0.502426 6.08529 0
M  V30 41609 H 3839.29 1.68667 5.47927 0
M  V30 41610 H 3837.69 2.47774 5.4656 0
M  V30 41611 H 3838.76 2.64772 4.06231 0
M  V30 41612 N 3840.1 -1.39522 0.732902 0
M  V30 41613 C 3841.35 -2.00853 0.280341 0
M  V30 41614 C 3841.68 -1.58019 -1.12888 0
M  V30 41615 O 3840.96 -0.808117 -1.76917 0
M  V30 41616 C 3841.24 -3.58091 0.379843 0
M  V30 41617 C 3841.09 -4.10949 1.82868 0
M  V30 41618 C 3842.41 -4.39451 -0.238949 0
M  V30 41619 H 3839.53 -0.729719 0.103339 0
M  V30 41620 H 3842.17 -1.65758 0.928663 0
M  V30 41621 H 3840.32 -3.88118 -0.17213 0
M  V30 41622 H 3842 -3.9165 2.43737 0
M  V30 41623 H 3840.24 -3.64588 2.3507 0
M  V30 41624 H 3840.91 -5.20091 1.84958 0
M  V30 41625 H 3843.39 -4.15455 0.231561 0
M  V30 41626 H 3842.26 -5.48724 -0.138971 0
M  V30 41627 H 3842.52 -4.21786 -1.32473 0
M  V30 41628 N 3841.58 -0.480375 -1.501 0
M  V30 41629 C 3842.53 0.308952 -2.28723 0
M  V30 41630 C 3843.5 0.978924 -1.34187 0
M  V30 41631 O 3844.68 0.989573 -1.63132 0
M  V30 41632 C 3841.82 1.3796 -3.16324 0
M  V30 41633 C 3840.94 0.723478 -4.25899 0
M  V30 41634 C 3840.07 1.77281 -5.00744 0
M  V30 41635 C 3839.11 1.09743 -6.02182 0
M  V30 41636 N 3838.25 2.09003 -6.7027 0
M  V30 41637 H 3843.09 -0.367791 -2.95722 0
M  V30 41638 H 3840.62 -0.193223 -1.45825 0
M  V30 41639 H 3842.58 2.01211 -3.65473 0
M  V30 41640 H 3841.21 2.02538 -2.51352 0
M  V30 41641 H 3840.26 -0.0218176 -3.80394 0
M  V30 41642 H 3841.58 0.190817 -4.98435 0
M  V30 41643 H 3840.73 2.48089 -5.53658 0
M  V30 41644 H 3839.47 2.33929 -4.27935 0
M  V30 41645 H 3838.47 0.375027 -5.48519 0
M  V30 41646 H 3839.7 0.537722 -6.76968 0
M  V30 41647 H 3837.65 2.64651 -6.00246 0
M  V30 41648 H 3837.56 1.60747 -7.38713 0
M  V30 41649 H 3838.83 2.79163 -7.27797 0
M  V30 41650 N 3843.06 1.56149 -0.213351 0
M  V30 41651 C 3844.31 1.98378 0.421186 0
M  V30 41652 C 3844.64 1.10068 1.59996 0
M  V30 41653 O 3843.91 0.156574 1.93869 0
M  V30 41654 C 3844.2 3.49589 0.863689 0
M  V30 41655 C 3844.05 4.48673 -0.318156 0
M  V30 41656 C 3845.37 4.0498 1.72278 0
M  V30 41657 H 3842.49 0.721235 0.151622 0
M  V30 41658 H 3845.13 1.87488 -0.30794 0
M  V30 41659 H 3843.28 3.59 1.48496 0
M  V30 41660 H 3844.95 4.51282 -0.956174 0
M  V30 41661 H 3843.19 4.22886 -0.966955 0
M  V30 41662 H 3843.87 5.51989 0.0342691 0
M  V30 41663 H 3846.34 3.98462 1.19865 0
M  V30 41664 H 3845.22 5.11115 2.00132 0
M  V30 41665 H 3845.48 3.51357 2.68329 0
M  V30 41666 N 3844.54 -0.0601128 1.57485 0
M  V30 41667 C 3845.49 -1.07019 2.04489 0
M  V30 41668 C 3846.46 -1.37774 0.927762 0
M  V30 41669 O 3847.64 -1.48643 1.19624 0
M  V30 41670 C 3844.78 -2.37535 2.50342 0
M  V30 41671 C 3843.89 -2.13208 3.75721 0
M  V30 41672 C 3843.03 -3.37371 4.1031 0
M  V30 41673 C 3842.07 -3.0846 5.28695 0
M  V30 41674 N 3841.2 -4.24986 5.58866 0
M  V30 41675 H 3846.04 -0.662393 2.90545 0
M  V30 41676 H 3843.58 -0.315489 1.43677 0
M  V30 41677 H 3845.54 -3.13751 2.74984 0
M  V30 41678 H 3844.17 -2.76095 1.67247 0
M  V30 41679 H 3843.22 -1.2763 3.5835 0
M  V30 41680 H 3844.53 -1.87861 4.62071 0
M  V30 41681 H 3843.69 -4.21976 4.35914 0
M  V30 41682 H 3842.43 -3.65804 3.2255 0
M  V30 41683 H 3841.43 -2.22253 5.02875 0
M  V30 41684 H 3842.66 -2.81338 6.18082 0
M  V30 41685 H 3840.6 -4.53429 4.74066 0
M  V30 41686 H 3840.52 -4.02954 6.39659 0
M  V30 41687 H 3841.79 -5.10554 5.89028 0
M  V30 41688 N 3846.02 -1.54068 -0.331762 0
M  V30 41689 C 3847.29 -1.62522 -1.0884 0
M  V30 41690 C 3847.67 -0.453883 -2.06163 0
M  V30 41691 O 3847.02 0.552688 -2.21715 0
M  V30 41692 C 3847.23 -2.99144 -1.79761 0
M  V30 41693 C 3848.58 -3.54907 -2.3308 0
M  V30 41694 O 3849.6 -3.01395 -1.89841 0
M  V30 41695 O 3848.46 -4.48533 -3.12218 0
M  V30 41696 H 3845.56 -0.657813 -0.50121 0
M  V30 41697 H 3848.1 -1.66415 -0.33231 0
M  V30 41698 H 3846.87 -3.75834 -1.08926 0
M  V30 41699 H 3846.5 -2.98893 -2.622 0
M  V30 41700 N 3847.49 0.593399 -1.46002 0
M  V30 41701 C 3848.91 1.17546 -1.45051 0
M  V30 41702 C 3849.26 1.9532 -0.185635 0
M  V30 41703 O 3848.38 2.04353 0.711953 0
M  V30 41704 C 3848.98 2.13835 -2.62793 0
M  V30 41705 C 3847.54 2.67387 -2.64917 0
M  V30 41706 C 3846.68 1.43055 -2.37551 0
M  V30 41707 H 3849.63 0.381917 -1.54036 0
M  V30 41708 H 3849.65 2.97117 -2.37701 0
M  V30 41709 H 3849.17 1.57202 -3.54837 0
M  V30 41710 H 3847.27 3.27919 -1.76917 0
M  V30 41711 H 3847.38 3.10852 -3.64565 0
M  V30 41712 H 3845.74 1.72499 -1.87393 0
M  V30 41713 H 3846.53 0.882688 -3.31758 0
M  V30 41714 N 3848.97 1.33529 0.837127 0
M  V30 41715 C 3850.2 1.28127 1.62453 0
M  V30 41716 C 3850.62 -0.147466 1.88223 0
M  V30 41717 O 3849.97 -1.09015 1.46362 0
M  V30 41718 C 3850.02 2.05552 2.97373 0
M  V30 41719 O 3849.74 3.42852 2.72734 0
M  V30 41720 C 3851.25 2.07381 3.91801 0
M  V30 41721 H 3848.47 0.441343 0.505428 0
M  V30 41722 H 3851.01 1.75927 1.04259 0
M  V30 41723 H 3849.16 1.6143 3.52163 0
M  V30 41724 H 3849.58 3.82703 3.58663 0
M  V30 41725 H 3851.05 2.66005 4.83679 0
M  V30 41726 H 3851.53 1.06451 4.26104 0
M  V30 41727 H 3852.14 2.51529 3.42948 0
M  V30 41728 N 3850.45 -1.05559 1.17026 0
M  V30 41729 C 3851.36 -2.16727 0.898145 0
M  V30 41730 C 3852.38 -1.73496 -0.132339 0
M  V30 41731 O 3853.55 -2.01347 0.0460556 0
M  V30 41732 C 3850.62 -3.44253 0.411152 0
M  V30 41733 C 3849.68 -4.01951 1.50777 0
M  V30 41734 C 3848.91 -5.23391 1.04392 0
M  V30 41735 O 3849.13 -5.70306 -0.103409 0
M  V30 41736 O 3848.07 -5.73233 1.8354 0
M  V30 41737 H 3851.89 -2.42528 1.82795 0
M  V30 41738 H 3849.48 -1.15237 0.950836 0
M  V30 41739 H 3851.36 -4.21144 0.146911 0
M  V30 41740 H 3850.04 -3.19961 -0.490548 0
M  V30 41741 H 3848.94 -3.26518 1.82585 0
M  V30 41742 H 3850.28 -4.30554 2.38505 0
M  V30 41743 N 3851.93 -0.969911 -1.2422 0
M  V30 41744 C 3853.16 -0.64975 -1.96117 0
M  V30 41745 C 3853.57 0.785406 -1.72128 0
M  V30 41746 O 3852.91 1.53887 -1.00322 0
M  V30 41747 C 3852.97 -0.847297 -3.49372 0
M  V30 41748 C 3852.64 -2.26251 -3.97063 0
M  V30 41749 C 3853.63 -3.24042 -4.06562 0
M  V30 41750 C 3851.32 -2.5908 -4.30329 0
M  V30 41751 C 3853.31 -4.52746 -4.48664 0
M  V30 41752 C 3851 -3.8801 -4.72114 0
M  V30 41753 C 3852 -4.84655 -4.81247 0
M  V30 41754 O 3851.68 -6.11284 -5.22099 0
M  V30 41755 H 3851.42 -0.241251 -0.631485 0
M  V30 41756 H 3853.97 -1.30098 -1.58945 0
M  V30 41757 H 3852.2 -0.138896 -3.8645 0
M  V30 41758 H 3853.89 -0.525887 -4.02479 0
M  V30 41759 H 3854.66 -3.00008 -3.81078 0
M  V30 41760 H 3850.53 -1.84573 -4.22438 0
M  V30 41761 H 3854.08 -5.28182 -4.55708 0
M  V30 41762 H 3849.98 -4.11843 -4.97047 0
M  V30 41763 H 3850.74 -6.14883 -5.40242 0
M  V30 41764 N 3853.41 1.39131 -0.740291 0
M  V30 41765 C 3854.63 2.04699 -0.300966 0
M  V30 41766 C 3855.05 1.55821 1.06607 0
M  V30 41767 O 3854.41 0.725417 1.67463 0
M  V30 41768 C 3854.46 3.60256 -0.299637 0
M  V30 41769 O 3854.18 4.07336 -1.61272 0
M  V30 41770 C 3855.68 4.43028 0.155201 0
M  V30 41771 H 3852.9 0.658155 -0.130664 0
M  V30 41772 H 3855.44 1.78077 -1.00542 0
M  V30 41773 H 3853.6 3.85761 0.355973 0
M  V30 41774 H 3854.01 5.01693 -1.52986 0
M  V30 41775 H 3855.49 5.519 0.104971 0
M  V30 41776 H 3855.96 4.22456 1.20116 0
M  V30 41777 H 3856.57 4.22683 -0.47104 0
M  V30 41778 N 3854.88 0.488329 1.49844 0
M  V30 41779 C 3856.13 -0.0605427 2.02009 0
M  V30 41780 C 3856.45 -1.38651 1.37117 0
M  V30 41781 O 3855.72 -1.88811 0.522215 0
M  V30 41782 H 3854.3 -0.0253642 0.746569 0
M  V30 41783 H 3856.97 0.642683 1.83999 0
M  V30 41784 H 3856.06 -0.199487 3.11462 0
M  V30 41785 N 3856.36 -1.56034 0.221629 0
M  V30 41786 C 3857.77 -1.84493 -0.286208 0
M  V30 41787 C 3858.12 -1.14301 -1.59467 0
M  V30 41788 O 3857.25 -0.412709 -2.12428 0
M  V30 41789 C 3857.84 -3.34691 -0.526069 0
M  V30 41790 C 3856.4 -3.63467 -0.978214 0
M  V30 41791 C 3855.55 -2.77269 -0.0413299 0
M  V30 41792 H 3858.5 -1.52339 0.444818 0
M  V30 41793 H 3858.52 -3.54901 -1.37206 0
M  V30 41794 H 3858.03 -3.8575 0.426416 0
M  V30 41795 H 3856.14 -3.17864 -1.94405 0
M  V30 41796 H 3856.25 -4.71453 -0.852569 0
M  V30 41797 H 3854.61 -2.48732 -0.548135 0
M  V30 41798 H 3855.4 -3.31127 0.906074 0
M  V30 41799 N 3857.84 0.0517601 -1.57515 0
M  V30 41800 C 3858.75 1.07677 -2.08429 0
M  V30 41801 C 3859.77 1.41113 -1.018 0
M  V30 41802 O 3860.94 1.50888 -1.33397 0
M  V30 41803 C 3858.01 2.36539 -2.53476 0
M  V30 41804 C 3857.07 2.09892 -3.74491 0
M  V30 41805 C 3856.3 3.32611 -4.1738 0
M  V30 41806 O 3856.52 4.42468 -3.59969 0
M  V30 41807 O 3855.46 3.19644 -5.10011 0
M  V30 41808 H 3859.28 0.674165 -2.96123 0
M  V30 41809 H 3856.87 0.267248 -1.4699 0
M  V30 41810 H 3858.75 3.1234 -2.82882 0
M  V30 41811 H 3857.43 2.7614 -1.68903 0
M  V30 41812 H 3856.33 1.31733 -3.50139 0
M  V30 41813 H 3857.67 1.75161 -4.59978 0
M  V30 41814 N 3859.32 1.54242 0.323587 0
M  V30 41815 C 3860.54 1.76728 1.08545 0
M  V30 41816 C 3860.97 0.514407 1.80929 0
M  V30 41817 O 3860.33 -0.534039 1.73256 0
M  V30 41818 C 3860.38 2.9602 2.05923 0
M  V30 41819 O 3859.48 2.67564 3.1382 0
M  V30 41820 H 3858.82 0.585621 0.31296 0
M  V30 41821 H 3861.35 2.01265 0.367889 0
M  V30 41822 H 3861.36 3.23367 2.48793 0
M  V30 41823 H 3860.04 3.86877 1.52639 0
M  V30 41824 H 3858.61 2.51168 2.75625 0
M  V30 41825 N 3860.8 -0.585648 1.46314 0
M  V30 41826 C 3862.03 -1.36808 1.54813 0
M  V30 41827 C 3862.44 -1.88272 0.187116 0
M  V30 41828 O 3861.78 -1.64118 -0.825295 0
M  V30 41829 C 3861.84 -2.59322 2.48983 0
M  V30 41830 C 3861.5 -2.29345 3.95284 0
M  V30 41831 C 3862.5 -1.88361 4.84578 0
M  V30 41832 C 3860.19 -2.4158 4.40391 0
M  V30 41833 C 3862.18 -1.60001 6.16991 0
M  V30 41834 C 3859.87 -2.12834 5.72839 0
M  V30 41835 C 3860.87 -1.72109 6.60959 0
M  V30 41836 O 3860.55 -1.43713 7.9095 0
M  V30 41837 H 3860.29 -0.424399 0.526176 0
M  V30 41838 H 3862.84 -0.719217 1.92397 0
M  V30 41839 H 3861.07 -3.27003 2.06411 0
M  V30 41840 H 3862.76 -3.21388 2.4792 0
M  V30 41841 H 3863.52 -1.78425 4.50987 0
M  V30 41842 H 3859.4 -2.72242 3.72029 0
M  V30 41843 H 3862.95 -1.2814 6.8573 0
M  V30 41844 H 3858.84 -2.22393 6.0598 0
M  V30 41845 H 3859.61 -1.57583 8.03187 0
M  V30 41846 N 3862.28 -1.33971 -0.830033 0
M  V30 41847 C 3863.52 -1.26113 -1.58818 0
M  V30 41848 C 3863.85 0.17045 -1.93451 0
M  V30 41849 O 3863.13 1.11404 -1.59435 0
M  V30 41850 C 3863.41 -2.14506 -2.89239 0
M  V30 41851 C 3863.27 -3.66166 -2.61232 0
M  V30 41852 C 3864.58 -2.02493 -3.90749 0
M  V30 41853 H 3861.7 -0.459465 -0.576247 0
M  V30 41854 H 3864.35 -1.64156 -0.956707 0
M  V30 41855 H 3862.5 -1.82192 -3.4313 0
M  V30 41856 H 3864.17 -4.08812 -2.13706 0
M  V30 41857 H 3862.41 -3.87607 -1.94789 0
M  V30 41858 H 3863.08 -4.23371 -3.54204 0
M  V30 41859 H 3865.56 -2.3085 -3.4619 0
M  V30 41860 H 3864.43 -2.66578 -4.7982 0
M  V30 41861 H 3864.69 -0.99978 -4.30647 0
M  V30 41862 N 3863.75 1.04937 -1.17584 0
M  V30 41863 C 3864.72 2.10913 -0.897132 0
M  V30 41864 C 3865.72 1.60397 0.113795 0
M  V30 41865 O 3866.91 1.73795 -0.118665 0
M  V30 41866 C 3864.04 3.39157 -0.344311 0
M  V30 41867 H 3865.23 2.37071 -1.83678 0
M  V30 41868 H 3862.78 1.21222 -0.986655 0
M  V30 41869 H 3863.52 3.18657 0.602361 0
M  V30 41870 H 3863.3 3.77135 -1.07293 0
M  V30 41871 H 3864.79 4.17263 -0.167717 0
M  V30 41872 N 3865.23 0.976485 1.23703 0
M  V30 41873 C 3866.16 0.471577 2.24296 0
M  V30 41874 C 3867.18 -0.424456 1.57169 0
M  V30 41875 O 3868.37 -0.229221 1.77022 0
M  V30 41876 C 3865.47 -0.337562 3.37215 0
M  V30 41877 C 3864.64 0.550662 4.3392 0
M  V30 41878 C 3863.7 -0.20396 5.25805 0
M  V30 41879 O 3862.72 0.405095 5.67757 0
M  V30 41880 N 3863.93 -1.49107 5.61024 0
M  V30 41881 H 3866.69 1.3365 2.6825 0
M  V30 41882 H 3864.25 0.849306 1.37835 0
M  V30 41883 H 3866.24 -0.850644 3.95659 0
M  V30 41884 H 3864.81 -1.10346 2.92476 0
M  V30 41885 H 3864.03 1.24462 3.74036 0
M  V30 41886 H 3865.32 1.15613 4.95491 0
M  V30 41887 H 3864.72 -2.00748 5.28883 0
M  V30 41888 H 3863.28 -1.94967 6.21958 0
M  V30 41889 N 3866.71 -1.38737 0.747659 0
M  V30 41890 C 3867.64 -2.28109 0.0645393 0
M  V30 41891 C 3868.62 -1.45064 -0.734529 0
M  V30 41892 O 3869.8 -1.74437 -0.714413 0
M  V30 41893 C 3866.93 -3.26091 -0.915538 0
M  V30 41894 C 3865.98 -4.26015 -0.203424 0
M  V30 41895 S 3866.81 -5.24256 1.0916 0
M  V30 41896 C 3867.97 -6.25795 0.114444 0
M  V30 41897 H 3868.2 -2.85698 0.822422 0
M  V30 41898 H 3865.73 -1.4465 0.539987 0
M  V30 41899 H 3867.69 -3.83059 -1.47568 0
M  V30 41900 H 3866.35 -2.67496 -1.64635 0
M  V30 41901 H 3865.54 -4.95052 -0.945485 0
M  V30 41902 H 3865.15 -3.72912 0.285032 0
M  V30 41903 H 3867.44 -6.73646 -0.721618 0
M  V30 41904 H 3868.38 -7.03876 0.772312 0
M  V30 41905 H 3868.79 -5.63884 -0.263607 0
M  V30 41906 N 3868.19 -0.496268 -1.49583 0
M  V30 41907 C 3869.44 0.0517465 -2.01634 0
M  V30 41908 C 3869.75 1.38484 -1.38136 0
M  V30 41909 O 3870.96 2.01927 -1.81487 0
M  V30 41910 C 3869.41 0.142692 -3.59617 0
M  V30 41911 C 3869.02 -1.18348 -4.32085 0
M  V30 41912 C 3870.76 0.641323 -4.19628 0
M  V30 41913 C 3868.67 -1.05495 -5.81915 0
M  V30 41914 H 3867.6 0.0231125 -0.753646 0
M  V30 41915 H 3870.25 -0.634975 -1.72164 0
M  V30 41916 H 3868.63 0.893758 -3.85782 0
M  V30 41917 H 3869.81 -1.94747 -4.17625 0
M  V30 41918 H 3868.12 -1.61518 -3.83798 0
M  V30 41919 H 3870.72 0.754915 -5.29344 0
M  V30 41920 H 3871.06 1.63899 -3.82678 0
M  V30 41921 H 3871.6 -0.0530729 -3.97765 0
M  V30 41922 H 3868.33 -2.02675 -6.23381 0
M  V30 41923 H 3867.85 -0.331772 -5.98882 0
M  V30 41924 H 3869.53 -0.731754 -6.42849 0
M  V30 41925 N 3869.67 1.55914 -0.2299 0
M  V30 41926 C 3870.91 1.98814 0.400122 0
M  V30 41927 C 3871.24 1.11759 1.58819 0
M  V30 41928 O 3870.52 0.177128 1.93692 0
M  V30 41929 C 3870.8 3.50485 0.826562 0
M  V30 41930 C 3870.66 4.48311 -0.365725 0
M  V30 41931 C 3871.97 4.06784 1.67973 0
M  V30 41932 H 3869.09 0.722802 0.143964 0
M  V30 41933 H 3871.74 1.87151 -0.327808 0
M  V30 41934 H 3869.89 3.60555 1.4468 0
M  V30 41935 H 3871.56 4.50242 -1.00398 0
M  V30 41936 H 3869.8 4.21836 -1.01175 0
M  V30 41937 H 3870.47 5.51995 -0.0242786 0
M  V30 41938 H 3872.95 3.9971 1.15632 0
M  V30 41939 H 3871.82 5.13209 1.94699 0
M  V30 41940 H 3872.08 3.54183 2.64588 0
M  V30 41941 N 3871.14 -0.043406 1.5754 0
M  V30 41942 C 3872.05 -1.0657 2.08997 0
M  V30 41943 C 3873.07 -1.40571 1.02546 0
M  V30 41944 O 3874.25 -1.50179 1.34195 0
M  V30 41945 C 3871.31 -2.35192 2.54727 0
M  V30 41946 C 3870.37 -2.07903 3.75599 0
M  V30 41947 C 3869.6 -3.30392 4.19138 0
M  V30 41948 O 3869.83 -4.40553 3.62311 0
M  V30 41949 O 3868.76 -3.16935 5.11699 0
M  V30 41950 H 3872.59 -0.658451 2.96476 0
M  V30 41951 H 3870.17 -0.259449 1.4713 0
M  V30 41952 H 3872.05 -3.10835 2.84534 0
M  V30 41953 H 3870.73 -2.7524 1.70365 0
M  V30 41954 H 3869.64 -1.29874 3.50833 0
M  V30 41955 H 3870.97 -1.72719 4.609 0
M  V30 41956 N 3872.62 -1.54412 -0.315402 0
M  V30 41957 C 3873.57 -1.84364 -1.38847 0
M  V30 41958 C 3874.54 -0.691376 -1.51027 0
M  V30 41959 O 3875.72 -0.938606 -1.66117 0
M  V30 41960 C 3872.86 -2.08384 -2.75082 0
M  V30 41961 C 3871.98 -3.3605 -2.71467 0
M  V30 41962 C 3871.11 -3.49988 -3.99602 0
M  V30 41963 C 3870.15 -4.71499 -3.90327 0
M  V30 41964 N 3869.29 -4.8232 -5.10208 0
M  V30 41965 H 3874.13 -2.75907 -1.12604 0
M  V30 41966 H 3871.66 -1.36634 -0.544926 0
M  V30 41967 H 3873.62 -2.20304 -3.54291 0
M  V30 41968 H 3872.25 -1.20125 -2.99616 0
M  V30 41969 H 3871.3 -3.32826 -1.84203 0
M  V30 41970 H 3872.62 -4.25372 -2.60499 0
M  V30 41971 H 3871.77 -3.61494 -4.87244 0
M  V30 41972 H 3870.51 -2.58773 -4.13386 0
M  V30 41973 H 3869.51 -4.60041 -3.01069 0
M  V30 41974 H 3870.74 -5.64107 -3.78101 0
M  V30 41975 H 3868.69 -3.94023 -5.24483 0
M  V30 41976 H 3868.6 -5.6562 -5.01607 0
M  V30 41977 H 3869.87 -4.98166 -5.99542 0
M  V30 41978 N 3874.1 0.57788 -1.46623 0
M  V30 41979 C 3875.05 1.70766 -1.57929 0
M  V30 41980 C 3876.04 1.63381 -0.447537 0
M  V30 41981 O 3877.25 1.68816 -0.624588 0
M  V30 41982 H 3873.62 0.564681 -0.496628 0
M  V30 41983 H 3875.59 1.58363 -2.52911 0
M  V30 41984 C 3874.34 3.09149 -1.59129 0
M  V30 41985 H 3873.67 3.15504 -2.45555 0
M  V30 41986 H 3875.11 3.87947 -1.71094 0
M  V30 41987 C 3873.57 3.35369 -0.320793 0
M  V30 41988 O 3874.1 3.97389 0.58693 0
M  V30 41989 N 3872.3 2.8986 -0.207207 0
M  V30 41990 H 3871.85 2.3957 -0.946786 0
M  V30 41991 H 3871.81 3.07776 0.641974 0
M  V30 41992 N 3875.58 1.34409 0.822917 0
M  V30 41993 C 3876.51 1.28631 1.94875 0
M  V30 41994 C 3877.49 0.163756 1.6931 0
M  V30 41995 O 3878.67 0.356117 1.90907 0
M  V30 41996 C 3875.8 1.041 3.31331 0
M  V30 41997 C 3874.76 2.12821 3.71337 0
M  V30 41998 C 3874.08 1.73478 5.05776 0
M  V30 41999 C 3875.38 3.54649 3.83433 0
M  V30 42000 H 3877.08 2.2283 1.99968 0
M  V30 42001 H 3874.62 1.07269 0.960696 0
M  V30 42002 H 3876.58 0.987019 4.09678 0
M  V30 42003 H 3875.3 0.0634216 3.26538 0
M  V30 42004 H 3873.96 2.17288 2.95265 0
M  V30 42005 H 3873.61 0.743814 4.9747 0
M  V30 42006 H 3873.31 2.46245 5.33514 0
M  V30 42007 H 3874.83 1.69576 5.8658 0
M  V30 42008 H 3876.25 3.52595 4.52051 0
M  V30 42009 H 3874.64 4.26038 4.22625 0
M  V30 42010 H 3875.71 3.91991 2.85432 0
M  V30 42011 N 3877.06 -1.04312 1.18139 0
M  V30 42012 C 3878.33 -1.74437 0.884932 0
M  V30 42013 C 3878.71 -2.0201 -0.61279 0
M  V30 42014 O 3878.06 -1.66328 -1.56676 0
M  V30 42015 C 3878.27 -3.03133 1.72949 0
M  V30 42016 C 3879.62 -3.76916 1.95497 0
M  V30 42017 O 3880.64 -3.13025 1.69982 0
M  V30 42018 O 3879.5 -4.91743 2.38435 0
M  V30 42019 H 3876.6 -0.75896 0.328494 0
M  V30 42020 H 3879.14 -1.104 1.2888 0
M  V30 42021 H 3877.91 -2.78874 2.7449 0
M  V30 42022 H 3877.54 -3.74909 1.32398 0
M  V30 42023 N 3878.53 -0.983032 -1.23184 0
M  V30 42024 C 3879.78 -0.663975 -1.92257 0
M  V30 42025 C 3880.14 0.794124 -1.75247 0
M  V30 42026 O 3879.43 1.56568 -1.1044 0
M  V30 42027 C 3879.62 -0.992958 -3.43329 0
M  V30 42028 C 3879.45 -2.48149 -3.75036 0
M  V30 42029 C 3878.22 -3.14391 -3.95584 0
M  V30 42030 C 3880.42 -3.46229 -3.80303 0
M  V30 42031 N 3878.4 -4.52822 -4.14518 0
M  V30 42032 C 3879.77 -4.70078 -4.04261 0
M  V30 42033 C 3881.83 -3.40673 -3.63107 0
M  V30 42034 C 3880.53 -5.89052 -4.12808 0
M  V30 42035 C 3882.56 -4.59014 -3.72908 0
M  V30 42036 C 3881.92 -5.81659 -3.97306 0
M  V30 42037 H 3878.02 -0.294073 -0.7246 0
M  V30 42038 H 3880.6 -1.26103 -1.48345 0
M  V30 42039 H 3878.77 -0.424574 -3.86072 0
M  V30 42040 H 3880.5 -0.630904 -3.99752 0
M  V30 42041 H 3877.26 -2.64881 -3.926 0
M  V30 42042 H 3877.68 -5.24597 -4.27933 0
M  V30 42043 H 3882.33 -2.46876 -3.43238 0
M  V30 42044 H 3880.04 -6.83262 -4.31484 0
M  V30 42045 H 3883.63 -4.56293 -3.60954 0
M  V30 42046 H 3882.51 -6.71701 -4.04707 0
M  V30 42047 N 3880.01 1.38338 -0.755006 0
M  V30 42048 C 3881.26 2.00085 -0.311797 0
M  V30 42049 C 3881.59 1.59931 1.1069 0
M  V30 42050 O 3880.84 0.828931 1.77277 0
M  V30 42051 C 3881.14 3.55333 -0.383781 0
M  V30 42052 C 3880.81 4.15203 -1.75833 0
M  V30 42053 C 3879.47 4.31268 -2.13451 0
M  V30 42054 C 3881.82 4.48215 -2.65993 0
M  V30 42055 C 3879.15 4.77643 -3.40697 0
M  V30 42056 C 3881.5 4.96007 -3.92632 0
M  V30 42057 C 3880.17 5.10279 -4.30316 0
M  V30 42058 H 3879.44 0.732164 -0.114095 0
M  V30 42059 H 3882.08 1.65364 -0.965764 0
M  V30 42060 H 3880.39 3.902 0.353748 0
M  V30 42061 H 3882.08 4.00994 -0.0224115 0
M  V30 42062 H 3878.67 4.03114 -1.45592 0
M  V30 42063 H 3882.86 4.35404 -2.38195 0
M  V30 42064 H 3878.11 4.86878 -3.69811 0
M  V30 42065 H 3882.29 5.20521 -4.62635 0
M  V30 42066 H 3879.92 5.45973 -5.28978 0
M  V30 42067 N 3881.49 0.504194 1.49317 0
M  V30 42068 C 3882.9 0.0572057 1.86612 0
M  V30 42069 C 3883.25 -1.35784 1.41623 0
M  V30 42070 O 3882.38 -2.01247 0.795516 0
M  V30 42071 C 3882.97 0.0970369 3.38661 0
M  V30 42072 C 3881.53 -0.294626 3.75245 0
M  V30 42073 C 3880.68 0.468173 2.73319 0
M  V30 42074 H 3883.63 0.716813 1.41589 0
M  V30 42075 H 3883.65 -0.697503 3.74052 0
M  V30 42076 H 3883.16 1.12704 3.71375 0
M  V30 42077 H 3881.26 -1.32775 3.4814 0
M  V30 42078 H 3881.38 0.0270463 4.79092 0
M  V30 42079 H 3879.74 -0.0823931 2.54567 0
M  V30 42080 H 3880.52 1.49832 3.08877 0
M  V30 42081 N 3882.97 -1.5579 0.238166 0
M  V30 42082 C 3884.38 -1.59171 -0.11688 0
M  V30 42083 C 3884.58 -1.25523 -1.57627 0
M  V30 42084 O 3883.64 -0.998373 -2.31924 0
M  V30 42085 C 3884.95 -2.99861 0.224419 0
M  V30 42086 C 3886.5 -3.12549 0.168005 0
M  V30 42087 C 3886.98 -4.55444 0.483212 0
M  V30 42088 N 3888.47 -4.61168 0.433391 0
M  V30 42089 C 3889.2 -5.69698 0.650561 0
M  V30 42090 N 3888.7 -6.86524 0.930393 0
M  V30 42091 N 3890.49 -5.5908 0.581862 0
M  V30 42092 H 3882.64 -1.75934 1.19 0
M  V30 42093 H 3884.91 -0.818563 0.478183 0
M  V30 42094 H 3884.61 -3.29192 1.23797 0
M  V30 42095 H 3884.49 -3.74474 -0.452672 0
M  V30 42096 H 3886.87 -2.83005 -0.836202 0
M  V30 42097 H 3886.95 -2.4023 0.878818 0
M  V30 42098 H 3886.6 -4.85708 1.48493 0
M  V30 42099 H 3886.53 -5.26011 -0.248981 0
M  V30 42100 H 3889.02 -3.77227 0.225478 0
M  V30 42101 H 3889.33 -7.65163 1.08376 0
M  V30 42102 H 3887.68 -6.88229 0.967771 0
M  V30 42103 H 3890.87 -4.66688 0.363355 0
M  V30 42104 H 3891.04 -6.43592 0.754511 0
M  V30 42105 N 3884.45 0.0350506 -1.57561 0
M  V30 42106 C 3885.38 1.07043 -2.01537 0
M  V30 42107 C 3886.36 1.35512 -0.898627 0
M  V30 42108 O 3887.54 1.48269 -1.16398 0
M  V30 42109 C 3884.67 2.40654 -2.38334 0
M  V30 42110 C 3883.71 2.28082 -3.6039 0
M  V30 42111 S 3884.55 1.63992 -5.09771 0
M  V30 42112 C 3885.7 2.99106 -5.49806 0
M  V30 42113 H 3885.94 0.695833 -2.89042 0
M  V30 42114 H 3883.47 0.244832 -1.52446 0
M  V30 42115 H 3885.43 3.17495 -2.60206 0
M  V30 42116 H 3884.09 2.75263 -1.51291 0
M  V30 42117 H 3883.28 3.26702 -3.83773 0
M  V30 42118 H 3882.88 1.59383 -3.38339 0
M  V30 42119 H 3885.18 3.95437 -5.50124 0
M  V30 42120 H 3886.12 2.80463 -6.50189 0
M  V30 42121 H 3886.53 3.01404 -4.77301 0
M  V30 42122 N 3885.92 1.54577 0.307209 0
M  V30 42123 C 3887.34 1.45652 0.652513 0
M  V30 42124 C 3887.54 0.642664 1.90977 0
M  V30 42125 O 3886.6 0.147907 2.52066 0
M  V30 42126 C 3887.91 2.89549 0.81129 0
M  V30 42127 C 3889.46 2.99553 0.907577 0
M  V30 42128 C 3889.93 4.44634 1.0984 0
M  V30 42129 N 3891.42 4.48317 1.16475 0
M  V30 42130 C 3892.16 5.57748 1.33058 0
M  V30 42131 N 3891.65 6.77116 1.46579 0
M  V30 42132 N 3893.45 5.45425 1.35897 0
M  V30 42133 H 3885.6 2.05963 -0.518927 0
M  V30 42134 H 3887.86 0.932545 -0.170479 0
M  V30 42135 H 3887.57 3.51675 -0.0415497 0
M  V30 42136 H 3887.44 3.36609 1.70218 0
M  V30 42137 H 3889.83 2.37544 1.75091 0
M  V30 42138 H 3889.91 2.55799 -0.00719882 0
M  V30 42139 H 3889.55 5.07235 0.259859 0
M  V30 42140 H 3889.48 4.86012 2.0273 0
M  V30 42141 H 3891.97 3.62316 1.07404 0
M  V30 42142 H 3892.29 7.56273 1.5897 0
M  V30 42143 H 3890.63 6.79993 1.43646 0
M  V30 42144 H 3893.82 4.51118 1.24941 0
M  V30 42145 H 3894 6.3076 1.48477 0
M  V30 42146 N 3887.4 -0.570096 1.46927 0
M  V30 42147 C 3888.37 -1.66027 1.58012 0
M  V30 42148 C 3889.37 -1.54192 0.456215 0
M  V30 42149 O 3890.56 -1.58583 0.720907 0
M  V30 42150 C 3887.69 -3.05515 1.5124 0
M  V30 42151 H 3888.88 -1.57553 2.5518 0
M  V30 42152 H 3886.43 -0.788974 1.34925 0
M  V30 42153 H 3887.17 -3.19533 0.553985 0
M  V30 42154 H 3886.95 -3.15513 2.32795 0
M  V30 42155 H 3888.44 -3.84852 1.62108 0
M  V30 42156 N 3888.88 -1.34844 -0.815777 0
M  V30 42157 C 3889.81 -1.21356 -1.93256 0
M  V30 42158 C 3890.79 -0.103544 -1.6227 0
M  V30 42159 O 3891.98 -0.269987 -1.86556 0
M  V30 42160 C 3889.1 -0.866552 -3.27427 0
M  V30 42161 C 3888.15 -1.98733 -3.77369 0
M  V30 42162 S 3888.98 -3.6018 -3.96271 0
M  V30 42163 C 3890.14 -3.27536 -5.33358 0
M  V30 42164 H 3890.37 -2.15888 -2.04401 0
M  V30 42165 H 3887.9 -1.19953 -0.972144 0
M  V30 42166 H 3889.86 -0.673135 -4.04943 0
M  V30 42167 H 3888.52 0.0605446 -3.14042 0
M  V30 42168 H 3887.72 -1.69845 -4.74519 0
M  V30 42169 H 3887.32 -2.13861 -3.06822 0
M  V30 42170 H 3889.61 -2.79794 -6.17027 0
M  V30 42171 H 3890.55 -4.23852 -5.67234 0
M  V30 42172 H 3890.96 -2.63536 -4.99209 0
M  V30 42173 N 3890.36 1.03684 -1.1869 0
M  V30 42174 C 3891.58 1.81131 -1.01027 0
M  V30 42175 C 3892.01 1.82964 0.436551 0
M  V30 42176 O 3891.37 1.24977 1.31341 0
M  V30 42177 C 3891.42 3.24422 -1.57426 0
M  V30 42178 O 3890.52 4.04602 -0.798201 0
M  V30 42179 H 3889.86 0.559459 -0.357633 0
M  V30 42180 H 3892.39 1.30553 -1.57534 0
M  V30 42181 H 3892.4 3.7519 -1.60302 0
M  V30 42182 H 3891.08 3.22402 -2.62735 0
M  V30 42183 H 3889.65 3.63268 -0.842064 0
M  V30 42184 N 3891.84 0.989551 1.22661 0
M  V30 42185 C 3892.77 0.556931 2.26761 0
M  V30 42186 C 3893.75 -0.414509 1.64972 0
M  V30 42187 O 3894.93 -0.305876 1.91776 0
M  V30 42188 C 3892.06 -0.132512 3.47047 0
M  V30 42189 C 3891.02 0.757132 4.2125 0
M  V30 42190 C 3890.34 -0.06504 5.3466 0
M  V30 42191 C 3891.64 2.05237 4.80286 0
M  V30 42192 H 3893.34 1.42708 2.63201 0
M  V30 42193 H 3890.88 0.687636 1.26521 0
M  V30 42194 H 3892.84 -0.446536 4.19027 0
M  V30 42195 H 3891.56 -1.03718 3.09694 0
M  V30 42196 H 3890.22 1.05475 3.51099 0
M  V30 42197 H 3889.87 -0.970521 4.93548 0
M  V30 42198 H 3889.57 0.527166 5.8523 0
M  V30 42199 H 3891.09 -0.373235 6.09458 0
M  V30 42200 H 3892.51 1.80252 5.44226 0
M  V30 42201 H 3890.9 2.59312 5.41182 0
M  V30 42202 H 3891.97 2.73329 4.00524 0
M  V30 42203 N 3893.32 -1.37936 0.762332 0
M  V30 42204 C 3894.56 -2.00213 0.322881 0
M  V30 42205 C 3894.89 -1.60378 -1.09511 0
M  V30 42206 O 3894.17 -0.845462 -1.75163 0
M  V30 42207 C 3894.45 -3.57205 0.455714 0
M  V30 42208 C 3894.31 -4.06978 1.91544 0
M  V30 42209 C 3895.62 -4.39859 -0.145681 0
M  V30 42210 H 3892.74 -0.727363 0.118794 0
M  V30 42211 H 3895.39 -1.63751 0.963614 0
M  V30 42212 H 3893.54 -3.88396 -0.0897658 0
M  V30 42213 H 3895.21 -3.86392 2.5199 0
M  V30 42214 H 3893.45 -3.5952 2.42751 0
M  V30 42215 H 3894.12 -5.1605 1.95949 0
M  V30 42216 H 3896.6 -4.14871 0.319633 0
M  V30 42217 H 3895.47 -5.48895 -0.0225476 0
M  V30 42218 H 3895.73 -4.24501 -1.23497 0
M  V30 42219 N 3894.79 -0.512106 -1.49048 0
M  V30 42220 C 3896.02 0.027068 -2.07382 0
M  V30 42221 C 3896.44 1.29047 -1.36852 0
M  V30 42222 O 3895.8 1.76158 -0.428744 0
M  V30 42223 C 3895.85 0.252399 -3.59716 0
M  V30 42224 O 3894.95 1.32484 -3.9054 0
M  V30 42225 H 3894.29 -0.0311624 -0.663268 0
M  V30 42226 H 3896.82 -0.714907 -1.91704 0
M  V30 42227 H 3896.83 0.480532 -4.0516 0
M  V30 42228 H 3895.51 -0.670604 -4.10458 0
M  V30 42229 H 3894.09 1.08078 -3.56894 0
M  V30 42230 N 3896.27 1.55662 -0.246424 0
M  V30 42231 C 3897.22 2.22754 0.66957 0
M  V30 42232 C 3898.21 1.21497 1.18046 0
M  V30 42233 O 3899.42 1.3951 1.13741 0
M  V30 42234 H 3895.79 0.714533 0.234408 0
M  V30 42235 H 3897.77 2.98291 0.0805437 0
M  V30 42236 C 3896.51 2.94036 1.85575 0
M  V30 42237 H 3895.84 3.71724 1.47178 0
M  V30 42238 H 3897.28 3.44345 2.47391 0
M  V30 42239 C 3895.74 1.97884 2.7266 0
M  V30 42240 O 3896.27 1.5116 3.72174 0
M  V30 42241 N 3894.47 1.64996 2.39217 0
M  V30 42242 H 3894.02 2.03186 1.58345 0
M  V30 42243 H 3893.98 1.00927 2.9776 0
M  V30 42244 N 3897.75 -0.0266943 1.57577 0
M  V30 42245 C 3898.66 -1.04348 2.10116 0
M  V30 42246 C 3899.68 -1.39476 1.04032 0
M  V30 42247 O 3900.85 -1.48747 1.3578 0
M  V30 42248 C 3897.92 -2.32477 2.57207 0
M  V30 42249 C 3896.98 -2.03908 3.77783 0
M  V30 42250 C 3896.21 -3.25928 4.22619 0
M  V30 42251 O 3896.43 -4.36686 3.66963 0
M  V30 42252 O 3895.37 -3.11489 5.15032 0
M  V30 42253 H 3899.19 -0.626969 2.97158 0
M  V30 42254 H 3896.78 -0.243829 1.47397 0
M  V30 42255 H 3898.66 -3.078 2.87815 0
M  V30 42256 H 3897.34 -2.73418 1.73275 0
M  V30 42257 H 3896.24 -1.26146 3.5219 0
M  V30 42258 H 3897.58 -1.67821 4.62706 0
M  V30 42259 N 3899.23 -1.54738 -0.299007 0
M  V30 42260 C 3900.48 -1.73769 -1.03192 0
M  V30 42261 C 3900.8 -0.527478 -1.8773 0
M  V30 42262 O 3900.07 0.458208 -1.90466 0
M  V30 42263 H 3898.65 -0.640754 -0.383984 0
M  V30 42264 H 3901.31 -1.92094 -0.329511 0
M  V30 42265 H 3900.4 -2.62777 -1.68388 0
M  V30 42266 N 3900.71 0.562296 -1.47228 0
M  V30 42267 C 3901.98 1.32298 -1.44071 0
M  V30 42268 C 3902.36 2.10668 -0.134949 0
M  V30 42269 O 3901.71 2.10726 0.883566 0
M  V30 42270 C 3901.92 2.2318 -2.68313 0
M  V30 42271 C 3903.27 2.84361 -3.15315 0
M  V30 42272 O 3904.29 2.33484 -2.69005 0
M  V30 42273 O 3903.15 3.76823 -3.95812 0
M  V30 42274 H 3900.25 0.595454 -0.573902 0
M  V30 42275 H 3902.79 0.58162 -1.59422 0
M  V30 42276 H 3901.56 1.64836 -3.54887 0
M  V30 42277 H 3901.19 3.04621 -2.55523 0
M  V30 42278 N 3902.18 1.35274 0.808615 0
M  V30 42279 C 3903.41 1.31702 1.60217 0
M  V30 42280 C 3903.83 -0.103353 1.87816 0
M  V30 42281 O 3903.19 -1.06955 1.46391 0
M  V30 42282 C 3903.24 2.12745 2.91156 0
M  V30 42283 O 3902.34 1.50677 3.83888 0
M  V30 42284 H 3901.68 0.451648 0.486734 0
M  V30 42285 H 3904.21 1.78286 1.00375 0
M  V30 42286 H 3904.22 2.24626 3.40598 0
M  V30 42287 H 3902.9 3.16007 2.70394 0
M  V30 42288 H 3901.48 1.47624 3.42435 0
M  V30 42289 N 3903.66 -1.03053 1.19239 0
M  V30 42290 C 3904.57 -2.14773 0.943914 0
M  V30 42291 C 3905.59 -1.73738 -0.0955079 0
M  V30 42292 O 3906.76 -2.01204 0.088754 0
M  V30 42293 C 3903.83 -3.43304 0.48408 0
M  V30 42294 C 3902.89 -3.98663 1.59269 0
M  V30 42295 C 3902.12 -5.21059 1.1547 0
M  V30 42296 O 3902.35 -5.70397 0.0175844 0
M  V30 42297 O 3901.28 -5.69211 1.95658 0
M  V30 42298 H 3905.11 -2.38596 1.87898 0
M  V30 42299 H 3902.69 -1.13194 0.975066 0
M  V30 42300 H 3904.57 -4.20737 0.236209 0
M  V30 42301 H 3903.25 -3.2093 -0.422569 0
M  V30 42302 H 3902.16 -3.22571 1.89469 0
M  V30 42303 H 3903.49 -4.25398 2.47584 0
M  V30 42304 N 3905.14 -0.996042 -1.22134 0
M  V30 42305 C 3906.07 -0.507201 -2.23518 0
M  V30 42306 C 3907.09 0.399398 -1.57825 0
M  V30 42307 O 3908.27 0.201029 -1.77364 0
M  V30 42308 C 3905.37 0.283871 -3.37709 0
M  V30 42309 C 3904.55 -0.619625 -4.32989 0
M  V30 42310 C 3903.61 0.120283 -5.26063 0
M  V30 42311 O 3902.63 -0.495369 -5.6704 0
M  V30 42312 N 3903.83 1.40162 -5.63325 0
M  V30 42313 H 3906.6 -1.379 -2.66089 0
M  V30 42314 H 3904.16 -0.871126 -1.36466 0
M  V30 42315 H 3906.15 0.787591 -3.96962 0
M  V30 42316 H 3904.72 1.05679 -2.94195 0
M  V30 42317 H 3903.94 -1.30397 -3.72008 0
M  V30 42318 H 3905.23 -1.23481 -4.93589 0
M  V30 42319 H 3904.63 1.92308 -5.32009 0
M  V30 42320 H 3903.19 1.85047 -6.24981 0
M  V30 42321 N 3906.62 1.37529 -0.769636 0
M  V30 42322 C 3907.57 2.32165 -0.142252 0
M  V30 42323 C 3908.56 1.54829 0.687349 0
M  V30 42324 O 3909.77 1.70241 0.584647 0
M  V30 42325 H 3906.14 0.751507 -0.0272131 0
M  V30 42326 H 3908.11 2.82665 -0.956197 0
M  V30 42327 C 3906.86 3.40076 0.72415 0
M  V30 42328 H 3906.18 3.99687 0.0951615 0
M  V30 42329 H 3907.62 4.08661 1.13014 0
M  V30 42330 C 3906.08 2.79981 1.87383 0
M  V30 42331 O 3906.61 2.70562 2.96916 0
M  V30 42332 N 3904.82 2.37555 1.6738 0
M  V30 42333 H 3904.37 2.45415 0.782898 0
M  V30 42334 H 3904.32 1.97691 2.4447 0
M  V30 42335 N 3908.1 0.520003 1.48774 0
M  V30 42336 C 3909.01 -0.252288 2.3324 0
M  V30 42337 C 3910.02 -0.948824 1.45854 0
M  V30 42338 O 3911.2 -0.925998 1.7885 0
M  V30 42339 C 3908.26 -1.29161 3.21743 0
M  V30 42340 C 3907.32 -0.606489 4.24994 0
M  V30 42341 C 3906.56 -1.59629 5.09268 0
M  V30 42342 O 3906.78 -2.82801 4.95358 0
M  V30 42343 O 3905.71 -1.14116 5.90983 0
M  V30 42344 H 3909.54 0.43958 3.00502 0
M  V30 42345 H 3907.13 0.281057 1.46733 0
M  V30 42346 H 3909.01 -1.89247 3.76515 0
M  V30 42347 H 3907.68 -1.96606 2.57153 0
M  V30 42348 H 3906.59 0.0346105 3.74084 0
M  V30 42349 H 3907.92 0.0258492 4.92193 0
M  V30 42350 N 3909.57 -1.55529 0.254676 0
M  V30 42351 C 3910.82 -1.98307 -0.368426 0
M  V30 42352 C 3911.14 -1.1462 -1.58498 0
M  V30 42353 O 3912.34 -1.47447 -2.27973 0
M  V30 42354 C 3910.8 -3.5289 -0.706868 0
M  V30 42355 C 3910.41 -4.45326 0.488726 0
M  V30 42356 C 3912.15 -4.04305 -1.29373 0
M  V30 42357 C 3910.06 -5.91266 0.126007 0
M  V30 42358 H 3908.99 -0.740617 -0.141431 0
M  V30 42359 H 3911.64 -1.80011 0.356116 0
M  V30 42360 H 3910.02 -3.66909 -1.48975 0
M  V30 42361 H 3911.19 -4.43069 1.26595 0
M  V30 42362 H 3909.51 -4.04435 0.99104 0
M  V30 42363 H 3912.11 -5.10867 -1.57857 0
M  V30 42364 H 3912.45 -3.52116 -2.22081 0
M  V30 42365 H 3912.98 -3.93643 -0.573578 0
M  V30 42366 H 3909.72 -6.47509 1.02043 0
M  V30 42367 H 3909.24 -5.9664 -0.614864 0
M  V30 42368 H 3910.92 -6.46354 -0.28906 0
M  V30 42369 N 3911.05 0.0183372 -1.57589 0
M  V30 42370 C 3912.47 0.374155 -1.55152 0
M  V30 42371 C 3912.67 1.75941 -0.982201 0
M  V30 42372 O 3911.72 2.45072 -0.607948 0
M  V30 42373 C 3913.04 0.266178 -2.9952 0
M  V30 42374 C 3914.59 0.342472 -3.11121 0
M  V30 42375 C 3915.06 0.263825 -4.5724 0
M  V30 42376 N 3916.55 0.322291 -4.62077 0
M  V30 42377 C 3917.29 0.284493 -5.72694 0
M  V30 42378 N 3916.78 0.19836 -6.92516 0
M  V30 42379 N 3918.58 0.335013 -5.61101 0
M  V30 42380 H 3910.73 -0.888067 -1.92943 0
M  V30 42381 H 3912.99 -0.338711 -0.885426 0
M  V30 42382 H 3912.7 -0.686184 -3.44941 0
M  V30 42383 H 3912.57 1.05559 -3.62129 0
M  V30 42384 H 3914.96 1.28527 -2.6564 0
M  V30 42385 H 3915.04 -0.476479 -2.51323 0
M  V30 42386 H 3914.68 -0.675352 -5.0339 0
M  V30 42387 H 3914.61 1.10102 -5.14961 0
M  V30 42388 H 3917.1 0.390938 -3.75872 0
M  V30 42389 H 3917.42 0.174913 -7.72602 0
M  V30 42390 H 3915.76 0.164252 -6.94806 0
M  V30 42391 H 3918.95 0.40037 -4.66385 0
M  V30 42392 H 3919.12 0.302089 -6.47295 0
M  V30 42393 N 3912.53 1.54894 0.290797 0
M  V30 42394 C 3913.76 1.7899 1.04772 0
M  V30 42395 C 3914.18 0.552669 1.79798 0
M  V30 42396 O 3913.54 -0.497168 1.7435 0
M  V30 42397 C 3913.59 3.00322 1.99598 0
M  V30 42398 O 3912.69 2.74161 3.08074 0
M  V30 42399 H 3912.03 0.592128 0.300467 0
M  V30 42400 H 3914.56 2.02 0.325115 0
M  V30 42401 H 3914.57 3.28571 2.41878 0
M  V30 42402 H 3913.25 3.90028 1.44399 0
M  V30 42403 H 3911.82 2.56957 2.70236 0
M  V30 42404 N 3914.01 -0.55448 1.47524 0
M  V30 42405 C 3914.94 -1.67099 1.63095 0
M  V30 42406 C 3915.92 -1.63177 0.480327 0
M  V30 42407 O 3917.1 -1.80756 0.709988 0
M  V30 42408 C 3914.23 -3.05733 1.64756 0
M  V30 42409 C 3913.19 -3.24503 2.79074 0
M  V30 42410 C 3912.51 -4.6395 2.65809 0
M  V30 42411 C 3913.81 -3.09616 4.20637 0
M  V30 42412 H 3915.51 -1.54323 2.56563 0
M  V30 42413 H 3913.05 -0.741002 1.23471 0
M  V30 42414 H 3915.01 -3.8369 1.74241 0
M  V30 42415 H 3913.73 -3.19474 0.678509 0
M  V30 42416 H 3912.39 -2.48955 2.69104 0
M  V30 42417 H 3912.04 -4.74495 1.66925 0
M  V30 42418 H 3911.74 -4.77458 3.42503 0
M  V30 42419 H 3913.26 -5.44039 2.77225 0
M  V30 42420 H 3914.68 -3.77388 4.31568 0
M  V30 42421 H 3913.07 -3.34631 4.98138 0
M  V30 42422 H 3914.14 -2.06329 4.38813 0
M  V30 42423 N 3915.49 -1.35701 -0.80143 0
M  V30 42424 C 3916.42 -1.24903 -1.92177 0
M  V30 42425 C 3917.43 -0.17116 -1.61898 0
M  V30 42426 O 3918.62 -0.424871 -1.7337 0
M  V30 42427 C 3915.72 -0.901763 -3.26682 0
M  V30 42428 C 3914.89 -2.07906 -3.8483 0
M  V30 42429 C 3913.95 -1.70676 -4.97751 0
M  V30 42430 O 3912.98 -2.42615 -5.14905 0
M  V30 42431 N 3914.18 -0.633396 -5.77034 0
M  V30 42432 H 3916.95 -2.21427 -2.01966 0
M  V30 42433 H 3914.51 -1.28938 -0.979109 0
M  V30 42434 H 3916.5 -0.63409 -3.99702 0
M  V30 42435 H 3915.07 -0.0260385 -3.12589 0
M  V30 42436 H 3914.29 -2.51023 -3.03942 0
M  V30 42437 H 3915.58 -2.86588 -4.2041 0
M  V30 42438 H 3914.97 -0.0358072 -5.65689 0
M  V30 42439 H 3913.53 -0.425517 -6.5041 0
M  V30 42440 N 3916.96 1.02419 -1.19783 0
M  V30 42441 C 3917.87 2.14269 -0.955291 0
M  V30 42442 C 3918.89 1.73786 0.0862928 0
M  V30 42443 O 3920.07 2.01154 -0.0994231 0
M  V30 42444 C 3917.13 3.43042 -0.50228 0
M  V30 42445 C 3916.19 3.97812 -1.61381 0
M  V30 42446 C 3915.43 5.20439 -1.18232 0
M  V30 42447 O 3915.65 5.7038 -0.0478337 0
M  V30 42448 O 3914.58 5.68166 -1.98674 0
M  V30 42449 H 3918.41 2.37596 -1.89161 0
M  V30 42450 H 3915.99 1.12675 -0.981055 0
M  V30 42451 H 3917.88 4.20606 -0.258519 0
M  V30 42452 H 3916.55 3.2115 0.405544 0
M  V30 42453 H 3915.46 3.21562 -1.91177 0
M  V30 42454 H 3916.79 4.24079 -2.49836 0
M  V30 42455 N 3918.44 1.0025 1.21604 0
M  V30 42456 C 3919.39 0.560811 2.23883 0
M  V30 42457 C 3920.36 -0.411835 1.60913 0
M  V30 42458 O 3921.55 -0.314443 1.88191 0
M  V30 42459 C 3918.69 -0.108887 3.44928 0
M  V30 42460 C 3917.8 0.90664 4.22379 0
M  V30 42461 C 3916.93 0.209464 5.30787 0
M  V30 42462 C 3915.97 1.21271 5.99966 0
M  V30 42463 N 3915.11 0.54318 6.99996 0
M  V30 42464 H 3919.95 1.43768 2.61026 0
M  V30 42465 H 3917.49 0.71996 1.28277 0
M  V30 42466 H 3919.44 -0.514172 4.14019 0
M  V30 42467 H 3918.07 -0.94949 3.0852 0
M  V30 42468 H 3917.13 1.43019 3.52491 0
M  V30 42469 H 3918.44 1.67021 4.70006 0
M  V30 42470 H 3917.59 -0.252057 6.06176 0
M  V30 42471 H 3916.33 -0.586536 4.8416 0
M  V30 42472 H 3915.34 1.68476 5.23351 0
M  V30 42473 H 3916.56 2.00975 6.4868 0
M  V30 42474 H 3914.51 -0.233209 6.55585 0
M  V30 42475 H 3914.42 1.24505 7.45677 0
M  V30 42476 H 3915.69 0.10478 7.7943 0
M  V30 42477 N 3919.92 -1.37119 0.776919 0
M  V30 42478 C 3920.85 -2.32799 0.180778 0
M  V30 42479 C 3921.83 -1.56036 -0.677256 0
M  V30 42480 O 3923.02 -1.8425 -0.613655 0
M  V30 42481 C 3920.15 -3.40273 -0.695088 0
M  V30 42482 C 3919.1 -4.27955 0.0620524 0
M  V30 42483 C 3918.43 -5.26487 -0.933595 0
M  V30 42484 C 3919.73 -5.07268 1.24405 0
M  V30 42485 H 3921.42 -2.82904 0.980089 0
M  V30 42486 H 3918.97 -1.36019 0.472746 0
M  V30 42487 H 3920.92 -4.06189 -1.12198 0
M  V30 42488 H 3919.64 -2.88706 -1.52697 0
M  V30 42489 H 3918.3 -3.63578 0.469781 0
M  V30 42490 H 3917.95 -4.71197 -1.76017 0
M  V30 42491 H 3917.65 -5.86013 -0.431505 0
M  V30 42492 H 3919.18 -5.95277 -1.35932 0
M  V30 42493 H 3920.59 -5.66294 0.893549 0
M  V30 42494 H 3918.99 -5.76146 1.67858 0
M  V30 42495 H 3920.06 -4.39639 2.04561 0
M  V30 42496 N 3921.4 -0.527886 -1.48496 0
M  V30 42497 C 3922.31 0.239916 -2.3337 0
M  V30 42498 C 3923.33 0.941075 -1.46355 0
M  V30 42499 O 3924.5 0.9165 -1.79338 0
M  V30 42500 C 3921.57 1.27453 -3.22423 0
M  V30 42501 C 3920.63 0.583942 -4.2531 0
M  V30 42502 C 3919.86 1.56926 -5.10108 0
M  V30 42503 O 3920.08 2.8017 -4.96851 0
M  V30 42504 O 3919.02 1.10981 -5.9158 0
M  V30 42505 H 3922.84 -0.45551 -3.00265 0
M  V30 42506 H 3920.43 -0.288835 -1.46581 0
M  V30 42507 H 3922.31 1.87248 -3.77513 0
M  V30 42508 H 3920.99 1.9524 -2.58192 0
M  V30 42509 H 3919.89 -0.0544486 -3.7406 0
M  V30 42510 H 3921.23 -0.0519511 -4.92173 0
M  V30 42511 N 3922.88 1.55391 -0.26292 0
M  V30 42512 C 3924.1 2.04182 0.363936 0
M  V30 42513 C 3924.53 1.14046 1.49583 0
M  V30 42514 O 3923.89 0.136585 1.80785 0
M  V30 42515 C 3923.93 3.50824 0.83398 0
M  V30 42516 O 3923.04 3.63799 1.94228 0
M  V30 42517 H 3922.38 0.659508 0.0771077 0
M  V30 42518 H 3924.91 2.00777 -0.393659 0
M  V30 42519 H 3924.92 3.91954 1.13297 0
M  V30 42520 H 3923.59 4.159 0.00577522 0
M  V30 42521 H 3922.17 3.34569 1.64675 0
M  V30 42522 N 3924.36 -0.00997961 1.57597 0
M  V30 42523 C 3925.58 -0.708158 1.94404 0
M  V30 42524 C 3926 -1.67858 0.864234 0
M  V30 42525 O 3925.36 -1.81817 -0.157731 0
M  V30 42526 C 3925.41 -1.4487 3.31202 0
M  V30 42527 O 3925.13 -0.517205 4.35036 0
M  V30 42528 C 3926.63 -2.2423 3.82408 0
M  V30 42529 H 3923.85 -0.197866 0.641163 0
M  V30 42530 H 3926.39 0.0381733 2.04464 0
M  V30 42531 H 3924.55 -2.14675 3.2248 0
M  V30 42532 H 3924.96 -1.03859 5.14114 0
M  V30 42533 H 3926.44 -2.71558 4.80583 0
M  V30 42534 H 3926.91 -3.06477 3.14592 0
M  V30 42535 H 3927.52 -1.59462 3.94274 0
M  V30 42536 N 3925.83 -1.55046 -0.282578 0
M  V30 42537 C 3926.77 -1.82179 -1.37426 0
M  V30 42538 C 3927.74 -0.674165 -1.47965 0
M  V30 42539 O 3928.93 -0.916132 -1.6474 0
M  V30 42540 C 3926.06 -1.97491 -2.75164 0
M  V30 42541 C 3925.1 -3.20004 -2.81957 0
M  V30 42542 S 3925.93 -4.7761 -2.42175 0
M  V30 42543 C 3927.09 -4.95882 -3.81906 0
M  V30 42544 H 3927.32 -2.7449 -1.14205 0
M  V30 42545 H 3924.86 -1.46694 -0.481697 0
M  V30 42546 H 3926.81 -2.06997 -3.54489 0
M  V30 42547 H 3925.48 -1.06086 -2.95643 0
M  V30 42548 H 3924.67 -3.27575 -3.83028 0
M  V30 42549 H 3924.27 -3.09039 -2.10644 0
M  V30 42550 H 3926.56 -4.81036 -4.77086 0
M  V30 42551 H 3927.51 -5.97949 -3.79293 0
M  V30 42552 H 3927.91 -4.23919 -3.72764 0
M  V30 42553 N 3927.31 0.546649 -1.47816 0
M  V30 42554 C 3928.54 1.33328 -1.58866 0
M  V30 42555 C 3928.96 1.86523 -0.243052 0
M  V30 42556 O 3928.32 1.63532 0.782748 0
M  V30 42557 C 3928.37 2.47173 -2.6256 0
M  V30 42558 O 3927.47 3.49719 -2.18564 0
M  V30 42559 H 3926.81 0.395589 -0.533297 0
M  V30 42560 H 3929.34 0.659545 -1.93678 0
M  V30 42561 H 3929.35 2.93595 -2.83313 0
M  V30 42562 H 3928.03 2.07813 -3.60259 0
M  V30 42563 H 3926.6 3.0953 -2.07955 0
M  V30 42564 N 3928.79 1.36124 0.794222 0
M  V30 42565 C 3929.72 1.32735 1.92103 0
M  V30 42566 C 3930.7 0.199633 1.68924 0
M  V30 42567 O 3931.89 0.396531 1.90109 0
M  V30 42568 C 3929.02 1.11104 3.29049 0
M  V30 42569 C 3927.97 2.20649 3.66739 0
M  V30 42570 C 3927.3 1.84167 5.01983 0
M  V30 42571 C 3928.6 3.62703 3.75824 0
M  V30 42572 H 3930.29 2.27022 1.95196 0
M  V30 42573 H 3927.84 1.09283 0.937727 0
M  V30 42574 H 3929.79 1.0737 4.07492 0
M  V30 42575 H 3928.51 0.132671 3.2633 0
M  V30 42576 H 3927.17 2.23502 2.9059 0
M  V30 42577 H 3926.82 0.849168 4.9578 0
M  V30 42578 H 3926.52 2.57506 5.28171 0
M  V30 42579 H 3928.04 1.8198 5.82851 0
M  V30 42580 H 3929.46 3.62104 4.4447 0
M  V30 42581 H 3927.85 4.34907 4.13493 0
M  V30 42582 H 3928.92 3.97957 2.77053 0
M  V30 42583 N 3930.27 -1.01782 1.20325 0
M  V30 42584 C 3931.51 -1.75621 1.01416 0
M  V30 42585 C 3931.85 -1.88848 -0.452768 0
M  V30 42586 O 3931.12 -1.4134 -1.33616 0
M  V30 42587 C 3931.4 -3.17611 1.69691 0
M  V30 42588 C 3931.26 -3.12186 3.23821 0
M  V30 42589 C 3932.58 -4.16255 1.42898 0
M  V30 42590 H 3929.7 -0.637489 0.369834 0
M  V30 42591 H 3932.34 -1.18746 1.48322 0
M  V30 42592 H 3930.49 -3.66171 1.29812 0
M  V30 42593 H 3932.16 -2.71439 3.72986 0
M  V30 42594 H 3930.4 -2.49613 3.54789 0
M  V30 42595 H 3931.07 -4.12553 3.66748 0
M  V30 42596 H 3933.55 -3.76345 1.77493 0
M  V30 42597 H 3932.43 -5.13774 1.93204 0
M  V30 42598 H 3932.69 -4.40662 0.356341 0
M  V30 42599 N 3931.75 -1.00894 -1.21071 0
M  V30 42600 C 3932.69 -0.572676 -2.23582 0
M  V30 42601 C 3933.66 0.403296 -1.6113 0
M  V30 42602 O 3934.85 0.304458 -1.88355 0
M  V30 42603 C 3931.99 0.0905933 -3.44981 0
M  V30 42604 C 3931.1 -0.929027 -4.21892 0
M  V30 42605 C 3930.24 -0.23761 -5.30668 0
M  V30 42606 C 3929.27 -1.24451 -5.99315 0
M  V30 42607 N 3928.41 -0.580295 -6.99698 0
M  V30 42608 H 3933.25 -1.4515 -2.6026 0
M  V30 42609 H 3930.79 -0.726752 -1.27893 0
M  V30 42610 H 3932.75 0.492208 -4.14286 0
M  V30 42611 H 3931.38 0.933115 -3.09019 0
M  V30 42612 H 3930.43 -1.44886 -3.51727 0
M  V30 42613 H 3931.74 -1.69512 -4.69113 0
M  V30 42614 H 3930.89 0.219907 -6.06301 0
M  V30 42615 H 3929.63 0.560852 -4.84464 0
M  V30 42616 H 3928.64 -1.71249 -5.2245 0
M  V30 42617 H 3929.86 -2.04412 -6.47605 0
M  V30 42618 H 3927.81 0.198438 -6.557 0
M  V30 42619 H 3927.73 -1.28457 -7.45007 0
M  V30 42620 H 3928.99 -0.146114 -7.79363 0
M  V30 42621 N 3933.22 1.36705 -0.78418 0
M  V30 42622 C 3934.16 2.2879 -0.136985 0
M  V30 42623 C 3935.17 1.49229 0.650724 0
M  V30 42624 O 3936.36 1.71735 0.486769 0
M  V30 42625 C 3933.46 3.28598 0.829248 0
M  V30 42626 C 3932.63 4.37302 0.0927131 0
M  V30 42627 C 3931.69 5.17105 0.974122 0
M  V30 42628 O 3930.72 5.67548 0.433299 0
M  V30 42629 N 3931.92 5.33035 2.299 0
M  V30 42630 H 3934.68 2.84972 -0.927956 0
M  V30 42631 H 3932.24 1.48815 -0.637622 0
M  V30 42632 H 3934.24 3.78872 1.42262 0
M  V30 42633 H 3932.81 2.73094 1.52112 0
M  V30 42634 H 3932.03 3.88261 -0.681683 0
M  V30 42635 H 3933.31 5.07099 -0.415745 0
M  V30 42636 H 3932.71 4.93657 2.7626 0
M  V30 42637 H 3931.27 5.86571 2.84213 0
M  V30 42638 N 3934.7 0.535753 1.48214 0
M  V30 42639 C 3935.63 -0.212521 2.32531 0
M  V30 42640 C 3936.61 -0.929543 1.42455 0
M  V30 42641 O 3937.8 -0.914198 1.71336 0
M  V30 42642 C 3934.93 -1.25635 3.23779 0
M  V30 42643 C 3933.88 -0.657117 4.22925 0
M  V30 42644 C 3933.21 -1.80402 5.03348 0
M  V30 42645 C 3934.51 0.374993 5.20952 0
M  V30 42646 H 3936.2 0.491353 2.95341 0
M  V30 42647 H 3933.75 0.237742 1.42024 0
M  V30 42648 H 3935.7 -1.78782 3.81595 0
M  V30 42649 H 3934.43 -1.98988 2.58981 0
M  V30 42650 H 3933.08 -0.14712 3.66305 0
M  V30 42651 H 3932.73 -2.52607 4.3497 0
M  V30 42652 H 3932.43 -1.40896 5.70458 0
M  V30 42653 H 3933.96 -2.33916 5.64017 0
M  V30 42654 H 3935.37 -0.0696065 5.73258 0
M  V30 42655 H 3933.77 0.68775 5.96146 0
M  V30 42656 H 3934.84 1.27869 4.67737 0
M  V30 42657 N 3936.18 -1.5525 0.271158 0
M  V30 42658 C 3937.41 -2.04372 -0.353103 0
M  V30 42659 C 3937.83 -1.14838 -1.48976 0
M  V30 42660 O 3937.19 -0.14617 -1.8071 0
M  V30 42661 C 3937.24 -3.51261 -0.815363 0
M  V30 42662 O 3936.34 -3.64824 -1.92295 0
M  V30 42663 H 3935.68 -0.659907 -0.0736091 0
M  V30 42664 H 3938.21 -2.00566 0.404301 0
M  V30 42665 H 3938.22 -3.92549 -1.11217 0
M  V30 42666 H 3936.9 -4.15897 0.016281 0
M  V30 42667 H 3935.47 -3.35438 -1.62899 0
M  V30 42668 N 3937.66 0.00162173 -1.576 0
M  V30 42669 C 3938.91 0.685452 -1.90121 0
M  V30 42670 C 3939.23 1.74403 -0.872275 0
M  V30 42671 O 3938.5 1.95691 0.0905376 0
M  V30 42672 H 3937.08 0.256165 -0.701704 0
M  V30 42673 H 3939.74 -0.0389209 -1.94861 0
M  V30 42674 H 3938.84 1.15773 -2.89833 0
M  V30 42675 N 3939.14 1.55194 0.274352 0
M  V30 42676 C 3940.07 1.8439 1.36136 0
M  V30 42677 C 3941.08 0.72832 1.456 0
M  V30 42678 O 3942.27 1.00615 1.47441 0
M  V30 42679 C 3939.37 1.99065 2.74274 0
M  V30 42680 C 3938.54 3.29711 2.87418 0
M  V30 42681 C 3937.6 3.34468 4.06223 0
M  V30 42682 O 3936.63 4.07852 3.97046 0
M  V30 42683 N 3937.83 2.61773 5.18126 0
M  V30 42684 H 3940.6 2.78213 1.11436 0
M  V30 42685 H 3938.16 1.55095 0.464465 0
M  V30 42686 H 3940.15 1.99619 3.52043 0
M  V30 42687 H 3938.72 1.12115 2.91803 0
M  V30 42688 H 3937.94 3.41707 1.96545 0
M  V30 42689 H 3939.23 4.15876 2.93129 0
M  V30 42690 H 3938.62 2.01833 5.28469 0
M  V30 42691 H 3937.18 2.68052 5.94131 0
M  V30 42692 N 3940.61 -0.538802 1.48104 0
M  V30 42693 C 3941.54 -1.6536 1.64859 0
M  V30 42694 C 3942.53 -1.62659 0.497607 0
M  V30 42695 O 3943.71 -1.79993 0.72912 0
M  V30 42696 C 3940.84 -3.03968 1.6799 0
M  V30 42697 C 3939.79 -3.21524 2.825 0
M  V30 42698 C 3939.12 -4.61105 2.70715 0
M  V30 42699 C 3940.42 -3.05137 4.23897 0
M  V30 42700 H 3942.11 -1.51593 2.58186 0
M  V30 42701 H 3939.66 -0.727864 1.2425 0
M  V30 42702 H 3941.61 -3.81821 1.783 0
M  V30 42703 H 3940.34 -3.18737 0.712355 0
M  V30 42704 H 3939 -2.46086 2.7173 0
M  V30 42705 H 3938.64 -4.72697 1.71948 0
M  V30 42706 H 3938.34 -4.73798 3.47547 0
M  V30 42707 H 3939.87 -5.41068 2.8298 0
M  V30 42708 H 3941.28 -3.7279 4.35547 0
M  V30 42709 H 3939.68 -3.29329 5.0166 0
M  V30 42710 H 3940.75 -2.01663 4.40976 0
M  V30 42711 N 3942.09 -1.36544 -0.786992 0
M  V30 42712 C 3943.06 -1.30913 -1.88134 0
M  V30 42713 C 3944.06 -0.21632 -1.59338 0
M  V30 42714 O 3945.25 -0.471251 -1.67705 0
M  V30 42715 C 3942.38 -1.02999 -3.24968 0
M  V30 42716 H 3943.57 -2.2824 -1.94542 0
M  V30 42717 H 3941.12 -1.21352 -0.985062 0
M  V30 42718 H 3941.86 -0.0614067 -3.24242 0
M  V30 42719 H 3941.64 -1.82084 -3.47258 0
M  V30 42720 H 3943.13 -1.01671 -4.05034 0
M  V30 42721 N 3943.57 1.01143 -1.20863 0
M  V30 42722 C 3944.48 2.13244 -0.977963 0
M  V30 42723 C 3945.5 1.73868 0.0678556 0
M  V30 42724 O 3946.67 2.01038 -0.120753 0
M  V30 42725 C 3943.74 3.4249 -0.538636 0
M  V30 42726 C 3942.8 3.96078 -1.65591 0
M  V30 42727 C 3942.03 5.19156 -1.23745 0
M  V30 42728 O 3942.25 5.70297 -0.108327 0
M  V30 42729 O 3941.19 5.66027 -2.04689 0
M  V30 42730 H 3945.01 2.35576 -1.9167 0
M  V30 42731 H 3942.6 1.11628 -0.992951 0
M  V30 42732 H 3944.48 4.20308 -0.303115 0
M  V30 42733 H 3943.16 3.21562 0.371459 0
M  V30 42734 H 3942.06 3.19516 -1.94577 0
M  V30 42735 H 3943.4 4.21405 -2.5432 0
M  V30 42736 N 3945.05 1.01535 1.20534 0
M  V30 42737 C 3945.98 0.604905 2.25529 0
M  V30 42738 C 3946.96 -0.379423 1.65814 0
M  V30 42739 O 3948.14 -0.265128 1.92382 0
M  V30 42740 C 3945.27 -0.0588682 3.4725 0
M  V30 42741 C 3944.23 0.846315 4.19549 0
M  V30 42742 C 3943.55 0.0483841 5.34678 0
M  V30 42743 C 3944.85 2.15378 4.75825 0
M  V30 42744 H 3946.55 1.48259 2.60115 0
M  V30 42745 H 3944.09 0.714319 1.25034 0
M  V30 42746 H 3946.05 -0.357553 4.1988 0
M  V30 42747 H 3944.77 -0.971255 3.11824 0
M  V30 42748 H 3943.43 1.12898 3.48783 0
M  V30 42749 H 3943.08 -0.865613 4.95496 0
M  V30 42750 H 3942.78 0.651183 5.83981 0
M  V30 42751 H 3944.3 -0.243876 6.10113 0
M  V30 42752 H 3945.72 1.91755 5.4028 0
M  V30 42753 H 3944.11 2.70733 5.35559 0
M  V30 42754 H 3945.18 2.81763 3.94636 0
M  V30 42755 N 3946.53 -1.36288 0.791419 0
M  V30 42756 C 3947.47 -2.30022 0.189286 0
M  V30 42757 C 3948.44 -1.52075 -0.668018 0
M  V30 42758 O 3949.63 -1.80573 -0.616279 0
M  V30 42759 C 3946.77 -3.38567 -0.668332 0
M  V30 42760 C 3945.88 -4.315 0.207735 0
M  V30 42761 C 3945.02 -5.27128 -0.656446 0
M  V30 42762 C 3944.06 -6.11701 0.220952 0
M  V30 42763 N 3943.19 -6.99512 -0.602326 0
M  V30 42764 H 3948.03 -2.8093 0.994087 0
M  V30 42765 H 3945.57 -1.38277 0.501784 0
M  V30 42766 H 3947.53 -4.00148 -1.18057 0
M  V30 42767 H 3946.16 -2.88974 -1.43854 0
M  V30 42768 H 3945.21 -3.71056 0.837959 0
M  V30 42769 H 3946.52 -4.9091 0.8837 0
M  V30 42770 H 3945.68 -5.94009 -1.23442 0
M  V30 42771 H 3944.41 -4.68178 -1.36603 0
M  V30 42772 H 3943.42 -5.43781 0.811309 0
M  V30 42773 H 3944.64 -6.72727 0.928168 0
M  V30 42774 H 3942.59 -6.43067 -1.29616 0
M  V30 42775 H 3942.51 -7.55998 0.0159159 0
M  V30 42776 H 3943.78 -7.70759 -1.16406 0
M  V30 42777 N 3948.01 -0.543606 -1.47928 0
M  V30 42778 C 3948.92 0.21515 -2.33611 0
M  V30 42779 C 3949.93 0.9255 -1.47345 0
M  V30 42780 O 3951.11 0.897428 -1.803 0
M  V30 42781 C 3948.17 1.24026 -3.23757 0
M  V30 42782 C 3947.23 0.5388 -4.25905 0
M  V30 42783 C 3946.47 1.51507 -5.11743 0
M  V30 42784 O 3946.69 2.74884 -4.99795 0
M  V30 42785 O 3945.62 1.047 -5.92724 0
M  V30 42786 H 3949.45 -0.487332 -2.99765 0
M  V30 42787 H 3947.03 -0.304366 -1.46267 0
M  V30 42788 H 3948.92 1.83233 -3.79478 0
M  V30 42789 H 3947.59 1.9249 -2.60248 0
M  V30 42790 H 3946.5 -0.0941196 -3.73982 0
M  V30 42791 H 3947.83 -0.10415 -4.9209 0
M  V30 42792 N 3949.48 1.55104 -0.279387 0
M  V30 42793 C 3950.42 2.20097 0.639533 0
M  V30 42794 C 3951.43 1.18698 1.11421 0
M  V30 42795 O 3952.62 1.45404 1.03538 0
M  V30 42796 C 3949.72 2.81647 1.88489 0
M  V30 42797 C 3948.89 4.08776 1.55632 0
M  V30 42798 C 3947.95 4.54333 2.65458 0
M  V30 42799 O 3946.98 5.20013 2.31464 0
M  V30 42800 N 3948.18 4.24832 3.95599 0
M  V30 42801 H 3950.94 2.99584 0.0832522 0
M  V30 42802 H 3948.5 1.61587 -0.100666 0
M  V30 42803 H 3950.5 3.09067 2.61266 0
M  V30 42804 H 3949.07 2.06127 2.35012 0
M  V30 42805 H 3948.29 3.88598 0.662184 0
M  V30 42806 H 3949.57 4.91597 1.31187 0
M  V30 42807 H 3948.97 3.72169 4.26036 0
M  V30 42808 H 3947.53 4.57012 4.6474 0
M  V30 42809 N 3950.96 0.0067362 1.57599 0
M  V30 42810 C 3951.89 -1.01662 2.04304 0
M  V30 42811 C 3952.87 -1.33082 0.93424 0
M  V30 42812 O 3954.06 -1.45131 1.20288 0
M  V30 42813 C 3951.18 -2.34251 2.44631 0
M  V30 42814 C 3950.23 -2.18446 3.66311 0
M  V30 42815 S 3951.06 -1.50419 5.1394 0
M  V30 42816 C 3952.22 -2.84424 5.57543 0
M  V30 42817 H 3952.45 -0.618954 2.90786 0
M  V30 42818 H 3949.98 -0.204327 1.53042 0
M  V30 42819 H 3951.94 -3.10484 2.68532 0
M  V30 42820 H 3950.6 -2.71155 1.58536 0
M  V30 42821 H 3949.8 -3.16412 3.923 0
M  V30 42822 H 3949.4 -1.50357 3.42445 0
M  V30 42823 H 3951.69 -3.80712 5.60414 0
M  V30 42824 H 3952.63 -2.63126 6.57397 0
M  V30 42825 H 3953.04 -2.88643 4.85124 0
M  V30 42826 N 3952.44 -1.55337 -0.266118 0
M  V30 42827 C 3953.67 -1.80301 -1.01486 0
M  V30 42828 C 3954.08 -0.579774 -1.79678 0
M  V30 42829 O 3953.44 0.451288 -1.76832 0
M  V30 42830 C 3953.49 -3.03236 -1.96799 0
M  V30 42831 O 3953.21 -4.20836 -1.21774 0
M  V30 42832 C 3954.71 -3.40856 -2.8343 0
M  V30 42833 H 3951.93 -0.600454 -0.299493 0
M  V30 42834 H 3954.48 -2.02364 -0.294818 0
M  V30 42835 H 3952.63 -2.83279 -2.64257 0
M  V30 42836 H 3953.05 -4.90383 -1.86078 0
M  V30 42837 H 3954.52 -4.30028 -3.46092 0
M  V30 42838 H 3955 -2.60568 -3.53554 0
M  V30 42839 H 3955.6 -3.63096 -2.21453 0
M  V30 42840 N 3953.92 0.53094 -1.48387 0
M  V30 42841 C 3954.83 1.66254 -1.65519 0
M  V30 42842 C 3955.84 1.65483 -0.537729 0
M  V30 42843 O 3957.02 1.84452 -0.808675 0
M  V30 42844 C 3954.08 3.02719 -1.69004 0
M  V30 42845 C 3953.15 3.14353 -2.92371 0
M  V30 42846 C 3952.38 4.44308 -2.9568 0
M  V30 42847 O 3952.6 5.31348 -2.07426 0
M  V30 42848 O 3951.54 4.60287 -3.87839 0
M  V30 42849 H 3955.36 1.54738 -2.61323 0
M  V30 42850 H 3952.95 0.703923 -1.31777 0
M  V30 42851 H 3954.83 3.8388 -1.73822 0
M  V30 42852 H 3953.5 3.14561 -0.76373 0
M  V30 42853 H 3952.41 2.32491 -2.93085 0
M  V30 42854 H 3953.74 3.07426 -3.84383 0
M  V30 42855 N 3955.4 1.36959 0.779739 0
M  V30 42856 C 3956.33 1.27944 1.90166 0
M  V30 42857 C 3957.34 0.196895 1.61605 0
M  V30 42858 O 3958.53 0.452399 1.72672 0
M  V30 42859 C 3955.63 0.953622 3.25206 0
M  V30 42860 C 3954.8 2.14002 3.81473 0
M  V30 42861 C 3953.86 1.78573 4.94973 0
M  V30 42862 O 3952.89 2.50776 5.1098 0
M  V30 42863 N 3954.09 0.725117 5.75953 0
M  V30 42864 H 3956.85 2.24612 1.98418 0
M  V30 42865 H 3954.42 1.3048 0.958472 0
M  V30 42866 H 3956.41 0.697599 3.98642 0
M  V30 42867 H 3954.98 0.0757654 3.12508 0
M  V30 42868 H 3954.2 2.55827 2.9991 0
M  V30 42869 H 3955.49 2.9324 4.15797 0
M  V30 42870 H 3954.88 0.125799 5.6556 0
M  V30 42871 H 3953.44 0.528937 6.4965 0
M  V30 42872 N 3956.87 -1.00501 1.21398 0
M  V30 42873 C 3958.29 -1.26639 0.971327 0
M  V30 42874 C 3958.49 -1.98571 -0.342301 0
M  V30 42875 O 3957.55 -2.28803 -1.06796 0
M  V30 42876 C 3958.86 -2.09004 2.16189 0
M  V30 42877 C 3960.41 -2.2223 2.20415 0
M  V30 42878 C 3960.88 -3.07978 3.38989 0
M  V30 42879 N 3962.37 -3.15566 3.39076 0
M  V30 42880 C 3963.11 -3.8217 4.27474 0
M  V30 42881 N 3962.6 -4.50802 5.2607 0
M  V30 42882 N 3964.4 -3.7881 4.15282 0
M  V30 42883 H 3956.55 -0.522399 2.05876 0
M  V30 42884 H 3958.81 -0.293256 0.901502 0
M  V30 42885 H 3958.52 -1.63499 3.11386 0
M  V30 42886 H 3958.39 -3.09754 2.15249 0
M  V30 42887 H 3960.78 -2.66955 1.25774 0
M  V30 42888 H 3960.86 -1.2095 2.25399 0
M  V30 42889 H 3960.5 -2.63956 4.33924 0
M  V30 42890 H 3960.43 -4.09372 3.31244 0
M  V30 42891 H 3962.92 -2.66708 2.67722 0
M  V30 42892 H 3963.24 -4.99328 5.89823 0
M  V30 42893 H 3961.58 -4.49589 5.29995 0
M  V30 42894 H 3964.77 -3.24346 3.37517 0
M  V30 42895 H 3964.95 -4.30439 4.84382 0
M  V30 42896 N 3958.35 -1.02172 -1.19994 0
M  V30 42897 C 3959.3 -0.596357 -2.22962 0
M  V30 42898 C 3960.27 0.386183 -1.61548 0
M  V30 42899 O 3961.45 0.284463 -1.88668 0
M  V30 42900 C 3958.59 0.0539983 -3.45058 0
M  V30 42901 C 3957.71 -0.973722 -4.20883 0
M  V30 42902 C 3956.84 -0.293881 -5.30386 0
M  V30 42903 C 3955.88 -1.30801 -5.97961 0
M  V30 42904 N 3955.02 -0.654474 -6.99043 0
M  V30 42905 H 3959.86 -1.47903 -2.58706 0
M  V30 42906 H 3957.39 -0.740276 -1.27115 0
M  V30 42907 H 3959.35 0.44824 -4.14785 0
M  V30 42908 H 3957.98 0.900287 -3.09991 0
M  V30 42909 H 3957.03 -1.48608 -3.50171 0
M  V30 42910 H 3958.35 -1.74478 -4.67289 0
M  V30 42911 H 3957.5 0.155588 -6.065 0
M  V30 42912 H 3956.24 0.509436 -4.85032 0
M  V30 42913 H 3955.24 -1.76781 -5.20604 0
M  V30 42914 H 3956.47 -2.11269 -6.45401 0
M  V30 42915 H 3954.42 0.128881 -6.55873 0
M  V30 42916 H 3954.33 -1.36352 -7.43602 0
M  V30 42917 H 3955.6 -0.228768 -7.79164 0
M  V30 42918 N 3959.83 1.35866 -0.798635 0
M  V30 42919 C 3960.78 2.31811 -0.191465 0
M  V30 42920 C 3961.77 1.56252 0.654353 0
M  V30 42921 O 3962.98 1.71442 0.548405 0
M  V30 42922 H 3959.35 0.750761 -0.0431475 0
M  V30 42923 H 3961.32 2.80573 -1.01594 0
M  V30 42924 C 3960.07 3.41535 0.651852 0
M  V30 42925 H 3959.4 3.99799 0.0103606 0
M  V30 42926 H 3960.84 4.10966 1.04321 0
M  V30 42927 C 3959.29 2.83892 1.81402 0
M  V30 42928 O 3959.82 2.76799 2.9111 0
M  V30 42929 N 3958.03 2.41052 1.62304 0
M  V30 42930 H 3957.58 2.4702 0.730665 0
M  V30 42931 H 3957.54 2.02832 2.40222 0
M  V30 42932 N 3961.31 0.551443 1.47638 0
M  V30 42933 C 3962.25 -0.199474 2.29936 0
M  V30 42934 C 3963.22 -0.913787 1.38705 0
M  V30 42935 O 3964.41 -0.910614 1.67668 0
M  V30 42936 C 3961.55 -1.22711 3.22546 0
M  V30 42937 C 3960.66 -0.519452 4.28866 0
M  V30 42938 C 3959.8 -1.53188 5.08632 0
M  V30 42939 C 3958.84 -0.808875 6.06732 0
M  V30 42940 N 3957.97 -1.76786 6.79479 0
M  V30 42941 H 3962.81 0.508465 2.9363 0
M  V30 42942 H 3960.35 0.262578 1.44737 0
M  V30 42943 H 3962.31 -1.83544 3.74656 0
M  V30 42944 H 3960.94 -1.90315 2.60729 0
M  V30 42945 H 3959.99 0.203283 3.79856 0
M  V30 42946 H 3961.3 0.0472101 4.98778 0
M  V30 42947 H 3960.46 -2.2139 5.64864 0
M  V30 42948 H 3959.2 -2.13245 4.38609 0
M  V30 42949 H 3958.2 -0.112894 5.49684 0
M  V30 42950 H 3959.43 -0.21412 6.78762 0
M  V30 42951 H 3957.37 -2.35711 6.1219 0
M  V30 42952 H 3957.29 -1.25319 7.45541 0
M  V30 42953 H 3958.56 -2.4412 7.40287 0
M  V30 42954 N 3962.79 -1.54953 0.287609 0
M  V30 42955 C 3963.72 -2.20433 -0.627852 0
M  V30 42956 C 3964.73 -1.19288 -1.10789 0
M  V30 42957 O 3965.92 -1.45951 -1.02765 0
M  V30 42958 C 3963.02 -2.82643 -1.86993 0
M  V30 42959 C 3962.19 -4.09595 -1.53462 0
M  V30 42960 C 3961.25 -4.55734 -2.63045 0
M  V30 42961 O 3960.28 -5.21233 -2.28703 0
M  V30 42962 N 3961.48 -4.26924 -3.9334 0
M  V30 42963 H 3964.25 -2.99624 -0.0673633 0
M  V30 42964 H 3961.81 -1.61531 0.109234 0
M  V30 42965 H 3963.8 -3.10448 -2.59623 0
M  V30 42966 H 3962.37 -2.0737 -2.33915 0
M  V30 42967 H 3961.59 -3.88944 -0.641567 0
M  V30 42968 H 3962.88 -4.92286 -1.28578 0
M  V30 42969 H 3962.27 -3.74423 -4.24057 0
M  V30 42970 H 3960.83 -4.5947 -4.6231 0
M  V30 42971 N 3964.26 -0.0150939 -1.57593 0
M  V30 42972 C 3965.68 0.341161 -1.55911 0
M  V30 42973 C 3965.88 1.73818 -1.0193 0
M  V30 42974 O 3964.94 2.43727 -0.659795 0
M  V30 42975 C 3966.25 0.202586 -3.00017 0
M  V30 42976 C 3967.8 0.276402 -3.11777 0
M  V30 42977 C 3968.27 0.166778 -4.57696 0
M  V30 42978 N 3969.76 0.224205 -4.62657 0
M  V30 42979 C 3970.5 0.162953 -5.73168 0
M  V30 42980 N 3969.99 0.0514225 -6.92781 0
M  V30 42981 N 3971.79 0.21592 -5.61685 0
M  V30 42982 H 3963.94 -0.928793 -1.91016 0
M  V30 42983 H 3966.2 -0.357416 -0.878042 0
M  V30 42984 H 3965.91 -0.759197 -3.43408 0
M  V30 42985 H 3965.78 0.978535 -3.64286 0
M  V30 42986 H 3968.17 1.22864 -2.68307 0
M  V30 42987 H 3968.25 -0.529681 -2.50256 0
M  V30 42988 H 3967.89 -0.781976 -5.01844 0
M  V30 42989 H 3967.82 0.991544 -5.17181 0
M  V30 42990 H 3970.31 0.311122 -3.76617 0
M  V30 42991 H 3970.63 0.0109929 -7.72799 0
M  V30 42992 H 3968.97 0.0168362 -6.94998 0
M  V30 42993 H 3972.16 0.301353 -4.67129 0
M  V30 42994 H 3972.34 0.16472 -6.47791 0
M  V30 42995 N 3965.74 1.55476 0.257876 0
M  V30 42996 C 3966.67 1.92403 1.323 0
M  V30 42997 C 3967.65 0.787643 1.50765 0
M  V30 42998 O 3968.84 1.04703 1.63557 0
M  V30 42999 C 3965.97 2.20917 2.6798 0
M  V30 43000 C 3964.92 3.36704 2.64225 0
M  V30 43001 C 3964.25 3.50732 4.03598 0
M  V30 43002 C 3965.55 4.72693 2.22169 0
M  V30 43003 H 3967.24 2.81619 1.01641 0
M  V30 43004 H 3964.79 1.35497 0.487499 0
M  V30 43005 H 3966.74 2.45338 3.42618 0
M  V30 43006 H 3965.47 1.28515 3.00252 0
M  V30 43007 H 3964.12 3.12273 1.92044 0
M  V30 43008 H 3963.77 2.5577 4.33117 0
M  V30 43009 H 3963.47 4.2859 4.01976 0
M  V30 43010 H 3965 3.77463 4.79952 0
M  V30 43011 H 3966.41 4.96559 2.86534 0
M  V30 43012 H 3964.81 5.53574 2.3168 0
M  V30 43013 H 3965.88 4.70494 1.17317 0
M  V30 43014 N 3967.22 -0.523064 1.48667 0
M  V30 43015 C 3968.47 -1.27599 1.56726 0
M  V30 43016 C 3968.79 -1.93442 0.245992 0
M  V30 43017 O 3968.06 -1.81669 -0.733021 0
M  V30 43018 H 3966.64 -0.473942 0.577398 0
M  V30 43019 H 3969.3 -0.608111 1.8517 0
M  V30 43020 H 3968.4 -2.05162 2.35191 0
M  V30 43021 N 3968.7 -1.37371 -0.772465 0
M  V30 43022 C 3969.95 -1.3254 -1.531 0
M  V30 43023 C 3970.27 0.0903267 -1.9429 0
M  V30 43024 O 3969.53 1.06339 -1.64288 0
M  V30 43025 C 3969.83 -2.20971 -2.80903 0
M  V30 43026 C 3969.49 -3.69255 -2.58769 0
M  V30 43027 C 3968.16 -4.09667 -2.52441 0
M  V30 43028 C 3970.51 -4.632 -2.38946 0
M  V30 43029 C 3967.84 -5.4214 -2.24279 0
M  V30 43030 C 3970.19 -5.9591 -2.12307 0
M  V30 43031 C 3968.85 -6.35427 -2.04423 0
M  V30 43032 H 3968.12 -0.484997 -0.560231 0
M  V30 43033 H 3970.77 -1.69571 -0.889829 0
M  V30 43034 H 3969.07 -1.76932 -3.49575 0
M  V30 43035 H 3970.77 -2.14547 -3.38778 0
M  V30 43036 H 3967.36 -3.37205 -2.64557 0
M  V30 43037 H 3971.54 -4.32839 -2.42825 0
M  V30 43038 H 3966.8 -5.71721 -2.16669 0
M  V30 43039 H 3970.97 -6.68259 -1.95967 0
M  V30 43040 H 3968.6 -7.38002 -1.82365 0
M  V30 43041 N 3970.18 0.998553 -1.21929 0
M  V30 43042 C 3971.11 2.10599 -1.00849 0
M  V30 43043 C 3972.09 1.69961 0.0687031 0
M  V30 43044 O 3973.27 1.9398 -0.0924027 0
M  V30 43045 C 3970.4 3.42434 -0.579351 0
M  V30 43046 C 3969.36 3.96895 -1.60183 0
M  V30 43047 C 3968.68 5.24711 -1.02872 0
M  V30 43048 C 3969.98 4.28222 -2.99037 0
M  V30 43049 H 3971.68 2.28492 -1.93473 0
M  V30 43050 H 3969.22 1.09803 -0.931631 0
M  V30 43051 H 3971.18 4.19312 -0.419017 0
M  V30 43052 H 3969.9 3.24352 0.382551 0
M  V30 43053 H 3968.56 3.22143 -1.74984 0
M  V30 43054 H 3968.21 5.02966 -0.0583424 0
M  V30 43055 H 3967.91 5.62114 -1.71176 0
M  V30 43056 H 3969.43 6.04228 -0.879849 0
M  V30 43057 H 3970.84 4.95918 -2.87643 0
M  V30 43058 H 3969.24 4.76784 -3.64413 0
M  V30 43059 H 3970.31 3.3623 -3.49396 0
M  V30 43060 N 3971.65 1.02807 1.1945 0
M  V30 43061 C 3972.9 0.722632 1.88739 0
M  V30 43062 C 3973.22 -0.750996 1.79958 0
M  V30 43063 O 3972.49 -1.54102 1.20952 0
M  V30 43064 H 3971.07 0.264306 0.698678 0
M  V30 43065 H 3973.74 1.30213 1.45019 0
M  V30 43066 H 3972.83 1.01622 2.95092 0
M  V30 43067 N 3973.13 -1.35441 0.805829 0
M  V30 43068 C 3974.36 -2.03561 0.397215 0
M  V30 43069 C 3974.78 -1.60332 -0.983637 0
M  V30 43070 O 3974.14 -0.779615 -1.63682 0
M  V30 43071 C 3974.19 -3.57284 0.487876 0
M  V30 43072 O 3973.29 -4.0937 -0.498967 0
M  V30 43073 H 3972.63 -0.64291 0.16602 0
M  V30 43074 H 3975.16 -1.73053 1.0915 0
M  V30 43075 H 3975.17 -4.06432 0.357405 0
M  V30 43076 H 3973.85 -3.88098 1.49508 0
M  V30 43077 H 3972.43 -3.71448 -0.328799 0
M  V30 43078 N 3974.61 -0.559265 -1.47343 0
M  V30 43079 C 3975.56 0.200327 -2.31736 0
M  V30 43080 C 3976.55 0.907326 -1.43052 0
M  V30 43081 O 3977.76 0.828378 -1.59806 0
M  V30 43082 H 3974.13 0.083474 -0.747353 0
M  V30 43083 H 3976.1 -0.530607 -2.93645 0
M  V30 43084 C 3974.85 1.21584 -3.25749 0
M  V30 43085 H 3974.18 0.681245 -3.93953 0
M  V30 43086 H 3975.62 1.71818 -3.87627 0
M  V30 43087 C 3974.08 2.26478 -2.49418 0
M  V30 43088 O 3974.61 3.33439 -2.24012 0
M  V30 43089 N 3972.81 2.0046 -2.10391 0
M  V30 43090 H 3972.36 1.1349 -2.31252 0
M  V30 43091 H 3972.32 2.70858 -1.59635 0
M  V30 43092 N 3976.09 1.54799 -0.295822 0
M  V30 43093 C 3977.32 2.04446 0.317727 0
M  V30 43094 C 3977.73 1.17334 1.47913 0
M  V30 43095 O 3977.09 0.197843 1.81424 0
M  V30 43096 C 3977.14 3.53008 0.778933 0
M  V30 43097 O 3976.86 4.36808 -0.336237 0
M  V30 43098 C 3978.36 4.18632 1.45817 0
M  V30 43099 H 3975.58 0.667362 0.0697754 0
M  V30 43100 H 3978.13 1.99843 -0.433947 0
M  V30 43101 H 3976.28 3.57988 1.48064 0
M  V30 43102 H 3976.69 5.24495 0.0219006 0
M  V30 43103 H 3978.17 5.24121 1.73209 0
M  V30 43104 H 3978.65 3.68053 2.39654 0
M  V30 43105 H 3979.25 4.17712 0.799773 0
M  V30 43106 N 3977.57 0.0234513 1.57583 0
M  V30 43107 C 3978.98 -0.51617 1.79423 0
M  V30 43108 C 3979.33 -1.72587 0.933181 0
M  V30 43109 O 3978.45 -2.15933 0.142023 0
M  V30 43110 C 3979.05 -0.943191 3.25406 0
M  V30 43111 C 3977.61 -1.42796 3.48262 0
M  V30 43112 C 3976.76 -0.390026 2.74543 0
M  V30 43113 H 3979.71 0.249517 1.56726 0
M  V30 43114 H 3979.73 -1.80789 3.34807 0
M  V30 43115 H 3979.24 -0.0625559 3.8805 0
M  V30 43116 H 3977.34 -2.32871 2.90864 0
M  V30 43117 H 3977.45 -1.43925 4.56971 0
M  V30 43118 H 3975.82 -0.856877 2.39854 0
M  V30 43119 H 3976.6 0.482045 3.39899 0
M  V30 43120 N 3979.05 -1.5561 -0.249627 0
M  V30 43121 C 3980 -1.86479 -1.31186 0
M  V30 43122 C 3980.98 -0.725441 -1.43618 0
M  V30 43123 O 3982.17 -0.987307 -1.46906 0
M  V30 43124 C 3979.3 -2.1606 -2.66782 0
M  V30 43125 C 3978.39 -3.36315 -2.58366 0
M  V30 43126 N 3978.78 -4.55652 -2.19579 0
M  V30 43127 C 3977.08 -3.39371 -2.89384 0
M  V30 43128 C 3977.78 -5.37784 -2.21727 0
M  V30 43129 N 3976.75 -4.76777 -2.61123 0
M  V30 43130 H 3980.55 -2.76276 -1.00243 0
M  V30 43131 H 3978.07 -1.558 -0.458256 0
M  V30 43132 H 3980.07 -2.36339 -3.43438 0
M  V30 43133 H 3978.73 -1.2756 -2.98594 0
M  V30 43134 H 3979.74 -4.81327 -1.91168 0
M  V30 43135 H 3976.41 -2.61134 -3.25754 0
M  V30 43136 H 3977.8 -6.43253 -1.94102 0
M  V30 43137 N 3980.52 0.515172 -1.48942 0
M  V30 43138 C 3981.77 1.27205 -1.57946 0
M  V30 43139 C 3982.1 1.92465 -0.259045 0
M  V30 43140 O 3981.38 1.80027 0.736246 0
M  V30 43141 C 3981.66 2.35 -2.7285 0
M  V30 43142 C 3981.51 1.74334 -4.14642 0
M  V30 43143 C 3982.83 3.36667 -2.83449 0
M  V30 43144 H 3979.95 0.461128 -0.574917 0
M  V30 43145 H 3982.59 0.572381 -1.81173 0
M  V30 43146 H 3980.74 2.94677 -2.53175 0
M  V30 43147 H 3982.42 1.18594 -4.45795 0
M  V30 43148 H 3980.66 1.04803 -4.2095 0
M  V30 43149 H 3981.33 2.52454 -4.90888 0
M  V30 43150 H 3983.81 2.86964 -3.01316 0
M  V30 43151 H 3982.68 4.09469 -3.65549 0
M  V30 43152 H 3982.94 3.98128 -1.92215 0
M  V30 43153 N 3982 1.37779 0.765169 0
M  V30 43154 C 3982.95 1.34171 1.90002 0
M  V30 43155 C 3983.94 0.229416 1.67839 0
M  V30 43156 O 3985.15 0.397811 1.75549 0
M  V30 43157 H 3981.52 0.418287 0.624932 0
M  V30 43158 H 3983.5 2.29959 1.90161 0
M  V30 43159 C 3982.24 1.17213 3.27347 0
M  V30 43160 H 3981.57 2.02059 3.44981 0
M  V30 43161 H 3983.01 1.18741 4.07034 0
M  V30 43162 C 3981.47 -0.121776 3.3668 0
M  V30 43163 O 3982 -1.10299 3.8626 0
M  V30 43164 N 3980.2 -0.174702 2.90074 0
M  V30 43165 H 3979.75 0.62444 2.49917 0
M  V30 43166 H 3979.71 -1.04004 2.96699 0
M  V30 43167 N 3983.48 -0.992073 1.22457 0
M  V30 43168 C 3984.43 -2.0668 0.962681 0
M  V30 43169 C 3985.41 -1.60665 -0.0870006 0
M  V30 43170 O 3986.61 -1.76568 0.123627 0
M  V30 43171 C 3983.73 -3.38975 0.543219 0
M  V30 43172 C 3982.82 -3.91622 1.62767 0
M  V30 43173 N 3983.21 -4.17483 2.85555 0
M  V30 43174 C 3981.51 -4.20035 1.49955 0
M  V30 43175 C 3982.21 -4.60286 3.55685 0
M  V30 43176 N 3981.19 -4.64027 2.8316 0
M  V30 43177 H 3984.99 -2.24616 1.89538 0
M  V30 43178 H 3982.5 -1.17388 1.12222 0
M  V30 43179 H 3984.5 -4.15536 0.336914 0
M  V30 43180 H 3983.16 -3.22438 -0.382572 0
M  V30 43181 H 3984.17 -4.05651 3.21975 0
M  V30 43182 H 3980.85 -4.12565 0.640009 0
M  V30 43183 H 3982.24 -4.8891 4.60887 0
M  V30 43184 N 3984.96 -1.03439 -1.18904 0
M  V30 43185 C 3985.91 -0.590458 -2.20222 0
M  V30 43186 C 3986.89 0.363746 -1.56734 0
M  V30 43187 O 3988.08 0.183821 -1.76043 0
M  V30 43188 C 3985.21 0.0516347 -3.43261 0
M  V30 43189 C 3984.3 -0.925341 -4.13882 0
M  V30 43190 N 3984.69 -2.08994 -4.60603 0
M  V30 43191 C 3982.99 -0.749976 -4.39649 0
M  V30 43192 C 3983.69 -2.70657 -5.14898 0
M  V30 43193 N 3982.66 -1.98579 -5.06031 0
M  V30 43194 H 3986.47 -1.47804 -2.5403 0
M  V30 43195 H 3983.98 -0.902125 -1.35039 0
M  V30 43196 H 3985.98 0.38733 -4.15097 0
M  V30 43197 H 3984.64 0.934836 -3.10952 0
M  V30 43198 H 3985.65 -2.46911 -4.55253 0
M  V30 43199 H 3982.33 0.0836666 -4.17416 0
M  V30 43200 H 3983.72 -3.69317 -5.61297 0
M  V30 43201 N 3986.44 1.35011 -0.813001 0
M  V30 43202 C 3987.37 2.27541 -0.173299 0
M  V30 43203 C 3988.35 1.48403 0.66448 0
M  V30 43204 O 3989.53 1.77647 0.630373 0
M  V30 43205 C 3986.66 3.30088 0.758913 0
M  V30 43206 C 3985.7 4.265 -6.43048e-05 0
M  V30 43207 S 3986.54 5.18451 -1.34049 0
M  V30 43208 C 3987.69 6.24537 -0.412888 0
M  V30 43209 H 3987.93 2.81449 -0.957795 0
M  V30 43210 H 3985.46 1.41908 -0.608386 0
M  V30 43211 H 3987.42 3.89663 1.29124 0
M  V30 43212 H 3986.08 2.75046 1.51685 0
M  V30 43213 H 3985.27 4.98999 0.708212 0
M  V30 43214 H 3984.87 3.71128 -0.462628 0
M  V30 43215 H 3987.16 6.76322 0.399391 0
M  V30 43216 H 3988.11 6.99389 -1.10726 0
M  V30 43217 H 3988.52 5.645 -0.00573011 0
M  V30 43218 N 3987.91 0.567071 1.47044 0
M  V30 43219 C 3989.32 0.136303 1.86202 0
M  V30 43220 C 3989.68 -1.29656 1.47255 0
M  V30 43221 O 3988.8 -1.97692 0.880156 0
M  V30 43222 C 3989.4 0.240587 3.37945 0
M  V30 43223 C 3987.95 -0.135206 3.76157 0
M  V30 43224 C 3987.1 0.583676 2.71088 0
M  V30 43225 H 3990.05 0.776221 1.38421 0
M  V30 43226 H 3990.07 -0.538227 3.76674 0
M  V30 43227 H 3989.59 1.28354 3.66261 0
M  V30 43228 H 3987.69 -1.17889 3.53458 0
M  V30 43229 H 3987.8 0.230221 4.78547 0
M  V30 43230 H 3986.16 0.0256514 2.54687 0
M  V30 43231 H 3986.95 1.62798 3.02245 0
M  V30 43232 N 3989.39 -1.5464 0.304027 0
M  V30 43233 C 3990.8 -1.85751 -0.188009 0
M  V30 43234 C 3991.15 -1.22593 -1.53184 0
M  V30 43235 O 3990.28 -0.524732 -2.09942 0
M  V30 43236 C 3990.87 -3.37009 -0.347917 0
M  V30 43237 C 3989.43 -3.68141 -0.784173 0
M  V30 43238 C 3988.58 -2.77098 0.105703 0
M  V30 43239 H 3991.53 -1.49767 0.524944 0
M  V30 43240 H 3991.55 -3.61675 -1.18201 0
M  V30 43241 H 3991.06 -3.82948 0.630295 0
M  V30 43242 H 3989.16 -3.27722 -1.77283 0
M  V30 43243 H 3989.28 -4.7531 -0.601463 0
M  V30 43244 H 3987.64 -2.51288 -0.415517 0
M  V30 43245 H 3988.42 -3.25859 1.08032 0
M  V30 43246 N 3990.87 -0.0318079 -1.57568 0
M  V30 43247 C 3991.82 0.958367 -2.0688 0
M  V30 43248 C 3992.8 1.28383 -0.969873 0
M  V30 43249 O 3994 1.26949 -1.2334 0
M  V30 43250 C 3991.12 2.23987 -2.60163 0
M  V30 43251 C 3990.21 1.94265 -3.76991 0
M  V30 43252 N 3990.6 1.34823 -4.875 0
M  V30 43253 C 3988.9 2.24241 -3.85528 0
M  V30 43254 C 3989.6 1.22294 -5.68699 0
M  V30 43255 N 3988.58 1.71935 -5.15693 0
M  V30 43256 H 3992.38 0.493797 -2.89722 0
M  V30 43257 H 3989.89 0.173139 -1.61474 0
M  V30 43258 H 3991.89 2.95799 -2.93784 0
M  V30 43259 H 3990.55 2.71068 -1.78752 0
M  V30 43260 H 3991.56 1.0229 -5.07698 0
M  V30 43261 H 3988.24 2.73977 -3.15028 0
M  V30 43262 H 3989.63 0.763079 -6.67553 0
M  V30 43263 O 3992.39 1.61127 0.109767 0
M  V30 43264 H 3993.08 1.79006 0.740042 0
M  V30 END ATOM
M  V30 BEGIN BOND
M  V30 END BOND
M  V30 END CTAB
M  END
$$$$
