drugbank_target|Q13557 Calcium/calmodulin-dependent protein kinase type II subunit delta (DB07853; DB08039; DB12010)
 OpenBabel12092120473D

  0  0  0     0  0            999 V3000
M  V30 BEGIN CTAB
M  V30 COUNTS 7899 7992 0 0 0
M  V30 BEGIN ATOM
M  V30 1 H -0.908 1.98254 -0.117106 0
M  V30 2 N 0 1.576 0 0
M  V30 3 C 0.933 2.03868 1.02534 0
M  V30 4 C 1.911 0.928543 1.3348 0
M  V30 5 O 3.095 1.19667 1.45644 0
M  V30 6 C 0.222 2.43627 2.35294 0
M  V30 7 C -0.732 3.65373 2.2001 0
M  V30 8 S 0.101 5.13292 1.52614 0
M  V30 9 C 1.257 5.56322 2.86805 0
M  V30 10 H 1.49 2.90518 0.631377 0
M  V30 11 H -0.977 1.52953 0.210867 0
M  V30 12 H 0.981 2.67203 3.11629 0
M  V30 13 H -0.358 1.57376 2.7183 0
M  V30 14 H -1.165 3.90944 3.18086 0
M  V30 15 H -1.563 3.418 1.51819 0
M  V30 16 H 0.729 5.58782 3.83104 0
M  V30 17 H 1.672 6.56266 2.65933 0
M  V30 18 H 2.08 4.83886 2.90714 0
M  V30 19 N 1.4781 -0.272755 1.55222 0
M  V30 20 C 2.4411 -1.32041 1.87344 0
M  V30 21 C 3.4411 -1.42342 0.74803 0
M  V30 22 O 4.6311 -1.41488 1.0162 0
M  V30 23 C 1.7631 -2.70173 2.07893 0
M  V30 24 H 2.9561 -1.04789 2.80997 0
M  V30 25 H 0.5091 -0.51083 1.47717 0
M  V30 26 H 1.2441 -3.02605 1.16622 0
M  V30 27 H 1.0291 -2.64082 2.89833 0
M  V30 28 H 2.5191 -3.45869 2.34017 0
M  V30 29 N 2.9562 -1.48159 -0.537278 0
M  V30 30 C 4.1812 -1.59707 -1.32319 0
M  V30 31 C 4.6062 -0.254859 -1.86365 0
M  V30 32 O 3.9642 0.772378 -1.64024 0
M  V30 33 C 4.0122 -2.6412 -2.45505 0
M  V30 34 O 3.1162 -2.20774 -3.48328 0
M  V30 35 H 2.4572 -0.535791 -0.392204 0
M  V30 36 H 4.9872 -1.94092 -0.647268 0
M  V30 37 H 4.9972 -2.85166 -2.91795 0
M  V30 38 H 3.6722 -3.61567 -2.05528 0
M  V30 39 H 2.2492 -2.09911 -3.08207 0
M  V30 40 N 4.4343 0.785586 -1.36625 0
M  V30 41 C 5.6623 1.57448 -1.3423 0
M  V30 42 C 6.0773 1.88649 0.0755653 0
M  V30 43 O 5.4343 1.50414 1.03354 0
M  V30 44 C 5.4853 2.89316 -2.16745 0
M  V30 45 O 5.2063 2.59459 -3.53005 0
M  V30 46 C 6.7073 3.83606 -2.22174 0
M  V30 47 H 3.9273 0.488226 -0.4603 0
M  V30 48 H 6.4713 0.974733 -1.79775 0
M  V30 49 H 4.6263 3.4575 -1.74745 0
M  V30 50 H 5.0403 3.43804 -3.96105 0
M  V30 51 H 6.5143 4.73181 -2.8426 0
M  V30 52 H 6.9913 4.21734 -1.22627 0
M  V30 53 H 7.5973 3.33104 -2.64427 0
M  V30 54 N 5.9124 1.20967 1.01018 0
M  V30 55 C 7.1404 1.04956 1.78303 0
M  V30 56 C 7.5554 -0.400915 1.84494 0
M  V30 57 O 6.9124 -1.27826 1.30257 0
M  V30 58 C 6.9634 1.63403 3.22462 0
M  V30 59 O 6.6844 3.02775 3.16637 0
M  V30 60 C 8.1854 1.52432 4.16268 0
M  V30 61 H 5.4054 0.368858 0.560522 0
M  V30 62 H 7.9494 1.60193 1.27116 0
M  V30 63 H 6.1044 1.1227 3.70775 0
M  V30 64 H 6.5184 3.30626 4.07169 0
M  V30 65 H 7.9924 1.98078 5.15237 0
M  V30 66 H 8.4694 0.477875 4.36592 0
M  V30 67 H 9.0754 2.02787 3.73841 0
M  V30 68 N 7.3905 -1.2043 1.01659 0
M  V30 69 C 8.6185 -1.93777 0.725132 0
M  V30 70 C 9.0335 -1.74772 -0.714166 0
M  V30 71 O 8.3905 -1.06169 -1.4844 0
M  V30 72 C 8.4415 -3.45876 1.05129 0
M  V30 73 O 8.1625 -3.6426 2.43406 0
M  V30 74 C 9.6635 -4.36368 0.780891 0
M  V30 75 H 6.8835 -0.615901 0.266284 0
M  V30 76 H 9.4275 -1.52922 1.35776 0
M  V30 77 H 7.5825 -3.8461 0.464065 0
M  V30 78 H 7.9965 -4.58246 2.55169 0
M  V30 79 H 9.4705 -5.41743 1.05918 0
M  V30 80 H 9.9475 -4.38275 -0.284937 0
M  V30 81 H 10.5535 -4.03296 1.35027 0
M  V30 82 N 8.8686 -0.792821 -1.36206 0
M  V30 83 C 10.1086 -0.372238 -2.00982 0
M  V30 84 C 10.4726 1.03749 -1.61555 0
M  V30 85 O 11.6736 1.55934 -2.18948 0
M  V30 86 C 9.9446 -0.534566 -3.5338 0
M  V30 87 S 11.5036 -0.202365 -4.38333 0
M  V30 88 H 8.3216 -0.142044 -0.696667 0
M  V30 89 H 10.9236 -1.03206 -1.66039 0
M  V30 90 H 9.6276 -1.5608 -3.79562 0
M  V30 91 H 9.1586 0.141065 -3.93147 0
M  V30 92 H 11.1736 0.994869 -4.86124 0
M  V30 93 N 10.3467 1.47872 -0.545128 0
M  V30 94 C 11.5747 2.06889 -0.021084 0
M  V30 95 C 11.9897 1.39955 1.2672 0
M  V30 96 O 11.3467 0.492036 1.75742 0
M  V30 97 C 11.3977 3.60996 0.190817 0
M  V30 98 O 11.1187 4.25419 -1.04644 0
M  V30 99 C 12.6197 4.36849 0.753521 0
M  V30 100 H 9.8397 0.669785 -0.0403635 0
M  V30 101 H 12.3837 1.90049 -0.755095 0
M  V30 102 H 10.5387 3.77391 0.87492 0
M  V30 103 H 10.9527 5.17785 -0.836611 0
M  V30 104 H 12.4267 5.45399 0.851139 0
M  V30 105 H 12.9037 4.02306 1.762 0
M  V30 106 H 13.5097 4.25169 0.105503 0
M  V30 107 N 11.8248 0.280983 1.55075 0
M  V30 108 C 13.2408 -0.0729964 1.59433 0
M  V30 109 C 13.4408 -1.5411 1.29817 0
M  V30 110 O 12.4968 -2.29086 1.06187 0
M  V30 111 C 13.8098 0.306921 2.9913 0
M  V30 112 C 15.3578 0.254023 3.11968 0
M  V30 113 C 15.8328 0.608467 4.5394 0
M  V30 114 N 17.3238 0.560241 4.59799 0
M  V30 115 C 18.0588 0.80722 5.6769 0
M  V30 116 N 17.5548 1.11912 6.83701 0
M  V30 117 N 19.3478 0.735623 5.57266 0
M  V30 118 H 11.4988 1.238 1.7259 0
M  V30 119 H 13.7618 0.500547 0.805082 0
M  V30 120 H 13.4678 1.32816 3.25657 0
M  V30 121 H 13.3418 -0.349363 3.75579 0
M  V30 122 H 15.7288 -0.75794 2.852 0
M  V30 123 H 15.8098 0.944649 2.37718 0
M  V30 124 H 15.4538 1.61814 4.81434 0
M  V30 125 H 15.3838 -0.104013 5.26497 0
M  V30 126 H 17.8748 0.329288 3.76463 0
M  V30 127 H 18.1878 1.29409 7.61888 0
M  V30 128 H 16.5328 1.15695 6.85303 0
M  V30 129 H 19.7238 0.491752 4.6551 0
M  V30 130 H 19.8968 0.931482 6.4127 0
M  V30 131 N 13.3029 -1.57598 0.00835791 0
M  V30 132 C 14.5499 -1.90928 -0.674732 0
M  V30 133 C 14.8779 -0.88277 -1.73313 0
M  V30 134 O 14.1329 0.111294 -1.95383 0
M  V30 135 C 14.4319 -3.3101 -1.34787 0
M  V30 136 C 14.0979 -4.48922 -0.421861 0
M  V30 137 C 12.7599 -4.8091 -0.166927 0
M  V30 138 C 15.1119 -5.20755 0.215211 0
M  V30 139 C 12.4399 -5.821 0.733232 0
M  V30 140 C 14.7919 -6.22905 1.1033 0
M  V30 141 C 13.4559 -6.53346 1.36733 0
M  V30 142 H 12.7259 -0.698656 -0.246902 0
M  V30 143 H 15.3729 -1.91387 0.0656779 0
M  V30 144 H 13.6779 -3.26714 -2.16253 0
M  V30 145 H 15.3749 -3.54061 -1.8826 0
M  V30 146 H 11.9649 -4.23934 -0.630729 0
M  V30 147 H 16.1489 -4.9629 0.0312829 0
M  V30 148 H 11.4049 -6.04042 0.945712 0
M  V30 149 H 15.5789 -6.77694 1.60325 0
M  V30 150 H 13.2059 -7.31573 2.06652 0
M  V30 151 N 14.781 0.264519 -1.55364 0
M  V30 152 C 16.009 1.013 -1.80405 0
M  V30 153 C 16.424 1.79618 -0.581622 0
M  V30 154 O 15.781 1.76879 0.449468 0
M  V30 155 C 15.832 1.96487 -3.03439 0
M  V30 156 O 15.553 1.21341 -4.20961 0
M  V30 157 C 17.054 2.83079 -3.41147 0
M  V30 158 H 14.274 0.298875 -0.600762 0
M  V30 159 H 16.818 0.292736 -2.02394 0
M  V30 160 H 14.973 2.63965 -2.83551 0
M  V30 161 H 15.387 1.85573 -4.90574 0
M  V30 162 H 16.861 3.4565 -4.30384 0
M  V30 163 H 17.338 3.53286 -2.60932 0
M  V30 164 H 17.944 2.2108 -3.63323 0
M  V30 165 N 16.2591 1.48442 0.529413 0
M  V30 166 C 17.5361 1.46978 1.29062 0
M  V30 167 C 17.9161 0.181769 2.10316 0
M  V30 168 O 17.2641 -0.836481 2.12639 0
M  V30 169 C 17.4741 2.7321 2.17157 0
M  V30 170 C 18.8221 3.21562 2.77278 0
M  V30 171 O 19.8461 2.74131 2.27444 0
M  V30 172 O 18.7051 4.04094 3.67927 0
M  V30 173 H 15.7991 0.587003 0.582543 0
M  V30 174 H 18.3451 1.60676 0.546021 0
M  V30 175 H 17.1171 3.58465 1.56903 0
M  V30 176 H 16.7401 2.62235 2.98862 0
M  V30 177 N 17.7372 -0.778329 1.37039 0
M  V30 178 C 18.6472 -1.92253 1.34446 0
M  V30 179 C 19.6632 -1.72267 0.244991 0
M  V30 180 O 20.8392 -1.95615 0.479258 0
M  V30 181 C 17.9042 -3.27282 1.144 0
M  V30 182 C 16.9652 -3.59969 2.33925 0
M  V30 183 C 16.1982 -4.88555 2.14825 0
M  V30 184 O 16.4212 -5.59113 1.12912 0
M  V30 185 O 15.3552 -5.20153 3.02861 0
M  V30 186 H 19.1812 -1.97392 2.30803 0
M  V30 187 H 16.7662 -0.920154 1.17701 0
M  V30 188 H 18.6482 -4.08062 1.05182 0
M  V30 189 H 17.3232 -3.23011 0.211124 0
M  V30 190 H 16.2302 -2.7945 2.48714 0
M  V30 191 H 17.5632 -3.68976 3.25757 0
M  V30 192 N 19.2153 -1.21501 -1.00376 0
M  V30 193 C 20.4453 -1.05746 -1.77486 0
M  V30 194 C 20.8533 0.395655 -1.85017 0
M  V30 195 O 20.1963 1.28626 -1.31152 0
M  V30 196 C 20.2583 -1.58092 -3.22873 0
M  V30 197 C 19.9223 -3.06568 -3.38917 0
M  V30 198 C 20.9193 -4.04106 -3.271 0
M  V30 199 C 18.6043 -3.45799 -3.64319 0
M  V30 200 C 20.5983 -5.38862 -3.40451 0
M  V30 201 C 18.2853 -4.80707 -3.77311 0
M  V30 202 C 19.2833 -5.77047 -3.65384 0
M  V30 203 O 18.9713 -7.09507 -3.77961 0
M  V30 204 H 18.7033 -0.371778 -0.564586 0
M  V30 205 H 21.2573 -1.61319 -1.27143 0
M  V30 206 H 19.4873 -0.969163 -3.74358 0
M  V30 207 H 21.1763 -1.38162 -3.81662 0
M  V30 208 H 21.9423 -3.75141 -3.07399 0
M  V30 209 H 17.8213 -2.71344 -3.72684 0
M  V30 210 H 21.3653 -6.14041 -3.31058 0
M  V30 211 H 17.2623 -5.09357 -3.96517 0
M  V30 212 H 18.0303 -7.16935 -3.94901 0
M  V30 213 N 20.6934 1.19889 -1.02296 0
M  V30 214 C 21.6254 2.22334 -0.556787 0
M  V30 215 C 22.6384 1.58674 0.364199 0
M  V30 216 O 23.8274 1.77768 0.161533 0
M  V30 217 C 20.9274 3.38257 0.208694 0
M  V30 218 C 20.1004 4.31504 -0.71577 0
M  V30 219 C 19.1594 5.262 0.00325597 0
M  V30 220 O 18.1854 5.65798 -0.621357 0
M  V30 221 N 19.3874 5.66303 1.27599 0
M  V30 222 H 22.1524 2.62957 -1.43784 0
M  V30 223 H 19.7134 1.34495 -0.901261 0
M  V30 224 H 21.7054 3.98616 0.699111 0
M  V30 225 H 20.2754 2.96472 0.991102 0
M  V30 226 H 19.4954 3.69016 -1.38638 0
M  V30 227 H 20.7834 4.9072 -1.34428 0
M  V30 228 H 20.1814 5.36155 1.80429 0
M  V30 229 H 18.7384 6.28942 1.71102 0
M  V30 230 N 22.1715 0.800033 1.35784 0
M  V30 231 C 23.1015 0.220184 2.3246 0
M  V30 232 C 24.0825 -0.65073 1.57161 0
M  V30 233 O 25.2675 -0.582359 1.85263 0
M  V30 234 C 22.3975 -0.637353 3.41402 0
M  V30 235 C 21.3515 0.134531 4.27789 0
M  V30 236 C 20.6775 -0.844285 5.27992 0
M  V30 237 C 21.9775 1.32979 5.05088 0
M  V30 238 H 23.6715 1.02787 2.81203 0
M  V30 239 H 21.2175 0.495717 1.35199 0
M  V30 240 H 23.1705 -1.05302 4.08031 0
M  V30 241 H 21.8945 -1.47785 2.91251 0
M  V30 242 H 20.5535 0.531296 3.6273 0
M  V30 243 H 20.2015 -1.68011 4.74111 0
M  V30 244 H 19.9015 -0.332184 5.8666 0
M  V30 245 H 21.4255 -1.2583 5.97494 0
M  V30 246 H 22.8395 0.98934 5.64699 0
M  V30 247 H 21.2365 1.77593 5.7322 0
M  V30 248 H 22.3065 2.11978 4.36111 0
M  V30 249 N 23.6496 -1.47581 0.552962 0
M  V30 250 C 24.8966 -2.02482 0.0273243 0
M  V30 251 C 25.2246 -1.42776 -1.32081 0
M  V30 252 O 24.4796 -0.571393 -1.87173 0
M  V30 253 C 24.7786 -3.57199 -0.119728 0
M  V30 254 C 24.4446 -4.35804 1.15697 0
M  V30 255 C 23.1066 -4.57 1.50681 0
M  V30 256 C 25.4586 -4.81167 2.00319 0
M  V30 257 C 22.7866 -5.20807 2.70142 0
M  V30 258 C 25.1386 -5.46293 3.18978 0
M  V30 259 C 23.8026 -5.65722 3.54281 0
M  V30 260 H 23.0726 -0.740933 0.00999866 0
M  V30 261 H 25.7196 -1.77302 0.72362 0
M  V30 262 H 24.0246 -3.81348 -0.89896 0
M  V30 263 H 25.7216 -3.97324 -0.541718 0
M  V30 264 H 22.3116 -4.19582 0.874561 0
M  V30 265 H 26.4956 -4.64574 1.74599 0
M  V30 266 H 21.7516 -5.34045 2.97668 0
M  V30 267 H 25.9256 -5.80407 3.84838 0
M  V30 268 H 23.5526 -6.14936 4.46942 0
M  V30 269 N 25.1277 -0.289203 -1.54924 0
M  V30 270 C 26.0377 0.601863 -2.26748 0
M  V30 271 C 27.0537 1.15834 -1.2984 0
M  V30 272 O 28.2297 1.18564 -1.62802 0
M  V30 273 C 25.2947 1.76299 -2.98529 0
M  V30 274 C 24.3557 1.24178 -4.10948 0
M  V30 275 C 23.5887 2.34757 -4.79296 0
M  V30 276 O 23.8117 3.54411 -4.46933 0
M  V30 277 O 22.7457 2.02115 -5.66951 0
M  V30 278 H 26.5717 0.0195879 -3.03694 0
M  V30 279 H 24.1567 -0.0560868 -1.49295 0
M  V30 280 H 26.0387 2.43973 -3.43592 0
M  V30 281 H 24.7137 2.33209 -2.24488 0
M  V30 282 H 23.6207 0.531104 -3.70311 0
M  V30 283 H 24.9537 0.718252 -4.86931 0
M  V30 284 N 26.6058 1.57591 -0.0167156 0
M  V30 285 C 27.5158 2.1291 0.98521 0
M  V30 286 C 28.5318 1.07834 1.36557 0
M  V30 287 O 29.7078 1.39826 1.44951 0
M  V30 288 C 26.7728 2.63512 2.25305 0
M  V30 289 C 25.8338 3.83256 1.93426 0
M  V30 290 C 25.0668 4.31435 3.14165 0
M  V30 291 O 25.2898 3.78851 4.26413 0
M  V30 292 O 24.2238 5.23416 2.97186 0
M  V30 293 H 28.0498 2.98772 0.544888 0
M  V30 294 H 25.6348 1.48012 0.203141 0
M  V30 295 H 27.5168 2.96183 2.99756 0
M  V30 296 H 26.1918 1.8074 2.68542 0
M  V30 297 H 25.0988 3.55531 1.16398 0
M  V30 298 H 26.4318 4.67153 1.55013 0
M  V30 299 N 28.0839 -0.256276 1.55502 0
M  V30 300 C 29.0139 -1.32102 1.92539 0
M  V30 301 C 29.9949 -1.50684 0.789194 0
M  V30 302 O 31.1799 -1.63449 1.04872 0
M  V30 303 C 28.3099 -2.67752 2.21192 0
M  V30 304 C 27.2639 -2.63878 3.36975 0
M  V30 305 C 26.5899 -4.03236 3.51147 0
M  V30 306 C 27.8899 -2.21682 4.72921 0
M  V30 307 H 29.5839 -1.01351 2.81724 0
M  V30 308 H 27.1299 -0.486105 1.35547 0
M  V30 309 H 29.0829 -3.42365 2.45691 0
M  V30 310 H 27.8069 -3.0012 1.28824 0
M  V30 311 H 26.4659 -1.91722 3.12471 0
M  V30 312 H 26.1139 -4.32854 2.56216 0
M  V30 313 H 25.8139 -4.01535 4.29003 0
M  V30 314 H 27.3379 -4.79563 3.77957 0
M  V30 315 H 28.7519 -2.86023 4.96854 0
M  V30 316 H 27.1489 -2.3111 5.53812 0
M  V30 317 H 28.2189 -1.16833 4.70615 0
M  V30 318 N 29.562 -1.4872 -0.521534 0
M  V30 319 C 30.81 -1.56857 -1.27437 0
M  V30 320 C 31.131 -0.247982 -1.93417 0
M  V30 321 O 30.401 0.731151 -1.81744 0
M  V30 322 H 28.981 -0.577885 -0.473347 0
M  V30 323 H 31.643 -1.85233 -0.606205 0
M  V30 324 H 30.739 -2.35402 -2.0492 0
M  V30 325 N 31.0401 0.771051 -1.3745 0
M  V30 326 C 31.9871 1.88435 -1.3327 0
M  V30 327 C 32.9571 1.64914 -0.198136 0
M  V30 328 O 34.1421 1.86821 -0.387606 0
M  V30 329 C 31.2821 3.25509 -1.14622 0
M  V30 330 C 30.3951 3.60979 -2.37314 0
M  V30 331 C 29.5301 4.87265 -2.11533 0
M  V30 332 C 28.5691 5.15469 -3.30088 0
M  V30 333 N 27.7061 6.32944 -3.03853 0
M  V30 334 H 32.5461 1.91344 -2.28455 0
M  V30 335 H 30.0831 0.935466 -1.13523 0
M  V30 336 H 32.0411 4.04582 -1.01831 0
M  V30 337 H 30.6711 3.21974 -0.230837 0
M  V30 338 H 29.7231 2.76885 -2.60842 0
M  V30 339 H 31.0351 3.77759 -3.25729 0
M  V30 340 H 30.1891 5.74244 -1.95777 0
M  V30 341 H 28.9281 4.7259 -1.20457 0
M  V30 342 H 27.9331 4.26966 -3.46382 0
M  V30 343 H 29.1581 5.32052 -4.22016 0
M  V30 344 H 27.1041 6.19625 -2.15407 0
M  V30 345 H 27.0211 6.50143 -3.85812 0
M  V30 346 H 28.2891 7.22857 -2.91716 0
M  V30 347 N 32.5182 1.22032 0.997298 0
M  V30 348 C 33.7662 1.04016 1.73278 0
M  V30 349 C 34.0872 -0.426255 1.90284 0
M  V30 350 O 33.3572 -1.30694 1.45931 0
M  V30 351 H 31.9372 0.381897 0.642 0
M  V30 352 H 34.5992 1.5347 1.20137 0
M  V30 353 H 33.6952 1.51441 2.72896 0
M  V30 354 N 33.9963 -1.19345 1.0293 0
M  V30 355 C 34.9593 -2.20793 0.615069 0
M  V30 356 C 35.9593 -1.57553 -0.321533 0
M  V30 357 O 37.1493 -1.73862 -0.108483 0
M  V30 358 C 34.2813 -3.40754 -0.0999222 0
M  V30 359 H 35.4743 -2.58955 1.51269 0
M  V30 360 H 33.0273 -1.3303 0.820534 0
M  V30 361 H 33.7623 -3.0811 -1.01187 0
M  V30 362 H 33.5473 -3.87889 0.57309 0
M  V30 363 H 35.0373 -4.15898 -0.376645 0
M  V30 364 N 35.4744 -0.807222 -1.35358 0
M  V30 365 C 36.7214 -0.387888 -1.9875 0
M  V30 366 C 37.0494 1.04509 -1.64037 0
M  V30 367 O 36.3044 1.73986 -0.895946 0
M  V30 368 C 36.6034 -0.519036 -3.53611 0
M  V30 369 C 36.2694 -1.91542 -4.08194 0
M  V30 370 C 34.9314 -2.29745 -4.22813 0
M  V30 371 C 37.2834 -2.82896 -4.37744 0
M  V30 372 C 34.6114 -3.58668 -4.643 0
M  V30 373 C 36.9634 -4.11265 -4.8067 0
M  V30 374 C 35.6274 -4.49466 -4.93494 0
M  V30 375 H 34.8974 -0.141938 -0.727279 0
M  V30 376 H 37.5444 -1.02814 -1.6156 0
M  V30 377 H 35.8494 0.204658 -3.91265 0
M  V30 378 H 37.5464 -0.175345 -4.00616 0
M  V30 379 H 34.1364 -1.60862 -3.97268 0
M  V30 380 H 38.3204 -2.54629 -4.26002 0
M  V30 381 H 33.5764 -3.88113 -4.72418 0
M  V30 382 H 37.7504 -4.82153 -5.02496 0
M  V30 383 H 35.3774 -5.49418 -5.25399 0
M  V30 384 N 36.9525 1.47285 -0.560781 0
M  V30 385 C 38.1775 2.07359 -0.0410566 0
M  V30 386 C 38.6025 1.41017 1.24483 0
M  V30 387 O 37.9605 0.486368 1.74654 0
M  V30 388 C 38.0085 3.6035 0.134123 0
M  V30 389 O 37.1125 3.94681 1.19587 0
M  V30 390 H 36.4535 0.661887 -0.0529291 0
M  V30 391 H 38.9835 1.89252 -0.777482 0
M  V30 392 H 38.9935 4.0652 0.347207 0
M  V30 393 H 37.6685 4.08034 -0.805047 0
M  V30 394 H 36.2455 3.60251 0.962987 0
M  V30 395 N 38.4306 0.297415 1.54768 0
M  V30 396 C 39.6766 -0.313376 2.00364 0
M  V30 397 C 40.0096 -1.53815 1.18553 0
M  V30 398 O 39.2846 -1.92739 0.261103 0
M  V30 399 C 39.5676 -0.673525 3.53745 0
M  V30 400 C 39.4206 0.560133 4.46299 0
M  V30 401 C 40.7396 -1.50143 4.13697 0
M  V30 402 H 37.8586 -0.112428 0.728374 0
M  V30 403 H 40.5006 0.4088 1.8555 0
M  V30 404 H 38.6506 -1.28881 3.665 0
M  V30 405 H 40.3226 1.19863 4.45455 0
M  V30 406 H 38.5656 1.19405 4.17043 0
M  V30 407 H 39.2366 0.26405 5.51368 0
M  V30 408 H 41.7126 -0.981588 4.04356 0
M  V30 409 H 40.5886 -1.72221 5.21182 0
M  V30 410 H 40.8496 -2.48952 3.65343 0
M  V30 411 N 39.9087 -1.5758 0.0250728 0
M  V30 412 C 41.1547 -1.91917 -0.655413 0
M  V30 413 C 41.4877 -0.901433 -1.72011 0
M  V30 414 O 40.7627 0.0764069 -1.9435 0
M  V30 415 C 41.0457 -3.36751 -1.27558 0
M  V30 416 C 40.8987 -4.49258 -0.220719 0
M  V30 417 C 42.2177 -3.81469 -2.19475 0
M  V30 418 H 39.3367 -0.697925 -0.23679 0
M  V30 419 H 41.9787 -1.89825 0.0815036 0
M  V30 420 H 40.1287 -3.38664 -1.90365 0
M  V30 421 H 41.8007 -4.59478 0.409601 0
M  V30 422 H 40.0437 -4.31415 0.454264 0
M  V30 423 H 40.7147 -5.47618 -0.694175 0
M  V30 424 H 43.1907 -3.81266 -1.66659 0
M  V30 425 H 42.0667 -4.83512 -2.59822 0
M  V30 426 H 42.3277 -3.16744 -3.08424 0
M  V30 427 N 41.3868 0.248026 -1.55636 0
M  V30 428 C 42.8028 0.596483 -1.48035 0
M  V30 429 C 43.0028 1.88386 -0.715039 0
M  V30 430 O 42.0588 2.51319 -0.243944 0
M  V30 431 C 43.3718 0.700258 -2.92433 0
M  V30 432 C 44.9198 0.792659 -3.02797 0
M  V30 433 C 45.3948 0.928005 -4.485 0
M  V30 434 N 46.8858 0.992903 -4.52433 0
M  V30 435 C 47.6208 1.11687 -5.62418 0
M  V30 436 N 47.1168 1.20645 -6.82214 0
M  V30 437 N 48.9098 1.14994 -5.50212 0
M  V30 438 H 41.0608 -0.597109 -2.03834 0
M  V30 439 H 43.3238 -0.205925 -0.925364 0
M  V30 440 H 43.0298 -0.175658 -3.51261 0
M  V30 441 H 42.9038 1.57255 -3.42857 0
M  V30 442 H 45.2908 1.65903 -2.4405 0
M  V30 443 H 45.3718 -0.104762 -2.55585 0
M  V30 444 H 45.0158 0.0661971 -5.07857 0
M  V30 445 H 44.9458 1.84045 -4.93391 0
M  V30 446 H 47.4368 0.935064 -3.66149 0
M  V30 447 H 47.7498 1.30008 -7.61786 0
M  V30 448 H 46.0948 1.17605 -6.84977 0
M  V30 449 H 49.2858 1.07643 -4.55555 0
M  V30 450 H 49.4588 1.24311 -6.35965 0
M  V30 451 N 42.8649 1.48995 0.513639 0
M  V30 452 C 44.2809 1.35478 0.843682 0
M  V30 453 C 44.4809 0.378213 1.97919 0
M  V30 454 O 43.5369 -0.194689 2.51748 0
M  V30 455 C 44.8499 2.75901 1.1958 0
M  V30 456 C 46.3979 2.84509 1.30474 0
M  V30 457 C 46.8729 4.25671 1.69021 0
M  V30 458 N 48.3639 4.28422 1.76094 0
M  V30 459 C 49.0989 5.34601 2.07338 0
M  V30 460 N 48.5949 6.5104 2.36894 0
M  V30 461 N 50.3879 5.22007 2.08483 0
M  V30 462 H 42.5389 2.11092 -0.235328 0
M  V30 463 H 44.8019 0.947039 -0.0426669 0
M  V30 464 H 44.5079 3.49001 0.434913 0
M  V30 465 H 44.3819 3.10467 2.1422 0
M  V30 466 H 46.7689 2.11655 2.05637 0
M  V30 467 H 46.8499 2.53542 0.339155 0
M  V30 468 H 46.4939 4.99048 0.944135 0
M  V30 469 H 46.4239 4.54094 2.66658 0
M  V30 470 H 48.9149 3.44441 1.55464 0
M  V30 471 H 49.2279 7.2779 2.59887 0
M  V30 472 H 47.5729 6.54287 2.34378 0
M  V30 473 H 50.7639 4.30051 1.84861 0
M  V30 474 H 50.9369 6.04854 2.325 0
M  V30 475 N 44.343 -0.763751 1.37857 0
M  V30 476 C 45.583 -1.53551 1.34913 0
M  V30 477 C 45.947 -1.91895 -0.0635882 0
M  V30 478 O 47.148 -2.67916 -0.217825 0
M  V30 479 C 45.419 -2.76126 2.26912 0
M  V30 480 S 46.978 -3.66105 2.41893 0
M  V30 481 H 43.796 -0.52559 0.478828 0
M  V30 482 H 46.398 -0.897435 1.73685 0
M  V30 483 H 45.102 -2.4605 3.28463 0
M  V30 484 H 44.633 -3.44887 1.89253 0
M  V30 485 H 46.648 -4.68473 1.63545 0
M  V30 486 N 45.8211 -1.22559 -0.990812 0
M  V30 487 C 46.7541 -0.940773 -2.07905 0
M  V30 488 C 47.7321 0.117082 -1.62178 0
M  V30 489 O 48.9161 -0.0149506 -1.88494 0
M  V30 490 C 46.0431 -0.415321 -3.36144 0
M  V30 491 C 45.0891 -1.45818 -4.00799 0
M  V30 492 S 45.9221 -3.03219 -4.41382 0
M  V30 493 C 47.0781 -2.52317 -5.72789 0
M  V30 494 H 47.3111 -1.8623 -2.31745 0
M  V30 495 H 44.8441 -1.05688 -1.12558 0
M  V30 496 H 46.8021 -0.118747 -4.10328 0
M  V30 497 H 45.4631 0.485121 -3.10331 0
M  V30 498 H 44.6561 -1.04044 -4.93144 0
M  V30 499 H 44.2581 -1.70356 -3.32949 0
M  V30 500 H 46.5501 -1.93688 -6.49224 0
M  V30 501 H 47.4931 -3.43161 -6.19392 0
M  V30 502 H 47.9011 -1.93529 -5.30289 0
M  V30 503 N 47.2992 1.18797 -1.03562 0
M  V30 504 C 48.2462 2.22253 -0.622259 0
M  V30 505 C 49.2162 1.61987 0.36736 0
M  V30 506 O 50.4012 1.88986 0.262492 0
M  V30 507 C 47.5412 3.45097 0.0138462 0
M  V30 508 C 46.6542 4.19722 -1.02263 0
M  V30 509 C 45.7892 5.30009 -0.355573 0
M  V30 510 C 44.8282 5.96399 -1.37749 0
M  V30 511 N 43.9652 6.98234 -0.735766 0
M  V30 512 H 48.8052 2.56968 -1.50903 0
M  V30 513 H 46.3422 1.26245 -0.755017 0
M  V30 514 H 48.3002 4.15279 0.399948 0
M  V30 515 H 46.9302 3.11018 0.864158 0
M  V30 516 H 45.9822 3.48418 -1.52673 0
M  V30 517 H 47.2942 4.65227 -1.79903 0
M  V30 518 H 46.4482 6.0664 0.0850095 0
M  V30 519 H 45.1872 4.85592 0.452967 0
M  V30 520 H 44.1922 5.18512 -1.82826 0
M  V30 521 H 45.4172 6.42899 -2.18764 0
M  V30 522 H 43.3632 6.55979 0.0525597 0
M  V30 523 H 43.2802 7.41965 -1.44995 0
M  V30 524 H 44.5482 7.78845 -0.31941 0
M  V30 525 N 48.7773 0.814389 1.34928 0
M  V30 526 C 50.0263 0.394871 1.97797 0
M  V30 527 C 50.3393 -1.04555 1.65311 0
M  V30 528 O 51.5453 -1.56856 2.21604 0
M  V30 529 C 50.0013 0.655103 3.53888 0
M  V30 530 C 49.6093 2.10858 3.95276 0
M  V30 531 C 51.3533 0.301329 4.23429 0
M  V30 532 C 49.2603 2.31415 5.44244 0
M  V30 533 H 48.1903 0.143913 0.740139 0
M  V30 534 H 50.8413 0.999544 1.53888 0
M  V30 535 H 49.2233 -0.0196253 3.95995 0
M  V30 536 H 50.3973 2.82176 3.64298 0
M  V30 537 H 48.7123 2.42297 3.38646 0
M  V30 538 H 51.3093 0.432869 5.32945 0
M  V30 539 H 51.6523 -0.75331 4.09428 0
M  V30 540 H 52.1853 0.930288 3.86769 0
M  V30 541 H 48.9243 3.35353 5.63222 0
M  V30 542 H 48.4443 1.6463 5.76764 0
M  V30 543 H 50.1233 2.13352 6.10811 0
M  V30 544 N 50.2554 -1.46986 0.568584 0
M  V30 545 C 51.6664 -1.86188 0.138219 0
M  V30 546 C 52.0174 -1.47388 -1.29504 0
M  V30 547 O 51.1424 -0.88219 -1.97602 0
M  V30 548 C 51.7374 -3.3792 0.244065 0
M  V30 549 C 50.2964 -3.76171 -0.131335 0
M  V30 550 C 49.4434 -2.71027 0.586465 0
M  V30 551 H 52.3944 -1.38342 0.777645 0
M  V30 552 H 52.4154 -3.76729 -0.534351 0
M  V30 553 H 51.9274 -3.66128 1.28731 0
M  V30 554 H 50.0284 -3.5358 -1.17526 0
M  V30 555 H 50.1414 -4.78523 0.235146 0
M  V30 556 H 48.5054 -2.54684 0.0282722 0
M  V30 557 H 49.2884 -3.02077 1.63109 0
M  V30 558 N 51.7335 -0.305618 -1.54608 0
M  V30 559 C 52.9615 0.304775 -2.04643 0
M  V30 560 C 53.3765 1.47167 -1.18268 0
M  V30 561 O 52.7335 1.81296 -0.209328 0
M  V30 562 C 52.7845 0.756564 -3.53495 0
M  V30 563 O 52.5055 -0.36389 -4.36586 0
M  V30 564 C 54.0065 1.43163 -4.19546 0
M  V30 565 H 51.2265 0.0655481 -0.667791 0
M  V30 566 H 53.7705 -0.446592 -1.99564 0
M  V30 567 H 51.9255 1.45794 -3.58919 0
M  V30 568 H 52.3395 -0.0113121 -5.24499 0
M  V30 569 H 53.8135 1.69886 -5.25207 0
M  V30 570 H 54.2905 2.37318 -3.69563 0
M  V30 571 H 54.8965 0.773307 -4.18211 0
M  V30 572 N 53.2116 1.57565 -0.0334293 0
M  V30 573 C 54.4596 1.91598 0.642999 0
M  V30 574 C 54.7806 0.910847 1.7242 0
M  V30 575 O 54.0506 -0.0469931 1.95844 0
M  V30 576 H 52.6306 0.707228 0.240496 0
M  V30 577 H 55.2926 1.94726 -0.0822488 0
M  V30 578 H 54.3886 2.92336 1.09298 0
M  V30 579 N 54.6897 -0.239769 1.55765 0
M  V30 580 C 55.6217 -1.32001 1.87372 0
M  V30 581 C 56.6347 -1.43944 0.760522 0
M  V30 582 O 57.8237 -1.45167 1.0387 0
M  V30 583 C 54.9237 -2.69779 2.05115 0
M  V30 584 C 54.0967 -2.80014 3.36022 0
M  V30 585 C 53.1557 -3.98684 3.4342 0
M  V30 586 O 52.1817 -3.87877 4.16582 0
M  V30 587 N 53.3837 -5.12176 2.73232 0
M  V30 588 H 56.1487 -1.0522 2.80622 0
M  V30 589 H 53.7097 -0.429857 1.56089 0
M  V30 590 H 55.7017 -3.47517 2.07399 0
M  V30 591 H 54.2717 -2.89237 1.18577 0
M  V30 592 H 53.4917 -1.88896 3.45994 0
M  V30 593 H 54.7797 -2.83808 4.22292 0
M  V30 594 H 54.1777 -5.2385 2.13536 0
M  V30 595 H 52.7347 -5.88022 2.81199 0
M  V30 596 N 56.1678 -1.49265 -0.50573 0
M  V30 597 C 57.0778 -1.68312 -1.63427 0
M  V30 598 C 58.0938 -0.565682 -1.64548 0
M  V30 599 O 59.2698 -0.839801 -1.83055 0
M  V30 600 C 56.3348 -1.74107 -2.99813 0
M  V30 601 C 55.3958 -2.97653 -3.09356 0
M  V30 602 C 54.6288 -3.03163 -4.39236 0
M  V30 603 O 54.8518 -2.16396 -5.27758 0
M  V30 604 O 53.7858 -3.9558 -4.53652 0
M  V30 605 H 57.6118 -2.63907 -1.50289 0
M  V30 606 H 55.1968 -1.32951 -0.681502 0
M  V30 607 H 57.0788 -1.803 -3.80881 0
M  V30 608 H 55.7538 -0.816901 -3.13223 0
M  V30 609 H 54.6608 -2.96981 -2.27493 0
M  V30 610 H 55.9938 -3.89535 -3.00871 0
M  V30 611 N 57.6459 0.756429 -1.3826 0
M  V30 612 C 58.8759 1.54341 -1.3734 0
M  V30 613 C 59.2839 1.89159 0.0393917 0
M  V30 614 O 58.6269 1.5307 1.01565 0
M  V30 615 C 58.6889 2.87238 -2.16182 0
M  V30 616 C 58.3529 2.74973 -3.65019 0
M  V30 617 C 59.3499 2.44962 -4.58574 0
M  V30 618 C 57.0349 2.92515 -4.08338 0
M  V30 619 C 59.0289 2.32642 -5.93428 0
M  V30 620 C 56.7159 2.79815 -5.43274 0
M  V30 621 C 57.7139 2.49921 -6.35632 0
M  V30 622 O 57.4019 2.37275 -7.68086 0
M  V30 623 H 57.1339 0.484281 -0.471643 0
M  V30 624 H 59.6879 0.944152 -1.82414 0
M  V30 625 H 57.9179 3.49342 -1.65822 0
M  V30 626 H 59.6069 3.48731 -2.07705 0
M  V30 627 H 60.3729 2.31081 -4.26412 0
M  V30 628 H 56.2519 3.14781 -3.368 0
M  V30 629 H 59.7959 2.0923 -6.65484 0
M  V30 630 H 55.6929 2.93269 -5.75034 0
M  V30 631 H 56.4609 2.52509 -7.78577 0
M  V30 632 N 59.124 1.23083 0.984299 0
M  V30 633 C 60.087 1.00979 2.05757 0
M  V30 634 C 61.087 -0.0269573 1.60777 0
M  V30 635 O 62.277 0.212403 1.729 0
M  V30 636 C 59.409 0.527072 3.36801 0
M  V30 637 H 60.602 1.9622 2.26799 0
M  V30 638 H 58.155 1.05072 1.15714 0
M  V30 639 H 58.89 -0.429294 3.21446 0
M  V30 640 H 58.675 1.27515 3.70786 0
M  V30 641 H 60.165 0.392942 4.15747 0
M  V30 642 N 60.6021 -1.18246 1.0419 0
M  V30 643 C 61.5651 -2.20128 0.638452 0
M  V30 644 C 62.5651 -1.57885 -0.304805 0
M  V30 645 O 63.7551 -1.73967 -0.0900369 0
M  V30 646 C 60.8871 -3.4084 -0.0637751 0
M  V30 647 H 62.0801 -2.57336 1.54007 0
M  V30 648 H 59.6331 -1.32152 0.834598 0
M  V30 649 H 60.3681 -3.09166 -0.979136 0
M  V30 650 H 60.1531 -3.8726 0.614198 0
M  V30 651 H 61.6431 -4.16274 -0.332512 0
M  V30 652 N 62.0802 -0.821533 -1.34494 0
M  V30 653 C 63.0272 -0.240397 -2.29545 0
M  V30 654 C 63.9972 0.634031 -1.53523 0
M  V30 655 O 65.1822 0.575966 -1.81899 0
M  V30 656 C 62.3222 0.592869 -3.39969 0
M  V30 657 C 61.4352 -0.30365 -4.30932 0
M  V30 658 C 60.5702 0.539049 -5.28458 0
M  V30 659 C 59.6092 -0.356942 -6.11058 0
M  V30 660 N 58.7462 0.446603 -7.00678 0
M  V30 661 H 63.5862 -1.05632 -2.7865 0
M  V30 662 H 61.1232 -0.532413 -1.37127 0
M  V30 663 H 63.0812 1.09129 -4.02675 0
M  V30 664 H 61.7112 1.37392 -2.92102 0
M  V30 665 H 60.7632 -0.920276 -3.691 0
M  V30 666 H 62.0752 -0.992661 -4.88823 0
M  V30 667 H 61.2292 1.102 -5.96608 0
M  V30 668 H 59.9682 1.26157 -4.71101 0
M  V30 669 H 58.9732 -0.932047 -5.41842 0
M  V30 670 H 60.1982 -1.07755 -6.70497 0
M  V30 671 H 58.1442 1.15282 -6.45791 0
M  V30 672 H 58.0612 -0.184048 -7.55776 0
M  V30 673 H 59.3292 0.992352 -7.73158 0
M  V30 674 N 63.5583 1.46682 -0.576371 0
M  V30 675 C 64.8073 2.01619 -0.0572825 0
M  V30 676 C 65.1203 1.45417 1.30818 0
M  V30 677 O 66.3263 1.92133 1.91825 0
M  V30 678 C 64.7823 3.59863 -0.0518371 0
M  V30 679 C 64.3903 4.25059 -1.41523 0
M  V30 680 C 66.1343 4.2248 0.413639 0
M  V30 681 C 64.0413 5.75364 -1.36785 0
M  V30 682 H 62.9713 0.753794 -0.0176448 0
M  V30 683 H 65.6223 1.68481 -0.727076 0
M  V30 684 H 64.0043 3.90048 0.683994 0
M  V30 685 H 65.1783 4.06491 -2.17029 0
M  V30 686 H 63.4933 3.7451 -1.8202 0
M  V30 687 H 66.0903 5.3265 0.467779 0
M  V30 688 H 66.4333 3.90976 1.42982 0
M  V30 689 H 66.9663 3.96897 -0.267929 0
M  V30 690 H 63.7053 6.11518 -2.36063 0
M  V30 691 H 63.2253 5.96214 -0.654895 0
M  V30 692 H 64.9043 6.37955 -1.07805 0
M  V30 693 N 65.0364 0.313813 1.54444 0
M  V30 694 C 66.2854 -0.292519 1.99568 0
M  V30 695 C 66.5984 -1.54011 1.20582 0
M  V30 696 O 67.8044 -2.22183 1.56035 0
M  V30 697 C 66.2604 -0.571752 3.55329 0
M  V30 698 C 65.8684 0.658229 4.43138 0
M  V30 699 C 67.6124 -1.13857 4.08946 0
M  V30 700 C 65.5194 0.351439 5.90355 0
M  V30 701 H 64.4494 -0.113079 0.745472 0
M  V30 702 H 67.1004 0.424518 1.78522 0
M  V30 703 H 65.4824 -1.34872 3.72325 0
M  V30 704 H 66.6564 1.43403 4.37918 0
M  V30 705 H 64.9714 1.14458 4.0036 0
M  V30 706 H 67.5684 -1.38257 5.16516 0
M  V30 707 H 67.9114 -2.08489 3.6033 0
M  V30 708 H 68.4444 -0.423015 3.95544 0
M  V30 709 H 65.1834 1.26667 6.43145 0
M  V30 710 H 64.7034 -0.386842 5.98551 0
M  V30 711 H 66.3824 -0.0423134 6.46986 0
M  V30 712 N 66.5145 -1.57545 0.0417849 0
M  V30 713 C 67.4625 -2.12148 -0.953723 0
M  V30 714 C 68.4565 -1.05104 -1.32852 0
M  V30 715 O 69.6625 -1.23524 -1.30927 0
M  V30 716 H 66.0375 -0.677957 -0.325389 0
M  V30 717 H 68.0085 -2.94707 -0.467991 0
M  V30 718 C 66.7575 -2.6739 -2.22257 0
M  V30 719 H 66.0805 -3.49413 -1.94295 0
M  V30 720 H 67.5205 -3.09227 -2.90094 0
M  V30 721 C 65.9795 -1.60723 -2.96091 0
M  V30 722 O 66.5095 -1.01449 -3.88679 0
M  V30 723 N 64.7155 -1.32466 -2.58652 0
M  V30 724 H 64.2625 -1.80856 -1.83437 0
M  V30 725 H 64.2205 -0.61325 -3.08361 0
M  V30 726 N 67.9926 0.231505 -1.5589 0
M  V30 727 C 69.2206 0.974505 -1.82513 0
M  V30 728 C 69.6356 1.78344 -0.619591 0
M  V30 729 O 68.9926 1.77792 0.411848 0
M  V30 730 C 69.0436 1.90007 -3.07538 0
M  V30 731 O 68.7646 1.12385 -4.2344 0
M  V30 732 C 70.2656 2.75779 -3.47075 0
M  V30 733 H 67.4856 0.286065 -0.606966 0
M  V30 734 H 70.0296 0.249739 -2.02969 0
M  V30 735 H 68.1846 2.57891 -2.89086 0
M  V30 736 H 68.5986 1.75125 -4.944 0
M  V30 737 H 70.0726 3.36443 -4.37619 0
M  V30 738 H 70.5496 3.47672 -2.68367 0
M  V30 739 H 71.1556 2.13323 -3.67931 0
M  V30 740 N 69.4707 1.49531 0.497807 0
M  V30 741 C 70.4177 1.66436 1.59899 0
M  V30 742 C 71.3877 0.505793 1.58212 0
M  V30 743 O 72.5727 0.733202 1.7615 0
M  V30 744 C 69.7127 1.7399 2.98029 0
M  V30 745 C 68.8257 3.01172 3.09708 0
M  V30 746 C 67.9607 2.99686 4.38591 0
M  V30 747 C 66.9997 4.21434 4.43914 0
M  V30 748 N 66.1367 4.1784 5.64229 0
M  V30 749 H 70.9767 2.60459 1.44793 0
M  V30 750 H 68.5137 1.29137 0.704423 0
M  V30 751 H 70.4717 1.76352 3.78095 0
M  V30 752 H 69.1017 0.834301 3.11832 0
M  V30 753 H 68.1537 3.08408 2.22685 0
M  V30 754 H 69.4657 3.91165 3.09502 0
M  V30 755 H 68.6197 3.00628 5.2698 0
M  V30 756 H 67.3587 2.07477 4.41367 0
M  V30 757 H 66.3637 4.20733 3.53926 0
M  V30 758 H 67.5887 5.14839 4.42851 0
M  V30 759 H 65.5347 3.28469 5.67841 0
M  V30 760 H 65.4517 5.01571 5.65652 0
M  V30 761 H 66.7197 4.22889 6.54817 0
M  V30 762 N 70.9488 -0.749086 1.3866 0
M  V30 763 C 71.8958 -1.86291 1.36251 0
M  V30 764 C 72.8658 -1.64578 0.224347 0
M  V30 765 O 74.0508 -1.86181 0.417279 0
M  V30 766 C 71.1908 -3.23644 1.19786 0
M  V30 767 C 70.3038 -3.57158 2.43027 0
M  V30 768 C 69.4388 -4.83838 2.19258 0
M  V30 769 C 68.4778 -5.10152 3.38247 0
M  V30 770 N 67.6148 -6.28029 3.13884 0
M  V30 771 H 72.4548 -1.87685 2.3147 0
M  V30 772 H 69.9918 -0.917287 1.14997 0
M  V30 773 H 71.9498 -4.0291 1.08254 0
M  V30 774 H 70.5798 -3.21566 0.282031 0
M  V30 775 H 69.6318 -2.72701 2.65214 0
M  V30 776 H 70.9438 -3.7253 3.31697 0
M  V30 777 H 70.0978 -5.71057 2.04888 0
M  V30 778 H 68.8368 -4.70614 1.2796 0
M  V30 779 H 67.8418 -4.21401 3.53131 0
M  V30 780 H 69.0668 -5.25271 4.30427 0
M  V30 781 H 67.0128 -6.1612 2.25238 0
M  V30 782 H 66.9298 -6.43922 3.96106 0
M  V30 783 H 68.1978 -7.18124 3.03179 0
M  V30 784 N 72.4269 -1.23603 -0.977757 0
M  V30 785 C 73.3569 -1.04401 -2.0886 0
M  V30 786 C 74.3379 0.0399052 -1.70053 0
M  V30 787 O 75.5229 -0.125246 -1.93796 0
M  V30 788 C 72.6529 -0.637269 -3.41403 0
M  V30 789 C 71.6069 -1.66883 -3.94124 0
M  V30 790 C 70.9329 -1.11745 -5.22893 0
M  V30 791 C 72.2329 -3.06247 -4.23096 0
M  V30 792 H 73.9269 -1.97316 -2.25182 0
M  V30 793 H 71.4729 -0.950096 -1.08209 0
M  V30 794 H 73.4259 -0.48998 -4.18542 0
M  V30 795 H 72.1499 0.327557 -3.24953 0
M  V30 796 H 70.8089 -1.80416 -3.19133 0
M  V30 797 H 70.4569 -0.143527 -5.02795 0
M  V30 798 H 70.1569 -1.80672 -5.59134 0
M  V30 799 H 71.6809 -0.982067 -6.02651 0
M  V30 800 H 73.0949 -2.96001 -4.90975 0
M  V30 801 H 71.4919 -3.72436 -4.70544 0
M  V30 802 H 72.5619 -3.55041 -3.30263 0
M  V30 803 N 73.905 1.17692 -1.04816 0
M  V30 804 C 75.13 1.92327 -0.776207 0
M  V30 805 C 75.555 1.76082 0.661581 0
M  V30 806 O 74.913 1.076 1.45917 0
M  V30 807 C 74.961 3.41539 -1.15687 0
M  V30 808 O 74.065 4.11402 -0.286775 0
M  V30 809 H 73.406 0.599735 -0.284981 0
M  V30 810 H 75.936 1.49201 -1.4 0
M  V30 811 H 75.946 3.92269 -1.12202 0
M  V30 812 H 74.621 3.52684 -2.20425 0
M  V30 813 H 73.198 3.70939 -0.381903 0
M  V30 814 N 75.3831 0.828654 1.34056 0
M  V30 815 C 76.3461 0.259927 2.27721 0
M  V30 816 C 77.3461 -0.565478 1.50529 0
M  V30 817 O 78.5361 -0.38075 1.69988 0
M  V30 818 C 75.6681 -0.634944 3.34935 0
M  V30 819 H 76.8611 1.0863 2.79534 0
M  V30 820 H 74.4141 0.600951 1.44285 0
M  V30 821 H 75.1491 -1.48416 2.88346 0
M  V30 822 H 74.9341 -0.0444999 3.92075 0
M  V30 823 H 76.4241 -1.02648 4.04788 0
M  V30 824 N 76.8612 -1.46375 0.584142 0
M  V30 825 C 78.2772 -1.57694 0.245929 0
M  V30 826 C 78.4772 -1.57903 -1.25175 0
M  V30 827 O 77.5332 -1.49676 -2.03355 0
M  V30 828 C 78.8462 -2.87028 0.896402 0
M  V30 829 C 80.3942 -3.00662 0.870127 0
M  V30 830 C 80.8692 -4.32734 1.50017 0
M  V30 831 N 82.3602 -4.39436 1.46458 0
M  V30 832 C 83.0952 -5.40248 1.92144 0
M  V30 833 N 82.5912 -6.47726 2.4581 0
M  V30 834 N 84.3842 -5.31459 1.83052 0
M  V30 835 H 76.5352 -1.44483 1.55687 0
M  V30 836 H 78.7982 -0.689291 0.650831 0
M  V30 837 H 78.5042 -2.9269 1.95002 0
M  V30 838 H 78.3782 -3.75014 0.405486 0
M  V30 839 H 80.7652 -2.94581 -0.174871 0
M  V30 840 H 80.8462 -2.14148 1.39908 0
M  V30 841 H 80.4902 -4.39573 2.54437 0
M  V30 842 H 80.4202 -5.18025 0.946432 0
M  V30 843 H 82.9112 -3.62367 1.07231 0
M  V30 844 H 83.2242 -7.20863 2.78525 0
M  V30 845 H 81.5692 -6.48542 2.49836 0
M  V30 846 H 84.7602 -4.46396 1.40883 0
M  V30 847 H 84.9332 -6.09881 2.18973 0
M  V30 848 N 78.3393 -0.321999 -1.54275 0
M  V30 849 C 79.6163 0.335232 -1.92706 0
M  V30 850 C 79.9963 1.70006 -1.25145 0
M  V30 851 O 79.3443 2.25067 -0.394596 0
M  V30 852 C 79.5543 0.429008 -3.46353 0
M  V30 853 C 80.9023 0.690029 -4.18956 0
M  V30 854 O 81.9263 0.511992 -3.52501 0
M  V30 855 O 80.7853 1.03338 -5.36641 0
M  V30 856 H 77.8793 0.191143 -0.804608 0
M  V30 857 H 80.4253 -0.3716 -1.65581 0
M  V30 858 H 79.1973 -0.529611 -3.87699 0
M  V30 859 H 78.8203 1.18348 -3.79578 0
M  V30 860 N 79.8174 1.5752 -0.0501392 0
M  V30 861 C 80.7674 2.07981 0.934231 0
M  V30 862 C 81.7514 0.984745 1.27246 0
M  V30 863 O 82.9434 1.24809 1.25506 0
M  V30 864 C 80.0724 2.62751 2.20945 0
M  V30 865 C 79.1584 3.79225 1.89865 0
M  V30 866 N 79.5494 4.89036 1.29142 0
M  V30 867 C 77.8474 3.88111 2.19741 0
M  V30 868 C 78.5484 5.70084 1.15669 0
M  V30 869 N 77.5244 5.17659 1.65923 0
M  V30 870 H 81.3264 2.90277 0.460053 0
M  V30 871 H 78.8404 1.61665 0.15434 0
M  V30 872 H 80.8374 2.97205 2.9236 0
M  V30 873 H 79.4974 1.81894 2.6897 0
M  V30 874 H 80.5084 5.08854 0.963756 0
M  V30 875 H 77.1854 3.18194 2.70293 0
M  V30 876 H 78.5754 6.68395 0.685356 0
M  V30 877 N 81.2955 -0.223234 1.56011 0
M  V30 878 C 82.2275 -1.30006 1.88762 0
M  V30 879 C 83.2405 -1.43129 0.775746 0
M  V30 880 O 84.4295 -1.44057 1.05403 0
M  V30 881 C 81.5295 -2.67589 2.07965 0
M  V30 882 C 80.7025 -2.76434 3.38973 0
M  V30 883 C 79.7615 -3.95019 3.47629 0
M  V30 884 O 78.7875 -3.83436 4.20672 0
M  V30 885 N 79.9895 -5.09249 2.78649 0
M  V30 886 H 82.7545 -1.02238 2.81722 0
M  V30 887 H 80.3155 -0.413278 1.56536 0
M  V30 888 H 82.3075 -3.45297 2.11073 0
M  V30 889 H 80.8775 -2.87964 1.21638 0
M  V30 890 H 80.0975 -1.85216 3.47978 0
M  V30 891 H 81.3855 -2.79313 4.25278 0
M  V30 892 H 80.7835 -5.21556 2.19081 0
M  V30 893 H 79.3405 -5.85007 2.8742 0
M  V30 894 N 82.7736 -1.49793 -0.48987 0
M  V30 895 C 83.7206 -1.67281 -1.59014 0
M  V30 896 C 84.6906 -0.514177 -1.57941 0
M  V30 897 O 85.8756 -0.742533 -1.75759 0
M  V30 898 C 83.0156 -1.75569 -2.97102 0
M  V30 899 C 82.1286 -3.0281 -3.08107 0
M  V30 900 C 81.2636 -3.02008 -4.36995 0
M  V30 901 C 80.3026 -4.23782 -4.41673 0
M  V30 902 N 79.4396 -4.20826 -5.62005 0
M  V30 903 H 84.2796 -2.61224 -1.43409 0
M  V30 904 H 81.8166 -1.29508 -0.697565 0
M  V30 905 H 83.7746 -1.78354 -3.77155 0
M  V30 906 H 82.4046 -0.850827 -3.11385 0
M  V30 907 H 81.4566 -3.09584 -2.21047 0
M  V30 908 H 82.7686 -3.92801 -3.07423 0
M  V30 909 H 81.9226 -3.03418 -5.25378 0
M  V30 910 H 80.6616 -2.09815 -4.4026 0
M  V30 911 H 79.6666 -4.22604 -3.5169 0
M  V30 912 H 80.8916 -5.17181 -4.40115 0
M  V30 913 H 78.8376 -3.31476 -5.66091 0
M  V30 914 H 78.7546 -5.04564 -5.62984 0
M  V30 915 H 80.0226 -4.26355 -6.52565 0
M  V30 916 N 84.2517 0.741722 -1.39055 0
M  V30 917 C 85.1817 1.869 -1.39966 0
M  V30 918 C 86.1627 1.6804 -0.26392 0
M  V30 919 O 87.3477 1.88458 -0.468755 0
M  V30 920 C 84.4777 3.24572 -1.23574 0
M  V30 921 C 83.4317 3.58056 -2.34477 0
M  V30 922 C 82.7577 4.94593 -2.0318 0
M  V30 923 C 84.0577 3.61716 -3.76774 0
M  V30 924 H 85.7517 1.86395 -2.34302 0
M  V30 925 H 83.2977 0.895361 -1.1278 0
M  V30 926 H 85.2507 4.031 -1.22834 0
M  V30 927 H 83.9747 3.25587 -0.257045 0
M  V30 928 H 82.6337 2.81854 -2.34423 0
M  V30 929 H 82.2817 4.92181 -1.03765 0
M  V30 930 H 81.9817 5.17964 -2.77465 0
M  V30 931 H 83.5057 5.75486 -2.04079 0
M  V30 932 H 84.9197 4.30335 -3.78794 0
M  V30 933 H 83.3167 3.96603 -4.50362 0
M  V30 934 H 84.3867 2.61672 -4.08235 0
M  V30 935 N 85.7298 1.2412 0.971189 0
M  V30 936 C 86.6398 1.04747 2.09917 0
M  V30 937 C 87.6558 -0.0107162 1.73997 0
M  V30 938 O 88.8318 0.186714 2.00533 0
M  V30 939 C 85.8968 0.650828 3.40537 0
M  V30 940 C 84.9578 1.7851 3.90426 0
M  V30 941 C 84.1908 1.40729 5.14812 0
M  V30 942 O 84.4138 0.29557 5.69634 0
M  V30 943 O 83.3478 2.23168 5.58999 0
M  V30 944 H 87.1738 1.99304 2.29154 0
M  V30 945 H 84.7588 1.02908 1.08307 0
M  V30 946 H 86.6408 0.440992 4.19086 0
M  V30 947 H 85.3158 -0.265649 3.22608 0
M  V30 948 H 84.2228 2.04966 3.12953 0
M  V30 949 H 85.5558 2.68023 4.12825 0
M  V30 950 N 87.2079 -1.17134 1.05439 0
M  V30 951 C 88.6239 -1.39454 0.776201 0
M  V30 952 C 88.8239 -1.91454 -0.628307 0
M  V30 953 O 87.8799 -2.10777 -1.39031 0
M  V30 954 C 89.1929 -2.38305 1.83388 0
M  V30 955 C 90.7409 -2.52006 1.85639 0
M  V30 956 C 91.2159 -3.54133 2.90437 0
M  V30 957 N 92.7069 -3.61653 2.89415 0
M  V30 958 C 93.4419 -4.4044 3.67152 0
M  V30 959 N 92.9379 -5.22721 4.54681 0
M  V30 960 N 94.7309 -4.35337 3.55581 0
M  V30 961 H 86.8819 -0.817134 1.96053 0
M  V30 962 H 89.1449 -0.421626 0.849079 0
M  V30 963 H 88.8509 -2.07173 2.84204 0
M  V30 964 H 88.7249 -3.37841 1.67761 0
M  V30 965 H 91.1119 -2.82447 0.85486 0
M  V30 966 H 91.1929 -1.52537 2.05344 0
M  V30 967 H 90.8369 -3.24431 3.90777 0
M  V30 968 H 90.7669 -4.53313 2.67983 0
M  V30 969 H 93.2579 -3.02909 2.25952 0
M  V30 970 H 93.5709 -5.80027 5.10674 0
M  V30 971 H 91.9159 -5.22093 4.58741 0
M  V30 972 H 95.1069 -3.70112 2.86592 0
M  V30 973 H 95.2799 -4.96494 4.1641 0
M  V30 974 N 88.686 -0.835752 -1.33615 0
M  V30 975 C 89.596 -0.269088 -2.33052 0
M  V30 976 C 90.612 0.603251 -1.63208 0
M  V30 977 O 91.788 0.508112 -1.94885 0
M  V30 978 C 88.853 0.549091 -3.42324 0
M  V30 979 C 87.914 -0.347156 -4.27894 0
M  V30 980 C 87.147 0.43207 -5.31948 0
M  V30 981 O 87.37 1.66409 -5.45586 0
M  V30 982 O 86.304 -0.192298 -6.01593 0
M  V30 983 H 90.13 -1.09243 -2.83372 0
M  V30 984 H 87.715 -0.598198 -1.36901 0
M  V30 985 H 89.597 1.01414 -4.09015 0
M  V30 986 H 88.272 1.34955 -2.94226 0
M  V30 987 H 87.179 -0.859979 -3.64081 0
M  V30 988 H 88.512 -1.1123 -4.79467 0
M  V30 989 N 90.1641 1.46063 -0.591896 0
M  V30 990 C 91.1271 2.28854 0.125973 0
M  V30 991 C 92.1271 1.38903 0.810107 0
M  V30 992 O 93.3171 1.61186 0.66066 0
M  V30 993 C 90.4491 3.19526 1.1881 0
M  V30 994 H 91.6421 2.93802 -0.601717 0
M  V30 995 H 89.1951 1.52325 -0.350254 0
M  V30 996 H 89.9301 2.59345 1.94707 0
M  V30 997 H 89.7151 3.85766 0.701936 0
M  V30 998 H 91.2051 3.81817 1.69132 0
M  V30 999 N 91.6422 0.330177 1.54103 0
M  V30 1000 C 93.0582 -0.0222371 1.59585 0
M  V30 1001 C 93.2582 -1.49902 1.34654 0
M  V30 1002 O 92.3142 -2.25592 1.13421 0
M  V30 1003 C 93.6272 0.401932 2.98002 0
M  V30 1004 C 95.1752 0.353145 3.11001 0
M  V30 1005 C 95.6502 0.752576 4.51775 0
M  V30 1006 N 97.1412 0.706239 4.57784 0
M  V30 1007 C 97.8762 0.987417 5.64834 0
M  V30 1008 N 97.3722 1.33607 6.79795 0
M  V30 1009 N 99.1652 0.91254 5.54643 0
M  V30 1010 H 91.3162 1.29228 1.68564 0
M  V30 1011 H 93.5792 0.525906 0.78875 0
M  V30 1012 H 93.2852 1.4311 3.21267 0
M  V30 1013 H 93.1592 -0.229699 3.765 0
M  V30 1014 H 95.5462 -0.666822 2.87467 0
M  V30 1015 H 95.6272 1.0198 2.34593 0
M  V30 1016 H 95.2712 1.77049 4.76042 0
M  V30 1017 H 95.2012 0.0635409 5.26562 0
M  V30 1018 H 97.6922 0.44889 3.75224 0
M  V30 1019 H 98.0052 1.53582 7.57385 0
M  V30 1020 H 96.3502 1.37439 6.81275 0
M  V30 1021 H 99.5412 0.639601 4.6371 0
M  V30 1022 H 99.7142 1.13503 6.37982 0
M  V30 1023 N 93.1203 -1.57491 0.0584922 0
M  V30 1024 C 94.3693 -1.92155 -0.613146 0
M  V30 1025 C 94.6823 -0.939334 -1.71569 0
M  V30 1026 O 95.8883 -1.17829 -2.44599 0
M  V30 1027 C 94.3443 -3.41303 -1.14195 0
M  V30 1028 C 93.9523 -4.47944 -0.0711265 0
M  V30 1029 C 95.6963 -3.84988 -1.78841 0
M  V30 1030 C 93.6033 -5.88212 -0.613225 0
M  V30 1031 H 92.5333 -0.717162 -0.232796 0
M  V30 1032 H 95.1843 -1.83049 0.12857 0
M  V30 1033 H 93.5663 -3.45437 -1.93621 0
M  V30 1034 H 94.7403 -4.55408 0.702836 0
M  V30 1035 H 93.0553 -4.13644 0.478313 0
M  V30 1036 H 95.6523 -4.87159 -2.20408 0
M  V30 1037 H 95.9953 -3.21632 -2.64308 0
M  V30 1038 H 96.5283 -3.83401 -1.06059 0
M  V30 1039 H 93.2673 -6.55183 0.203978 0
M  V30 1040 H 92.7873 -5.84294 -1.35501 0
M  V30 1041 H 94.4663 -6.37687 -1.09383 0
M  V30 1042 N 94.5984 0.214957 -1.56127 0
M  V30 1043 C 95.8384 0.945364 -1.81224 0
M  V30 1044 C 96.2024 1.81265 -0.633005 0
M  V30 1045 O 97.4034 2.57731 -0.763423 0
M  V30 1046 C 95.6744 1.75665 -3.1125 0
M  V30 1047 S 97.2334 2.54179 -3.57685 0
M  V30 1048 H 94.0514 0.317443 -0.6362 0
M  V30 1049 H 96.6534 0.210381 -1.94365 0
M  V30 1050 H 95.3574 1.10977 -3.9511 0
M  V30 1051 H 94.8884 2.53381 -3.00934 0
M  V30 1052 H 96.9034 3.7792 -3.21545 0
M  V30 1053 N 96.0765 1.50051 0.48192 0
M  V30 1054 C 97.4925 1.37237 0.814756 0
M  V30 1055 C 97.6925 0.420109 1.97072 0
M  V30 1056 O 96.7485 -0.141246 2.52105 0
M  V30 1057 C 98.0615 2.78375 1.13701 0
M  V30 1058 C 99.6095 2.87213 1.2441 0
M  V30 1059 C 100.084 4.29161 1.59954 0
M  V30 1060 N 101.575 4.32061 1.66967 0
M  V30 1061 C 102.31 5.38879 1.95952 0
M  V30 1062 N 101.806 6.55918 2.23031 0
M  V30 1063 N 103.599 5.26312 1.97363 0
M  V30 1064 H 95.7505 2.10546 -0.28005 0
M  V30 1065 H 98.0135 0.945921 -0.0627454 0
M  V30 1066 H 97.7195 3.49845 0.360787 0
M  V30 1067 H 97.5935 3.14941 2.07586 0
M  V30 1068 H 99.9805 2.15969 2.01101 0
M  V30 1069 H 100.061 2.54204 0.285299 0
M  V30 1070 H 99.7055 5.00938 0.838067 0
M  V30 1071 H 99.6355 4.59648 2.56966 0
M  V30 1072 H 102.126 3.47661 1.48123 0
M  V30 1073 H 102.439 7.33139 2.44391 0
M  V30 1074 H 100.784 6.59112 2.20447 0
M  V30 1075 H 103.975 4.33876 1.75697 0
M  V30 1076 H 104.148 6.09649 2.19618 0
M  V30 1077 N 97.5546 -0.734337 1.39446 0
M  V30 1078 C 98.4846 -1.86155 1.40955 0
M  V30 1079 C 99.4656 -1.67898 0.272827 0
M  V30 1080 O 100.651 -1.88207 0.478743 0
M  V30 1081 C 97.7806 -3.23912 1.25294 0
M  V30 1082 C 96.7346 -3.56808 2.36373 0
M  V30 1083 C 96.0606 -4.93508 2.058 0
M  V30 1084 C 97.3606 -3.59713 3.78687 0
M  V30 1085 H 99.0546 -1.8515 2.35287 0
M  V30 1086 H 96.6006 -0.889367 1.13253 0
M  V30 1087 H 98.5536 -4.02443 1.2497 0
M  V30 1088 H 97.2776 -3.25446 0.274308 0
M  V30 1089 H 95.9366 -2.80606 2.35914 0
M  V30 1090 H 95.5846 -4.91623 1.06374 0
M  V30 1091 H 95.2846 -5.16486 2.80208 0
M  V30 1092 H 96.8086 -5.74396 2.07128 0
M  V30 1093 H 98.2226 -4.2832 3.81071 0
M  V30 1094 H 96.6196 -3.94209 4.52459 0
M  V30 1095 H 97.6896 -2.59504 4.09617 0
M  V30 1096 N 99.0327 -1.24633 -0.964593 0
M  V30 1097 C 99.9627 -1.06611 -2.07741 0
M  V30 1098 C 100.944 0.0218666 -1.70086 0
M  V30 1099 O 102.129 -0.145793 -1.93652 0
M  V30 1100 C 99.2587 -0.673444 -3.40708 0
M  V30 1101 C 98.2127 -1.71054 -3.92332 0
M  V30 1102 C 97.5387 -1.17285 -5.21678 0
M  V30 1103 C 98.8387 -3.10718 -4.19824 0
M  V30 1104 H 100.533 -1.99693 -2.23076 0
M  V30 1105 H 98.0787 -0.96152 -1.07195 0
M  V30 1106 H 100.032 -0.534345 -4.17998 0
M  V30 1107 H 98.7557 0.293073 -3.25282 0
M  V30 1108 H 97.4147 -1.83791 -3.17201 0
M  V30 1109 H 97.0627 -0.196847 -5.02615 0
M  V30 1110 H 96.7627 -1.86592 -5.57187 0
M  V30 1111 H 98.2867 -1.04593 -6.01575 0
M  V30 1112 H 99.7007 -3.01192 -4.87808 0
M  V30 1113 H 98.0977 -3.77406 -4.66567 0
M  V30 1114 H 99.1677 -3.58524 -3.26479 0
M  V30 1115 N 100.511 1.16574 -1.06058 0
M  V30 1116 C 101.458 2.20883 -0.669263 0
M  V30 1117 C 102.428 1.62729 0.332918 0
M  V30 1118 O 103.613 1.895 0.222346 0
M  V30 1119 C 100.753 3.45049 -0.0593572 0
M  V30 1120 C 99.8658 4.17458 -1.11143 0
M  V30 1121 C 99.0008 5.29135 -0.467916 0
M  V30 1122 C 98.0398 5.93343 -1.50369 0
M  V30 1123 N 97.1768 6.96516 -0.883706 0
M  V30 1124 H 102.017 2.53709 -1.5632 0
M  V30 1125 H 99.5538 1.24616 -0.781625 0
M  V30 1126 H 101.512 4.16033 0.311771 0
M  V30 1127 H 100.142 3.12781 0.797992 0
M  V30 1128 H 99.1938 3.45101 -1.60029 0
M  V30 1129 H 100.506 4.61307 -1.89731 0
M  V30 1130 H 99.6598 6.06684 -0.0436871 0
M  V30 1131 H 98.3988 4.86443 0.349864 0
M  V30 1132 H 97.4038 5.14517 -1.93784 0
M  V30 1133 H 98.6288 6.38114 -2.32352 0
M  V30 1134 H 96.5748 6.55943 -0.086595 0
M  V30 1135 H 96.4918 7.38723 -1.607 0
M  V30 1136 H 97.7598 7.77993 -0.484543 0
M  V30 1137 N 101.989 0.842826 1.3317 0
M  V30 1138 C 102.939 0.250877 2.26616 0
M  V30 1139 C 103.923 -0.596427 1.49437 0
M  V30 1140 O 105.115 -0.447747 1.71243 0
M  V30 1141 C 102.244 -0.569779 3.38539 0
M  V30 1142 C 101.33 0.289254 4.23112 0
M  V30 1143 N 101.721 1.36987 4.86897 0
M  V30 1144 C 100.019 0.0769631 4.45934 0
M  V30 1145 C 100.72 1.89737 5.49886 0
M  V30 1146 N 99.6959 1.19827 5.30229 0
M  V30 1147 H 103.498 1.07718 2.73448 0
M  V30 1148 H 101.012 0.687693 1.47121 0
M  V30 1149 H 103.009 -1.01018 4.04476 0
M  V30 1150 H 101.669 -1.39401 2.93253 0
M  V30 1151 H 102.68 1.75277 4.87338 0
M  V30 1152 H 99.3569 -0.713507 4.11358 0
M  V30 1153 H 100.747 2.80253 6.10662 0
M  V30 1154 N 103.467 -1.45747 0.599634 0
M  V30 1155 C 104.878 -1.85853 0.177681 0
M  V30 1156 C 105.229 -1.50102 -1.26348 0
M  V30 1157 O 104.354 -0.923905 -1.95686 0
M  V30 1158 C 104.949 -3.37326 0.315688 0
M  V30 1159 C 103.508 -3.76365 -0.0515144 0
M  V30 1160 C 102.655 -2.69722 0.643822 0
M  V30 1161 H 105.606 -1.36661 0.806814 0
M  V30 1162 H 105.627 -3.77778 -0.454321 0
M  V30 1163 H 105.139 -3.63315 1.36468 0
M  V30 1164 H 103.24 -3.55993 -1.09999 0
M  V30 1165 H 103.353 -4.77916 0.336594 0
M  V30 1166 H 101.717 -2.54567 0.0822881 0
M  V30 1167 H 102.5 -2.98549 1.6948 0
M  V30 1168 N 104.945 -0.338344 -1.53925 0
M  V30 1169 C 105.893 0.536231 -2.26335 0
M  V30 1170 C 106.887 1.1063 -1.28286 0
M  V30 1171 O 108.093 1.05264 -1.46012 0
M  V30 1172 H 104.468 0.191602 -0.727181 0
M  V30 1173 H 106.439 -0.0965747 -2.98244 0
M  V30 1174 C 105.188 1.67803 -3.04528 0
M  V30 1175 H 104.511 1.24864 -3.79801 0
M  V30 1176 H 105.951 2.26526 -3.58416 0
M  V30 1177 C 104.41 2.60439 -2.13712 0
M  V30 1178 O 104.94 3.6255 -1.72975 0
M  V30 1179 N 103.146 2.29006 -1.78898 0
M  V30 1180 H 102.693 1.46011 -2.12223 0
M  V30 1181 H 102.651 2.91248 -1.18416 0
M  V30 1182 N 106.423 1.57458 -0.0668435 0
M  V30 1183 C 107.672 1.92477 0.602947 0
M  V30 1184 C 107.985 0.948419 1.71068 0
M  V30 1185 O 109.191 1.19124 2.43971 0
M  V30 1186 C 107.647 3.41903 1.12383 0
M  V30 1187 C 107.255 4.47975 0.04737 0
M  V30 1188 C 108.999 3.85931 1.76797 0
M  V30 1189 C 106.906 5.88529 0.582022 0
M  V30 1190 H 105.836 0.718387 0.22899 0
M  V30 1191 H 108.487 1.82978 -0.138276 0
M  V30 1192 H 106.869 3.46459 1.91787 0
M  V30 1193 H 108.043 4.55029 -0.726978 0
M  V30 1194 H 106.358 4.13384 -0.500243 0
M  V30 1195 H 108.955 4.88322 2.17821 0
M  V30 1196 H 109.298 3.23029 2.62599 0
M  V30 1197 H 109.831 3.83958 1.04024 0
M  V30 1198 H 106.57 6.55065 -0.238721 0
M  V30 1199 H 106.09 5.85004 1.324 0
M  V30 1200 H 107.769 6.38258 1.05999 0
M  V30 1201 N 107.901 -0.206675 1.56239 0
M  V30 1202 C 109.147 -0.930218 1.80208 0
M  V30 1203 C 109.48 -1.83387 0.638981 0
M  V30 1204 O 108.755 -1.91119 -0.361066 0
M  V30 1205 C 109.038 -1.75641 3.1436 0
M  V30 1206 C 108.891 -0.878257 4.41142 0
M  V30 1207 C 110.21 -2.73129 3.45092 0
M  V30 1208 H 107.329 -0.336742 0.655571 0
M  V30 1209 H 109.971 -0.198222 1.88963 0
M  V30 1210 H 108.121 -2.38048 3.07027 0
M  V30 1211 H 109.793 -0.269787 4.6051 0
M  V30 1212 H 108.036 -0.184385 4.33408 0
M  V30 1213 H 108.707 -1.49106 5.3148 0
M  V30 1214 H 111.183 -2.20856 3.52649 0
M  V30 1215 H 110.059 -3.28028 4.40101 0
M  V30 1216 H 110.32 -3.51606 2.68003 0
M  V30 1217 N 109.379 -1.50304 -0.473955 0
M  V30 1218 C 110.795 -1.37667 -0.807466 0
M  V30 1219 C 110.995 -0.430555 -1.96846 0
M  V30 1220 O 110.051 0.127874 -2.52176 0
M  V30 1221 C 111.364 -2.78974 -1.12223 0
M  V30 1222 C 112.912 -2.87868 -1.22885 0
M  V30 1223 C 113.387 -4.30003 -1.57676 0
M  V30 1224 N 114.878 -4.3294 -1.64673 0
M  V30 1225 C 115.613 -5.3991 -1.93091 0
M  V30 1226 N 115.109 -6.57092 -2.1955 0
M  V30 1227 N 116.902 -5.27351 -1.94569 0
M  V30 1228 H 109.053 -2.10394 0.291212 0
M  V30 1229 H 111.316 -0.945575 0.0677609 0
M  V30 1230 H 111.022 -3.50031 -0.342229 0
M  V30 1231 H 110.896 -3.16038 -2.05913 0
M  V30 1232 H 113.283 -2.17032 -1.99953 0
M  V30 1233 H 113.364 -2.54352 -0.271814 0
M  V30 1234 H 113.008 -5.01375 -0.81149 0
M  V30 1235 H 112.938 -4.61004 -2.54525 0
M  V30 1236 H 115.429 -3.48441 -1.46277 0
M  V30 1237 H 115.742 -7.34425 -2.405 0
M  V30 1238 H 114.087 -6.60272 -2.16948 0
M  V30 1239 H 117.278 -4.34801 -1.73394 0
M  V30 1240 H 117.451 -6.10805 -2.16381 0
M  V30 1241 N 110.857 0.726932 -1.39834 0
M  V30 1242 C 111.787 1.85405 -1.41941 0
M  V30 1243 C 112.768 1.67751 -0.281728 0
M  V30 1244 O 113.953 1.8795 -0.488717 0
M  V30 1245 C 111.083 3.23243 -1.2701 0
M  V30 1246 C 110.037 3.55549 -2.38262 0
M  V30 1247 C 109.363 4.9241 -2.08415 0
M  V30 1248 C 110.663 3.577 -3.80589 0
M  V30 1249 H 112.357 1.83899 -2.36266 0
M  V30 1250 H 109.903 0.883349 -1.13723 0
M  V30 1251 H 111.856 4.01775 -1.27103 0
M  V30 1252 H 110.58 3.25296 -0.291564 0
M  V30 1253 H 109.239 2.79351 -2.37399 0
M  V30 1254 H 108.887 4.91052 -1.0898 0
M  V30 1255 H 108.587 5.14992 -2.82943 0
M  V30 1256 H 110.111 5.73289 -2.10171 0
M  V30 1257 H 111.525 4.26293 -3.83337 0
M  V30 1258 H 109.922 3.91804 -4.54543 0
M  V30 1259 H 110.992 2.57328 -4.10987 0
M  V30 1260 N 112.336 1.25143 0.95797 0
M  V30 1261 C 113.286 1.01924 2.0395 0
M  V30 1262 C 114.27 -0.0427175 1.60843 0
M  V30 1263 O 115.462 0.17221 1.7616 0
M  V30 1264 C 112.591 0.636373 3.3735 0
M  V30 1265 C 111.677 1.73492 3.8699 0
M  V30 1266 N 112.068 2.96945 4.0946 0
M  V30 1267 C 110.366 1.61467 4.15746 0
M  V30 1268 C 111.067 3.68228 4.50315 0
M  V30 1269 N 110.043 2.95833 4.56053 0
M  V30 1270 H 113.845 1.95653 2.19311 0
M  V30 1271 H 111.359 1.15413 1.14253 0
M  V30 1272 H 113.356 0.451233 4.14451 0
M  V30 1273 H 112.016 -0.293621 3.2337 0
M  V30 1274 H 113.027 3.33025 3.96629 0
M  V30 1275 H 109.704 0.753394 4.10646 0
M  V30 1276 H 111.094 4.74178 4.76031 0
M  V30 1277 N 113.814 -1.1601 1.06675 0
M  V30 1278 C 115.091 -1.82679 0.699114 0
M  V30 1279 C 115.471 -1.94559 -0.819137 0
M  V30 1280 O 114.819 -1.49169 -1.73092 0
M  V30 1281 C 115.029 -3.19445 1.40555 0
M  V30 1282 C 116.377 -3.95171 1.55323 0
M  V30 1283 O 117.401 -3.28976 1.36577 0
M  V30 1284 O 116.26 -5.13833 1.86112 0
M  V30 1285 H 113.354 -0.788954 0.247951 0
M  V30 1286 H 115.9 -1.23179 1.16726 0
M  V30 1287 H 114.672 -3.05856 2.44065 0
M  V30 1288 H 114.295 -3.86625 0.927733 0
M  V30 1289 N 115.292 -0.849877 -1.32721 0
M  V30 1290 C 116.517 -0.463856 -2.02146 0
M  V30 1291 C 116.942 0.930449 -1.63476 0
M  V30 1292 O 116.3 1.61033 -0.832952 0
M  V30 1293 C 116.348 -0.604955 -3.55489 0
M  V30 1294 O 115.452 0.36425 -4.10788 0
M  V30 1295 H 114.793 -0.187046 -0.637111 0
M  V30 1296 H 117.323 -1.14775 -1.69375 0
M  V30 1297 H 117.333 -0.490696 -4.05038 0
M  V30 1298 H 116.008 -1.62174 -3.82978 0
M  V30 1299 H 114.585 0.206628 -3.72327 0
M  V30 1300 N 116.77 1.45427 -0.607355 0
M  V30 1301 C 118.019 2.01452 -0.100036 0
M  V30 1302 C 118.332 1.48159 1.27704 0
M  V30 1303 O 119.538 1.96159 1.87707 0
M  V30 1304 C 117.994 3.59672 -0.128158 0
M  V30 1305 C 117.602 4.21962 -1.50507 0
M  V30 1306 C 119.346 4.23262 0.323932 0
M  V30 1307 C 117.253 5.72333 -1.48959 0
M  V30 1308 H 116.183 0.75325 -0.0336299 0
M  V30 1309 H 118.834 1.66901 -0.76265 0
M  V30 1310 H 117.216 3.91411 0.601105 0
M  V30 1311 H 118.39 4.01796 -2.25602 0
M  V30 1312 H 116.705 3.70565 -1.89923 0
M  V30 1313 H 119.302 5.33522 0.354691 0
M  V30 1314 H 119.645 3.93921 1.34656 0
M  V30 1315 H 120.178 3.96239 -0.352056 0
M  V30 1316 H 116.917 6.06373 -2.48981 0
M  V30 1317 H 116.437 5.94691 -0.781214 0
M  V30 1318 H 118.116 6.35525 -1.21313 0
M  V30 1319 N 118.248 0.346503 1.53744 0
M  V30 1320 C 119.473 -0.253074 2.0585 0
M  V30 1321 C 119.898 -1.43202 1.21962 0
M  V30 1322 O 119.256 -1.79783 0.234073 0
M  V30 1323 C 119.304 -0.643193 3.54817 0
M  V30 1324 O 118.408 -1.74286 3.73762 0
M  V30 1325 H 117.749 -0.0413583 0.662711 0
M  V30 1326 H 120.279 0.501574 1.98357 0
M  V30 1327 H 120.289 -0.919526 3.97503 0
M  V30 1328 H 118.964 0.218966 4.15323 0
M  V30 1329 H 117.541 -1.46356 3.42979 0
M  V30 1330 N 119.726 -1.57421 0.075193 0
M  V30 1331 C 120.636 -2.1642 -0.905511 0
M  V30 1332 C 121.652 -1.12828 -1.32461 0
M  V30 1333 O 122.828 -1.45109 -1.39661 0
M  V30 1334 C 119.893 -2.71693 -2.15369 0
M  V30 1335 C 118.954 -3.90171 -1.79068 0
M  V30 1336 C 118.187 -4.42798 -2.97936 0
M  V30 1337 O 118.41 -3.94416 -4.12058 0
M  V30 1338 O 117.344 -5.34085 -2.77555 0
M  V30 1339 H 121.17 -3.00588 -0.433626 0
M  V30 1340 H 118.755 -1.48664 -0.148067 0
M  V30 1341 H 120.637 -3.07104 -2.88557 0
M  V30 1342 H 119.312 -1.90582 -2.61649 0
M  V30 1343 H 118.219 -3.59606 -1.03122 0
M  V30 1344 H 119.552 -4.72584 -1.37569 0
M  V30 1345 N 121.204 0.198386 -1.56346 0
M  V30 1346 C 122.114 1.2664 -1.97483 0
M  V30 1347 C 123.13 1.49989 -0.882002 0
M  V30 1348 O 124.306 1.62668 -1.18748 0
M  V30 1349 C 121.371 2.59141 -2.30319 0
M  V30 1350 C 120.432 2.43892 -3.53292 0
M  V30 1351 C 119.665 3.70074 -3.84553 0
M  V30 1352 O 119.888 4.74101 -3.1715 0
M  V30 1353 O 118.822 3.658 -4.7799 0
M  V30 1354 H 122.648 0.947304 -2.88548 0
M  V30 1355 H 120.233 0.403123 -1.43859 0
M  V30 1356 H 122.115 3.37352 -2.5253 0
M  V30 1357 H 120.79 2.90684 -1.42423 0
M  V30 1358 H 119.697 1.63803 -3.36332 0
M  V30 1359 H 121.03 2.17282 -4.41644 0
M  V30 1360 N 122.682 1.50554 0.465978 0
M  V30 1361 C 123.93 1.61479 1.21528 0
M  V30 1362 C 124.251 0.319596 1.92363 0
M  V30 1363 O 123.521 -0.663194 1.84333 0
M  V30 1364 H 122.101 0.595055 0.451573 0
M  V30 1365 H 124.763 1.87355 0.53704 0
M  V30 1366 H 123.859 2.42846 1.96042 0
M  V30 1367 N 124.16 -0.719506 1.40217 0
M  V30 1368 C 125.407 -1.47933 1.38283 0
M  V30 1369 C 125.735 -1.94493 -0.0161536 0
M  V30 1370 O 124.99 -1.68224 -0.999956 0
M  V30 1371 C 125.289 -2.72271 2.31524 0
M  V30 1372 C 124.955 -2.44496 3.78857 0
M  V30 1373 C 123.617 -2.36631 4.18998 0
M  V30 1374 C 125.969 -2.21104 4.71977 0
M  V30 1375 C 123.297 -2.03437 5.503 0
M  V30 1376 C 125.649 -1.89423 6.03574 0
M  V30 1377 C 124.313 -1.80038 6.42762 0
M  V30 1378 H 123.583 -0.541325 0.506012 0
M  V30 1379 H 126.23 -0.824502 1.72842 0
M  V30 1380 H 124.535 -3.42572 1.90137 0
M  V30 1381 H 126.232 -3.30348 2.27313 0
M  V30 1382 H 122.822 -2.51503 3.47051 0
M  V30 1383 H 127.006 -2.26139 4.41786 0
M  V30 1384 H 122.262 -1.94705 5.79569 0
M  V30 1385 H 126.436 -1.70336 6.75247 0
M  V30 1386 H 124.063 -1.54083 7.44421 0
M  V30 1387 N 125.638 -1.25649 -0.95132 0
M  V30 1388 C 126.588 -1.03004 -2.03406 0
M  V30 1389 C 127.572 0.034187 -1.60864 0
M  V30 1390 O 128.764 -0.181549 -1.76066 0
M  V30 1391 C 125.893 -0.654255 -3.37008 0
M  V30 1392 C 124.979 -1.75542 -3.86065 0
M  V30 1393 N 125.37 -2.99113 -4.07879 0
M  V30 1394 C 123.668 -1.63669 -4.14884 0
M  V30 1395 C 124.369 -3.70611 -4.48356 0
M  V30 1396 N 123.345 -2.98247 -4.54477 0
M  V30 1397 H 127.147 -1.96813 -2.1827 0
M  V30 1398 H 124.661 -1.16017 -1.13639 0
M  V30 1399 H 126.658 -0.473206 -4.14206 0
M  V30 1400 H 125.318 0.276468 -3.23521 0
M  V30 1401 H 126.329 -3.35124 -3.94857 0
M  V30 1402 H 123.006 -0.775161 -4.10241 0
M  V30 1403 H 124.396 -4.76695 -4.73509 0
M  V30 1404 N 127.117 1.15442 -1.07289 0
M  V30 1405 C 128.347 1.89821 -0.815576 0
M  V30 1406 C 128.755 1.7823 0.634867 0
M  V30 1407 O 128.098 1.13152 1.44715 0
M  V30 1408 C 128.16 3.40817 -1.14385 0
M  V30 1409 C 127.824 3.76193 -2.59476 0
M  V30 1410 C 128.821 3.77269 -3.57721 0
M  V30 1411 C 126.506 4.0652 -2.95037 0
M  V30 1412 C 128.5 4.08176 -4.89562 0
M  V30 1413 C 126.187 4.37092 -4.27076 0
M  V30 1414 C 127.185 4.37902 -5.24148 0
M  V30 1415 O 126.873 4.67741 -6.53815 0
M  V30 1416 H 126.605 0.608465 -0.294528 0
M  V30 1417 H 129.159 1.472 -1.43252 0
M  V30 1418 H 127.389 3.83835 -0.469865 0
M  V30 1419 H 129.078 3.96485 -0.869179 0
M  V30 1420 H 129.844 3.5394 -3.3159 0
M  V30 1421 H 125.723 4.05049 -2.20128 0
M  V30 1422 H 129.267 4.08723 -5.65324 0
M  V30 1423 H 125.164 4.59889 -4.5296 0
M  V30 1424 H 125.932 4.85509 -6.58957 0
M  V30 1425 N 128.595 0.856903 1.32268 0
M  V30 1426 C 129.525 0.31858 2.31316 0
M  V30 1427 C 130.506 -0.583487 1.59779 0
M  V30 1428 O 131.691 -0.503259 1.87566 0
M  V30 1429 C 128.821 -0.491979 3.43798 0
M  V30 1430 C 127.775 0.315849 4.26833 0
M  V30 1431 C 127.101 -0.619586 5.31098 0
M  V30 1432 C 128.401 1.54282 4.98993 0
M  V30 1433 H 130.095 1.14621 2.76591 0
M  V30 1434 H 127.641 0.552613 1.32974 0
M  V30 1435 H 129.594 -0.879012 4.1213 0
M  V30 1436 H 128.318 -1.35299 2.97257 0
M  V30 1437 H 126.977 0.684664 3.6015 0
M  V30 1438 H 126.625 -1.47751 4.8081 0
M  V30 1439 H 126.325 -0.0830621 5.87541 0
M  V30 1440 H 127.849 -1.00375 6.02293 0
M  V30 1441 H 129.263 1.22796 5.59995 0
M  V30 1442 H 127.66 2.01745 5.65172 0
M  V30 1443 H 128.73 2.30285 4.26728 0
M  V30 1444 N 130.073 -1.45103 0.615059 0
M  V30 1445 C 131.319 -2.02483 0.113347 0
M  V30 1446 C 131.652 -1.48146 -1.25564 0
M  V30 1447 O 130.927 -0.659104 -1.82992 0
M  V30 1448 C 131.21 -3.60005 0.0825278 0
M  V30 1449 C 131.063 -4.2466 1.48271 0
M  V30 1450 C 132.382 -4.35972 -0.601401 0
M  V30 1451 H 129.501 -0.735764 0.0426632 0
M  V30 1452 H 132.143 -1.72868 0.788461 0
M  V30 1453 H 130.293 -3.85367 -0.492378 0
M  V30 1454 H 131.965 -4.10458 2.10527 0
M  V30 1455 H 130.208 -3.82772 2.04127 0
M  V30 1456 H 130.879 -5.336 1.41332 0
M  V30 1457 H 133.355 -4.15947 -0.112666 0
M  V30 1458 H 132.231 -5.45697 -0.592097 0
M  V30 1459 H 132.492 -4.09391 -1.66887 0
M  V30 1460 N 131.551 -0.354651 -1.53558 0
M  V30 1461 C 132.798 0.238443 -2.01091 0
M  V30 1462 C 133.126 1.49663 -1.24222 0
M  V30 1463 O 132.381 1.93049 -0.321003 0
M  V30 1464 C 132.68 0.587121 -3.52545 0
M  V30 1465 C 132.346 -0.575472 -4.47213 0
M  V30 1466 C 131.008 -0.894497 -4.72813 0
M  V30 1467 C 133.36 -1.35489 -5.03281 0
M  V30 1468 C 130.688 -1.99511 -5.51736 0
M  V30 1469 C 133.04 -2.44583 -5.83405 0
M  V30 1470 C 131.704 -2.77033 -6.07296 0
M  V30 1471 H 130.974 0.0872526 -0.735845 0
M  V30 1472 H 133.621 -0.484859 -1.8526 0
M  V30 1473 H 131.926 1.39129 -3.66265 0
M  V30 1474 H 133.623 1.05809 -3.86789 0
M  V30 1475 H 130.213 -0.316774 -4.27428 0
M  V30 1476 H 134.397 -1.12167 -4.83459 0
M  V30 1477 H 129.653 -2.25063 -5.68469 0
M  V30 1478 H 133.827 -3.05401 -6.25862 0
M  V30 1479 H 131.454 -3.6244 -6.68237 0
M  V30 1480 N 133.029 1.57378 -0.0835403 0
M  V30 1481 C 134.306 1.85363 0.624507 0
M  V30 1482 C 134.686 0.978239 1.87066 0
M  V30 1483 O 134.034 0.0475908 2.2845 0
M  V30 1484 C 134.244 3.35795 0.950947 0
M  V30 1485 C 135.592 4.03581 1.31939 0
M  V30 1486 O 136.616 3.40609 1.04232 0
M  V30 1487 O 135.475 5.14672 1.83779 0
M  V30 1488 H 132.569 0.766162 0.311329 0
M  V30 1489 H 135.115 1.69307 -0.115362 0
M  V30 1490 H 133.887 3.91244 0.0663899 0
M  V30 1491 H 133.51 3.57154 1.74719 0
M  V30 1492 N 134.507 -0.190092 1.56449 0
M  V30 1493 C 135.437 -1.23816 1.97969 0
M  V30 1494 C 136.418 -1.47201 0.852395 0
M  V30 1495 O 137.603 -1.58854 1.1171 0
M  V30 1496 C 134.733 -2.5813 2.3235 0
M  V30 1497 C 133.687 -2.49348 3.47864 0
M  V30 1498 C 133.013 -3.8798 3.67934 0
M  V30 1499 C 134.313 -2.01424 4.81898 0
M  V30 1500 H 136.007 -0.89311 2.85769 0
M  V30 1501 H 133.553 -0.428177 1.37487 0
M  V30 1502 H 135.506 -3.31637 2.59991 0
M  V30 1503 H 134.23 -2.94386 1.41438 0
M  V30 1504 H 132.889 -1.78297 3.20321 0
M  V30 1505 H 132.537 -4.21597 2.74344 0
M  V30 1506 H 132.237 -3.82978 4.45648 0
M  V30 1507 H 133.761 -4.63101 3.97957 0
M  V30 1508 H 135.175 -2.64693 5.08538 0
M  V30 1509 H 133.572 -2.07413 5.63116 0
M  V30 1510 H 134.642 -0.967677 4.75146 0
M  V30 1511 N 135.985 -1.50799 -0.457987 0
M  V30 1512 C 137.231 -1.62683 -1.21088 0
M  V30 1513 C 137.564 -0.332268 -1.91336 0
M  V30 1514 O 136.839 0.667043 -1.82704 0
M  V30 1515 C 137.122 -2.81615 -2.24422 0
M  V30 1516 C 136.975 -4.20989 -1.58392 0
M  V30 1517 C 138.294 -2.96085 -3.2561 0
M  V30 1518 H 135.413 -0.592087 -0.438864 0
M  V30 1519 H 138.055 -1.83225 -0.50286 0
M  V30 1520 H 136.205 -2.64231 -2.84806 0
M  V30 1521 H 137.877 -4.49994 -1.01504 0
M  V30 1522 H 136.12 -4.24641 -0.886704 0
M  V30 1523 H 136.791 -5.0016 -2.33547 0
M  V30 1524 H 139.267 -3.12042 -2.75262 0
M  V30 1525 H 138.143 -3.80902 -3.95228 0
M  V30 1526 H 138.404 -2.0726 -3.90507 0
M  V30 1527 N 137.463 0.71206 -1.40597 0
M  V30 1528 C 138.691 1.50111 -1.42388 0
M  V30 1529 C 139.106 1.88784 -0.0245395 0
M  V30 1530 O 138.463 1.55681 0.952351 0
M  V30 1531 C 138.514 2.7742 -2.31776 0
M  V30 1532 O 138.235 2.40382 -3.66262 0
M  V30 1533 C 139.736 3.7129 -2.42196 0
M  V30 1534 H 136.956 0.46314 -0.485533 0
M  V30 1535 H 139.5 0.878068 -1.8469 0
M  V30 1536 H 137.655 3.36001 -1.92827 0
M  V30 1537 H 138.069 3.22324 -4.13772 0
M  V30 1538 H 139.543 4.57448 -3.08943 0
M  V30 1539 H 140.02 4.14641 -1.44809 0
M  V30 1540 H 140.626 3.18619 -2.81712 0
M  V30 1541 N 138.941 1.26152 0.944643 0
M  V30 1542 C 140.189 1.11271 1.6871 0
M  V30 1543 C 140.51 -0.345166 1.91921 0
M  V30 1544 O 139.78 -1.24387 1.51343 0
M  V30 1545 H 138.36 0.408783 0.625224 0
M  V30 1546 H 141.022 1.58427 1.1352 0
M  V30 1547 H 140.118 1.62879 2.66227 0
M  V30 1548 N 140.419 -1.14872 1.07899 0
M  V30 1549 C 141.667 -1.85422 0.803941 0
M  V30 1550 C 141.988 -1.83051 -0.67211 0
M  V30 1551 O 141.258 -1.27532 -1.48703 0
M  V30 1552 H 139.838 -0.686537 0.294408 0
M  V30 1553 H 142.5 -1.39226 1.3639 0
M  V30 1554 H 141.596 -2.90399 1.14346 0
M  V30 1555 N 141.898 -0.863906 -1.31812 0
M  V30 1556 C 142.808 -0.318461 -2.32428 0
M  V30 1557 C 143.824 0.568496 -1.64451 0
M  V30 1558 O 145 0.46666 -1.95919 0
M  V30 1559 C 142.065 0.476355 -3.43412 0
M  V30 1560 C 141.126 -0.43784 -4.27061 0
M  V30 1561 C 140.359 0.319138 -5.32745 0
M  V30 1562 O 140.582 1.54799 -5.48993 0
M  V30 1563 O 139.516 -0.319861 -6.01049 0
M  V30 1564 H 143.342 -1.15229 -2.80991 0
M  V30 1565 H 140.927 -0.627103 -1.35602 0
M  V30 1566 H 142.809 0.927156 -4.11074 0
M  V30 1567 H 141.484 1.28683 -2.97022 0
M  V30 1568 H 140.391 -0.937013 -3.62175 0
M  V30 1569 H 141.724 -1.21375 -4.77 0
M  V30 1570 N 143.376 1.44774 -0.622745 0
M  V30 1571 C 144.306 2.33382 0.0741861 0
M  V30 1572 C 145.287 1.47719 0.843387 0
M  V30 1573 O 146.472 1.76458 0.810934 0
M  V30 1574 C 143.602 3.30663 1.06204 0
M  V30 1575 C 142.556 4.26079 0.405037 0
M  V30 1576 C 141.882 5.13165 1.5022 0
M  V30 1577 C 143.182 5.1781 -0.683414 0
M  V30 1578 H 144.876 2.91905 -0.665713 0
M  V30 1579 H 142.422 1.40363 -0.321587 0
M  V30 1580 H 144.375 3.9153 1.55827 0
M  V30 1581 H 143.099 2.70331 1.83272 0
M  V30 1582 H 141.758 3.66532 -0.0704683 0
M  V30 1583 H 141.406 4.49191 2.26355 0
M  V30 1584 H 141.106 5.77812 1.06803 0
M  V30 1585 H 142.63 5.76902 2.00041 0
M  V30 1586 H 144.044 5.72661 -0.270631 0
M  V30 1587 H 142.441 5.91015 -1.04023 0
M  V30 1588 H 143.511 4.59326 -1.55395 0
M  V30 1589 N 144.854 0.36279 1.53368 0
M  V30 1590 C 146.101 -0.227776 2.01215 0
M  V30 1591 C 146.429 -1.49003 1.25014 0
M  V30 1592 O 145.684 -1.92876 0.331236 0
M  V30 1593 C 145.983 -0.568417 3.52851 0
M  V30 1594 C 145.649 0.59918 4.46901 0
M  V30 1595 C 144.311 0.919559 4.72332 0
M  V30 1596 C 146.663 1.38156 5.02556 0
M  V30 1597 C 143.991 2.02434 5.5067 0
M  V30 1598 C 146.343 2.47674 5.821 0
M  V30 1599 C 145.007 2.8025 6.05819 0
M  V30 1600 H 144.277 -0.083349 0.736297 0
M  V30 1601 H 146.924 0.494677 1.85001 0
M  V30 1602 H 145.229 -1.37185 3.66998 0
M  V30 1603 H 146.926 -1.03756 3.87344 0
M  V30 1604 H 143.516 0.339437 4.27254 0
M  V30 1605 H 147.7 1.14729 4.82857 0
M  V30 1606 H 142.956 2.28075 5.67267 0
M  V30 1607 H 147.13 3.08716 6.24234 0
M  V30 1608 H 144.757 3.65979 6.66306 0
M  V30 1609 N 146.332 -1.57332 0.0918853 0
M  V30 1610 C 147.242 -2.17368 -0.882505 0
M  V30 1611 C 148.258 -1.14226 -1.31257 0
M  V30 1612 O 149.434 -1.46582 -1.38115 0
M  V30 1613 C 146.499 -2.73962 -2.12476 0
M  V30 1614 C 145.56 -3.92048 -1.7492 0
M  V30 1615 C 144.793 -4.45933 -2.93223 0
M  V30 1616 O 145.016 -3.98764 -4.07852 0
M  V30 1617 O 143.95 -5.36999 -2.71875 0
M  V30 1618 H 147.776 -3.01031 -0.40172 0
M  V30 1619 H 145.361 -1.48813 -0.132291 0
M  V30 1620 H 147.243 -3.10147 -2.85283 0
M  V30 1621 H 145.918 -1.93347 -2.59613 0
M  V30 1622 H 144.825 -3.6068 -0.993025 0
M  V30 1623 H 146.158 -4.74017 -1.32548 0
M  V30 1624 N 147.81 0.181792 -1.56548 0
M  V30 1625 C 149.087 0.926765 -1.72251 0
M  V30 1626 C 149.467 2.00831 -0.650386 0
M  V30 1627 O 148.815 2.26008 0.336521 0
M  V30 1628 C 149.025 1.50106 -3.1507 0
M  V30 1629 C 150.373 1.97805 -3.75711 0
M  V30 1630 O 151.397 1.59922 -3.18282 0
M  V30 1631 O 150.256 2.67555 -4.76525 0
M  V30 1632 H 147.35 0.435506 -0.703039 0
M  V30 1633 H 149.896 0.170443 -1.68842 0
M  V30 1634 H 148.668 0.72212 -3.84579 0
M  V30 1635 H 148.291 2.32186 -3.22763 0
M  V30 1636 N 149.288 1.51039 0.449983 0
M  V30 1637 C 150.537 1.62317 1.19733 0
M  V30 1638 C 150.85 0.339101 1.92638 0
M  V30 1639 O 152.056 0.331069 2.69474 0
M  V30 1640 C 150.512 2.86608 2.17678 0
M  V30 1641 C 150.12 4.21972 1.50479 0
M  V30 1642 C 151.864 3.07239 2.92924 0
M  V30 1643 C 149.771 5.37426 2.46834 0
M  V30 1644 H 148.701 0.604532 0.450619 0
M  V30 1645 H 151.352 1.77494 0.465625 0
M  V30 1646 H 149.734 2.65037 2.94231 0
M  V30 1647 H 150.908 4.53878 0.795716 0
M  V30 1648 H 149.223 4.07117 0.874344 0
M  V30 1649 H 151.82 3.90668 3.65079 0
M  V30 1650 H 152.163 2.19807 3.5354 0
M  V30 1651 H 152.696 3.29091 2.23481 0
M  V30 1652 H 149.435 6.27079 1.90926 0
M  V30 1653 H 148.955 5.09912 3.15832 0
M  V30 1654 H 150.634 5.68862 3.08228 0
M  V30 1655 N 150.766 -0.704594 1.40972 0
M  V30 1656 C 152.012 -1.46675 1.40051 0
M  V30 1657 C 152.345 -1.94199 0.00641102 0
M  V30 1658 O 151.62 -1.68916 -0.964235 0
M  V30 1659 C 151.903 -2.68505 2.39952 0
M  V30 1660 C 151.756 -2.26805 3.88432 0
M  V30 1661 C 153.075 -3.70686 2.37233 0
M  V30 1662 H 150.194 -0.532015 0.510028 0
M  V30 1663 H 152.836 -0.803255 1.72185 0
M  V30 1664 H 150.986 -3.25114 2.1268 0
M  V30 1665 H 152.658 -1.75592 4.26574 0
M  V30 1666 H 150.901 -1.58685 4.03734 0
M  V30 1667 H 151.572 -3.14181 4.53866 0
M  V30 1668 H 154.048 -3.23731 2.61415 0
M  V30 1669 H 152.924 -4.53553 3.09162 0
M  V30 1670 H 153.185 -4.19754 1.38777 0
M  V30 1671 N 152.244 -1.26651 -0.937939 0
M  V30 1672 C 153.207 -1.08546 -2.01867 0
M  V30 1673 C 154.207 -0.0327327 -1.60767 0
M  V30 1674 O 155.397 -0.276427 -1.71993 0
M  V30 1675 C 152.529 -0.651711 -3.34613 0
M  V30 1676 H 153.722 -2.04502 -2.1936 0
M  V30 1677 H 151.275 -1.09294 -1.11734 0
M  V30 1678 H 152.01 0.309696 -3.22818 0
M  V30 1679 H 151.795 -1.41189 -3.65798 0
M  V30 1680 H 153.285 -0.546973 -4.14002 0
M  V30 1681 N 153.722 1.14298 -1.08507 0
M  V30 1682 C 155.138 1.37347 -0.812901 0
M  V30 1683 C 155.338 1.93052 0.577325 0
M  V30 1684 O 154.394 2.14389 1.33393 0
M  V30 1685 C 155.707 2.33359 -1.89642 0
M  V30 1686 C 157.255 2.46996 -1.92255 0
M  V30 1687 C 157.73 3.46309 -2.99724 0
M  V30 1688 N 159.221 3.53853 -2.98902 0
M  V30 1689 C 159.956 4.3055 -3.787 0
M  V30 1690 N 159.452 5.10482 -4.6838 0
M  V30 1691 N 161.245 4.25757 -3.66998 0
M  V30 1692 H 153.396 0.764867 -1.9815 0
M  V30 1693 H 155.659 0.398966 -0.859959 0
M  V30 1694 H 155.365 1.99565 -2.89597 0
M  V30 1695 H 155.239 3.33274 -1.76659 0
M  V30 1696 H 157.626 2.80081 -0.929445 0
M  V30 1697 H 157.707 1.47039 -2.09316 0
M  V30 1698 H 157.351 3.13957 -3.99241 0
M  V30 1699 H 157.281 4.46049 -2.79907 0
M  V30 1700 H 159.772 2.96812 -2.33904 0
M  V30 1701 H 160.085 5.66284 -5.25873 0
M  V30 1702 H 158.43 5.09747 -4.72422 0
M  V30 1703 H 161.621 3.62383 -2.96304 0
M  V30 1704 H 161.794 4.85279 -4.29427 0
M  V30 1705 N 155.201 0.870884 1.31352 0
M  V30 1706 C 156.111 0.330783 2.32256 0
M  V30 1707 C 157.127 -0.559767 1.6475 0
M  V30 1708 O 158.303 -0.456263 1.96164 0
M  V30 1709 C 155.368 -0.458137 3.4366 0
M  V30 1710 C 154.429 0.460482 4.26823 0
M  V30 1711 C 153.662 -0.290881 5.32907 0
M  V30 1712 O 153.885 -1.51885 5.49806 0
M  V30 1713 O 152.819 0.351732 6.00871 0
M  V30 1714 H 156.645 1.16718 2.80376 0
M  V30 1715 H 154.23 0.634285 1.35267 0
M  V30 1716 H 156.112 -0.905343 4.1156 0
M  V30 1717 H 154.787 -1.27106 2.97701 0
M  V30 1718 H 153.694 0.956207 3.61673 0
M  V30 1719 H 155.027 1.23903 4.7635 0
M  V30 1720 N 156.679 -1.44442 0.630414 0
M  V30 1721 C 157.909 -2.06115 0.141465 0
M  V30 1722 C 158.317 -1.47179 -1.1889 0
M  V30 1723 O 157.66 -0.588873 -1.74006 0
M  V30 1724 C 157.722 -3.59467 -0.0484355 0
M  V30 1725 C 157.386 -4.40864 1.20366 0
M  V30 1726 C 158.383 -4.74391 2.12719 0
M  V30 1727 C 156.068 -4.8125 1.43887 0
M  V30 1728 C 158.062 -5.47186 3.26904 0
M  V30 1729 C 155.749 -5.53795 2.5837 0
M  V30 1730 C 156.747 -5.86682 3.49705 0
M  V30 1731 O 156.435 -6.57749 4.62191 0
M  V30 1732 H 156.167 -0.671648 0.0765792 0
M  V30 1733 H 158.721 -1.86312 0.864695 0
M  V30 1734 H 156.951 -3.77758 -0.826803 0
M  V30 1735 H 158.64 -4.02909 -0.491849 0
M  V30 1736 H 159.406 -4.43728 1.95781 0
M  V30 1737 H 155.285 -4.55073 0.736853 0
M  V30 1738 H 158.829 -5.72773 3.98217 0
M  V30 1739 H 154.726 -5.83872 2.75251 0
M  V30 1740 H 155.494 -6.76217 4.61164 0
M  V30 1741 N 158.157 -0.370918 -1.53173 0
M  V30 1742 C 159.387 0.217389 -2.05453 0
M  V30 1743 C 159.795 1.42568 -1.24382 0
M  V30 1744 O 159.138 1.81571 -0.278839 0
M  V30 1745 C 159.2 0.669827 -3.53205 0
M  V30 1746 C 158.864 -0.4225 -4.55043 0
M  V30 1747 C 159.861 -1.27407 -5.04047 0
M  V30 1748 C 157.546 -0.58427 -4.9889 0
M  V30 1749 C 159.54 -2.27271 -5.95505 0
M  V30 1750 C 157.227 -1.58627 -5.90153 0
M  V30 1751 C 158.225 -2.42892 -6.38351 0
M  V30 1752 O 157.913 -3.41382 -7.27814 0
M  V30 1753 H 157.645 0.0408171 -0.674767 0
M  V30 1754 H 160.199 -0.5292 -1.98466 0
M  V30 1755 H 158.429 1.4681 -3.57748 0
M  V30 1756 H 160.118 1.18173 -3.88317 0
M  V30 1757 H 160.884 -1.16031 -4.70916 0
M  V30 1758 H 156.763 0.061851 -4.60959 0
M  V30 1759 H 160.307 -2.93079 -6.33049 0
M  V30 1760 H 156.204 -1.70048 -6.22699 0
M  V30 1761 H 156.972 -3.37173 -7.45826 0
M  V30 1762 N 159.635 1.57281 -0.100228 0
M  V30 1763 C 160.86 1.99302 0.573881 0
M  V30 1764 C 161.285 0.979059 1.60611 0
M  V30 1765 O 160.643 -0.0517803 1.81226 0
M  V30 1766 C 160.691 3.40274 1.19358 0
M  V30 1767 O 159.795 3.41676 2.30935 0
M  V30 1768 H 159.136 0.647944 0.145138 0
M  V30 1769 H 161.666 2.03779 -0.183156 0
M  V30 1770 H 161.676 3.78078 1.53365 0
M  V30 1771 H 160.351 4.13594 0.437385 0
M  V30 1772 H 158.928 3.15672 1.98509 0
M  V30 1773 N 161.113 -0.173488 1.56642 0
M  V30 1774 C 162.023 -1.23482 1.99473 0
M  V30 1775 C 163.039 -1.48567 0.905752 0
M  V30 1776 O 164.215 -1.60758 1.21321 0
M  V30 1777 C 161.28 -2.55444 2.34413 0
M  V30 1778 C 160.341 -2.38241 3.57127 0
M  V30 1779 C 159.574 -3.63909 3.90392 0
M  V30 1780 O 159.797 -4.68996 3.24653 0
M  V30 1781 O 158.731 -3.58149 4.83749 0
M  V30 1782 H 162.557 -0.901279 2.90018 0
M  V30 1783 H 160.142 -0.380185 1.44482 0
M  V30 1784 H 162.024 -3.33292 2.57865 0
M  V30 1785 H 160.699 -2.88382 1.4703 0
M  V30 1786 H 159.606 -1.58431 3.38896 0
M  V30 1787 H 160.939 -2.10228 4.45045 0
M  V30 1788 N 162.591 -1.51276 -0.441967 0
M  V30 1789 C 163.554 -1.7167 -1.51862 0
M  V30 1790 C 164.554 -0.586793 -1.49711 0
M  V30 1791 O 165.744 -0.854276 -1.51815 0
M  V30 1792 C 162.876 -1.76889 -2.91416 0
M  V30 1793 H 164.069 -2.67754 -1.35084 0
M  V30 1794 H 161.622 -1.41196 -0.670333 0
M  V30 1795 H 162.357 -0.826026 -3.13604 0
M  V30 1796 H 162.142 -2.59001 -2.94382 0
M  V30 1797 H 163.632 -1.94522 -3.69528 0
M  V30 1798 N 164.069 0.697108 -1.41344 0
M  V30 1799 C 165.346 1.45154 -1.31109 0
M  V30 1800 C 165.726 2.11009 0.0620449 0
M  V30 1801 O 165.074 2.01571 1.07618 0
M  V30 1802 C 165.284 2.47223 -2.46337 0
M  V30 1803 C 166.632 3.1252 -2.87431 0
M  V30 1804 O 167.656 2.57547 -2.46065 0
M  V30 1805 O 166.515 4.12083 -3.58957 0
M  V30 1806 H 163.609 0.646365 -0.515889 0
M  V30 1807 H 166.155 0.727716 -1.53305 0
M  V30 1808 H 164.927 1.97204 -3.37974 0
M  V30 1809 H 164.55 3.27116 -2.2601 0
M  V30 1810 N 165.547 1.27147 0.931209 0
M  V30 1811 C 166.51 1.09615 2.01289 0
M  V30 1812 C 167.51 0.0412581 1.60747 0
M  V30 1813 O 168.7 0.285545 1.71844 0
M  V30 1814 C 165.832 0.669447 3.34262 0
M  V30 1815 H 167.025 2.05662 2.18273 0
M  V30 1816 H 164.578 1.09885 1.11153 0
M  V30 1817 H 165.313 -0.292572 3.22978 0
M  V30 1818 H 165.098 1.43127 3.65044 0
M  V30 1819 H 166.588 0.568921 4.13706 0
M  V30 1820 N 167.025 -1.13721 1.09112 0
M  V30 1821 C 168.25 -1.89314 0.847053 0
M  V30 1822 C 168.675 -1.78416 -0.595774 0
M  V30 1823 O 168.033 -1.12942 -1.41823 0
M  V30 1824 C 168.081 -3.3701 1.28284 0
M  V30 1825 O 167.185 -4.10054 0.439267 0
M  V30 1826 H 166.526 -0.588745 0.307044 0
M  V30 1827 H 169.056 -1.43902 1.45442 0
M  V30 1828 H 169.066 -3.87834 1.26683 0
M  V30 1829 H 167.741 -3.4426 2.33363 0
M  V30 1830 H 166.318 -3.69266 0.519312 0
M  V30 1831 N 168.503 -0.877838 -1.30888 0
M  V30 1832 C 169.453 -0.310872 -2.25871 0
M  V30 1833 C 170.437 0.556596 -1.50966 0
M  V30 1834 O 171.629 0.402187 -1.7237 0
M  V30 1835 C 168.758 0.479821 -3.3993 0
M  V30 1836 C 167.844 -0.401333 -4.22197 0
M  V30 1837 N 168.235 -1.49848 -4.83093 0
M  V30 1838 C 166.533 -0.195167 -4.45573 0
M  V30 1839 C 167.234 -2.0425 -5.44662 0
M  V30 1840 N 166.21 -1.33843 -5.26865 0
M  V30 1841 H 170.012 -1.1493 -2.70496 0
M  V30 1842 H 167.526 -0.726458 -1.45246 0
M  V30 1843 H 169.523 0.902582 -4.07012 0
M  V30 1844 H 168.183 1.31577 -2.96846 0
M  V30 1845 H 169.194 -1.88137 -4.82519 0
M  V30 1846 H 165.871 0.604192 -4.13105 0
M  V30 1847 H 167.261 -2.96345 -6.03017 0
M  V30 1848 N 169.982 1.44106 -0.638065 0
M  V30 1849 C 171.222 2.03858 -0.148733 0
M  V30 1850 C 171.586 1.49153 1.20903 0
M  V30 1851 O 172.787 2.00452 1.79088 0
M  V30 1852 C 171.058 3.57117 -0.142314 0
M  V30 1853 S 172.617 4.37897 0.281385 0
M  V30 1854 H 169.435 0.708069 -0.0644912 0
M  V30 1855 H 172.037 1.7639 -0.843009 0
M  V30 1856 H 170.741 3.94436 -1.13349 0
M  V30 1857 H 170.272 3.89205 0.572988 0
M  V30 1858 H 172.287 4.72218 1.52395 0
M  V30 1859 N 171.46 0.379036 1.52974 0
M  V30 1860 C 172.709 -0.207612 2.00629 0
M  V30 1861 C 173.022 -1.48758 1.27006 0
M  V30 1862 O 174.228 -2.15365 1.65318 0
M  V30 1863 C 172.684 -0.42053 3.57435 0
M  V30 1864 C 172.292 0.845587 4.39948 0
M  V30 1865 C 174.036 -0.964102 4.13407 0
M  V30 1866 C 171.943 0.601513 5.88333 0
M  V30 1867 H 170.873 -0.0813591 0.749598 0
M  V30 1868 H 173.524 0.499853 1.76561 0
M  V30 1869 H 171.906 -1.18959 3.7771 0
M  V30 1870 H 173.08 1.61848 4.31442 0
M  V30 1871 H 171.395 1.31336 3.95145 0
M  V30 1872 H 173.992 -1.16225 5.21916 0
M  V30 1873 H 174.335 -1.93019 3.68849 0
M  V30 1874 H 174.868 -0.25487 3.96983 0
M  V30 1875 H 171.607 1.53831 6.37194 0
M  V30 1876 H 171.127 -0.132628 5.99653 0
M  V30 1877 H 172.806 0.232134 6.46583 0
M  V30 1878 N 172.938 -1.57226 0.108567 0
M  V30 1879 C 173.87 -2.11809 -0.875752 0
M  V30 1880 C 174.883 -1.05839 -1.23701 0
M  V30 1881 O 176.072 -1.33245 -1.18778 0
M  V30 1882 C 173.172 -2.59411 -2.18081 0
M  V30 1883 C 172.345 -3.89364 -1.99284 0
M  V30 1884 C 171.404 -4.22672 -3.13424 0
M  V30 1885 O 170.43 -4.91668 -2.86795 0
M  V30 1886 N 171.632 -3.79154 -4.3957 0
M  V30 1887 H 174.397 -2.9689 -0.409477 0
M  V30 1888 H 171.958 -1.61721 -0.076158 0
M  V30 1889 H 173.95 -2.7873 -2.93414 0
M  V30 1890 H 172.52 -1.79268 -2.5609 0
M  V30 1891 H 171.74 -3.79059 -1.08203 0
M  V30 1892 H 173.028 -4.74358 -1.84017 0
M  V30 1893 H 172.426 -3.23486 -4.64083 0
M  V30 1894 H 170.983 -4.03602 -5.11809 0
M  V30 1895 N 174.416 0.165178 -1.56732 0
M  V30 1896 C 175.348 1.22911 -1.93457 0
M  V30 1897 C 176.361 1.40152 -0.828333 0
M  V30 1898 O 177.55 1.40046 -1.10677 0
M  V30 1899 C 174.65 2.59686 -2.17753 0
M  V30 1900 C 173.823 2.63663 -3.48999 0
M  V30 1901 C 172.882 3.81845 -3.62051 0
M  V30 1902 O 171.908 3.67559 -4.34613 0
M  V30 1903 N 173.11 4.98557 -2.97357 0
M  V30 1904 H 175.875 0.917118 -2.85323 0
M  V30 1905 H 173.436 0.354895 -1.57962 0
M  V30 1906 H 175.428 3.37225 -2.23743 0
M  V30 1907 H 173.998 2.83251 -1.32242 0
M  V30 1908 H 173.218 1.72173 -3.54612 0
M  V30 1909 H 174.506 2.63336 -4.35352 0
M  V30 1910 H 173.904 5.13065 -2.38287 0
M  V30 1911 H 172.461 5.73936 -3.08934 0
M  V30 1912 N 175.894 1.51508 0.433938 0
M  V30 1913 C 177.143 1.63578 1.18005 0
M  V30 1914 C 177.456 0.359514 1.92268 0
M  V30 1915 O 178.662 0.359632 2.69108 0
M  V30 1916 C 177.118 2.88901 2.14626 0
M  V30 1917 C 176.726 4.23544 1.45995 0
M  V30 1918 C 178.47 3.10328 2.89649 0
M  V30 1919 C 176.377 5.40014 2.4112 0
M  V30 1920 H 175.307 0.609277 0.444182 0
M  V30 1921 H 177.958 1.77978 0.446773 0
M  V30 1922 H 176.34 2.68142 2.91403 0
M  V30 1923 H 177.514 4.54696 0.747532 0
M  V30 1924 H 175.829 4.08021 0.831115 0
M  V30 1925 H 178.426 3.94518 3.60915 0
M  V30 1926 H 178.769 2.23544 3.51189 0
M  V30 1927 H 179.302 3.31443 2.19978 0
M  V30 1928 H 176.041 6.29068 1.84264 0
M  V30 1929 H 175.561 5.13233 3.10406 0
M  V30 1930 H 177.24 5.72099 3.02177 0
M  V30 1931 N 177.372 -0.689602 1.41712 0
M  V30 1932 C 178.302 -1.81577 1.46806 0
M  V30 1933 C 179.283 -1.66945 0.326105 0
M  V30 1934 O 180.468 -1.86588 0.538377 0
M  V30 1935 C 177.598 -3.19762 1.35535 0
M  V30 1936 C 176.552 -3.49107 2.47605 0
M  V30 1937 C 175.878 -4.86711 2.21397 0
M  V30 1938 C 177.178 -3.47483 3.89939 0
M  V30 1939 H 178.872 -1.7757 2.41058 0
M  V30 1940 H 176.418 -0.852887 1.16025 0
M  V30 1941 H 178.371 -3.98263 1.3771 0
M  V30 1942 H 177.095 -3.24409 0.377708 0
M  V30 1943 H 175.754 -2.72959 2.44722 0
M  V30 1944 H 175.402 -4.8799 1.21961 0
M  V30 1945 H 175.102 -5.0731 2.96497 0
M  V30 1946 H 176.626 -5.67515 2.25297 0
M  V30 1947 H 178.04 -4.1598 3.94505 0
M  V30 1948 H 176.437 -3.79615 4.64771 0
M  V30 1949 H 177.507 -2.46341 4.17665 0
M  V30 1950 N 178.85 -1.27639 -0.924453 0
M  V30 1951 C 179.76 -1.12466 -2.05885 0
M  V30 1952 C 180.776 -0.053869 -1.73917 0
M  V30 1953 O 181.952 -0.261012 -1.99702 0
M  V30 1954 C 179.017 -0.776768 -3.37886 0
M  V30 1955 C 178.078 -1.92878 -3.83532 0
M  V30 1956 C 177.311 -1.59739 -5.09234 0
M  V30 1957 O 177.534 -0.506782 -5.68144 0
M  V30 1958 O 176.468 -2.43761 -5.50331 0
M  V30 1959 H 180.294 -2.07671 -2.21599 0
M  V30 1960 H 177.879 -1.06857 -1.04413 0
M  V30 1961 H 179.761 -0.596229 -4.17161 0
M  V30 1962 H 178.436 0.145732 -3.23372 0
M  V30 1963 H 177.343 -2.1644 -3.0513 0
M  V30 1964 H 178.676 -2.8316 -4.02593 0
M  V30 1965 N 180.328 1.1314 -1.09713 0
M  V30 1966 C 181.553 1.88862 -0.857081 0
M  V30 1967 C 181.978 1.78729 0.586304 0
M  V30 1968 O 181.336 1.13692 1.41222 0
M  V30 1969 C 181.384 3.36325 -1.30069 0
M  V30 1970 O 180.488 4.09815 -0.461007 0
M  V30 1971 H 179.829 0.587108 -0.310162 0
M  V30 1972 H 182.359 1.43129 -1.46203 0
M  V30 1973 H 182.369 3.87157 -1.28738 0
M  V30 1974 H 181.044 3.43017 -2.35185 0
M  V30 1975 H 179.621 3.68986 -0.538888 0
M  V30 1976 N 181.806 0.884767 1.30421 0
M  V30 1977 C 183.052 0.503851 1.96441 0
M  V30 1978 C 183.385 -0.944518 1.69684 0
M  V30 1979 O 182.66 -1.66737 1.00145 0
M  V30 1980 C 182.943 0.779085 3.51571 0
M  V30 1981 C 182.796 2.27807 3.87846 0
M  V30 1982 C 184.115 0.255452 4.39358 0
M  V30 1983 H 181.234 0.184533 0.713524 0
M  V30 1984 H 183.876 1.10872 1.54297 0
M  V30 1985 H 182.026 0.264274 3.876 0
M  V30 1986 H 183.698 2.86127 3.61841 0
M  V30 1987 H 181.941 2.74479 3.35922 0
M  V30 1988 H 182.612 2.42125 4.96064 0
M  V30 1989 H 185.088 0.696079 4.10236 0
M  V30 1990 H 183.964 0.477361 5.4682 0
M  V30 1991 H 184.225 -0.843293 4.33983 0
M  V30 1992 N 183.284 -1.43765 0.645699 0
M  V30 1993 C 184.232 -2.32516 -0.0624849 0
M  V30 1994 C 185.226 -1.48183 -0.820855 0
M  V30 1995 O 186.432 -1.64439 -0.732106 0
M  V30 1996 H 182.807 -0.750989 -0.0389864 0
M  V30 1997 H 184.778 -2.89979 0.703892 0
M  V30 1998 C 183.527 -3.32389 -1.02044 0
M  V30 1999 H 182.85 -3.97301 -0.446312 0
M  V30 2000 H 184.29 -3.97138 -1.48517 0
M  V30 2001 C 182.749 -2.62416 -2.11281 0
M  V30 2002 O 183.279 -2.434 -3.19561 0
M  V30 2003 N 181.485 -2.21913 -1.87624 0
M  V30 2004 H 181.032 -2.37578 -0.995703 0
M  V30 2005 H 180.99 -1.75424 -2.6091 0
M  V30 2006 N 184.763 -0.387143 -1.52771 0
M  V30 2007 C 185.713 0.465942 -2.23188 0
M  V30 2008 C 186.697 1.03138 -1.23496 0
M  V30 2009 O 187.889 0.957845 -1.48843 0
M  V30 2010 C 185.018 1.59384 -3.04059 0
M  V30 2011 C 184.104 1.04024 -4.11144 0
M  V30 2012 N 184.495 0.211416 -5.05358 0
M  V30 2013 C 182.793 1.31295 -4.26237 0
M  V30 2014 C 183.494 -0.0941698 -5.81624 0
M  V30 2015 N 182.47 0.509207 -5.4121 0
M  V30 2016 H 186.272 -0.173856 -2.93385 0
M  V30 2017 H 183.786 -0.19633 -1.61209 0
M  V30 2018 H 185.783 2.21738 -3.53041 0
M  V30 2019 H 184.443 2.23648 -2.35397 0
M  V30 2020 H 185.454 -0.151151 -5.17679 0
M  V30 2021 H 182.131 1.95679 -3.68803 0
M  V30 2022 H 183.521 -0.765572 -6.67524 0
M  V30 2023 N 186.241 1.57166 -0.116904 0
M  V30 2024 C 187.481 1.97008 0.544715 0
M  V30 2025 C 187.845 0.998713 1.63981 0
M  V30 2026 O 189.046 1.28644 2.36018 0
M  V30 2027 C 187.317 3.41145 1.06559 0
M  V30 2028 S 188.876 4.02998 1.73603 0
M  V30 2029 H 185.694 0.688587 0.177112 0
M  V30 2030 H 188.296 1.94459 -0.201487 0
M  V30 2031 H 187 4.09592 0.257374 0
M  V30 2032 H 186.531 3.4734 1.84712 0
M  V30 2033 H 188.546 3.93585 3.02168 0
M  V30 2034 N 187.719 -0.156864 1.56817 0
M  V30 2035 C 188.669 -1.19891 1.93934 0
M  V30 2036 C 189.653 -1.39061 0.809372 0
M  V30 2037 O 190.845 -1.40789 1.07273 0
M  V30 2038 C 187.974 -2.53493 2.31508 0
M  V30 2039 C 187.06 -2.37957 3.51052 0
M  V30 2040 N 187.451 -1.92158 4.67877 0
M  V30 2041 C 185.749 -2.68739 3.55943 0
M  V30 2042 C 186.45 -1.8943 5.49992 0
M  V30 2043 N 185.426 -2.32375 4.91429 0
M  V30 2044 H 189.228 -0.836746 2.81737 0
M  V30 2045 H 186.742 -0.365012 1.58245 0
M  V30 2046 H 188.739 -3.28811 2.56299 0
M  V30 2047 H 187.399 -2.905 1.45051 0
M  V30 2048 H 188.41 -1.62274 4.91821 0
M  V30 2049 H 185.087 -3.09687 2.80001 0
M  V30 2050 H 186.477 -1.55596 6.53636 0
M  V30 2051 N 189.197 -1.51736 -0.425897 0
M  V30 2052 C 190.127 -1.76827 -1.52494 0
M  V30 2053 C 191.108 -0.618524 -1.58456 0
M  V30 2054 O 192.293 -0.862416 -1.74 0
M  V30 2055 C 189.423 -1.90374 -2.90474 0
M  V30 2056 C 188.377 -3.0588 -2.99369 0
M  V30 2057 C 187.703 -3.04625 -4.3944 0
M  V30 2058 C 189.003 -4.45644 -2.72394 0
M  V30 2059 H 190.697 -2.68855 -1.31748 0
M  V30 2060 H 188.243 -1.29372 -0.632362 0
M  V30 2061 H 190.196 -2.0651 -3.6733 0
M  V30 2062 H 188.92 -0.95004 -3.12477 0
M  V30 2063 H 187.579 -2.89467 -2.24954 0
M  V30 2064 H 187.227 -2.0701 -4.58428 0
M  V30 2065 H 186.927 -3.82195 -4.46319 0
M  V30 2066 H 188.451 -3.22869 -5.18255 0
M  V30 2067 H 189.865 -4.62348 -3.38979 0
M  V30 2068 H 188.262 -5.25006 -2.9067 0
M  V30 2069 H 189.332 -4.54893 -1.67929 0
M  V30 2070 N 190.675 0.682077 -1.42076 0
M  V30 2071 C 191.623 1.81707 -1.45208 0
M  V30 2072 C 192.617 1.66183 -0.328591 0
M  V30 2073 O 193.823 1.7288 -0.501264 0
M  V30 2074 H 190.198 0.599014 -0.454628 0
M  V30 2075 H 192.169 1.76183 -2.40836 0
M  V30 2076 C 190.918 3.19816 -1.36428 0
M  V30 2077 H 190.241 3.32385 -2.22171 0
M  V30 2078 H 191.681 3.99272 -1.42681 0
M  V30 2079 C 190.14 3.36809 -0.078191 0
M  V30 2080 O 190.67 3.92124 0.87188 0
M  V30 2081 N 188.876 2.906 0.00229266 0
M  V30 2082 H 188.423 2.45772 -0.771616 0
M  V30 2083 H 188.381 3.02347 0.862179 0
M  V30 2084 N 192.153 1.28127 0.917671 0
M  V30 2085 C 193.401 1.14825 1.66312 0
M  V30 2086 C 193.722 -0.304379 1.9261 0
M  V30 2087 O 192.992 -1.21149 1.53947 0
M  V30 2088 H 191.572 0.421953 0.616413 0
M  V30 2089 H 194.234 1.608 1.10134 0
M  V30 2090 H 193.33 1.68489 2.62712 0
M  V30 2091 N 193.631 -1.12557 1.10312 0
M  V30 2092 C 194.88 -1.83395 0.839588 0
M  V30 2093 C 195.193 -1.84939 -0.636929 0
M  V30 2094 O 196.399 -2.51761 -1.01631 0
M  V30 2095 C 194.855 -3.29303 1.45215 0
M  V30 2096 C 194.463 -3.36122 2.96186 0
M  V30 2097 C 196.207 -4.05121 1.26796 0
M  V30 2098 C 194.114 -4.76357 3.50483 0
M  V30 2099 H 193.044 -0.687133 0.310425 0
M  V30 2100 H 195.695 -1.26746 1.32694 0
M  V30 2101 H 194.077 -3.85812 0.892469 0
M  V30 2102 H 195.251 -2.89559 3.58458 0
M  V30 2103 H 193.566 -2.73776 3.13745 0
M  V30 2104 H 196.163 -5.08668 1.64806 0
M  V30 2105 H 196.506 -4.15773 0.209409 0
M  V30 2106 H 197.039 -3.54967 1.79563 0
M  V30 2107 H 193.778 -4.70899 4.55998 0
M  V30 2108 H 193.298 -5.23377 2.92978 0
M  V30 2109 H 194.977 -5.45294 3.48228 0
M  V30 2110 N 195.109 -0.891671 -1.2995 0
M  V30 2111 C 196.355 -0.514261 -1.96171 0
M  V30 2112 C 196.688 0.935506 -1.70182 0
M  V30 2113 O 195.963 1.66204 -1.01028 0
M  V30 2114 C 196.246 -0.797719 -3.51153 0
M  V30 2115 C 196.099 -2.2986 -3.86632 0
M  V30 2116 C 197.418 -0.278749 -4.39216 0
M  V30 2117 H 194.537 -0.188314 -0.712535 0
M  V30 2118 H 197.179 -1.11689 -1.53706 0
M  V30 2119 H 195.329 -0.284826 -3.87455 0
M  V30 2120 H 197.001 -2.88042 -3.60319 0
M  V30 2121 H 195.244 -2.76257 -3.34462 0
M  V30 2122 H 195.915 -2.44753 -4.94773 0
M  V30 2123 H 198.391 -0.717825 -4.09862 0
M  V30 2124 H 197.267 -0.506353 -5.46559 0
M  V30 2125 H 197.528 0.820266 -4.34424 0
M  V30 2126 N 196.587 1.43421 -0.653314 0
M  V30 2127 C 197.537 2.2792 0.060558 0
M  V30 2128 C 198.521 1.39906 0.794677 0
M  V30 2129 O 199.713 1.63536 0.677128 0
M  V30 2130 C 196.842 3.27603 1.0262 0
M  V30 2131 C 195.928 4.23104 0.290551 0
M  V30 2132 N 196.319 5.01031 -0.692967 0
M  V30 2133 C 194.617 4.42816 0.531984 0
M  V30 2134 C 195.318 5.70626 -1.12963 0
M  V30 2135 N 194.294 5.41617 -0.463867 0
M  V30 2136 H 198.096 2.85585 -0.694143 0
M  V30 2137 H 195.61 1.55126 -0.480602 0
M  V30 2138 H 197.607 3.86918 1.55242 0
M  V30 2139 H 196.267 2.71499 1.78096 0
M  V30 2140 H 197.278 5.0669 -1.07169 0
M  V30 2141 H 193.955 3.97782 1.26791 0
M  V30 2142 H 195.345 6.4318 -1.94343 0
M  V30 2143 N 198.065 0.39524 1.52563 0
M  V30 2144 C 199.481 0.0454682 1.59535 0
M  V30 2145 C 199.681 -1.44056 1.4089 0
M  V30 2146 O 198.737 -2.20579 1.22888 0
M  V30 2147 C 200.05 0.527963 2.96029 0
M  V30 2148 C 201.598 0.484733 3.09224 0
M  V30 2149 C 202.073 0.943512 4.48176 0
M  V30 2150 N 203.564 0.899765 4.54377 0
M  V30 2151 C 204.299 1.22609 5.60138 0
M  V30 2152 N 203.795 1.62319 6.73516 0
M  V30 2153 N 205.588 1.14696 5.50274 0
M  V30 2154 H 197.739 1.36261 1.62931 0
M  V30 2155 H 200.002 0.558887 0.765735 0
M  V30 2156 H 199.708 1.56607 3.14908 0
M  V30 2157 H 199.582 -0.0698056 3.77135 0
M  V30 2158 H 201.969 -0.544298 2.90037 0
M  V30 2159 H 202.05 1.11838 2.30056 0
M  V30 2160 H 201.694 1.9708 4.68104 0
M  V30 2161 H 201.624 0.286817 5.25818 0
M  V30 2162 H 204.115 0.607632 3.72983 0
M  V30 2163 H 204.428 1.85567 7.5019 0
M  V30 2164 H 202.773 1.66211 6.74833 0
M  V30 2165 H 205.964 0.835701 4.6058 0
M  V30 2166 H 206.137 1.40459 6.32594 0
M  V30 2167 N 199.544 -1.57102 0.125237 0
M  V30 2168 C 200.821 -1.86953 -0.575142 0
M  V30 2169 C 201.201 -1.02749 -1.84407 0
M  V30 2170 O 200.549 -0.108144 -2.28244 0
M  V30 2171 C 200.759 -3.38198 -0.861583 0
M  V30 2172 C 202.107 -4.06937 -1.21192 0
M  V30 2173 O 203.131 -3.43252 -0.951645 0
M  V30 2174 O 201.99 -5.19364 -1.70068 0
M  V30 2175 H 199.084 -0.774147 -0.290906 0
M  V30 2176 H 201.63 -1.68942 0.160211 0
M  V30 2177 H 200.402 -3.91282 0.0373647 0
M  V30 2178 H 200.025 -3.61661 -1.65188 0
M  V30 2179 N 201.022 0.148545 -1.56898 0
M  V30 2180 C 201.952 1.18524 -2.01182 0
M  V30 2181 C 202.933 1.4489 -0.891123 0
M  V30 2182 O 204.118 1.55836 -1.15882 0
M  V30 2183 C 201.248 2.51879 -2.39112 0
M  V30 2184 C 200.202 2.40038 -3.54353 0
M  V30 2185 C 199.528 3.78089 -3.78091 0
M  V30 2186 C 200.828 1.88577 -4.87069 0
M  V30 2187 H 202.522 0.817029 -2.88036 0
M  V30 2188 H 200.068 0.391575 -1.38574 0
M  V30 2189 H 202.021 3.24627 -2.68692 0
M  V30 2190 H 200.745 2.90532 -1.49193 0
M  V30 2191 H 199.404 1.69742 -3.24936 0
M  V30 2192 H 199.052 4.14175 -2.85426 0
M  V30 2193 H 198.752 3.71028 -4.55645 0
M  V30 2194 H 200.276 4.52387 -4.10095 0
M  V30 2195 H 201.69 2.51117 -5.15377 0
M  V30 2196 H 200.087 1.9241 -5.68417 0
M  V30 2197 H 201.157 0.84136 -4.77545 0
M  V30 2198 N 202.5 1.5196 0.417844 0
M  V30 2199 C 203.447 1.74678 1.50852 0
M  V30 2200 C 204.417 0.588947 1.55308 0
M  V30 2201 O 205.602 0.825544 1.72016 0
M  V30 2202 C 202.742 1.89544 2.88387 0
M  V30 2203 C 201.855 3.17166 2.93309 0
M  V30 2204 C 200.99 3.22513 4.22088 0
M  V30 2205 C 200.029 4.44372 4.20951 0
M  V30 2206 N 199.166 4.47161 5.41287 0
M  V30 2207 H 204.006 2.67768 1.30783 0
M  V30 2208 H 201.543 1.32689 0.63498 0
M  V30 2209 H 203.501 1.96146 3.68216 0
M  V30 2210 H 202.131 0.998424 3.06971 0
M  V30 2211 H 201.183 3.19778 2.06024 0
M  V30 2212 H 202.495 4.07021 2.88332 0
M  V30 2213 H 201.649 3.28139 5.10303 0
M  V30 2214 H 200.388 2.30581 4.29748 0
M  V30 2215 H 199.393 4.38902 3.31127 0
M  V30 2216 H 200.618 5.3759 4.14938 0
M  V30 2217 H 198.564 3.58108 5.49632 0
M  V30 2218 H 198.481 5.3085 5.3827 0
M  V30 2219 H 199.749 4.57005 6.3148 0
M  V30 2220 N 203.978 -0.674533 1.42435 0
M  V30 2221 C 205.389 -1.25514 1.38214 0
M  V30 2222 C 205.74 -1.96055 0.0755464 0
M  V30 2223 O 204.865 -2.00028 -0.8257 0
M  V30 2224 C 205.46 -2.28269 2.50357 0
M  V30 2225 C 204.019 -2.81856 2.49467 0
M  V30 2226 C 203.166 -1.56182 2.29134 0
M  V30 2227 H 206.117 -0.467902 1.51646 0
M  V30 2228 H 206.138 -3.10009 2.20624 0
M  V30 2229 H 205.65 -1.769 3.45439 0
M  V30 2230 H 203.751 -3.37346 1.58204 0
M  V30 2231 H 203.864 -3.30854 3.46515 0
M  V30 2232 H 202.228 -1.82761 1.774 0
M  V30 2233 H 203.011 -1.06778 3.26272 0
M  V30 2234 N 205.456 -1.28612 -0.910864 0
M  V30 2235 C 206.366 -1.14643 -2.0468 0
M  V30 2236 C 207.382 -0.0723121 -1.7385 0
M  V30 2237 O 208.558 -0.282178 -1.99413 0
M  V30 2238 C 205.623 -0.812561 -3.37044 0
M  V30 2239 C 204.684 -1.96935 -3.81465 0
M  V30 2240 C 203.917 -1.65131 -5.07511 0
M  V30 2241 O 204.14 -0.567013 -5.67575 0
M  V30 2242 O 203.074 -2.49585 -5.47714 0
M  V30 2243 H 206.9 -2.1001 -2.19384 0
M  V30 2244 H 204.485 -1.07958 -1.03274 0
M  V30 2245 H 206.367 -0.640441 -4.16505 0
M  V30 2246 H 205.042 0.111426 -3.23508 0
M  V30 2247 H 203.949 -2.19664 -3.02818 0
M  V30 2248 H 205.282 -2.87414 -3.99567 0
M  V30 2249 N 206.934 1.1197 -1.10907 0
M  V30 2250 C 207.882 2.19927 -0.757303 0
M  V30 2251 C 208.876 1.67564 0.248747 0
M  V30 2252 O 210.082 1.79672 0.108605 0
M  V30 2253 H 206.457 0.716925 -0.226987 0
M  V30 2254 H 208.428 2.46847 -1.67658 0
M  V30 2255 C 207.177 3.47061 -0.210671 0
M  V30 2256 H 206.5 3.87703 -0.976049 0
M  V30 2257 H 207.94 4.24 -0.0026584 0
M  V30 2258 C 206.399 3.19864 1.05777 0
M  V30 2259 O 206.929 3.40049 2.13845 0
M  V30 2260 N 205.135 2.73636 0.978349 0
M  V30 2261 H 204.682 2.5741 0.0988246 0
M  V30 2262 H 204.64 2.55815 1.82773 0
M  V30 2263 N 208.412 0.89855 1.29475 0
M  V30 2264 C 209.342 0.39201 2.30186 0
M  V30 2265 C 210.323 -0.532359 1.61555 0
M  V30 2266 O 211.508 -0.443331 1.89072 0
M  V30 2267 C 208.638 -0.382353 3.45189 0
M  V30 2268 C 207.592 0.451483 4.25612 0
M  V30 2269 C 206.918 -0.450307 5.328 0
M  V30 2270 C 208.218 1.70079 4.93832 0
M  V30 2271 H 209.912 1.23362 2.72804 0
M  V30 2272 H 207.458 0.594638 1.31149 0
M  V30 2273 H 209.411 -0.747451 4.14718 0
M  V30 2274 H 208.135 -1.25774 3.01411 0
M  V30 2275 H 206.794 0.798897 3.57789 0
M  V30 2276 H 206.442 -1.32379 4.85268 0
M  V30 2277 H 206.142 0.103902 5.87508 0
M  V30 2278 H 207.666 -0.811623 6.05182 0
M  V30 2279 H 209.08 1.40549 5.55805 0
M  V30 2280 H 207.477 2.19623 5.58467 0
M  V30 2281 H 208.547 2.43744 4.19186 0
M  V30 2282 N 209.89 -1.43072 0.660911 0
M  V30 2283 C 210.82 -2.33497 -0.0122829 0
M  V30 2284 C 211.801 -1.49903 -0.803925 0
M  V30 2285 O 212.986 -1.78546 -0.763864 0
M  V30 2286 C 210.116 -3.33363 -0.973994 0
M  V30 2287 C 209.07 -4.27003 -0.291928 0
M  V30 2288 C 208.396 -5.16967 -1.36562 0
M  V30 2289 C 209.696 -5.15816 0.820462 0
M  V30 2290 H 211.39 -2.90038 0.742873 0
M  V30 2291 H 208.936 -1.39461 0.358688 0
M  V30 2292 H 210.889 -3.95524 -1.45392 0
M  V30 2293 H 209.613 -2.75095 -1.7604 0
M  V30 2294 H 208.272 -3.66217 0.167623 0
M  V30 2295 H 207.92 -4.55034 -2.14366 0
M  V30 2296 H 207.62 -5.80441 -0.914454 0
M  V30 2297 H 209.144 -5.82003 -1.84675 0
M  V30 2298 H 210.558 -5.71742 0.422366 0
M  V30 2299 H 208.955 -5.8805 1.19656 0
M  V30 2300 H 210.025 -4.55045 1.67518 0
M  V30 2301 N 211.368 -0.403325 -1.52352 0
M  V30 2302 C 212.298 0.416205 -2.29761 0
M  V30 2303 C 213.279 1.05123 -1.33728 0
M  V30 2304 O 214.464 1.06134 -1.62632 0
M  V30 2305 C 211.594 1.53624 -3.11475 0
M  V30 2306 C 210.548 1.02653 -4.15507 0
M  V30 2307 C 209.874 2.23971 -4.85532 0
M  V30 2308 C 211.174 0.08463 -5.22231 0
M  V30 2309 H 212.868 -0.229701 -2.98518 0
M  V30 2310 H 210.414 -0.111913 -1.43564 0
M  V30 2311 H 212.367 2.1165 -3.64393 0
M  V30 2312 H 211.091 2.20994 -2.40477 0
M  V30 2313 H 209.75 0.46871 -3.63591 0
M  V30 2314 H 209.398 2.89883 -4.11068 0
M  V30 2315 H 209.098 1.90521 -5.55856 0
M  V30 2316 H 210.622 2.82614 -5.41259 0
M  V30 2317 H 212.036 0.573509 -5.70424 0
M  V30 2318 H 210.433 -0.160783 -5.99885 0
M  V30 2319 H 211.503 -0.86237 -4.7717 0
M  V30 2320 N 212.846 1.57033 -0.133567 0
M  V30 2321 C 213.809 2.14897 0.796995 0
M  V30 2322 C 214.809 1.0874 1.18458 0
M  V30 2323 O 215.999 1.34446 1.1077 0
M  V30 2324 C 213.131 2.70112 2.07973 0
M  V30 2325 H 214.324 2.98457 0.293873 0
M  V30 2326 H 211.877 1.55871 0.115787 0
M  V30 2327 H 212.612 1.9018 2.62682 0
M  V30 2328 H 212.397 3.47764 1.81115 0
M  V30 2329 H 213.887 3.14738 2.74462 0
M  V30 2330 N 214.325 -0.140222 1.56975 0
M  V30 2331 C 215.55 -0.870414 1.88251 0
M  V30 2332 C 215.975 -1.73637 0.723312 0
M  V30 2333 O 215.333 -1.78329 -0.32689 0
M  V30 2334 C 215.381 -1.69737 3.18154 0
M  V30 2335 O 214.485 -2.80229 3.02565 0
M  V30 2336 H 213.826 -0.242025 0.61832 0
M  V30 2337 H 216.356 -0.128999 2.04193 0
M  V30 2338 H 216.366 -2.09099 3.50345 0
M  V30 2339 H 215.041 -1.06152 4.02125 0
M  V30 2340 H 213.618 -2.44224 2.81796 0
M  V30 2341 N 215.803 -1.52179 -0.40978 0
M  V30 2342 C 216.75 -1.75475 -1.49924 0
M  V30 2343 C 217.72 -0.597175 -1.54994 0
M  V30 2344 O 218.905 -0.834655 -1.71575 0
M  V30 2345 C 216.045 -1.9107 -2.87378 0
M  V30 2346 C 215.158 -3.18717 -2.91622 0
M  V30 2347 C 214.293 -3.24747 -4.20372 0
M  V30 2348 C 213.332 -4.46598 -4.18588 0
M  V30 2349 N 212.469 -4.50025 -5.38908 0
M  V30 2350 H 217.309 -2.68458 -1.29361 0
M  V30 2351 H 214.846 -1.33024 -0.627934 0
M  V30 2352 H 216.804 -1.98096 -3.6717 0
M  V30 2353 H 215.434 -1.01469 -3.06437 0
M  V30 2354 H 214.486 -3.20866 -2.04326 0
M  V30 2355 H 215.798 -4.08544 -2.86169 0
M  V30 2356 H 214.952 -3.30841 -5.08556 0
M  V30 2357 H 213.691 -2.32857 -4.28519 0
M  V30 2358 H 212.696 -4.40652 -3.28794 0
M  V30 2359 H 213.921 -5.39783 -4.12081 0
M  V30 2360 H 211.867 -3.61017 -5.47725 0
M  V30 2361 H 211.784 -5.33697 -5.35447 0
M  V30 2362 H 213.052 -4.60347 -6.29048 0
M  V30 2363 N 217.281 0.66697 -1.42791 0
M  V30 2364 C 218.506 1.46004 -1.47301 0
M  V30 2365 C 218.931 1.87894 -0.0880317 0
M  V30 2366 O 218.289 1.56502 0.915253 0
M  V30 2367 C 218.337 2.68031 -2.41229 0
M  V30 2368 O 217.441 3.6659 -1.88906 0
M  V30 2369 H 216.782 0.43832 -0.49877 0
M  V30 2370 H 219.312 0.817391 -1.87563 0
M  V30 2371 H 219.322 3.1601 -2.58073 0
M  V30 2372 H 217.997 2.36883 -3.41847 0
M  V30 2373 H 216.574 3.25661 -1.81656 0
M  V30 2374 N 218.759 1.29093 0.90403 0
M  V30 2375 C 219.706 1.13853 2.00764 0
M  V30 2376 C 220.676 0.0330084 1.66067 0
M  V30 2377 O 221.861 0.199733 1.89752 0
M  V30 2378 C 219.001 0.816537 3.35301 0
M  V30 2379 C 218.114 2.00206 3.82807 0
M  V30 2380 C 217.249 1.61983 5.059 0
M  V30 2381 C 216.288 2.77143 5.45764 0
M  V30 2382 N 215.425 2.39346 6.60044 0
M  V30 2383 H 220.265 2.08276 2.13132 0
M  V30 2384 H 217.802 1.03648 1.04381 0
M  V30 2385 H 219.76 0.610557 4.12708 0
M  V30 2386 H 218.39 -0.090779 3.22672 0
M  V30 2387 H 217.442 2.31988 3.01473 0
M  V30 2388 H 218.754 2.86512 4.08304 0
M  V30 2389 H 217.908 1.37649 5.90879 0
M  V30 2390 H 216.647 0.728202 4.82233 0
M  V30 2391 H 215.652 3.02165 4.59322 0
M  V30 2392 H 216.877 3.66964 5.71414 0
M  V30 2393 H 214.823 1.52665 6.37989 0
M  V30 2394 H 214.74 3.19185 6.85315 0
M  V30 2395 H 216.008 2.1832 7.48303 0
M  V30 2396 N 220.237 -1.11381 1.11499 0
M  V30 2397 C 221.485 -1.8277 0.862524 0
M  V30 2398 C 221.806 -1.85097 -0.613534 0
M  V30 2399 O 221.076 -1.32198 -1.4457 0
M  V30 2400 H 219.656 -0.676823 0.316101 0
M  V30 2401 H 222.318 -1.34816 1.4075 0
M  V30 2402 H 221.414 -2.86614 1.23527 0
M  V30 2403 N 221.715 -0.905404 -1.28997 0
M  V30 2404 C 222.678 -0.392253 -2.25819 0
M  V30 2405 C 223.678 0.476753 -1.5357 0
M  V30 2406 O 224.868 0.280994 -1.71919 0
M  V30 2407 C 222 0.438588 -3.38067 0
M  V30 2408 H 223.193 -1.24743 -2.72725 0
M  V30 2409 H 220.746 -0.684051 -1.40536 0
M  V30 2410 H 221.481 1.31352 -2.96508 0
M  V30 2411 H 221.266 -0.184167 -3.91667 0
M  V30 2412 H 222.756 0.78873 -4.10084 0
M  V30 2413 N 223.193 1.4272 -0.668489 0
M  V30 2414 C 224.156 2.292 0.00448567 0
M  V30 2415 C 225.156 1.43001 0.735339 0
M  V30 2416 O 226.346 1.64461 0.57429 0
M  V30 2417 C 223.478 3.25375 1.01705 0
M  V30 2418 H 224.671 2.90199 -0.756608 0
M  V30 2419 H 222.224 1.50254 -0.430506 0
M  V30 2420 H 222.959 2.69301 1.80686 0
M  V30 2421 H 222.744 3.88944 0.496463 0
M  V30 2422 H 224.234 3.90245 1.48655 0
M  V30 2423 N 224.671 0.411399 1.52136 0
M  V30 2424 C 225.917 -0.163888 2.02137 0
M  V30 2425 C 226.25 -1.44597 1.29636 0
M  V30 2426 O 225.525 -1.90272 0.403353 0
M  V30 2427 C 225.808 -0.40927 3.57767 0
M  V30 2428 C 225.661 0.889643 4.40914 0
M  V30 2429 C 226.98 -1.19042 4.23694 0
M  V30 2430 H 224.099 -0.0580896 0.734707 0
M  V30 2431 H 226.741 0.54531 1.82007 0
M  V30 2432 H 224.891 -1.0134 3.7505 0
M  V30 2433 H 226.563 1.52575 4.35337 0
M  V30 2434 H 224.806 1.50011 4.07037 0
M  V30 2435 H 225.477 0.672314 5.4789 0
M  V30 2436 H 227.953 -0.678942 4.10524 0
M  V30 2437 H 226.829 -1.33086 5.32522 0
M  V30 2438 H 227.09 -2.21166 3.82803 0
M  V30 2439 N 226.149 -1.5696 0.141893 0
M  V30 2440 C 227.096 -2.16501 -0.799737 0
M  V30 2441 C 228.066 -1.09643 -1.24771 0
M  V30 2442 O 229.251 -1.3766 -1.32115 0
M  V30 2443 C 226.391 -2.78679 -2.03549 0
M  V30 2444 C 225.504 -3.99914 -1.6338 0
M  V30 2445 C 224.639 -4.50106 -2.82096 0
M  V30 2446 C 223.678 -5.63819 -2.38275 0
M  V30 2447 N 222.815 -6.08651 -3.49983 0
M  V30 2448 H 227.655 -2.96632 -0.285179 0
M  V30 2449 H 225.192 -1.46533 -0.129053 0
M  V30 2450 H 227.15 -3.1287 -2.75986 0
M  V30 2451 H 225.78 -2.012 -2.52425 0
M  V30 2452 H 224.832 -3.71735 -0.807279 0
M  V30 2453 H 226.144 -4.82311 -1.27192 0
M  V30 2454 H 225.298 -4.86325 -3.62729 0
M  V30 2455 H 224.037 -3.66706 -3.21525 0
M  V30 2456 H 223.042 -5.2718 -1.56081 0
M  V30 2457 H 224.267 -6.49 -1.99938 0
M  V30 2458 H 222.213 -5.28188 -3.89042 0
M  V30 2459 H 222.13 -6.85961 -3.17794 0
M  V30 2460 H 223.398 -6.49515 -4.30988 0
M  V30 2461 N 227.627 0.131896 -1.57047 0
M  V30 2462 C 228.557 1.16384 -2.02428 0
M  V30 2463 C 229.538 1.43936 -0.90644 0
M  V30 2464 O 230.723 1.54599 -1.17528 0
M  V30 2465 C 227.853 2.49328 -2.4177 0
M  V30 2466 C 226.807 2.36266 -3.56879 0
M  V30 2467 C 226.133 3.74057 -3.8208 0
M  V30 2468 C 227.433 1.834 -4.89042 0
M  V30 2469 H 229.127 0.786433 -2.88887 0
M  V30 2470 H 226.673 0.376855 -1.38981 0
M  V30 2471 H 228.626 3.21759 -2.7212 0
M  V30 2472 H 227.35 2.88934 -1.52266 0
M  V30 2473 H 226.009 1.66286 -3.26718 0
M  V30 2474 H 225.657 4.11125 -2.89803 0
M  V30 2475 H 225.357 3.66174 -4.59554 0
M  V30 2476 H 226.881 4.48012 -4.1487 0
M  V30 2477 H 228.295 2.45636 -5.18011 0
M  V30 2478 H 226.692 1.8637 -5.70426 0
M  V30 2479 H 227.762 0.790662 -4.7841 0
M  V30 2480 N 229.106 1.52395 0.401703 0
M  V30 2481 C 230.069 1.75636 1.47257 0
M  V30 2482 C 231.069 0.62628 1.48103 0
M  V30 2483 O 232.259 0.894227 1.49497 0
M  V30 2484 C 229.391 1.84553 2.86624 0
M  V30 2485 H 230.584 2.71241 1.27938 0
M  V30 2486 H 228.137 1.42923 0.632662 0
M  V30 2487 H 228.872 0.908882 3.11303 0
M  V30 2488 H 228.657 2.66715 2.87412 0
M  V30 2489 H 230.147 2.04251 3.64241 0
M  V30 2490 N 230.584 -0.659388 1.43143 0
M  V30 2491 C 231.861 -1.41627 1.34912 0
M  V30 2492 C 232.241 -2.11099 -0.00607785 0
M  V30 2493 O 231.589 -2.04353 -1.02236 0
M  V30 2494 C 231.799 -2.40604 2.52805 0
M  V30 2495 C 233.147 -3.04789 2.95616 0
M  V30 2496 O 234.171 -2.50932 2.52807 0
M  V30 2497 O 233.03 -4.02421 3.69756 0
M  V30 2498 H 230.124 -0.63246 0.532844 0
M  V30 2499 H 232.67 -0.686814 1.5518 0
M  V30 2500 H 231.442 -1.88174 3.43083 0
M  V30 2501 H 231.065 -3.21009 2.34604 0
M  V30 2502 N 232.062 -1.29571 -0.897171 0
M  V30 2503 C 233.309 -1.17689 -1.6479 0
M  V30 2504 C 233.637 0.27107 -1.92602 0
M  V30 2505 O 232.892 1.21193 -1.53658 0
M  V30 2506 C 233.191 -1.9382 -3.00281 0
M  V30 2507 C 232.857 -3.43522 -2.92068 0
M  V30 2508 C 231.519 -3.84348 -2.89535 0
M  V30 2509 C 233.871 -4.38906 -2.81089 0
M  V30 2510 C 231.199 -5.18869 -2.73846 0
M  V30 2511 C 233.551 -5.73521 -2.66939 0
M  V30 2512 C 232.215 -6.13601 -2.62774 0
M  V30 2513 H 231.485 -0.430654 -0.603008 0
M  V30 2514 H 234.132 -1.60536 -1.04404 0
M  V30 2515 H 232.437 -1.4357 -3.64547 0
M  V30 2516 H 234.134 -1.82028 -3.57305 0
M  V30 2517 H 230.724 -3.11072 -2.94842 0
M  V30 2518 H 234.908 -4.08315 -2.82121 0
M  V30 2519 H 230.164 -5.4903 -2.69027 0
M  V30 2520 H 234.338 -6.47078 -2.57416 0
M  V30 2521 H 231.965 -7.17786 -2.50375 0
M  V30 2522 N 233.54 1.10788 -1.12088 0
M  V30 2523 C 234.788 1.8231 -0.872205 0
M  V30 2524 C 235.109 1.85419 0.603709 0
M  V30 2525 O 234.379 1.32963 1.43867 0
M  V30 2526 H 232.959 0.675137 -0.319686 0
M  V30 2527 H 235.621 1.34068 -1.41463 0
M  V30 2528 H 234.717 2.85955 -1.25045 0
M  V30 2529 N 235.018 0.912232 1.28515 0
M  V30 2530 C 235.948 0.416403 2.29757 0
M  V30 2531 C 236.929 -0.515194 1.6211 0
M  V30 2532 O 238.114 -0.423253 1.89532 0
M  V30 2533 C 235.244 -0.34572 3.45575 0
M  V30 2534 C 234.198 0.496599 4.25109 0
M  V30 2535 C 233.524 -0.393771 5.33248 0
M  V30 2536 C 234.824 1.75307 4.92001 0
M  V30 2537 H 236.518 1.26249 2.7148 0
M  V30 2538 H 234.064 0.608515 1.30511 0
M  V30 2539 H 236.017 -0.703422 4.15488 0
M  V30 2540 H 234.741 -1.2257 3.02728 0
M  V30 2541 H 233.4 0.8368 3.56922 0
M  V30 2542 H 233.048 -1.27225 4.86644 0
M  V30 2543 H 232.748 0.166209 5.87365 0
M  V30 2544 H 234.272 -0.747389 6.06009 0
M  V30 2545 H 235.686 1.46437 5.54283 0
M  V30 2546 H 234.083 2.25534 5.56106 0
M  V30 2547 H 235.153 2.48176 4.16577 0
M  V30 2548 N 236.496 -1.42363 0.676048 0
M  V30 2549 C 237.459 -2.29199 0.00766941 0
M  V30 2550 C 238.459 -1.43389 -0.727745 0
M  V30 2551 O 239.649 -1.64764 -0.56556 0
M  V30 2552 C 236.781 -3.2591 -0.999785 0
M  V30 2553 H 237.974 -2.89794 0.771988 0
M  V30 2554 H 235.527 -1.50024 0.438468 0
M  V30 2555 H 236.262 -2.70256 -1.79255 0
M  V30 2556 H 236.047 -3.89202 -0.475829 0
M  V30 2557 H 237.537 -3.91028 -1.46583 0
M  V30 2558 N 237.974 -0.419461 -1.51915 0
M  V30 2559 C 239.223 0.154346 -2.01109 0
M  V30 2560 C 239.536 1.45338 -1.30905 0
M  V30 2561 O 240.742 2.10906 -1.7097 0
M  V30 2562 C 239.198 0.325615 -3.58424 0
M  V30 2563 C 238.806 -0.961934 -4.37551 0
M  V30 2564 C 240.55 0.854155 -4.15818 0
M  V30 2565 C 238.457 -0.757287 -5.86531 0
M  V30 2566 H 237.387 0.0614563 -0.751491 0
M  V30 2567 H 240.038 -0.54649 -1.75173 0
M  V30 2568 H 238.42 1.08903 -3.80731 0
M  V30 2569 H 239.594 -1.7323 -4.26999 0
M  V30 2570 H 237.909 -1.41766 -3.91524 0
M  V30 2571 H 240.506 1.02346 -5.24814 0
M  V30 2572 H 240.849 1.83172 -3.73837 0
M  V30 2573 H 241.382 0.149528 -3.97519 0
M  V30 2574 H 238.121 -1.70671 -6.32892 0
M  V30 2575 H 237.641 -0.0264061 -5.99794 0
M  V30 2576 H 239.32 -0.403482 -6.45741 0
M  V30 2577 N 239.452 1.56882 -0.150215 0
M  V30 2578 C 240.362 2.20494 0.801222 0
M  V30 2579 C 241.378 1.19019 1.26927 0
M  V30 2580 O 242.554 1.51607 1.32579 0
M  V30 2581 C 239.619 2.81659 2.02161 0
M  V30 2582 C 238.68 3.9827 1.60249 0
M  V30 2583 C 237.913 4.56508 2.7647 0
M  V30 2584 O 238.136 4.13627 3.92771 0
M  V30 2585 O 237.07 5.46719 2.51757 0
M  V30 2586 H 240.896 3.02315 0.289717 0
M  V30 2587 H 238.481 1.49202 0.0769684 0
M  V30 2588 H 240.363 3.20522 2.73576 0
M  V30 2589 H 239.038 2.02849 2.52258 0
M  V30 2590 H 237.945 3.64117 0.858477 0
M  V30 2591 H 239.278 4.78609 1.14864 0
M  V30 2592 N 240.93 -0.123565 1.57115 0
M  V30 2593 C 242.176 -0.833386 1.84885 0
M  V30 2594 C 242.509 -1.79742 0.735292 0
M  V30 2595 O 241.784 -1.92764 -0.25925 0
M  V30 2596 C 242.067 -1.5873 3.23228 0
M  V30 2597 C 241.92 -0.643183 4.45178 0
M  V30 2598 C 243.239 -2.54453 3.59085 0
M  V30 2599 H 240.358 -0.301518 0.6725 0
M  V30 2600 H 243 -0.097778 1.89748 0
M  V30 2601 H 241.15 -2.21438 3.19214 0
M  V30 2602 H 242.822 -0.0253015 4.61293 0
M  V30 2603 H 241.065 0.0456139 4.33776 0
M  V30 2604 H 241.736 -1.20724 5.38637 0
M  V30 2605 H 244.212 -2.01853 3.63861 0
M  V30 2606 H 243.088 -3.04238 4.5687 0
M  V30 2607 H 243.349 -3.36906 2.86264 0
M  V30 2608 N 242.408 -1.52605 -0.393616 0
M  V30 2609 C 243.34 -1.73303 -1.49995 0
M  V30 2610 C 244.353 -0.613473 -1.50799 0
M  V30 2611 O 245.542 -0.889049 -1.54784 0
M  V30 2612 C 242.642 -1.77245 -2.88855 0
M  V30 2613 C 241.815 -3.06483 -3.12069 0
M  V30 2614 C 240.874 -3.02033 -4.30886 0
M  V30 2615 O 239.9 -3.75907 -4.27414 0
M  V30 2616 N 241.102 -2.20897 -5.36828 0
M  V30 2617 H 243.867 -2.68756 -1.32629 0
M  V30 2618 H 241.428 -1.51036 -0.583083 0
M  V30 2619 H 243.42 -1.7178 -3.66434 0
M  V30 2620 H 241.99 -0.891993 -2.99603 0
M  V30 2621 H 241.21 -3.25474 -2.22396 0
M  V30 2622 H 242.498 -3.91947 -3.2443 0
M  V30 2623 H 241.896 -1.60336 -5.42502 0
M  V30 2624 H 240.453 -2.21275 -6.13091 0
M  V30 2625 N 243.887 0.651787 -1.4349 0
M  V30 2626 C 245.135 1.40888 -1.44897 0
M  V30 2627 C 245.456 1.94856 -0.0749086 0
M  V30 2628 O 244.726 1.74518 0.889956 0
M  V30 2629 H 243.306 0.522887 -0.533478 0
M  V30 2630 H 245.968 0.768609 -1.79104 0
M  V30 2631 H 245.064 2.25052 -2.16236 0
M  V30 2632 N 245.365 1.30045 0.890287 0
M  V30 2633 C 246.642 1.09227 1.62262 0
M  V30 2634 C 247.022 -0.360305 2.08002 0
M  V30 2635 O 246.37 -1.35084 1.84295 0
M  V30 2636 C 246.58 2.08835 2.79623 0
M  V30 2637 C 247.928 2.40266 3.50082 0
M  V30 2638 O 248.952 2.07104 2.89804 0
M  V30 2639 O 247.811 2.96967 4.58773 0
M  V30 2640 H 244.905 0.419132 0.712922 0
M  V30 2641 H 247.451 1.41451 0.937529 0
M  V30 2642 H 246.223 3.06633 2.43089 0
M  V30 2643 H 245.846 1.77397 3.55832 0
M  V30 2644 N 246.843 -1.10192 1.12674 0
M  V30 2645 C 247.775 -2.16418 0.754701 0
M  V30 2646 C 248.788 -1.61309 -0.21986 0
M  V30 2647 O 249.977 -1.785 -0.000826841 0
M  V30 2648 C 247.077 -3.38762 0.096698 0
M  V30 2649 C 246.25 -4.23307 1.10136 0
M  V30 2650 C 245.309 -5.24092 0.470513 0
M  V30 2651 O 244.335 -5.57906 1.12824 0
M  V30 2652 N 245.537 -5.75491 -0.760948 0
M  V30 2653 H 248.302 -2.48943 1.66875 0
M  V30 2654 H 245.863 -1.25834 1.01869 0
M  V30 2655 H 247.855 -4.03291 -0.337384 0
M  V30 2656 H 246.425 -3.04192 -0.720153 0
M  V30 2657 H 245.645 -3.55036 1.71299 0
M  V30 2658 H 246.933 -4.76624 1.78064 0
M  V30 2659 H 246.331 -5.50222 -1.31424 0
M  V30 2660 H 244.888 -6.41792 -1.13781 0
M  V30 2661 N 248.321 -0.919034 -1.28029 0
M  V30 2662 C 249.253 -0.368762 -2.26214 0
M  V30 2663 C 250.266 0.495716 -1.55069 0
M  V30 2664 O 251.455 0.30974 -1.75792 0
M  V30 2665 C 248.555 0.491049 -3.35324 0
M  V30 2666 C 247.728 -0.352133 -4.3598 0
M  V30 2667 C 246.787 0.443622 -5.24327 0
M  V30 2668 O 245.813 -0.14566 -5.69014 0
M  V30 2669 N 247.015 1.74545 -5.53637 0
M  V30 2670 H 249.78 -1.21273 -2.74068 0
M  V30 2671 H 247.341 -0.785541 -1.41566 0
M  V30 2672 H 249.333 1.03026 -3.91366 0
M  V30 2673 H 247.903 1.23574 -2.87138 0
M  V30 2674 H 247.123 -1.07269 -3.79324 0
M  V30 2675 H 248.411 -0.928883 -5.00249 0
M  V30 2676 H 247.809 2.24666 -5.19174 0
M  V30 2677 H 246.366 2.23138 -6.12416 0
M  V30 2678 N 249.799 1.42003 -0.683588 0
M  V30 2679 C 250.762 2.29191 -0.0198243 0
M  V30 2680 C 251.762 1.43773 0.72013 0
M  V30 2681 O 252.952 1.65061 0.556815 0
M  V30 2682 C 250.084 3.26435 0.982487 0
M  V30 2683 H 251.277 2.8938 -0.787345 0
M  V30 2684 H 248.83 1.49789 -0.446418 0
M  V30 2685 H 249.565 2.71203 1.77819 0
M  V30 2686 H 249.35 3.89449 0.455182 0
M  V30 2687 H 250.84 3.918 1.44508 0
M  V30 2688 N 251.277 0.427512 1.51691 0
M  V30 2689 C 252.523 -0.134744 2.02953 0
M  V30 2690 C 252.878 -1.41235 1.30654 0
M  V30 2691 O 252.171 -1.87168 0.409713 0
M  V30 2692 C 252.365 -0.418249 3.54944 0
M  V30 2693 C 252.194 0.830327 4.41968 0
M  V30 2694 C 250.964 1.36097 4.86627 0
M  V30 2695 C 253.162 1.7137 4.84909 0
M  V30 2696 N 251.144 2.56311 5.57833 0
M  V30 2697 C 252.515 2.76195 5.55082 0
M  V30 2698 C 254.57 1.72928 4.66905 0
M  V30 2699 C 253.273 3.82512 6.09161 0
M  V30 2700 C 255.299 2.78175 5.21894 0
M  V30 2701 C 254.661 3.8172 5.92004 0
M  V30 2702 H 250.76 -0.0103958 0.781931 0
M  V30 2703 H 253.344 0.585981 1.85673 0
M  V30 2704 H 251.515 -1.10801 3.7226 0
M  V30 2705 H 253.247 -0.970999 3.92879 0
M  V30 2706 H 250.002 0.916311 4.64651 0
M  V30 2707 H 250.426 3.17242 5.98069 0
M  V30 2708 H 255.068 0.942081 4.12171 0
M  V30 2709 H 252.786 4.62077 6.62956 0
M  V30 2710 H 256.372 2.8031 5.09821 0
M  V30 2711 H 255.252 4.61821 6.33791 0
M  V30 2712 N 252.755 -1.56801 0.158532 0
M  V30 2713 C 254.002 -1.9649 -0.489679 0
M  V30 2714 C 254.33 -1.04394 -1.6411 0
M  V30 2715 O 253.585 -0.0754401 -1.95555 0
M  V30 2716 C 253.884 -3.4235 -1.02623 0
M  V30 2717 C 253.55 -4.50899 0.00794526 0
M  V30 2718 C 252.212 -4.80312 0.292207 0
M  V30 2719 C 254.564 -5.16333 0.710584 0
M  V30 2720 C 251.892 -5.72461 1.28472 0
M  V30 2721 C 254.244 -6.09553 1.69199 0
M  V30 2722 C 252.908 -6.37339 1.98383 0
M  V30 2723 H 252.178 -0.719009 -0.179186 0
M  V30 2724 H 254.825 -1.8989 0.247798 0
M  V30 2725 H 253.13 -3.45838 -1.84128 0
M  V30 2726 H 254.827 -3.70393 -1.53656 0
M  V30 2727 H 251.417 -4.28015 -0.22379 0
M  V30 2728 H 255.601 -4.93732 0.504174 0
M  V30 2729 H 250.857 -5.92278 1.51714 0
M  V30 2730 H 255.031 -6.59327 2.24189 0
M  V30 2731 H 252.658 -7.08546 2.7544 0
M  V30 2732 N 254.233 0.115231 -1.57178 0
M  V30 2733 C 255.481 0.820727 -1.84685 0
M  V30 2734 C 255.802 1.80237 -0.744279 0
M  V30 2735 O 255.072 1.94529 0.231375 0
M  V30 2736 H 253.652 0.306084 -0.681411 0
M  V30 2737 H 256.314 0.101656 -1.94635 0
M  V30 2738 H 255.41 1.36366 -2.80733 0
M  V30 2739 N 255.711 1.52812 0.385517 0
M  V30 2740 C 256.958 1.68026 1.1302 0
M  V30 2741 C 257.286 0.421934 1.89868 0
M  V30 2742 O 256.541 -0.595749 1.86412 0
M  V30 2743 C 256.84 2.86856 2.13187 0
M  V30 2744 C 256.506 4.24159 1.5297 0
M  V30 2745 C 255.168 4.61501 1.36274 0
M  V30 2746 C 257.52 5.09627 1.09223 0
M  V30 2747 C 254.848 5.81966 0.743837 0
M  V30 2748 C 257.2 6.30719 0.487411 0
M  V30 2749 C 255.864 6.6679 0.307777 0
M  V30 2750 H 255.134 0.614849 0.413571 0
M  V30 2751 H 257.781 1.86962 0.414405 0
M  V30 2752 H 256.086 2.6235 2.90998 0
M  V30 2753 H 257.783 2.95821 2.70722 0
M  V30 2754 H 254.373 3.94746 1.66954 0
M  V30 2755 H 258.557 4.81343 1.20922 0
M  V30 2756 H 253.813 6.08519 0.592891 0
M  V30 2757 H 257.987 6.96259 0.140143 0
M  V30 2758 H 255.614 7.60001 -0.173879 0
M  V30 2759 N 257.189 -0.644168 1.43834 0
M  V30 2760 C 258.152 -1.73857 1.49353 0
M  V30 2761 C 259.152 -1.56315 0.377112 0
M  V30 2762 O 260.342 -1.62048 0.639226 0
M  V30 2763 C 257.474 -3.12819 1.35488 0
M  V30 2764 H 258.667 -1.70342 2.46827 0
M  V30 2765 H 256.22 -0.856652 1.30733 0
M  V30 2766 H 256.955 -3.2194 0.390569 0
M  V30 2767 H 256.74 -3.26958 2.16428 0
M  V30 2768 H 258.23 -3.92606 1.42302 0
M  V30 2769 N 258.668 -1.30515 -0.883378 0
M  V30 2770 C 259.916 -1.19194 -1.63209 0
M  V30 2771 C 260.237 0.253205 -1.93349 0
M  V30 2772 O 259.507 1.17025 -1.57105 0
M  V30 2773 H 258.087 -0.438148 -0.605009 0
M  V30 2774 H 260.749 -1.63663 -1.05832 0
M  V30 2775 H 259.845 -1.75396 -2.58153 0
M  V30 2776 N 260.146 1.09593 -1.13257 0
M  V30 2777 C 261.374 1.855 -0.916378 0
M  V30 2778 C 261.789 1.81069 0.534738 0
M  V30 2779 O 261.146 1.20562 1.37007 0
M  V30 2780 C 261.197 3.33546 -1.39388 0
M  V30 2781 O 260.918 3.37927 -2.78813 0
M  V30 2782 C 262.419 4.26299 -1.21588 0
M  V30 2783 H 259.639 0.585991 -0.326887 0
M  V30 2784 H 262.183 1.38488 -1.5047 0
M  V30 2785 H 260.338 3.77992 -0.848597 0
M  V30 2786 H 260.752 4.30254 -2.9997 0
M  V30 2787 H 262.226 5.28341 -1.59876 0
M  V30 2788 H 262.703 4.38918 -0.157376 0
M  V30 2789 H 263.309 3.87668 -1.7491 0
M  V30 2790 N 261.624 0.925811 1.2754 0
M  V30 2791 C 263.035 0.610102 1.7645 0
M  V30 2792 C 263.386 -0.874723 1.75622 0
M  V30 2793 O 262.511 -1.68444 1.35851 0
M  V30 2794 C 263.106 1.10073 3.20421 0
M  V30 2795 C 261.665 0.835723 3.67005 0
M  V30 2796 C 260.812 1.26054 2.46993 0
M  V30 2797 H 263.763 1.10579 1.13833 0
M  V30 2798 H 263.784 0.447557 3.77859 0
M  V30 2799 H 263.296 2.18143 3.20991 0
M  V30 2800 H 261.397 -0.231249 3.71882 0
M  V30 2801 H 261.51 1.45193 4.56569 0
M  V30 2802 H 259.874 0.679111 2.45479 0
M  V30 2803 H 260.657 2.34984 2.50275 0
M  V30 2804 N 263.102 -1.41638 0.69111 0
M  V30 2805 C 264.35 -2.00902 0.219758 0
M  V30 2806 C 264.671 -1.54994 -1.18329 0
M  V30 2807 O 263.941 -0.778628 -1.79762 0
M  V30 2808 H 262.521 -0.74289 0.0782558 0
M  V30 2809 H 265.183 -1.73327 0.891271 0
M  V30 2810 H 264.279 -3.11224 0.233708 0
M  V30 2811 N 264.58 -0.43555 -1.51462 0
M  V30 2812 C 265.81 0.130053 -2.0619 0
M  V30 2813 C 266.218 1.37164 -1.30317 0
M  V30 2814 O 265.561 1.80225 -0.355598 0
M  V30 2815 C 265.623 0.519418 -3.55728 0
M  V30 2816 C 265.287 -0.615119 -4.52841 0
M  V30 2817 C 266.284 -1.48671 -4.9819 0
M  V30 2818 C 263.969 -0.795341 -4.95963 0
M  V30 2819 C 265.963 -2.52324 -5.8533 0
M  V30 2820 C 263.65 -1.83514 -5.82894 0
M  V30 2821 C 264.648 -2.69748 -6.27475 0
M  V30 2822 O 264.336 -3.71944 -7.1268 0
M  V30 2823 H 264.068 0.0121612 -0.675891 0
M  V30 2824 H 266.622 -0.6129 -1.96043 0
M  V30 2825 H 264.852 1.31505 -3.63653 0
M  V30 2826 H 266.541 1.01597 -3.92979 0
M  V30 2827 H 267.307 -1.359 -4.65571 0
M  V30 2828 H 263.186 -0.133713 -4.60806 0
M  V30 2829 H 266.73 -3.19665 -6.20048 0
M  V30 2830 H 262.627 -1.96306 -6.14926 0
M  V30 2831 H 263.395 -3.68503 -7.30854 0
M  V30 2832 N 266.058 1.56714 -0.166846 0
M  V30 2833 C 266.988 2.20754 0.760913 0
M  V30 2834 C 267.969 1.16178 1.24244 0
M  V30 2835 O 269.154 1.44592 1.29641 0
M  V30 2836 C 266.284 2.84478 1.99223 0
M  V30 2837 C 265.238 3.95053 1.64672 0
M  V30 2838 C 264.564 4.45805 2.95232 0
M  V30 2839 C 265.864 5.14865 0.878155 0
M  V30 2840 H 267.558 2.98537 0.22713 0
M  V30 2841 H 265.104 1.43596 0.107805 0
M  V30 2842 H 267.057 3.27951 2.64624 0
M  V30 2843 H 265.781 2.04056 2.55007 0
M  V30 2844 H 264.44 3.52228 1.01641 0
M  V30 2845 H 264.088 3.62181 3.49047 0
M  V30 2846 H 263.788 5.204 2.7287 0
M  V30 2847 H 265.312 4.91962 3.6167 0
M  V30 2848 H 266.726 5.55059 1.43466 0
M  V30 2849 H 265.123 5.95348 0.753738 0
M  V30 2850 H 266.193 4.84735 -0.126377 0
M  V30 2851 N 267.536 -0.106894 1.57237 0
M  V30 2852 C 268.761 -0.830287 1.90055 0
M  V30 2853 C 269.186 -1.72064 0.75998 0
M  V30 2854 O 268.544 -1.78982 -0.288991 0
M  V30 2855 C 268.592 -1.6295 3.21683 0
M  V30 2856 O 267.696 -2.73748 3.08441 0
M  V30 2857 H 267.037 -0.228855 0.623315 0
M  V30 2858 H 269.567 -0.085658 2.04421 0
M  V30 2859 H 269.577 -2.01621 3.54701 0
M  V30 2860 H 268.252 -0.975989 4.04286 0
M  V30 2861 H 266.829 -2.38192 2.86913 0
M  V30 2862 N 269.014 -1.53014 -0.377408 0
M  V30 2863 C 270.425 -1.60438 -0.954798 0
M  V30 2864 C 270.776 -0.464418 -1.90624 0
M  V30 2865 O 269.901 0.41087 -2.12464 0
M  V30 2866 C 270.496 -2.90797 -1.73847 0
M  V30 2867 C 269.055 -3.00595 -2.26538 0
M  V30 2868 C 268.202 -2.55645 -1.07429 0
M  V30 2869 H 271.153 -1.57926 -0.156575 0
M  V30 2870 H 271.174 -2.77935 -2.5987 0
M  V30 2871 H 270.686 -3.73746 -1.04574 0
M  V30 2872 H 268.787 -2.22208 -2.99089 0
M  V30 2873 H 268.9 -4.05456 -2.5523 0
M  V30 2874 H 267.264 -2.10239 -1.43777 0
M  V30 2875 H 268.047 -3.41 -0.396728 0
M  V30 2876 N 270.492 0.636531 -1.44174 0
M  V30 2877 C 271.402 1.77754 -1.53103 0
M  V30 2878 C 272.418 1.68928 -0.417034 0
M  V30 2879 O 273.594 1.89801 -0.6736 0
M  V30 2880 C 270.659 3.14115 -1.46741 0
M  V30 2881 C 269.72 3.34612 -2.68948 0
M  V30 2882 C 268.953 4.64467 -2.6288 0
M  V30 2883 O 269.176 5.44919 -1.68581 0
M  V30 2884 O 268.11 4.87049 -3.53648 0
M  V30 2885 H 271.936 1.73174 -2.49489 0
M  V30 2886 H 269.521 0.79709 -1.2636 0
M  V30 2887 H 271.403 3.95412 -1.45696 0
M  V30 2888 H 270.078 3.19249 -0.534975 0
M  V30 2889 H 268.985 2.53014 -2.75562 0
M  V30 2890 H 270.318 3.34336 -3.61221 0
M  V30 2891 N 271.97 1.30982 0.876444 0
M  V30 2892 C 273.216 1.20474 1.63138 0
M  V30 2893 C 273.549 -0.238096 1.92735 0
M  V30 2894 O 272.824 -1.1692 1.55435 0
M  V30 2895 C 273.107 2.04244 2.96574 0
M  V30 2896 C 272.96 3.56793 2.73896 0
M  V30 2897 C 274.279 1.88684 3.97601 0
M  V30 2898 H 271.398 0.439001 0.591985 0
M  V30 2899 H 274.04 1.60704 1.01361 0
M  V30 2900 H 272.19 1.70063 3.493 0
M  V30 2901 H 273.862 4.01077 2.27892 0
M  V30 2902 H 272.105 3.80548 2.08245 0
M  V30 2903 H 272.776 4.10706 3.68815 0
M  V30 2904 H 275.252 2.18584 3.54062 0
M  V30 2905 H 274.128 2.4961 4.88862 0
M  V30 2906 H 274.389 0.848343 4.33884 0
M  V30 2907 N 273.449 -1.08991 1.13837 0
M  V30 2908 C 274.379 -2.17771 0.842507 0
M  V30 2909 C 275.36 -1.6892 -0.20001 0
M  V30 2910 O 276.545 -1.94113 -0.0579731 0
M  V30 2911 C 273.675 -3.4589 0.312644 0
M  V30 2912 C 272.629 -4.08099 1.28992 0
M  V30 2913 C 271.955 -5.31098 0.619623 0
M  V30 2914 C 273.255 -4.50077 2.65005 0
M  V30 2915 H 274.949 -2.42777 1.75213 0
M  V30 2916 H 272.495 -1.16682 0.843875 0
M  V30 2917 H 274.448 -4.21297 0.0933043 0
M  V30 2918 H 273.172 -3.20419 -0.632382 0
M  V30 2919 H 271.831 -3.34717 1.49533 0
M  V30 2920 H 271.479 -5.0191 -0.33102 0
M  V30 2921 H 271.179 -5.73674 1.27167 0
M  V30 2922 H 272.703 -6.09224 0.409669 0
M  V30 2923 H 274.117 -5.16688 2.48407 0
M  V30 2924 H 272.514 -5.03553 3.26427 0
M  V30 2925 H 273.584 -3.62257 3.22332 0
M  V30 2926 N 274.927 -0.932562 -1.27047 0
M  V30 2927 C 276.343 -0.633544 -1.46487 0
M  V30 2928 C 276.543 0.815746 -1.84249 0
M  V30 2929 O 275.599 1.59319 -1.95892 0
M  V30 2930 C 276.912 -1.58758 -2.55375 0
M  V30 2931 C 278.46 -1.59634 -2.69232 0
M  V30 2932 C 278.935 -2.53747 -3.81283 0
M  V30 2933 N 280.426 -2.51982 -3.88664 0
M  V30 2934 C 281.161 -3.21491 -4.74796 0
M  V30 2935 N 280.657 -4.00395 -5.65381 0
M  V30 2936 N 282.45 -3.10485 -4.68568 0
M  V30 2937 H 274.601 -1.86946 -1.00821 0
M  V30 2938 H 276.864 -0.802897 -0.504044 0
M  V30 2939 H 276.57 -2.62172 -2.34432 0
M  V30 2940 H 276.444 -1.33301 -3.52861 0
M  V30 2941 H 278.831 -0.569488 -2.89553 0
M  V30 2942 H 278.912 -1.89142 -1.72218 0
M  V30 2943 H 278.556 -3.56545 -3.61715 0
M  V30 2944 H 278.486 -2.21532 -4.77735 0
M  V30 2945 H 280.977 -1.94681 -3.23895 0
M  V30 2946 H 281.29 -4.50406 -6.27976 0
M  V30 2947 H 279.635 -4.04498 -5.65161 0
M  V30 2948 H 282.826 -2.48331 -3.96799 0
M  V30 2949 H 282.999 -3.64925 -5.35475 0
M  V30 2950 N 276.405 1.4127 -0.698611 0
M  V30 2951 C 277.352 2.30773 -0.0352094 0
M  V30 2952 C 278.322 1.47273 0.768111 0
M  V30 2953 O 279.507 1.76053 0.735524 0
M  V30 2954 C 276.647 3.33346 0.893 0
M  V30 2955 C 275.76 4.31924 0.0809695 0
M  V30 2956 C 274.895 5.21566 1.0071 0
M  V30 2957 C 273.934 6.11811 0.188155 0
M  V30 2958 N 273.071 6.93926 1.06825 0
M  V30 2959 H 277.911 2.86943 -0.804207 0
M  V30 2960 H 275.448 1.4132 -0.408294 0
M  V30 2961 H 277.406 3.91368 1.44523 0
M  V30 2962 H 276.036 2.78719 1.62836 0
M  V30 2963 H 275.088 3.75825 -0.588224 0
M  V30 2964 H 276.4 4.95716 -0.553801 0
M  V30 2965 H 275.554 5.84437 1.62845 0
M  V30 2966 H 274.293 4.58008 1.67572 0
M  V30 2967 H 273.298 5.47986 -0.446254 0
M  V30 2968 H 274.523 6.77425 -0.476716 0
M  V30 2969 H 272.469 6.32973 1.72283 0
M  V30 2970 H 272.386 7.54416 0.489123 0
M  V30 2971 H 273.654 7.61262 1.67632 0
M  V30 2972 N 277.883 0.443576 1.51229 0
M  V30 2973 C 279.16 -0.181038 1.9476 0
M  V30 2974 C 279.54 -1.59523 1.38259 0
M  V30 2975 O 278.888 -2.2122 0.572198 0
M  V30 2976 C 279.098 -0.152422 3.48667 0
M  V30 2977 C 280.446 -0.354923 4.23114 0
M  V30 2978 O 281.47 -0.230257 3.55455 0
M  V30 2979 O 280.329 -0.603674 5.43156 0
M  V30 2980 H 277.423 -0.1266 0.817252 0
M  V30 2981 H 279.969 0.502004 1.62105 0
M  V30 2982 H 278.741 0.836022 3.82265 0
M  V30 2983 H 278.364 -0.878107 3.87782 0
M  V30 2984 N 279.361 -1.56624 0.175154 0
M  V30 2985 C 280.772 -1.83561 -0.340916 0
M  V30 2986 C 281.123 -1.09511 -1.62794 0
M  V30 2987 O 280.248 -0.349389 -2.13561 0
M  V30 2988 C 280.843 -3.32979 -0.625313 0
M  V30 2989 C 279.402 -3.60399 -1.08581 0
M  V30 2990 C 278.549 -2.77024 -0.123722 0
M  V30 2991 H 281.5 -1.53593 0.399344 0
M  V30 2992 H 281.521 -3.50666 -1.47694 0
M  V30 2993 H 281.033 -3.86847 0.311575 0
M  V30 2994 H 279.134 -3.11945 -2.03767 0
M  V30 2995 H 279.247 -4.68711 -0.992317 0
M  V30 2996 H 277.611 -2.46993 -0.621821 0
M  V30 2997 H 278.394 -3.33674 0.807256 0
M  V30 2998 N 280.839 0.0985539 -1.57292 0
M  V30 2999 C 282.069 0.815135 -1.8984 0
M  V30 3000 C 282.477 1.7297 -0.766679 0
M  V30 3001 O 281.82 1.81698 0.270483 0
M  V30 3002 C 281.882 1.6842 -3.17608 0
M  V30 3003 C 281.546 0.94182 -4.4719 0
M  V30 3004 C 282.543 0.273212 -5.19182 0
M  V30 3005 C 280.228 0.916927 -4.9386 0
M  V30 3006 C 282.222 -0.410361 -6.36078 0
M  V30 3007 C 279.909 0.229567 -6.10669 0
M  V30 3008 C 280.907 -0.432902 -6.81627 0
M  V30 3009 O 280.595 -1.10925 -7.9621 0
M  V30 3010 H 280.327 0.238501 -0.632529 0
M  V30 3011 H 282.881 0.0812659 -2.05239 0
M  V30 3012 H 281.111 2.46022 -2.98345 0
M  V30 3013 H 282.8 2.27704 -3.36015 0
M  V30 3014 H 283.566 0.283927 -4.84168 0
M  V30 3015 H 279.445 1.42201 -4.3852 0
M  V30 3016 H 282.989 -0.928013 -6.914 0
M  V30 3017 H 278.886 0.216686 -6.45136 0
M  V30 3018 H 279.654 -1.01579 -8.12172 0
M  V30 3019 N 282.317 1.53212 0.369288 0
M  V30 3020 C 283.565 1.68881 1.11012 0
M  V30 3021 C 283.886 0.441285 1.89941 0
M  V30 3022 O 283.156 -0.544623 1.88177 0
M  V30 3023 H 281.736 0.622569 0.412816 0
M  V30 3024 H 284.398 1.90391 0.416802 0
M  V30 3025 H 283.494 2.54822 1.80201 0
M  V30 3026 N 283.795 -0.628877 1.44509 0
M  V30 3027 C 284.742 -1.74074 1.51549 0
M  V30 3028 C 285.712 -1.62084 0.363021 0
M  V30 3029 O 286.897 -1.81975 0.573567 0
M  V30 3030 C 284.037 -3.12328 1.46784 0
M  V30 3031 C 283.15 -3.35277 2.72422 0
M  V30 3032 C 282.285 -4.63515 2.59475 0
M  V30 3033 C 281.324 -4.7965 3.80266 0
M  V30 3034 N 280.461 -5.99168 3.65981 0
M  V30 3035 H 285.301 -1.67392 2.46544 0
M  V30 3036 H 282.838 -0.816527 1.22357 0
M  V30 3037 H 284.796 -3.92286 1.42012 0
M  V30 3038 H 283.426 -3.18018 0.553544 0
M  V30 3039 H 282.478 -2.49242 2.87372 0
M  V30 3040 H 283.79 -3.43078 3.62076 0
M  V30 3041 H 282.944 -5.51638 2.52548 0
M  V30 3042 H 281.683 -4.58076 1.67384 0
M  V30 3043 H 280.688 -3.89957 3.87574 0
M  V30 3044 H 281.913 -4.86902 4.73395 0
M  V30 3045 H 279.859 -5.94814 2.76644 0
M  V30 3046 H 279.776 -6.08035 4.49254 0
M  V30 3047 H 281.044 -6.89846 3.6295 0
M  V30 3048 N 285.273 -1.31445 -0.869486 0
M  V30 3049 C 286.684 -1.19042 -1.43826 0
M  V30 3050 C 287.035 0.202919 -1.95148 0
M  V30 3051 O 286.16 1.10071 -1.86315 0
M  V30 3052 C 286.755 -2.15499 -2.6143 0
M  V30 3053 C 285.314 -2.07028 -3.14351 0
M  V30 3054 C 284.461 -2.04701 -1.87063 0
M  V30 3055 H 287.412 -1.43489 -0.677984 0
M  V30 3056 H 287.433 -1.74488 -3.38134 0
M  V30 3057 H 286.945 -3.16899 -2.24046 0
M  V30 3058 H 285.046 -1.08825 -3.56354 0
M  V30 3059 H 285.159 -2.96157 -3.766 0
M  V30 3060 H 283.523 -1.49724 -2.06046 0
M  V30 3061 H 284.306 -3.07857 -1.51917 0
M  V30 3062 N 286.751 1.08385 -1.14413 0
M  V30 3063 C 287.997 1.81044 -0.913834 0
M  V30 3064 C 288.33 1.86004 0.558209 0
M  V30 3065 O 287.605 1.33606 1.4135 0
M  V30 3066 C 287.888 3.26648 -1.51569 0
M  V30 3067 C 287.741 3.29895 -3.0576 0
M  V30 3068 C 289.06 4.23629 -1.19273 0
M  V30 3069 H 286.179 0.65727 -0.333414 0
M  V30 3070 H 288.821 1.26896 -1.41412 0
M  V30 3071 H 286.971 3.72889 -1.09023 0
M  V30 3072 H 288.643 2.91977 -3.57137 0
M  V30 3073 H 286.886 2.69163 -3.40197 0
M  V30 3074 H 287.557 4.32516 -3.42977 0
M  V30 3075 H 290.033 3.85727 -1.56057 0
M  V30 3076 H 288.909 5.23822 -1.64017 0
M  V30 3077 H 289.17 4.41968 -0.108068 0
M  V30 3078 N 288.23 0.939286 1.26551 0
M  V30 3079 C 289.507 0.5038 1.89001 0
M  V30 3080 C 289.887 -1.01854 1.84903 0
M  V30 3081 O 289.235 -1.87773 1.30206 0
M  V30 3082 C 289.445 1.063 3.32417 0
M  V30 3083 C 290.793 1.13051 4.09273 0
M  V30 3084 O 291.817 1.01345 3.41479 0
M  V30 3085 O 290.676 1.31233 5.30509 0
M  V30 3086 H 287.77 0.163897 0.810597 0
M  V30 3087 H 290.316 1.03173 1.34735 0
M  V30 3088 H 289.088 2.10665 3.29752 0
M  V30 3089 H 288.711 0.517408 3.94219 0
M  V30 3090 N 289.708 -1.40897 0.706093 0
M  V30 3091 C 290.641 -2.282 -0.00328781 0
M  V30 3092 C 291.619 -1.42816 -0.77732 0
M  V30 3093 O 292.803 -1.72237 -0.765944 0
M  V30 3094 C 289.93 -3.23226 -1.01205 0
M  V30 3095 C 288.976 -4.25222 -0.329955 0
M  V30 3096 S 289.809 -5.27269 0.935298 0
M  V30 3097 C 290.965 -6.25859 -0.0716061 0
M  V30 3098 H 291.198 -2.88016 0.737143 0
M  V30 3099 H 288.731 -1.46191 0.496756 0
M  V30 3100 H 290.689 -3.78503 -1.58888 0
M  V30 3101 H 289.35 -2.62485 -1.72513 0
M  V30 3102 H 288.543 -4.92023 -1.09221 0
M  V30 3103 H 288.145 -3.73595 0.174069 0
M  V30 3104 H 290.437 -6.71204 -0.921521 0
M  V30 3105 H 291.38 -7.0586 0.562765 0
M  V30 3106 H 291.788 -5.62852 -0.431088 0
M  V30 3107 N 291.186 -0.45159 -1.50991 0
M  V30 3108 C 292.432 0.102439 -2.03142 0
M  V30 3109 C 292.787 1.39138 -1.32884 0
M  V30 3110 O 292.08 1.86493 -0.439438 0
M  V30 3111 C 292.274 0.361728 -3.55565 0
M  V30 3112 C 292.103 -0.900535 -4.40591 0
M  V30 3113 C 290.873 -1.43821 -4.844 0
M  V30 3114 C 293.071 -1.79063 -4.82121 0
M  V30 3115 N 291.053 -2.65153 -5.53685 0
M  V30 3116 C 292.424 -2.84991 -5.50618 0
M  V30 3117 C 294.479 -1.80334 -4.64095 0
M  V30 3118 C 293.182 -3.92155 -6.02998 0
M  V30 3119 C 295.208 -2.86442 -5.17402 0
M  V30 3120 C 294.57 -3.9109 -5.85857 0
M  V30 3121 H 290.669 -0.00204537 -0.781997 0
M  V30 3122 H 293.253 -0.615446 -1.84717 0
M  V30 3123 H 291.424 1.04865 -3.73976 0
M  V30 3124 H 293.156 0.908372 -3.94374 0
M  V30 3125 H 289.911 -0.990117 -4.63135 0
M  V30 3126 H 290.335 -3.26717 -5.92946 0
M  V30 3127 H 294.977 -1.00753 -4.1062 0
M  V30 3128 H 292.695 -4.72565 -6.55521 0
M  V30 3129 H 296.281 -2.88386 -5.05297 0
M  V30 3130 H 295.161 -4.71845 -6.26364 0
M  V30 3131 N 292.664 1.56529 -0.183458 0
M  V30 3132 C 293.627 2.17324 0.728223 0
M  V30 3133 C 294.627 1.12453 1.14939 0
M  V30 3134 O 295.817 1.37902 1.06437 0
M  V30 3135 C 292.949 2.76591 1.99274 0
M  V30 3136 H 294.142 2.99241 0.198772 0
M  V30 3137 H 291.695 1.5616 0.0661391 0
M  V30 3138 H 292.43 1.98441 2.56499 0
M  V30 3139 H 292.215 3.5335 1.69959 0
M  V30 3140 H 293.705 3.23311 2.6431 0
M  V30 3141 N 294.142 -0.090211 1.57342 0
M  V30 3142 C 295.382 -0.798365 1.88163 0
M  V30 3143 C 295.746 -1.75662 0.775046 0
M  V30 3144 O 296.947 -2.50849 0.965816 0
M  V30 3145 C 295.218 -1.50376 3.24225 0
M  V30 3146 S 296.777 -2.24952 3.76752 0
M  V30 3147 H 293.595 -0.265883 0.659414 0
M  V30 3148 H 296.197 -0.055264 1.95422 0
M  V30 3149 H 294.901 -0.792286 4.0268 0
M  V30 3150 H 294.432 -2.28666 3.20118 0
M  V30 3151 H 296.447 -3.51173 3.5056 0
M  V30 3152 N 295.62 -1.53406 -0.361157 0
M  V30 3153 C 296.868 -1.69467 -1.10115 0
M  V30 3154 C 297.189 -0.451352 -1.89705 0
M  V30 3155 O 296.459 0.534636 -1.88463 0
M  V30 3156 H 295.039 -0.624749 -0.409508 0
M  V30 3157 H 297.701 -1.90609 -0.406699 0
M  V30 3158 H 296.797 -2.55774 -1.78847 0
M  V30 3159 N 297.098 0.621204 -1.44841 0
M  V30 3160 C 298.344 1.3826 -1.48365 0
M  V30 3161 C 298.677 1.93831 -0.119624 0
M  V30 3162 O 297.952 1.74251 0.864111 0
M  V30 3163 C 298.235 2.54058 -2.55199 0
M  V30 3164 C 298.088 2.03772 -4.00995 0
M  V30 3165 C 299.407 3.56225 -2.58442 0
M  V30 3166 H 296.526 0.501374 -0.540179 0
M  V30 3167 H 299.168 0.7015 -1.76576 0
M  V30 3168 H 297.318 3.12162 -2.31274 0
M  V30 3169 H 298.99 1.50423 -4.36086 0
M  V30 3170 H 297.233 1.34876 -4.12299 0
M  V30 3171 H 297.904 2.87185 -4.71411 0
M  V30 3172 H 300.38 3.07939 -2.79844 0
M  V30 3173 H 299.256 4.34756 -3.3508 0
M  V30 3174 H 299.517 4.10949 -1.63013 0
M  V30 3175 N 298.576 1.31904 0.862503 0
M  V30 3176 C 299.825 1.21373 1.61094 0
M  V30 3177 C 300.138 -0.22504 1.94301 0
M  V30 3178 O 301.344 -0.452121 2.67709 0
M  V30 3179 C 299.8 2.12525 2.9045 0
M  V30 3180 C 299.408 3.61441 2.64697 0
M  V30 3181 C 301.152 2.10813 3.68454 0
M  V30 3182 C 299.059 4.44578 3.90006 0
M  V30 3183 H 297.989 0.450705 0.604468 0
M  V30 3184 H 300.64 1.56811 0.953027 0
M  V30 3185 H 299.022 1.69994 3.57656 0
M  V30 3186 H 300.196 4.12264 2.05851 0
M  V30 3187 H 298.511 3.65205 2.00036 0
M  V30 3188 H 301.108 2.70167 4.61426 0
M  V30 3189 H 301.451 1.09713 4.01583 0
M  V30 3190 H 301.984 2.51583 3.08141 0
M  V30 3191 H 298.723 5.46461 3.62023 0
M  V30 3192 H 298.243 3.98508 4.48276 0
M  V30 3193 H 299.922 4.57176 4.5782 0
M  V30 3194 N 300.054 -1.07777 1.14986 0
M  V30 3195 C 300.984 -2.16865 0.865557 0
M  V30 3196 C 301.965 -1.69123 -0.182083 0
M  V30 3197 O 303.15 -1.94164 -0.0373815 0
M  V30 3198 C 300.28 -3.45539 0.349313 0
M  V30 3199 C 299.234 -4.06708 1.33313 0
M  V30 3200 C 298.56 -5.30411 0.675918 0
M  V30 3201 C 299.86 -4.47241 2.69764 0
M  V30 3202 H 301.554 -2.40905 1.77778 0
M  V30 3203 H 299.1 -1.15781 0.856203 0
M  V30 3204 H 301.053 -4.21174 0.137983 0
M  V30 3205 H 299.777 -3.21072 -0.598362 0
M  V30 3206 H 298.436 -3.33112 1.53075 0
M  V30 3207 H 298.084 -5.02232 -0.277767 0
M  V30 3208 H 297.784 -5.72293 1.33244 0
M  V30 3209 H 299.308 -6.08755 0.474262 0
M  V30 3210 H 300.722 -5.14025 2.53873 0
M  V30 3211 H 299.119 -5.00062 3.3175 0
M  V30 3212 H 300.189 -3.58818 3.26156 0
M  V30 3213 N 301.532 -0.945985 -1.26051 0
M  V30 3214 C 302.762 -0.612136 -1.97323 0
M  V30 3215 C 303.17 0.818171 -1.70595 0
M  V30 3216 O 302.513 1.55777 -0.973613 0
M  V30 3217 C 302.575 -0.780347 -3.50929 0
M  V30 3218 C 302.239 -2.18619 -4.01317 0
M  V30 3219 C 303.236 -3.16209 -4.12683 0
M  V30 3220 C 300.921 -2.50805 -4.35203 0
M  V30 3221 C 302.915 -4.44085 -4.57238 0
M  V30 3222 C 300.602 -3.78912 -4.79446 0
M  V30 3223 C 301.6 -4.75365 -4.90425 0
M  V30 3224 O 301.288 -6.01191 -5.3369 0
M  V30 3225 H 301.02 -0.229134 -0.635982 0
M  V30 3226 H 303.574 -1.27036 -1.61404 0
M  V30 3227 H 301.804 -0.0649864 -3.86645 0
M  V30 3228 H 303.493 -0.448842 -4.03411 0
M  V30 3229 H 304.259 -2.92668 -3.86744 0
M  V30 3230 H 300.138 -1.76463 -4.2589 0
M  V30 3231 H 303.682 -5.19373 -4.65723 0
M  V30 3232 H 299.579 -4.02265 -5.0483 0
M  V30 3233 H 300.347 -6.04442 -5.51899 0
M  V30 3234 N 303.011 1.40521 -0.713556 0
M  V30 3235 C 304.26 2.00155 -0.249192 0
M  V30 3236 C 304.573 1.57224 1.16362 0
M  V30 3237 O 305.779 2.09542 1.72639 0
M  V30 3238 C 304.235 3.5773 -0.3946 0
M  V30 3239 C 303.843 4.09635 -1.81392 0
M  V30 3240 C 305.587 4.24499 0.00907364 0
M  V30 3241 C 303.494 5.59707 -1.91003 0
M  V30 3242 H 302.424 0.74868 -0.0894114 0
M  V30 3243 H 305.075 1.60784 -0.884352 0
M  V30 3244 H 303.457 3.94792 0.30911 0
M  V30 3245 H 304.631 3.83955 -2.54785 0
M  V30 3246 H 302.946 3.55456 -2.16888 0
M  V30 3247 H 305.543 5.34683 -0.0420404 0
M  V30 3248 H 305.886 4.02824 1.05065 0
M  V30 3249 H 306.419 3.92536 -0.645007 0
M  V30 3250 H 303.158 5.86234 -2.93275 0
M  V30 3251 H 302.678 5.87258 -1.22019 0
M  V30 3252 H 304.357 6.24776 -1.6812 0
M  V30 3253 N 304.489 0.459591 1.5075 0
M  V30 3254 C 305.419 -0.330644 2.31147 0
M  V30 3255 C 306.4 -1.00087 1.37538 0
M  V30 3256 O 307.585 -1.00025 1.66459 0
M  V30 3257 C 304.715 -1.41958 3.16962 0
M  V30 3258 C 303.669 -0.871608 4.19031 0
M  V30 3259 C 302.995 -2.05797 4.9351 0
M  V30 3260 C 304.295 0.109251 5.22186 0
M  V30 3261 H 305.989 0.340336 2.97459 0
M  V30 3262 H 303.535 0.165119 1.4305 0
M  V30 3263 H 305.488 -1.9798 3.71997 0
M  V30 3264 H 304.212 -2.11917 2.48513 0
M  V30 3265 H 302.871 -0.333442 3.6508 0
M  V30 3266 H 302.519 -2.74427 4.21544 0
M  V30 3267 H 302.219 -1.6976 5.62544 0
M  V30 3268 H 303.743 -2.62331 5.51375 0
M  V30 3269 H 305.157 -0.361405 5.7216 0
M  V30 3270 H 303.554 0.383316 5.98875 0
M  V30 3271 H 304.624 1.03887 4.73641 0
M  V30 3272 N 305.967 -1.56429 0.191757 0
M  V30 3273 C 306.897 -2.21937 -0.725696 0
M  V30 3274 C 307.878 -1.1814 -1.2238 0
M  V30 3275 O 309.063 -1.46636 -1.27325 0
M  V30 3276 C 306.193 -2.87611 -1.94672 0
M  V30 3277 C 305.147 -3.97623 -1.58366 0
M  V30 3278 C 304.473 -4.50446 -2.88102 0
M  V30 3279 C 305.773 -5.16197 -0.796133 0
M  V30 3280 H 307.467 -2.98861 -0.179606 0
M  V30 3281 H 305.013 -1.43749 -0.0849464 0
M  V30 3282 H 306.966 -3.3212 -2.59373 0
M  V30 3283 H 305.69 -2.08087 -2.51728 0
M  V30 3284 H 304.349 -3.53801 -0.960247 0
M  V30 3285 H 303.997 -3.67688 -3.43241 0
M  V30 3286 H 303.697 -5.24675 -2.64556 0
M  V30 3287 H 305.221 -4.97654 -3.53798 0
M  V30 3288 H 306.635 -5.57271 -1.34618 0
M  V30 3289 H 305.032 -5.96471 -0.658928 0
M  V30 3290 H 306.102 -4.84473 0.203478 0
M  V30 3291 N 307.445 0.0818655 -1.57387 0
M  V30 3292 C 308.691 0.784074 -1.8703 0
M  V30 3293 C 309.024 1.77729 -0.782689 0
M  V30 3294 O 308.299 1.93384 0.208051 0
M  V30 3295 C 308.582 1.50105 -3.27323 0
M  V30 3296 C 308.435 0.524925 -4.46727 0
M  V30 3297 C 309.754 2.44843 -3.65705 0
M  V30 3298 H 306.873 0.283582 -0.680257 0
M  V30 3299 H 309.515 0.0474352 -1.89941 0
M  V30 3300 H 307.665 2.12897 -3.24972 0
M  V30 3301 H 309.337 -0.0970111 -4.61198 0
M  V30 3302 H 307.58 -0.160606 -4.33503 0
M  V30 3303 H 308.251 1.064 -5.41648 0
M  V30 3304 H 310.727 1.92135 -3.69085 0
M  V30 3305 H 309.603 2.92018 -4.64776 0
M  V30 3306 H 309.864 3.29197 -2.95096 0
M  V30 3307 N 308.923 1.53595 0.353017 0
M  V30 3308 C 310.171 1.70049 1.09215 0
M  V30 3309 C 310.492 0.461406 1.89463 0
M  V30 3310 O 309.762 -0.524633 1.88744 0
M  V30 3311 H 308.342 0.626912 0.40619 0
M  V30 3312 H 311.004 1.90822 0.396585 0
M  V30 3313 H 310.1 2.56718 1.77488 0
M  V30 3314 N 310.401 -0.613514 1.45168 0
M  V30 3315 C 311.631 -1.39743 1.52169 0
M  V30 3316 C 312.039 -1.88596 0.151086 0
M  V30 3317 O 311.382 -1.6251 -0.856521 0
M  V30 3318 C 311.444 -2.64035 2.43979 0
M  V30 3319 C 311.108 -2.36861 3.90827 0
M  V30 3320 C 312.105 -1.97591 4.80889 0
M  V30 3321 C 309.79 -2.49956 4.35692 0
M  V30 3322 C 311.784 -1.71768 6.1382 0
M  V30 3323 C 309.471 -2.23747 5.68665 0
M  V30 3324 C 310.469 -1.84714 6.57548 0
M  V30 3325 O 310.157 -1.58809 7.88058 0
M  V30 3326 H 309.889 -0.434382 0.517966 0
M  V30 3327 H 312.443 -0.75587 1.90986 0
M  V30 3328 H 310.673 -3.3089 2.00122 0
M  V30 3329 H 312.362 -3.26069 2.41731 0
M  V30 3330 H 313.128 -1.87015 4.47493 0
M  V30 3331 H 309.007 -2.79305 3.66756 0
M  V30 3332 H 312.551 -1.41227 6.83155 0
M  V30 3333 H 308.448 -2.33938 6.01617 0
M  V30 3334 H 309.216 -1.7291 8.00028 0
M  V30 3335 N 311.879 -1.3236 -0.855495 0
M  V30 3336 C 313.29 -1.2056 -1.42556 0
M  V30 3337 C 313.641 0.182209 -1.95352 0
M  V30 3338 O 312.766 1.08088 -1.87472 0
M  V30 3339 C 313.361 -2.1826 -2.59129 0
M  V30 3340 C 311.92 -2.10351 -3.12137 0
M  V30 3341 C 311.067 -2.06674 -1.84882 0
M  V30 3342 H 314.018 -1.442 -0.662727 0
M  V30 3343 H 314.039 -1.78064 -3.36264 0
M  V30 3344 H 313.551 -3.19257 -2.20673 0
M  V30 3345 H 311.652 -1.12599 -3.55179 0
M  V30 3346 H 311.765 -3.00135 -3.73438 0
M  V30 3347 H 310.129 -1.51901 -2.04446 0
M  V30 3348 H 310.912 -3.09451 -1.48643 0
M  V30 3349 N 313.357 1.07166 -1.15556 0
M  V30 3350 C 314.768 1.6127 -0.940693 0
M  V30 3351 C 315.119 1.89251 0.517551 0
M  V30 3352 O 314.244 1.65937 1.38903 0
M  V30 3353 C 314.839 2.92993 -1.7012 0
M  V30 3354 C 313.398 3.43832 -1.53156 0
M  V30 3355 C 312.545 2.1786 -1.71558 0
M  V30 3356 H 315.496 0.90229 -1.30554 0
M  V30 3357 H 315.517 3.62007 -1.17181 0
M  V30 3358 H 315.029 2.72596 -2.76248 0
M  V30 3359 H 313.13 3.69307 -0.494294 0
M  V30 3360 H 313.243 4.19747 -2.30975 0
M  V30 3361 H 311.607 2.2765 -1.14225 0
M  V30 3362 H 312.39 1.99956 -2.79056 0
M  V30 3363 N 314.835 0.952656 1.25548 0
M  V30 3364 C 316.082 0.606373 1.93208 0
M  V30 3365 C 316.41 -0.85631 1.74636 0
M  V30 3366 O 315.665 -1.62951 1.08376 0
M  V30 3367 C 315.964 0.908818 3.45652 0
M  V30 3368 C 315.63 2.35722 3.84378 0
M  V30 3369 C 314.292 2.75312 3.9466 0
M  V30 3370 C 316.644 3.29793 4.03591 0
M  V30 3371 C 313.972 4.08047 4.21562 0
M  V30 3372 C 316.324 4.62138 4.31985 0
M  V30 3373 C 314.988 5.01528 4.40484 0
M  V30 3374 H 314.258 0.221888 0.706998 0
M  V30 3375 H 316.905 1.20132 1.49133 0
M  V30 3376 H 315.21 0.231456 3.91116 0
M  V30 3377 H 316.907 0.619498 3.96186 0
M  V30 3378 H 313.497 2.04017 3.76928 0
M  V30 3379 H 317.681 3.00397 3.95064 0
M  V30 3380 H 312.937 4.38212 4.26357 0
M  V30 3381 H 317.111 5.35012 4.45797 0
M  V30 3382 H 314.738 6.04406 4.61083 0
M  V30 3383 N 316.313 -1.40141 0.720998 0
M  V30 3384 C 317.559 -2.01572 0.272075 0
M  V30 3385 C 317.914 -1.5616 -1.12391 0
M  V30 3386 O 317.207 -0.774198 -1.75262 0
M  V30 3387 C 317.401 -3.56165 0.296892 0
M  V30 3388 C 317.23 -4.16584 1.69375 0
M  V30 3389 C 316 -4.49783 2.30269 0
M  V30 3390 C 318.198 -4.41076 2.64493 0
M  V30 3391 N 316.18 -4.95626 3.62254 0
M  V30 3392 C 317.551 -4.88971 3.81192 0
M  V30 3393 C 319.606 -4.23122 2.62435 0
M  V30 3394 C 318.309 -5.20796 4.96149 0
M  V30 3395 C 320.335 -4.56052 3.76524 0
M  V30 3396 C 319.697 -5.04141 4.91956 0
M  V30 3397 H 315.796 -0.768343 0.145511 0
M  V30 3398 H 318.38 -1.70287 0.943959 0
M  V30 3399 H 316.551 -3.86868 -0.344578 0
M  V30 3400 H 318.283 -4.04346 -0.169254 0
M  V30 3401 H 315.038 -4.37101 1.82318 0
M  V30 3402 H 315.462 -5.22923 4.29977 0
M  V30 3403 H 320.104 -3.85158 1.74393 0
M  V30 3404 H 317.822 -5.57672 5.84831 0
M  V30 3405 H 321.408 -4.43796 3.76213 0
M  V30 3406 H 320.288 -5.29142 5.78774 0
M  V30 3407 N 317.792 -0.46758 -1.50504 0
M  V30 3408 C 319.069 0.15003 -1.95024 0
M  V30 3409 C 319.449 1.57304 -1.40779 0
M  V30 3410 O 318.797 2.20281 -0.607319 0
M  V30 3411 C 319.007 0.0969324 -3.48865 0
M  V30 3412 C 320.355 0.287565 -4.23625 0
M  V30 3413 O 321.379 0.173678 -3.55776 0
M  V30 3414 O 320.238 0.517186 -5.44047 0
M  V30 3415 H 317.332 0.113582 -0.819163 0
M  V30 3416 H 319.878 -0.52773 -1.61286 0
M  V30 3417 H 318.65 -0.896732 -3.80886 0
M  V30 3418 H 318.273 0.816303 -3.8913 0
M  V30 3419 N 319.27 1.56325 -0.20005 0
M  V30 3420 C 320.18 2.22931 0.730668 0
M  V30 3421 C 321.196 1.22997 1.23076 0
M  V30 3422 O 322.372 1.55748 1.27689 0
M  V30 3423 C 319.437 2.87948 1.93098 0
M  V30 3424 C 318.498 4.03166 1.47497 0
M  V30 3425 C 317.731 4.65073 2.61807 0
M  V30 3426 O 317.954 4.25913 3.79413 0
M  V30 3427 O 316.888 5.54452 2.34237 0
M  V30 3428 H 320.714 3.03084 0.193391 0
M  V30 3429 H 318.299 1.49371 0.0294621 0
M  V30 3430 H 320.181 3.29063 2.6324 0
M  V30 3431 H 318.856 2.10771 2.45677 0
M  V30 3432 H 317.763 3.66664 0.742201 0
M  V30 3433 H 319.096 4.82022 0.995796 0
M  V30 3434 N 320.748 -0.0735177 1.57428 0
M  V30 3435 C 322.025 -0.805903 1.78226 0
M  V30 3436 C 322.405 -1.95874 0.787189 0
M  V30 3437 O 321.753 -2.2779 -0.180029 0
M  V30 3438 C 321.963 -1.28045 3.24662 0
M  V30 3439 C 323.311 -1.71453 3.88444 0
M  V30 3440 O 324.335 -1.37616 3.28543 0
M  V30 3441 O 323.194 -2.34093 4.93825 0
M  V30 3442 H 320.288 -0.386041 0.73137 0
M  V30 3443 H 322.834 -0.0537269 1.69615 0
M  V30 3444 H 321.606 -0.455476 3.8864 0
M  V30 3445 H 321.229 -2.094 3.37991 0
M  V30 3446 N 322.226 -1.5378 -0.344866 0
M  V30 3447 C 323.158 -1.77988 -1.44406 0
M  V30 3448 C 324.171 -0.661138 -1.48771 0
M  V30 3449 O 325.36 -0.937842 -1.51877 0
M  V30 3450 C 322.46 -1.86345 -2.8307 0
M  V30 3451 C 321.633 -3.16256 -3.0216 0
M  V30 3452 C 320.692 -3.15588 -4.21059 0
M  V30 3453 O 319.718 -3.89314 -4.15239 0
M  V30 3454 N 320.92 -2.37864 -5.29529 0
M  V30 3455 H 323.685 -2.72839 -1.24012 0
M  V30 3456 H 321.246 -1.52814 -0.534737 0
M  V30 3457 H 323.238 -1.83351 -3.60783 0
M  V30 3458 H 321.808 -0.986858 -2.96614 0
M  V30 3459 H 321.028 -3.32385 -2.11929 0
M  V30 3460 H 322.316 -4.0207 -3.11797 0
M  V30 3461 H 321.714 -1.77514 -5.37127 0
M  V30 3462 H 320.271 -2.40668 -6.05741 0
M  V30 3463 N 323.704 0.605807 -1.45491 0
M  V30 3464 C 324.654 1.71074 -1.50724 0
M  V30 3465 C 325.638 1.5658 -0.37033 0
M  V30 3466 O 326.83 1.65887 -0.617299 0
M  V30 3467 C 323.959 3.0983 -1.47852 0
M  V30 3468 C 323.045 3.29704 -2.66751 0
M  V30 3469 N 323.436 3.19831 -3.91844 0
M  V30 3470 C 321.734 3.60579 -2.62486 0
M  V30 3471 C 322.435 3.41083 -4.71208 0
M  V30 3472 N 321.411 3.65157 -4.02693 0
M  V30 3473 H 325.213 1.61937 -2.45263 0
M  V30 3474 H 322.727 0.80912 -1.40808 0
M  V30 3475 H 324.724 3.89101 -1.49686 0
M  V30 3476 H 323.384 3.20115 -0.543714 0
M  V30 3477 H 324.395 2.98194 -4.23439 0
M  V30 3478 H 321.072 3.7769 -1.77922 0
M  V30 3479 H 322.462 3.38828 -5.80211 0
M  V30 3480 N 325.182 1.32811 0.848464 0
M  V30 3481 C 326.598 1.11937 1.13764 0
M  V30 3482 C 326.798 -0.0960789 2.01271 0
M  V30 3483 O 325.854 -0.779165 2.40178 0
M  V30 3484 C 327.167 2.402 1.809 0
M  V30 3485 C 328.715 2.46016 1.93508 0
M  V30 3486 C 329.19 3.74215 2.64059 0
M  V30 3487 N 330.681 3.75232 2.71579 0
M  V30 3488 C 331.416 4.71134 3.26833 0
M  V30 3489 N 330.912 5.77406 3.8285 0
M  V30 3490 N 332.705 4.58623 3.24995 0
M  V30 3491 H 324.856 2.1073 0.265855 0
M  V30 3492 H 327.119 0.930671 0.180431 0
M  V30 3493 H 326.825 3.29093 1.24058 0
M  V30 3494 H 326.699 2.51628 2.81004 0
M  V30 3495 H 329.086 1.57577 2.49506 0
M  V30 3496 H 329.167 2.38536 0.923811 0
M  V30 3497 H 328.811 4.63031 2.08722 0
M  V30 3498 H 328.741 3.78968 3.65637 0
M  V30 3499 H 331.232 2.98423 2.31845 0
M  V30 3500 H 331.545 6.46632 4.23187 0
M  V30 3501 H 329.89 5.81152 3.81165 0
M  V30 3502 H 333.081 3.74762 2.80484 0
M  V30 3503 H 333.254 5.33535 3.67756 0
M  V30 3504 N 326.66 -1.06551 1.16123 0
M  V30 3505 C 327.59 -2.15935 0.88851 0
M  V30 3506 C 328.571 -1.69306 -0.164135 0
M  V30 3507 O 329.756 -1.94193 -0.0167857 0
M  V30 3508 C 326.886 -3.45149 0.385942 0
M  V30 3509 C 325.84 -4.05271 1.3762 0
M  V30 3510 C 325.166 -5.29664 0.732137 0
M  V30 3511 C 326.466 -4.44355 2.74493 0
M  V30 3512 H 328.16 -2.39006 1.80323 0
M  V30 3513 H 325.706 -1.14866 0.868435 0
M  V30 3514 H 327.659 -4.21004 0.182647 0
M  V30 3515 H 326.383 -3.21689 -0.564274 0
M  V30 3516 H 325.042 -3.3147 1.56599 0
M  V30 3517 H 324.69 -5.02499 -0.224483 0
M  V30 3518 H 324.39 -5.70848 1.39307 0
M  V30 3519 H 325.914 -6.08218 0.538802 0
M  V30 3520 H 327.328 -5.11303 2.59311 0
M  V30 3521 H 325.725 -4.96515 3.37035 0
M  V30 3522 H 326.795 -3.55339 3.29943 0
M  V30 3523 N 328.138 -0.959301 -1.25041 0
M  V30 3524 C 329.368 -0.63303 -1.96663 0
M  V30 3525 C 329.776 0.800031 -1.71453 0
M  V30 3526 O 329.119 1.54736 -0.99008 0
M  V30 3527 C 329.181 -0.817523 -3.50081 0
M  V30 3528 C 328.845 -2.22863 -3.98975 0
M  V30 3529 C 329.842 -3.20569 -4.09306 0
M  V30 3530 C 327.527 -2.55407 -4.32519 0
M  V30 3531 C 329.521 -4.4891 -4.52503 0
M  V30 3532 C 327.208 -3.83976 -4.754 0
M  V30 3533 C 328.206 -4.8054 -4.85356 0
M  V30 3534 O 327.894 -6.06817 -5.27284 0
M  V30 3535 H 327.626 -0.235866 -0.633516 0
M  V30 3536 H 330.18 -1.2874 -1.60047 0
M  V30 3537 H 328.41 -0.105992 -3.86555 0
M  V30 3538 H 330.099 -0.491604 -4.02912 0
M  V30 3539 H 330.865 -2.96753 -3.83618 0
M  V30 3540 H 326.744 -1.8097 -4.23994 0
M  V30 3541 H 330.288 -5.24283 -4.60188 0
M  V30 3542 H 326.185 -4.07596 -5.00535 0
M  V30 3543 H 326.953 -6.10262 -5.45457 0
M  V30 3544 N 329.616 1.39756 -0.72842 0
M  V30 3545 C 330.548 2.29157 -0.0446202 0
M  V30 3546 C 331.561 1.46484 0.710367 0
M  V30 3547 O 332.75 1.69632 0.55562 0
M  V30 3548 C 329.85 3.24987 0.961071 0
M  V30 3549 C 329.023 4.36572 0.268967 0
M  V30 3550 C 328.082 5.12756 1.18184 0
M  V30 3551 O 327.108 5.6534 0.661794 0
M  V30 3552 N 328.31 5.23331 2.51206 0
M  V30 3553 H 331.075 2.88482 -0.812295 0
M  V30 3554 H 328.636 1.51265 -0.577098 0
M  V30 3555 H 330.628 3.72827 1.57423 0
M  V30 3556 H 329.198 2.66739 1.63 0
M  V30 3557 H 328.418 3.90694 -0.524574 0
M  V30 3558 H 329.706 5.08363 -0.210934 0
M  V30 3559 H 329.104 4.82116 2.9594 0
M  V30 3560 H 327.661 5.74634 3.07634 0
M  V30 3561 N 331.094 0.475555 1.50254 0
M  V30 3562 C 332.026 -0.352649 2.26471 0
M  V30 3563 C 333.039 -0.953165 1.3198 0
M  V30 3564 O 334.228 -0.840815 1.57457 0
M  V30 3565 C 331.328 -1.50902 3.0345 0
M  V30 3566 C 330.501 -1.02047 4.25329 0
M  V30 3567 C 329.56 -2.05142 4.84565 0
M  V30 3568 O 328.586 -1.63023 5.45355 0
M  V30 3569 N 329.788 -3.37987 4.71959 0
M  V30 3570 H 332.553 0.300767 2.98187 0
M  V30 3571 H 330.114 0.306598 1.5897 0
M  V30 3572 H 332.106 -2.19572 3.39956 0
M  V30 3573 H 330.676 -2.06705 2.34504 0
M  V30 3574 H 329.896 -0.159507 3.93877 0
M  V30 3575 H 331.184 -0.672061 5.04342 0
M  V30 3576 H 330.582 -3.74913 4.23623 0
M  V30 3577 H 329.139 -4.02443 5.12721 0
M  V30 3578 N 332.573 -1.56217 0.208337 0
M  V30 3579 C 333.822 -1.97124 -0.427204 0
M  V30 3580 C 334.135 -1.09859 -1.61835 0
M  V30 3581 O 335.341 -1.40606 -2.32255 0
M  V30 3582 C 333.797 -3.50633 -0.811442 0
M  V30 3583 C 333.405 -4.46582 0.35615 0
M  V30 3584 C 335.149 -4.00282 -1.41332 0
M  V30 3585 C 333.056 -5.91379 -0.0497852 0
M  V30 3586 H 331.986 -0.736086 -0.163381 0
M  V30 3587 H 334.637 -1.8099 0.302456 0
M  V30 3588 H 333.019 -3.62319 -1.59815 0
M  V30 3589 H 334.193 -4.46636 1.1337 0
M  V30 3590 H 332.508 -4.07202 0.870396 0
M  V30 3591 H 335.105 -5.0595 -1.72972 0
M  V30 3592 H 335.448 -3.45359 -2.32449 0
M  V30 3593 H 335.981 -3.91764 -0.690323 0
M  V30 3594 H 332.72 -6.50255 0.827529 0
M  V30 3595 H 332.24 -5.94549 -0.791926 0
M  V30 3596 H 333.919 -6.45209 -0.481042 0
M  V30 3597 N 334.051 0.0651679 -1.57465 0
M  V30 3598 C 334.998 1.07675 -2.04144 0
M  V30 3599 C 335.968 1.38071 -0.923335 0
M  V30 3600 O 337.153 1.49026 -1.19146 0
M  V30 3601 C 334.293 2.38337 -2.49579 0
M  V30 3602 C 333.406 2.14413 -3.75035 0
M  V30 3603 C 332.541 3.38686 -4.09225 0
M  V30 3604 C 331.58 3.10156 -5.27702 0
M  V30 3605 N 330.717 4.26778 -5.57499 0
M  V30 3606 H 335.557 0.671716 -2.90331 0
M  V30 3607 H 333.094 0.3201 -1.43575 0
M  V30 3608 H 335.052 3.14632 -2.73975 0
M  V30 3609 H 333.682 2.7663 -1.6636 0
M  V30 3610 H 332.734 1.2878 -3.57939 0
M  V30 3611 H 334.046 1.89344 -4.61466 0
M  V30 3612 H 333.2 4.23373 -4.34558 0
M  V30 3613 H 331.939 3.66837 -3.21374 0
M  V30 3614 H 330.944 2.23866 -5.02159 0
M  V30 3615 H 332.169 2.8332 -6.17176 0
M  V30 3616 H 330.115 4.54948 -4.72608 0
M  V30 3617 H 330.032 4.05005 -6.38362 0
M  V30 3618 H 331.3 5.12443 -5.87386 0
M  V30 3619 N 335.529 1.53961 0.336706 0
M  V30 3620 C 336.492 1.81724 1.39675 0
M  V30 3621 C 337.492 0.688532 1.45313 0
M  V30 3622 O 338.682 0.956829 1.45569 0
M  V30 3623 C 335.814 1.96543 2.78538 0
M  V30 3624 H 337.007 2.76424 1.16318 0
M  V30 3625 H 334.56 1.45478 0.571474 0
M  V30 3626 H 335.295 1.0401 3.07168 0
M  V30 3627 H 335.08 2.78665 2.75841 0
M  V30 3628 H 336.57 2.19516 3.5525 0
M  V30 3629 N 337.007 -0.598083 1.45811 0
M  V30 3630 C 338.255 -1.35413 1.50026 0
M  V30 3631 C 338.576 -1.94444 0.147177 0
M  V30 3632 O 337.846 -1.77701 -0.824571 0
M  V30 3633 H 336.426 -0.502727 0.552517 0
M  V30 3634 H 339.088 -0.701606 1.81834 0
M  V30 3635 H 338.184 -2.16871 2.2444 0
M  V30 3636 N 338.485 -1.33259 -0.841409 0
M  V30 3637 C 339.448 -1.23221 -1.9326 0
M  V30 3638 C 340.448 -0.151895 -1.60081 0
M  V30 3639 O 341.638 -0.403246 -1.69468 0
M  V30 3640 C 338.77 -0.898123 -3.28856 0
M  V30 3641 H 339.963 -2.2021 -2.03587 0
M  V30 3642 H 337.516 -1.17281 -1.03319 0
M  V30 3643 H 338.251 0.0693841 -3.24226 0
M  V30 3644 H 338.036 -1.67934 -3.54317 0
M  V30 3645 H 339.526 -0.852563 -4.08805 0
M  V30 3646 N 339.963 1.05934 -1.16686 0
M  V30 3647 C 341.193 1.82226 -0.973515 0
M  V30 3648 C 341.601 1.8297 0.481532 0
M  V30 3649 O 340.944 1.25009 1.34604 0
M  V30 3650 C 341.006 3.29897 -1.42858 0
M  V30 3651 C 340.67 3.52849 -2.90425 0
M  V30 3652 C 341.667 3.45595 -3.88407 0
M  V30 3653 C 339.352 3.80053 -3.28428 0
M  V30 3654 C 341.346 3.65217 -5.22394 0
M  V30 3655 C 339.033 3.99325 -4.62583 0
M  V30 3656 C 340.031 3.91905 -5.59374 0
M  V30 3657 O 339.719 4.10647 -6.91104 0
M  V30 3658 H 339.451 0.581314 -0.345036 0
M  V30 3659 H 342.005 1.3453 -1.55212 0
M  V30 3660 H 340.235 3.78472 -0.793477 0
M  V30 3661 H 341.924 3.87692 -1.20207 0
M  V30 3662 H 342.69 3.24564 -3.60393 0
M  V30 3663 H 338.569 3.84936 -2.53664 0
M  V30 3664 H 342.113 3.59341 -5.9793 0
M  V30 3665 H 338.01 4.19846 -4.90306 0
M  V30 3666 H 338.778 4.27915 -6.97733 0
M  V30 3667 N 341.441 0.965919 1.2453 0
M  V30 3668 C 342.718 0.543777 1.87889 0
M  V30 3669 C 343.098 -0.97909 1.87021 0
M  V30 3670 O 342.446 -1.84969 1.3416 0
M  V30 3671 C 342.656 1.13327 3.30088 0
M  V30 3672 C 344.004 1.21707 4.06783 0
M  V30 3673 O 345.028 1.08566 3.39252 0
M  V30 3674 O 343.887 1.42456 5.27606 0
M  V30 3675 H 340.981 0.181054 0.806938 0
M  V30 3676 H 343.527 1.06007 1.32516 0
M  V30 3677 H 342.299 2.17612 3.25209 0
M  V30 3678 H 341.922 0.600911 3.93033 0
M  V30 3679 N 342.919 -1.39368 0.735821 0
M  V30 3680 C 344.166 -2.00497 0.284123 0
M  V30 3681 C 344.494 -1.58387 -1.12889 0
M  V30 3682 O 343.749 -0.804359 -1.78406 0
M  V30 3683 C 344.048 -3.5583 0.334651 0
M  V30 3684 C 343.714 -4.17593 1.7008 0
M  V30 3685 C 342.376 -4.34176 2.07472 0
M  V30 3686 C 344.728 -4.51848 2.59775 0
M  V30 3687 C 342.056 -4.82304 3.34065 0
M  V30 3688 C 344.408 -5.01384 3.85741 0
M  V30 3689 C 343.072 -5.16175 4.23225 0
M  V30 3690 H 342.342 -0.73367 0.103968 0
M  V30 3691 H 344.989 -1.66683 0.942825 0
M  V30 3692 H 343.294 -3.89674 -0.407625 0
M  V30 3693 H 344.991 -4.00986 -0.0329927 0
M  V30 3694 H 341.581 -4.05087 1.40008 0
M  V30 3695 H 345.765 -4.38653 2.32157 0
M  V30 3696 H 341.021 -4.91941 3.63049 0
M  V30 3697 H 345.195 -5.26863 4.55399 0
M  V30 3698 H 342.822 -5.5323 5.21384 0
M  V30 3699 N 344.397 -0.483516 -1.5 0
M  V30 3700 C 345.808 -0.0314176 -1.86674 0
M  V30 3701 C 346.159 1.37728 -1.39733 0
M  V30 3702 O 345.284 2.02327 -0.767635 0
M  V30 3703 C 345.879 -0.0502376 -3.38763 0
M  V30 3704 C 344.438 0.346442 -3.74802 0
M  V30 3705 C 343.585 -0.430366 -2.7394 0
M  V30 3706 H 346.536 -0.697182 -1.42566 0
M  V30 3707 H 346.557 0.749116 -3.73053 0
M  V30 3708 H 346.069 -1.07563 -3.72897 0
M  V30 3709 H 344.17 1.37572 -3.46273 0
M  V30 3710 H 344.283 0.0391486 -4.79084 0
M  V30 3711 H 342.647 0.117557 -2.54429 0
M  V30 3712 H 343.43 -1.4555 -3.10918 0
M  V30 3713 N 345.875 1.56104 -0.216619 0
M  V30 3714 C 347.1 2.0301 0.424462 0
M  V30 3715 C 347.525 1.0955 1.52907 0
M  V30 3716 O 346.883 0.0827914 1.81111 0
M  V30 3717 C 346.931 3.4819 0.937883 0
M  V30 3718 O 346.035 3.57865 2.04955 0
M  V30 3719 H 345.376 0.656925 0.0966755 0
M  V30 3720 H 347.906 2.01859 -0.33381 0
M  V30 3721 H 347.916 3.88413 1.24897 0
M  V30 3722 H 346.591 4.15699 0.129387 0
M  V30 3723 H 345.168 3.29527 1.74546 0
M  V30 3724 N 347.353 -0.0568162 1.57498 0
M  V30 3725 C 348.764 -0.606858 1.76562 0
M  V30 3726 C 349.115 -1.77114 0.844094 0
M  V30 3727 O 348.24 -2.16376 0.0318911 0
M  V30 3728 C 348.835 -1.10766 3.20182 0
M  V30 3729 C 347.394 -1.60344 3.40539 0
M  V30 3730 C 346.541 -0.529311 2.72201 0
M  V30 3731 H 349.492 0.169393 1.57793 0
M  V30 3732 H 349.513 -1.97602 3.25167 0
M  V30 3733 H 349.025 -0.26006 3.87228 0
M  V30 3734 H 347.126 -2.47379 2.78629 0
M  V30 3735 H 347.239 -1.67006 4.4905 0
M  V30 3736 H 345.603 -0.977893 2.35179 0
M  V30 3737 H 346.386 0.308352 3.41912 0
M  V30 3738 N 348.832 -1.54138 -0.328536 0
M  V30 3739 C 349.742 -1.86192 -1.42723 0
M  V30 3740 C 350.758 -0.753382 -1.56844 0
M  V30 3741 O 351.934 -1.04718 -1.72035 0
M  V30 3742 C 348.999 -2.07824 -2.77507 0
M  V30 3743 C 348.06 -3.31641 -2.72603 0
M  V30 3744 C 347.293 -3.52232 -4.00959 0
M  V30 3745 O 347.516 -2.7636 -4.9898 0
M  V30 3746 O 346.45 -4.45699 -4.0452 0
M  V30 3747 H 350.276 -2.79608 -1.18547 0
M  V30 3748 H 347.861 -1.3998 -0.522104 0
M  V30 3749 H 349.743 -2.23411 -3.57303 0
M  V30 3750 H 348.418 -1.17596 -3.01584 0
M  V30 3751 H 347.325 -3.21444 -1.91376 0
M  V30 3752 H 348.658 -4.2191 -2.53481 0
M  V30 3753 N 350.31 0.590341 -1.46126 0
M  V30 3754 C 351.556 1.34874 -1.52252 0
M  V30 3755 C 351.911 1.91658 -0.168807 0
M  V30 3756 O 351.204 1.73093 0.821556 0
M  V30 3757 C 351.398 2.5032 -2.55097 0
M  V30 3758 C 351.227 2.04843 -4.00337 0
M  V30 3759 C 349.997 1.90213 -4.68132 0
M  V30 3760 C 352.195 1.61267 -4.88362 0
M  V30 3761 N 350.177 1.38727 -5.9802 0
M  V30 3762 C 351.548 1.21319 -6.08015 0
M  V30 3763 C 353.603 1.49015 -4.75078 0
M  V30 3764 C 352.306 0.7034 -7.15852 0
M  V30 3765 C 354.332 0.994401 -5.8298 0
M  V30 3766 C 353.694 0.604659 -7.018 0
M  V30 3767 H 349.793 0.486803 -0.612002 0
M  V30 3768 H 352.377 0.673007 -1.82698 0
M  V30 3769 H 350.548 3.15466 -2.26574 0
M  V30 3770 H 352.28 3.1725 -2.51266 0
M  V30 3771 H 349.035 2.11927 -4.23537 0
M  V30 3772 H 349.459 1.15168 -6.67132 0
M  V30 3773 H 354.101 1.77768 -3.83612 0
M  V30 3774 H 351.819 0.403446 -8.07092 0
M  V30 3775 H 355.405 0.903621 -5.7474 0
M  V30 3776 H 354.285 0.226963 -7.83871 0
M  V30 3777 N 351.788 1.33704 0.83433 0
M  V30 3778 C 353.065 1.16011 1.57483 0
M  V30 3779 C 353.445 -0.27176 2.09343 0
M  V30 3780 O 352.793 -1.27146 1.89858 0
M  V30 3781 C 353.003 2.20507 2.70514 0
M  V30 3782 C 354.351 2.54898 3.39577 0
M  V30 3783 O 355.375 2.19209 2.80759 0
M  V30 3784 O 354.234 3.16158 4.45765 0
M  V30 3785 H 351.328 0.448992 0.694503 0
M  V30 3786 H 353.874 1.453 0.876691 0
M  V30 3787 H 352.646 3.16667 2.29865 0
M  V30 3788 H 352.269 1.92329 3.47987 0
M  V30 3789 N 353.266 -1.05314 1.17247 0
M  V30 3790 C 354.494 -1.81971 0.984593 0
M  V30 3791 C 354.909 -1.82929 -0.467166 0
M  V30 3792 O 354.266 -1.25564 -1.32438 0
M  V30 3793 C 354.317 -3.28143 1.51672 0
M  V30 3794 O 354.038 -3.27347 2.91163 0
M  V30 3795 C 355.539 -4.21493 1.37326 0
M  V30 3796 H 352.759 -0.573455 0.348411 0
M  V30 3797 H 355.303 -1.32808 1.55506 0
M  V30 3798 H 353.458 -3.74582 0.988302 0
M  V30 3799 H 353.872 -4.18824 3.15732 0
M  V30 3800 H 355.346 -5.22043 1.79375 0
M  V30 3801 H 355.823 -4.38031 0.320169 0
M  V30 3802 H 356.429 -3.80909 1.89178 0
M  V30 3803 N 354.744 -0.972509 -1.24016 0
M  V30 3804 C 355.99 -0.637978 -1.92504 0
M  V30 3805 C 356.323 0.825383 -1.75787 0
M  V30 3806 O 355.598 1.59442 -1.11393 0
M  V30 3807 C 355.881 -1.01942 -3.45369 0
M  V30 3808 C 355.734 -2.53983 -3.71231 0
M  V30 3809 C 357.053 -0.55751 -4.36555 0
M  V30 3810 H 354.172 -0.233248 -0.699117 0
M  V30 3811 H 356.814 -1.21238 -1.46292 0
M  V30 3812 H 354.964 -0.530656 -3.84859 0
M  V30 3813 H 356.636 -3.10374 -3.41271 0
M  V30 3814 H 354.879 -2.96968 -3.16216 0
M  V30 3815 H 355.55 -2.75723 -4.78206 0
M  V30 3816 H 358.026 -0.977029 -4.04467 0
M  V30 3817 H 356.902 -0.85292 -5.42233 0
M  V30 3818 H 357.163 0.542328 -4.38761 0
M  V30 3819 N 356.222 1.38976 -0.743202 0
M  V30 3820 C 357.45 2.04636 -0.30525 0
M  V30 3821 C 357.865 1.56044 1.06281 0
M  V30 3822 O 357.222 0.728921 1.67311 0
M  V30 3823 C 357.273 3.60193 -0.307177 0
M  V30 3824 O 356.994 4.06998 -1.62124 0
M  V30 3825 C 358.495 4.4306 0.145928 0
M  V30 3826 H 355.715 0.65788 -0.132041 0
M  V30 3827 H 358.259 1.77866 -1.00915 0
M  V30 3828 H 356.414 3.85835 0.347898 0
M  V30 3829 H 356.828 5.01371 -1.54036 0
M  V30 3830 H 358.302 5.51921 0.0934183 0
M  V30 3831 H 358.779 4.22706 1.19231 0
M  V30 3832 H 359.385 4.22584 -0.479886 0
M  V30 3833 N 357.7 0.491464 1.49741 0
M  V30 3834 C 359.111 0.0413169 1.86654 0
M  V30 3835 C 359.462 -1.36985 1.40462 0
M  V30 3836 O 358.587 -2.01917 0.778354 0
M  V30 3837 C 359.182 0.0682023 3.38731 0
M  V30 3838 C 357.741 -0.32656 3.74981 0
M  V30 3839 C 356.888 0.444888 2.73708 0
M  V30 3840 H 359.839 0.704733 1.42194 0
M  V30 3841 H 359.86 -0.729322 3.73445 0
M  V30 3842 H 359.372 1.09539 3.72321 0
M  V30 3843 H 357.473 -1.35734 3.46997 0
M  V30 3844 H 357.586 -0.013741 4.79098 0
M  V30 3845 H 355.95 -0.104062 2.54487 0
M  V30 3846 H 356.733 1.47197 3.10142 0
M  V30 3847 N 359.178 -1.55987 0.224894 0
M  V30 3848 C 360.088 -2.24066 -0.69511 0
M  V30 3849 C 361.104 -1.24939 -1.21104 0
M  V30 3850 O 362.28 -1.5776 -1.25195 0
M  V30 3851 C 359.345 -2.90983 -1.88493 0
M  V30 3852 C 358.406 -4.05462 -1.41064 0
M  V30 3853 C 357.639 -4.69179 -2.54375 0
M  V30 3854 O 357.862 -4.31895 -3.72589 0
M  V30 3855 O 356.796 -5.58108 -2.25386 0
M  V30 3856 H 360.622 -3.03353 -0.145149 0
M  V30 3857 H 358.207 -1.49399 -0.00569476 0
M  V30 3858 H 360.089 -3.33209 -2.57972 0
M  V30 3859 H 358.764 -2.14653 -2.42293 0
M  V30 3860 H 357.671 -3.67798 -0.683774 0
M  V30 3861 H 359.004 -4.83545 -0.918985 0
M  V30 3862 N 360.656 0.0484629 -1.57525 0
M  V30 3863 C 361.619 1.03956 -2.04269 0
M  V30 3864 C 362.619 1.30211 -0.943496 0
M  V30 3865 O 363.809 1.25539 -1.20771 0
M  V30 3866 C 360.941 2.37742 -2.44319 0
M  V30 3867 H 362.134 0.636182 -2.93075 0
M  V30 3868 H 359.687 0.294811 -1.53494 0
M  V30 3869 H 360.422 2.82866 -1.5861 0
M  V30 3870 H 360.207 2.20021 -3.24551 0
M  V30 3871 H 361.697 3.08936 -2.80978 0
M  V30 3872 N 362.134 1.5431 0.320358 0
M  V30 3873 C 363.081 1.83918 1.39438 0
M  V30 3874 C 364.051 0.686525 1.51248 0
M  V30 3875 O 365.236 0.933269 1.66417 0
M  V30 3876 C 362.376 2.075 2.75749 0
M  V30 3877 C 361.489 3.35177 2.72544 0
M  V30 3878 C 360.624 3.48704 4.00723 0
M  V30 3879 C 359.663 4.70244 3.91838 0
M  V30 3880 N 358.8 4.80679 5.11754 0
M  V30 3881 H 363.64 2.75544 1.13489 0
M  V30 3882 H 361.177 1.36459 0.549309 0
M  V30 3883 H 363.135 2.19166 3.54996 0
M  V30 3884 H 361.765 1.19163 3 0
M  V30 3885 H 360.817 3.32233 1.85271 0
M  V30 3886 H 362.129 4.24534 2.61863 0
M  V30 3887 H 361.283 3.59928 4.88402 0
M  V30 3888 H 360.022 2.57445 4.14214 0
M  V30 3889 H 359.027 4.59072 3.02544 0
M  V30 3890 H 360.252 5.6289 3.7991 0
M  V30 3891 H 358.198 3.92337 5.25745 0
M  V30 3892 H 358.115 5.64007 5.0342 0
M  V30 3893 H 359.383 4.96239 6.01138 0
M  V30 3894 N 363.613 -0.582584 1.46437 0
M  V30 3895 C 364.89 -1.34276 1.4223 0
M  V30 3896 C 365.27 -2.10835 0.10583 0
M  V30 3897 O 364.618 -2.09485 -0.912596 0
M  V30 3898 C 364.828 -2.26865 2.65204 0
M  V30 3899 C 366.176 -2.88691 3.11356 0
M  V30 3900 O 367.2 -2.37178 2.65753 0
M  V30 3901 O 366.059 -3.82255 3.90568 0
M  V30 3902 H 363.153 -0.603326 0.565621 0
M  V30 3903 H 365.699 -0.603591 1.58603 0
M  V30 3904 H 364.471 -1.69724 3.52576 0
M  V30 3905 H 364.094 -3.08122 2.5129 0
M  V30 3906 N 365.091 -1.34144 -0.827227 0
M  V30 3907 C 366.021 -1.28005 -1.95287 0
M  V30 3908 C 367.002 -0.158321 -1.69362 0
M  V30 3909 O 368.187 -0.349987 -1.9102 0
M  V30 3910 C 365.317 -1.03036 -3.31664 0
M  V30 3911 C 364.271 -2.11628 -3.72019 0
M  V30 3912 C 363.597 -1.71854 -5.0633 0
M  V30 3913 C 364.897 -3.53417 -3.8457 0
M  V30 3914 H 366.591 -2.22187 -2.00682 0
M  V30 3915 H 364.137 -1.0696 -0.964135 0
M  V30 3916 H 366.09 -0.973863 -4.09993 0
M  V30 3917 H 364.814 -0.0529391 -3.26557 0
M  V30 3918 H 363.473 -2.16339 -2.95961 0
M  V30 3919 H 363.121 -0.727841 -4.97706 0
M  V30 3920 H 362.821 -2.44531 -5.34302 0
M  V30 3921 H 364.345 -1.67692 -5.87122 0
M  V30 3922 H 365.759 -3.51142 -4.5318 0
M  V30 3923 H 364.156 -4.24679 -4.2399 0
M  V30 3924 H 365.226 -3.91072 -2.86689 0
M  V30 3925 N 366.569 1.04691 -1.17803 0
M  V30 3926 C 367.818 1.77176 -0.963931 0
M  V30 3927 C 368.131 1.88888 0.508015 0
M  V30 3928 O 369.337 2.58164 0.840465 0
M  V30 3929 C 367.793 3.18518 -1.67555 0
M  V30 3930 C 367.401 3.14919 -3.18637 0
M  V30 3931 C 369.145 3.95424 -1.54402 0
M  V30 3932 C 367.052 4.51081 -3.82466 0
M  V30 3933 H 365.982 0.664116 -0.357023 0
M  V30 3934 H 368.633 1.17303 -1.4111 0
M  V30 3935 H 367.015 3.78748 -1.15613 0
M  V30 3936 H 368.189 2.64178 -3.77554 0
M  V30 3937 H 366.504 2.51512 -3.31859 0
M  V30 3938 H 369.101 4.96106 -1.99456 0
M  V30 3939 H 369.444 4.13343 -0.495329 0
M  V30 3940 H 369.977 3.41754 -2.0359 0
M  V30 3941 H 366.716 4.38368 -4.87354 0
M  V30 3942 H 366.236 5.01951 -3.28337 0
M  V30 3943 H 367.915 5.2001 -3.84965 0
M  V30 3944 N 368.047 0.979072 1.23499 0
M  V30 3945 C 368.995 0.510604 2.26926 0
M  V30 3946 C 369.989 -0.431691 1.63807 0
M  V30 3947 O 371.195 -0.30573 1.77385 0
M  V30 3948 H 367.57 0.146688 0.737554 0
M  V30 3949 H 369.541 1.39466 2.63803 0
M  V30 3950 C 368.29 -0.172658 3.47271 0
M  V30 3951 H 367.613 0.543331 3.96091 0
M  V30 3952 H 369.053 -0.464101 4.21452 0
M  V30 3953 C 367.512 -1.40345 3.06276 0
M  V30 3954 O 368.042 -2.49978 3.14442 0
M  V30 3955 N 366.248 -1.27362 2.61203 0
M  V30 3956 H 365.795 -0.381584 2.54758 0
M  V30 3957 H 365.753 -2.09822 2.34141 0
M  V30 3958 N 369.525 -1.3858 0.750561 0
M  V30 3959 C 370.472 -2.30483 0.120835 0
M  V30 3960 C 371.442 -1.50022 -0.712923 0
M  V30 3961 O 372.627 -1.78662 -0.669676 0
M  V30 3962 C 369.767 -3.36431 -0.768666 0
M  V30 3963 C 368.88 -4.31927 0.0793922 0
M  V30 3964 C 368.015 -5.24944 -0.81283 0
M  V30 3965 C 367.054 -6.12088 0.0390447 0
M  V30 3966 N 366.191 -6.97412 -0.809969 0
M  V30 3967 H 371.031 -2.83761 0.91015 0
M  V30 3968 H 368.568 -1.39707 0.460463 0
M  V30 3969 H 370.526 -3.96462 -1.29898 0
M  V30 3970 H 369.156 -2.8457 -1.5238 0
M  V30 3971 H 368.208 -3.73382 0.727303 0
M  V30 3972 H 369.52 -4.93319 0.737401 0
M  V30 3973 H 368.674 -5.90078 -1.41042 0
M  V30 3974 H 367.413 -4.63911 -1.50458 0
M  V30 3975 H 366.418 -5.45952 0.649328 0
M  V30 3976 H 367.643 -6.75189 0.727809 0
M  V30 3977 H 365.589 -6.38931 -1.48672 0
M  V30 3978 H 365.506 -7.55712 -0.208789 0
M  V30 3979 H 366.774 -7.66959 -1.39263 0
M  V30 3980 N 371.003 -0.499398 -1.49478 0
M  V30 3981 C 371.936 0.326491 -2.25852 0
M  V30 3982 C 372.914 0.971776 -1.30366 0
M  V30 3983 O 374.098 1.00219 -1.59651 0
M  V30 3984 C 371.225 1.45969 -3.05632 0
M  V30 3985 C 370.271 0.928938 -4.16261 0
M  V30 3986 S 371.104 -0.179012 -5.35201 0
M  V30 3987 C 372.26 0.957389 -6.18534 0
M  V30 3988 H 372.493 -0.321746 -2.95554 0
M  V30 3989 H 370.026 -0.284674 -1.51753 0
M  V30 3990 H 371.984 2.109 -3.52181 0
M  V30 3991 H 370.645 2.07953 -2.35402 0
M  V30 3992 H 369.838 1.77813 -4.71592 0
M  V30 3993 H 369.44 0.356869 -3.72293 0
M  V30 3994 H 371.732 1.86296 -6.51383 0
M  V30 3995 H 372.675 0.442733 -7.06715 0
M  V30 3996 H 373.083 1.224 -5.5107 0
M  V30 3997 N 372.481 1.55866 -0.233164 0
M  V30 3998 C 373.411 2.23783 0.666599 0
M  V30 3999 C 374.392 1.21343 1.19205 0
M  V30 4000 O 375.577 1.4996 1.23392 0
M  V30 4001 C 372.707 2.92671 1.86978 0
M  V30 4002 C 371.661 4.01682 1.47768 0
M  V30 4003 C 370.987 4.57926 2.76058 0
M  V30 4004 C 372.287 5.18126 0.658993 0
M  V30 4005 H 373.981 2.99232 0.100306 0
M  V30 4006 H 371.527 1.43924 0.046804 0
M  V30 4007 H 373.48 3.3888 2.50476 0
M  V30 4008 H 372.204 2.14688 2.46123 0
M  V30 4009 H 370.863 3.56222 0.866106 0
M  V30 4010 H 370.511 3.76659 3.33372 0
M  V30 4011 H 370.211 5.31505 2.50552 0
M  V30 4012 H 371.735 5.06859 3.40479 0
M  V30 4013 H 373.149 5.60644 1.19795 0
M  V30 4014 H 371.546 5.98009 0.500552 0
M  V30 4015 H 372.616 4.83763 -0.331856 0
M  V30 4016 N 373.959 -0.0401083 1.57549 0
M  V30 4017 C 375.187 -0.745196 1.93014 0
M  V30 4018 C 375.602 -1.6948 0.831984 0
M  V30 4019 O 374.959 -1.81482 -0.192463 0
M  V30 4020 C 375.01 -1.51176 3.28372 0
M  V30 4021 O 374.731 -0.600284 4.33968 0
M  V30 4022 C 376.232 -2.315 3.78051 0
M  V30 4023 H 373.452 -0.210088 0.637263 0
M  V30 4024 H 375.996 -0.000924689 2.045 0
M  V30 4025 H 374.151 -2.20801 3.18317 0
M  V30 4026 H 374.565 -1.13669 5.12035 0
M  V30 4027 H 376.039 -2.80697 4.75303 0
M  V30 4028 H 376.516 -3.12436 3.08675 0
M  V30 4029 H 377.122 -1.66971 3.91153 0
M  V30 4030 N 375.437 -1.54477 -0.31217 0
M  V30 4031 C 376.686 -1.72438 -1.04633 0
M  V30 4032 C 376.999 -0.511163 -1.88803 0
M  V30 4033 O 378.205 -0.572341 -2.65399 0
M  V30 4034 C 376.661 -3.05043 -1.9099 0
M  V30 4035 C 376.269 -4.33806 -1.11877 0
M  V30 4036 C 378.013 -3.32364 -2.64073 0
M  V30 4037 C 375.92 -5.57467 -1.97445 0
M  V30 4038 H 374.85 -0.642647 -0.394361 0
M  V30 4039 H 377.501 -1.80966 -0.303929 0
M  V30 4040 H 375.883 -2.90451 -2.69173 0
M  V30 4041 H 377.057 -4.59199 -0.383843 0
M  V30 4042 H 375.372 -4.13336 -0.504252 0
M  V30 4043 H 377.969 -4.21951 -3.28423 0
M  V30 4044 H 378.312 -2.50745 -3.32314 0
M  V30 4045 H 378.845 -3.47875 -1.92944 0
M  V30 4046 H 375.584 -6.41722 -1.33692 0
M  V30 4047 H 375.104 -5.36277 -2.6864 0
M  V30 4048 H 376.783 -5.94303 -2.5576 0
M  V30 4049 N 376.915 0.57481 -1.46744 0
M  V30 4050 C 377.863 1.70435 -1.58286 0
M  V30 4051 C 378.857 1.63287 -0.450956 0
M  V30 4052 O 380.063 1.68685 -0.628121 0
M  V30 4053 H 376.438 0.56364 -0.497809 0
M  V30 4054 H 378.409 1.57833 -2.53242 0
M  V30 4055 C 377.158 3.08815 -1.59776 0
M  V30 4056 H 376.481 3.1499 -2.46214 0
M  V30 4057 H 377.921 3.87588 -1.71905 0
M  V30 4058 C 376.38 3.35301 -0.327812 0
M  V30 4059 O 376.91 3.97511 0.57861 0
M  V30 4060 N 375.116 2.89816 -0.213274 0
M  V30 4061 H 374.663 2.39371 -0.951798 0
M  V30 4062 H 374.621 3.0791 0.63553 0
M  V30 4063 N 378.394 1.34581 0.820102 0
M  V30 4064 C 379.805 1.24298 1.39309 0
M  V30 4065 C 380.156 -0.130351 1.95767 0
M  V30 4066 O 379.281 -1.0308 1.90272 0
M  V30 4067 C 379.876 2.25054 2.53251 0
M  V30 4068 C 378.435 2.18552 3.0645 0
M  V30 4069 C 377.582 2.11503 1.79337 0
M  V30 4070 H 380.533 1.45906 0.624262 0
M  V30 4071 H 380.554 1.86917 3.31425 0
M  V30 4072 H 380.066 3.24996 2.1213 0
M  V30 4073 H 378.167 1.21976 3.52069 0
M  V30 4074 H 378.28 3.0993 3.65349 0
M  V30 4075 H 376.644 1.57268 2.00347 0
M  V30 4076 H 377.427 3.13284 1.40386 0
M  V30 4077 N 379.872 -1.04064 1.18357 0
M  V30 4078 C 380.835 -2.10243 0.912707 0
M  V30 4079 C 381.835 -1.60477 -0.101928 0
M  V30 4080 O 383.025 -1.73703 0.131517 0
M  V30 4081 C 380.157 -3.38893 0.369387 0
M  V30 4082 H 381.35 -2.35706 1.85426 0
M  V30 4083 H 378.903 -1.20489 0.995594 0
M  V30 4084 H 379.638 -3.19094 -0.578776 0
M  V30 4085 H 379.423 -3.76331 1.1008 0
M  V30 4086 H 380.913 -4.17128 0.198575 0
M  V30 4087 N 381.35 -0.985608 -1.22978 0
M  V30 4088 C 382.297 -0.529825 -2.24636 0
M  V30 4089 C 383.267 0.434028 -1.60329 0
M  V30 4090 O 384.452 0.340414 -1.87739 0
M  V30 4091 C 381.592 0.156533 -3.44745 0
M  V30 4092 C 380.705 -0.848197 -4.23591 0
M  V30 4093 C 379.84 -0.136109 -5.31026 0
M  V30 4094 C 378.879 -1.1297 -6.01585 0
M  V30 4095 N 378.016 -0.446415 -7.00679 0
M  V30 4096 H 382.856 -1.40148 -2.62988 0
M  V30 4097 H 380.393 -0.702168 -1.29259 0
M  V30 4098 H 382.351 0.571324 -4.1327 0
M  V30 4099 H 380.981 0.992025 -3.07179 0
M  V30 4100 H 380.033 -1.38135 -3.54433 0
M  V30 4101 H 381.345 -1.60512 -4.72268 0
M  V30 4102 H 380.499 0.335784 -6.0577 0
M  V30 4103 H 379.238 0.653373 -4.83304 0
M  V30 4104 H 378.243 -1.6123 -5.25628 0
M  V30 4105 H 379.468 -1.91993 -6.51395 0
M  V30 4106 H 377.414 0.323763 -6.55201 0
M  V30 4107 H 377.331 -1.1419 -7.47326 0
M  V30 4108 H 378.599 0.00291697 -7.795 0
M  V30 4109 N 382.828 1.3818 -0.7579 0
M  V30 4110 C 384.244 1.5353 -0.435972 0
M  V30 4111 C 384.444 1.71961 1.05032 0
M  V30 4112 O 383.5 1.73307 1.83633 0
M  V30 4113 C 384.813 2.73989 -1.23898 0
M  V30 4114 C 386.361 2.87841 -1.22949 0
M  V30 4115 C 386.836 4.11266 -2.01554 0
M  V30 4116 N 388.327 4.18352 -1.98837 0
M  V30 4117 C 389.062 5.12856 -2.5645 0
M  V30 4118 N 388.558 6.13005 -3.22794 0
M  V30 4119 N 390.351 5.05238 -2.46356 0
M  V30 4120 H 382.502 1.24467 -1.7211 0
M  V30 4121 H 384.765 0.604982 -0.729864 0
M  V30 4122 H 384.471 2.66789 -2.29165 0
M  V30 4123 H 384.345 3.67294 -0.858764 0
M  V30 4124 H 386.732 2.9452 -0.184854 0
M  V30 4125 H 386.813 1.95534 -1.64924 0
M  V30 4126 H 386.457 4.05349 -3.06031 0
M  V30 4127 H 386.387 5.02661 -1.5697 0
M  V30 4128 H 388.878 3.46628 -1.50524 0
M  V30 4129 H 389.191 6.81619 -3.64165 0
M  V30 4130 H 387.536 6.13325 -3.2689 0
M  V30 4131 H 390.727 4.25938 -1.9415 0
M  V30 4132 H 390.9 5.78707 -2.91552 0
M  V30 4133 N 384.306 0.507319 1.49211 0
M  V30 4134 C 385.555 -0.0368315 2.01666 0
M  V30 4135 C 385.868 -1.37459 1.39156 0
M  V30 4136 O 387.074 -2.00579 1.82976 0
M  V30 4137 C 385.53 -0.116089 3.59713 0
M  V30 4138 C 385.138 1.2154 4.31198 0
M  V30 4139 C 386.882 -0.610268 4.2009 0
M  V30 4140 C 384.789 1.09796 5.81119 0
M  V30 4141 H 383.719 -0.0175376 0.753796 0
M  V30 4142 H 386.37 0.647691 1.71689 0
M  V30 4143 H 384.752 -0.8652 3.86433 0
M  V30 4144 H 385.926 1.9783 4.16173 0
M  V30 4145 H 384.241 1.64352 3.82593 0
M  V30 4146 H 386.838 -0.715742 5.29888 0
M  V30 4147 H 387.181 -1.61064 3.8388 0
M  V30 4148 H 387.714 0.0824916 3.97714 0
M  V30 4149 H 384.453 2.0728 6.21864 0
M  V30 4150 H 383.973 0.376058 5.9862 0
M  V30 4151 H 385.652 0.779281 6.4229 0
M  V30 4152 N 385.784 -1.5574 0.241426 0
M  V30 4153 C 387.012 -2.03208 -0.389134 0
M  V30 4154 C 387.427 -1.12082 -1.51931 0
M  V30 4155 O 386.784 -0.134183 -1.82006 0
M  V30 4156 C 386.835 -3.50064 -0.902087 0
M  V30 4157 O 386.556 -4.37717 0.18305 0
M  V30 4158 C 388.057 -4.13268 -1.60389 0
M  V30 4159 H 385.277 -0.664509 -0.0931053 0
M  V30 4160 H 387.821 -2.0124 0.36369 0
M  V30 4161 H 385.976 -3.52583 -1.60511 0
M  V30 4162 H 386.39 -5.24097 -0.205579 0
M  V30 4163 H 387.864 -5.17733 -1.91458 0
M  V30 4164 H 388.341 -3.59434 -2.52397 0
M  V30 4165 H 388.947 -4.14655 -0.945576 0
M  V30 4166 N 387.262 0.0317525 -1.57568 0
M  V30 4167 C 388.225 1.01783 -2.0536 0
M  V30 4168 C 389.225 1.29203 -0.957253 0
M  V30 4169 O 390.415 1.24251 -1.22095 0
M  V30 4170 C 387.547 2.35137 -2.46827 0
M  V30 4171 H 388.74 0.605062 -2.93733 0
M  V30 4172 H 386.293 0.278514 -1.53799 0
M  V30 4173 H 387.028 2.81168 -1.61602 0
M  V30 4174 H 386.813 2.16566 -3.26866 0
M  V30 4175 H 388.303 3.05938 -2.84239 0
M  V30 4176 N 388.74 1.54641 0.303973 0
M  V30 4177 C 389.965 1.78092 1.06292 0
M  V30 4178 C 390.39 0.537342 1.80262 0
M  V30 4179 O 389.748 -0.511993 1.7392 0
M  V30 4180 C 389.796 2.98612 2.02147 0
M  V30 4181 O 388.9 2.71528 3.10397 0
M  V30 4182 H 388.241 0.589548 0.305497 0
M  V30 4183 H 390.771 2.01716 0.3423 0
M  V30 4184 H 390.781 3.265 2.44667 0
M  V30 4185 H 389.456 3.88785 1.47714 0
M  V30 4186 H 388.033 2.54648 2.72413 0
M  V30 4187 N 390.218 -0.567019 1.47046 0
M  V30 4188 C 391.128 -1.70247 1.6141 0
M  V30 4189 C 392.144 -1.66746 0.497157 0
M  V30 4190 O 393.32 -1.86371 0.763389 0
M  V30 4191 C 390.385 -3.06756 1.61561 0
M  V30 4192 C 389.446 -3.21399 2.84607 0
M  V30 4193 C 388.679 -4.51396 2.84741 0
M  V30 4194 O 388.902 -5.36255 1.94388 0
M  V30 4195 O 387.836 -4.69621 3.76483 0
M  V30 4196 H 391.662 -1.61073 2.57467 0
M  V30 4197 H 389.247 -0.735894 1.30019 0
M  V30 4198 H 391.129 -3.8801 1.64396 0
M  V30 4199 H 389.804 -3.16333 0.686684 0
M  V30 4200 H 388.711 -2.39579 2.8732 0
M  V30 4201 H 390.044 -3.16721 3.76761 0
M  V30 4202 N 391.696 -1.35014 -0.812953 0
M  V30 4203 C 392.659 -1.27292 -1.90602 0
M  V30 4204 C 393.659 -0.185817 -1.59723 0
M  V30 4205 O 394.849 -0.439102 -1.68575 0
M  V30 4206 C 391.981 -0.967676 -3.26877 0
M  V30 4207 H 393.174 -2.24479 -1.9887 0
M  V30 4208 H 390.727 -1.19446 -1.00808 0
M  V30 4209 H 391.462 0.0005954 -3.243 0
M  V30 4210 H 391.247 -1.75412 -3.50675 0
M  V30 4211 H 392.737 -0.939085 -4.06904 0
M  V30 4212 N 393.175 1.03435 -1.18907 0
M  V30 4213 C 394.105 2.13503 -0.945448 0
M  V30 4214 C 395.086 1.69682 0.119189 0
M  V30 4215 O 396.271 1.94169 -0.034707 0
M  V30 4216 C 393.401 3.44004 -0.477316 0
M  V30 4217 C 392.355 4.0148 -1.48316 0
M  V30 4218 C 391.681 5.27537 -0.872311 0
M  V30 4219 C 392.981 4.36921 -2.86177 0
M  V30 4220 H 394.675 2.34141 -1.86597 0
M  V30 4221 H 392.221 1.12523 -0.898584 0
M  V30 4222 H 394.174 4.20372 -0.294204 0
M  V30 4223 H 392.898 3.23072 0.478786 0
M  V30 4224 H 391.557 3.27201 -1.65332 0
M  V30 4225 H 391.205 5.02917 0.0911752 0
M  V30 4226 H 390.905 5.66954 -1.54393 0
M  V30 4227 H 392.429 6.06576 -0.699871 0
M  V30 4228 H 393.843 5.04248 -2.72776 0
M  V30 4229 H 392.24 4.87405 -3.50081 0
M  V30 4230 H 393.31 3.46466 -3.39248 0
M  V30 4231 N 394.653 0.992116 1.22453 0
M  V30 4232 C 395.6 0.541731 2.24352 0
M  V30 4233 C 396.57 -0.425519 1.60557 0
M  V30 4234 O 397.755 -0.330453 1.87917 0
M  V30 4235 C 394.895 -0.138248 3.44823 0
M  V30 4236 C 394.008 0.870649 4.23136 0
M  V30 4237 C 393.143 0.164269 5.30946 0
M  V30 4238 C 392.182 1.16159 6.00977 0
M  V30 4239 N 391.319 0.483568 7.00433 0
M  V30 4240 H 396.159 1.41541 2.62241 0
M  V30 4241 H 393.696 0.709013 1.28885 0
M  V30 4242 H 395.654 -0.5494 4.13567 0
M  V30 4243 H 394.284 -0.975721 3.077 0
M  V30 4244 H 393.336 1.40013 3.53696 0
M  V30 4245 H 394.648 1.63014 4.7141 0
M  V30 4246 H 393.802 -0.303653 6.0594 0
M  V30 4247 H 392.541 -0.627733 4.83643 0
M  V30 4248 H 391.546 1.64015 5.24766 0
M  V30 4249 H 392.771 1.95445 6.50368 0
M  V30 4250 H 390.717 -0.289012 6.55363 0
M  V30 4251 H 390.634 1.18152 7.4671 0
M  V30 4252 H 391.902 0.0384219 7.79491 0
M  V30 4253 N 396.131 -1.37776 0.765217 0
M  V30 4254 C 397.081 -2.2768 0.12075 0
M  V30 4255 C 398.065 -1.45778 -0.680988 0
M  V30 4256 O 399.257 -1.684 -0.545033 0
M  V30 4257 C 396.386 -3.34722 -0.762626 0
M  V30 4258 C 395.472 -4.24074 0.0465881 0
M  V30 4259 N 395.863 -4.93939 1.08892 0
M  V30 4260 C 394.161 -4.45643 -0.178418 0
M  V30 4261 C 394.862 -5.59845 1.57951 0
M  V30 4262 N 393.838 -5.36218 0.892797 0
M  V30 4263 H 397.64 -2.79166 0.918889 0
M  V30 4264 H 395.154 -1.50816 0.602353 0
M  V30 4265 H 397.151 -3.98031 -1.24005 0
M  V30 4266 H 395.811 -2.84793 -1.55959 0
M  V30 4267 H 396.822 -4.96572 1.47095 0
M  V30 4268 H 393.499 -4.06599 -0.9478 0
M  V30 4269 H 394.889 -6.25703 2.44838 0
M  V30 4270 N 397.609 -0.515225 -1.4894 0
M  V30 4271 C 399.02 -0.0710067 -1.86565 0
M  V30 4272 C 399.371 1.34733 -1.42623 0
M  V30 4273 O 398.496 2.00653 -0.810379 0
M  V30 4274 C 399.091 -0.122083 -3.3858 0
M  V30 4275 C 397.65 0.266863 -3.75453 0
M  V30 4276 C 396.797 -0.488376 -2.72966 0
M  V30 4277 H 399.748 -0.727266 -1.41055 0
M  V30 4278 H 399.769 0.669818 -3.74558 0
M  V30 4279 H 399.281 -1.15448 -3.70531 0
M  V30 4280 H 397.382 1.30196 -3.49113 0
M  V30 4281 H 397.495 -0.0624811 -4.79059 0
M  V30 4282 H 395.859 0.0635622 -2.54621 0
M  V30 4283 H 396.642 -1.52113 -3.07761 0
M  V30 4284 N 399.087 1.5561 -0.249682 0
M  V30 4285 C 400.333 2.00044 0.367952 0
M  V30 4286 C 400.688 1.1349 1.55363 0
M  V30 4287 O 399.981 0.191079 1.90645 0
M  V30 4288 C 400.175 3.4775 0.824887 0
M  V30 4289 C 400.004 4.48596 -0.314973 0
M  V30 4290 C 398.774 4.99077 -0.790555 0
M  V30 4291 C 400.972 5.0144 -1.14291 0
M  V30 4292 N 398.954 5.83675 -1.90254 0
M  V30 4293 C 400.325 5.83236 -2.10322 0
M  V30 4294 C 402.38 4.83736 -1.17916 0
M  V30 4295 C 401.083 6.49217 -3.09692 0
M  V30 4296 C 403.109 5.50497 -2.16117 0
M  V30 4297 C 402.471 6.32084 -3.10884 0
M  V30 4298 H 398.57 0.775512 0.100522 0
M  V30 4299 H 401.154 1.91193 -0.367896 0
M  V30 4300 H 399.325 3.56994 1.53002 0
M  V30 4301 H 401.057 3.79056 1.4177 0
M  V30 4302 H 397.812 4.72119 -0.374218 0
M  V30 4303 H 398.236 6.30671 -2.46137 0
M  V30 4304 H 402.878 4.20286 -0.460352 0
M  V30 4305 H 400.596 7.11832 -3.8252 0
M  V30 4306 H 404.182 5.38752 -2.19631 0
M  V30 4307 H 403.062 6.82832 -3.8563 0
M  V30 4308 N 400.565 -0.0233959 1.57583 0
M  V30 4309 C 401.814 -0.712133 1.8871 0
M  V30 4310 C 402.127 -1.76217 0.848944 0
M  V30 4311 O 403.333 -2.50389 1.04964 0
M  V30 4312 C 401.789 -1.3177 3.3491 0
M  V30 4313 C 401.397 -0.303715 4.46969 0
M  V30 4314 C 403.141 -1.98598 3.75179 0
M  V30 4315 C 401.048 -0.917945 5.84233 0
M  V30 4316 H 399.978 -0.269735 0.704101 0
M  V30 4317 H 402.629 0.0333114 1.8347 0
M  V30 4318 H 401.011 -2.11304 3.34913 0
M  V30 4319 H 402.185 0.465325 4.58445 0
M  V30 4320 H 400.5 0.2628 4.1557 0
M  V30 4321 H 403.097 -2.45416 4.75053 0
M  V30 4322 H 403.44 -2.80659 3.07468 0
M  V30 4323 H 403.973 -1.25831 3.77374 0
M  V30 4324 H 400.712 -0.136633 6.55358 0
M  V30 4325 H 400.232 -1.65669 5.76467 0
M  V30 4326 H 401.911 -1.4236 6.31144 0
M  V30 4327 N 402.043 -1.548 -0.295768 0
M  V30 4328 C 403.283 -1.76069 -1.03823 0
M  V30 4329 C 403.647 -0.537992 -1.84309 0
M  V30 4330 O 404.848 -0.628514 -2.61349 0
M  V30 4331 C 403.119 -3.01705 -1.91596 0
M  V30 4332 S 404.678 -3.43998 -2.72416 0
M  V30 4333 H 401.496 -0.618852 -0.350062 0
M  V30 4334 H 404.098 -1.93009 -0.31106 0
M  V30 4335 H 402.802 -3.88812 -1.31351 0
M  V30 4336 H 402.333 -2.87366 -2.68671 0
M  V30 4337 H 404.348 -3.0148 -3.94112 0
M  V30 4338 N 403.521 0.559213 -1.47345 0
M  V30 4339 C 404.453 1.68161 -1.55738 0
M  V30 4340 C 405.466 1.56636 -0.443744 0
M  V30 4341 O 406.655 1.6363 -0.713258 0
M  V30 4342 C 403.755 3.06611 -1.4437 0
M  V30 4343 C 402.928 3.4391 -2.70268 0
M  V30 4344 C 401.987 4.61515 -2.52765 0
M  V30 4345 O 401.013 4.66197 -3.26572 0
M  V30 4346 N 402.215 5.57883 -1.6046 0
M  V30 4347 H 404.98 1.61408 -2.52522 0
M  V30 4348 H 402.541 0.7458 -1.43699 0
M  V30 4349 H 404.533 3.83117 -1.30398 0
M  V30 4350 H 403.103 3.07602 -0.556766 0
M  V30 4351 H 402.323 2.56873 -2.99015 0
M  V30 4352 H 403.611 3.65605 -3.53851 0
M  V30 4353 H 403.009 5.56855 -0.996422 0
M  V30 4354 H 401.566 6.33723 -1.52441 0
M  V30 4355 N 404.999 1.35443 0.805782 0
M  V30 4356 C 406.415 1.15499 1.10146 0
M  V30 4357 C 406.615 -0.0319975 2.01475 0
M  V30 4358 O 405.671 -0.70236 2.42535 0
M  V30 4359 C 406.984 2.45833 1.73166 0
M  V30 4360 C 408.532 2.52047 1.85583 0
M  V30 4361 C 409.007 3.82427 2.52019 0
M  V30 4362 N 410.498 3.83682 2.59504 0
M  V30 4363 C 411.233 4.81294 3.11679 0
M  V30 4364 N 410.729 5.89294 3.64287 0
M  V30 4365 N 412.522 4.6873 3.1024 0
M  V30 4366 H 404.673 2.11469 0.198678 0
M  V30 4367 H 406.936 0.93594 0.150731 0
M  V30 4368 H 406.642 3.32874 1.13526 0
M  V30 4369 H 406.516 2.6044 2.72857 0
M  V30 4370 H 408.903 1.65435 2.44367 0
M  V30 4371 H 408.984 2.41354 0.847455 0
M  V30 4372 H 408.628 4.69437 1.93885 0
M  V30 4373 H 408.558 3.90409 3.53395 0
M  V30 4374 H 411.049 3.05648 2.22234 0
M  V30 4375 H 411.362 6.59768 4.02401 0
M  V30 4376 H 409.707 5.92985 3.62483 0
M  V30 4377 H 412.898 3.83496 2.68419 0
M  V30 4378 H 413.071 5.44965 3.50596 0
M  V30 4379 N 406.477 -1.02803 1.19454 0
M  V30 4380 C 407.702 -1.80378 1.02364 0
M  V30 4381 C 408.127 -1.83282 -0.423007 0
M  V30 4382 O 407.485 -1.25945 -1.30413 0
M  V30 4383 C 407.533 -3.23248 1.59821 0
M  V30 4384 O 406.637 -4.04 0.828105 0
M  V30 4385 H 405.978 -0.556799 0.361761 0
M  V30 4386 H 408.508 -1.29385 1.58495 0
M  V30 4387 H 408.518 -3.73994 1.63073 0
M  V30 4388 H 407.193 -3.2045 2.65113 0
M  V30 4389 H 405.77 -3.62635 0.86891 0
M  V30 4390 N 407.956 -0.998596 -1.21925 0
M  V30 4391 C 409.184 -0.696286 -1.94832 0
M  V30 4392 C 409.599 0.740032 -1.73692 0
M  V30 4393 O 408.956 1.5 -1.03953 0
M  V30 4394 C 409.007 -0.999833 -3.47398 0
M  V30 4395 O 408.728 -2.37972 -3.67833 0
M  V30 4396 C 410.229 -0.716025 -4.37479 0
M  V30 4397 H 407.449 -0.257111 -0.619786 0
M  V30 4398 H 409.993 -1.33491 -1.54921 0
M  V30 4399 H 408.148 -0.406918 -3.85257 0
M  V30 4400 H 408.562 -2.48338 -4.61983 0
M  V30 4401 H 410.036 -0.978642 -5.43256 0
M  V30 4402 H 410.513 0.349968 -4.37803 0
M  V30 4403 H 411.119 -1.29025 -4.05256 0
M  V30 4404 N 409.434 1.37368 -0.772513 0
M  V30 4405 C 410.68 1.99969 -0.337681 0
M  V30 4406 C 411.013 1.61184 1.08321 0
M  V30 4407 O 410.288 0.858395 1.74533 0
M  V30 4408 C 410.571 3.56858 -0.482121 0
M  V30 4409 C 410.424 4.0555 -1.94549 0
M  V30 4410 C 411.743 4.39955 0.113143 0
M  V30 4411 H 408.862 0.726464 -0.124171 0
M  V30 4412 H 411.504 1.63034 -0.975699 0
M  V30 4413 H 409.654 3.88452 0.0610361 0
M  V30 4414 H 411.326 3.84518 -2.54841 0
M  V30 4415 H 409.569 3.57715 -2.45403 0
M  V30 4416 H 410.24 5.14587 -1.9976 0
M  V30 4417 H 412.716 4.14623 -0.35031 0
M  V30 4418 H 411.592 5.48897 -0.0180514 0
M  V30 4419 H 411.853 4.25403 1.20354 0
M  V30 4420 N 410.912 0.523116 1.48665 0
M  V30 4421 C 411.875 -0.232592 2.28017 0
M  V30 4422 C 412.875 -0.874021 1.34972 0
M  V30 4423 O 414.065 -0.735132 1.57929 0
M  V30 4424 C 411.197 -1.33586 3.13636 0
M  V30 4425 H 412.39 0.464008 2.96289 0
M  V30 4426 H 409.943 0.278816 1.53793 0
M  V30 4427 H 410.678 -2.06593 2.4998 0
M  V30 4428 H 410.463 -0.881125 3.82071 0
M  V30 4429 H 411.953 -1.86759 3.73511 0
M  V30 4430 N 412.39 -1.55475 0.257931 0
M  V30 4431 C 413.615 -2.04064 -0.370488 0
M  V30 4432 C 414.04 -1.13565 -1.49948 0
M  V30 4433 O 413.398 -0.130781 -1.80828 0
M  V30 4434 C 413.446 -3.50554 -0.845237 0
M  V30 4435 O 412.55 -3.63173 -1.95394 0
M  V30 4436 H 411.891 -0.659257 -0.0792243 0
M  V30 4437 H 414.421 -2.00903 0.387212 0
M  V30 4438 H 414.431 -3.91588 -1.14555 0
M  V30 4439 H 413.106 -4.15896 -0.0191259 0
M  V30 4440 H 411.683 -3.34039 -1.65748 0
M  V30 4441 N 413.868 0.0150385 -1.57593 0
M  V30 4442 C 414.801 1.04475 -2.0288 0
M  V30 4443 C 415.779 1.3436 -0.915764 0
M  V30 4444 O 416.963 1.46779 -1.18271 0
M  V30 4445 C 414.09 2.37608 -2.41371 0
M  V30 4446 C 413.136 2.23487 -3.63257 0
M  V30 4447 S 413.969 1.57505 -5.11813 0
M  V30 4448 C 415.125 2.921 -5.5356 0
M  V30 4449 H 415.358 0.65907 -2.89903 0
M  V30 4450 H 412.891 0.225452 -1.52745 0
M  V30 4451 H 414.849 3.14165 -2.64217 0
M  V30 4452 H 413.51 2.7332 -1.54775 0
M  V30 4453 H 412.703 3.21802 -3.87891 0
M  V30 4454 H 412.305 1.55074 -3.40335 0
M  V30 4455 H 414.597 3.88419 -5.55101 0
M  V30 4456 H 415.54 2.72184 -6.53698 0
M  V30 4457 H 415.948 2.95318 -4.8109 0
M  V30 4458 N 415.346 1.54954 0.287554 0
M  V30 4459 C 416.279 1.81737 1.3801 0
M  V30 4460 C 417.257 0.669412 1.48181 0
M  V30 4461 O 418.441 0.910839 1.65033 0
M  V30 4462 C 415.568 1.96606 2.75796 0
M  V30 4463 C 414.614 3.19098 2.82982 0
M  V30 4464 S 415.447 4.7683 2.43707 0
M  V30 4465 C 416.603 4.94653 3.83496 0
M  V30 4466 H 416.836 2.74122 1.15085 0
M  V30 4467 H 414.369 1.46538 0.486403 0
M  V30 4468 H 416.327 2.05858 3.55152 0
M  V30 4469 H 414.988 1.05136 2.95982 0
M  V30 4470 H 414.181 3.26344 3.84077 0
M  V30 4471 H 413.783 3.08361 2.11635 0
M  V30 4472 H 416.075 4.79502 4.78628 0
M  V30 4473 H 417.018 5.96728 3.8121 0
M  V30 4474 H 417.426 4.2272 3.74123 0
M  V30 4475 N 416.824 -0.551391 1.4764 0
M  V30 4476 C 417.774 -1.65362 1.56969 0
M  V30 4477 C 418.758 -1.55098 0.428189 0
M  V30 4478 O 419.95 -1.63481 0.678441 0
M  V30 4479 C 417.079 -3.04129 1.59249 0
M  V30 4480 C 416.165 -3.19576 2.78804 0
M  V30 4481 N 416.556 -3.05067 4.03445 0
M  V30 4482 C 414.854 -3.50588 2.75688 0
M  V30 4483 C 415.555 -3.2336 4.83543 0
M  V30 4484 N 414.531 -3.4996 4.15968 0
M  V30 4485 H 418.333 -1.52722 2.51104 0
M  V30 4486 H 415.847 -0.756303 1.43714 0
M  V30 4487 H 417.844 -3.83278 1.64024 0
M  V30 4488 H 416.504 -3.17877 0.662148 0
M  V30 4489 H 417.515 -2.82273 4.34215 0
M  V30 4490 H 414.192 -3.70827 1.91817 0
M  V30 4491 H 415.582 -3.17061 5.92387 0
M  V30 4492 N 418.302 -1.35869 -0.798587 0
M  V30 4493 C 419.718 -1.16082 -1.09532 0
M  V30 4494 C 419.918 0.0213124 -2.01489 0
M  V30 4495 O 418.974 0.689488 -2.42904 0
M  V30 4496 C 420.287 -2.46748 -1.7186 0
M  V30 4497 C 421.835 -2.53028 -1.84244 0
M  V30 4498 C 422.31 -3.83758 -2.49988 0
M  V30 4499 N 423.801 -3.85053 -2.57465 0
M  V30 4500 C 424.536 -4.8294 -3.09122 0
M  V30 4501 N 424.032 -5.91217 -3.61157 0
M  V30 4502 N 425.825 -4.70369 -3.0775 0
M  V30 4503 H 417.976 -2.11571 -0.187461 0
M  V30 4504 H 420.239 -0.936726 -0.145765 0
M  V30 4505 H 419.945 -3.33471 -1.11759 0
M  V30 4506 H 419.819 -2.61883 -2.71472 0
M  V30 4507 H 422.206 -1.66729 -2.43486 0
M  V30 4508 H 422.287 -2.418 -0.834643 0
M  V30 4509 H 421.931 -4.70459 -1.91393 0
M  V30 4510 H 421.861 -3.92278 -3.5132 0
M  V30 4511 H 424.352 -3.06822 -2.20609 0
M  V30 4512 H 424.665 -6.61892 -3.98896 0
M  V30 4513 H 423.01 -5.94899 -3.59333 0
M  V30 4514 H 426.201 -3.84914 -2.66381 0
M  V30 4515 H 426.374 -5.46816 -3.47701 0
M  V30 4516 N 419.78 1.02168 -1.19998 0
M  V30 4517 C 420.712 2.10705 -0.901994 0
M  V30 4518 C 421.725 1.6244 0.108216 0
M  V30 4519 O 422.914 1.78082 -0.12214 0
M  V30 4520 C 420.014 3.37291 -0.329834 0
M  V30 4521 C 419.187 4.14714 -1.39035 0
M  V30 4522 C 418.246 5.19606 -0.830432 0
M  V30 4523 O 417.272 5.48809 -1.50989 0
M  V30 4524 N 418.474 5.79366 0.362696 0
M  V30 4525 H 421.239 2.36856 -1.83628 0
M  V30 4526 H 418.8 1.18518 -1.10296 0
M  V30 4527 H 420.792 4.04657 0.0587633 0
M  V30 4528 H 419.362 3.0843 0.508891 0
M  V30 4529 H 418.582 3.42392 -1.9535 0
M  V30 4530 H 419.87 4.63226 -2.10474 0
M  V30 4531 H 419.268 5.57968 0.932081 0
M  V30 4532 H 417.825 6.48106 0.69299 0
M  V30 4533 N 421.258 1.00505 1.21394 0
M  V30 4534 C 422.168 0.574806 2.27449 0
M  V30 4535 C 423.184 -0.382206 1.6975 0
M  V30 4536 O 424.36 -0.246027 1.99892 0
M  V30 4537 C 421.425 -0.0917414 3.46579 0
M  V30 4538 C 420.486 0.909758 4.1955 0
M  V30 4539 C 419.719 0.274924 5.32991 0
M  V30 4540 O 419.942 -0.928254 5.62796 0
M  V30 4541 O 418.876 0.985877 5.93771 0
M  V30 4542 H 422.702 1.45744 2.66444 0
M  V30 4543 H 420.287 0.773923 1.27792 0
M  V30 4544 H 422.169 -0.464551 4.18832 0
M  V30 4545 H 420.844 -0.948755 3.09484 0
M  V30 4546 H 419.751 1.33372 3.49518 0
M  V30 4547 H 421.084 1.73636 4.60555 0
M  V30 4548 N 422.737 -1.36956 0.779787 0
M  V30 4549 C 423.965 -2.03755 0.359398 0
M  V30 4550 C 424.38 -1.58807 -1.02106 0
M  V30 4551 O 423.737 -0.773024 -1.6532 0
M  V30 4552 C 423.788 -3.59251 0.402568 0
M  V30 4553 O 423.509 -4.02557 1.72858 0
M  V30 4554 C 425.01 -4.43291 -0.0284068 0
M  V30 4555 H 422.23 -0.654148 0.149437 0
M  V30 4556 H 424.774 -1.75128 1.05595 0
M  V30 4557 H 422.929 -3.86621 -0.245478 0
M  V30 4558 H 423.343 -4.97111 1.67275 0
M  V30 4559 H 424.817 -5.51975 0.0529466 0
M  V30 4560 H 425.294 -4.25719 -1.07982 0
M  V30 4561 H 425.9 -4.21163 0.591758 0
M  V30 4562 N 424.215 -0.530993 -1.48385 0
M  V30 4563 C 425.461 0.00274135 -2.028 0
M  V30 4564 C 425.794 1.33838 -1.40716 0
M  V30 4565 O 425.069 1.86465 -0.553277 0
M  V30 4566 C 425.352 0.123676 -3.59888 0
M  V30 4567 C 425.205 -1.2372 -4.3245 0
M  V30 4568 C 426.524 0.849967 -4.31814 0
M  V30 4569 H 423.643 -0.000477758 -0.737 0
M  V30 4570 H 426.285 -0.688217 -1.77098 0
M  V30 4571 H 424.435 0.712157 -3.81917 0
M  V30 4572 H 426.107 -1.86687 -4.21836 0
M  V30 4573 H 424.35 -1.81882 -3.93829 0
M  V30 4574 H 425.021 -1.10557 -5.40815 0
M  V30 4575 H 427.497 0.350572 -4.14621 0
M  V30 4576 H 426.373 0.903486 -5.41413 0
M  V30 4577 H 426.634 1.90047 -3.99167 0
M  V30 4578 N 425.693 1.55336 -0.266172 0
M  V30 4579 C 426.97 1.91372 0.404486 0
M  V30 4580 C 427.35 1.18935 1.74407 0
M  V30 4581 O 426.698 0.3132 2.26343 0
M  V30 4582 C 426.908 3.44581 0.553593 0
M  V30 4583 C 428.256 4.16196 0.840618 0
M  V30 4584 O 429.28 3.50426 0.638739 0
M  V30 4585 O 428.139 5.32567 1.22618 0
M  V30 4586 H 425.233 0.797194 0.220025 0
M  V30 4587 H 427.779 1.66813 -0.311664 0
M  V30 4588 H 426.551 3.89357 -0.389498 0
M  V30 4589 H 426.174 3.75065 1.31955 0
M  V30 4590 N 427.171 -0.0066808 1.57599 0
M  V30 4591 C 428.411 -0.697501 1.92131 0
M  V30 4592 C 428.775 -1.71306 0.867071 0
M  V30 4593 O 429.976 -2.45377 1.09743 0
M  V30 4594 C 428.247 -1.32978 3.3174 0
M  V30 4595 S 429.806 -2.04665 3.88146 0
M  V30 4596 H 426.624 -0.230555 0.672581 0
M  V30 4597 H 429.226 0.0484026 1.9544 0
M  V30 4598 H 427.93 -0.57772 4.06313 0
M  V30 4599 H 427.461 -2.11376 3.31789 0
M  V30 4600 H 429.476 -3.32097 3.68682 0
M  V30 4601 N 428.649 -1.55105 -0.279332 0
M  V30 4602 C 429.579 -1.90557 -1.34945 0
M  V30 4603 C 430.56 -0.766738 -1.51839 0
M  V30 4604 O 431.745 -1.02434 -1.64988 0
M  V30 4605 C 428.875 -2.17193 -2.71006 0
M  V30 4606 C 427.829 -3.33021 -2.68851 0
M  V30 4607 C 427.155 -3.45123 -4.08405 0
M  V30 4608 C 428.455 -4.69578 -2.28678 0
M  V30 4609 H 430.149 -2.80188 -1.05522 0
M  V30 4610 H 427.695 -1.34811 -0.506173 0
M  V30 4611 H 429.648 -2.40581 -3.45975 0
M  V30 4612 H 428.372 -1.24355 -3.01999 0
M  V30 4613 H 427.031 -3.0959 -1.9634 0
M  V30 4614 H 426.679 -2.49762 -4.3661 0
M  V30 4615 H 426.379 -4.22995 -4.07859 0
M  V30 4616 H 427.903 -3.70796 -4.85121 0
M  V30 4617 H 429.317 -4.92553 -2.93368 0
M  V30 4618 H 427.714 -5.5032 -2.39306 0
M  V30 4619 H 428.784 -4.68828 -1.23807 0
M  V30 4620 N 430.127 0.543554 -1.4793 0
M  V30 4621 C 431.074 1.64942 -1.6144 0
M  V30 4622 C 432.044 1.59692 -0.456903 0
M  V30 4623 O 433.229 1.78321 -0.678688 0
M  V30 4624 C 430.369 3.03238 -1.64744 0
M  V30 4625 C 429.482 3.18823 -2.91506 0
M  V30 4626 C 428.617 4.47599 -2.86057 0
M  V30 4627 C 427.656 4.56664 -4.07584 0
M  V30 4628 N 426.793 5.76811 -4.00292 0
M  V30 4629 H 431.633 1.52733 -2.55884 0
M  V30 4630 H 429.17 0.7438 -1.2691 0
M  V30 4631 H 431.128 3.83339 -1.64641 0
M  V30 4632 H 429.758 3.1425 -0.738017 0
M  V30 4633 H 428.81 2.32064 -3.01414 0
M  V30 4634 H 430.122 3.21384 -3.81463 0
M  V30 4635 H 429.276 5.35975 -2.84281 0
M  V30 4636 H 428.015 4.47538 -1.93807 0
M  V30 4637 H 427.02 3.66697 -4.09651 0
M  V30 4638 H 428.245 4.58474 -5.00978 0
M  V30 4639 H 426.191 5.77673 -3.10853 0
M  V30 4640 H 426.108 5.80808 -4.8394 0
M  V30 4641 H 427.376 6.67512 -4.02553 0
M  V30 4642 N 431.605 1.3629 0.791371 0
M  V30 4643 C 432.552 1.30458 1.90393 0
M  V30 4644 C 433.522 0.173632 1.6519 0
M  V30 4645 O 434.707 0.35983 1.87376 0
M  V30 4646 C 431.847 1.09777 3.27174 0
M  V30 4647 C 430.96 2.31929 3.64462 0
M  V30 4648 C 430.095 2.04276 4.90352 0
M  V30 4649 C 429.134 3.224 5.20312 0
M  V30 4650 N 428.271 2.94424 6.37385 0
M  V30 4651 H 433.111 2.25589 1.94714 0
M  V30 4652 H 430.648 1.12122 0.952216 0
M  V30 4653 H 432.606 0.958133 4.06049 0
M  V30 4654 H 431.236 0.183014 3.22281 0
M  V30 4655 H 430.288 2.56703 2.80727 0
M  V30 4656 H 431.6 3.20085 3.82553 0
M  V30 4657 H 430.754 1.87231 5.77087 0
M  V30 4658 H 429.493 1.13428 4.74326 0
M  V30 4659 H 428.498 3.40005 4.32061 0
M  V30 4660 H 429.723 4.14071 5.38258 0
M  V30 4661 H 427.669 2.06185 6.22755 0
M  V30 4662 H 427.586 3.76118 6.55798 0
M  V30 4663 H 428.854 2.80953 7.27108 0
M  V30 4664 N 433.083 -1.0153 1.20538 0
M  V30 4665 C 434.33 -1.75149 1.01633 0
M  V30 4666 C 434.658 -1.89189 -0.451399 0
M  V30 4667 O 433.913 -1.41551 -1.35136 0
M  V30 4668 C 434.212 -3.17213 1.64654 0
M  V30 4669 C 433.878 -3.23146 3.14464 0
M  V30 4670 C 432.54 -3.24472 3.55347 0
M  V30 4671 C 434.892 -3.21207 4.10458 0
M  V30 4672 C 432.22 -3.21532 4.90748 0
M  V30 4673 C 434.572 -3.19808 5.45807 0
M  V30 4674 C 433.236 -3.19439 5.86102 0
M  V30 4675 H 432.506 -0.640914 0.3719 0
M  V30 4676 H 435.153 -1.19071 1.49981 0
M  V30 4677 H 433.458 -3.76457 1.08571 0
M  V30 4678 H 435.155 -3.72871 1.4754 0
M  V30 4679 H 431.745 -3.2285 2.81897 0
M  V30 4680 H 435.929 -3.19351 3.79906 0
M  V30 4681 H 431.185 -3.19578 5.21229 0
M  V30 4682 H 435.359 -3.1726 6.19935 0
M  V30 4683 H 432.986 -3.16915 6.90991 0
M  V30 4684 N 434.561 -1.01147 -1.20859 0
M  V30 4685 C 435.509 -0.57059 -2.25493 0
M  V30 4686 C 436.503 0.388109 -1.64894 0
M  V30 4687 O 437.709 0.258592 -1.78133 0
M  V30 4688 H 434.084 -0.166191 -0.733406 0
M  V30 4689 H 436.055 -1.46411 -2.60012 0
M  V30 4690 C 434.804 0.0805241 -3.47607 0
M  V30 4691 H 434.127 -0.648156 -3.94511 0
M  V30 4692 H 435.567 0.352197 -4.22535 0
M  V30 4693 C 434.026 1.32175 -3.09889 0
M  V30 4694 O 434.556 2.41553 -3.20959 0
M  V30 4695 N 432.762 1.20392 -2.64488 0
M  V30 4696 H 432.309 0.313905 -2.5568 0
M  V30 4697 H 432.267 2.03541 -2.39621 0
M  V30 4698 N 436.039 1.36541 -0.78704 0
M  V30 4699 C 437.002 2.28413 -0.189778 0
M  V30 4700 C 438.002 1.48719 0.611499 0
M  V30 4701 O 439.192 1.68737 0.432842 0
M  V30 4702 C 436.324 3.32824 0.737638 0
M  V30 4703 H 437.517 2.82743 -0.999831 0
M  V30 4704 H 435.07 1.46065 -0.556298 0
M  V30 4705 H 435.805 2.83646 1.57212 0
M  V30 4706 H 435.59 3.91752 0.165044 0
M  V30 4707 H 437.08 4.0144 1.15047 0
M  V30 4708 N 437.518 0.538854 1.48102 0
M  V30 4709 C 438.934 0.19732 1.58376 0
M  V30 4710 C 439.134 -1.29971 1.5398 0
M  V30 4711 O 438.19 -2.07861 1.43352 0
M  V30 4712 C 439.503 0.807716 2.89649 0
M  V30 4713 C 441.051 0.77726 3.03196 0
M  V30 4714 C 441.526 1.36639 4.37143 0
M  V30 4715 N 443.017 1.32875 4.43732 0
M  V30 4716 C 443.752 1.7544 5.45901 0
M  V30 4717 N 443.248 2.25776 6.54979 0
M  V30 4718 N 445.041 1.66623 5.36836 0
M  V30 4719 H 437.192 1.5117 1.49202 0
M  V30 4720 H 439.455 0.629327 0.708979 0
M  V30 4721 H 439.161 1.85909 2.98548 0
M  V30 4722 H 439.035 0.289975 3.76084 0
M  V30 4723 H 441.422 -0.265374 2.93904 0
M  V30 4724 H 441.503 1.33256 2.18349 0
M  V30 4725 H 441.147 2.408 4.47189 0
M  V30 4726 H 441.077 0.786689 5.20691 0
M  V30 4727 H 443.568 0.96037 3.65493 0
M  V30 4728 H 443.881 2.56226 7.29087 0
M  V30 4729 H 442.226 2.29775 6.55918 0
M  V30 4730 H 445.417 1.27089 4.50517 0
M  V30 4731 H 445.59 2.00115 6.16326 0
M  V30 4732 N 438.996 -1.55193 0.274407 0
M  V30 4733 C 440.412 -1.59401 -0.0797543 0
M  V30 4734 C 440.612 -1.29162 -1.54659 0
M  V30 4735 O 439.668 -1.05215 -2.29534 0
M  V30 4736 C 440.981 -2.99257 0.294238 0
M  V30 4737 C 442.529 -3.12072 0.240796 0
M  V30 4738 C 443.004 -4.54194 0.589218 0
M  V30 4739 N 444.495 -4.60033 0.540744 0
M  V30 4740 C 445.23 -5.68027 0.783147 0
M  V30 4741 N 444.726 -6.8417 1.09013 0
M  V30 4742 N 446.519 -5.57572 0.711993 0
M  V30 4743 H 438.67 -1.73113 1.23067 0
M  V30 4744 H 440.933 -0.807197 0.497129 0
M  V30 4745 H 440.639 -3.26217 1.31435 0
M  V30 4746 H 440.513 -3.75427 -0.365281 0
M  V30 4747 H 442.9 -2.84877 -0.770024 0
M  V30 4748 H 442.981 -2.38117 0.934563 0
M  V30 4749 H 442.625 -4.82115 1.59772 0
M  V30 4750 H 442.555 -5.26448 -0.126331 0
M  V30 4751 H 445.046 -3.76599 0.313327 0
M  V30 4752 H 445.359 -7.6243 1.26178 0
M  V30 4753 H 443.704 -6.85787 1.12789 0
M  V30 4754 H 446.895 -4.65714 0.472014 0
M  V30 4755 H 447.068 -6.41659 0.90429 0
M  V30 4756 N 440.474 -0.00167713 -1.576 0
M  V30 4757 C 441.421 0.989195 -2.08527 0
M  V30 4758 C 442.391 1.34031 -0.981065 0
M  V30 4759 O 443.576 1.43839 -1.2536 0
M  V30 4760 C 440.716 2.27537 -2.59463 0
M  V30 4761 C 439.829 1.98314 -3.83791 0
M  V30 4762 C 438.964 3.21025 -4.23222 0
M  V30 4763 C 438.003 2.87495 -5.40382 0
M  V30 4764 N 437.14 4.02749 -5.75098 0
M  V30 4765 H 441.98 0.547973 -2.92919 0
M  V30 4766 H 439.517 0.258917 -1.44803 0
M  V30 4767 H 441.475 3.02729 -2.87073 0
M  V30 4768 H 440.105 2.69325 -1.77943 0
M  V30 4769 H 439.157 1.13482 -3.63078 0
M  V30 4770 H 440.469 1.69601 -4.69081 0
M  V30 4771 H 439.623 4.04561 -4.52123 0
M  V30 4772 H 438.362 3.52877 -3.36644 0
M  V30 4773 H 437.367 2.02367 -5.11202 0
M  V30 4774 H 438.592 2.56889 -6.28637 0
M  V30 4775 H 436.538 4.34494 -4.91478 0
M  V30 4776 H 436.455 3.77566 -6.54966 0
M  V30 4777 H 437.723 4.87068 -6.08592 0
M  V30 4778 N 441.952 1.55251 0.271103 0
M  V30 4779 C 442.882 1.9127 1.33933 0
M  V30 4780 C 443.863 0.77478 1.5143 0
M  V30 4781 O 445.048 1.03307 1.64442 0
M  V30 4782 C 442.178 2.18627 2.69851 0
M  V30 4783 C 441.132 3.34442 2.67081 0
M  V30 4784 C 440.458 3.47284 4.06569 0
M  V30 4785 C 441.758 4.70784 2.26185 0
M  V30 4786 H 443.452 2.80744 1.04035 0
M  V30 4787 H 440.998 1.35077 0.499017 0
M  V30 4788 H 442.951 2.42413 3.44694 0
M  V30 4789 H 441.675 1.25955 3.01335 0
M  V30 4790 H 440.334 3.10627 1.94695 0
M  V30 4791 H 439.982 2.52074 4.35279 0
M  V30 4792 H 439.682 4.25152 4.0561 0
M  V30 4793 H 441.206 3.73363 4.83148 0
M  V30 4794 H 442.62 4.94102 2.90751 0
M  V30 4795 H 441.017 5.51582 2.36384 0
M  V30 4796 H 442.087 4.69478 1.21319 0
M  V30 4797 N 443.43 -0.535701 1.48216 0
M  V30 4798 C 444.377 -1.64083 1.62312 0
M  V30 4799 C 445.347 -1.59448 0.465365 0
M  V30 4800 O 446.532 -1.77959 0.688135 0
M  V30 4801 C 443.672 -3.0236 1.66349 0
M  V30 4802 C 442.785 -3.17273 2.93193 0
M  V30 4803 C 441.92 -4.46075 2.88427 0
M  V30 4804 C 440.959 -4.54496 4.1 0
M  V30 4805 N 440.096 -5.7468 4.03345 0
M  V30 4806 H 444.936 -1.51374 2.5669 0
M  V30 4807 H 442.473 -0.737059 1.27302 0
M  V30 4808 H 444.431 -3.82461 1.66672 0
M  V30 4809 H 443.061 -3.13854 0.754672 0
M  V30 4810 H 442.113 -2.30462 3.02641 0
M  V30 4811 H 443.425 -3.19357 3.83162 0
M  V30 4812 H 442.579 -5.3446 2.87119 0
M  V30 4813 H 441.318 -4.46504 1.96177 0
M  V30 4814 H 440.323 -3.64519 4.11589 0
M  V30 4815 H 441.548 -4.5581 5.03402 0
M  V30 4816 H 439.494 -5.76017 3.13912 0
M  V30 4817 H 439.411 -5.78234 4.87013 0
M  V30 4818 H 440.679 -6.65367 4.06087 0
M  V30 4819 N 444.908 -1.36708 -0.784132 0
M  V30 4820 C 446.156 -1.30972 -1.53918 0
M  V30 4821 C 446.477 0.109086 -1.94695 0
M  V30 4822 O 445.747 1.05048 -1.65353 0
M  V30 4823 H 444.327 -0.481819 -0.570841 0
M  V30 4824 H 446.989 -1.71063 -0.934002 0
M  V30 4825 H 446.085 -1.94061 -2.44431 0
M  V30 4826 N 446.386 1.0089 -1.21074 0
M  V30 4827 C 447.349 2.0775 -0.968129 0
M  V30 4828 C 448.349 1.6069 0.0593445 0
M  V30 4829 O 449.539 1.73293 -0.177525 0
M  V30 4830 C 446.671 3.37794 -0.459108 0
M  V30 4831 H 447.864 2.30707 -1.9161 0
M  V30 4832 H 445.417 1.17807 -1.02719 0
M  V30 4833 H 446.152 3.20516 0.49397 0
M  V30 4834 H 445.937 3.7328 -1.20019 0
M  V30 4835 H 447.427 4.16454 -0.309099 0
M  V30 4836 N 447.864 1.01787 1.20321 0
M  V30 4837 C 449.113 0.703249 1.89043 0
M  V30 4838 C 449.426 -0.770445 1.79787 0
M  V30 4839 O 450.632 -1.19767 2.43656 0
M  V30 4840 C 449.088 1.20749 3.3904 0
M  V30 4841 C 448.696 2.70817 3.56878 0
M  V30 4842 C 450.44 0.968352 4.13308 0
M  V30 4843 C 448.347 3.14716 5.00708 0
M  V30 4844 H 447.277 0.259354 0.707991 0
M  V30 4845 H 449.928 1.23072 1.36108 0
M  V30 4846 H 448.31 0.607989 3.91305 0
M  V30 4847 H 449.484 3.36327 3.14993 0
M  V30 4848 H 447.799 2.92888 2.95983 0
M  V30 4849 H 450.396 1.27173 5.19356 0
M  V30 4850 H 450.739 -0.095149 4.16191 0
M  V30 4851 H 451.272 1.53129 3.67146 0
M  V30 4852 H 448.011 4.20347 5.02979 0
M  V30 4853 H 447.531 2.53927 5.43398 0
M  V30 4854 H 449.21 3.07426 5.69296 0
M  V30 4855 N 449.342 -1.36122 0.79427 0
M  V30 4856 C 450.272 -2.32551 0.210328 0
M  V30 4857 C 451.253 -1.56884 -0.657386 0
M  V30 4858 O 452.438 -1.85014 -0.590207 0
M  V30 4859 C 449.568 -3.41128 -0.651819 0
M  V30 4860 C 448.522 -4.27842 0.116395 0
M  V30 4861 C 447.848 -5.2763 -0.86666 0
M  V30 4862 C 449.148 -5.05647 1.30837 0
M  V30 4863 H 450.842 -2.81636 1.01594 0
M  V30 4864 H 448.388 -1.35407 0.489981 0
M  V30 4865 H 450.341 -4.07581 -1.07031 0
M  V30 4866 H 449.065 -2.90622 -1.49019 0
M  V30 4867 H 447.724 -3.62952 0.515915 0
M  V30 4868 H 447.372 -4.73395 -1.70019 0
M  V30 4869 H 447.072 -5.86514 -0.35705 0
M  V30 4870 H 448.596 -5.96955 -1.28361 0
M  V30 4871 H 450.01 -5.65113 0.965393 0
M  V30 4872 H 448.407 -5.73967 1.75161 0
M  V30 4873 H 449.477 -4.37006 2.10128 0
M  V30 4874 N 450.82 -0.546701 -1.47814 0
M  V30 4875 C 452.048 -0.0232857 -2.06887 0
M  V30 4876 C 452.463 1.26571 -1.4009 0
M  V30 4877 O 451.82 1.7569 -0.493906 0
M  V30 4878 C 451.871 0.186975 -3.61016 0
M  V30 4879 O 451.592 -1.05097 -4.25307 0
M  V30 4880 C 453.093 0.748872 -4.36929 0
M  V30 4881 H 450.313 -0.0410763 -0.669742 0
M  V30 4882 H 452.857 -0.757117 -1.89968 0
M  V30 4883 H 451.012 0.870903 -3.77484 0
M  V30 4884 H 451.426 -0.842121 -5.17695 0
M  V30 4885 H 452.9 0.845334 -5.45489 0
M  V30 4886 H 453.377 1.75772 -4.02493 0
M  V30 4887 H 453.983 0.100979 -4.2518 0
M  V30 4888 N 452.299 1.55045 -0.282633 0
M  V30 4889 C 453.527 2.04168 0.33512 0
M  V30 4890 C 453.942 1.16071 1.48906 0
M  V30 4891 O 453.299 0.182391 1.81586 0
M  V30 4892 C 453.35 3.52332 0.808957 0
M  V30 4893 O 453.071 4.37078 -0.299038 0
M  V30 4894 C 454.572 4.17375 1.49375 0
M  V30 4895 H 451.792 0.666744 0.0754543 0
M  V30 4896 H 454.336 2.00205 -0.416918 0
M  V30 4897 H 452.491 3.56715 1.51106 0
M  V30 4898 H 452.905 5.24458 0.0665514 0
M  V30 4899 H 454.379 5.22627 1.77664 0
M  V30 4900 H 454.856 3.65999 2.42778 0
M  V30 4901 H 455.462 4.17016 0.835305 0
M  V30 4902 N 453.777 0.010035 1.57597 0
M  V30 4903 C 454.71 -1.01234 2.04516 0
M  V30 4904 C 455.688 -1.32886 0.937024 0
M  V30 4905 O 456.872 -1.44879 1.20592 0
M  V30 4906 C 453.999 -2.33738 2.45121 0
M  V30 4907 C 453.045 -2.17679 3.66767 0
M  V30 4908 S 453.878 -1.49343 5.14254 0
M  V30 4909 C 455.034 -2.83256 5.58137 0
M  V30 4910 H 455.267 -0.612866 2.90914 0
M  V30 4911 H 452.8 -0.201124 1.53084 0
M  V30 4912 H 454.758 -3.09922 2.69182 0
M  V30 4913 H 453.419 -2.70823 1.59103 0
M  V30 4914 H 452.612 -3.1559 3.92962 0
M  V30 4915 H 452.214 -1.4964 3.42759 0
M  V30 4916 H 454.506 -3.79538 5.6121 0
M  V30 4917 H 455.449 -2.61749 6.57946 0
M  V30 4918 H 455.857 -2.87627 4.85727 0
M  V30 4919 N 455.255 -1.55392 -0.262866 0
M  V30 4920 C 456.185 -1.91978 -1.32917 0
M  V30 4921 C 457.166 -0.7828 -1.51017 0
M  V30 4922 O 458.351 -1.04178 -1.63892 0
M  V30 4923 C 455.481 -2.20055 -2.68687 0
M  V30 4924 C 454.435 -3.35854 -2.65304 0
M  V30 4925 C 453.761 -3.49435 -4.04721 0
M  V30 4926 C 455.061 -4.71977 -2.23685 0
M  V30 4927 H 456.755 -2.81292 -1.02544 0
M  V30 4928 H 454.301 -1.3534 -0.491846 0
M  V30 4929 H 456.254 -2.44237 -3.43404 0
M  V30 4930 H 454.978 -1.27551 -3.00663 0
M  V30 4931 H 453.637 -3.11655 -1.93045 0
M  V30 4932 H 453.285 -2.54379 -4.33936 0
M  V30 4933 H 452.985 -4.27297 -4.0335 0
M  V30 4934 H 454.509 -3.7592 -4.81161 0
M  V30 4935 H 455.923 -4.95637 -2.88127 0
M  V30 4936 H 454.32 -5.52828 -2.33456 0
M  V30 4937 H 455.39 -4.70115 -1.18827 0
M  V30 4938 N 456.733 0.527833 -1.48498 0
M  V30 4939 C 457.696 1.61439 -1.62696 0
M  V30 4940 C 458.696 1.52824 -0.500136 0
M  V30 4941 O 459.886 1.56456 -0.765976 0
M  V30 4942 C 457.018 3.01063 -1.59918 0
M  V30 4943 H 458.211 1.50189 -2.59583 0
M  V30 4944 H 455.764 0.750055 -1.37127 0
M  V30 4945 H 456.499 3.17818 -0.645163 0
M  V30 4946 H 456.284 3.08725 -2.41726 0
M  V30 4947 H 457.774 3.80057 -1.73051 0
M  V30 4948 N 458.211 1.37122 0.776871 0
M  V30 4949 C 459.439 1.3523 1.5659 0
M  V30 4950 C 459.854 -0.0635518 1.88693 0
M  V30 4951 O 459.211 -1.02394 1.51069 0
M  V30 4952 C 459.262 2.18583 2.8793 0
M  V30 4953 O 458.983 3.5465 2.57206 0
M  V30 4954 C 460.484 2.24612 3.82183 0
M  V30 4955 H 457.704 0.4634 0.485285 0
M  V30 4956 H 460.248 1.80392 0.963266 0
M  V30 4957 H 458.403 1.76943 3.4463 0
M  V30 4958 H 458.817 3.98286 3.41275 0
M  V30 4959 H 460.291 2.87267 4.71361 0
M  V30 4960 H 460.768 1.25309 4.20944 0
M  V30 4961 H 461.374 2.66543 3.31414 0
M  V30 4962 N 459.689 -1.00246 1.21608 0
M  V30 4963 C 461.105 -1.26435 0.973975 0
M  V30 4964 C 461.305 -1.98642 -0.338143 0
M  V30 4965 O 460.361 -2.29026 -1.06317 0
M  V30 4966 C 461.674 -2.08551 2.16626 0
M  V30 4967 C 463.222 -2.21769 2.20879 0
M  V30 4968 C 463.697 -3.07267 3.39633 0
M  V30 4969 N 465.188 -3.14855 3.39736 0
M  V30 4970 C 465.923 -3.81274 4.28273 0
M  V30 4971 N 465.419 -4.497 5.27012 0
M  V30 4972 N 467.212 -3.7794 4.16074 0
M  V30 4973 H 459.363 -0.518089 2.05984 0
M  V30 4974 H 461.626 -0.291368 0.902113 0
M  V30 4975 H 461.332 -1.62847 3.11727 0
M  V30 4976 H 461.206 -3.09303 2.15897 0
M  V30 4977 H 463.593 -2.66691 1.26332 0
M  V30 4978 H 463.674 -1.20478 2.25652 0
M  V30 4979 H 463.318 -2.63047 4.34475 0
M  V30 4980 H 463.248 -4.08678 3.321 0
M  V30 4981 H 465.739 -2.66147 2.6828 0
M  V30 4982 H 466.052 -4.98092 5.90867 0
M  V30 4983 H 464.397 -4.48479 5.30935 0
M  V30 4984 H 467.588 -3.23638 3.38195 0
M  V30 4985 H 467.761 -4.29424 4.85282 0
M  V30 4986 N 461.167 -1.02423 -1.1978 0
M  V30 4987 C 462.115 -0.594474 -2.24875 0
M  V30 4988 C 463.109 0.370598 -1.65296 0
M  V30 4989 O 464.315 0.239684 -1.78397 0
M  V30 4990 H 460.69 -0.173961 -0.731602 0
M  V30 4991 H 462.661 -1.4916 -2.58445 0
M  V30 4992 C 461.41 0.0436512 -3.47673 0
M  V30 4993 H 460.733 -0.689963 -3.93801 0
M  V30 4994 H 462.173 0.307362 -4.22884 0
M  V30 4995 C 460.632 1.28881 -3.11274 0
M  V30 4996 O 461.162 2.38135 -3.23503 0
M  V30 4997 N 459.368 1.1758 -2.6575 0
M  V30 4998 H 458.915 0.286769 -2.55999 0
M  V30 4999 H 458.873 2.00988 -2.41767 0
M  V30 5000 N 462.645 1.35699 -0.801477 0
M  V30 5001 C 463.892 1.98913 -0.379459 0
M  V30 5002 C 464.22 1.63592 1.05204 0
M  V30 5003 O 463.475 0.888563 1.74365 0
M  V30 5004 C 463.774 3.53828 -0.504041 0
M  V30 5005 C 463.44 4.09002 -1.8981 0
M  V30 5006 C 462.102 4.23783 -2.27951 0
M  V30 5007 C 464.454 4.38939 -2.81038 0
M  V30 5008 C 461.782 4.65816 -3.56696 0
M  V30 5009 C 464.134 4.82409 -4.09224 0
M  V30 5010 C 462.798 4.95395 -4.4737 0
M  V30 5011 H 462.068 0.727874 -0.138854 0
M  V30 5012 H 464.715 1.61994 -1.02128 0
M  V30 5013 H 463.02 3.91175 0.221242 0
M  V30 5014 H 464.717 4.00687 -0.158361 0
M  V30 5015 H 461.307 3.97946 -1.59176 0
M  V30 5016 H 465.491 4.27077 -2.52821 0
M  V30 5017 H 460.747 4.74059 -3.86106 0
M  V30 5018 H 464.921 5.04535 -4.80018 0
M  V30 5019 H 462.548 5.27724 -5.47185 0
M  V30 5020 N 464.123 0.554532 1.47522 0
M  V30 5021 C 465.348 0.0322661 2.07375 0
M  V30 5022 C 465.773 -1.25079 1.40488 0
M  V30 5023 O 465.131 -1.74859 0.47896 0
M  V30 5024 C 465.179 -0.149397 3.6029 0
M  V30 5025 O 464.283 -1.21259 3.9417 0
M  V30 5026 H 463.624 0.0501228 0.662106 0
M  V30 5027 H 466.154 0.769452 1.8958 0
M  V30 5028 H 466.164 -0.364437 4.06369 0
M  V30 5029 H 464.839 0.787743 4.08372 0
M  V30 5030 H 463.416 -0.97825 3.5984 0
M  V30 5031 N 465.601 -1.54893 0.290851 0
M  V30 5032 C 466.564 -2.21824 -0.576784 0
M  V30 5033 C 467.564 -1.20104 -1.06919 0
M  V30 5034 O 468.754 -1.44906 -0.966843 0
M  V30 5035 C 465.886 -2.89662 -1.79747 0
M  V30 5036 H 467.079 -2.99899 0.00784051 0
M  V30 5037 H 464.632 -1.56245 0.0415934 0
M  V30 5038 H 465.367 -2.15639 -2.42219 0
M  V30 5039 H 465.152 -3.64219 -1.45214 0
M  V30 5040 H 466.642 -3.4075 -2.4141 0
M  V30 5041 N 467.08 -0.0183926 -1.57589 0
M  V30 5042 C 468.043 0.951986 -2.08494 0
M  V30 5043 C 469.043 1.26092 -0.997874 0
M  V30 5044 O 470.233 1.20304 -1.25987 0
M  V30 5045 C 467.365 2.27165 -2.54182 0
M  V30 5046 H 468.558 0.511307 -2.95509 0
M  V30 5047 H 466.111 0.229444 -1.54607 0
M  V30 5048 H 466.846 2.75884 -1.70465 0
M  V30 5049 H 466.631 2.06057 -3.33591 0
M  V30 5050 H 468.121 2.9674 -2.93828 0
M  V30 5051 N 468.558 1.5553 0.254621 0
M  V30 5052 C 469.505 1.89666 1.31512 0
M  V30 5053 C 470.475 0.750057 1.482 0
M  V30 5054 O 471.66 1.00301 1.62309 0
M  V30 5055 C 468.8 2.19009 2.667 0
M  V30 5056 C 467.913 3.46435 2.58083 0
M  V30 5057 C 467.048 3.65386 3.85573 0
M  V30 5058 C 466.087 4.8644 3.71541 0
M  V30 5059 N 465.224 5.01952 4.90906 0
M  V30 5060 H 470.064 2.80109 1.017 0
M  V30 5061 H 467.601 1.38666 0.490938 0
M  V30 5062 H 469.559 2.34025 3.45381 0
M  V30 5063 H 468.189 1.31779 2.94676 0
M  V30 5064 H 467.241 3.39792 1.71013 0
M  V30 5065 H 468.553 4.35258 2.43622 0
M  V30 5066 H 467.707 3.80319 4.72697 0
M  V30 5067 H 466.446 2.74781 4.02922 0
M  V30 5068 H 465.451 4.71491 2.82801 0
M  V30 5069 H 466.676 5.78497 3.55694 0
M  V30 5070 H 464.622 4.14283 5.08631 0
M  V30 5071 H 464.539 5.84851 4.79046 0
M  V30 5072 H 465.807 5.21289 5.7955 0
M  V30 5073 N 470.036 -0.519951 1.48776 0
M  V30 5074 C 471.261 -1.30447 1.6124 0
M  V30 5075 C 471.686 -1.86055 0.276591 0
M  V30 5076 O 471.044 -1.64915 -0.753183 0
M  V30 5077 C 471.092 -2.42406 2.66967 0
M  V30 5078 O 470.196 -3.45728 2.24824 0
M  V30 5079 H 469.537 -0.385924 0.540332 0
M  V30 5080 H 472.067 -0.624572 1.94834 0
M  V30 5081 H 472.077 -2.88447 2.88552 0
M  V30 5082 H 470.752 -2.01294 3.63941 0
M  V30 5083 H 469.329 -3.05737 2.13494 0
M  V30 5084 N 471.514 -1.37532 -0.769588 0
M  V30 5085 C 472.444 -1.36172 -1.89682 0
M  V30 5086 C 473.425 -0.23001 -1.68538 0
M  V30 5087 O 474.61 -0.43069 -1.89364 0
M  V30 5088 C 471.74 -1.1701 -3.26995 0
M  V30 5089 C 470.694 -2.27216 -3.62708 0
M  V30 5090 C 470.02 -1.93174 -4.98586 0
M  V30 5091 C 471.32 -3.6941 -3.69234 0
M  V30 5092 H 473.014 -2.30499 -1.91078 0
M  V30 5093 H 470.56 -1.10953 -0.917902 0
M  V30 5094 H 472.513 -1.14688 -4.05493 0
M  V30 5095 H 471.237 -0.191395 -3.26039 0
M  V30 5096 H 469.896 -2.28697 -2.86519 0
M  V30 5097 H 469.544 -0.938281 -4.94171 0
M  V30 5098 H 469.244 -2.66973 -5.23449 0
M  V30 5099 H 470.768 -1.92443 -5.79481 0
M  V30 5100 H 472.182 -3.70047 -4.37879 0
M  V30 5101 H 470.579 -4.4228 -4.05597 0
M  V30 5102 H 471.649 -4.0288 -2.69844 0
M  V30 5103 N 472.992 0.995999 -1.22138 0
M  V30 5104 C 473.922 2.10387 -1.01289 0
M  V30 5105 C 474.903 1.69975 0.0651454 0
M  V30 5106 O 476.088 1.9396 -0.0964628 0
M  V30 5107 C 473.218 3.42312 -0.586517 0
M  V30 5108 C 472.172 3.96558 -1.61014 0
M  V30 5109 C 471.498 5.24494 -1.0397 0
M  V30 5110 C 472.798 4.27595 -2.99933 0
M  V30 5111 H 474.492 2.28086 -1.93951 0
M  V30 5112 H 472.038 1.09607 -0.933928 0
M  V30 5113 H 473.991 4.19223 -0.427793 0
M  V30 5114 H 472.715 3.24431 0.375761 0
M  V30 5115 H 471.374 3.21776 -1.75658 0
M  V30 5116 H 471.022 5.02953 -0.0688703 0
M  V30 5117 H 470.722 5.61755 -1.72352 0
M  V30 5118 H 472.246 6.04042 -0.892494 0
M  V30 5119 H 473.66 4.95315 -2.8868 0
M  V30 5120 H 472.057 4.76021 -3.6541 0
M  V30 5121 H 473.127 3.35498 -3.50099 0
M  V30 5122 N 474.47 1.03057 1.19235 0
M  V30 5123 C 475.417 0.612832 2.22515 0
M  V30 5124 C 476.387 -0.374224 1.61829 0
M  V30 5125 O 477.572 -0.270501 1.88873 0
M  V30 5126 C 474.712 -0.028475 3.45088 0
M  V30 5127 C 473.825 1.00483 4.20151 0
M  V30 5128 C 472.96 0.333102 5.30155 0
M  V30 5129 C 471.999 1.3522 5.96977 0
M  V30 5130 N 471.136 0.70616 6.9854 0
M  V30 5131 H 475.976 1.49812 2.57605 0
M  V30 5132 H 473.513 0.749658 1.26564 0
M  V30 5133 H 475.471 -0.417548 4.15105 0
M  V30 5134 H 474.101 -0.877334 3.10649 0
M  V30 5135 H 473.153 1.51194 3.49062 0
M  V30 5136 H 474.465 1.77929 4.65986 0
M  V30 5137 H 473.619 -0.110725 6.06599 0
M  V30 5138 H 472.358 -0.473547 4.85396 0
M  V30 5139 H 471.363 1.80627 5.19282 0
M  V30 5140 H 472.588 2.16037 6.4382 0
M  V30 5141 H 470.534 -0.0803667 6.55951 0
M  V30 5142 H 470.451 1.41848 7.42573 0
M  V30 5143 H 471.719 0.286391 7.78974 0
M  V30 5144 N 475.948 -1.35272 0.808662 0
M  V30 5145 C 476.895 -2.29764 0.218482 0
M  V30 5146 C 477.865 -1.52911 -0.648652 0
M  V30 5147 O 479.05 -1.81341 -0.593297 0
M  V30 5148 C 476.19 -3.39388 -0.625282 0
M  V30 5149 C 475.303 -4.31202 0.262516 0
M  V30 5150 C 474.438 -5.27919 -0.589451 0
M  V30 5151 C 473.477 -6.11371 0.298617 0
M  V30 5152 N 472.614 -7.0022 -0.513443 0
M  V30 5153 H 477.454 -2.79645 1.02968 0
M  V30 5154 H 474.991 -1.37629 0.519303 0
M  V30 5155 H 476.949 -4.01615 -1.12966 0
M  V30 5156 H 475.579 -2.90777 -1.40173 0
M  V30 5157 H 474.631 -3.69962 0.885013 0
M  V30 5158 H 475.943 -4.89748 0.945971 0
M  V30 5159 H 475.097 -5.95529 -1.15888 0
M  V30 5160 H 473.836 -4.69875 -1.30647 0
M  V30 5161 H 472.841 -5.42707 0.880301 0
M  V30 5162 H 474.066 -6.71494 1.01352 0
M  V30 5163 H 472.012 -6.44662 -1.21439 0
M  V30 5164 H 471.929 -7.55917 0.111922 0
M  V30 5165 H 473.197 -7.72175 -1.06608 0
M  V30 5166 N 477.426 -0.562348 -1.47226 0
M  V30 5167 C 478.837 -0.130325 -1.86245 0
M  V30 5168 C 479.188 1.30128 -1.46838 0
M  V30 5169 O 478.313 1.97974 -0.873805 0
M  V30 5170 C 478.908 -0.229738 -3.3802 0
M  V30 5171 C 477.467 0.14728 -3.76112 0
M  V30 5172 C 476.614 -0.574971 -2.71274 0
M  V30 5173 H 479.565 -0.771773 -1.3867 0
M  V30 5174 H 479.586 0.550316 -3.76499 0
M  V30 5175 H 479.098 -1.27178 -3.66671 0
M  V30 5176 H 477.199 1.19023 -3.53078 0
M  V30 5177 H 477.312 -0.214858 -4.78618 0
M  V30 5178 H 475.676 -0.0174756 -2.54694 0
M  V30 5179 H 476.459 -1.61827 -3.02766 0
M  V30 5180 N 478.904 1.54736 -0.299062 0
M  V30 5181 C 480.181 1.92187 0.363802 0
M  V30 5182 C 480.561 1.22607 1.71845 0
M  V30 5183 O 479.909 0.361141 2.25628 0
M  V30 5184 C 480.119 3.45678 0.480377 0
M  V30 5185 C 481.467 4.17885 0.752147 0
M  V30 5186 O 482.491 3.51702 0.564264 0
M  V30 5187 O 481.35 5.35048 1.11294 0
M  V30 5188 H 478.444 0.801681 0.203066 0
M  V30 5189 H 480.99 1.66115 -0.346978 0
M  V30 5190 H 479.762 3.88443 -0.471999 0
M  V30 5191 H 479.385 3.77779 1.2397 0
M  V30 5192 N 480.382 0.0267497 1.57577 0
M  V30 5193 C 481.63 -0.651116 1.91324 0
M  V30 5194 C 481.951 -1.72804 0.90353 0
M  V30 5195 O 481.221 -1.95822 -0.0552946 0
M  V30 5196 H 479.801 -0.243491 0.706202 0
M  V30 5197 H 482.463 0.0739935 1.94759 0
M  V30 5198 H 481.559 -1.10536 2.9187 0
M  V30 5199 N 481.861 -1.55662 -0.24637 0
M  V30 5200 C 483.107 -1.77782 -0.975779 0
M  V30 5201 C 483.44 -0.592103 -1.84953 0
M  V30 5202 O 482.715 0.409588 -1.90138 0
M  V30 5203 C 482.998 -3.09788 -1.83584 0
M  V30 5204 C 482.851 -4.38764 -0.990241 0
M  V30 5205 C 484.17 -3.38029 -2.81823 0
M  V30 5206 H 481.289 -0.646789 -0.353317 0
M  V30 5207 H 483.931 -1.88398 -0.246248 0
M  V30 5208 H 482.081 -3.00869 -2.45784 0
M  V30 5209 H 483.753 -4.59675 -0.386897 0
M  V30 5210 H 481.996 -4.32798 -0.294626 0
M  V30 5211 H 482.667 -5.27514 -1.62584 0
M  V30 5212 H 485.143 -3.46915 -2.2976 0
M  V30 5213 H 484.019 -4.3161 -3.39122 0
M  V30 5214 H 484.28 -2.58968 -3.58313 0
M  V30 5215 N 483.339 0.512053 -1.4905 0
M  V30 5216 C 484.286 1.6148 -1.64902 0
M  V30 5217 C 485.256 1.58687 -0.490673 0
M  V30 5218 O 486.441 1.76842 -0.71636 0
M  V30 5219 C 483.581 2.99676 -1.71139 0
M  V30 5220 C 482.694 3.12568 -2.98203 0
M  V30 5221 C 481.829 4.4143 -2.95487 0
M  V30 5222 C 480.868 4.47916 -4.17179 0
M  V30 5223 N 480.005 5.68191 -4.12437 0
M  V30 5224 H 484.845 1.47271 -2.59066 0
M  V30 5225 H 482.382 0.716713 -1.28459 0
M  V30 5226 H 484.34 3.79761 -1.72736 0
M  V30 5227 H 482.97 3.12614 -0.804508 0
M  V30 5228 H 482.022 2.25618 -3.06269 0
M  V30 5229 H 483.334 3.1322 -3.88194 0
M  V30 5230 H 482.488 5.29825 -2.95585 0
M  V30 5231 H 481.227 4.43326 -2.03256 0
M  V30 5232 H 480.232 3.57925 -4.17337 0
M  V30 5233 H 481.457 4.47744 -5.1059 0
M  V30 5234 H 479.403 5.7095 -3.23036 0
M  V30 5235 H 479.32 5.70413 -4.96151 0
M  V30 5236 H 480.588 6.58823 -4.16621 0
M  V30 5237 N 484.817 1.37938 0.762283 0
M  V30 5238 C 485.727 1.36681 1.90671 0
M  V30 5239 C 486.743 0.265078 1.71969 0
M  V30 5240 O 487.919 0.502055 1.95042 0
M  V30 5241 C 484.984 1.18211 3.25925 0
M  V30 5242 C 484.045 2.3811 3.57214 0
M  V30 5243 C 483.278 2.20512 4.86014 0
M  V30 5244 O 483.501 1.19429 5.57757 0
M  V30 5245 O 482.435 3.08911 5.16583 0
M  V30 5246 H 486.261 2.33091 1.94685 0
M  V30 5247 H 483.846 1.18767 0.906356 0
M  V30 5248 H 485.728 1.09937 4.06807 0
M  V30 5249 H 484.403 0.248807 3.22742 0
M  V30 5250 H 483.31 2.51958 2.76529 0
M  V30 5251 H 484.643 3.30041 3.65149 0
M  V30 5252 N 486.295 -0.989507 1.22664 0
M  V30 5253 C 487.52 -1.77031 1.08051 0
M  V30 5254 C 487.945 -1.84535 -0.364483 0
M  V30 5255 O 487.303 -1.3003 -1.2634 0
M  V30 5256 C 487.351 -3.18 1.70024 0
M  V30 5257 O 486.455 -4.01161 0.956216 0
M  V30 5258 H 485.796 -0.545008 0.379292 0
M  V30 5259 H 488.326 -1.24277 1.62531 0
M  V30 5260 H 488.336 -3.68616 1.74888 0
M  V30 5261 H 487.011 -3.11853 2.75174 0
M  V30 5262 H 485.588 -3.59687 0.98384 0
M  V30 5263 N 487.773 -1.03688 -1.18687 0
M  V30 5264 C 489.001 -0.757918 -1.92518 0
M  V30 5265 C 489.416 0.684398 -1.75959 0
M  V30 5266 O 488.773 1.46617 -1.08673 0
M  V30 5267 C 488.824 -1.10985 -3.44042 0
M  V30 5268 O 488.545 -2.49554 -3.60076 0
M  V30 5269 C 490.046 -0.854844 -4.3498 0
M  V30 5270 H 487.266 -0.276699 -0.611293 0
M  V30 5271 H 489.81 -1.38352 -1.50595 0
M  V30 5272 H 487.965 -0.529279 -3.83767 0
M  V30 5273 H 488.379 -2.6291 -4.53849 0
M  V30 5274 H 489.853 -1.15098 -5.39867 0
M  V30 5275 H 490.33 0.210507 -4.38695 0
M  V30 5276 H 490.936 -1.41853 -4.00946 0
M  V30 5277 N 489.251 1.34841 -0.815825 0
M  V30 5278 C 490.161 2.33425 -0.234462 0
M  V30 5279 C 491.177 1.62295 0.627413 0
M  V30 5280 O 492.353 1.94109 0.536987 0
M  V30 5281 C 489.418 3.41471 0.599849 0
M  V30 5282 C 488.479 4.28362 -0.283596 0
M  V30 5283 C 487.712 5.31248 0.51099 0
M  V30 5284 O 487.935 5.43056 1.7449 0
M  V30 5285 O 486.869 6.01812 -0.10297 0
M  V30 5286 H 490.695 2.84962 -1.05024 0
M  V30 5287 H 488.28 1.37774 -0.577809 0
M  V30 5288 H 490.162 4.07464 1.07475 0
M  V30 5289 H 488.837 2.9219 1.39308 0
M  V30 5290 H 487.744 3.65318 -0.805836 0
M  V30 5291 H 489.077 4.81066 -1.041 0
M  V30 5292 N 490.729 0.570148 1.46925 0
M  V30 5293 C 491.954 0.0542592 2.07329 0
M  V30 5294 C 492.379 -1.23582 1.41806 0
M  V30 5295 O 491.737 -1.74341 0.497479 0
M  V30 5296 C 491.785 -0.111175 3.60429 0
M  V30 5297 O 490.889 -1.17071 3.95434 0
M  V30 5298 H 490.23 0.0571425 0.661537 0
M  V30 5299 H 492.76 0.789516 1.88753 0
M  V30 5300 H 492.77 -0.321315 4.06733 0
M  V30 5301 H 491.445 0.831012 4.07513 0
M  V30 5302 H 490.022 -0.940029 3.60857 0
M  V30 5303 N 492.207 -1.54576 0.307264 0
M  V30 5304 C 493.432 -2.05139 -0.305379 0
M  V30 5305 C 493.857 -1.18278 -1.46259 0
M  V30 5306 O 493.215 -0.188243 -1.8032 0
M  V30 5307 C 493.263 -3.53066 -0.733283 0
M  V30 5308 O 492.367 -3.69206 -1.83741 0
M  V30 5309 H 491.708 -0.661444 -0.0582105 0
M  V30 5310 H 494.238 -1.99569 0.450931 0
M  V30 5311 H 494.248 -3.95034 -1.02039 0
M  V30 5312 H 492.923 -4.15746 0.113198 0
M  V30 5313 H 491.5 -3.39143 -1.55037 0
M  V30 5314 N 493.685 -0.035106 -1.57561 0
M  V30 5315 C 494.633 0.962707 -2.11742 0
M  V30 5316 C 495.627 1.33296 -1.0454 0
M  V30 5317 O 496.833 1.31449 -1.22968 0
M  V30 5318 H 493.208 0.32826 -0.676572 0
M  V30 5319 H 495.179 0.48048 -2.94506 0
M  V30 5320 C 493.928 2.23388 -2.66445 0
M  V30 5321 H 493.251 1.95774 -3.48587 0
M  V30 5322 H 494.691 2.91402 -3.07995 0
M  V30 5323 C 493.15 2.96769 -1.59467 0
M  V30 5324 O 493.68 3.89105 -0.998 0
M  V30 5325 N 491.886 2.59212 -1.31369 0
M  V30 5326 H 491.433 1.84202 -1.80076 0
M  V30 5327 H 491.391 3.08618 -0.600173 0
M  V30 5328 N 495.163 1.55791 0.238111 0
M  V30 5329 C 496.391 1.82098 0.982233 0
M  V30 5330 C 496.806 0.612025 1.78605 0
M  V30 5331 O 496.163 -0.419381 1.77616 0
M  V30 5332 C 496.214 3.0673 1.91309 0
M  V30 5333 O 495.935 4.2296 1.14179 0
M  V30 5334 C 497.436 3.45903 2.77248 0
M  V30 5335 H 494.656 0.605748 0.288635 0
M  V30 5336 H 497.2 2.02862 0.258341 0
M  V30 5337 H 495.355 2.87991 2.59114 0
M  V30 5338 H 495.769 4.93653 1.7722 0
M  V30 5339 H 497.243 4.36189 3.38295 0
M  V30 5340 H 497.72 2.66891 3.48806 0
M  V30 5341 H 498.326 3.67024 2.14881 0
M  V30 5342 N 496.642 -0.504142 1.49319 0
M  V30 5343 C 497.87 -1.28256 1.62351 0
M  V30 5344 C 498.285 -1.86502 0.293682 0
M  V30 5345 O 497.642 -1.67678 -0.720449 0
M  V30 5346 C 497.693 -2.41507 2.68992 0
M  V30 5347 O 497.414 -1.85656 3.96817 0
M  V30 5348 C 498.915 -3.32929 2.927 0
M  V30 5349 H 496.135 -0.389115 0.546654 0
M  V30 5350 H 498.679 -0.605531 1.95329 0
M  V30 5351 H 496.834 -3.05046 2.38801 0
M  V30 5352 H 497.248 -2.59981 4.55533 0
M  V30 5353 H 498.722 -4.0868 3.71058 0
M  V30 5354 H 499.199 -3.89733 2.02496 0
M  V30 5355 H 499.805 -2.75158 3.24296 0
M  V30 5356 N 498.12 -1.38341 -0.754957 0
M  V30 5357 C 499.369 -1.33791 -1.5094 0
M  V30 5358 C 499.682 0.0699267 -1.95475 0
M  V30 5359 O 500.888 0.237956 -2.70455 0
M  V30 5360 C 499.344 -2.34934 -2.72643 0
M  V30 5361 C 498.952 -3.81332 -2.35138 0
M  V30 5362 C 500.696 -2.39425 -3.50536 0
M  V30 5363 C 498.603 -4.74164 -3.53444 0
M  V30 5364 H 497.533 -0.497314 -0.566741 0
M  V30 5365 H 500.184 -1.63888 -0.825403 0
M  V30 5366 H 498.566 -1.97878 -3.43017 0
M  V30 5367 H 499.74 -4.27319 -1.7244 0
M  V30 5368 H 498.055 -3.79946 -1.70382 0
M  V30 5369 H 500.652 -3.0598 -4.38498 0
M  V30 5370 H 500.995 -1.41278 -3.91594 0
M  V30 5371 H 501.528 -2.75274 -2.87174 0
M  V30 5372 H 498.267 -5.73501 -3.17453 0
M  V30 5373 H 497.787 -4.3287 -4.15191 0
M  V30 5374 H 499.466 -4.92111 -4.20043 0
M  V30 5375 N 499.598 0.982988 -1.23187 0
M  V30 5376 C 500.508 2.10907 -1.02739 0
M  V30 5377 C 501.524 1.73979 0.0273188 0
M  V30 5378 O 502.7 2.00702 -0.16757 0
M  V30 5379 C 499.765 3.41142 -0.618304 0
M  V30 5380 C 498.826 3.92112 -1.74777 0
M  V30 5381 C 498.059 5.16131 -1.3581 0
M  V30 5382 O 498.282 5.6989 -0.241201 0
M  V30 5383 O 497.216 5.61103 -2.17824 0
M  V30 5384 H 501.042 2.31046 -1.97108 0
M  V30 5385 H 498.627 1.09284 -1.01869 0
M  V30 5386 H 500.509 4.19488 -0.400982 0
M  V30 5387 H 499.184 3.2234 0.296421 0
M  V30 5388 H 498.091 3.14895 -2.0197 0
M  V30 5389 H 499.424 4.15364 -2.64071 0
M  V30 5390 N 501.076 1.04316 1.18135 0
M  V30 5391 C 502.353 0.662166 1.84051 0
M  V30 5392 C 502.733 -0.858169 1.9287 0
M  V30 5393 O 502.081 -1.76062 1.45652 0
M  V30 5394 C 502.291 1.3409 3.22212 0
M  V30 5395 C 503.639 1.4733 3.9822 0
M  V30 5396 O 504.663 1.29921 3.31661 0
M  V30 5397 O 503.522 1.75722 5.17479 0
M  V30 5398 H 500.616 0.232005 0.79379 0
M  V30 5399 H 503.162 1.1422 1.25506 0
M  V30 5400 H 501.934 2.37853 3.10711 0
M  V30 5401 H 501.557 0.849649 3.88416 0
M  V30 5402 N 502.554 -1.34406 0.822964 0
M  V30 5403 C 503.464 -2.33298 0.246838 0
M  V30 5404 C 504.48 -1.62625 -0.618797 0
M  V30 5405 O 505.656 -1.94391 -0.526685 0
M  V30 5406 C 502.721 -3.41785 -0.581731 0
M  V30 5407 C 501.782 -4.28206 0.306309 0
M  V30 5408 C 501.015 -5.31512 -0.48281 0
M  V30 5409 O 501.238 -5.43973 -1.71607 0
M  V30 5410 O 500.172 -6.01749 0.134884 0
M  V30 5411 H 503.998 -2.84401 1.06534 0
M  V30 5412 H 501.583 -1.37466 0.585108 0
M  V30 5413 H 503.465 -4.08028 -1.05313 0
M  V30 5414 H 502.14 -2.92925 -1.37756 0
M  V30 5415 H 501.047 -3.64885 0.825199 0
M  V30 5416 H 502.38 -4.80507 1.06649 0
M  V30 5417 N 504.032 -0.577932 -1.46621 0
M  V30 5418 C 505.309 0.00495287 -1.95599 0
M  V30 5419 C 505.689 1.46428 -1.5206 0
M  V30 5420 O 505.037 2.1517 -0.769046 0
M  V30 5421 C 505.247 -0.162114 -3.48623 0
M  V30 5422 C 506.595 -0.0274623 -4.24591 0
M  V30 5423 O 507.619 -0.0907067 -3.56084 0
M  V30 5424 O 506.478 0.1122 -5.46385 0
M  V30 5425 H 503.572 0.0525057 -0.825332 0
M  V30 5426 H 506.118 -0.645914 -1.56927 0
M  V30 5427 H 504.89 -1.17679 -3.73185 0
M  V30 5428 H 504.513 0.525407 -3.94113 0
M  V30 5429 N 505.51 1.54411 -0.315457 0
M  V30 5430 C 506.756 2.00716 0.289972 0
M  V30 5431 C 507.089 1.2034 1.5242 0
M  V30 5432 O 506.364 0.283579 1.92422 0
M  V30 5433 C 506.647 3.54507 0.632196 0
M  V30 5434 C 506.5 4.45615 -0.61218 0
M  V30 5435 C 507.819 4.15421 1.45305 0
M  V30 5436 H 504.938 0.729637 0.10392 0
M  V30 5437 H 507.58 1.8506 -0.430427 0
M  V30 5438 H 505.73 3.67979 1.24595 0
M  V30 5439 H 507.402 4.44026 -1.25053 0
M  V30 5440 H 505.645 4.15621 -1.24264 0
M  V30 5441 H 506.316 5.51022 -0.328379 0
M  V30 5442 H 508.792 4.05474 0.934331 0
M  V30 5443 H 507.668 5.23157 1.66127 0
M  V30 5444 H 507.929 3.68223 2.44671 0
M  V30 5445 N 506.988 0.0434614 1.5754 0
M  V30 5446 C 507.935 -0.93356 2.11077 0
M  V30 5447 C 508.905 -1.31383 1.01626 0
M  V30 5448 O 510.09 -1.40465 1.29129 0
M  V30 5449 C 507.23 -2.20578 2.65404 0
M  V30 5450 C 506.343 -1.88068 3.88914 0
M  V30 5451 C 505.478 -3.09691 4.31584 0
M  V30 5452 C 504.517 -2.73067 5.47815 0
M  V30 5453 N 503.654 -3.87359 5.85574 0
M  V30 5454 H 508.494 -0.470118 2.94268 0
M  V30 5455 H 506.031 -0.220434 1.45439 0
M  V30 5456 H 507.989 -2.95011 2.94999 0
M  V30 5457 H 506.619 -2.64513 1.85021 0
M  V30 5458 H 505.671 -1.03816 3.6596 0
M  V30 5459 H 506.983 -1.57104 4.73413 0
M  V30 5460 H 506.137 -3.92431 4.62691 0
M  V30 5461 H 504.876 -3.43827 3.45882 0
M  V30 5462 H 503.881 -1.88742 5.16388 0
M  V30 5463 H 505.106 -2.40131 6.35227 0
M  V30 5464 H 503.052 -4.21311 5.02825 0
M  V30 5465 H 502.969 -3.60068 6.64746 0
M  V30 5466 H 504.237 -4.70761 6.21292 0
M  V30 5467 N 508.466 -1.55915 -0.229846 0
M  V30 5468 C 509.429 -1.90914 -1.26824 0
M  V30 5469 C 510.429 -0.786999 -1.40225 0
M  V30 5470 O 511.619 -1.05484 -1.38632 0
M  V30 5471 C 508.751 -2.15264 -2.64337 0
M  V30 5472 H 509.944 -2.8378 -0.969998 0
M  V30 5473 H 507.497 -1.49069 -0.4699 0
M  V30 5474 H 508.232 -1.24923 -2.99274 0
M  V30 5475 H 508.017 -2.97005 -2.55989 0
M  V30 5476 H 509.507 -2.43467 -3.39284 0
M  V30 5477 N 509.944 0.496216 -1.49584 0
M  V30 5478 C 511.36 0.827814 -1.36453 0
M  V30 5479 C 511.56 1.97464 -0.401285 0
M  V30 5480 O 510.616 2.51958 0.165296 0
M  V30 5481 C 511.929 1.16352 -2.77277 0
M  V30 5482 C 513.477 1.27145 -2.86013 0
M  V30 5483 C 513.952 1.64042 -4.27615 0
M  V30 5484 N 515.443 1.71082 -4.30448 0
M  V30 5485 C 516.178 2.01085 -5.36984 0
M  V30 5486 N 515.674 2.2928 -6.5376 0
M  V30 5487 N 517.467 2.02376 -5.24405 0
M  V30 5488 H 509.618 -0.259947 -2.10803 0
M  V30 5489 H 511.881 -0.0537163 -0.946477 0
M  V30 5490 H 511.587 0.394153 -3.49484 0
M  V30 5491 H 511.461 2.10582 -3.12946 0
M  V30 5492 H 513.848 2.03152 -2.1404 0
M  V30 5493 H 513.929 0.309542 -2.5392 0
M  V30 5494 H 513.573 0.88583 -5.00115 0
M  V30 5495 H 513.503 2.6134 -4.57175 0
M  V30 5496 H 515.994 1.51434 -3.46232 0
M  V30 5497 H 516.307 2.51376 -7.30774 0
M  V30 5498 H 514.652 2.26726 -6.56978 0
M  V30 5499 H 517.843 1.79829 -4.32179 0
M  V30 5500 H 518.016 2.25425 -6.07526 0
M  V30 5501 N 511.423 1.38739 0.74761 0
M  V30 5502 C 512.37 1.36449 1.86146 0
M  V30 5503 C 513.34 0.226098 1.64554 0
M  V30 5504 O 514.525 0.41926 1.86137 0
M  V30 5505 C 511.665 1.2013 3.23516 0
M  V30 5506 C 510.778 2.43407 3.56899 0
M  V30 5507 C 509.913 2.19773 4.83605 0
M  V30 5508 C 508.952 3.3879 5.09792 0
M  V30 5509 N 508.089 3.14553 6.27695 0
M  V30 5510 H 512.929 2.3167 1.87438 0
M  V30 5511 H 510.466 1.15094 0.916063 0
M  V30 5512 H 512.424 1.08683 4.02795 0
M  V30 5513 H 511.054 0.285453 3.21535 0
M  V30 5514 H 510.106 2.65504 2.72418 0
M  V30 5515 H 511.418 3.32094 3.72176 0
M  V30 5516 H 510.572 2.05496 5.70838 0
M  V30 5517 H 509.311 1.28461 4.70478 0
M  V30 5518 H 508.316 3.53579 4.21025 0
M  V30 5519 H 509.541 4.30986 5.24812 0
M  V30 5520 H 507.487 2.25893 6.1588 0
M  V30 5521 H 507.404 3.96791 6.435 0
M  V30 5522 H 508.672 3.03943 7.17801 0
M  V30 5523 N 512.901 -0.976442 1.23707 0
M  V30 5524 C 513.833 -2.07212 0.979574 0
M  V30 5525 C 514.846 -1.6273 -0.0478528 0
M  V30 5526 O 516.035 -1.77506 0.18815 0
M  V30 5527 C 513.135 -3.35835 0.45479 0
M  V30 5528 C 512.308 -4.09268 1.54331 0
M  V30 5529 C 511.367 -5.16166 1.02271 0
M  V30 5530 O 510.393 -5.42827 1.71254 0
M  V30 5531 N 511.595 -5.80313 -0.147419 0
M  V30 5532 H 514.36 -2.29878 1.92292 0
M  V30 5533 H 511.921 -1.14343 1.14618 0
M  V30 5534 H 513.913 -4.04597 0.0914631 0
M  V30 5535 H 512.483 -3.10106 -0.394068 0
M  V30 5536 H 511.703 -3.34906 2.07923 0
M  V30 5537 H 512.991 -4.55095 2.27522 0
M  V30 5538 H 512.389 -5.61043 -0.724353 0
M  V30 5539 H 510.946 -6.50231 -0.451972 0
M  V30 5540 N 514.379 -1.04941 -1.1758 0
M  V30 5541 C 515.289 -0.658826 -2.25159 0
M  V30 5542 C 516.305 0.318941 -1.71052 0
M  V30 5543 O 517.481 0.171669 -2.00667 0
M  V30 5544 C 514.546 -0.0369522 -3.4668 0
M  V30 5545 C 513.607 -1.06484 -4.15884 0
M  V30 5546 C 512.84 -0.472551 -5.31604 0
M  V30 5547 O 513.063 0.718736 -5.65854 0
M  V30 5548 O 511.997 -1.20557 -5.89703 0
M  V30 5549 H 515.823 -1.55533 -2.60851 0
M  V30 5550 H 513.408 -0.820819 -1.24832 0
M  V30 5551 H 515.29 0.308784 -4.20267 0
M  V30 5552 H 513.965 0.833238 -3.12792 0
M  V30 5553 H 512.872 -1.46253 -3.44327 0
M  V30 5554 H 514.205 -1.9061 -4.53794 0
M  V30 5555 N 515.857 1.33968 -0.830081 0
M  V30 5556 C 517.106 1.97323 -0.417928 0
M  V30 5557 C 517.419 1.6652 1.02618 0
M  V30 5558 O 518.625 2.2342 1.54259 0
M  V30 5559 C 517.081 3.53099 -0.696359 0
M  V30 5560 C 516.689 3.92788 -2.15457 0
M  V30 5561 C 518.433 4.23049 -0.350724 0
M  V30 5562 C 516.34 5.41506 -2.37751 0
M  V30 5563 H 515.27 0.738409 -0.152541 0
M  V30 5564 H 517.921 1.52711 -1.01744 0
M  V30 5565 H 516.303 3.95991 -0.0265904 0
M  V30 5566 H 517.477 3.6098 -2.86408 0
M  V30 5567 H 515.792 3.35795 -2.46232 0
M  V30 5568 H 518.389 5.32403 -0.495036 0
M  V30 5569 H 518.732 4.10279 0.705476 0
M  V30 5570 H 519.265 3.85657 -0.975362 0
M  V30 5571 H 516.004 5.5927 -3.41903 0
M  V30 5572 H 515.524 5.74804 -1.7135 0
M  V30 5573 H 517.203 6.0828 -2.20465 0
M  V30 5574 N 517.335 0.585699 1.46312 0
M  V30 5575 C 518.584 0.0701192 2.01578 0
M  V30 5576 C 518.897 -1.29889 1.46247 0
M  V30 5577 O 520.103 -1.90598 1.93351 0
M  V30 5578 C 518.559 0.0747499 3.59822 0
M  V30 5579 C 518.167 1.44226 4.24149 0
M  V30 5580 C 519.911 -0.38673 4.22735 0
M  V30 5581 C 517.818 1.40446 5.74481 0
M  V30 5582 H 516.748 0.0224441 0.753666 0
M  V30 5583 H 519.399 0.737789 1.68015 0
M  V30 5584 H 517.781 -0.659144 3.90476 0
M  V30 5585 H 518.955 2.19612 4.05101 0
M  V30 5586 H 517.27 1.84401 3.73343 0
M  V30 5587 H 519.867 -0.433853 5.32937 0
M  V30 5588 H 520.21 -1.40489 3.91878 0
M  V30 5589 H 520.743 0.293195 3.96718 0
M  V30 5590 H 517.482 2.39952 6.10003 0
M  V30 5591 H 517.002 0.692845 5.95785 0
M  V30 5592 H 518.681 1.11865 6.37256 0
M  V30 5593 N 518.813 -1.54241 0.323641 0
M  V30 5594 C 519.76 -2.24339 -0.542277 0
M  V30 5595 C 520.73 -1.23421 -1.11159 0
M  V30 5596 O 521.915 -1.52104 -1.15192 0
M  V30 5597 C 519.055 -3.00479 -1.69725 0
M  V30 5598 C 518.168 -4.16214 -1.15716 0
M  V30 5599 C 517.303 -4.79884 -2.27783 0
M  V30 5600 C 516.342 -5.87722 -1.71023 0
M  V30 5601 N 515.479 -6.45254 -2.76752 0
M  V30 5602 H 520.319 -2.97935 0.0620613 0
M  V30 5603 H 517.856 -1.47039 0.0423993 0
M  V30 5604 H 519.814 -3.42869 -2.3769 0
M  V30 5605 H 518.444 -2.29217 -2.27288 0
M  V30 5606 H 517.496 -3.78605 -0.369063 0
M  V30 5607 H 518.808 -4.93838 -0.701832 0
M  V30 5608 H 517.962 -5.25243 -3.03651 0
M  V30 5609 H 516.701 -4.01641 -2.76652 0
M  V30 5610 H 515.706 -5.41765 -0.936518 0
M  V30 5611 H 516.931 -6.67863 -1.2303 0
M  V30 5612 H 514.877 -5.69884 -3.24912 0
M  V30 5613 H 514.794 -7.18292 -2.35782 0
M  V30 5614 H 516.062 -6.95269 -3.5245 0
M  V30 5615 N 520.291 -0.0518155 -1.57515 0
M  V30 5616 C 521.537 0.622745 -1.93002 0
M  V30 5617 C 521.87 1.70456 -0.930499 0
M  V30 5618 O 521.145 1.94452 0.0434086 0
M  V30 5619 C 521.428 1.21824 -3.38867 0
M  V30 5620 C 521.281 0.144434 -4.49568 0
M  V30 5621 C 522.6 2.12968 -3.8514 0
M  V30 5622 H 519.719 0.22491 -0.701844 0
M  V30 5623 H 522.361 -0.113711 -1.89659 0
M  V30 5624 H 520.511 1.8459 -3.41846 0
M  V30 5625 H 522.183 -0.48753 -4.58717 0
M  V30 5626 H 520.426 -0.527424 -4.30582 0
M  V30 5627 H 521.097 0.601127 -5.48717 0
M  V30 5628 H 523.573 1.60163 -3.8404 0
M  V30 5629 H 522.449 2.51578 -4.87852 0
M  V30 5630 H 522.71 3.03004 -3.21934 0
M  V30 5631 N 521.769 1.56035 0.221574 0
M  V30 5632 C 522.997 1.8313 0.962864 0
M  V30 5633 C 523.412 0.630934 1.77946 0
M  V30 5634 O 522.769 -0.400519 1.78051 0
M  V30 5635 C 522.82 3.08742 1.88045 0
M  V30 5636 O 522.541 4.24147 1.09686 0
M  V30 5637 C 524.042 3.48824 2.73563 0
M  V30 5638 H 521.262 0.608775 0.282194 0
M  V30 5639 H 523.806 2.03124 0.23681 0
M  V30 5640 H 521.961 2.90723 2.56045 0
M  V30 5641 H 522.375 4.95505 1.71974 0
M  V30 5642 H 523.849 4.39752 3.3365 0
M  V30 5643 H 524.326 2.70575 3.45956 0
M  V30 5644 H 524.932 3.69282 2.10976 0
M  V30 5645 N 523.247 -0.488276 1.49845 0
M  V30 5646 C 524.157 -1.61451 1.70207 0
M  V30 5647 C 525.173 -1.63877 0.584846 0
M  V30 5648 O 526.349 -1.82063 0.861107 0
M  V30 5649 C 523.414 -2.9776 1.77594 0
M  V30 5650 C 522.475 -3.05861 3.01243 0
M  V30 5651 C 521.708 -4.35668 3.08268 0
M  V30 5652 O 521.931 -5.25197 2.22541 0
M  V30 5653 O 520.865 -4.49005 4.00847 0
M  V30 5654 H 524.691 -1.47199 2.65643 0
M  V30 5655 H 522.276 -0.665939 1.33737 0
M  V30 5656 H 524.158 -3.7875 1.84732 0
M  V30 5657 H 522.833 -3.12248 0.8534 0
M  V30 5658 H 521.74 -2.24012 2.99616 0
M  V30 5659 H 523.073 -2.96304 3.9302 0
M  V30 5660 N 524.725 -1.39134 -0.740242 0
M  V30 5661 C 525.657 -1.33332 -1.86428 0
M  V30 5662 C 526.67 -0.243042 -1.60976 0
M  V30 5663 O 527.859 -0.501608 -1.71307 0
M  V30 5664 C 524.959 -1.04626 -3.22346 0
M  V30 5665 C 524.132 -2.24826 -3.75196 0
M  V30 5666 C 523.191 -1.92659 -4.89662 0
M  V30 5667 O 522.217 -2.6529 -5.03597 0
M  V30 5668 N 523.419 -0.889575 -5.73643 0
M  V30 5669 H 526.184 -2.30196 -1.91911 0
M  V30 5670 H 523.745 -1.33168 -0.920756 0
M  V30 5671 H 525.737 -0.811347 -3.96484 0
M  V30 5672 H 524.307 -0.165129 -3.12164 0
M  V30 5673 H 523.527 -2.64301 -2.9247 0
M  V30 5674 H 524.815 -3.05015 -4.07239 0
M  V30 5675 H 524.213 -0.287529 -5.64969 0
M  V30 5676 H 522.77 -0.714557 -6.47871 0
M  V30 5677 N 526.204 0.969867 -1.24223 0
M  V30 5678 C 527.134 2.08191 -1.05729 0
M  V30 5679 C 528.115 1.70075 0.0290765 0
M  V30 5680 O 529.3 1.93712 -0.137583 0
M  V30 5681 C 526.43 3.40991 -0.658995 0
M  V30 5682 C 525.384 3.93054 -1.69389 0
M  V30 5683 C 524.71 5.22171 -1.15072 0
M  V30 5684 C 526.01 4.21137 -3.08935 0
M  V30 5685 H 527.704 2.23921 -1.98746 0
M  V30 5686 H 525.25 1.07602 -0.956967 0
M  V30 5687 H 527.203 4.18221 -0.51662 0
M  V30 5688 H 525.927 3.25155 0.30686 0
M  V30 5689 H 524.586 3.17977 -1.82444 0
M  V30 5690 H 524.234 5.02694 -0.175539 0
M  V30 5691 H 523.934 5.57973 -1.84229 0
M  V30 5692 H 525.458 6.02013 -1.02042 0
M  V30 5693 H 526.872 4.8908 -2.99121 0
M  V30 5694 H 525.269 4.68163 -3.75425 0
M  V30 5695 H 526.339 3.27996 -3.57137 0
M  V30 5696 N 527.682 1.05563 1.17022 0
M  V30 5697 C 528.931 0.763036 1.8671 0
M  V30 5698 C 529.244 -0.712857 1.82147 0
M  V30 5699 O 530.45 -1.11955 2.47343 0
M  V30 5700 C 528.906 1.31474 3.35026 0
M  V30 5701 C 528.514 2.82034 3.48081 0
M  V30 5702 C 530.258 1.09935 4.10018 0
M  V30 5703 C 528.165 3.30486 4.90442 0
M  V30 5704 H 527.095 0.281747 0.699382 0
M  V30 5705 H 529.746 1.2734 1.32124 0
M  V30 5706 H 528.128 0.732171 3.89173 0
M  V30 5707 H 529.302 3.46178 3.04133 0
M  V30 5708 H 527.617 3.02156 2.86515 0
M  V30 5709 H 530.214 1.43632 5.15048 0
M  V30 5710 H 530.557 0.0373072 4.16283 0
M  V30 5711 H 531.09 1.64732 3.62089 0
M  V30 5712 H 527.829 4.36137 4.89352 0
M  V30 5713 H 527.349 2.71086 5.35044 0
M  V30 5714 H 529.028 3.25382 5.59227 0
M  V30 5715 N 529.16 -1.33526 0.837174 0
M  V30 5716 C 530.07 -2.33023 0.271568 0
M  V30 5717 C 531.086 -1.63272 -0.601514 0
M  V30 5718 O 532.262 -1.94939 -0.506038 0
M  V30 5719 C 529.327 -3.42382 -0.545448 0
M  V30 5720 C 528.388 -4.27857 0.351709 0
M  V30 5721 C 527.621 -5.31994 -0.426409 0
M  V30 5722 O 527.844 -5.45763 -1.65828 0
M  V30 5723 O 526.778 -6.01572 0.1987 0
M  V30 5724 H 530.604 -2.83256 1.09545 0
M  V30 5725 H 528.189 -1.36837 0.599655 0
M  V30 5726 H 530.071 -4.09122 -1.00979 0
M  V30 5727 H 528.746 -2.94369 -1.34641 0
M  V30 5728 H 527.653 -3.6399 0.863853 0
M  V30 5729 H 528.986 -4.79349 1.1174 0
M  V30 5730 N 530.638 -0.59345 -1.46 0
M  V30 5731 C 531.601 0.123538 -2.28867 0
M  V30 5732 C 532.601 0.808628 -1.38989 0
M  V30 5733 O 533.791 0.658945 -1.61256 0
M  V30 5734 C 530.923 1.1847 -3.19653 0
M  V30 5735 H 532.116 -0.604843 -2.93737 0
M  V30 5736 H 529.669 -0.351875 -1.52288 0
M  V30 5737 H 530.404 1.94431 -2.59552 0
M  V30 5738 H 530.189 0.69783 -3.8584 0
M  V30 5739 H 531.679 1.68726 -3.81997 0
M  V30 5740 N 532.116 1.54067 -0.331816 0
M  V30 5741 C 533.365 1.99895 0.269209 0
M  V30 5742 C 533.678 1.22371 1.52593 0
M  V30 5743 O 534.884 1.58618 2.20347 0
M  V30 5744 C 533.34 3.55972 0.530244 0
M  V30 5745 C 532.948 4.4234 -0.709901 0
M  V30 5746 C 534.692 4.10247 1.09077 0
M  V30 5747 C 532.599 5.89905 -0.420312 0
M  V30 5748 H 531.529 0.746741 0.104371 0
M  V30 5749 H 534.18 1.78014 -0.445324 0
M  V30 5750 H 532.562 3.73873 1.30518 0
M  V30 5751 H 533.736 4.36215 -1.48504 0
M  V30 5752 H 532.051 3.98997 -1.19123 0
M  V30 5753 H 534.648 5.18095 1.32219 0
M  V30 5754 H 534.991 3.62739 2.0427 0
M  V30 5755 H 535.524 3.96011 0.376824 0
M  V30 5756 H 532.263 6.41623 -1.34164 0
M  V30 5757 H 531.783 5.98962 0.316962 0
M  V30 5758 H 533.462 6.46991 -0.0331956 0
M  V30 5759 N 533.594 0.0601682 1.57485 0
M  V30 5760 C 534.542 -0.928899 2.13247 0
M  V30 5761 C 535.536 -1.31616 1.06647 0
M  V30 5762 O 536.742 -1.29476 1.25043 0
M  V30 5763 H 533.117 -0.317455 0.681708 0
M  V30 5764 H 535.088 -0.433566 2.95233 0
M  V30 5765 C 533.837 -2.19121 2.69965 0
M  V30 5766 H 533.16 -1.90204 3.51657 0
M  V30 5767 H 534.6 -2.86465 3.12592 0
M  V30 5768 C 533.059 -2.94195 1.64168 0
M  V30 5769 O 533.589 -3.87468 1.05978 0
M  V30 5770 N 531.795 -2.57089 1.35476 0
M  V30 5771 H 531.342 -1.81314 1.82984 0
M  V30 5772 H 531.3 -3.07624 0.649196 0
M  V30 5773 N 535.072 -1.5615 -0.213296 0
M  V30 5774 C 536.02 -1.93953 -1.28394 0
M  V30 5775 C 537.014 -0.822592 -1.48087 0
M  V30 5776 O 538.22 -1.00748 -1.49164 0
M  V30 5777 H 534.595 -0.61648 -0.430646 0
M  V30 5778 H 536.566 -2.83275 -0.937977 0
M  V30 5779 C 535.315 -2.27969 -2.62537 0
M  V30 5780 H 534.638 -3.13432 -2.48194 0
M  V30 5781 H 536.078 -2.58297 -3.36242 0
M  V30 5782 C 534.537 -1.10775 -3.18167 0
M  V30 5783 O 535.067 -0.373201 -3.99963 0
M  V30 5784 N 533.273 -0.889377 -2.76656 0
M  V30 5785 H 532.82 -1.48843 -2.10246 0
M  V30 5786 H 532.778 -0.107 -3.14218 0
M  V30 5787 N 536.55 0.480323 -1.50102 0
M  V30 5788 C 537.798 1.23063 -1.60312 0
M  V30 5789 C 538.119 1.92659 -0.301226 0
M  V30 5790 O 537.389 1.83691 0.680753 0
M  V30 5791 H 535.969 0.457231 -0.590719 0
M  V30 5792 H 538.631 0.554893 -1.86834 0
M  V30 5793 H 537.727 1.9835 -2.40964 0
M  V30 5794 N 538.028 1.39524 0.732853 0
M  V30 5795 C 539.305 1.27373 1.48444 0
M  V30 5796 C 539.685 -0.115725 2.10783 0
M  V30 5797 O 539.033 -1.12713 1.98766 0
M  V30 5798 C 539.243 2.39966 2.53412 0
M  V30 5799 C 540.591 2.79384 3.19733 0
M  V30 5800 O 541.615 2.39431 2.63725 0
M  V30 5801 O 540.474 3.48353 4.21085 0
M  V30 5802 H 537.568 0.499272 0.659285 0
M  V30 5803 H 540.114 1.51403 0.766496 0
M  V30 5804 H 538.886 3.32845 2.05742 0
M  V30 5805 H 538.509 2.17612 3.32762 0
M  V30 5806 N 539.506 -0.963266 1.24736 0
M  V30 5807 C 540.753 -1.7068 1.0897 0
M  V30 5808 C 541.081 -1.90934 -0.370751 0
M  V30 5809 O 540.336 -1.47155 -1.29011 0
M  V30 5810 C 540.635 -3.09944 1.7796 0
M  V30 5811 C 540.301 -3.09518 3.27887 0
M  V30 5812 C 538.963 -3.09109 3.68789 0
M  V30 5813 C 541.315 -3.03509 4.23712 0
M  V30 5814 C 538.643 -3.00429 5.03944 0
M  V30 5815 C 540.995 -2.96371 5.5888 0
M  V30 5816 C 539.659 -2.94293 5.99123 0
M  V30 5817 H 538.929 -0.624564 0.398749 0
M  V30 5818 H 541.576 -1.12603 1.54896 0
M  V30 5819 H 539.881 -3.71513 1.2444 0
M  V30 5820 H 541.578 -3.66278 1.63222 0
M  V30 5821 H 538.168 -3.10603 2.95337 0
M  V30 5822 H 542.352 -3.0295 3.93109 0
M  V30 5823 H 537.608 -2.97183 5.34314 0
M  V30 5824 H 541.782 -2.90681 6.32833 0
M  V30 5825 H 539.409 -2.87322 7.03811 0
M  V30 5826 N 540.985 -1.06182 -1.16461 0
M  V30 5827 C 541.895 -0.682671 -2.24448 0
M  V30 5828 C 542.911 0.30078 -1.71381 0
M  V30 5829 O 544.087 0.150376 -2.00838 0
M  V30 5830 C 541.152 -0.0737202 -3.46622 0
M  V30 5831 C 540.213 -1.10889 -4.14731 0
M  V30 5832 C 539.446 -0.528908 -5.31073 0
M  V30 5833 O 539.669 0.65868 -5.66584 0
M  V30 5834 O 538.603 -1.26805 -5.88391 0
M  V30 5835 H 542.429 -1.58291 -2.59187 0
M  V30 5836 H 540.014 -0.834013 -1.23954 0
M  V30 5837 H 541.896 0.264192 -4.20571 0
M  V30 5838 H 540.571 0.800015 -3.13658 0
M  V30 5839 H 539.478 -1.49896 -3.42756 0
M  V30 5840 H 540.811 -1.95412 -4.51747 0
M  V30 5841 N 542.463 1.3308 -0.844243 0
M  V30 5842 C 543.426 2.27403 -0.286485 0
M  V30 5843 C 544.426 1.51179 0.547872 0
M  V30 5844 O 545.616 1.70421 0.360886 0
M  V30 5845 C 542.748 3.35653 0.595813 0
M  V30 5846 H 543.941 2.78248 -1.11885 0
M  V30 5847 H 541.494 1.43574 -0.617749 0
M  V30 5848 H 542.229 2.90058 1.4504 0
M  V30 5849 H 542.014 3.921 -0.00125994 0
M  V30 5850 H 543.504 4.05958 0.979168 0
M  V30 5851 N 543.941 0.601185 1.45683 0
M  V30 5852 C 545.171 0.0999093 2.06358 0
M  V30 5853 C 545.579 -1.21831 1.44754 0
M  V30 5854 O 544.922 -1.75157 0.553695 0
M  V30 5855 C 544.984 -0.12085 3.59297 0
M  V30 5856 C 544.648 1.11459 4.432 0
M  V30 5857 C 545.645 2.03118 4.7858 0
M  V30 5858 C 543.33 1.34162 4.84051 0
M  V30 5859 C 545.324 3.15814 5.53661 0
M  V30 5860 C 543.011 2.4716 5.58888 0
M  V30 5861 C 544.009 3.37814 5.93608 0
M  V30 5862 O 543.697 4.48846 6.66928 0
M  V30 5863 H 543.429 0.0630316 0.673055 0
M  V30 5864 H 545.983 0.826982 1.88016 0
M  V30 5865 H 544.213 -0.902744 3.76015 0
M  V30 5866 H 545.902 -0.572925 4.01836 0
M  V30 5867 H 546.668 1.86801 4.47583 0
M  V30 5868 H 542.547 0.645018 4.56465 0
M  V30 5869 H 546.091 3.86596 5.8068 0
M  V30 5870 H 541.988 2.63432 5.89299 0
M  V30 5871 H 542.756 4.47446 6.85371 0
M  V30 5872 N 545.419 -1.53889 0.339982 0
M  V30 5873 C 546.647 -2.05271 -0.259114 0
M  V30 5874 C 547.062 -1.21517 -1.44496 0
M  V30 5875 O 546.419 -0.24966 -1.80784 0
M  V30 5876 C 546.47 -3.55092 -0.677634 0
M  V30 5877 O 546.191 -4.35667 0.461051 0
M  V30 5878 C 547.692 -4.22631 -1.33782 0
M  V30 5879 H 544.912 -0.669085 -0.0506566 0
M  V30 5880 H 547.456 -1.9852 0.490935 0
M  V30 5881 H 545.611 -3.62077 -1.37763 0
M  V30 5882 H 546.025 -5.24343 0.128144 0
M  V30 5883 H 547.499 -5.28861 -1.58145 0
M  V30 5884 H 547.976 -3.74758 -2.29027 0
M  V30 5885 H 548.582 -4.19829 -0.679957 0
M  V30 5886 N 546.897 -0.0685191 -1.57451 0
M  V30 5887 C 547.844 0.899861 -2.12535 0
M  V30 5888 C 548.814 1.29749 -1.03703 0
M  V30 5889 O 549.999 1.38392 -1.31348 0
M  V30 5890 C 547.139 2.16328 -2.6888 0
M  V30 5891 C 546.252 1.81857 -3.91857 0
M  V30 5892 C 545.387 3.02786 -4.36457 0
M  V30 5893 C 544.426 2.64317 -5.5209 0
M  V30 5894 N 543.563 3.77994 -5.91663 0
M  V30 5895 H 548.403 0.423243 -2.94979 0
M  V30 5896 H 545.94 0.197268 -1.45771 0
M  V30 5897 H 547.898 2.90281 -2.99655 0
M  V30 5898 H 546.528 2.61536 -1.89206 0
M  V30 5899 H 545.58 0.979808 -3.67565 0
M  V30 5900 H 546.892 1.49553 -4.75852 0
M  V30 5901 H 546.046 3.85021 -4.68875 0
M  V30 5902 H 544.785 3.38281 -3.51308 0
M  V30 5903 H 543.79 1.80503 -5.19325 0
M  V30 5904 H 545.015 2.29995 -6.38967 0
M  V30 5905 H 542.961 4.13258 -5.09464 0
M  V30 5906 H 542.878 3.49447 -6.7039 0
M  V30 5907 H 544.146 4.60818 -6.28703 0
M  V30 5908 N 548.375 1.56261 0.205012 0
M  V30 5909 C 549.624 1.79236 0.925058 0
M  V30 5910 C 549.937 0.640011 1.84833 0
M  V30 5911 O 551.143 0.753809 2.60826 0
M  V30 5912 C 549.599 3.17475 1.69522 0
M  V30 5913 C 549.207 4.40482 0.817269 0
M  V30 5914 C 550.951 3.49766 2.4055 0
M  V30 5915 C 548.858 5.69744 1.58573 0
M  V30 5916 H 547.788 0.668287 0.349153 0
M  V30 5917 H 550.439 1.82629 0.178544 0
M  V30 5918 H 548.821 3.08304 2.48526 0
M  V30 5919 H 549.995 4.60752 0.0665988 0
M  V30 5920 H 548.31 4.15827 0.218316 0
M  V30 5921 H 550.907 4.43573 2.98575 0
M  V30 5922 H 551.25 2.73041 3.14252 0
M  V30 5923 H 551.783 3.60341 1.68522 0
M  V30 5924 H 548.522 6.49407 0.891679 0
M  V30 5925 H 548.042 5.53509 2.31059 0
M  V30 5926 H 549.721 6.1051 2.14212 0
M  V30 5927 N 549.853 -0.472356 1.50355 0
M  V30 5928 C 551.093 -1.23439 1.62918 0
M  V30 5929 C 551.457 -1.89284 0.321801 0
M  V30 5930 O 552.658 -2.66854 0.322852 0
M  V30 5931 C 550.929 -2.25119 2.7759 0
M  V30 5932 S 552.488 -3.10278 3.10279 0
M  V30 5933 H 549.306 -0.41911 0.574341 0
M  V30 5934 H 551.908 -0.531621 1.88133 0
M  V30 5935 H 550.612 -1.75324 3.71066 0
M  V30 5936 H 550.143 -3.00026 2.54457 0
M  V30 5937 H 552.158 -4.26257 2.54007 0
M  V30 5938 N 551.331 -1.39911 -0.725443 0
M  V30 5939 C 552.608 -1.28158 -1.47766 0
M  V30 5940 C 552.988 0.104545 -2.10841 0
M  V30 5941 O 552.336 1.11657 -1.99361 0
M  V30 5942 C 552.546 -2.41306 -2.52135 0
M  V30 5943 C 553.894 -2.81076 -3.18247 0
M  V30 5944 O 554.918 -2.40827 -2.62452 0
M  V30 5945 O 553.777 -3.50581 -4.19231 0
M  V30 5946 H 550.871 -0.502761 -0.656628 0
M  V30 5947 H 553.417 -1.51808 -0.758456 0
M  V30 5948 H 552.189 -3.33932 -2.03974 0
M  V30 5949 H 551.812 -2.19374 -3.31603 0
M  V30 5950 N 552.809 0.956637 -1.25245 0
M  V30 5951 C 554.22 1.51569 -1.09012 0
M  V30 5952 C 554.571 1.93322 0.334813 0
M  V30 5953 O 553.696 1.78421 1.22454 0
M  V30 5954 C 554.291 2.75444 -1.97271 0
M  V30 5955 C 552.85 3.27669 -1.8523 0
M  V30 5956 C 551.997 2.00517 -1.91542 0
M  V30 5957 H 554.948 0.773746 -1.3856 0
M  V30 5958 H 554.969 3.4919 -1.51151 0
M  V30 5959 H 554.481 2.45024 -3.00973 0
M  V30 5960 H 552.582 3.62914 -0.844045 0
M  V30 5961 H 552.695 3.9582 -2.69932 0
M  V30 5962 H 551.059 2.15727 -1.35404 0
M  V30 5963 H 551.842 1.72448 -2.96844 0
M  V30 5964 N 554.287 1.06798 1.15896 0
M  V30 5965 C 555.535 0.786211 1.8618 0
M  V30 5966 C 555.856 -0.689547 1.82401 0
M  V30 5967 O 555.126 -1.49913 1.26107 0
M  V30 5968 H 553.706 0.287843 0.689315 0
M  V30 5969 H 556.368 1.35055 1.40521 0
M  V30 5970 H 555.464 1.1157 2.91477 0
M  V30 5971 N 555.766 -1.3263 0.851289 0
M  V30 5972 C 556.696 -2.31449 0.308771 0
M  V30 5973 C 557.677 -1.59531 -0.590255 0
M  V30 5974 O 558.862 -1.87351 -0.511205 0
M  V30 5975 C 555.992 -3.43586 -0.506548 0
M  V30 5976 C 554.946 -4.26963 0.297753 0
M  V30 5977 C 554.272 -5.30831 -0.642094 0
M  V30 5978 C 555.572 -4.99643 1.52166 0
M  V30 5979 H 557.266 -2.77074 1.13447 0
M  V30 5980 H 554.812 -1.33207 0.546971 0
M  V30 5981 H 556.765 -4.11754 -0.896474 0
M  V30 5982 H 555.489 -2.96681 -1.36558 0
M  V30 5983 H 554.148 -3.60437 0.669391 0
M  V30 5984 H 553.796 -4.8018 -1.49788 0
M  V30 5985 H 553.496 -5.87501 -0.107968 0
M  V30 5986 H 555.02 -6.01862 -1.02927 0
M  V30 5987 H 556.434 -5.6051 1.20421 0
M  V30 5988 H 554.831 -5.66022 1.99347 0
M  V30 5989 H 555.901 -4.27701 2.28474 0
M  V30 5990 N 557.244 -0.608902 -1.45362 0
M  V30 5991 C 558.472 -0.111013 -2.06602 0
M  V30 5992 C 558.887 1.20516 -1.45332 0
M  V30 5993 O 558.244 1.73437 -0.567978 0
M  V30 5994 C 558.295 0.033688 -3.61484 0
M  V30 5995 O 558.016 -1.23041 -4.20467 0
M  V30 5996 C 559.517 0.562882 -4.39712 0
M  V30 5997 H 556.737 -0.0694453 -0.667397 0
M  V30 5998 H 559.281 -0.837008 -1.86586 0
M  V30 5999 H 557.436 0.710016 -3.80838 0
M  V30 6000 H 557.85 -1.06094 -5.13658 0
M  V30 6001 H 559.324 0.613213 -5.48583 0
M  V30 6002 H 559.801 1.58543 -4.09586 0
M  V30 6003 H 560.407 -0.0794454 -4.25226 0
M  V30 6004 N 558.722 1.53707 -0.348139 0
M  V30 6005 C 559.685 2.23812 0.494058 0
M  V30 6006 C 560.685 1.23989 1.02388 0
M  V30 6007 O 561.875 1.48395 0.912396 0
M  V30 6008 C 559.007 2.96133 1.68872 0
M  V30 6009 H 560.2 2.99663 -0.119141 0
M  V30 6010 H 557.753 1.55983 -0.0995539 0
M  V30 6011 H 558.488 2.24481 2.34049 0
M  V30 6012 H 558.273 3.69357 1.31596 0
M  V30 6013 H 559.763 3.49475 2.28597 0
M  V30 6014 N 560.2 0.0768682 1.57412 0
M  V30 6015 C 561.447 -0.591085 1.93681 0
M  V30 6016 C 561.775 -1.69311 0.957286 0
M  V30 6017 O 561.03 -1.95682 -0.0262428 0
M  V30 6018 C 561.329 -1.20268 3.36557 0
M  V30 6019 C 560.995 -0.226286 4.50332 0
M  V30 6020 C 559.657 0.0423142 4.81181 0
M  V30 6021 C 562.009 0.441415 5.19327 0
M  V30 6022 C 559.337 0.985616 5.78362 0
M  V30 6023 C 561.689 1.37307 6.17519 0
M  V30 6024 C 560.353 1.65009 6.46783 0
M  V30 6025 H 559.623 -0.216293 0.70873 0
M  V30 6026 H 562.27 0.148824 1.90921 0
M  V30 6027 H 560.575 -2.01844 3.35807 0
M  V30 6028 H 562.272 -1.72688 3.61911 0
M  V30 6029 H 558.862 -0.445821 4.26275 0
M  V30 6030 H 563.046 0.247023 4.95685 0
M  V30 6031 H 558.302 1.20743 5.99359 0
M  V30 6032 H 562.476 1.89637 6.70083 0
M  V30 6033 H 560.103 2.38263 7.21897 0
M  V30 6034 N 561.678 -1.56367 -0.196722 0
M  V30 6035 C 562.588 -1.97617 -1.2643 0
M  V30 6036 C 563.604 -0.883598 -1.49895 0
M  V30 6037 O 564.78 -1.18921 -1.62541 0
M  V30 6038 C 561.845 -2.30595 -2.58895 0
M  V30 6039 C 560.906 -3.53551 -2.43516 0
M  V30 6040 C 560.139 -3.84946 -3.69665 0
M  V30 6041 O 560.362 -3.17655 -4.73763 0
M  V30 6042 O 559.296 -4.78379 -3.65291 0
M  V30 6043 H 563.122 -2.88648 -0.944233 0
M  V30 6044 H 560.707 -1.43901 -0.401592 0
M  V30 6045 H 562.589 -2.52889 -3.37083 0
M  V30 6046 H 561.264 -1.42732 -2.90533 0
M  V30 6047 H 560.171 -3.36507 -1.63445 0
M  V30 6048 H 561.504 -4.41875 -2.16812 0
M  V30 6049 N 563.156 0.464375 -1.50603 0
M  V30 6050 C 564.567 1.04507 -1.5471 0
M  V30 6051 C 564.918 1.9297 -0.354542 0
M  V30 6052 O 564.043 2.09763 0.531812 0
M  V30 6053 C 564.638 1.90207 -2.80369 0
M  V30 6054 C 563.197 2.43373 -2.87135 0
M  V30 6055 C 562.344 1.21886 -2.49076 0
M  V30 6056 H 565.295 0.246716 -1.56771 0
M  V30 6057 H 565.316 2.75353 -2.62604 0
M  V30 6058 H 564.828 1.25796 -3.67147 0
M  V30 6059 H 562.929 3.11318 -2.04724 0
M  V30 6060 H 563.042 2.7802 -3.90181 0
M  V30 6061 H 561.406 1.55575 -2.01664 0
M  V30 6062 H 562.189 0.591268 -3.3817 0
M  V30 6063 N 564.634 1.40294 0.718013 0
M  V30 6064 C 565.544 1.42678 1.86226 0
M  V30 6065 C 566.56 0.319655 1.71039 0
M  V30 6066 O 567.736 0.563852 1.93346 0
M  V30 6067 C 564.801 1.2852 3.21999 0
M  V30 6068 C 563.862 2.49354 3.49458 0
M  V30 6069 C 563.095 2.35863 4.78753 0
M  V30 6070 O 563.318 1.37114 5.53675 0
M  V30 6071 O 562.252 3.25189 5.06494 0
M  V30 6072 H 566.078 2.39167 1.87171 0
M  V30 6073 H 563.663 1.2159 0.868112 0
M  V30 6074 H 565.545 1.22824 4.03103 0
M  V30 6075 H 564.22 0.351359 3.21787 0
M  V30 6076 H 563.127 2.60628 2.68373 0
M  V30 6077 H 564.46 3.41491 3.54464 0
M  V30 6078 N 566.112 -0.949982 1.2575 0
M  V30 6079 C 567.075 -2.02894 1.06615 0
M  V30 6080 C 568.075 -1.60791 0.0173905 0
M  V30 6081 O 569.265 -1.72249 0.260003 0
M  V30 6082 C 566.397 -3.35219 0.619751 0
M  V30 6083 H 567.59 -2.21302 2.02399 0
M  V30 6084 H 565.143 -1.12772 1.08223 0
M  V30 6085 H 565.878 -3.22508 -0.340486 0
M  V30 6086 H 565.663 -3.67129 1.37692 0
M  V30 6087 H 567.153 -4.14505 0.507443 0
M  V30 6088 N 567.59 -1.07411 -1.15328 0
M  V30 6089 C 568.52 -0.716472 -2.22236 0
M  V30 6090 C 569.501 0.296373 -1.67498 0
M  V30 6091 O 570.686 0.168989 -1.93463 0
M  V30 6092 C 567.816 -0.114142 -3.47112 0
M  V30 6093 C 566.77 -1.05421 -4.14814 0
M  V30 6094 C 566.096 -0.314604 -5.33774 0
M  V30 6095 C 567.396 -2.38808 -4.64508 0
M  V30 6096 H 569.09 -1.61029 -2.52408 0
M  V30 6097 H 566.636 -0.775702 -1.21321 0
M  V30 6098 H 568.589 0.148001 -4.2114 0
M  V30 6099 H 567.313 0.814755 -3.16274 0
M  V30 6100 H 565.972 -1.30128 -3.42728 0
M  V30 6101 H 565.62 0.617772 -4.99192 0
M  V30 6102 H 565.32 -0.941209 -5.80013 0
M  V30 6103 H 566.844 -0.0602747 -6.1057 0
M  V30 6104 H 568.258 -2.18424 -5.3006 0
M  V30 6105 H 566.655 -2.97069 -5.21412 0
M  V30 6106 H 567.725 -3.01067 -3.80114 0
M  V30 6107 N 569.068 1.32177 -0.85831 0
M  V30 6108 C 570.316 1.96735 -0.462568 0
M  V30 6109 C 570.637 1.6824 0.985911 0
M  V30 6110 O 569.907 0.991564 1.68952 0
M  V30 6111 H 568.487 0.727849 -0.168064 0
M  V30 6112 H 571.149 1.61195 -1.09554 0
M  V30 6113 H 570.245 3.06068 -0.610647 0
M  V30 6114 N 570.547 0.616602 1.45037 0
M  V30 6115 C 571.495 -0.109318 2.32343 0
M  V30 6116 C 572.489 -0.850543 1.465 0
M  V30 6117 O 573.695 -0.765088 1.62931 0
M  V30 6118 H 570.07 -0.0541091 0.750051 0
M  V30 6119 H 572.041 0.645326 2.91338 0
M  V30 6120 C 570.79 -1.0872 3.30266 0
M  V30 6121 H 570.113 -0.526267 3.96321 0
M  V30 6122 H 571.553 -1.56489 3.94065 0
M  V30 6123 C 570.012 -2.16525 2.58105 0
M  V30 6124 O 570.542 -3.244 2.36913 0
M  V30 6125 N 568.748 -1.92057 2.18088 0
M  V30 6126 H 568.295 -1.04337 2.35524 0
M  V30 6127 H 568.253 -2.64391 1.70131 0
M  V30 6128 N 572.025 -1.5352 0.356285 0
M  V30 6129 C 572.955 -2.28372 -0.486661 0
M  V30 6130 C 573.936 -1.30432 -1.09185 0
M  V30 6131 O 575.121 -1.59291 -1.11085 0
M  V30 6132 C 572.251 -3.06604 -1.63129 0
M  V30 6133 C 571.205 -4.12154 -1.15381 0
M  V30 6134 C 570.531 -4.78415 -2.38796 0
M  V30 6135 C 571.831 -5.21724 -0.245179 0
M  V30 6136 H 573.525 -2.99083 0.137797 0
M  V30 6137 H 571.071 -1.43841 0.0677134 0
M  V30 6138 H 573.024 -3.57712 -2.22755 0
M  V30 6139 H 571.748 -2.33568 -2.28284 0
M  V30 6140 H 570.407 -3.61978 -0.580294 0
M  V30 6141 H 570.055 -4.01959 -3.02387 0
M  V30 6142 H 569.755 -5.49734 -2.07524 0
M  V30 6143 H 571.279 -5.32313 -2.99125 0
M  V30 6144 H 572.693 -5.68391 -0.748646 0
M  V30 6145 H 571.09 -6.00095 -0.0237608 0
M  V30 6146 H 572.16 -4.79596 0.715229 0
M  V30 6147 N 573.503 -0.0852151 -1.57369 0
M  V30 6148 C 574.749 0.581666 -1.94279 0
M  V30 6149 C 575.082 1.68444 -0.966446 0
M  V30 6150 O 574.357 1.945 0.00215277 0
M  V30 6151 C 574.64 1.14609 -3.41375 0
M  V30 6152 C 574.493 0.0490414 -4.49773 0
M  V30 6153 C 575.812 2.04751 -3.8957 0
M  V30 6154 H 572.931 0.209972 -0.706456 0
M  V30 6155 H 575.573 -0.153915 -1.89376 0
M  V30 6156 H 573.723 1.77297 -3.45685 0
M  V30 6157 H 575.395 -0.584721 -4.57579 0
M  V30 6158 H 573.638 -0.618638 -4.29366 0
M  V30 6159 H 574.309 0.484601 -5.49869 0
M  V30 6160 H 576.785 1.51981 -3.87351 0
M  V30 6161 H 575.661 2.41173 -4.93079 0
M  V30 6162 H 575.922 2.96107 -3.28288 0
M  V30 6163 N 574.981 1.5647 0.188427 0
M  V30 6164 C 575.891 1.98285 1.2538 0
M  V30 6165 C 576.907 0.891535 1.49424 0
M  V30 6166 O 578.083 1.19782 1.61908 0
M  V30 6167 C 575.148 2.31965 2.57669 0
M  V30 6168 C 574.209 3.54838 2.41638 0
M  V30 6169 C 573.442 3.86901 3.67618 0
M  V30 6170 O 573.665 3.20163 4.72072 0
M  V30 6171 O 572.599 4.80309 3.62749 0
M  V30 6172 H 576.425 2.89145 0.928912 0
M  V30 6173 H 574.01 1.44112 0.393955 0
M  V30 6174 H 575.892 2.54673 3.35737 0
M  V30 6175 H 574.567 1.44271 2.89771 0
M  V30 6176 H 573.474 3.37369 1.61658 0
M  V30 6177 H 574.807 4.43019 2.14465 0
M  V30 6178 N 576.459 -0.456382 1.50847 0
M  V30 6179 C 577.707 -1.20497 1.62249 0
M  V30 6180 C 578.028 -1.92156 0.331839 0
M  V30 6181 O 577.298 -1.84751 -0.651443 0
M  V30 6182 H 575.878 -0.447775 0.597918 0
M  V30 6183 H 578.54 -0.525099 1.87693 0
M  V30 6184 H 577.636 -1.94492 2.44089 0
M  V30 6185 N 577.937 -1.40673 -0.710563 0
M  V30 6186 C 578.87 -1.35742 -1.83438 0
M  V30 6187 C 579.848 -0.226997 -1.61008 0
M  V30 6188 O 581.032 -0.411477 -1.83954 0
M  V30 6189 C 578.159 -1.11374 -3.19865 0
M  V30 6190 C 577.205 -2.26935 -3.61113 0
M  V30 6191 S 578.038 -3.89352 -3.67648 0
M  V30 6192 C 579.194 -3.67258 -5.06826 0
M  V30 6193 H 579.427 -2.30848 -1.87341 0
M  V30 6194 H 576.96 -1.27018 -0.877831 0
M  V30 6195 H 578.918 -0.980004 -3.9863 0
M  V30 6196 H 577.579 -0.179135 -3.13589 0
M  V30 6197 H 576.772 -2.0554 -4.60184 0
M  V30 6198 H 576.374 -2.36638 -2.89618 0
M  V30 6199 H 578.666 -3.26036 -5.93891 0
M  V30 6200 H 579.609 -4.65878 -5.33257 0
M  V30 6201 H 580.017 -3.0084 -4.77656 0
M  V30 6202 N 579.415 0.9433 -1.26252 0
M  V30 6203 C 580.692 1.66639 -1.02424 0
M  V30 6204 C 581.072 2.06335 0.446006 0
M  V30 6205 O 580.42 1.78551 1.42589 0
M  V30 6206 C 580.63 2.88019 -1.97094 0
M  V30 6207 C 581.978 3.59718 -2.25584 0
M  V30 6208 O 583.002 2.9812 -1.94943 0
M  V30 6209 O 581.861 4.7066 -2.77743 0
M  V30 6210 H 578.955 0.729643 -0.389294 0
M  V30 6211 H 581.501 0.995218 -1.37454 0
M  V30 6212 H 580.273 2.5556 -2.96319 0
M  V30 6213 H 579.896 3.62863 -1.62532 0
M  V30 6214 N 580.893 1.08022 1.14757 0
M  V30 6215 C 582.14 0.807509 1.85703 0
M  V30 6216 C 582.468 -0.666617 1.8272 0
M  V30 6217 O 581.723 -1.50562 1.25018 0
M  V30 6218 C 582.022 1.26964 3.34088 0
M  V30 6219 C 581.688 2.7509 3.57262 0
M  V30 6220 C 580.35 3.15547 3.63296 0
M  V30 6221 C 582.702 3.70667 3.66409 0
M  V30 6222 C 580.03 4.50384 3.75994 0
M  V30 6223 C 582.382 5.05274 3.80632 0
M  V30 6224 C 581.046 5.45342 3.84913 0
M  V30 6225 H 580.316 0.295488 0.679535 0
M  V30 6226 H 582.963 1.35245 1.35577 0
M  V30 6227 H 581.268 0.644216 3.86467 0
M  V30 6228 H 582.965 1.03544 3.87401 0
M  V30 6229 H 579.555 2.42775 3.53212 0
M  V30 6230 H 583.739 3.40533 3.61041 0
M  V30 6231 H 578.995 4.80886 3.77569 0
M  V30 6232 H 583.169 5.79201 3.86652 0
M  V30 6233 H 580.796 6.49823 3.94505 0
M  V30 6234 N 582.371 -1.3172 0.865308 0
M  V30 6235 C 583.321 -2.26157 0.289305 0
M  V30 6236 C 584.305 -1.50428 -0.570977 0
M  V30 6237 O 585.497 -1.71978 -0.418617 0
M  V30 6238 C 582.626 -3.39457 -0.512237 0
M  V30 6239 C 581.712 -4.22561 0.361028 0
M  V30 6240 N 582.103 -4.84501 1.45231 0
M  V30 6241 C 580.401 -4.45739 0.152641 0
M  V30 6242 C 581.102 -5.46586 1.99043 0
M  V30 6243 N 580.078 -5.28119 1.28809 0
M  V30 6244 H 583.88 -2.71581 1.12344 0
M  V30 6245 H 581.394 -1.45932 0.712565 0
M  V30 6246 H 583.391 -4.06133 -0.941379 0
M  V30 6247 H 582.051 -2.95577 -1.34404 0
M  V30 6248 H 583.062 -4.84293 1.83524 0
M  V30 6249 H 579.739 -4.1251 -0.643583 0
M  V30 6250 H 581.129 -6.05817 2.90577 0
M  V30 6251 N 583.85 -0.624285 -1.44708 0
M  V30 6252 C 585.266 -0.289322 -1.56956 0
M  V30 6253 C 585.466 1.20773 -1.61295 0
M  V30 6254 O 584.522 1.9915 -1.55227 0
M  V30 6255 C 585.835 -0.975215 -2.84447 0
M  V30 6256 C 587.383 -0.952709 -2.98148 0
M  V30 6257 C 587.858 -1.61893 -4.28433 0
M  V30 6258 N 589.349 -1.5852 -4.35231 0
M  V30 6259 C 590.084 -2.06969 -5.34744 0
M  V30 6260 N 589.58 -2.63579 -6.40701 0
M  V30 6261 N 591.373 -1.97638 -5.26209 0
M  V30 6262 H 583.524 -1.59612 -1.40135 0
M  V30 6263 H 585.787 -0.669592 -0.671081 0
M  V30 6264 H 585.493 -2.02999 -2.87201 0
M  V30 6265 H 585.367 -0.508749 -3.73753 0
M  V30 6266 H 587.754 0.093568 -2.94952 0
M  V30 6267 H 587.835 -1.4576 -2.10209 0
M  V30 6268 H 587.479 -2.66463 -4.32389 0
M  V30 6269 H 587.409 -1.08893 -5.15218 0
M  V30 6270 H 589.899 -1.17183 -3.59272 0
M  V30 6271 H 590.213 -2.98298 -7.12908 0
M  V30 6272 H 588.558 -2.67626 -6.41406 0
M  V30 6273 H 591.749 -1.5314 -4.42341 0
M  V30 6274 H 591.922 -2.35708 -6.03611 0
M  V30 6275 N 585.328 1.53329 -0.364422 0
M  V30 6276 C 586.575 2.01239 0.225634 0
M  V30 6277 C 586.903 1.25172 1.48869 0
M  V30 6278 O 586.158 0.333289 1.92841 0
M  V30 6279 C 586.457 3.52911 0.564661 0
M  V30 6280 C 586.123 4.46837 -0.603936 0
M  V30 6281 C 584.785 4.72234 -0.924585 0
M  V30 6282 C 587.137 5.02409 -1.38691 0
M  V30 6283 C 584.465 5.50454 -2.0302 0
M  V30 6284 C 586.817 5.81836 -2.48293 0
M  V30 6285 C 585.481 6.0552 -2.80894 0
M  V30 6286 H 584.751 0.736386 0.0825654 0
M  V30 6287 H 587.398 1.84948 -0.496645 0
M  V30 6288 H 585.703 3.67144 1.36794 0
M  V30 6289 H 587.4 3.87455 1.03344 0
M  V30 6290 H 583.99 4.27217 -0.343983 0
M  V30 6291 H 588.174 4.82735 -1.15243 0
M  V30 6292 H 583.43 5.67024 -2.28678 0
M  V30 6293 H 587.604 6.23905 -3.0938 0
M  V30 6294 H 585.231 6.65916 -3.66688 0
M  V30 6295 N 586.806 0.0935595 1.57322 0
M  V30 6296 C 588.036 -0.578095 1.98347 0
M  V30 6297 C 588.444 -1.62357 0.971441 0
M  V30 6298 O 587.787 -1.83639 -0.0473959 0
M  V30 6299 C 587.849 -1.28525 3.3574 0
M  V30 6300 C 587.513 -0.390714 4.55327 0
M  V30 6301 C 588.51 0.360522 5.18648 0
M  V30 6302 C 586.195 -0.309221 5.01347 0
M  V30 6303 C 588.189 1.18125 6.26359 0
M  V30 6304 C 585.876 0.515157 6.08925 0
M  V30 6305 C 586.874 1.25904 6.71295 0
M  V30 6306 O 586.562 2.06978 7.76798 0
M  V30 6307 H 586.294 -0.159767 0.656849 0
M  V30 6308 H 588.848 0.169058 2.04703 0
M  V30 6309 H 587.078 -2.07894 3.26063 0
M  V30 6310 H 588.767 -1.85128 3.61223 0
M  V30 6311 H 589.533 0.307285 4.84026 0
M  V30 6312 H 585.412 -0.877881 4.52564 0
M  V30 6313 H 588.956 1.76236 6.74971 0
M  V30 6314 H 584.853 0.56988 6.42979 0
M  V30 6315 H 585.621 1.99644 7.93779 0
M  V30 6316 N 588.284 -1.56567 -0.180126 0
M  V30 6317 C 589.531 -1.81492 -0.898167 0
M  V30 6318 C 589.859 -0.669225 -1.82624 0
M  V30 6319 O 589.114 0.344096 -1.92651 0
M  V30 6320 C 589.413 -3.1252 -1.73395 0
M  V30 6321 C 589.079 -4.40658 -0.955567 0
M  V30 6322 C 587.741 -4.75465 -0.740707 0
M  V30 6323 C 590.093 -5.19593 -0.408948 0
M  V30 6324 C 587.421 -5.86691 0.0320128 0
M  V30 6325 C 589.773 -6.31627 0.350638 0
M  V30 6326 C 588.437 -6.65007 0.576378 0
M  V30 6327 H 587.707 -0.664125 -0.328662 0
M  V30 6328 H 590.354 -1.908 -0.163616 0
M  V30 6329 H 588.659 -2.98515 -2.53763 0
M  V30 6330 H 590.356 -3.29013 -2.29241 0
M  V30 6331 H 586.946 -4.13352 -1.13306 0
M  V30 6332 H 591.13 -4.93104 -0.562307 0
M  V30 6333 H 586.386 -6.11016 0.216735 0
M  V30 6334 H 590.56 -6.92001 0.781497 0
M  V30 6335 H 588.187 -7.51033 1.17703 0
M  V30 6336 N 589.762 0.448376 -1.51087 0
M  V30 6337 C 590.672 1.56882 -1.74428 0
M  V30 6338 C 591.688 1.62268 -0.62809 0
M  V30 6339 O 592.864 1.79716 -0.909075 0
M  V30 6340 C 589.929 2.92947 -1.85426 0
M  V30 6341 C 588.99 2.97766 -3.09247 0
M  V30 6342 C 588.223 4.27341 -3.19711 0
M  V30 6343 O 588.446 5.19112 -2.36387 0
M  V30 6344 O 587.38 4.38219 -4.12611 0
M  V30 6345 H 591.206 1.40104 -2.69452 0
M  V30 6346 H 588.791 0.630247 -1.35456 0
M  V30 6347 H 590.673 3.73719 -1.94709 0
M  V30 6348 H 589.348 3.09876 -0.935887 0
M  V30 6349 H 588.255 2.15989 -3.0545 0
M  V30 6350 H 589.588 2.8578 -4.00738 0
M  V30 6351 N 591.24 1.41047 0.703093 0
M  V30 6352 C 592.188 1.42494 1.83843 0
M  V30 6353 C 593.182 0.303885 1.66652 0
M  V30 6354 O 594.388 0.475544 1.73605 0
M  V30 6355 H 590.763 0.445685 0.605697 0
M  V30 6356 H 592.734 2.38194 1.79739 0
M  V30 6357 C 591.483 1.31666 3.21807 0
M  V30 6358 H 590.806 2.17212 3.35647 0
M  V30 6359 H 592.246 1.36738 4.01346 0
M  V30 6360 C 590.705 0.0281828 3.36888 0
M  V30 6361 O 591.235 -0.929995 3.90786 0
M  V30 6362 N 589.441 -0.0454322 2.90564 0
M  V30 6363 H 588.988 0.735046 2.4689 0
M  V30 6364 H 588.946 -0.906968 3.01034 0
M  V30 6365 N 592.718 -0.936591 1.26751 0
M  V30 6366 C 593.681 -2.01752 1.08761 0
M  V30 6367 C 594.681 -1.60763 0.0344435 0
M  V30 6368 O 595.871 -1.71963 0.278258 0
M  V30 6369 C 593.003 -3.34543 0.655271 0
M  V30 6370 H 594.196 -2.19143 2.04735 0
M  V30 6371 H 591.749 -1.11618 1.09413 0
M  V30 6372 H 592.484 -3.22851 -0.30626 0
M  V30 6373 H 592.269 -3.65647 1.41578 0
M  V30 6374 H 593.759 -4.13944 0.551378 0
M  V30 6375 N 594.196 -1.08629 -1.14182 0
M  V30 6376 C 595.126 -0.740003 -2.21464 0
M  V30 6377 C 596.107 0.278591 -1.67803 0
M  V30 6378 O 597.292 0.148461 -1.93632 0
M  V30 6379 C 594.422 -0.150952 -3.46972 0
M  V30 6380 C 593.376 -1.09815 -4.13672 0
M  V30 6381 C 592.702 -0.3712 -5.3341 0
M  V30 6382 C 594.002 -2.43722 -4.61949 0
M  V30 6383 H 595.696 -1.63697 -2.50686 0
M  V30 6384 H 593.242 -0.788526 -1.20492 0
M  V30 6385 H 595.195 0.103325 -4.21273 0
M  V30 6386 H 593.919 0.781164 -3.1712 0
M  V30 6387 H 592.578 -1.33756 -3.41328 0
M  V30 6388 H 592.226 0.564792 -4.99819 0
M  V30 6389 H 591.926 -1.00267 -5.78982 0
M  V30 6390 H 593.45 -0.12503 -6.10472 0
M  V30 6391 H 594.864 -2.24034 -5.27714 0
M  V30 6392 H 593.261 -3.02582 -5.18232 0
M  V30 6393 H 594.331 -3.05082 -3.76899 0
M  V30 6394 N 595.674 1.31259 -0.872281 0
M  V30 6395 C 596.899 2.0133 -0.498099 0
M  V30 6396 C 597.324 1.65031 0.902568 0
M  V30 6397 O 596.682 0.860164 1.59596 0
M  V30 6398 C 596.73 3.54411 -0.665205 0
M  V30 6399 O 595.834 4.11347 0.294473 0
M  V30 6400 H 595.175 0.633844 -0.197832 0
M  V30 6401 H 597.705 1.67402 -1.17633 0
M  V30 6402 H 597.715 4.04147 -0.559373 0
M  V30 6403 H 596.39 3.80171 -1.68651 0
M  V30 6404 H 594.967 3.72624 0.143403 0
M  V30 6405 N 597.152 0.631951 1.44375 0
M  V30 6406 C 598.099 -0.0724807 2.30686 0
M  V30 6407 C 599.069 -0.835975 1.43529 0
M  V30 6408 O 600.254 -0.816849 1.7243 0
M  V30 6409 C 597.394 -1.04753 3.28817 0
M  V30 6410 C 596.507 -0.282367 4.31076 0
M  V30 6411 C 595.642 -1.2493 5.163 0
M  V30 6412 C 594.681 -0.473349 6.10267 0
M  V30 6413 N 593.818 -1.39079 6.88187 0
M  V30 6414 H 598.658 0.669477 2.90383 0
M  V30 6415 H 596.195 0.341927 1.43071 0
M  V30 6416 H 598.153 -1.62623 3.842 0
M  V30 6417 H 596.783 -1.75661 2.70819 0
M  V30 6418 H 595.835 0.412268 3.78159 0
M  V30 6419 H 597.147 0.321955 4.9776 0
M  V30 6420 H 596.301 -1.89931 5.76204 0
M  V30 6421 H 595.04 -1.88755 4.49692 0
M  V30 6422 H 594.045 0.190142 5.49471 0
M  V30 6423 H 595.27 0.16019 6.78911 0
M  V30 6424 H 593.216 -2.01623 6.24247 0
M  V30 6425 H 593.133 -0.840513 7.51313 0
M  V30 6426 H 594.401 -2.02961 7.52613 0
M  V30 6427 N 598.631 -1.53133 0.372548 0
M  V30 6428 C 599.856 -2.0625 -0.218098 0
M  V30 6429 C 600.281 -1.24375 -1.41111 0
M  V30 6430 O 599.639 -0.264554 -1.79359 0
M  V30 6431 C 599.687 -3.55858 -0.582876 0
M  V30 6432 O 598.791 -3.76667 -1.67917 0
M  V30 6433 H 598.132 -0.663317 -0.030104 0
M  V30 6434 H 600.662 -1.97477 0.535169 0
M  V30 6435 H 600.672 -3.99007 -0.851925 0
M  V30 6436 H 599.347 -4.14892 0.289428 0
M  V30 6437 H 597.924 -3.45413 -1.40513 0
M  V30 6438 N 600.109 -0.101901 -1.5727 0
M  V30 6439 C 601.057 0.872034 -2.15635 0
M  V30 6440 C 602.051 1.28742 -1.10099 0
M  V30 6441 O 603.257 1.26116 -1.28432 0
M  V30 6442 H 599.632 0.299269 -0.689886 0
M  V30 6443 H 601.603 0.355137 -2.96279 0
M  V30 6444 C 600.352 2.11886 -2.7568 0
M  V30 6445 H 599.675 1.80813 -3.56576 0
M  V30 6446 H 601.115 2.78077 -3.20077 0
M  V30 6447 C 599.574 2.89739 -1.7191 0
M  V30 6448 O 600.104 3.84522 -1.16213 0
M  V30 6449 N 598.31 2.53407 -1.42245 0
M  V30 6450 H 597.857 1.76398 -1.87727 0
M  V30 6451 H 597.815 3.05795 -0.730529 0
M  V30 6452 N 601.587 1.56661 0.17182 0
M  V30 6453 C 602.534 1.96371 1.21273 0
M  V30 6454 C 603.504 0.82756 1.44016 0
M  V30 6455 O 604.689 1.08764 1.56764 0
M  V30 6456 C 601.829 2.32838 2.54716 0
M  V30 6457 C 600.942 3.59628 2.39356 0
M  V30 6458 C 600.077 3.85311 3.65662 0
M  V30 6459 C 599.116 5.0545 3.45234 0
M  V30 6460 N 598.253 5.27268 4.63608 0
M  V30 6461 H 603.093 2.85106 0.86709 0
M  V30 6462 H 600.63 1.41073 0.416744 0
M  V30 6463 H 602.588 2.52004 3.3249 0
M  V30 6464 H 601.218 1.47214 2.87277 0
M  V30 6465 H 600.27 3.4838 1.52761 0
M  V30 6466 H 601.582 4.4756 2.20207 0
M  V30 6467 H 600.736 4.04841 4.51872 0
M  V30 6468 H 599.475 2.95753 3.8779 0
M  V30 6469 H 598.48 4.85819 2.5741 0
M  V30 6470 H 599.705 5.96538 3.24529 0
M  V30 6471 H 597.651 4.40662 4.85956 0
M  V30 6472 H 597.568 6.09422 4.4737 0
M  V30 6473 H 598.836 5.51277 5.51103 0
M  V30 6474 N 603.065 -0.440357 1.51323 0
M  V30 6475 C 604.476 -1.02032 1.56353 0
M  V30 6476 C 604.827 -1.92382 0.385197 0
M  V30 6477 O 603.952 -2.10583 -0.498373 0
M  V30 6478 C 604.547 -1.85723 2.83359 0
M  V30 6479 C 603.106 -2.38774 2.90971 0
M  V30 6480 C 602.253 -1.17908 2.50984 0
M  V30 6481 H 605.204 -0.221744 1.57143 0
M  V30 6482 H 605.225 -2.71141 2.66951 0
M  V30 6483 H 604.737 -1.19939 3.69102 0
M  V30 6484 H 602.838 -3.08021 2.09651 0
M  V30 6485 H 602.951 -2.71778 3.94555 0
M  V30 6486 H 601.315 -1.52347 2.04114 0
M  V30 6487 H 602.098 -0.537393 3.39068 0
M  V30 6488 N 604.543 -1.41418 -0.695603 0
M  V30 6489 C 605.792 -1.40073 -1.4513 0
M  V30 6490 C 606.105 -0.0130439 -1.95596 0
M  V30 6491 O 607.311 0.123032 -2.71221 0
M  V30 6492 C 605.767 -2.46286 -2.62433 0
M  V30 6493 C 605.375 -3.90962 -2.18753 0
M  V30 6494 C 607.119 -2.54077 -3.40066 0
M  V30 6495 C 605.026 -4.88728 -3.33015 0
M  V30 6496 H 603.956 -0.520903 -0.545138 0
M  V30 6497 H 606.607 -1.67242 -0.75515 0
M  V30 6498 H 604.989 -2.12248 -3.34315 0
M  V30 6499 H 606.163 -4.34248 -1.54161 0
M  V30 6500 H 604.478 -3.86831 -1.54114 0
M  V30 6501 H 607.075 -3.24303 -4.25125 0
M  V30 6502 H 607.418 -1.5776 -3.8525 0
M  V30 6503 H 607.951 -2.87206 -2.75241 0
M  V30 6504 H 604.69 -5.86449 -2.92844 0
M  V30 6505 H 604.21 -4.50091 -3.96457 0
M  V30 6506 H 605.889 -5.09483 -3.98793 0
M  V30 6507 N 606.021 0.929856 -1.27246 0
M  V30 6508 C 606.971 2.01629 -1.06442 0
M  V30 6509 C 607.955 1.60899 0.00687842 0
M  V30 6510 O 609.147 1.75733 -0.211407 0
M  V30 6511 C 606.276 3.35849 -0.711361 0
M  V30 6512 C 605.362 3.8303 -1.82069 0
M  V30 6513 N 605.753 4.02743 -3.05993 0
M  V30 6514 C 604.051 4.12046 -1.70687 0
M  V30 6515 C 604.752 4.42001 -3.78167 0
M  V30 6516 N 603.728 4.4935 -3.05918 0
M  V30 6517 H 607.53 2.14898 -2.00489 0
M  V30 6518 H 605.044 1.11654 -1.17929 0
M  V30 6519 H 607.041 4.13343 -0.543442 0
M  V30 6520 H 605.701 3.23944 0.221517 0
M  V30 6521 H 606.712 3.89112 -3.41778 0
M  V30 6522 H 603.389 4.08866 -0.844681 0
M  V30 6523 H 604.779 4.6535 -4.84664 0
M  V30 6524 N 607.499 1.09233 1.13605 0
M  V30 6525 C 608.727 0.848908 1.88683 0
M  V30 6526 C 609.142 -0.599667 1.79024 0
M  V30 6527 O 608.499 -1.41265 1.15544 0
M  V30 6528 C 608.55 1.27273 3.38355 0
M  V30 6529 O 608.271 2.66449 3.47759 0
M  V30 6530 C 609.772 1.0614 4.30406 0
M  V30 6531 H 606.992 0.305549 0.597395 0
M  V30 6532 H 609.536 1.4538 1.43823 0
M  V30 6533 H 607.691 0.711776 3.80805 0
M  V30 6534 H 608.105 2.84264 4.40788 0
M  V30 6535 H 609.579 1.40725 5.33761 0
M  V30 6536 H 610.056 -0.000960332 4.392 0
M  V30 6537 H 610.662 1.60821 3.93722 0
M  V30 6538 N 608.977 -1.30795 0.87923 0
M  V30 6539 C 610.226 -1.95636 0.490875 0
M  V30 6540 C 610.539 -1.70214 -0.963674 0
M  V30 6541 O 611.745 -2.28991 -1.45861 0
M  V30 6542 C 610.201 -3.50271 0.826929 0
M  V30 6543 C 609.809 -3.84521 2.29886 0
M  V30 6544 C 611.553 -4.21456 0.507494 0
M  V30 6545 C 609.46 -5.32309 2.57685 0
M  V30 6546 H 608.39 -0.732238 0.179841 0
M  V30 6547 H 611.041 -1.48829 1.07341 0
M  V30 6548 H 609.423 -3.9562 0.173542 0
M  V30 6549 H 610.597 -3.50102 2.99609 0
M  V30 6550 H 608.912 -3.26425 2.58526 0
M  V30 6551 H 611.509 -5.30199 0.692293 0
M  V30 6552 H 611.852 -4.12614 -0.552718 0
M  V30 6553 H 612.385 -3.81772 1.11782 0
M  V30 6554 H 609.124 -5.46195 3.62424 0
M  V30 6555 H 608.644 -5.68048 1.92566 0
M  V30 6556 H 610.323 -5.99678 2.42889 0
M  V30 6557 N 610.455 -0.639598 -1.44038 0
M  V30 6558 C 611.704 -0.144885 -2.01179 0
M  V30 6559 C 612.017 1.24372 -1.50967 0
M  V30 6560 O 613.223 1.83291 -2.00292 0
M  V30 6561 C 611.679 -0.208244 -3.59297 0
M  V30 6562 C 611.287 -1.59869 -4.18504 0
M  V30 6563 C 613.031 0.229568 -4.23879 0
M  V30 6564 C 610.938 -1.61671 -5.68873 0
M  V30 6565 H 609.868 -0.0504005 -0.752314 0
M  V30 6566 H 612.519 -0.799639 -1.65161 0
M  V30 6567 H 610.901 0.513767 -3.92653 0
M  V30 6568 H 612.075 -2.34496 -3.96671 0
M  V30 6569 H 610.39 -1.98131 -3.66242 0
M  V30 6570 H 612.987 0.235758 -5.3418 0
M  V30 6571 H 613.33 1.25848 -3.96822 0
M  V30 6572 H 613.863 -0.440233 -3.95357 0
M  V30 6573 H 610.602 -2.62427 -6.00677 0
M  V30 6574 H 610.122 -0.913489 -5.92803 0
M  V30 6575 H 611.801 -1.35439 -6.32665 0
M  V30 6576 N 611.933 1.52934 -0.380664 0
M  V30 6577 C 612.863 2.29118 0.450268 0
M  V30 6578 C 613.844 1.32153 1.07096 0
M  V30 6579 O 615.029 1.61038 1.08537 0
M  V30 6580 C 612.159 3.09161 1.58231 0
M  V30 6581 C 611.113 4.13938 1.0881 0
M  V30 6582 C 610.439 4.82153 2.31155 0
M  V30 6583 C 611.739 5.22048 0.162146 0
M  V30 6584 H 613.433 2.98826 -0.185361 0
M  V30 6585 H 610.979 1.43715 -0.0905886 0
M  V30 6586 H 612.932 3.61211 2.17036 0
M  V30 6587 H 611.656 2.3717 2.2454 0
M  V30 6588 H 610.315 3.62855 0.522633 0
M  V30 6589 H 609.963 4.06719 2.95953 0
M  V30 6590 H 609.663 5.52966 1.98752 0
M  V30 6591 H 611.187 5.37004 2.90618 0
M  V30 6592 H 612.601 5.6951 0.658126 0
M  V30 6593 H 610.998 6.00057 -0.0717122 0
M  V30 6594 H 612.068 4.78398 -0.791438 0
M  V30 6595 N 613.412 0.11024 1.57214 0
M  V30 6596 C 614.36 -0.860586 2.16094 0
M  V30 6597 C 615.354 -1.28156 1.1078 0
M  V30 6598 O 616.56 -1.25433 1.29099 0
M  V30 6599 H 612.935 -0.295606 0.691463 0
M  V30 6600 H 614.906 -0.33942 2.96463 0
M  V30 6601 C 613.655 -2.10421 2.768 0
M  V30 6602 H 612.978 -1.7892 3.5753 0
M  V30 6603 H 614.418 -2.76375 3.21547 0
M  V30 6604 C 612.877 -2.88823 1.73444 0
M  V30 6605 O 613.407 -3.839 1.18251 0
M  V30 6606 N 611.613 -2.52649 1.43586 0
M  V30 6607 H 611.16 -1.754 1.8866 0
M  V30 6608 H 611.118 -3.05403 0.746735 0
M  V30 6609 N 614.89 -1.56749 -0.16351 0
M  V30 6610 C 616.301 -1.72039 -0.725216 0
M  V30 6611 C 616.652 -0.72202 -1.82432 0
M  V30 6612 O 615.777 0.114942 -2.16095 0
M  V30 6613 C 616.372 -3.11932 -1.32227 0
M  V30 6614 C 614.931 -3.28879 -1.83072 0
M  V30 6615 C 614.078 -2.67984 -0.712716 0
M  V30 6616 H 617.029 -1.58579 0.0619772 0
M  V30 6617 H 617.05 -3.11015 -2.19202 0
M  V30 6618 H 616.562 -3.84572 -0.522103 0
M  V30 6619 H 614.663 -2.61209 -2.65708 0
M  V30 6620 H 614.776 -4.36688 -1.97079 0
M  V30 6621 H 613.14 -2.28005 -1.13515 0
M  V30 6622 H 613.923 -3.43216 0.0757361 0
M  V30 6623 N 616.368 0.432326 -1.51554 0
M  V30 6624 C 617.318 1.52366 -1.69614 0
M  V30 6625 C 618.302 1.51205 -0.550083 0
M  V30 6626 O 619.494 1.57573 -0.806206 0
M  V30 6627 C 616.623 2.90513 -1.82913 0
M  V30 6628 C 615.709 2.9641 -3.03318 0
M  V30 6629 N 616.1 2.72043 -4.26411 0
M  V30 6630 C 614.398 3.27572 -3.02675 0
M  V30 6631 C 615.099 2.83912 -5.07709 0
M  V30 6632 N 614.075 3.15798 -4.42462 0
M  V30 6633 H 617.877 1.32285 -2.62446 0
M  V30 6634 H 615.391 0.639708 -1.4927 0
M  V30 6635 H 617.388 3.69032 -1.93962 0
M  V30 6636 H 616.048 3.1161 -0.912655 0
M  V30 6637 H 617.059 2.46876 -4.55272 0
M  V30 6638 H 613.736 3.54411 -2.20678 0
M  V30 6639 H 615.126 2.68984 -6.15709 0
M  V30 6640 N 617.846 1.41785 0.688094 0
M  V30 6641 C 619.092 1.41753 1.4503 0
M  V30 6642 C 619.425 0.0290745 1.94178 0
M  V30 6643 O 618.7 -0.944456 1.7003 0
M  V30 6644 C 618.983 2.43069 2.65686 0
M  V30 6645 C 618.836 3.91053 2.22256 0
M  V30 6646 C 620.155 2.41543 3.67893 0
M  V30 6647 H 617.274 0.516202 0.526027 0
M  V30 6648 H 619.916 1.73111 0.783105 0
M  V30 6649 H 618.066 2.1646 3.2261 0
M  V30 6650 H 619.738 4.28594 1.70602 0
M  V30 6651 H 617.981 4.05559 1.53963 0
M  V30 6652 H 618.652 4.57501 3.08863 0
M  V30 6653 H 621.128 2.65175 3.20658 0
M  V30 6654 H 620.004 3.14434 4.49914 0
M  V30 6655 H 620.265 1.43666 4.18106 0
M  V30 6656 N 619.324 -0.923095 1.27737 0
M  V30 6657 C 620.274 -2.01061 1.0751 0
M  V30 6658 C 621.258 -1.609 0.00165451 0
M  V30 6659 O 622.45 -1.75618 0.220724 0
M  V30 6660 C 619.579 -3.35467 0.729162 0
M  V30 6661 C 618.665 -3.82059 1.84098 0
M  V30 6662 N 619.056 -4.01115 3.08124 0
M  V30 6663 C 617.354 -4.11135 1.7287 0
M  V30 6664 C 618.055 -4.39989 3.80506 0
M  V30 6665 N 617.031 -4.47721 3.08297 0
M  V30 6666 H 620.833 -2.13832 2.01626 0
M  V30 6667 H 618.347 -1.11027 1.18519 0
M  V30 6668 H 620.344 -4.13049 0.565355 0
M  V30 6669 H 619.004 -3.24056 -0.204334 0
M  V30 6670 H 620.015 -3.87294 3.43836 0
M  V30 6671 H 616.692 -4.08412 0.866352 0
M  V30 6672 H 618.082 -4.62773 4.87125 0
M  V30 6673 N 620.802 -1.09834 -1.13024 0
M  V30 6674 C 621.732 -0.763451 -2.20666 0
M  V30 6675 C 622.713 0.260778 -1.68089 0
M  V30 6676 O 623.898 0.127915 -1.93778 0
M  V30 6677 C 621.028 -0.187744 -3.46792 0
M  V30 6678 C 619.982 -1.14196 -4.12484 0
M  V30 6679 C 619.308 -0.427755 -5.32986 0
M  V30 6680 C 620.608 -2.48607 -4.59338 0
M  V30 6681 H 622.302 -1.66347 -2.48936 0
M  V30 6682 H 619.848 -0.801261 -1.19649 0
M  V30 6683 H 621.801 0.0586375 -4.21359 0
M  V30 6684 H 620.525 0.747485 -3.17931 0
M  V30 6685 H 619.184 -1.37369 -3.3989 0
M  V30 6686 H 618.832 0.511747 -5.0039 0
M  V30 6687 H 618.532 -1.06403 -5.77886 0
M  V30 6688 H 620.056 -0.189772 -6.10305 0
M  V30 6689 H 621.47 -2.29618 -5.25308 0
M  V30 6690 H 619.867 -3.08062 -5.14993 0
M  V30 6691 H 620.937 -3.09062 -3.73642 0
M  V30 6692 N 622.28 1.30327 -0.886154 0
M  V30 6693 C 623.526 1.96388 -0.505941 0
M  V30 6694 C 623.859 1.69784 0.942712 0
M  V30 6695 O 623.134 1.00322 1.6663 0
M  V30 6696 C 623.417 3.51488 -0.782826 0
M  V30 6697 C 623.27 3.87603 -2.28219 0
M  V30 6698 C 624.589 4.39331 -0.260128 0
M  V30 6699 H 621.708 0.713327 -0.185292 0
M  V30 6700 H 624.35 1.54178 -1.11036 0
M  V30 6701 H 622.5 3.87572 -0.268399 0
M  V30 6702 H 624.172 3.61537 -2.86512 0
M  V30 6703 H 622.415 3.3563 -2.74837 0
M  V30 6704 H 623.086 4.95806 -2.42653 0
M  V30 6705 H 625.562 4.10162 -0.700444 0
M  V30 6706 H 624.438 5.46769 -0.483179 0
M  V30 6707 H 624.699 4.34072 0.838674 0
M  V30 6708 N 623.758 0.647228 1.43697 0
M  V30 6709 C 625.006 0.157876 2.01482 0
M  V30 6710 C 625.327 -1.23039 1.51282 0
M  V30 6711 O 624.597 -1.82071 0.722982 0
M  V30 6712 H 623.177 0.0553745 0.744945 0
M  V30 6713 H 625.839 0.83755 1.75986 0
M  V30 6714 H 624.935 0.137895 3.11795 0
M  V30 6715 N 625.236 -1.5273 0.388769 0
M  V30 6716 C 626.513 -1.93981 -0.251133 0
M  V30 6717 C 626.893 -1.32418 -1.64404 0
M  V30 6718 O 626.241 -0.492074 -2.23139 0
M  V30 6719 C 626.451 -3.47891 -0.27802 0
M  V30 6720 C 627.799 -4.21559 -0.507229 0
M  V30 6721 O 628.823 -3.54394 -0.358252 0
M  V30 6722 O 627.682 -5.40626 -0.799094 0
M  V30 6723 H 624.776 -0.812157 -0.15598 0
M  V30 6724 H 627.322 -1.63809 0.443237 0
M  V30 6725 H 626.094 -3.8503 0.697669 0
M  V30 6726 H 625.717 -3.84364 -1.01733 0
M  V30 6727 N 626.714 -0.118576 -1.57153 0
M  V30 6728 C 627.991 0.583062 -1.86708 0
M  V30 6729 C 628.371 1.84841 -1.01967 0
M  V30 6730 O 627.719 2.28288 -0.0984673 0
M  V30 6731 C 627.929 0.875912 -3.3783 0
M  V30 6732 C 629.277 1.22916 -4.0642 0
M  V30 6733 O 630.301 0.966188 -3.42846 0
M  V30 6734 O 629.16 1.72269 -5.18638 0
M  V30 6735 H 626.254 0.294185 -0.772906 0
M  V30 6736 H 628.8 -0.153048 -1.69008 0
M  V30 6737 H 627.572 -0.0207776 -3.91294 0
M  V30 6738 H 627.195 1.66719 -3.60958 0
M  V30 6739 N 628.193 1.56834 0.155195 0
M  V30 6740 C 629.156 1.96748 1.17571 0
M  V30 6741 C 630.156 0.853006 1.3631 0
M  V30 6742 O 631.346 1.11978 1.33441 0
M  V30 6743 C 628.478 2.27631 2.53765 0
M  V30 6744 H 629.671 2.88085 0.833498 0
M  V30 6745 H 627.224 1.51141 0.398242 0
M  V30 6746 H 627.959 1.39059 2.92973 0
M  V30 6747 H 627.744 3.0888 2.41527 0
M  V30 6748 H 629.234 2.59377 3.27282 0
M  V30 6749 N 629.671 -0.424282 1.51781 0
M  V30 6750 C 630.634 -1.49848 1.73431 0
M  V30 6751 C 631.634 -1.49016 0.604225 0
M  V30 6752 O 632.824 -1.50808 0.871935 0
M  V30 6753 C 629.956 -2.89332 1.80277 0
M  V30 6754 H 631.149 -1.3195 2.69312 0
M  V30 6755 H 628.702 -0.653809 1.41968 0
M  V30 6756 H 629.437 -3.12618 0.862568 0
M  V30 6757 H 629.222 -2.9134 2.62419 0
M  V30 6758 H 630.712 -3.67233 1.98821 0
M  V30 6759 N 631.149 -1.42148 -0.680565 0
M  V30 6760 C 632.389 -1.4379 -1.45271 0
M  V30 6761 C 632.753 -0.0504426 -1.91934 0
M  V30 6762 O 633.954 0.0583916 -2.68737 0
M  V30 6763 C 632.225 -2.42904 -2.62168 0
M  V30 6764 S 633.784 -2.63201 -3.51099 0
M  V30 6765 H 630.602 -0.509185 -0.496237 0
M  V30 6766 H 633.204 -1.78706 -0.792744 0
M  V30 6767 H 631.908 -3.4249 -2.26116 0
M  V30 6768 H 631.439 -2.09394 -3.33043 0
M  V30 6769 H 633.454 -1.91068 -4.57938 0
M  V30 6770 N 632.627 0.916307 -1.28225 0
M  V30 6771 C 633.876 1.65975 -1.14608 0
M  V30 6772 C 634.189 1.93204 0.305191 0
M  V30 6773 O 635.395 2.65611 0.562432 0
M  V30 6774 C 633.851 2.98989 -2.00333 0
M  V30 6775 C 633.459 2.79417 -3.50186 0
M  V30 6776 C 635.203 3.76856 -1.95397 0
M  V30 6777 C 633.11 4.08056 -4.28071 0
M  V30 6778 H 632.04 0.622587 -0.425324 0
M  V30 6779 H 634.691 1.01705 -1.52736 0
M  V30 6780 H 633.073 3.6438 -1.5506 0
M  V30 6781 H 634.247 2.22723 -4.034 0
M  V30 6782 H 632.562 2.14966 -3.56621 0
M  V30 6783 H 635.159 4.72203 -2.50856 0
M  V30 6784 H 635.502 4.05776 -0.930137 0
M  V30 6785 H 636.035 3.1828 -2.38626 0
M  V30 6786 H 632.774 3.8431 -5.31024 0
M  V30 6787 H 632.294 4.64371 -3.79631 0
M  V30 6788 H 633.973 4.76333 -4.37854 0
M  V30 6789 N 634.105 1.10431 1.1244 0
M  V30 6790 C 635.068 0.756542 2.16354 0
M  V30 6791 C 636.068 -0.21899 1.59302 0
M  V30 6792 O 637.258 0.00415969 1.742 0
M  V30 6793 C 634.39 0.120612 3.40687 0
M  V30 6794 H 635.583 1.67696 2.48632 0
M  V30 6795 H 633.136 0.904832 1.27446 0
M  V30 6796 H 633.871 -0.810536 3.14008 0
M  V30 6797 H 633.656 0.822693 3.83372 0
M  V30 6798 H 635.146 -0.106945 4.17463 0
M  V30 6799 N 635.583 -1.29855 0.893053 0
M  V30 6800 C 636.813 -1.99686 0.530019 0
M  V30 6801 C 637.221 -1.67066 -0.888012 0
M  V30 6802 O 636.564 -0.908366 -1.5967 0
M  V30 6803 C 636.626 -3.53855 0.63457 0
M  V30 6804 C 636.29 -4.10013 2.01837 0
M  V30 6805 C 637.287 -4.25406 2.98874 0
M  V30 6806 C 634.972 -4.45202 2.32595 0
M  V30 6807 C 636.966 -4.7521 4.24799 0
M  V30 6808 C 634.653 -4.94704 3.58763 0
M  V30 6809 C 635.651 -5.09662 4.5468 0
M  V30 6810 O 635.339 -5.58093 5.78608 0
M  V30 6811 H 635.071 -0.644913 0.20264 0
M  V30 6812 H 637.625 -1.66518 1.20253 0
M  V30 6813 H 635.855 -3.86583 -0.0949477 0
M  V30 6814 H 637.544 -4.04922 0.281648 0
M  V30 6815 H 638.31 -3.98515 2.76425 0
M  V30 6816 H 634.189 -4.32822 1.58701 0
M  V30 6817 H 637.733 -4.86801 4.99671 0
M  V30 6818 H 633.63 -5.21032 3.81046 0
M  V30 6819 H 634.398 -5.7642 5.81104 0
M  V30 6820 N 637.061 -0.65484 -1.43351 0
M  V30 6821 C 638.31 -0.166215 -2.01014 0
M  V30 6822 C 638.623 1.22764 -1.52278 0
M  V30 6823 O 639.829 1.81156 -2.02224 0
M  V30 6824 C 638.285 -0.246341 -3.59056 0
M  V30 6825 C 637.893 -1.64299 -4.16785 0
M  V30 6826 C 639.637 0.184597 -4.24098 0
M  V30 6827 C 637.544 -1.67695 -5.67126 0
M  V30 6828 H 636.474 -0.0583769 -0.751737 0
M  V30 6829 H 639.125 -0.817111 -1.64303 0
M  V30 6830 H 637.507 0.472092 -3.93176 0
M  V30 6831 H 638.681 -2.3869 -3.94162 0
M  V30 6832 H 636.996 -2.02004 -3.6412 0
M  V30 6833 H 639.593 0.179088 -5.344 0
M  V30 6834 H 639.936 1.21632 -3.98135 0
M  V30 6835 H 640.469 -0.482141 -3.94867 0
M  V30 6836 H 637.208 -2.68783 -5.9786 0
M  V30 6837 H 636.728 -0.976313 -5.91801 0
M  V30 6838 H 638.407 -1.42142 -6.31193 0
M  V30 6839 N 638.539 1.52521 -0.396863 0
M  V30 6840 C 639.955 1.5953 -0.0471659 0
M  V30 6841 C 640.155 1.41044 1.43906 0
M  V30 6842 O 639.211 1.23122 2.20448 0
M  V30 6843 C 640.524 2.95972 -0.531113 0
M  V30 6844 C 642.072 3.09172 -0.488024 0
M  V30 6845 C 642.547 4.48075 -0.948281 0
M  V30 6846 N 644.038 4.54281 -0.9046 0
M  V30 6847 C 644.773 5.60007 -1.23205 0
M  V30 6848 N 644.269 6.73343 -1.63036 0
M  V30 6849 N 646.062 5.50151 -1.15282 0
M  V30 6850 H 638.213 1.62786 -1.36435 0
M  V30 6851 H 640.476 0.76514 -0.559701 0
M  V30 6852 H 640.182 3.14741 -1.56942 0
M  V30 6853 H 640.056 3.77143 0.0657922 0
M  V30 6854 H 642.443 2.90095 0.541211 0
M  V30 6855 H 642.524 2.29937 -1.12083 0
M  V30 6856 H 642.168 4.67894 -1.97578 0
M  V30 6857 H 642.098 5.25788 -0.292412 0
M  V30 6858 H 644.589 3.72918 -0.6116 0
M  V30 6859 H 644.902 7.49992 -1.86365 0
M  V30 6860 H 643.247 6.74655 -1.66929 0
M  V30 6861 H 646.438 4.6049 -0.840602 0
M  V30 6862 H 646.611 6.32444 -1.41133 0
M  V30 6863 N 640.017 0.126909 1.57088 0
M  V30 6864 C 640.947 -0.816847 2.18746 0
M  V30 6865 C 641.928 -1.27161 1.12979 0
M  V30 6866 O 643.113 -1.33279 1.41246 0
M  V30 6867 C 640.243 -2.06398 2.79315 0
M  V30 6868 C 639.197 -1.74673 3.90735 0
M  V30 6869 C 638.523 -3.06482 4.38147 0
M  V30 6870 C 639.823 -1.0089 5.12463 0
M  V30 6871 H 641.517 -0.303032 2.97863 0
M  V30 6872 H 639.063 -0.144314 1.43275 0
M  V30 6873 H 641.016 -2.72885 3.2111 0
M  V30 6874 H 639.74 -2.60118 1.975 0
M  V30 6875 H 638.399 -1.10572 3.49527 0
M  V30 6876 H 638.047 -3.58152 3.5318 0
M  V30 6877 H 637.747 -2.86025 5.13287 0
M  V30 6878 H 639.271 -3.74073 4.82599 0
M  V30 6879 H 640.685 -1.57546 5.51228 0
M  V30 6880 H 639.082 -0.905006 5.93237 0
M  V30 6881 H 640.152 0.00297335 4.849 0
M  V30 6882 N 641.495 -1.56914 -0.146875 0
M  V30 6883 C 642.723 -1.87515 -0.874394 0
M  V30 6884 C 643.138 -0.715116 -1.74733 0
M  V30 6885 O 642.495 0.315113 -1.79759 0
M  V30 6886 C 642.546 -3.17362 -1.731 0
M  V30 6887 O 642.267 -4.28897 -0.893245 0
M  V30 6888 C 643.768 -3.61479 -2.56609 0
M  V30 6889 H 640.988 -0.621546 -0.252827 0
M  V30 6890 H 643.532 -2.04023 -0.139627 0
M  V30 6891 H 641.687 -3.02608 -2.41883 0
M  V30 6892 H 642.101 -5.03146 -1.48137 0
M  V30 6893 H 643.575 -4.5517 -3.12289 0
M  V30 6894 H 644.052 -2.86773 -3.32653 0
M  V30 6895 H 644.658 -3.78927 -1.93117 0
M  V30 6896 N 642.974 0.416227 -1.52004 0
M  V30 6897 C 643.906 1.52552 -1.71058 0
M  V30 6898 C 644.919 1.51693 -0.59102 0
M  V30 6899 O 646.108 1.56087 -0.865973 0
M  V30 6900 C 643.208 2.91455 -1.72937 0
M  V30 6901 C 642.381 3.16584 -3.01816 0
M  V30 6902 C 641.44 4.35322 -2.95603 0
M  V30 6903 O 640.466 4.32947 -3.6952 0
M  V30 6904 N 641.668 5.40049 -2.12903 0
M  V30 6905 H 644.433 1.36604 -2.66757 0
M  V30 6906 H 641.994 0.60544 -1.50153 0
M  V30 6907 H 643.986 3.68944 -1.66321 0
M  V30 6908 H 642.556 3.00895 -0.847418 0
M  V30 6909 H 641.776 2.27203 -3.22137 0
M  V30 6910 H 643.064 3.30213 -3.87088 0
M  V30 6911 H 642.462 5.44823 -1.52265 0
M  V30 6912 H 641.019 6.16308 -2.1215 0
M  V30 6913 N 644.452 1.42507 0.673017 0
M  V30 6914 C 645.682 1.46261 1.45916 0
M  V30 6915 C 646.09 0.0729724 1.89059 0
M  V30 6916 O 645.433 -0.922987 1.58829 0
M  V30 6917 C 645.495 2.32853 2.73898 0
M  V30 6918 C 645.159 3.80699 2.52819 0
M  V30 6919 C 646.156 4.72307 2.17306 0
M  V30 6920 C 643.841 4.24983 2.67758 0
M  V30 6921 C 645.835 6.06192 1.97003 0
M  V30 6922 C 643.522 5.58927 2.4707 0
M  V30 6923 C 644.52 6.49348 2.11746 0
M  V30 6924 O 644.208 7.80817 1.91259 0
M  V30 6925 H 643.94 0.499561 0.455428 0
M  V30 6926 H 646.494 1.87697 0.834196 0
M  V30 6927 H 644.724 1.86268 3.38882 0
M  V30 6928 H 646.413 2.28041 3.35786 0
M  V30 6929 H 647.179 4.39378 2.05359 0
M  V30 6930 H 643.058 3.54893 2.94231 0
M  V30 6931 H 646.602 6.76731 1.69355 0
M  V30 6932 H 642.499 5.91429 2.58615 0
M  V30 6933 H 643.267 7.92194 2.05843 0
M  V30 6934 N 645.93 -0.909495 1.28709 0
M  V30 6935 C 646.863 -2.01388 1.07323 0
M  V30 6936 C 647.841 -1.62596 -0.0119757 0
M  V30 6937 O 649.025 -1.88003 0.136796 0
M  V30 6938 C 646.152 -3.32755 0.631797 0
M  V30 6939 C 645.198 -3.90532 1.71428 0
M  V30 6940 S 646.031 -4.20853 3.31124 0
M  V30 6941 C 647.187 -5.55276 2.88825 0
M  V30 6942 H 647.42 -2.19219 2.00824 0
M  V30 6943 H 644.953 -1.05489 1.12745 0
M  V30 6944 H 646.911 -4.08702 0.38381 0
M  V30 6945 H 645.572 -3.12818 -0.283451 0
M  V30 6946 H 644.765 -4.85385 1.35712 0
M  V30 6947 H 644.367 -3.21237 1.91528 0
M  V30 6948 H 646.659 -6.35341 2.3526 0
M  V30 6949 H 647.602 -5.95907 3.82492 0
M  V30 6950 H 648.01 -5.16666 2.27412 0
M  V30 6951 N 647.408 -1.11026 -1.11852 0
M  V30 6952 C 648.685 -0.768347 -1.79877 0
M  V30 6953 C 649.065 0.744261 -1.97545 0
M  V30 6954 O 648.413 1.67271 -1.55669 0
M  V30 6955 C 648.623 -1.52648 -3.13846 0
M  V30 6956 C 649.971 -1.70297 -3.88953 0
M  V30 6957 O 650.995 -1.49037 -3.23522 0
M  V30 6958 O 649.854 -2.05593 -5.06353 0
M  V30 6959 H 646.948 -0.277891 -0.778913 0
M  V30 6960 H 649.494 -1.21343 -1.18633 0
M  V30 6961 H 648.266 -2.55564 -2.96315 0
M  V30 6962 H 647.889 -1.07466 -3.82801 0
M  V30 6963 N 648.886 1.2938 -0.899927 0
M  V30 6964 C 650.134 1.95164 -0.524924 0
M  V30 6965 C 650.455 1.71292 0.931888 0
M  V30 6966 O 649.725 1.04481 1.65712 0
M  V30 6967 H 648.305 0.722133 -0.191135 0
M  V30 6968 H 650.967 1.57628 -1.14627 0
M  V30 6969 H 650.063 3.0397 -0.707711 0
M  V30 6970 N 650.364 0.662433 1.43002 0
M  V30 6971 C 651.589 0.186003 2.06564 0
M  V30 6972 C 652.014 -1.14314 1.49379 0
M  V30 6973 O 651.372 -1.70824 0.607346 0
M  V30 6974 C 651.42 0.118269 3.60406 0
M  V30 6975 O 650.524 -0.916859 4.02079 0
M  V30 6976 H 649.865 0.0990981 0.656563 0
M  V30 6977 H 652.395 0.907958 1.8335 0
M  V30 6978 H 652.405 -0.0619981 4.07953 0
M  V30 6979 H 651.08 1.08849 4.01403 0
M  V30 6980 H 649.657 -0.708635 3.66105 0
M  V30 6981 N 651.842 -1.52309 0.404946 0
M  V30 6982 C 653.09 -2.01368 -0.17186 0
M  V30 6983 C 653.411 -1.29261 -1.46002 0
M  V30 6984 O 652.681 -0.41729 -1.91404 0
M  V30 6985 H 651.261 -0.744034 -0.0664993 0
M  V30 6986 H 653.923 -1.87263 0.540228 0
M  V30 6987 H 653.019 -3.09888 -0.370957 0
M  V30 6988 N 653.32 -0.135238 -1.57019 0
M  V30 6989 C 654.253 0.846618 -2.11914 0
M  V30 6990 C 655.231 1.25019 -1.03966 0
M  V30 6991 O 656.415 1.34838 -1.31723 0
M  V30 6992 C 653.542 2.1352 -2.6292 0
M  V30 6993 C 652.588 1.87846 -3.82905 0
M  V30 6994 S 653.421 1.08005 -5.24495 0
M  V30 6995 C 654.577 2.38008 -5.78881 0
M  V30 6996 H 654.81 0.379752 -2.94865 0
M  V30 6997 H 652.343 0.0788387 -1.54199 0
M  V30 6998 H 654.301 2.87551 -2.92958 0
M  V30 6999 H 652.962 2.57323 -1.80121 0
M  V30 7000 H 652.155 2.83365 -4.16797 0
M  V30 7001 H 651.757 1.21929 -3.53567 0
M  V30 7002 H 654.049 3.33742 -5.89595 0
M  V30 7003 H 654.992 2.08638 -6.76665 0
M  V30 7004 H 655.4 2.48119 -5.07048 0
M  V30 7005 N 654.798 1.5699 0.138552 0
M  V30 7006 C 656.209 1.73171 0.697754 0
M  V30 7007 C 656.56 0.750952 1.8126 0
M  V30 7008 O 655.685 -0.080549 2.1625 0
M  V30 7009 C 656.28 3.13996 1.27248 0
M  V30 7010 C 654.839 3.3175 1.77816 0
M  V30 7011 C 653.986 2.69084 0.669991 0
M  V30 7012 H 656.937 1.5846 -0.0871979 0
M  V30 7013 H 656.958 3.14463 2.14227 0
M  V30 7014 H 656.47 3.85354 0.460855 0
M  V30 7015 H 654.571 2.65403 2.61519 0
M  V30 7016 H 654.684 4.39768 1.90107 0
M  V30 7017 H 653.048 2.29782 1.09874 0
M  V30 7018 H 653.831 3.43053 -0.130329 0
M  V30 7019 N 656.276 -0.40816 1.52223 0
M  V30 7020 C 657.223 -1.49737 1.75635 0
M  V30 7021 C 658.193 -1.5493 0.598824 0
M  V30 7022 O 659.378 -1.71487 0.83648 0
M  V30 7023 C 656.518 -2.87174 1.91376 0
M  V30 7024 C 655.631 -2.91283 3.19027 0
M  V30 7025 C 654.766 -4.20026 3.25195 0
M  V30 7026 C 653.805 -4.18113 4.47044 0
M  V30 7027 N 652.942 -5.38429 4.50598 0
M  V30 7028 H 657.782 -1.29075 2.68596 0
M  V30 7029 H 655.319 -0.626518 1.33091 0
M  V30 7030 H 657.277 -3.66959 1.98486 0
M  V30 7031 H 655.907 -3.06329 1.01795 0
M  V30 7032 H 654.959 -2.03984 3.21084 0
M  V30 7033 H 656.271 -2.85734 4.08849 0
M  V30 7034 H 655.425 -5.08204 3.31382 0
M  V30 7035 H 654.164 -4.28271 2.33313 0
M  V30 7036 H 653.169 -3.28325 4.41002 0
M  V30 7037 H 654.394 -4.11507 5.40221 0
M  V30 7038 H 652.34 -5.4734 3.616 0
M  V30 7039 H 652.257 -5.34879 5.34266 0
M  V30 7040 H 653.525 -6.28557 4.61016 0
M  V30 7041 N 657.755 -1.42862 -0.66545 0
M  V30 7042 C 658.983 -1.47246 -1.45349 0
M  V30 7043 C 659.398 -0.0865944 -1.88601 0
M  V30 7044 O 658.755 0.900652 -1.58728 0
M  V30 7045 C 658.806 -2.40772 -2.6965 0
M  V30 7046 O 658.527 -3.73968 -2.2821 0
M  V30 7047 C 660.028 -2.54272 -3.63126 0
M  V30 7048 H 657.248 -0.500497 -0.446927 0
M  V30 7049 H 659.792 -1.87477 -0.816871 0
M  V30 7050 H 657.947 -2.0377 -3.29479 0
M  V30 7051 H 658.361 -4.24146 -3.08546 0
M  V30 7052 H 659.835 -3.23815 -4.47043 0
M  V30 7053 H 660.312 -1.58364 -4.09656 0
M  V30 7054 H 660.918 -2.92036 -3.09185 0
M  V30 7055 N 659.233 0.902656 -1.29189 0
M  V30 7056 C 660.166 2.00816 -1.0839 0
M  V30 7057 C 661.144 1.626 0.00335266 0
M  V30 7058 O 662.328 1.87928 -0.146765 0
M  V30 7059 C 659.455 3.32415 -0.649435 0
M  V30 7060 C 658.501 3.89617 -1.73496 0
M  V30 7061 S 659.334 4.19091 -3.33351 0
M  V30 7062 C 660.49 5.53736 -2.91766 0
M  V30 7063 H 660.723 2.18151 -2.01984 0
M  V30 7064 H 658.256 1.0489 -1.13303 0
M  V30 7065 H 660.214 4.08492 -0.405479 0
M  V30 7066 H 658.875 3.12964 0.266857 0
M  V30 7067 H 658.068 4.84658 -1.38284 0
M  V30 7068 H 657.67 3.20217 -1.93229 0
M  V30 7069 H 659.962 6.34085 -2.38627 0
M  V30 7070 H 660.905 5.93871 -3.85647 0
M  V30 7071 H 661.313 5.15453 -2.30149 0
M  V30 7072 N 660.711 1.11618 1.11262 0
M  V30 7073 C 661.643 0.734015 2.17129 0
M  V30 7074 C 662.656 -0.235243 1.61091 0
M  V30 7075 O 663.845 -0.0178597 1.78491 0
M  V30 7076 C 660.945 0.0643682 3.38839 0
M  V30 7077 C 660.118 1.06092 4.24339 0
M  V30 7078 C 659.177 0.420482 5.24517 0
M  V30 7079 O 658.203 1.07495 5.58957 0
M  V30 7080 N 659.405 -0.815828 5.74739 0
M  V30 7081 H 662.17 1.64492 2.50524 0
M  V30 7082 H 659.731 1.00664 1.26801 0
M  V30 7083 H 661.723 -0.375851 4.02951 0
M  V30 7084 H 660.293 -0.749147 3.03491 0
M  V30 7085 H 659.513 1.67903 3.56654 0
M  V30 7086 H 660.801 1.73507 4.78302 0
M  V30 7087 H 660.199 -1.36668 5.48943 0
M  V30 7088 H 658.756 -1.199 6.40677 0
M  V30 7089 N 662.189 -1.289 0.906776 0
M  V30 7090 C 663.414 -1.99939 0.551303 0
M  V30 7091 C 663.839 -1.67366 -0.858496 0
M  V30 7092 O 663.197 -0.902176 -1.57259 0
M  V30 7093 C 663.245 -3.52523 0.758937 0
M  V30 7094 O 662.349 -4.11983 -0.185308 0
M  V30 7095 H 661.69 -0.628376 0.214568 0
M  V30 7096 H 664.22 -1.64225 1.2203 0
M  V30 7097 H 664.23 -4.02522 0.666329 0
M  V30 7098 H 662.905 -3.75566 1.78671 0
M  V30 7099 H 661.482 -3.72873 -0.0445577 0
M  V30 7100 N 663.667 -0.670007 -1.42649 0
M  V30 7101 C 664.577 0.0114788 -2.34597 0
M  V30 7102 C 665.593 0.794055 -1.54825 0
M  V30 7103 O 666.769 0.737472 -1.87412 0
M  V30 7104 C 663.834 0.954436 -3.33304 0
M  V30 7105 C 662.895 0.166925 -4.28975 0
M  V30 7106 C 662.128 1.06497 -5.22967 0
M  V30 7107 O 662.351 2.30446 -5.21777 0
M  V30 7108 O 661.285 0.528347 -5.99577 0
M  V30 7109 H 665.111 -0.745794 -2.944 0
M  V30 7110 H 662.696 -0.430228 -1.43071 0
M  V30 7111 H 664.578 1.49589 -3.93956 0
M  V30 7112 H 663.253 1.69164 -2.7598 0
M  V30 7113 H 662.16 -0.418515 -3.71752 0
M  V30 7114 H 663.493 -0.531067 -4.89327 0
M  V30 7115 N 665.145 1.52092 -0.413018 0
M  V30 7116 C 666.055 2.30858 0.417318 0
M  V30 7117 C 667.071 1.38746 1.05003 0
M  V30 7118 O 668.247 1.71821 1.05069 0
M  V30 7119 C 665.312 3.11756 1.51687 0
M  V30 7120 C 664.373 4.19613 0.906825 0
M  V30 7121 C 663.606 4.96644 1.95399 0
M  V30 7122 O 663.829 4.7402 3.17271 0
M  V30 7123 O 662.763 5.81385 1.55805 0
M  V30 7124 H 666.589 3.02865 -0.225028 0
M  V30 7125 H 664.174 1.48358 -0.176126 0
M  V30 7126 H 666.056 3.62122 2.15512 0
M  V30 7127 H 664.731 2.42539 2.14375 0
M  V30 7128 H 663.638 3.73385 0.231183 0
M  V30 7129 H 664.971 4.91134 0.323814 0
M  V30 7130 N 666.623 0.143563 1.56945 0
M  V30 7131 C 667.851 -0.515447 2.00377 0
M  V30 7132 C 668.266 -1.58643 1.02361 0
M  V30 7133 O 667.623 -1.82489 0.0201039 0
M  V30 7134 C 667.674 -1.11923 3.43737 0
M  V30 7135 O 667.395 -0.0910318 4.38005 0
M  V30 7136 C 668.896 -1.85918 4.02429 0
M  V30 7137 H 666.116 -0.134478 0.657386 0
M  V30 7138 H 668.66 0.237135 2.0312 0
M  V30 7139 H 666.815 -1.82245 3.41856 0
M  V30 7140 H 667.229 -0.532916 5.21786 0
M  V30 7141 H 668.703 -2.2346 5.04747 0
M  V30 7142 H 669.18 -2.7438 3.42947 0
M  V30 7143 H 669.786 -1.20303 4.07931 0
M  V30 7144 N 668.101 -1.57061 -0.130224 0
M  V30 7145 C 669.517 -1.52103 -0.483413 0
M  V30 7146 C 669.717 -0.854752 -1.82473 0
M  V30 7147 O 668.773 -0.432342 -2.48771 0
M  V30 7148 C 670.086 -2.96872 -0.47825 0
M  V30 7149 C 671.634 -3.07902 -0.562592 0
M  V30 7150 C 672.109 -4.54211 -0.587929 0
M  V30 7151 N 673.6 -4.58621 -0.649684 0
M  V30 7152 C 674.335 -5.69227 -0.690551 0
M  V30 7153 N 673.831 -6.89358 -0.689743 0
M  V30 7154 N 675.624 -5.57304 -0.732708 0
M  V30 7155 H 667.775 -1.98764 0.748779 0
M  V30 7156 H 670.038 -0.907248 0.274965 0
M  V30 7157 H 669.744 -3.48944 0.439444 0
M  V30 7158 H 669.618 -3.53716 -1.31013 0
M  V30 7159 H 672.005 -2.5584 -1.47071 0
M  V30 7160 H 672.086 -2.54073 0.296764 0
M  V30 7161 H 671.73 -5.06915 0.316096 0
M  V30 7162 H 671.66 -5.0584 -1.46401 0
M  V30 7163 H 674.151 -3.72146 -0.656927 0
M  V30 7164 H 674.464 -7.69408 -0.723239 0
M  V30 7165 H 672.809 -6.91884 -0.657347 0
M  V30 7166 H 676 -4.62363 -0.730625 0
M  V30 7167 H 676.173 -6.43515 -0.76109 0
M  V30 7168 N 669.579 0.400081 -1.52437 0
M  V30 7169 C 670.825 1.14788 -1.67187 0
M  V30 7170 C 671.158 1.89928 -0.405074 0
M  V30 7171 O 670.433 1.85118 0.596804 0
M  V30 7172 C 670.716 2.13507 -2.89977 0
M  V30 7173 C 670.569 1.42204 -4.2673 0
M  V30 7174 C 671.888 3.14069 -3.083 0
M  V30 7175 H 669.007 0.415939 -0.608411 0
M  V30 7176 H 671.649 0.432542 -1.85011 0
M  V30 7177 H 669.799 2.7451 -2.74912 0
M  V30 7178 H 671.471 0.842503 -4.53541 0
M  V30 7179 H 669.714 0.723939 -4.27717 0
M  V30 7180 H 670.385 2.14281 -5.08712 0
M  V30 7181 H 672.861 2.63148 -3.22323 0
M  V30 7182 H 671.737 3.80398 -3.95713 0
M  V30 7183 H 671.998 3.82309 -2.22018 0
M  V30 7184 N 671.057 1.43213 0.657864 0
M  V30 7185 C 672.303 1.45795 1.41829 0
M  V30 7186 C 672.658 0.0792176 1.92237 0
M  V30 7187 O 671.951 -0.901406 1.69072 0
M  V30 7188 C 672.145 2.43143 2.61947 0
M  V30 7189 C 671.974 3.90345 2.23295 0
M  V30 7190 C 670.744 4.58749 2.11843 0
M  V30 7191 C 672.942 4.80308 1.83873 0
M  V30 7192 N 670.924 5.90898 1.66473 0
M  V30 7193 C 672.295 6.01693 1.49549 0
M  V30 7194 C 674.35 4.67609 1.71015 0
M  V30 7195 C 673.053 7.11792 1.03657 0
M  V30 7196 C 675.079 5.77707 1.26527 0
M  V30 7197 C 674.441 6.98215 0.931379 0
M  V30 7198 H 670.54 0.588628 0.514822 0
M  V30 7199 H 673.124 1.7936 0.7575 0
M  V30 7200 H 671.295 2.11612 3.25692 0
M  V30 7201 H 673.027 2.36193 3.28626 0
M  V30 7202 H 669.782 4.1319 2.31453 0
M  V30 7203 H 670.206 6.61034 1.46163 0
M  V30 7204 H 674.848 3.74902 1.95469 0
M  V30 7205 H 672.566 8.04332 0.779502 0
M  V30 7206 H 676.152 5.69899 1.17074 0
M  V30 7207 H 675.032 7.81959 0.592379 0
M  V30 7208 N 672.536 -0.895792 1.29666 0
M  V30 7209 C 673.486 -1.98736 1.1175 0
M  V30 7210 C 674.47 -1.6086 0.0357834 0
M  V30 7211 O 675.662 -1.75111 0.257926 0
M  V30 7212 C 672.791 -3.33845 0.800156 0
M  V30 7213 C 671.877 -3.78068 1.9216 0
M  V30 7214 N 672.268 -3.94489 3.16563 0
M  V30 7215 C 670.566 -4.07376 1.81552 0
M  V30 7216 C 671.267 -4.31819 3.89753 0
M  V30 7217 N 670.243 -4.41081 3.17724 0
M  V30 7218 H 674.045 -2.09507 2.06117 0
M  V30 7219 H 671.559 -1.08488 1.20848 0
M  V30 7220 H 673.556 -4.11757 0.652841 0
M  V30 7221 H 672.216 -3.24417 -0.135551 0
M  V30 7222 H 673.227 -3.79914 3.51974 0
M  V30 7223 H 669.904 -4.06483 0.952787 0
M  V30 7224 H 671.294 -4.52337 4.96831 0
M  V30 7225 N 674.014 -1.12206 -1.10668 0
M  V30 7226 C 675.43 -0.857619 -1.346 0
M  V30 7227 C 675.63 0.513542 -1.94846 0
M  V30 7228 O 674.686 1.26273 -2.18658 0
M  V30 7229 C 675.999 -1.97212 -2.26998 0
M  V30 7230 C 677.547 -2.00272 -2.40542 0
M  V30 7231 C 678.022 -3.10948 -3.36267 0
M  V30 7232 N 679.513 -3.10375 -3.43834 0
M  V30 7233 C 680.248 -3.92651 -4.17867 0
M  V30 7234 N 679.744 -4.84911 -4.94807 0
M  V30 7235 N 681.537 -3.80798 -4.1346 0
M  V30 7236 H 673.688 -2.00558 -0.699306 0
M  V30 7237 H 675.951 -0.872612 -0.370477 0
M  V30 7238 H 675.657 -2.96002 -1.89936 0
M  V30 7239 H 675.531 -1.87521 -3.27286 0
M  V30 7240 H 677.918 -1.02103 -2.76874 0
M  V30 7241 H 677.999 -2.14037 -1.40077 0
M  V30 7242 H 677.643 -4.09348 -3.00661 0
M  V30 7243 H 677.573 -2.94421 -4.36605 0
M  V30 7244 H 680.064 -2.43536 -2.88961 0
M  V30 7245 H 680.377 -5.44207 -5.48688 0
M  V30 7246 H 678.722 -4.88926 -4.93939 0
M  V30 7247 H 681.913 -3.08058 -3.52445 0
M  V30 7248 H 682.086 -4.4515 -4.70898 0
M  V30 7249 N 675.492 1.28418 -0.913599 0
M  V30 7250 C 676.908 1.47411 -0.611728 0
M  V30 7251 C 677.108 1.83018 0.843008 0
M  V30 7252 O 676.164 1.93505 1.6221 0
M  V30 7253 C 677.477 2.57703 -1.5495 0
M  V30 7254 C 679.025 2.71572 -1.5562 0
M  V30 7255 C 679.5 3.85008 -2.48058 0
M  V30 7256 N 680.991 3.92361 -2.46184 0
M  V30 7257 C 681.726 4.79516 -3.14407 0
M  V30 7258 N 681.222 5.71262 -3.91958 0
M  V30 7259 N 683.015 4.73125 -3.03495 0
M  V30 7260 H 675.166 1.03585 -1.85429 0
M  V30 7261 H 677.429 0.515907 -0.795326 0
M  V30 7262 H 677.135 2.38298 -2.58663 0
M  V30 7263 H 677.009 3.54801 -1.28048 0
M  V30 7264 H 679.396 2.90366 -0.526441 0
M  V30 7265 H 679.477 1.75006 -1.86565 0
M  V30 7266 H 679.121 3.66969 -3.51136 0
M  V30 7267 H 679.051 4.80971 -2.14416 0
M  V30 7268 H 681.542 3.26749 -1.89851 0
M  V30 7269 H 681.855 6.34593 -4.41034 0
M  V30 7270 H 680.2 5.71103 -3.96063 0
M  V30 7271 H 683.391 4.00442 -2.42413 0
M  V30 7272 H 683.564 5.40834 -3.56935 0
M  V30 7273 N 676.97 0.677563 1.42291 0
M  V30 7274 C 678.247 0.129803 1.95169 0
M  V30 7275 C 678.627 -1.35605 1.61786 0
M  V30 7276 O 677.975 -2.09361 0.915444 0
M  V30 7277 C 678.185 0.401889 3.46678 0
M  V30 7278 C 679.533 0.319889 4.23393 0
M  V30 7279 O 680.557 0.33579 3.54614 0
M  V30 7280 O 679.416 0.264459 5.4586 0
M  V30 7281 H 676.51 0.00447433 0.826988 0
M  V30 7282 H 679.056 0.752483 1.52105 0
M  V30 7283 H 677.828 1.43108 3.64192 0
M  V30 7284 H 677.451 -0.252662 3.96796 0
M  V30 7285 N 678.448 -1.51871 0.421078 0
M  V30 7286 C 679.696 -2.01539 -0.150492 0
M  V30 7287 C 680.017 -1.30803 -1.44623 0
M  V30 7288 O 679.287 -0.437568 -1.90951 0
M  V30 7289 H 677.867 -0.744698 -0.0586041 0
M  V30 7290 H 680.529 -1.8668 0.560059 0
M  V30 7291 H 679.625 -3.10264 -0.338068 0
M  V30 7292 N 679.926 -0.151884 -1.56866 0
M  V30 7293 C 680.873 0.785936 -2.17006 0
M  V30 7294 C 681.843 1.2407 -1.10435 0
M  V30 7295 O 683.028 1.31235 -1.38499 0
M  V30 7296 C 680.168 2.01771 -2.79969 0
M  V30 7297 C 679.281 1.6083 -4.00946 0
M  V30 7298 C 678.416 2.79224 -4.51893 0
M  V30 7299 C 677.455 2.3468 -5.65324 0
M  V30 7300 N 676.592 3.461 -6.10867 0
M  V30 7301 H 681.432 0.266286 -2.96808 0
M  V30 7302 H 678.969 0.11972 -1.46612 0
M  V30 7303 H 680.927 2.73989 -3.14621 0
M  V30 7304 H 679.557 2.51139 -2.02803 0
M  V30 7305 H 678.609 0.783592 -3.72242 0
M  V30 7306 H 679.921 1.24119 -4.83111 0
M  V30 7307 H 679.075 3.59625 -4.88625 0
M  V30 7308 H 677.814 3.19183 -3.68746 0
M  V30 7309 H 676.819 1.52721 -5.28163 0
M  V30 7310 H 678.044 1.95801 -6.5026 0
M  V30 7311 H 675.99 3.85671 -5.30654 0
M  V30 7312 H 675.907 3.1342 -6.87971 0
M  V30 7313 H 677.175 4.26844 -6.52246 0
M  V30 7314 N 681.404 1.57128 0.121893 0
M  V30 7315 C 682.65 1.85853 0.826451 0
M  V30 7316 C 683.005 0.739262 1.77631 0
M  V30 7317 O 682.298 -0.260959 1.89815 0
M  V30 7318 C 682.492 3.1874 1.61677 0
M  V30 7319 C 682.321 4.43487 0.744944 0
M  V30 7320 C 681.091 5.03707 0.400891 0
M  V30 7321 C 683.289 5.1426 0.0638779 0
M  V30 7322 N 681.271 6.12006 -0.481902 0
M  V30 7323 C 682.642 6.16281 -0.678033 0
M  V30 7324 C 684.697 4.97898 -0.0128424 0
M  V30 7325 C 683.4 7.0371 -1.48946 0
M  V30 7326 C 685.426 5.85812 -0.81108 0
M  V30 7327 C 684.788 6.87333 -1.54119 0
M  V30 7328 H 680.887 0.730367 0.279442 0
M  V30 7329 H 683.471 1.9449 0.0903486 0
M  V30 7330 H 681.642 3.11204 2.32393 0
M  V30 7331 H 683.374 3.35283 2.26644 0
M  V30 7332 H 680.129 4.67744 0.742469 0
M  V30 7333 H 680.553 6.70787 -0.915063 0
M  V30 7334 H 685.195 4.19372 0.537278 0
M  V30 7335 H 682.913 7.81646 -2.05074 0
M  V30 7336 H 686.499 5.75217 -0.872764 0
M  V30 7337 H 685.379 7.54182 -2.14893 0
M  V30 7338 N 682.882 -0.391992 1.52647 0
M  V30 7339 C 683.814 -1.49811 1.73463 0
M  V30 7340 C 684.827 -1.50734 0.615078 0
M  V30 7341 O 686.016 -1.5469 0.890696 0
M  V30 7342 C 683.116 -2.88667 1.77552 0
M  V30 7343 C 682.289 -3.11743 3.06815 0
M  V30 7344 C 681.348 -4.30564 3.02491 0
M  V30 7345 O 680.374 -4.27014 3.76361 0
M  V30 7346 N 681.576 -5.36593 2.21468 0
M  V30 7347 H 684.341 -1.32343 2.68897 0
M  V30 7348 H 681.902 -0.581475 1.51098 0
M  V30 7349 H 683.894 -3.66251 1.7217 0
M  V30 7350 H 682.464 -2.99508 0.895181 0
M  V30 7351 H 681.684 -2.2205 3.25711 0
M  V30 7352 H 682.972 -3.24013 3.92292 0
M  V30 7353 H 682.37 -5.42332 1.60913 0
M  V30 7354 H 680.927 -6.12855 2.21928 0
M  V30 7355 N 684.36 -1.4356 -0.65026 0
M  V30 7356 C 685.308 -1.49219 -1.78427 0
M  V30 7357 C 686.302 -0.365528 -1.65409 0
M  V30 7358 O 687.508 -0.539649 -1.7172 0
M  V30 7359 H 683.883 -0.467858 -0.588738 0
M  V30 7360 H 685.854 -2.44701 -1.70774 0
M  V30 7361 C 684.603 -1.43519 -3.16698 0
M  V30 7362 H 683.926 -2.2952 -3.27354 0
M  V30 7363 H 685.366 -1.5154 -3.95995 0
M  V30 7364 C 683.825 -0.153197 -3.36552 0
M  V30 7365 O 684.355 0.784317 -3.93969 0
M  V30 7366 N 682.561 -0.0624402 -2.90533 0
M  V30 7367 H 682.108 -0.826172 -2.43992 0
M  V30 7368 H 682.066 0.794616 -3.04193 0
M  V30 7369 N 685.838 0.888903 -1.30139 0
M  V30 7370 C 687.084 1.6428 -1.18912 0
M  V30 7371 C 687.417 1.92499 0.256477 0
M  V30 7372 O 686.692 1.54312 1.18397 0
M  V30 7373 C 686.975 2.9851 -2.01405 0
M  V30 7374 C 686.828 2.77288 -3.54163 0
M  V30 7375 C 688.147 3.99383 -1.84882 0
M  V30 7376 H 685.266 0.596148 -0.433333 0
M  V30 7377 H 687.908 1.0289 -1.5973 0
M  V30 7378 H 686.058 3.50907 -1.66722 0
M  V30 7379 H 687.73 2.31709 -3.98884 0
M  V30 7380 H 685.973 2.11867 -3.78543 0
M  V30 7381 H 686.644 3.72717 -4.07168 0
M  V30 7382 H 689.12 3.56132 -2.15196 0
M  V30 7383 H 687.996 4.91222 -2.44934 0
M  V30 7384 H 688.257 4.34674 -0.806902 0
M  V30 7385 N 687.317 1.12792 1.10072 0
M  V30 7386 C 688.267 0.768086 2.14673 0
M  V30 7387 C 689.251 -0.234716 1.59179 0
M  V30 7388 O 690.443 -0.039643 1.76956 0
M  V30 7389 C 687.572 0.228472 3.42539 0
M  V30 7390 C 686.658 1.25979 4.04957 0
M  V30 7391 N 687.049 2.4586 4.42025 0
M  V30 7392 C 685.347 1.10602 4.32069 0
M  V30 7393 C 686.048 3.11747 4.9111 0
M  V30 7394 N 685.024 2.39185 4.88151 0
M  V30 7395 H 688.826 1.68029 2.4113 0
M  V30 7396 H 686.34 1.00925 1.27232 0
M  V30 7397 H 688.337 -0.0475216 4.16873 0
M  V30 7398 H 686.997 -0.678136 3.1754 0
M  V30 7399 H 688.008 2.83215 4.33601 0
M  V30 7400 H 684.685 0.257021 4.16708 0
M  V30 7401 H 686.075 4.13862 5.29309 0
M  V30 7402 N 688.795 -1.27931 0.920396 0
M  V30 7403 C 690.042 -1.94689 0.557007 0
M  V30 7404 C 690.37 -1.724 -0.900476 0
M  V30 7405 O 689.625 -1.04194 -1.65657 0
M  V30 7406 C 689.924 -3.47853 0.820558 0
M  V30 7407 C 689.59 -3.90252 2.25863 0
M  V30 7408 C 688.252 -4.01539 2.65179 0
M  V30 7409 C 690.604 -4.11853 3.19415 0
M  V30 7410 C 687.932 -4.3181 3.97187 0
M  V30 7411 C 690.284 -4.43606 4.50995 0
M  V30 7412 C 688.948 -4.53105 4.90155 0
M  V30 7413 H 688.218 -0.712416 0.203823 0
M  V30 7414 H 690.865 -1.52142 1.16298 0
M  V30 7415 H 689.17 -3.91578 0.131844 0
M  V30 7416 H 690.867 -3.97634 0.51847 0
M  V30 7417 H 687.457 -3.81999 1.94358 0
M  V30 7418 H 691.641 -4.0258 2.90246 0
M  V30 7419 H 686.897 -4.37371 4.2722 0
M  V30 7420 H 691.071 -4.59268 5.23494 0
M  V30 7421 H 688.698 -4.76315 5.92476 0
M  V30 7422 N 690.273 -0.685099 -1.4193 0
M  V30 7423 C 691.223 0.00977295 -2.27998 0
M  V30 7424 C 692.207 0.763315 -1.41641 0
M  V30 7425 O 693.399 0.640532 -1.65004 0
M  V30 7426 C 690.528 0.952972 -3.29808 0
M  V30 7427 C 689.614 0.196231 -4.23646 0
M  V30 7428 N 690.005 -0.804401 -4.99363 0
M  V30 7429 C 688.303 0.433213 -4.43891 0
M  V30 7430 C 689.004 -1.25646 -5.67968 0
M  V30 7431 N 687.98 -0.5844 -5.4045 0
M  V30 7432 H 691.782 -0.757586 -2.83968 0
M  V30 7433 H 689.296 -0.515037 -1.54017 0
M  V30 7434 H 691.293 1.46585 -3.9028 0
M  V30 7435 H 689.953 1.72004 -2.75399 0
M  V30 7436 H 690.964 -1.18429 -5.04177 0
M  V30 7437 H 687.641 1.17899 -4.00507 0
M  V30 7438 H 689.031 -2.08622 -6.38691 0
M  V30 7439 N 691.751 1.51645 -0.429126 0
M  V30 7440 C 693.167 1.59394 -0.080994 0
M  V30 7441 C 693.367 1.44064 1.40882 0
M  V30 7442 O 692.423 1.27771 2.17786 0
M  V30 7443 C 693.736 2.94779 -0.593773 0
M  V30 7444 C 695.284 3.08067 -0.553494 0
M  V30 7445 C 695.759 4.45963 -1.04311 0
M  V30 7446 N 697.25 4.5226 -1.00076 0
M  V30 7447 C 697.985 5.57268 -1.35056 0
M  V30 7448 N 697.481 6.69734 -1.77282 0
M  V30 7449 N 699.274 5.47582 -1.26925 0
M  V30 7450 H 691.425 1.59856 -1.39857 0
M  V30 7451 H 693.688 0.753095 -0.575805 0
M  V30 7452 H 693.394 3.11342 -1.63583 0
M  V30 7453 H 693.268 3.77197 -0.0142202 0
M  V30 7454 H 695.655 2.91177 0.479556 0
M  V30 7455 H 695.736 2.27508 -1.16935 0
M  V30 7456 H 695.38 4.63598 -2.07459 0
M  V30 7457 H 695.31 5.25049 -0.403873 0
M  V30 7458 H 697.801 3.71537 -0.690564 0
M  V30 7459 H 698.114 7.4587 -2.02232 0
M  V30 7460 H 696.459 6.70963 -1.81202 0
M  V30 7461 H 699.65 4.58604 -0.93809 0
M  V30 7462 H 699.823 6.29308 -1.54516 0
M  V30 7463 N 693.229 0.160201 1.56784 0
M  V30 7464 C 694.454 -0.497373 2.01348 0
M  V30 7465 C 694.879 -1.56757 1.03966 0
M  V30 7466 O 694.237 -1.81292 0.0174455 0
M  V30 7467 C 694.285 -1.0628 3.44582 0
M  V30 7468 O 693.389 -2.17723 3.50244 0
M  V30 7469 H 692.73 -0.120295 0.653012 0
M  V30 7470 H 695.26 0.260821 2.02931 0
M  V30 7471 H 695.27 -1.38819 3.83658 0
M  V30 7472 H 693.945 -0.279166 4.14962 0
M  V30 7473 H 692.522 -1.86313 3.2302 0
M  V30 7474 N 694.707 -1.5719 -0.113559 0
M  V30 7475 C 695.955 -1.84772 -0.818761 0
M  V30 7476 C 696.276 -0.746196 -1.80158 0
M  V30 7477 O 695.546 0.229305 -1.94553 0
M  V30 7478 H 694.126 -0.681737 -0.305359 0
M  V30 7479 H 696.788 -1.94645 -0.0995845 0
M  V30 7480 H 695.884 -2.80878 -1.36067 0
M  V30 7481 N 696.185 0.383891 -1.52853 0
M  V30 7482 C 697.41 1.154 -1.7233 0
M  V30 7483 C 697.835 1.82809 -0.44298 0
M  V30 7484 O 697.193 1.71026 0.601645 0
M  V30 7485 C 697.241 2.17386 -2.87708 0
M  V30 7486 O 696.345 3.24082 -2.55038 0
M  V30 7487 H 695.686 0.335709 -0.572883 0
M  V30 7488 H 698.216 0.44662 -1.99666 0
M  V30 7489 H 698.226 2.61296 -3.1335 0
M  V30 7490 H 696.901 1.6771 -3.80587 0
M  V30 7491 H 695.478 2.85273 -2.40153 0
M  V30 7492 N 697.663 1.43903 0.642637 0
M  V30 7493 C 699.074 1.40975 1.22404 0
M  V30 7494 C 699.425 0.1192 1.95838 0
M  V30 7495 O 698.55 -0.780939 2.01818 0
M  V30 7496 C 699.145 2.5538 2.22636 0
M  V30 7497 C 697.704 2.55684 2.76229 0
M  V30 7498 C 696.851 2.32556 1.51039 0
M  V30 7499 H 699.802 1.5265 0.434006 0
M  V30 7500 H 699.823 2.27474 3.05017 0
M  V30 7501 H 699.335 3.49294 1.69161 0
M  V30 7502 H 697.436 1.65679 3.33738 0
M  V30 7503 H 697.549 3.53799 3.23053 0
M  V30 7504 H 695.913 1.81427 1.78764 0
M  V30 7505 H 696.696 3.28569 0.99484 0
M  V30 7506 N 699.141 -0.881989 1.30609 0
M  V30 7507 C 700.369 -1.66711 1.22536 0
M  V30 7508 C 700.784 -1.87614 -0.2113 0
M  V30 7509 O 700.141 -1.42576 -1.13923 0
M  V30 7510 C 700.192 -3.04182 1.95335 0
M  V30 7511 O 699.913 -2.8422 3.33393 0
M  V30 7512 C 701.414 -3.98617 1.93956 0
M  V30 7513 H 698.634 -0.520124 0.423925 0
M  V30 7514 H 701.178 -1.10174 1.72285 0
M  V30 7515 H 699.333 -3.57442 1.49378 0
M  V30 7516 H 699.747 -3.71452 3.70302 0
M  V30 7517 H 701.221 -4.92433 2.49426 0
M  V30 7518 H 701.698 -4.29473 0.919198 0
M  V30 7519 H 702.304 -3.51292 2.39738 0
M  V30 7520 N 700.619 -1.13374 -1.09472 0
M  V30 7521 C 701.865 -0.896516 -1.81908 0
M  V30 7522 C 702.198 0.575933 -1.85463 0
M  V30 7523 O 701.473 1.42618 -1.32251 0
M  V30 7524 C 701.756 -1.48445 -3.28079 0
M  V30 7525 C 701.609 -3.02598 -3.32798 0
M  V30 7526 C 702.928 -1.15226 -4.24748 0
M  V30 7527 H 700.047 -0.327127 -0.660422 0
M  V30 7528 H 702.689 -1.40195 -1.2824 0
M  V30 7529 H 700.839 -1.0546 -3.73912 0
M  V30 7530 H 702.511 -3.54335 -2.95372 0
M  V30 7531 H 700.754 -3.37613 -2.72397 0
M  V30 7532 H 701.425 -3.38835 -4.3577 0
M  V30 7533 H 703.901 -1.52369 -3.87199 0
M  V30 7534 H 702.777 -1.59012 -5.25363 0
M  V30 7535 H 703.038 -0.0658891 -4.42051 0
M  V30 7536 N 702.098 1.27442 -0.927168 0
M  V30 7537 C 703.509 1.76385 -0.611979 0
M  V30 7538 C 703.86 1.75715 0.872853 0
M  V30 7539 O 702.985 1.3603 1.683 0
M  V30 7540 C 703.58 3.20303 -1.10414 0
M  V30 7541 C 702.139 3.66916 -0.839628 0
M  V30 7542 C 701.286 2.46859 -1.26317 0
M  V30 7543 H 704.237 1.13716 -1.107 0
M  V30 7544 H 704.258 3.77811 -0.451578 0
M  V30 7545 H 703.77 3.20759 -2.18484 0
M  V30 7546 H 701.871 3.71906 0.227292 0
M  V30 7547 H 701.984 4.56415 -1.45679 0
M  V30 7548 H 700.348 2.45407 -0.681723 0
M  V30 7549 H 701.131 2.50025 -2.3525 0
M  V30 7550 N 703.576 0.692616 1.41565 0
M  V30 7551 C 704.825 0.219452 2.00503 0
M  V30 7552 C 705.138 -1.18683 1.55479 0
M  V30 7553 O 706.344 -1.75731 2.06956 0
M  V30 7554 C 704.8 0.341451 3.58277 0
M  V30 7555 C 704.408 1.75291 4.12283 0
M  V30 7556 C 706.152 -0.0720899 4.24439 0
M  V30 7557 C 704.059 1.82673 5.62481 0
M  V30 7558 H 702.989 0.0782874 0.749925 0
M  V30 7559 H 705.64 0.860386 1.62079 0
M  V30 7560 H 704.022 -0.367683 3.94289 0
M  V30 7561 H 705.196 2.49057 3.87695 0
M  V30 7562 H 703.511 2.11587 3.58636 0
M  V30 7563 H 706.108 -0.0373385 5.34687 0
M  V30 7564 H 706.451 -1.11034 4.0122 0
M  V30 7565 H 706.984 0.586663 3.9345 0
M  V30 7566 H 703.723 2.84539 5.90523 0
M  V30 7567 H 703.243 1.13288 5.89004 0
M  V30 7568 H 704.922 1.58827 6.27203 0
M  V30 7569 N 705.054 -1.51416 0.437162 0
M  V30 7570 C 706.001 -2.27743 -0.374374 0
M  V30 7571 C 706.971 -1.31327 -1.01698 0
M  V30 7572 O 708.156 -1.60229 -1.03592 0
M  V30 7573 C 705.296 -3.12241 -1.46969 0
M  V30 7574 C 704.409 -4.23651 -0.845236 0
M  V30 7575 C 703.544 -4.95458 -1.91559 0
M  V30 7576 C 702.583 -5.98789 -1.26956 0
M  V30 7577 N 701.72 -6.64005 -2.28126 0
M  V30 7578 H 706.56 -2.96654 0.282892 0
M  V30 7579 H 704.097 -1.46319 0.151352 0
M  V30 7580 H 706.055 -3.59556 -2.11602 0
M  V30 7581 H 704.685 -2.45445 -2.09659 0
M  V30 7582 H 703.737 -3.803 -0.0872059 0
M  V30 7583 H 705.049 -4.97683 -0.333582 0
M  V30 7584 H 704.203 -5.46321 -2.63854 0
M  V30 7585 H 702.942 -4.21055 -2.46097 0
M  V30 7586 H 701.947 -5.47219 -0.53207 0
M  V30 7587 H 703.172 -6.75149 -0.731509 0
M  V30 7588 H 701.118 -5.92415 -2.81745 0
M  V30 7589 H 701.035 -7.33802 -1.81852 0
M  V30 7590 H 702.303 -7.19498 -2.99905 0
M  V30 7591 N 706.532 -0.168513 -1.56696 0
M  V30 7592 C 707.943 0.348694 -1.83415 0
M  V30 7593 C 708.294 1.63257 -1.0882 0
M  V30 7594 O 707.419 2.13707 -0.340333 0
M  V30 7595 C 708.014 0.639423 -3.32711 0
M  V30 7596 C 706.573 1.10108 -3.59935 0
M  V30 7597 C 705.72 0.135464 -2.76969 0
M  V30 7598 H 708.671 -0.392829 -1.53761 0
M  V30 7599 H 708.692 1.49179 -3.50037 0
M  V30 7600 H 708.204 -0.295173 -3.86976 0
M  V30 7601 H 706.305 2.05088 -3.11079 0
M  V30 7602 H 706.418 1.01218 -4.68286 0
M  V30 7603 H 704.782 0.632286 -2.46727 0
M  V30 7604 H 705.565 -0.793104 -3.34013 0
M  V30 7605 N 708.01 1.57248 0.105221 0
M  V30 7606 C 709.421 1.74612 0.660865 0
M  V30 7607 C 709.772 0.789231 1.79626 0
M  V30 7608 O 708.897 -0.0346611 2.16372 0
M  V30 7609 C 709.492 3.16624 1.20559 0
M  V30 7610 C 708.051 3.35447 1.7074 0
M  V30 7611 C 707.198 2.70445 0.612764 0
M  V30 7612 H 710.149 1.5824 -0.12079 0
M  V30 7613 H 710.17 3.18937 2.07508 0
M  V30 7614 H 709.682 3.86245 0.379012 0
M  V30 7615 H 707.783 2.7089 2.5583 0
M  V30 7616 H 707.896 4.43702 1.80736 0
M  V30 7617 H 706.26 2.32061 1.04975 0
M  V30 7618 H 707.043 3.42699 -0.203066 0
M  V30 7619 N 709.488 -0.375779 1.53054 0
M  V30 7620 C 710.728 -1.12828 1.70438 0
M  V30 7621 C 711.092 -1.86854 0.441527 0
M  V30 7622 O 712.293 -2.64261 0.491908 0
M  V30 7623 C 710.564 -2.07009 2.91345 0
M  V30 7624 S 712.123 -2.89917 3.29383 0
M  V30 7625 H 708.941 -0.381736 0.599832 0
M  V30 7626 H 711.543 -0.4109 1.91133 0
M  V30 7627 H 710.247 -1.51371 3.81464 0
M  V30 7628 H 709.778 -2.83236 2.73022 0
M  V30 7629 H 711.793 -4.0924 2.80601 0
M  V30 7630 N 710.966 -1.44241 -0.634997 0
M  V30 7631 C 712.215 -1.46102 -1.39058 0
M  V30 7632 C 712.528 -0.0959909 -1.95364 0
M  V30 7633 O 713.734 0.00788751 -2.71499 0
M  V30 7634 C 712.19 -2.57195 -2.51751 0
M  V30 7635 C 711.798 -3.99888 -2.01974 0
M  V30 7636 C 713.542 -2.68272 -3.28984 0
M  V30 7637 C 711.449 -5.02412 -3.11987 0
M  V30 7638 H 710.379 -0.543556 -0.522554 0
M  V30 7639 H 713.03 -1.70294 -0.683538 0
M  V30 7640 H 711.412 -2.26237 -3.25012 0
M  V30 7641 H 712.586 -4.40396 -1.35604 0
M  V30 7642 H 710.901 -3.93019 -1.37568 0
M  V30 7643 H 713.498 -3.42042 -4.10988 0
M  V30 7644 H 713.841 -1.73957 -3.78212 0
M  V30 7645 H 714.374 -2.98622 -2.62812 0
M  V30 7646 H 711.113 -5.98342 -2.67707 0
M  V30 7647 H 710.633 -4.66501 -3.77011 0
M  V30 7648 H 712.312 -5.25939 -3.76825 0
M  V30 7649 N 712.444 0.87505 -1.31075 0
M  V30 7650 C 713.855 1.4433 -1.18431 0
M  V30 7651 C 714.206 1.9506 0.211189 0
M  V30 7652 O 713.331 1.85847 1.10859 0
M  V30 7653 C 713.926 2.62341 -2.14389 0
M  V30 7654 C 712.485 3.15225 -2.05694 0
M  V30 7655 C 711.632 1.87929 -2.03907 0
M  V30 7656 H 714.583 0.684061 -1.432 0
M  V30 7657 H 714.604 3.3887 -1.73053 0
M  V30 7658 H 714.116 2.25388 -3.15946 0
M  V30 7659 H 712.217 3.56812 -1.07314 0
M  V30 7660 H 712.33 3.77853 -2.94558 0
M  V30 7661 H 710.694 2.06679 -1.48849 0
M  V30 7662 H 711.477 1.53221 -3.07211 0
M  V30 7663 N 713.922 1.13953 1.08869 0
M  V30 7664 C 714.87 0.817664 2.17754 0
M  V30 7665 C 715.864 -0.202444 1.68186 0
M  V30 7666 O 717.07 -0.0590159 1.79903 0
M  V30 7667 H 713.445 0.246671 0.710392 0
M  V30 7668 H 715.416 1.74401 2.4213 0
M  V30 7669 C 714.165 0.3063 3.46348 0
M  V30 7670 H 713.488 1.08259 3.84864 0
M  V30 7671 H 714.928 0.119584 4.23831 0
M  V30 7672 C 713.387 -0.969158 3.22659 0
M  V30 7673 O 713.917 -2.04386 3.45817 0
M  V30 7674 N 712.123 -0.902516 2.7623 0
M  V30 7675 H 711.67 -0.027801 2.57585 0
M  V30 7676 H 711.628 -1.75649 2.60758 0
M  V30 7677 N 715.4 -1.26948 0.933913 0
M  V30 7678 C 716.648 -1.93704 0.576484 0
M  V30 7679 C 716.969 -1.73702 -0.886145 0
M  V30 7680 O 716.239 -1.08838 -1.62884 0
M  V30 7681 H 714.819 -0.716812 0.210214 0
M  V30 7682 H 717.481 -1.54534 1.18766 0
M  V30 7683 H 716.577 -3.01987 0.788055 0
M  V30 7684 N 716.879 -0.700114 -1.41195 0
M  V30 7685 C 717.826 -0.0376652 -2.30769 0
M  V30 7686 C 718.796 0.766544 -1.47354 0
M  V30 7687 O 719.981 0.73365 -1.76131 0
M  V30 7688 C 717.121 0.889452 -3.33441 0
M  V30 7689 C 716.234 0.076373 -4.31932 0
M  V30 7690 C 715.369 1.00155 -5.21673 0
M  V30 7691 C 714.408 0.181644 -6.1183 0
M  V30 7692 N 713.545 1.06087 -6.94039 0
M  V30 7693 H 718.385 -0.80726 -2.86858 0
M  V30 7694 H 715.922 -0.409798 -1.41277 0
M  V30 7695 H 717.88 1.44107 -3.91522 0
M  V30 7696 H 716.51 1.6254 -2.78892 0
M  V30 7697 H 715.562 -0.592223 -3.75762 0
M  V30 7698 H 716.874 -0.559076 -4.95657 0
M  V30 7699 H 716.028 1.62223 -5.8461 0
M  V30 7700 H 714.767 1.67085 -4.58186 0
M  V30 7701 H 713.772 -0.452085 -5.47938 0
M  V30 7702 H 714.997 -0.483925 -6.77374 0
M  V30 7703 H 712.943 1.7161 -6.33156 0
M  V30 7704 H 712.86 0.481094 -7.54468 0
M  V30 7705 H 714.128 1.66822 -7.6144 0
M  V30 7706 N 718.357 1.51182 -0.445186 0
M  V30 7707 C 719.267 2.31692 0.368255 0
M  V30 7708 C 720.283 1.40942 1.02036 0
M  V30 7709 O 721.459 1.74011 1.01401 0
M  V30 7710 C 718.524 3.14903 1.45041 0
M  V30 7711 C 717.585 4.21442 0.817615 0
M  V30 7712 C 716.818 5.00677 1.8482 0
M  V30 7713 O 717.041 4.80644 3.07145 0
M  V30 7714 O 715.975 5.84559 1.43438 0
M  V30 7715 H 719.801 3.0232 -0.289219 0
M  V30 7716 H 717.386 1.47951 -0.207555 0
M  V30 7717 H 719.268 3.66612 2.07783 0
M  V30 7718 H 717.943 2.47031 2.09182 0
M  V30 7719 H 716.85 3.73791 0.151931 0
M  V30 7720 H 718.183 4.9171 0.219564 0
M  V30 7721 N 719.835 0.176821 1.56605 0
M  V30 7722 C 720.783 -0.768159 2.1955 0
M  V30 7723 C 721.777 -1.23343 1.16116 0
M  V30 7724 O 722.983 -1.19844 1.34303 0
M  V30 7725 H 719.358 -0.266013 0.703378 0
M  V30 7726 H 721.329 -0.213374 2.97636 0
M  V30 7727 C 720.078 -1.98492 2.85475 0
M  V30 7728 H 719.401 -1.63595 3.64797 0
M  V30 7729 H 720.841 -2.62489 3.3298 0
M  V30 7730 C 719.3 -2.81207 1.85538 0
M  V30 7731 O 719.83 -3.7854 1.34427 0
M  V30 7732 N 718.036 -2.46331 1.54173 0
M  V30 7733 H 717.583 -1.67241 1.95929 0
M  V30 7734 H 717.541 -3.01961 0.875595 0
M  V30 7735 N 721.313 -1.57302 -0.09688 0
M  V30 7736 C 722.56 -1.85997 -0.800699 0
M  V30 7737 C 722.888 -0.765089 -1.7882 0
M  V30 7738 O 722.143 0.241492 -1.94204 0
M  V30 7739 C 722.442 -3.21272 -1.56586 0
M  V30 7740 C 722.108 -4.45104 -0.72064 0
M  V30 7741 C 720.77 -4.78723 -0.487632 0
M  V30 7742 C 723.122 -5.2103 -0.132948 0
M  V30 7743 C 720.45 -5.85697 0.34296 0
M  V30 7744 C 722.802 -6.28881 0.684957 0
M  V30 7745 C 721.466 -6.61017 0.928073 0
M  V30 7746 H 720.736 -0.680613 -0.292997 0
M  V30 7747 H 723.383 -1.91399 -0.0622474 0
M  V30 7748 H 721.688 -3.11547 -2.37583 0
M  V30 7749 H 723.385 -3.40702 -2.11478 0
M  V30 7750 H 719.975 -4.18777 -0.912359 0
M  V30 7751 H 724.159 -4.95392 -0.300132 0
M  V30 7752 H 719.415 -6.09008 0.540317 0
M  V30 7753 H 723.589 -6.86886 1.14721 0
M  V30 7754 H 721.216 -7.43738 1.57348 0
M  V30 7755 N 722.791 0.367657 -1.53252 0
M  V30 7756 C 724.016 1.13566 -1.73544 0
M  V30 7757 C 724.441 1.82329 -0.462344 0
M  V30 7758 O 723.799 1.71655 0.583472 0
M  V30 7759 C 723.847 2.14322 -2.89997 0
M  V30 7760 O 722.951 3.21359 -2.58461 0
M  V30 7761 H 722.292 0.329614 -0.576412 0
M  V30 7762 H 724.822 0.425417 -2.00128 0
M  V30 7763 H 724.832 2.57958 -3.16104 0
M  V30 7764 H 723.507 1.63664 -3.82344 0
M  V30 7765 H 722.084 2.8271 -2.43165 0
M  V30 7766 N 724.269 1.44576 0.627338 0
M  V30 7767 C 725.517 1.47267 1.38408 0
M  V30 7768 C 725.838 0.107971 1.94701 0
M  V30 7769 O 725.108 -0.860206 1.76004 0
M  V30 7770 H 723.688 0.542276 0.513756 0
M  V30 7771 H 726.35 1.80383 0.738099 0
M  V30 7772 H 725.446 2.20025 2.21349 0
M  V30 7773 N 725.747 -0.868086 1.31537 0
M  V30 7774 C 726.995 -1.61807 1.21091 0
M  V30 7775 C 727.316 -1.93631 -0.230623 0
M  V30 7776 O 726.586 -1.5846 -1.15183 0
M  V30 7777 H 725.166 -0.599854 0.445178 0
M  V30 7778 H 727.828 -1.03915 1.64887 0
M  V30 7779 H 726.924 -2.56088 1.78396 0
M  V30 7780 N 727.225 -1.14528 -1.08264 0
M  V30 7781 C 728.453 -0.937964 -1.84418 0
M  V30 7782 C 728.868 0.51357 -1.81681 0
M  V30 7783 O 728.225 1.35591 -1.22153 0
M  V30 7784 C 728.276 -1.43272 -3.31897 0
M  V30 7785 O 727.997 -2.82738 -3.34651 0
M  V30 7786 C 729.498 -1.26555 -4.24851 0
M  V30 7787 H 726.718 -0.333704 -0.582136 0
M  V30 7788 H 729.262 -1.52076 -1.36723 0
M  V30 7789 H 727.417 -0.892653 -3.76975 0
M  V30 7790 H 727.831 -3.04971 -4.26724 0
M  V30 7791 H 729.305 -1.66031 -5.26439 0
M  V30 7792 H 729.782 -0.208589 -4.38704 0
M  V30 7793 H 730.388 -1.79423 -3.856 0
M  V30 7794 N 728.703 1.26451 -0.940633 0
M  V30 7795 C 729.928 1.98407 -0.60412 0
M  V30 7796 C 730.353 1.69584 0.81382 0
M  V30 7797 O 729.711 0.943553 1.54812 0
M  V30 7798 C 729.759 3.50387 -0.852136 0
M  V30 7799 O 728.863 4.1233 0.076013 0
M  V30 7800 H 728.204 0.622466 -0.231153 0
M  V30 7801 H 730.734 1.60932 -1.26342 0
M  V30 7802 H 730.744 4.00614 -0.772816 0
M  V30 7803 H 729.419 3.70696 -1.88566 0
M  V30 7804 H 727.996 3.7286 -0.0543187 0
M  V30 7805 N 730.181 0.707592 1.40822 0
M  V30 7806 C 731.111 0.0644925 2.33411 0
M  V30 7807 C 732.092 -0.754205 1.52466 0
M  V30 7808 O 733.277 -0.704749 1.80961 0
M  V30 7809 C 730.407 -0.863865 3.36385 0
M  V30 7810 C 729.361 -0.15138 4.27732 0
M  V30 7811 C 728.687 -1.19491 5.21177 0
M  V30 7812 C 729.987 0.989607 5.12839 0
M  V30 7813 H 731.681 0.837829 2.87438 0
M  V30 7814 H 729.227 0.404346 1.38207 0
M  V30 7815 H 731.18 -1.32309 4.0009 0
M  V30 7816 H 729.904 -1.66901 2.80734 0
M  V30 7817 H 728.563 0.287937 3.65467 0
M  V30 7818 H 728.211 -1.9929 4.61836 0
M  V30 7819 H 727.911 -0.723123 5.83134 0
M  V30 7820 H 729.435 -1.6544 5.8776 0
M  V30 7821 H 730.849 0.610114 5.70044 0
M  V30 7822 H 729.246 1.38926 5.83798 0
M  V30 7823 H 730.316 1.82389 4.49291 0
M  V30 7824 N 731.66 -1.50943 0.453197 0
M  V30 7825 C 732.906 -2.03153 -0.100277 0
M  V30 7826 C 733.261 -1.33032 -1.38997 0
M  V30 7827 O 732.554 -0.441423 -1.86446 0
M  V30 7828 C 732.748 -3.55603 -0.357944 0
M  V30 7829 C 732.577 -4.40495 0.905223 0
M  V30 7830 C 731.347 -4.84247 1.44337 0
M  V30 7831 C 733.545 -4.81931 1.79575 0
M  V30 7832 N 731.527 -5.53403 2.65742 0
M  V30 7833 C 732.898 -5.50314 2.85577 0
M  V30 7834 C 734.953 -4.63903 1.80828 0
M  V30 7835 C 733.656 -6.02581 3.92797 0
M  V30 7836 C 735.682 -5.17097 2.86993 0
M  V30 7837 C 735.044 -5.8544 3.91713 0
M  V30 7838 H 731.143 -0.781995 0.00287755 0
M  V30 7839 H 733.727 -1.84651 0.617411 0
M  V30 7840 H 731.898 -3.74087 -1.04467 0
M  V30 7841 H 733.63 -3.9447 -0.904175 0
M  V30 7842 H 730.385 -4.63029 0.995045 0
M  V30 7843 H 730.809 -5.92598 3.27348 0
M  V30 7844 H 735.451 -4.10512 1.0119 0
M  V30 7845 H 733.169 -6.55018 4.73262 0
M  V30 7846 H 736.755 -5.0499 2.88923 0
M  V30 7847 H 735.635 -6.25861 4.72512 0
M  V30 7848 N 733.138 -0.185124 -1.56509 0
M  V30 7849 C 734.07 0.771401 -2.15829 0
M  V30 7850 C 735.083 1.18392 -1.11747 0
M  V30 7851 O 736.272 1.12137 -1.38879 0
M  V30 7852 C 733.372 2.05169 -2.69739 0
M  V30 7853 C 732.545 1.80056 -3.98621 0
M  V30 7854 C 731.604 2.92435 -4.37456 0
M  V30 7855 O 730.63 2.62473 -5.05071 0
M  V30 7856 N 731.832 4.20554 -4.00143 0
M  V30 7857 H 734.597 0.264184 -2.98533 0
M  V30 7858 H 732.158 -0.00281069 -1.619 0
M  V30 7859 H 734.15 2.7947 -2.92709 0
M  V30 7860 H 732.72 2.47041 -1.91545 0
M  V30 7861 H 731.94 0.895862 -3.83885 0
M  V30 7862 H 733.228 1.60662 -4.82768 0
M  V30 7863 H 732.626 4.47753 -3.45736 0
M  V30 7864 H 731.183 4.91514 -4.28085 0
M  V30 7865 N 734.616 1.57351 0.0885366 0
M  V30 7866 C 735.564 2.03542 1.12576 0
M  V30 7867 C 736.558 0.937668 1.41082 0
M  V30 7868 O 737.764 1.12283 1.40686 0
M  V30 7869 H 734.139 0.648752 0.380296 0
M  V30 7870 H 736.11 2.89833 0.709906 0
M  V30 7871 C 734.859 2.4811 2.43591 0
M  V30 7872 H 734.182 3.32164 2.22502 0
M  V30 7873 H 735.622 2.842 3.14653 0
M  V30 7874 C 734.081 1.35708 3.08359 0
M  V30 7875 O 734.611 0.689852 3.95732 0
M  V30 7876 N 732.817 1.10641 2.68713 0
M  V30 7877 H 732.364 1.6508 1.97753 0
M  V30 7878 H 732.322 0.356355 3.12374 0
M  V30 7879 N 736.094 -0.359525 1.53444 0
M  V30 7880 C 737.343 -1.09886 1.69139 0
M  V30 7881 C 737.656 -1.90285 0.452863 0
M  V30 7882 O 738.862 -2.67033 0.490459 0
M  V30 7883 C 737.318 -2.0028 2.99025 0
M  V30 7884 C 736.926 -1.25164 4.30161 0
M  V30 7885 C 738.67 -2.74168 3.24086 0
M  V30 7886 C 736.577 -2.14494 5.51132 0
M  V30 7887 H 735.507 -0.413936 0.630217 0
M  V30 7888 H 738.158 -0.359434 1.79945 0
M  V30 7889 H 736.54 -2.77978 2.82036 0
M  V30 7890 H 737.714 -0.524867 4.57801 0
M  V30 7891 H 736.029 -0.631116 4.11589 0
M  V30 7892 H 738.626 -3.41243 4.11652 0
M  V30 7893 H 738.969 -3.39868 2.40407 0
M  V30 7894 H 739.502 -2.0355 3.41778 0
M  V30 7895 H 736.241 -1.53362 6.37307 0
M  V30 7896 H 735.761 -2.85004 5.27762 0
M  V30 7897 H 737.44 -2.73914 5.86157 0
M  V30 7898 O 737.611 -1.53385 -0.505502 0
M  V30 7899 H 738.302 -1.55093 -1.16042 0
M  V30 END ATOM
M  V30 BEGIN BOND
M  V30 END BOND
M  V30 END CTAB
M  END
$$$$
