drugbank_target|P0C264 Uncharacterized serine/threonine-protein kinase SBK3 (DB12010)
 OpenBabel12092121193D

  0  0  0     0  0            999 V3000
M  V30 BEGIN CTAB
M  V30 COUNTS 5393 5468 0 0 0
M  V30 BEGIN ATOM
M  V30 1 H -0.908 1.98254 -0.117106 0
M  V30 2 N 0 1.576 0 0
M  V30 3 C 0.933 2.03868 1.02534 0
M  V30 4 C 1.911 0.928543 1.3348 0
M  V30 5 O 3.095 1.19667 1.45644 0
M  V30 6 C 0.222 2.43627 2.35294 0
M  V30 7 C -0.732 3.65373 2.2001 0
M  V30 8 S 0.101 5.13292 1.52614 0
M  V30 9 C 1.257 5.56322 2.86805 0
M  V30 10 H 1.49 2.90518 0.631377 0
M  V30 11 H -0.977 1.52953 0.210867 0
M  V30 12 H 0.981 2.67203 3.11629 0
M  V30 13 H -0.358 1.57376 2.7183 0
M  V30 14 H -1.165 3.90944 3.18086 0
M  V30 15 H -1.563 3.418 1.51819 0
M  V30 16 H 0.729 5.58782 3.83104 0
M  V30 17 H 1.672 6.56266 2.65933 0
M  V30 18 H 2.08 4.83886 2.90714 0
M  V30 19 N 1.4781 -0.272755 1.55222 0
M  V30 20 C 2.3881 -1.35918 1.91216 0
M  V30 21 C 3.4041 -1.54026 0.809436 0
M  V30 22 O 4.5801 -1.68148 1.10852 0
M  V30 23 C 1.6451 -2.69834 2.17693 0
M  V30 24 C 0.7061 -2.6047 3.41253 0
M  V30 25 C -0.0609 -3.88 3.66458 0
M  V30 26 O 0.1621 -4.88693 2.94169 0
M  V30 27 O -0.9039 -3.88189 4.59992 0
M  V30 28 H 2.9221 -1.0839 2.83699 0
M  V30 29 H 0.5071 -0.471301 1.41771 0
M  V30 30 H 2.3891 -3.49017 2.36147 0
M  V30 31 H 1.0641 -2.97148 1.28392 0
M  V30 32 H -0.0289 -1.79663 3.28134 0
M  V30 33 H 1.3041 -2.38106 4.30774 0
M  V30 34 N 2.9562 -1.48159 -0.537278 0
M  V30 35 C 4.3722 -1.34118 -0.865129 0
M  V30 36 C 4.5722 -0.346678 -1.98495 0
M  V30 37 O 3.6282 0.234715 -2.51407 0
M  V30 38 C 4.9412 -2.73963 -1.23954 0
M  V30 39 C 6.4892 -2.82397 -1.34984 0
M  V30 40 C 6.9642 -4.22928 -1.75772 0
M  V30 41 N 8.4552 -4.25566 -1.82887 0
M  V30 42 C 9.1902 -5.31235 -2.15817 0
M  V30 43 N 8.6862 -6.47189 -2.47222 0
M  V30 44 N 10.4792 -5.18624 -2.16761 0
M  V30 45 H 2.6302 -2.1144 0.201715 0
M  V30 46 H 4.8932 -0.947598 0.0275949 0
M  V30 47 H 4.5992 -3.48264 -0.490381 0
M  V30 48 H 4.4732 -3.0702 -2.19132 0
M  V30 49 H 6.8602 -2.08356 -2.08978 0
M  V30 50 H 6.9412 -2.5297 -0.379448 0
M  V30 51 H 6.5852 -4.97482 -1.02341 0
M  V30 52 H 6.5152 -4.49794 -2.73848 0
M  V30 53 H 9.0062 -3.41924 -1.60924 0
M  V30 54 H 9.3192 -7.23564 -2.71433 0
M  V30 55 H 7.6642 -6.50476 -2.44757 0
M  V30 56 H 10.8552 -4.27056 -1.91679 0
M  V30 57 H 11.0282 -6.01078 -2.42093 0
M  V30 58 N 4.4343 0.785586 -1.36625 0
M  V30 59 C 5.8503 1.08419 -1.17122 0
M  V30 60 C 6.0503 2.015 0.00208491 0
M  V30 61 O 5.1063 2.43551 0.666278 0
M  V30 62 C 6.4193 1.69498 -2.48377 0
M  V30 63 C 7.9673 1.81821 -2.54775 0
M  V30 64 C 8.4423 2.46315 -3.86126 0
M  V30 65 N 9.9333 2.53779 -3.87492 0
M  V30 66 C 10.6683 3.045 -4.85868 0
M  V30 67 N 10.1643 3.55499 -5.94637 0
M  V30 68 N 11.9573 3.03247 -4.73284 0
M  V30 69 H 4.1083 0.167264 -2.1174 0
M  V30 70 H 6.3713 0.13682 -0.938075 0
M  V30 71 H 6.0773 1.08571 -3.34522 0
M  V30 72 H 5.9513 2.6896 -2.64462 0
M  V30 73 H 8.3383 2.41884 -1.69045 0
M  V30 74 H 8.4193 0.811532 -2.42586 0
M  V30 75 H 8.0633 1.86895 -4.72263 0
M  V30 76 H 7.9933 3.47561 -3.95612 0
M  V30 77 H 10.4843 2.17672 -3.08913 0
M  V30 78 H 10.7973 3.92562 -6.65669 0
M  V30 79 H 9.1423 3.5364 -5.98301 0
M  V30 80 H 12.3333 2.62696 -3.87438 0
M  V30 81 H 12.5063 3.42467 -5.50109 0
M  V30 82 N 5.9124 1.20967 1.01018 0
M  V30 83 C 6.8754 0.965918 2.07853 0
M  V30 84 C 7.8754 -0.0610545 1.60684 0
M  V30 85 O 9.0654 0.175681 1.73312 0
M  V30 86 C 6.1974 0.455513 3.37843 0
M  V30 87 H 7.3904 1.91365 2.3091 0
M  V30 88 H 4.9434 1.02594 1.17916 0
M  V30 89 H 5.6784 -0.497381 3.20463 0
M  V30 90 H 5.4634 1.19622 3.73407 0
M  V30 91 H 6.9534 0.304667 4.16487 0
M  V30 92 N 7.3905 -1.2043 1.01659 0
M  V30 93 C 8.6155 -1.94318 0.724942 0
M  V30 94 C 9.0405 -1.74266 -0.708034 0
M  V30 95 O 8.3985 -1.03694 -1.48719 0
M  V30 96 C 8.4465 -3.44486 1.06591 0
M  V30 97 O 7.5505 -4.12017 0.177599 0
M  V30 98 H 6.8915 -0.60708 0.26898 0
M  V30 99 H 9.4215 -1.52861 1.35995 0
M  V30 100 H 9.4315 -3.95106 1.01762 0
M  V30 101 H 8.1065 -3.58404 2.10997 0
M  V30 102 H 6.6835 -3.71821 0.283421 0
M  V30 103 N 8.8686 -0.792821 -1.36206 0
M  V30 104 C 9.7786 -0.194808 -2.3379 0
M  V30 105 C 10.7946 0.654869 -1.61206 0
M  V30 106 O 11.9706 0.569856 -1.9317 0
M  V30 107 C 9.0356 0.657721 -3.40404 0
M  V30 108 C 8.0966 -0.210849 -4.28782 0
M  V30 109 C 7.3296 0.601086 -5.30304 0
M  V30 110 O 7.5526 1.83682 -5.40016 0
M  V30 111 O 6.4866 -0.000808277 -6.019 0
M  V30 112 H 10.3126 -1.00172 -2.86704 0
M  V30 113 H 7.8976 -0.554341 -1.38735 0
M  V30 114 H 9.7796 1.14375 -4.05581 0
M  V30 115 H 8.4546 1.44247 -2.89784 0
M  V30 116 H 7.3616 -0.743714 -3.66633 0
M  V30 117 H 8.6946 -0.959195 -4.82763 0
M  V30 118 N 10.3467 1.47872 -0.545128 0
M  V30 119 C 11.5747 2.06889 -0.021084 0
M  V30 120 C 11.9897 1.39955 1.2672 0
M  V30 121 O 11.3467 0.492036 1.75742 0
M  V30 122 C 11.3977 3.60996 0.190817 0
M  V30 123 O 11.1187 4.25419 -1.04644 0
M  V30 124 C 12.6197 4.36849 0.753521 0
M  V30 125 H 9.8397 0.669785 -0.0403635 0
M  V30 126 H 12.3837 1.90049 -0.755095 0
M  V30 127 H 10.5387 3.77391 0.87492 0
M  V30 128 H 10.9527 5.17785 -0.836611 0
M  V30 129 H 12.4267 5.45399 0.851139 0
M  V30 130 H 12.9037 4.02306 1.762 0
M  V30 131 H 13.5097 4.25169 0.105503 0
M  V30 132 N 11.8248 0.280983 1.55075 0
M  V30 133 C 13.2358 -0.215629 1.85451 0
M  V30 134 C 13.5868 -1.54991 1.203 0
M  V30 135 O 12.7118 -2.10699 0.493435 0
M  V30 136 C 13.3068 -0.398026 3.36454 0
M  V30 137 C 11.8658 -0.838866 3.66933 0
M  V30 138 C 11.0128 0.064458 2.77225 0
M  V30 139 H 13.9638 0.502601 1.50531 0
M  V30 140 H 13.9848 -1.23569 3.59876 0
M  V30 141 H 13.4968 0.573241 3.83843 0
M  V30 142 H 11.5978 -1.8214 3.25048 0
M  V30 143 H 11.7108 -0.672123 4.74362 0
M  V30 144 H 10.0748 -0.452863 2.50642 0
M  V30 145 H 10.8578 1.03172 3.2743 0
M  V30 146 N 13.3029 -1.57598 0.00835791 0
M  V30 147 C 14.2129 -2.12385 -0.996487 0
M  V30 148 C 15.2289 -1.07108 -1.37127 0
M  V30 149 O 16.4049 -1.39055 -1.4569 0
M  V30 150 C 13.4699 -2.62314 -2.26699 0
M  V30 151 C 12.5309 -3.82225 -1.95456 0
M  V30 152 C 11.7639 -4.29763 -3.16449 0
M  V30 153 O 11.9869 -3.76584 -4.28416 0
M  V30 154 O 10.9209 -5.21832 -2.99958 0
M  V30 155 H 14.7469 -2.98479 -0.560725 0
M  V30 156 H 12.3319 -1.47903 -0.210987 0
M  V30 157 H 14.2139 -2.94589 -3.01322 0
M  V30 158 H 12.8889 -1.79313 -2.69497 0
M  V30 159 H 11.7959 -3.54909 -1.18282 0
M  V30 160 H 13.1289 -4.66324 -1.57489 0
M  V30 161 N 14.781 0.264519 -1.55364 0
M  V30 162 C 16.058 1.01677 -1.67096 0
M  V30 163 C 16.438 2.03996 -0.543015 0
M  V30 164 O 15.786 2.23907 0.45585 0
M  V30 165 C 15.996 1.66596 -3.0667 0
M  V30 166 C 17.344 2.17442 -3.64697 0
M  V30 167 O 18.368 1.76568 -3.09358 0
M  V30 168 O 17.227 2.92439 -4.61673 0
M  V30 169 H 14.321 0.472161 -0.678965 0
M  V30 170 H 16.867 0.259703 -1.67701 0
M  V30 171 H 15.639 0.924962 -3.80211 0
M  V30 172 H 15.262 2.48968 -3.10001 0
M  V30 173 N 16.2591 1.48442 0.529413 0
M  V30 174 C 17.5071 1.56179 1.28267 0
M  V30 175 C 17.8281 0.237721 1.93546 0
M  V30 176 O 17.0981 -0.740779 1.81354 0
M  V30 177 H 15.6781 0.575367 0.476405 0
M  V30 178 H 18.3401 1.84909 0.61602 0
M  V30 179 H 17.4361 2.34312 2.06165 0
M  V30 180 N 17.7372 -0.778329 1.37039 0
M  V30 181 C 19.0142 -1.52551 1.22424 0
M  V30 182 C 19.3942 -2.10288 -0.184964 0
M  V30 183 O 18.7422 -1.94953 -1.19187 0
M  V30 184 C 18.9522 -2.61164 2.31504 0
M  V30 185 C 20.3002 -3.28746 2.68721 0
M  V30 186 O 21.3242 -2.71455 2.30631 0
M  V30 187 O 20.1832 -4.3231 3.3432 0
M  V30 188 H 17.2772 -0.675343 0.477326 0
M  V30 189 H 19.8232 -0.815859 1.48801 0
M  V30 190 H 18.5952 -2.16574 3.25901 0
M  V30 191 H 18.2182 -3.39737 2.06554 0
M  V30 192 N 19.2153 -1.21501 -1.00376 0
M  V30 193 C 20.6263 -1.03146 -1.55621 0
M  V30 194 C 20.9773 0.408375 -1.91903 0
M  V30 195 O 20.1023 1.29177 -1.73616 0
M  V30 196 C 20.6973 -1.86612 -2.82775 0
M  V30 197 C 19.2563 -1.72586 -3.34501 0
M  V30 198 C 18.4033 -1.83747 -2.07683 0
M  V30 199 H 21.3543 -1.35505 -0.826081 0
M  V30 200 H 21.3753 -1.3771 -3.54706 0
M  V30 201 H 20.8873 -2.91399 -2.56336 0
M  V30 202 H 18.9883 -0.704877 -3.65872 0
M  V30 203 H 19.1013 -2.54623 -4.05837 0
M  V30 204 H 17.4653 -1.27069 -2.20739 0
M  V30 205 H 18.2483 -2.90044 -1.83655 0
M  V30 206 N 20.6934 1.19889 -1.02296 0
M  V30 207 C 21.6034 2.26571 -0.608508 0
M  V30 208 C 22.6194 1.70299 0.356964 0
M  V30 209 O 23.7954 2.00235 0.216326 0
M  V30 210 C 20.8604 3.46677 0.0402814 0
M  V30 211 C 19.9214 4.18153 -0.97194 0
M  V30 212 C 19.1544 5.32525 -0.354016 0
M  V30 213 O 19.3774 5.64112 0.844604 0
M  V30 214 O 18.3114 5.92242 -1.07391 0
M  V30 215 H 22.1374 2.64251 -1.49684 0
M  V30 216 H 19.7224 1.26629 -0.792809 0
M  V30 217 H 21.6044 4.19475 0.402324 0
M  V30 218 H 20.2794 3.10858 0.902707 0
M  V30 219 H 19.1864 3.47499 -1.38546 0
M  V30 220 H 20.5194 4.57927 -1.80454 0
M  V30 221 N 22.1715 0.800033 1.35784 0
M  V30 222 C 23.0815 0.207204 2.33683 0
M  V30 223 C 24.0975 -0.64631 1.61551 0
M  V30 224 O 25.2735 -0.559604 1.93469 0
M  V30 225 C 22.3385 -0.639659 3.40748 0
M  V30 226 C 21.3995 0.233585 4.28664 0
M  V30 227 C 20.6325 -0.572954 5.30616 0
M  V30 228 O 20.8555 -1.80816 5.40982 0
M  V30 229 O 19.7895 0.0327285 6.01891 0
M  V30 230 H 23.6155 1.01692 2.86169 0
M  V30 231 H 21.2005 0.561691 1.38439 0
M  V30 232 H 23.0825 -1.12223 4.06182 0
M  V30 233 H 21.7575 -1.42708 2.90544 0
M  V30 234 H 20.6645 0.763147 3.66233 0
M  V30 235 H 21.9975 0.984784 4.82248 0
M  V30 236 N 23.6496 -1.47581 0.552962 0
M  V30 237 C 24.9266 -1.95563 -0.0381515 0
M  V30 238 C 25.3066 -1.49552 -1.48988 0
M  V30 239 O 24.6546 -0.732414 -2.16444 0
M  V30 240 C 24.8646 -3.48848 0.102919 0
M  V30 241 C 26.2126 -4.24577 -0.0446082 0
M  V30 242 O 27.2366 -3.56187 0.0302548 0
M  V30 243 O 26.0956 -5.46116 -0.204923 0
M  V30 244 H 23.1896 -0.824321 -0.0665067 0
M  V30 245 H 25.7356 -1.58001 0.619186 0
M  V30 246 H 24.5076 -3.75129 1.11328 0
M  V30 247 H 24.1306 -3.93165 -0.592224 0
M  V30 248 N 25.1277 -0.289203 -1.54924 0
M  V30 249 C 26.3557 0.326463 -2.04308 0
M  V30 250 C 26.7707 1.48413 -1.16701 0
M  V30 251 O 26.1277 1.81507 -0.190087 0
M  V30 252 C 26.1787 0.794014 -3.52672 0
M  V30 253 O 25.8997 -0.317564 -4.36948 0
M  V30 254 C 27.4007 1.47605 -4.18004 0
M  V30 255 H 24.6207 0.0726272 -0.667058 0
M  V30 256 H 27.1647 -0.425401 -2.00026 0
M  V30 257 H 25.3197 1.49593 -3.57352 0
M  V30 258 H 25.7337 0.0443186 -5.24481 0
M  V30 259 H 27.2077 1.75447 -5.23376 0
M  V30 260 H 27.6847 2.41224 -3.67025 0
M  V30 261 H 28.2907 0.81762 -4.17367 0
M  V30 262 N 26.6058 1.57591 -0.0167156 0
M  V30 263 C 27.5688 2.08393 0.954204 0
M  V30 264 C 28.5688 0.996531 1.26198 0
M  V30 265 O 29.7588 1.25858 1.20438 0
M  V30 266 C 26.8908 2.5394 2.27436 0
M  V30 267 H 28.0838 2.95455 0.514451 0
M  V30 268 H 25.6368 1.54582 0.231089 0
M  V30 269 H 26.3718 1.70171 2.76066 0
M  V30 270 H 26.1568 3.33371 2.06412 0
M  V30 271 H 27.6468 2.93512 2.97053 0
M  V30 272 N 28.0839 -0.256276 1.55502 0
M  V30 273 C 29.3119 -1.00342 1.8094 0
M  V30 274 C 29.7269 -1.79307 0.59114 0
M  V30 275 O 29.0839 -1.77114 -0.440081 0
M  V30 276 C 29.1349 -1.94875 3.04476 0
M  V30 277 O 28.8559 -1.19107 4.21598 0
M  V30 278 C 30.3569 -2.81266 3.42644 0
M  V30 279 H 27.5769 -0.295685 0.602338 0
M  V30 280 H 30.1209 -0.281998 2.02546 0
M  V30 281 H 28.2759 -2.62457 2.84947 0
M  V30 282 H 28.6899 -1.82969 4.91551 0
M  V30 283 H 30.1639 -3.43362 4.32211 0
M  V30 284 H 30.6409 -3.51897 2.62802 0
M  V30 285 H 31.2469 -2.1915 3.64491 0
M  V30 286 N 29.562 -1.4872 -0.521534 0
M  V30 287 C 30.525 -1.63379 -1.60748 0
M  V30 288 C 31.525 -0.50661 -1.52611 0
M  V30 289 O 32.715 -0.772601 -1.5613 0
M  V30 290 C 29.847 -1.61192 -3.00383 0
M  V30 291 H 31.04 -2.60217 -1.49087 0
M  V30 292 H 28.593 -1.37444 -0.744235 0
M  V30 293 H 29.328 -0.65863 -3.17541 0
M  V30 294 H 29.113 -2.43032 -3.07698 0
M  V30 295 H 30.603 -1.7466 -3.7932 0
M  V30 296 N 31.0401 0.771051 -1.3745 0
M  V30 297 C 31.9701 1.89827 -1.3597 0
M  V30 298 C 32.9511 1.68562 -0.228216 0
M  V30 299 O 34.1361 1.8941 -0.428675 0
M  V30 300 C 31.2661 3.2712 -1.16662 0
M  V30 301 C 30.2201 3.6295 -2.2683 0
M  V30 302 C 29.5461 4.98791 -1.92644 0
M  V30 303 C 30.8461 3.69627 -3.69017 0
M  V30 304 H 32.5401 1.91323 -2.30295 0
M  V30 305 H 30.0861 0.919082 -1.10855 0
M  V30 306 H 32.0391 4.05615 -1.14256 0
M  V30 307 H 30.7631 3.26059 -0.187926 0
M  V30 308 H 29.4221 2.86763 -2.28392 0
M  V30 309 H 29.0701 4.94271 -0.933021 0
M  V30 310 H 28.7701 5.23733 -2.66416 0
M  V30 311 H 30.2941 5.79685 -1.91826 0
M  V30 312 H 31.7081 4.38273 -3.69581 0
M  V30 313 H 30.1051 4.06067 -4.41848 0
M  V30 314 H 31.1751 2.70273 -4.02592 0
M  V30 315 N 32.5182 1.22032 0.997298 0
M  V30 316 C 33.4502 0.944263 2.08845 0
M  V30 317 C 34.4632 -0.0754663 1.62625 0
M  V30 318 O 35.6522 0.157994 1.77799 0
M  V30 319 C 32.7522 0.397723 3.36558 0
M  V30 320 C 31.9252 1.47362 4.11829 0
M  V30 321 C 30.9842 0.934951 5.17827 0
M  V30 322 O 30.0102 1.62016 5.45655 0
M  V30 323 N 31.2122 -0.245895 5.79979 0
M  V30 324 H 33.9772 1.88363 2.33109 0
M  V30 325 H 31.5382 1.12661 1.16272 0
M  V30 326 H 33.5302 0.0227771 4.04694 0
M  V30 327 H 32.1002 -0.446646 3.09393 0
M  V30 328 H 31.3202 2.02208 3.38386 0
M  V30 329 H 32.6082 2.19764 4.58891 0
M  V30 330 H 32.0062 -0.819475 5.59733 0
M  V30 331 H 30.5632 -0.562272 6.4937 0
M  V30 332 N 33.9963 -1.19345 1.0293 0
M  V30 333 C 35.4123 -1.41069 0.746446 0
M  V30 334 C 35.6123 -1.90078 -0.668776 0
M  V30 335 O 34.6683 -2.0778 -1.4347 0
M  V30 336 C 35.9813 -2.42141 1.78292 0
M  V30 337 C 37.5293 -2.55887 1.80252 0
M  V30 338 C 38.0043 -3.60214 2.8286 0
M  V30 339 N 39.4953 -3.67711 2.81679 0
M  V30 340 C 40.2303 -4.48128 3.57727 0
M  V30 341 N 39.7263 -5.32248 4.43491 0
M  V30 342 N 41.5193 -4.42782 3.46267 0
M  V30 343 H 33.6703 -0.858536 1.94275 0
M  V30 344 H 35.9333 -0.439541 0.839945 0
M  V30 345 H 35.6393 -2.13155 2.79746 0
M  V30 346 H 35.5133 -3.41323 1.60557 0
M  V30 347 H 37.9003 -2.84196 0.794757 0
M  V30 348 H 37.9813 -1.56858 2.02062 0
M  V30 349 H 37.6253 -3.32647 3.83807 0
M  V30 350 H 37.5553 -4.58895 2.58307 0
M  V30 351 H 40.0463 -3.07634 2.19476 0
M  V30 352 H 40.3593 -5.90729 4.98256 0
M  V30 353 H 38.7043 -5.31707 4.47564 0
M  V30 354 H 41.8953 -3.76107 2.78677 0
M  V30 355 H 42.0683 -5.05215 4.05785 0
M  V30 356 N 35.4744 -0.807222 -1.35358 0
M  V30 357 C 36.4044 -0.232509 -2.3234 0
M  V30 358 C 37.3854 0.642386 -1.57504 0
M  V30 359 O 38.5704 0.572526 -1.85569 0
M  V30 360 C 35.7004 0.619238 -3.41735 0
M  V30 361 C 34.6544 -0.157215 -4.27711 0
M  V30 362 C 33.9804 0.816273 -5.28433 0
M  V30 363 C 35.2804 -1.35656 -5.04376 0
M  V30 364 H 36.9744 -1.04276 -2.80654 0
M  V30 365 H 34.5204 -0.50288 -1.34934 0
M  V30 366 H 36.4734 1.03137 -4.08584 0
M  V30 367 H 35.1974 1.46239 -2.92031 0
M  V30 368 H 33.8564 -0.550525 -3.62443 0
M  V30 369 H 33.5044 1.65494 -4.74996 0
M  V30 370 H 33.2044 0.301067 -5.86828 0
M  V30 371 H 34.7284 1.22659 -5.98153 0
M  V30 372 H 36.1424 -1.01927 -5.64166 0
M  V30 373 H 34.5394 -1.8063 -5.7227 0
M  V30 374 H 35.6094 -2.14288 -4.34981 0
M  V30 375 N 36.9525 1.47285 -0.560781 0
M  V30 376 C 38.1985 2.02764 -0.0381184 0
M  V30 377 C 38.5315 1.43384 1.30976 0
M  V30 378 O 37.8065 0.590733 1.85312 0
M  V30 379 C 38.0895 3.60064 0.0511427 0
M  V30 380 C 37.9425 4.2987 -1.32408 0
M  V30 381 C 39.2615 4.33439 0.762795 0
M  V30 382 H 36.3805 0.736841 -0.0153264 0
M  V30 383 H 39.0225 1.75675 -0.723759 0
M  V30 384 H 37.1725 3.83274 0.635065 0
M  V30 385 H 38.8445 4.17989 -1.95148 0
M  V30 386 H 37.0875 3.90085 -1.8978 0
M  V30 387 H 37.7585 5.38478 -1.21431 0
M  V30 388 H 40.2345 4.15243 0.266965 0
M  V30 389 H 39.1105 5.43124 0.794221 0
M  V30 390 H 39.3715 4.02915 1.81966 0
M  V30 391 N 38.4306 0.297415 1.54768 0
M  V30 392 C 39.3406 -0.58983 2.27064 0
M  V30 393 C 40.3566 -1.15144 1.30453 0
M  V30 394 O 41.5326 -1.17699 1.63428 0
M  V30 395 C 38.5976 -1.74714 2.9946 0
M  V30 396 C 37.6586 -1.21997 4.11601 0
M  V30 397 C 36.8916 -2.32212 4.80535 0
M  V30 398 O 37.1146 -3.52036 4.48806 0
M  V30 399 O 36.0486 -1.99106 5.68014 0
M  V30 400 H 39.8746 -0.00348199 3.037 0
M  V30 401 H 37.4596 0.0640035 1.49263 0
M  V30 402 H 39.3416 -2.42147 3.44881 0
M  V30 403 H 38.0166 -2.32016 2.25722 0
M  V30 404 H 36.9236 -0.511458 3.70587 0
M  V30 405 H 38.2566 -0.692419 4.87305 0
M  V30 406 N 39.9087 -1.5758 0.0250728 0
M  V30 407 C 40.8387 -2.13007 -0.956575 0
M  V30 408 C 41.8197 -1.0452 -1.342 0
M  V30 409 O 43.0047 -1.32332 -1.42133 0
M  V30 410 C 40.1347 -2.65386 -2.24026 0
M  V30 411 C 39.0887 -3.78623 -1.99571 0
M  V30 412 C 38.4147 -4.17414 -3.3417 0
M  V30 413 C 39.7147 -5.04867 -1.33814 0
M  V30 414 H 41.4087 -2.9528 -0.494991 0
M  V30 415 H 38.9547 -1.42042 -0.236651 0
M  V30 416 H 40.9077 -3.02794 -2.93076 0
M  V30 417 H 39.6317 -1.80268 -2.72343 0
M  V30 418 H 38.2907 -3.41646 -1.32941 0
M  V30 419 H 37.9387 -3.29284 -3.80238 0
M  V30 420 H 37.6387 -4.93719 -3.18615 0
M  V30 421 H 39.1627 -4.57402 -4.04495 0
M  V30 422 H 40.5767 -5.39888 -1.92857 0
M  V30 423 H 38.9737 -5.86144 -1.28669 0
M  V30 424 H 40.0437 -4.83904 -0.310561 0
M  V30 425 N 41.3868 0.248026 -1.55636 0
M  V30 426 C 42.6148 0.993808 -1.81469 0
M  V30 427 C 43.0298 1.78991 -0.60064 0
M  V30 428 O 42.3868 1.77345 0.430682 0
M  V30 429 C 42.4378 1.93258 -3.05506 0
M  V30 430 O 42.1588 1.16869 -4.22224 0
M  V30 431 C 43.6598 2.79444 -3.4413 0
M  V30 432 H 40.8798 0.292486 -0.603898 0
M  V30 433 H 43.4238 0.271253 -2.02693 0
M  V30 434 H 41.5788 2.60943 -2.86335 0
M  V30 435 H 41.9928 1.80359 -4.92515 0
M  V30 436 H 43.4668 3.41066 -4.34026 0
M  V30 437 H 43.9438 3.50499 -2.64665 0
M  V30 438 H 44.5498 2.17214 -3.65648 0
M  V30 439 N 42.8649 1.48995 0.513639 0
M  V30 440 C 44.0929 1.61531 1.29288 0
M  V30 441 C 44.5079 0.281801 1.86685 0
M  V30 442 O 43.8649 -0.731111 1.67215 0
M  V30 443 C 43.9159 2.67449 2.43215 0
M  V30 444 O 43.6369 3.95626 1.88179 0
M  V30 445 C 45.1379 2.90575 3.34785 0
M  V30 446 H 42.3579 0.544165 0.392588 0
M  V30 447 H 44.9019 1.9494 0.617956 0
M  V30 448 H 43.0569 2.36853 3.0656 0
M  V30 449 H 43.4709 4.53868 2.62876 0
M  V30 450 H 44.9449 3.68449 4.11035 0
M  V30 451 H 45.4219 2.00011 3.91015 0
M  V30 452 H 46.0279 3.22538 2.77218 0
M  V30 453 N 44.343 -0.763751 1.37857 0
M  V30 454 C 45.568 -1.55805 1.36893 0
M  V30 455 C 45.993 -1.88054 -0.0416135 0
M  V30 456 O 45.351 -1.49825 -1.02089 0
M  V30 457 C 45.399 -2.84012 2.22192 0
M  V30 458 O 44.503 -3.78732 1.63204 0
M  V30 459 H 43.844 -0.471638 0.46739 0
M  V30 460 H 46.374 -0.944657 1.81487 0
M  V30 461 H 46.384 -3.33037 2.35691 0
M  V30 462 H 45.059 -2.59869 3.24716 0
M  V30 463 H 43.636 -3.37402 1.58791 0
M  V30 464 N 45.8211 -1.22559 -0.990812 0
M  V30 465 C 47.2371 -0.985996 -1.255 0
M  V30 466 C 47.4371 0.319173 -1.98956 0
M  V30 467 O 46.4931 1.04127 -2.3003 0
M  V30 468 C 47.8061 -2.18607 -2.06474 0
M  V30 469 C 49.3541 -2.22985 -2.19651 0
M  V30 470 C 49.8291 -3.4255 -3.04012 0
M  V30 471 N 51.3201 -3.42725 -3.11599 0
M  V30 472 C 52.0551 -4.31892 -3.7717 0
M  V30 473 N 51.5511 -5.31279 -4.44651 0
M  V30 474 N 53.3441 -4.19662 -3.73952 0
M  V30 475 H 45.4951 -2.06469 -0.49841 0
M  V30 476 H 47.7581 -0.904853 -0.282747 0
M  V30 477 H 47.4641 -3.13267 -1.59865 0
M  V30 478 H 47.3381 -2.18838 -3.07229 0
M  V30 479 H 49.7251 -1.28871 -2.65474 0
M  V30 480 H 49.8061 -2.26791 -1.18319 0
M  V30 481 H 49.4501 -4.36965 -2.58889 0
M  V30 482 H 49.3801 -3.35984 -4.0549 0
M  V30 483 H 51.8711 -2.70807 -2.63575 0
M  V30 484 H 52.1841 -5.95593 -4.92431 0
M  V30 485 H 50.5291 -5.3519 -4.43392 0
M  V30 486 H 53.7201 -3.41268 -3.20396 0
M  V30 487 H 53.8931 -4.89358 -4.24774 0
M  V30 488 N 47.2992 1.18797 -1.03562 0
M  V30 489 C 48.5452 1.8893 -0.737113 0
M  V30 490 C 48.8782 1.79837 0.732956 0
M  V30 491 O 48.1532 1.19525 1.5344 0
M  V30 492 C 48.4362 3.39607 -1.19745 0
M  V30 493 C 48.2892 3.57537 -2.72924 0
M  V30 494 C 49.6082 4.33069 -0.783526 0
M  V30 495 H 46.7272 0.686057 -0.269249 0
M  V30 496 H 49.3692 1.39797 -1.28673 0
M  V30 497 H 47.5192 3.81583 -0.729855 0
M  V30 498 H 49.1912 3.24688 -3.27682 0
M  V30 499 H 47.4342 3.00363 -3.12993 0
M  V30 500 H 48.1052 4.63238 -3.00191 0
M  V30 501 H 50.5812 3.98846 -1.18581 0
M  V30 502 H 49.4572 5.3707 -1.13343 0
M  V30 503 H 49.7182 4.40986 0.313681 0
M  V30 504 N 48.7773 0.814389 1.34928 0
M  V30 505 C 50.0053 0.411136 2.02774 0
M  V30 506 C 50.4203 -0.980316 1.61354 0
M  V30 507 O 49.7773 -1.63299 0.814847 0
M  V30 508 C 49.8283 0.493865 3.58111 0
M  V30 509 O 49.5493 1.83047 3.98027 0
M  V30 510 C 51.0503 0.0844174 4.4322 0
M  V30 511 H 48.2703 0.166037 0.650133 0
M  V30 512 H 50.8143 1.10018 1.72384 0
M  V30 513 H 48.9693 -0.147006 3.87121 0
M  V30 514 H 49.3833 1.79872 4.92693 0
M  V30 515 H 50.8573 0.193404 5.51661 0
M  V30 516 H 51.3343 -0.97113 4.28329 0
M  V30 517 H 51.9403 0.69875 4.19521 0
M  V30 518 N 50.2554 -1.46986 0.568584 0
M  V30 519 C 51.6664 -1.86188 0.138219 0
M  V30 520 C 52.0174 -1.47388 -1.29504 0
M  V30 521 O 51.1424 -0.88219 -1.97602 0
M  V30 522 C 51.7374 -3.3792 0.244065 0
M  V30 523 C 50.2964 -3.76171 -0.131335 0
M  V30 524 C 49.4434 -2.71027 0.586465 0
M  V30 525 H 52.3944 -1.38342 0.777645 0
M  V30 526 H 52.4154 -3.76729 -0.534351 0
M  V30 527 H 51.9274 -3.66128 1.28731 0
M  V30 528 H 50.0284 -3.5358 -1.17526 0
M  V30 529 H 50.1414 -4.78523 0.235146 0
M  V30 530 H 48.5054 -2.54684 0.0282722 0
M  V30 531 H 49.2884 -3.02077 1.63109 0
M  V30 532 N 51.7335 -0.305618 -1.54608 0
M  V30 533 C 52.9795 0.302746 -2.00528 0
M  V30 534 C 53.3125 1.53184 -1.19367 0
M  V30 535 O 52.5875 1.92598 -0.271321 0
M  V30 536 C 52.8705 0.654756 -3.54097 0
M  V30 537 C 52.7235 -0.583793 -4.45995 0
M  V30 538 C 54.0425 1.47947 -4.14487 0
M  V30 539 H 51.1615 0.108564 -0.72896 0
M  V30 540 H 53.8035 -0.418634 -1.85331 0
M  V30 541 H 51.9535 1.26935 -3.67178 0
M  V30 542 H 53.6255 -1.22224 -4.44814 0
M  V30 543 H 51.8685 -1.21615 -4.16404 0
M  V30 544 H 52.5395 -0.293287 -5.5122 0
M  V30 545 H 55.0155 0.96013 -4.04871 0
M  V30 546 H 53.8915 1.69454 -5.22088 0
M  V30 547 H 54.1525 2.47011 -3.66658 0
M  V30 548 N 53.2116 1.57565 -0.0334293 0
M  V30 549 C 54.6276 1.56297 0.322997 0
M  V30 550 C 54.8276 1.03945 1.7262 0
M  V30 551 O 53.8836 0.688109 2.42943 0
M  V30 552 C 55.1966 3.00232 0.167664 0
M  V30 553 C 56.7446 3.12078 0.240107 0
M  V30 554 C 57.2196 4.57859 0.113513 0
M  V30 555 N 58.7106 4.62887 0.170359 0
M  V30 556 C 59.4456 5.73319 0.0962517 0
M  V30 557 N 58.9416 6.92794 -0.0291881 0
M  V30 558 N 60.7346 5.61898 0.150551 0
M  V30 559 H 52.8856 1.89923 -0.950956 0
M  V30 560 H 55.1486 0.873824 -0.367608 0
M  V30 561 H 54.8546 3.42501 -0.799102 0
M  V30 562 H 54.7286 3.654 0.936083 0
M  V30 563 H 57.1156 2.69718 1.19733 0
M  V30 564 H 57.1966 2.49623 -0.558763 0
M  V30 565 H 56.8406 5.009 -0.840314 0
M  V30 566 H 56.7706 5.18299 0.931302 0
M  V30 567 H 59.2616 3.76954 0.26728 0
M  V30 568 H 59.5746 7.7276 -0.0789252 0
M  V30 569 H 57.9196 6.94971 -0.0640299 0
M  V30 570 H 61.1106 4.67448 0.246981 0
M  V30 571 H 61.2836 6.47938 0.0893365 0
M  V30 572 N 54.6897 -0.239769 1.55765 0
M  V30 573 C 55.9147 -0.988373 1.82335 0
M  V30 574 C 56.3397 -1.77886 0.611421 0
M  V30 575 O 55.6977 -1.75889 -0.439639 0
M  V30 576 C 55.7457 -1.89627 3.06715 0
M  V30 577 O 54.8497 -2.98904 2.84131 0
M  V30 578 H 54.1907 -0.280858 0.601677 0
M  V30 579 H 56.7207 -0.258597 2.02959 0
M  V30 580 H 56.7307 -2.30957 3.36338 0
M  V30 581 H 55.4057 -1.31511 3.9456 0
M  V30 582 H 53.9827 -2.61651 2.65694 0
M  V30 583 N 56.1678 -1.49265 -0.50573 0
M  V30 584 C 57.0978 -1.68495 -1.61653 0
M  V30 585 C 58.0788 -0.53366 -1.61512 0
M  V30 586 O 59.2638 -0.76897 -1.78327 0
M  V30 587 C 56.3938 -1.74709 -3.00157 0
M  V30 588 C 55.3478 -2.89581 -3.15162 0
M  V30 589 C 54.6738 -2.80903 -4.5497 0
M  V30 590 C 55.9738 -4.30578 -2.95634 0
M  V30 591 H 57.6678 -2.61493 -1.45814 0
M  V30 592 H 55.2138 -1.25838 -0.70005 0
M  V30 593 H 57.1668 -1.86748 -3.77761 0
M  V30 594 H 55.8908 -0.783067 -3.17074 0
M  V30 595 H 54.5498 -2.77136 -2.39982 0
M  V30 596 H 54.1978 -1.82419 -4.68756 0
M  V30 597 H 53.8978 -3.57999 -4.65951 0
M  V30 598 H 55.4218 -2.94944 -5.34641 0
M  V30 599 H 56.8358 -4.4373 -3.63011 0
M  V30 600 H 55.2328 -5.0886 -3.18091 0
M  V30 601 H 56.3028 -4.45352 -1.91806 0
M  V30 602 N 57.6459 0.756429 -1.3826 0
M  V30 603 C 59.0619 1.0591 -1.19395 0
M  V30 604 C 59.2619 2.01459 -0.0406567 0
M  V30 605 O 58.3179 2.44909 0.614467 0
M  V30 606 C 59.6309 1.64191 -2.51916 0
M  V30 607 C 61.1789 1.76376 -2.58574 0
M  V30 608 C 61.6539 2.38069 -3.91264 0
M  V30 609 N 63.1449 2.45503 -3.92788 0
M  V30 610 C 63.8799 2.94126 -4.92217 0
M  V30 611 N 63.3759 3.42805 -6.02043 0
M  V30 612 N 65.1689 2.9314 -4.7961 0
M  V30 613 H 57.3199 0.122313 -2.12048 0
M  V30 614 H 59.5829 0.116892 -0.940766 0
M  V30 615 H 59.2889 1.01451 -3.3675 0
M  V30 616 H 59.1629 2.6329 -2.70108 0
M  V30 617 H 61.5499 2.38244 -1.74137 0
M  V30 618 H 61.6309 0.759894 -2.44252 0
M  V30 619 H 61.2749 1.76835 -4.76121 0
M  V30 620 H 61.2049 3.39091 -4.02895 0
M  V30 621 H 63.6959 2.1107 -3.13461 0
M  V30 622 H 64.0089 3.78354 -6.73846 0
M  V30 623 H 62.3539 3.4087 -6.05667 0
M  V30 624 H 65.5449 2.54419 -3.92923 0
M  V30 625 H 65.7179 3.30721 -5.5725 0
M  V30 626 N 59.124 1.23083 0.984299 0
M  V30 627 C 60.401 0.9689 1.69917 0
M  V30 628 C 60.781 -0.513604 2.04757 0
M  V30 629 O 60.129 -1.48383 1.73767 0
M  V30 630 C 60.339 1.87518 2.94343 0
M  V30 631 C 61.687 2.13636 3.6694 0
M  V30 632 O 62.711 1.85036 3.04368 0
M  V30 633 O 61.57 2.62119 4.79537 0
M  V30 634 H 58.664 0.365095 0.742048 0
M  V30 635 H 61.21 1.34107 1.03987 0
M  V30 636 H 59.982 2.87756 2.65164 0
M  V30 637 H 59.605 1.50514 3.6801 0
M  V30 638 N 60.6021 -1.18246 1.0419 0
M  V30 639 C 61.5341 -2.2142 0.592088 0
M  V30 640 C 62.5471 -1.59233 -0.338909 0
M  V30 641 O 63.7361 -1.78002 -0.133231 0
M  V30 642 C 60.8361 -3.38546 -0.154854 0
M  V30 643 C 60.0091 -4.3031 0.784328 0
M  V30 644 C 59.0681 -5.26138 0.0804583 0
M  V30 645 O 58.0941 -5.64738 0.711292 0
M  V30 646 N 59.2961 -5.68261 -1.18574 0
M  V30 647 H 62.0611 -2.60636 1.47949 0
M  V30 648 H 59.6221 -1.33044 0.922544 0
M  V30 649 H 61.6141 -3.99678 -0.635606 0
M  V30 650 H 60.1841 -2.98012 -0.943811 0
M  V30 651 H 59.4041 -3.66764 1.44491 0
M  V30 652 H 60.6921 -4.8852 1.42218 0
M  V30 653 H 60.0901 -5.38957 -1.71876 0
M  V30 654 H 58.6471 -6.31584 -1.61074 0
M  V30 655 N 62.0802 -0.821533 -1.34494 0
M  V30 656 C 63.3102 -0.421272 -2.02259 0
M  V30 657 C 63.7182 0.977047 -1.6202 0
M  V30 658 O 63.0612 1.64348 -0.820703 0
M  V30 659 C 63.1232 -0.44231 -3.56769 0
M  V30 660 C 62.7872 -1.79372 -4.20327 0
M  V30 661 C 63.7842 -2.75435 -4.40944 0
M  V30 662 C 61.4692 -2.08182 -4.57127 0
M  V30 663 C 63.4632 -3.98482 -4.97484 0
M  V30 664 C 61.1502 -3.31489 -5.13379 0
M  V30 665 C 62.1482 -4.26457 -5.33501 0
M  V30 666 O 61.8362 -5.47585 -5.88562 0
M  V30 667 H 61.5682 -0.167473 -0.654927 0
M  V30 668 H 64.1222 -1.11073 -1.72777 0
M  V30 669 H 62.3522 0.303836 -3.85505 0
M  V30 670 H 64.0412 -0.0622925 -4.05852 0
M  V30 671 H 64.8072 -2.54473 -4.12878 0
M  V30 672 H 60.6862 -1.35066 -4.4077 0
M  V30 673 H 64.2302 -4.72618 -5.13106 0
M  V30 674 H 60.1272 -3.52316 -5.40873 0
M  V30 675 H 60.8952 -5.49086 -6.06998 0
M  V30 676 N 63.5583 1.46682 -0.576371 0
M  V30 677 C 64.5083 2.27278 0.181288 0
M  V30 678 C 65.4923 1.35497 0.867721 0
M  V30 679 O 66.6843 1.59717 0.762863 0
M  V30 680 C 63.8133 3.21703 1.19841 0
M  V30 681 C 62.8993 4.20969 0.51442 0
M  V30 682 N 63.2903 5.03999 -0.426407 0
M  V30 683 C 61.5883 4.39373 0.765963 0
M  V30 684 C 62.2893 5.75812 -0.825565 0
M  V30 685 N 61.2653 5.43315 -0.176116 0
M  V30 686 H 65.0673 2.88863 -0.541785 0
M  V30 687 H 62.5813 1.57455 -0.397697 0
M  V30 688 H 64.5783 3.78145 1.75533 0
M  V30 689 H 63.2383 2.61677 1.92238 0
M  V30 690 H 64.2493 5.11659 -0.8016 0
M  V30 691 H 60.9263 3.90502 1.47698 0
M  V30 692 H 62.3163 6.52577 -1.59976 0
M  V30 693 N 65.0364 0.313813 1.54444 0
M  V30 694 C 65.9664 -0.549454 2.26943 0
M  V30 695 C 66.9474 -1.12741 1.27372 0
M  V30 696 O 68.1324 -1.15436 1.56167 0
M  V30 697 C 65.2624 -1.71523 3.01989 0
M  V30 698 C 64.2164 -1.26703 4.08816 0
M  V30 699 C 63.5424 -2.51898 4.71647 0
M  V30 700 C 64.8424 -0.388962 5.2085 0
M  V30 701 H 66.5364 0.0552661 2.99349 0
M  V30 702 H 64.0824 0.0280207 1.43973 0
M  V30 703 H 66.0354 -2.32535 3.51433 0
M  V30 704 H 64.7594 -2.34639 2.27183 0
M  V30 705 H 63.4184 -0.679896 3.6024 0
M  V30 706 H 63.0664 -3.13356 3.93468 0
M  V30 707 H 62.7664 -2.22605 5.43802 0
M  V30 708 H 64.2904 -3.1369 5.23861 0
M  V30 709 H 65.7044 -0.905107 5.6611 0
M  V30 710 H 64.1014 -0.18924 5.99802 0
M  V30 711 H 65.1714 0.582699 4.81386 0
M  V30 712 N 66.5145 -1.57545 0.0417849 0
M  V30 713 C 67.7635 -1.91494 -0.633492 0
M  V30 714 C 68.0765 -0.921084 -1.72556 0
M  V30 715 O 69.2825 -1.15228 -2.45835 0
M  V30 716 C 67.7385 -3.40072 -1.17808 0
M  V30 717 C 67.3465 -4.47843 -0.118633 0
M  V30 718 C 69.0905 -3.8307 -1.82915 0
M  V30 719 C 66.9975 -5.87529 -0.675578 0
M  V30 720 H 65.9275 -0.714653 -0.24039 0
M  V30 721 H 68.5785 -1.83175 0.109148 0
M  V30 722 H 66.9605 -3.43364 -1.97274 0
M  V30 723 H 68.1345 -4.56128 0.654494 0
M  V30 724 H 66.4495 -4.14128 0.434414 0
M  V30 725 H 69.0465 -4.84794 -2.25563 0
M  V30 726 H 69.3895 -3.1881 -2.67705 0
M  V30 727 H 69.9225 -3.82255 -1.10119 0
M  V30 728 H 66.6615 -6.55362 0.134475 0
M  V30 729 H 66.1815 -5.82824 -1.4169 0
M  V30 730 H 67.8605 -6.36491 -1.1614 0
M  V30 731 N 67.9926 0.231505 -1.5589 0
M  V30 732 C 69.4086 0.580748 -1.48659 0
M  V30 733 C 69.6086 1.87617 -0.73498 0
M  V30 734 O 68.6646 2.51046 -0.270586 0
M  V30 735 C 69.9776 0.669202 -2.93159 0
M  V30 736 C 71.5256 0.760499 -3.03621 0
M  V30 737 C 72.0006 0.880383 -4.49459 0
M  V30 738 N 73.4916 0.944861 -4.53461 0
M  V30 739 C 74.2266 1.05716 -5.63571 0
M  V30 740 N 73.7226 1.13403 -6.83456 0
M  V30 741 N 75.5156 1.09152 -5.514 0
M  V30 742 H 67.6666 -0.618695 -2.03189 0
M  V30 743 H 69.9296 -0.215728 -0.923128 0
M  V30 744 H 69.6356 -0.212904 -3.51055 0
M  V30 745 H 69.5096 1.5361 -3.44505 0
M  V30 746 H 71.8966 1.63305 -2.45796 0
M  V30 747 H 71.9776 -0.131864 -2.5546 0
M  V30 748 H 71.6216 0.0123284 -5.07899 0
M  V30 749 H 71.5516 1.78802 -4.95316 0
M  V30 750 H 74.0426 0.896176 -3.6712 0
M  V30 751 H 74.3556 1.21921 -7.63122 0
M  V30 752 H 72.7006 1.10333 -6.86186 0
M  V30 753 H 75.8916 1.02805 -4.56671 0
M  V30 754 H 76.0646 1.17558 -6.37247 0
M  V30 755 N 69.4707 1.49531 0.497807 0
M  V30 756 C 70.4177 1.66436 1.59899 0
M  V30 757 C 71.3877 0.505793 1.58212 0
M  V30 758 O 72.5727 0.733202 1.7615 0
M  V30 759 C 69.7127 1.7399 2.98029 0
M  V30 760 C 68.8257 3.01172 3.09708 0
M  V30 761 C 67.9607 2.99686 4.38591 0
M  V30 762 C 66.9997 4.21434 4.43914 0
M  V30 763 N 66.1367 4.1784 5.64229 0
M  V30 764 H 70.9767 2.60459 1.44793 0
M  V30 765 H 68.5137 1.29137 0.704423 0
M  V30 766 H 70.4717 1.76352 3.78095 0
M  V30 767 H 69.1017 0.834301 3.11832 0
M  V30 768 H 68.1537 3.08408 2.22685 0
M  V30 769 H 69.4657 3.91165 3.09502 0
M  V30 770 H 68.6197 3.00628 5.2698 0
M  V30 771 H 67.3587 2.07477 4.41367 0
M  V30 772 H 66.3637 4.20733 3.53926 0
M  V30 773 H 67.5887 5.14839 4.42851 0
M  V30 774 H 65.5347 3.28469 5.67841 0
M  V30 775 H 65.4517 5.01571 5.65652 0
M  V30 776 H 66.7197 4.22889 6.54817 0
M  V30 777 N 70.9488 -0.749086 1.3866 0
M  V30 778 C 71.8788 -1.8764 1.38973 0
M  V30 779 C 72.8598 -1.68178 0.255004 0
M  V30 780 O 74.0448 -1.88704 0.458754 0
M  V30 781 C 71.1748 -3.25222 1.21851 0
M  V30 782 C 70.1288 -3.59295 2.32575 0
M  V30 783 C 69.4548 -4.95663 2.00555 0
M  V30 784 C 70.7548 -3.63709 3.7485 0
M  V30 785 H 72.4488 -1.87635 2.3331 0
M  V30 786 H 69.9948 -0.901329 1.12303 0
M  V30 787 H 71.9478 -4.03746 1.20695 0
M  V30 788 H 70.6718 -3.25719 0.239775 0
M  V30 789 H 69.3308 -2.83093 2.32925 0
M  V30 790 H 68.9788 -4.92724 1.01154 0
M  V30 791 H 68.6788 -5.19429 2.74714 0
M  V30 792 H 70.2028 -5.7656 2.01024 0
M  V30 793 H 71.6168 -4.32338 3.76506 0
M  V30 794 H 70.0138 -3.98986 4.48252 0
M  V30 795 H 71.0838 -2.63834 4.06841 0
M  V30 796 N 72.4269 -1.23603 -0.977757 0
M  V30 797 C 73.6749 -1.06759 -1.71601 0
M  V30 798 C 73.9959 0.395929 -1.90938 0
M  V30 799 O 73.2659 1.28356 -1.47992 0
M  V30 800 H 71.8459 -0.392062 -0.635843 0
M  V30 801 H 74.5079 -1.55362 -1.1768 0
M  V30 802 H 73.6039 -1.55763 -2.70452 0
M  V30 803 N 73.905 1.17692 -1.04816 0
M  V30 804 C 75.13 1.92327 -0.776207 0
M  V30 805 C 75.555 1.76082 0.661581 0
M  V30 806 O 74.913 1.076 1.45917 0
M  V30 807 C 74.961 3.41539 -1.15687 0
M  V30 808 O 74.065 4.11402 -0.286775 0
M  V30 809 H 73.406 0.599735 -0.284981 0
M  V30 810 H 75.936 1.49201 -1.4 0
M  V30 811 H 75.946 3.92269 -1.12202 0
M  V30 812 H 74.621 3.52684 -2.20425 0
M  V30 813 H 73.198 3.70939 -0.381903 0
M  V30 814 N 75.3831 0.828654 1.34056 0
M  V30 815 C 76.6311 0.41863 1.97717 0
M  V30 816 C 76.9521 -1.02314 1.66002 0
M  V30 817 O 76.2221 -1.71119 0.953683 0
M  V30 818 H 74.8021 0.151809 0.731412 0
M  V30 819 H 77.4641 1.05936 1.63596 0
M  V30 820 H 76.5601 0.542318 3.07352 0
M  V30 821 N 76.8612 -1.46375 0.584142 0
M  V30 822 C 78.0862 -2.07268 0.0740405 0
M  V30 823 C 78.5112 -1.42979 -1.22223 0
M  V30 824 O 77.8692 -0.514092 -1.73859 0
M  V30 825 C 77.9172 -3.60518 -0.0767769 0
M  V30 826 O 77.0212 -3.96533 -1.13292 0
M  V30 827 H 76.3622 -0.660961 0.0634524 0
M  V30 828 H 78.8922 -1.87991 0.807492 0
M  V30 829 H 78.9022 -4.07021 -0.282489 0
M  V30 830 H 77.5772 -4.06702 0.86986 0
M  V30 831 H 76.1542 -3.61738 -0.905553 0
M  V30 832 N 78.3393 -0.321999 -1.54275 0
M  V30 833 C 79.5693 0.282642 -2.04658 0
M  V30 834 C 79.9773 1.46453 -1.19784 0
M  V30 835 O 79.3203 1.82367 -0.220932 0
M  V30 836 C 79.3823 0.781857 -3.50895 0
M  V30 837 C 79.0463 -0.277517 -4.56157 0
M  V30 838 C 80.0433 -1.11307 -5.07845 0
M  V30 839 C 77.7283 -0.425256 -5.00497 0
M  V30 840 C 79.7223 -2.08211 -6.02434 0
M  V30 841 C 77.4093 -1.39771 -5.94901 0
M  V30 842 C 78.4073 -2.2246 -6.45756 0
M  V30 843 O 78.0953 -3.18054 -7.38307 0
M  V30 844 H 77.8273 0.0622636 -0.673126 0
M  V30 845 H 80.3813 -0.465792 -2.00049 0
M  V30 846 H 78.6113 1.58118 -3.52896 0
M  V30 847 H 80.3003 1.30467 -3.84361 0
M  V30 848 H 81.0663 -1.00991 -4.74369 0
M  V30 849 H 76.9453 0.20847 -4.60528 0
M  V30 850 H 80.4893 -2.72791 -6.42052 0
M  V30 851 H 76.3863 -1.50152 -6.27794 0
M  V30 852 H 77.1543 -3.13275 -7.56175 0
M  V30 853 N 79.8174 1.5752 -0.0501392 0
M  V30 854 C 81.0654 1.9227 0.622642 0
M  V30 855 C 81.3864 0.929083 1.71444 0
M  V30 856 O 80.6564 -0.0262186 1.95882 0
M  V30 857 H 79.2364 0.709739 0.232981 0
M  V30 858 H 81.8984 1.94628 -0.102898 0
M  V30 859 H 80.9944 2.93479 1.06191 0
M  V30 860 N 81.2955 -0.223234 1.56011 0
M  V30 861 C 82.7115 -0.572856 1.48965 0
M  V30 862 C 82.9115 -1.87225 0.74492 0
M  V30 863 O 81.9675 -2.50899 0.283896 0
M  V30 864 C 83.2805 -0.653646 2.9351 0
M  V30 865 C 84.8285 -0.744386 3.0402 0
M  V30 866 C 85.3035 -0.856535 4.49919 0
M  V30 867 N 86.7945 -0.9208 4.53955 0
M  V30 868 C 87.5295 -1.02726 5.64123 0
M  V30 869 N 87.0255 -1.09777 6.84047 0
M  V30 870 N 88.8185 -1.06226 5.51971 0
M  V30 871 H 80.9695 0.629462 2.02858 0
M  V30 872 H 83.2325 0.220621 0.921971 0
M  V30 873 H 82.9385 0.231518 3.50937 0
M  V30 874 H 82.8125 -1.51781 3.45315 0
M  V30 875 H 85.1995 -1.61999 2.46658 0
M  V30 876 H 85.2805 0.14541 2.55386 0
M  V30 877 H 84.9245 0.0146069 5.07898 0
M  V30 878 H 84.8545 -1.76172 4.96257 0
M  V30 879 H 87.3455 -0.876694 3.6759 0
M  V30 880 H 87.6585 -1.17872 7.63758 0
M  V30 881 H 86.0035 -1.06693 6.86762 0
M  V30 882 H 89.1945 -1.00382 4.5721 0
M  V30 883 H 89.3675 -1.14177 6.37862 0
M  V30 884 N 82.7736 -1.49793 -0.48987 0
M  V30 885 C 84.0196 -1.60078 -1.24511 0
M  V30 886 C 84.3526 -0.291608 -1.91998 0
M  V30 887 O 83.6276 0.705647 -1.81248 0
M  V30 888 C 83.9106 -2.76791 -2.30345 0
M  V30 889 C 83.7636 -4.17535 -1.67286 0
M  V30 890 C 85.0826 -2.89111 -3.31817 0
M  V30 891 H 82.2016 -0.582645 -0.451324 0
M  V30 892 H 84.8436 -1.82117 -0.541612 0
M  V30 893 H 82.9936 -2.5813 -2.90346 0
M  V30 894 H 84.6656 -4.4774 -1.11026 0
M  V30 895 H 82.9086 -4.22665 -0.976577 0
M  V30 896 H 83.5796 -4.95094 -2.44103 0
M  V30 897 H 86.0556 -3.06133 -2.81819 0
M  V30 898 H 84.9316 -3.72433 -4.03219 0
M  V30 899 H 85.1926 -1.9893 -3.94815 0
M  V30 900 N 84.2517 0.741722 -1.39055 0
M  V30 901 C 85.1817 1.869 -1.39966 0
M  V30 902 C 86.1627 1.6804 -0.26392 0
M  V30 903 O 87.3477 1.88458 -0.468755 0
M  V30 904 C 84.4777 3.24572 -1.23574 0
M  V30 905 C 83.4317 3.58056 -2.34477 0
M  V30 906 C 82.7577 4.94593 -2.0318 0
M  V30 907 C 84.0577 3.61716 -3.76774 0
M  V30 908 H 85.7517 1.86395 -2.34302 0
M  V30 909 H 83.2977 0.895361 -1.1278 0
M  V30 910 H 85.2507 4.031 -1.22834 0
M  V30 911 H 83.9747 3.25587 -0.257045 0
M  V30 912 H 82.6337 2.81854 -2.34423 0
M  V30 913 H 82.2817 4.92181 -1.03765 0
M  V30 914 H 81.9817 5.17964 -2.77465 0
M  V30 915 H 83.5057 5.75486 -2.04079 0
M  V30 916 H 84.9197 4.30335 -3.78794 0
M  V30 917 H 83.3167 3.96603 -4.50362 0
M  V30 918 H 84.3867 2.61672 -4.08235 0
M  V30 919 N 85.7298 1.2412 0.971189 0
M  V30 920 C 86.6598 1.05508 2.08304 0
M  V30 921 C 87.6408 -0.0308864 1.70072 0
M  V30 922 O 88.8258 0.135521 1.93727 0
M  V30 923 C 85.9558 0.655365 3.4106 0
M  V30 924 C 84.9098 1.68971 3.93234 0
M  V30 925 C 84.2358 1.14516 5.22293 0
M  V30 926 C 85.5358 3.08487 4.21465 0
M  V30 927 H 87.2298 1.98507 2.24132 0
M  V30 928 H 84.7758 0.955821 1.07704 0
M  V30 929 H 86.7288 0.51217 4.18276 0
M  V30 930 H 85.4528 -0.31032 3.25122 0
M  V30 931 H 84.1118 1.82106 3.18171 0
M  V30 932 H 83.7598 0.170189 5.02712 0
M  V30 933 H 83.4598 1.83635 5.58168 0
M  V30 934 H 84.9838 1.01401 6.02121 0
M  V30 935 H 86.3978 2.98601 4.89398 0
M  V30 936 H 84.7948 3.74926 4.68562 0
M  V30 937 H 85.8648 3.56787 3.28376 0
M  V30 938 N 87.2079 -1.17134 1.05439 0
M  V30 939 C 88.1709 -2.19439 0.661764 0
M  V30 940 C 89.1709 -1.58199 -0.288042 0
M  V30 941 O 90.3609 -1.74053 -0.0715803 0
M  V30 942 C 87.4929 -3.40889 -0.0276209 0
M  V30 943 H 88.6859 -2.55688 1.56728 0
M  V30 944 H 86.2389 -1.31259 0.848567 0
M  V30 945 H 86.9739 -3.10187 -0.94629 0
M  V30 946 H 86.7589 -3.86586 0.655238 0
M  V30 947 H 88.2489 -4.16603 -0.288342 0
M  V30 948 N 88.686 -0.835752 -1.33615 0
M  V30 949 C 89.618 -0.224151 -2.28101 0
M  V30 950 C 90.631 0.593331 -1.51603 0
M  V30 951 O 91.82 0.420911 -1.73466 0
M  V30 952 C 88.92 0.703309 -3.31522 0
M  V30 953 C 88.093 -0.0741528 -4.37337 0
M  V30 954 C 87.152 0.776176 -5.20444 0
M  V30 955 O 86.178 0.216506 -5.68788 0
M  V30 956 N 87.38 2.09401 -5.41416 0
M  V30 957 H 90.145 -1.03598 -2.81225 0
M  V30 958 H 87.706 -0.69392 -1.46275 0
M  V30 959 H 89.698 1.27707 -3.84022 0
M  V30 960 H 88.268 1.41585 -2.78698 0
M  V30 961 H 87.488 -0.82928 -3.85378 0
M  V30 962 H 88.776 -0.608863 -5.05144 0
M  V30 963 H 88.174 2.57229 -5.03835 0
M  V30 964 H 86.731 2.61633 -5.96985 0
M  V30 965 N 90.1641 1.46063 -0.591896 0
M  V30 966 C 91.5751 1.85944 -0.167822 0
M  V30 967 C 91.9261 1.49429 1.27143 0
M  V30 968 O 91.0511 0.913515 1.96173 0
M  V30 969 C 91.6461 3.37489 -0.297794 0
M  V30 970 C 90.2051 3.76332 0.0714732 0
M  V30 971 C 89.3521 2.7006 -0.629509 0
M  V30 972 H 92.3031 1.37087 -0.799555 0
M  V30 973 H 92.3241 3.77532 0.474349 0
M  V30 974 H 91.8361 3.64034 -1.3454 0
M  V30 975 H 89.9371 3.55405 1.11886 0
M  V30 976 H 90.0501 4.78088 -0.311245 0
M  V30 977 H 88.4141 2.54607 -0.0687867 0
M  V30 978 H 89.1971 2.99444 -1.67894 0
M  V30 979 N 91.6422 0.330177 1.54103 0
M  V30 980 C 92.5922 -0.548456 2.21305 0
M  V30 981 C 93.5762 -1.07651 1.19583 0
M  V30 982 O 94.7682 -1.01243 1.45186 0
M  V30 983 C 91.8972 -1.70559 2.97934 0
M  V30 984 C 90.9832 -1.19212 4.07 0
M  V30 985 N 91.3742 -0.398831 5.04225 0
M  V30 986 C 89.6722 -1.47024 4.2107 0
M  V30 987 C 90.3732 -0.121761 5.81573 0
M  V30 988 N 89.3492 -0.709722 5.38947 0
M  V30 989 H 93.1512 0.0648483 2.93828 0
M  V30 990 H 90.6652 0.136363 1.61826 0
M  V30 991 H 92.6622 -2.34688 3.44568 0
M  V30 992 H 91.3222 -2.32231 2.26934 0
M  V30 993 H 92.3332 -0.0410869 5.17884 0
M  V30 994 H 89.0102 -2.09232 3.61287 0
M  V30 995 H 90.4002 0.517298 6.69906 0
M  V30 996 N 93.1203 -1.57491 0.0584922 0
M  V30 997 C 94.0523 -2.08916 -0.942694 0
M  V30 998 C 95.0653 -1.0185 -1.27006 0
M  V30 999 O 96.2543 -1.29398 -1.22957 0
M  V30 1000 C 93.3543 -2.52341 -2.26224 0
M  V30 1001 C 92.5273 -3.82827 -2.1157 0
M  V30 1002 C 91.5863 -4.12487 -3.26712 0
M  V30 1003 O 90.6123 -4.82295 -3.02292 0
M  V30 1004 N 91.8143 -3.64978 -4.5141 0
M  V30 1005 H 94.5793 -2.95437 -0.503722 0
M  V30 1006 H 92.1403 -1.61397 -0.12757 0
M  V30 1007 H 94.1323 -2.69254 -3.02133 0
M  V30 1008 H 92.7023 -1.7103 -2.61663 0
M  V30 1009 H 91.9223 -3.75425 -1.20208 0
M  V30 1010 H 93.2103 -4.68263 -1.99015 0
M  V30 1011 H 92.6083 -3.08558 -4.7414 0
M  V30 1012 H 91.1653 -3.87115 -5.2439 0
M  V30 1013 N 94.5984 0.214957 -1.56127 0
M  V30 1014 C 95.8464 0.936518 -1.79091 0
M  V30 1015 C 96.1674 1.84606 -0.628148 0
M  V30 1016 O 95.4374 1.92664 0.35462 0
M  V30 1017 H 94.0174 0.3488 -0.660566 0
M  V30 1018 H 96.6794 0.22523 -1.93594 0
M  V30 1019 H 95.7754 1.53943 -2.71492 0
M  V30 1020 N 96.0765 1.50051 0.48192 0
M  V30 1021 C 97.3245 1.60181 1.23234 0
M  V30 1022 C 97.6455 0.299176 1.92691 0
M  V30 1023 O 96.9155 -0.682708 1.83619 0
M  V30 1024 H 95.4955 0.590232 0.457859 0
M  V30 1025 H 98.1575 1.86775 0.556881 0
M  V30 1026 H 97.2535 2.40753 1.98607 0
M  V30 1027 N 97.5546 -0.734337 1.39446 0
M  V30 1028 C 98.9656 -1.31264 1.32766 0
M  V30 1029 C 99.3166 -1.96198 -0.00767497 0
M  V30 1030 O 98.4416 -1.96346 -0.909796 0
M  V30 1031 C 99.0366 -2.38682 2.4045 0
M  V30 1032 C 97.5956 -2.92184 2.37288 0
M  V30 1033 C 96.7426 -1.6576 2.22304 0
M  V30 1034 H 99.6936 -0.531799 1.49525 0
M  V30 1035 H 99.7146 -3.19087 2.07276 0
M  V30 1036 H 99.2266 -1.91392 3.37625 0
M  V30 1037 H 97.3276 -3.43752 1.43754 0
M  V30 1038 H 97.4406 -3.45253 3.3217 0
M  V30 1039 H 95.8046 -1.9012 1.69489 0
M  V30 1040 H 96.5876 -1.20521 3.21449 0
M  V30 1041 N 99.0327 -1.24633 -0.964593 0
M  V30 1042 C 99.9957 -1.0424 -2.04124 0
M  V30 1043 C 100.996 0.00137563 -1.608 0
M  V30 1044 O 102.186 -0.239883 -1.7254 0
M  V30 1045 C 99.3177 -0.580588 -3.3592 0
M  V30 1046 H 100.511 -1.99803 -2.23649 0
M  V30 1047 H 98.0637 -1.06899 -1.14027 0
M  V30 1048 H 98.7987 0.3781 -3.22088 0
M  V30 1049 H 98.5837 -1.33398 -3.6871 0
M  V30 1050 H 100.074 -0.459034 -4.15069 0
M  V30 1051 N 100.511 1.16574 -1.06058 0
M  V30 1052 C 101.757 1.87324 -0.777022 0
M  V30 1053 C 102.09 1.81351 0.694645 0
M  V30 1054 O 101.365 1.22753 1.50871 0
M  V30 1055 C 101.648 3.36991 -1.26922 0
M  V30 1056 C 101.501 3.51667 -2.80447 0
M  V30 1057 C 102.82 4.3131 -0.87521 0
M  V30 1058 H 99.9388 0.680191 -0.28374 0
M  V30 1059 H 102.581 1.37036 -1.3161 0
M  V30 1060 H 100.731 3.79949 -0.81063 0
M  V30 1061 H 102.403 3.17664 -3.34495 0
M  V30 1062 H 100.646 2.93656 -3.19294 0
M  V30 1063 H 101.317 4.56766 -3.0995 0
M  V30 1064 H 103.793 3.9624 -1.27014 0
M  V30 1065 H 102.669 5.34545 -1.2471 0
M  V30 1066 H 102.93 4.41552 0.220071 0
M  V30 1067 N 101.989 0.842826 1.3317 0
M  V30 1068 C 102.952 0.284065 2.27433 0
M  V30 1069 C 103.952 -0.54948 1.5112 0
M  V30 1070 O 105.142 -0.362699 1.70382 0
M  V30 1071 C 102.274 -0.599384 3.35589 0
M  V30 1072 H 103.467 1.11589 2.78366 0
M  V30 1073 H 101.02 0.616221 1.4364 0
M  V30 1074 H 101.755 -1.45349 2.89904 0
M  V30 1075 H 101.54 -0.00291266 3.921 0
M  V30 1076 H 103.03 -0.983488 4.05854 0
M  V30 1077 N 103.467 -1.45747 0.599634 0
M  V30 1078 C 104.397 -2.33235 -0.111306 0
M  V30 1079 C 105.378 -1.46359 -0.866781 0
M  V30 1080 O 106.563 -1.75146 -0.838904 0
M  V30 1081 C 103.693 -3.28932 -1.11451 0
M  V30 1082 C 102.647 -4.25381 -0.472772 0
M  V30 1083 C 101.973 -5.1071 -1.58365 0
M  V30 1084 C 103.273 -5.18831 0.600948 0
M  V30 1085 H 104.967 -2.92927 0.61919 0
M  V30 1086 H 102.513 -1.40857 0.299215 0
M  V30 1087 H 104.466 -3.89002 -1.62036 0
M  V30 1088 H 103.19 -2.67381 -1.8755 0
M  V30 1089 H 101.849 -3.66598 0.0121472 0
M  V30 1090 H 101.497 -4.45533 -2.33473 0
M  V30 1091 H 101.197 -5.7604 -1.15982 0
M  V30 1092 H 102.721 -5.73647 -2.09194 0
M  V30 1093 H 104.135 -5.73019 0.179491 0
M  V30 1094 H 102.532 -5.92595 0.946076 0
M  V30 1095 H 103.602 -4.6174 1.48068 0
M  V30 1096 N 104.945 -0.338344 -1.53925 0
M  V30 1097 C 105.892 0.520845 -2.24846 0
M  V30 1098 C 106.862 1.09976 -1.24477 0
M  V30 1099 O 108.047 1.13735 -1.53196 0
M  V30 1100 C 105.187 1.6685 -3.02084 0
M  V30 1101 C 104.3 1.11739 -4.17299 0
M  V30 1102 C 103.435 2.23193 -4.82036 0
M  V30 1103 C 102.474 1.65407 -5.89328 0
M  V30 1104 N 101.611 2.70582 -6.47866 0
M  V30 1105 H 106.451 -0.0904881 -2.97863 0
M  V30 1106 H 103.988 -0.0564282 -1.46992 0
M  V30 1107 H 105.946 2.34407 -3.45122 0
M  V30 1108 H 104.576 2.2509 -2.31375 0
M  V30 1109 H 103.628 0.332919 -3.7894 0
M  V30 1110 H 104.94 0.654677 -4.94485 0
M  V30 1111 H 104.094 2.98626 -5.28117 0
M  V30 1112 H 102.833 2.72807 -4.04262 0
M  V30 1113 H 101.838 0.884779 -5.42634 0
M  V30 1114 H 103.063 1.16652 -6.69006 0
M  V30 1115 H 101.009 3.1946 -5.72959 0
M  V30 1116 H 100.926 2.28917 -7.20509 0
M  V30 1117 H 102.194 3.45799 -6.98601 0
M  V30 1118 N 106.423 1.57458 -0.0668435 0
M  V30 1119 C 107.353 2.15468 0.899764 0
M  V30 1120 C 108.334 1.08042 1.31381 0
M  V30 1121 O 109.519 1.36054 1.38574 0
M  V30 1122 C 106.649 2.71232 2.16911 0
M  V30 1123 C 105.603 3.83781 1.89463 0
M  V30 1124 C 104.929 4.26127 3.22986 0
M  V30 1125 C 106.229 5.08238 1.20381 0
M  V30 1126 H 107.923 2.96488 0.416529 0
M  V30 1127 H 105.469 1.4262 0.198908 0
M  V30 1128 H 107.422 3.10458 2.84945 0
M  V30 1129 H 106.146 1.87426 2.67468 0
M  V30 1130 H 104.805 3.45051 1.23836 0
M  V30 1131 H 104.453 3.39249 3.71374 0
M  V30 1132 H 104.153 5.01993 3.05413 0
M  V30 1133 H 105.677 4.67966 3.92225 0
M  V30 1134 H 107.091 5.44811 1.78475 0
M  V30 1135 H 105.488 5.89349 1.13083 0
M  V30 1136 H 106.558 4.84558 0.182153 0
M  V30 1137 N 107.901 -0.206675 1.56239 0
M  V30 1138 C 108.831 -1.25909 1.96645 0
M  V30 1139 C 109.812 -1.48097 0.836734 0
M  V30 1140 O 110.997 -1.6003 1.10019 0
M  V30 1141 C 108.127 -2.6058 2.29599 0
M  V30 1142 C 107.081 -2.53024 3.452 0
M  V30 1143 C 106.407 -3.91861 3.63798 0
M  V30 1144 C 107.707 -2.06524 4.79734 0
M  V30 1145 H 109.401 -0.923369 2.84806 0
M  V30 1146 H 106.947 -0.442735 1.37025 0
M  V30 1147 H 108.9 -3.34375 2.56459 0
M  V30 1148 H 107.624 -2.95869 1.38307 0
M  V30 1149 H 106.283 -1.81684 3.18412 0
M  V30 1150 H 105.931 -4.24483 2.69857 0
M  V30 1151 H 105.631 -3.87683 4.4156 0
M  V30 1152 H 107.155 -4.67296 3.93022 0
M  V30 1153 H 108.569 -2.70072 5.05702 0
M  V30 1154 H 106.966 -2.13374 5.60885 0
M  V30 1155 H 108.036 -1.01802 4.74093 0
M  V30 1156 N 109.379 -1.50304 -0.473955 0
M  V30 1157 C 110.795 -1.37667 -0.807466 0
M  V30 1158 C 110.995 -0.430555 -1.96846 0
M  V30 1159 O 110.051 0.127874 -2.52176 0
M  V30 1160 C 111.364 -2.78974 -1.12223 0
M  V30 1161 C 112.912 -2.87868 -1.22885 0
M  V30 1162 C 113.387 -4.30003 -1.57676 0
M  V30 1163 N 114.878 -4.3294 -1.64673 0
M  V30 1164 C 115.613 -5.3991 -1.93091 0
M  V30 1165 N 115.109 -6.57092 -2.1955 0
M  V30 1166 N 116.902 -5.27351 -1.94569 0
M  V30 1167 H 109.053 -2.10394 0.291212 0
M  V30 1168 H 111.316 -0.945575 0.0677609 0
M  V30 1169 H 111.022 -3.50031 -0.342229 0
M  V30 1170 H 110.896 -3.16038 -2.05913 0
M  V30 1171 H 113.283 -2.17032 -1.99953 0
M  V30 1172 H 113.364 -2.54352 -0.271814 0
M  V30 1173 H 113.008 -5.01375 -0.81149 0
M  V30 1174 H 112.938 -4.61004 -2.54525 0
M  V30 1175 H 115.429 -3.48441 -1.46277 0
M  V30 1176 H 115.742 -7.34425 -2.405 0
M  V30 1177 H 114.087 -6.60272 -2.16948 0
M  V30 1178 H 117.278 -4.34801 -1.73394 0
M  V30 1179 H 117.451 -6.10805 -2.16381 0
M  V30 1180 N 110.857 0.726932 -1.39834 0
M  V30 1181 C 112.273 1.03354 -1.21615 0
M  V30 1182 C 112.473 2.01327 -0.08338 0
M  V30 1183 O 111.529 2.46158 0.56238 0
M  V30 1184 C 112.842 1.58811 -2.55342 0
M  V30 1185 C 114.39 1.70851 -2.62257 0
M  V30 1186 C 114.865 2.29716 -3.96225 0
M  V30 1187 N 116.356 2.37116 -3.97907 0
M  V30 1188 C 117.091 2.83619 -4.98345 0
M  V30 1189 N 116.587 3.29958 -6.09179 0
M  V30 1190 N 118.38 2.82901 -4.8572 0
M  V30 1191 H 110.531 0.0773069 -2.12259 0
M  V30 1192 H 112.794 0.0969102 -0.943034 0
M  V30 1193 H 112.5 0.942855 -3.38826 0
M  V30 1194 H 112.374 2.57502 -2.75632 0
M  V30 1195 H 114.761 2.34497 -1.79152 0
M  V30 1196 H 114.842 0.707913 -2.45809 0
M  V30 1197 H 114.486 1.66696 -4.79765 0
M  V30 1198 H 114.416 3.30469 -4.09997 0
M  V30 1199 H 116.907 2.04374 -3.17868 0
M  V30 1200 H 117.22 3.63976 -6.8172 0
M  V30 1201 H 115.565 3.27946 -6.12761 0
M  V30 1202 H 118.756 2.46027 -3.98231 0
M  V30 1203 H 118.929 3.18827 -5.6414 0
M  V30 1204 N 112.336 1.25143 0.95797 0
M  V30 1205 C 113.613 1.00472 1.67823 0
M  V30 1206 C 113.993 -0.470056 2.058 0
M  V30 1207 O 113.341 -1.44663 1.76875 0
M  V30 1208 C 113.551 1.9372 2.90299 0
M  V30 1209 C 114.899 2.21371 3.62326 0
M  V30 1210 O 115.923 1.91451 3.00375 0
M  V30 1211 O 114.782 2.72231 4.7387 0
M  V30 1212 H 111.876 0.380752 0.734137 0
M  V30 1213 H 114.422 1.36283 1.01119 0
M  V30 1214 H 113.194 2.93316 2.59001 0
M  V30 1215 H 112.817 1.58286 3.64735 0
M  V30 1216 N 113.814 -1.1601 1.06675 0
M  V30 1217 C 114.744 -2.22688 0.702307 0
M  V30 1218 C 115.725 -1.67306 -0.307032 0
M  V30 1219 O 116.91 -1.93352 -0.181305 0
M  V30 1220 C 114.04 -3.47178 0.092038 0
M  V30 1221 C 112.994 -4.15477 1.02777 0
M  V30 1222 C 112.32 -5.33963 0.28061 0
M  V30 1223 C 113.62 -4.66019 2.35846 0
M  V30 1224 H 115.314 -2.53429 1.59419 0
M  V30 1225 H 112.86 -1.21813 0.767961 0
M  V30 1226 H 114.813 -4.21037 -0.174814 0
M  V30 1227 H 113.537 -3.15749 -0.834877 0
M  V30 1228 H 112.196 -3.43549 1.27944 0
M  V30 1229 H 111.844 -4.98788 -0.649545 0
M  V30 1230 H 111.544 -5.806 0.904258 0
M  V30 1231 H 113.068 -6.10596 0.021396 0
M  V30 1232 H 114.482 -5.3144 2.15045 0
M  V30 1233 H 112.879 -5.23293 2.93743 0
M  V30 1234 H 113.949 -3.82023 2.98641 0
M  V30 1235 N 115.292 -0.849877 -1.32721 0
M  V30 1236 C 116.538 -0.451591 -1.97708 0
M  V30 1237 C 116.871 0.989175 -1.6712 0
M  V30 1238 O 116.146 1.69334 -0.956891 0
M  V30 1239 C 116.429 -0.685598 -3.53513 0
M  V30 1240 C 116.282 -2.17444 -3.93749 0
M  V30 1241 C 117.601 -0.138874 -4.39881 0
M  V30 1242 H 114.72 -0.16555 -0.718166 0
M  V30 1243 H 117.362 -1.06742 -1.57182 0
M  V30 1244 H 115.512 -0.161416 -3.88165 0
M  V30 1245 H 117.184 -2.76433 -3.693 0
M  V30 1246 H 115.427 -2.65476 -3.43081 0
M  V30 1247 H 116.098 -2.28888 -5.02309 0
M  V30 1248 H 118.574 -0.587068 -4.11938 0
M  V30 1249 H 117.45 -0.332213 -5.47894 0
M  V30 1250 H 117.711 0.95806 -4.31594 0
M  V30 1251 N 116.77 1.45427 -0.607355 0
M  V30 1252 C 117.7 2.3329 0.0989352 0
M  V30 1253 C 118.681 1.46816 0.859007 0
M  V30 1254 O 119.866 1.75588 0.829604 0
M  V30 1255 C 116.996 3.29518 1.09705 0
M  V30 1256 C 115.95 4.25626 0.450206 0
M  V30 1257 C 115.276 5.11542 1.55655 0
M  V30 1258 C 116.576 5.18505 -0.628455 0
M  V30 1259 H 118.27 2.92595 -0.634716 0
M  V30 1260 H 115.816 1.40696 -0.306681 0
M  V30 1261 H 117.769 3.89855 1.59971 0
M  V30 1262 H 116.493 2.68372 1.86129 0
M  V30 1263 H 115.152 3.66586 -0.0315886 0
M  V30 1264 H 114.8 4.46765 2.31107 0
M  V30 1265 H 114.5 5.76647 1.12925 0
M  V30 1266 H 116.024 5.74748 2.06148 0
M  V30 1267 H 117.438 5.72916 -0.209877 0
M  V30 1268 H 115.835 5.92085 -0.977489 0
M  V30 1269 H 116.905 4.60948 -1.50514 0
M  V30 1270 N 118.248 0.346503 1.53744 0
M  V30 1271 C 119.664 -0.00530975 1.59599 0
M  V30 1272 C 119.864 -1.48465 1.36236 0
M  V30 1273 O 118.92 -2.24376 1.15808 0
M  V30 1274 C 120.233 0.433516 2.97559 0
M  V30 1275 C 121.781 0.386111 3.10609 0
M  V30 1276 C 122.256 0.800451 4.50951 0
M  V30 1277 N 123.747 0.754753 4.5701 0
M  V30 1278 C 124.482 1.04727 5.63755 0
M  V30 1279 N 123.978 1.4081 6.7834 0
M  V30 1280 N 125.771 0.971316 5.53644 0
M  V30 1281 H 117.922 1.31009 1.67184 0
M  V30 1282 H 120.185 0.534242 0.783128 0
M  V30 1283 H 119.891 1.46509 3.19731 0
M  V30 1284 H 119.765 -0.189753 3.76722 0
M  V30 1285 H 122.152 -0.636295 2.88158 0
M  V30 1286 H 122.233 1.04462 2.33498 0
M  V30 1287 H 121.877 1.82088 4.74137 0
M  V30 1288 H 121.807 0.119386 5.26465 0
M  V30 1289 H 124.298 0.488662 3.74727 0
M  V30 1290 H 124.611 1.61607 7.55714 0
M  V30 1291 H 122.956 1.44657 6.79779 0
M  V30 1292 H 126.147 0.688748 4.63005 0
M  V30 1293 H 126.32 1.20263 6.36742 0
M  V30 1294 N 119.726 -1.57421 0.075193 0
M  V30 1295 C 120.951 -1.98364 -0.605515 0
M  V30 1296 C 121.376 -0.953383 -1.62149 0
M  V30 1297 O 120.734 0.0806053 -1.81121 0
M  V30 1298 C 120.782 -3.38332 -1.24756 0
M  V30 1299 O 119.886 -3.37959 -2.36342 0
M  V30 1300 H 119.227 -0.645553 -0.155428 0
M  V30 1301 H 121.757 -2.04044 0.150714 0
M  V30 1302 H 121.767 -3.75591 -1.5936 0
M  V30 1303 H 120.442 -4.12846 -0.503129 0
M  V30 1304 H 119.019 -3.12474 -2.03506 0
M  V30 1305 N 121.204 0.198386 -1.56346 0
M  V30 1306 C 122.432 0.935572 -1.84539 0
M  V30 1307 C 122.847 1.76989 -0.657281 0
M  V30 1308 O 122.204 1.78626 0.374043 0
M  V30 1309 C 122.255 1.8344 -3.11499 0
M  V30 1310 O 121.976 1.03377 -4.25728 0
M  V30 1311 C 123.477 2.68355 -3.52846 0
M  V30 1312 H 120.697 0.273126 -0.612897 0
M  V30 1313 H 123.241 0.20663 -2.03453 0
M  V30 1314 H 121.396 2.51701 -2.94492 0
M  V30 1315 H 121.81 1.64599 -4.98003 0
M  V30 1316 H 123.284 3.27085 -4.44657 0
M  V30 1317 H 123.761 3.41901 -2.75681 0
M  V30 1318 H 124.367 2.05471 -3.72373 0
M  V30 1319 N 122.682 1.50554 0.465978 0
M  V30 1320 C 123.929 1.61798 1.21768 0
M  V30 1321 C 124.257 0.320696 1.91838 0
M  V30 1322 O 123.512 -0.693724 1.82992 0
M  V30 1323 C 123.811 2.75152 2.28093 0
M  V30 1324 C 123.477 4.15454 1.75239 0
M  V30 1325 C 122.139 4.53628 1.60546 0
M  V30 1326 C 124.491 5.03121 1.36083 0
M  V30 1327 C 121.819 5.77204 1.05128 0
M  V30 1328 C 124.171 6.27249 0.821056 0
M  V30 1329 C 122.835 6.64221 0.660795 0
M  V30 1330 H 122.105 0.592063 0.445582 0
M  V30 1331 H 124.752 1.84503 0.512927 0
M  V30 1332 H 123.057 2.46556 3.04496 0
M  V30 1333 H 124.754 2.81055 2.86023 0
M  V30 1334 H 121.344 3.85341 1.87644 0
M  V30 1335 H 125.528 4.74257 1.46267 0
M  V30 1336 H 120.784 6.0452 0.91462 0
M  V30 1337 H 124.958 6.94537 0.509018 0
M  V30 1338 H 122.585 7.59854 0.229226 0
M  V30 1339 N 124.16 -0.719506 1.40217 0
M  V30 1340 C 125.09 -1.8465 1.42922 0
M  V30 1341 C 126.071 -1.67599 0.29062 0
M  V30 1342 O 127.256 -1.87688 0.498677 0
M  V30 1343 C 124.386 -3.22565 1.28722 0
M  V30 1344 C 123.34 -3.54281 2.40144 0
M  V30 1345 C 122.666 -4.91298 2.11023 0
M  V30 1346 C 123.966 -3.55676 3.82481 0
M  V30 1347 H 125.66 -1.82644 2.37237 0
M  V30 1348 H 123.206 -0.877305 1.1419 0
M  V30 1349 H 125.159 -4.01095 1.29232 0
M  V30 1350 H 123.883 -3.25137 0.308811 0
M  V30 1351 H 122.542 -2.78088 2.38877 0
M  V30 1352 H 122.19 -4.90468 1.11582 0
M  V30 1353 H 121.89 -5.13485 2.8567 0
M  V30 1354 H 123.414 -5.72166 2.13209 0
M  V30 1355 H 124.828 -4.24254 3.85592 0
M  V30 1356 H 123.225 -3.89388 4.56614 0
M  V30 1357 H 124.295 -2.55144 4.12346 0
M  V30 1358 N 125.638 -1.25649 -0.95132 0
M  V30 1359 C 127.054 -1.02542 -1.223 0
M  V30 1360 C 127.254 0.255715 -1.99871 0
M  V30 1361 O 126.31 0.967558 -2.33226 0
M  V30 1362 C 127.623 -2.25065 -1.99415 0
M  V30 1363 C 129.171 -2.29861 -2.12446 0
M  V30 1364 C 129.646 -3.52048 -2.92961 0
M  V30 1365 N 131.137 -3.52465 -3.00538 0
M  V30 1366 C 131.872 -4.43672 -3.63239 0
M  V30 1367 N 131.368 -5.45157 -4.27523 0
M  V30 1368 N 133.161 -4.31346 -3.60412 0
M  V30 1369 H 125.312 -2.07951 -0.432471 0
M  V30 1370 H 127.575 -0.91339 -0.253816 0
M  V30 1371 H 127.281 -3.18194 -1.49817 0
M  V30 1372 H 127.155 -2.28502 -3.00111 0
M  V30 1373 H 129.542 -1.37252 -2.61239 0
M  V30 1374 H 129.623 -2.3044 -1.11044 0
M  V30 1375 H 129.267 -4.44981 -2.44856 0
M  V30 1376 H 129.197 -3.48715 -3.94596 0
M  V30 1377 H 131.688 -2.79056 -2.54826 0
M  V30 1378 H 132.001 -6.10958 -4.73234 0
M  V30 1379 H 130.346 -5.49025 -4.26141 0
M  V30 1380 H 133.537 -3.51288 -3.09377 0
M  V30 1381 H 133.71 -5.02624 -4.0899 0
M  V30 1382 N 127.117 1.15442 -1.07289 0
M  V30 1383 C 128.027 2.23786 -0.704057 0
M  V30 1384 C 129.043 1.7166 0.284413 0
M  V30 1385 O 130.219 2.00972 0.131205 0
M  V30 1386 C 127.284 3.46535 -0.106792 0
M  V30 1387 C 126.345 4.13654 -1.14842 0
M  V30 1388 C 125.578 5.30544 -0.57956 0
M  V30 1389 O 125.801 5.67187 0.604585 0
M  V30 1390 O 124.735 5.87154 -1.32414 0
M  V30 1391 H 128.561 2.57664 -1.60757 0
M  V30 1392 H 126.146 1.23152 -0.845803 0
M  V30 1393 H 128.028 4.20804 0.224048 0
M  V30 1394 H 126.703 3.14407 0.770049 0
M  V30 1395 H 125.61 3.4131 -1.5316 0
M  V30 1396 H 126.943 4.49861 -1.99714 0
M  V30 1397 N 128.595 0.856903 1.32268 0
M  V30 1398 C 129.842 0.461386 1.97174 0
M  V30 1399 C 130.17 -0.983491 1.67803 0
M  V30 1400 O 129.425 -1.70541 0.959903 0
M  V30 1401 C 129.724 0.649919 3.51441 0
M  V30 1402 C 129.39 2.0656 4.00804 0
M  V30 1403 C 128.052 2.45279 4.13995 0
M  V30 1404 C 130.404 2.98947 4.26943 0
M  V30 1405 C 127.732 3.75653 4.50668 0
M  V30 1406 C 130.084 4.28822 4.65075 0
M  V30 1407 C 128.748 4.67472 4.76472 0
M  V30 1408 H 128.018 0.168833 0.72151 0
M  V30 1409 H 130.665 1.08739 1.57633 0
M  V30 1410 H 128.97 -0.0593018 3.91755 0
M  V30 1411 H 130.667 0.32391 3.9969 0
M  V30 1412 H 127.257 1.75495 3.91024 0
M  V30 1413 H 131.441 2.70265 4.16258 0
M  V30 1414 H 126.697 4.05379 4.57688 0
M  V30 1415 H 130.871 5.0047 4.84255 0
M  V30 1416 H 128.498 5.68539 5.04646 0
M  V30 1417 N 130.073 -1.45103 0.615059 0
M  V30 1418 C 131.313 -2.04069 0.116282 0
M  V30 1419 C 131.677 -1.4721 -1.2326 0
M  V30 1420 O 132.878 -1.97577 -1.82255 0
M  V30 1421 C 131.149 -3.57298 0.085482 0
M  V30 1422 S 132.708 -4.37394 -0.351015 0
M  V30 1423 H 129.526 -0.709006 0.0532183 0
M  V30 1424 H 132.128 -1.77709 0.81484 0
M  V30 1425 H 130.832 -3.9619 1.0706 0
M  V30 1426 H 130.363 -3.88244 -0.634835 0
M  V30 1427 H 132.378 -4.69734 -1.59889 0
M  V30 1428 N 131.551 -0.354651 -1.53558 0
M  V30 1429 C 132.797 0.238797 -2.01389 0
M  V30 1430 C 133.13 1.49309 -1.2418 0
M  V30 1431 O 132.405 1.91638 -0.332457 0
M  V30 1432 C 132.688 0.541771 -3.56001 0
M  V30 1433 C 132.541 -0.725388 -4.43912 0
M  V30 1434 C 133.86 1.34685 -4.18984 0
M  V30 1435 H 130.979 0.0853177 -0.732045 0
M  V30 1436 H 133.621 -0.477384 -1.83905 0
M  V30 1437 H 131.771 1.15189 -3.71031 0
M  V30 1438 H 133.443 -1.36313 -4.407 0
M  V30 1439 H 131.686 -1.34801 -4.12324 0
M  V30 1440 H 132.357 -0.468505 -5.50008 0
M  V30 1441 H 134.833 0.830837 -4.07721 0
M  V30 1442 H 133.709 1.52759 -5.27215 0
M  V30 1443 H 133.97 2.35221 -3.74331 0
M  V30 1444 N 133.029 1.57378 -0.0835403 0
M  V30 1445 C 134.277 1.93547 0.581718 0
M  V30 1446 C 134.598 0.96524 1.69435 0
M  V30 1447 O 133.868 0.0153369 1.95894 0
M  V30 1448 H 132.448 0.714521 0.217874 0
M  V30 1449 H 135.11 1.94366 -0.144158 0
M  V30 1450 H 134.206 2.95665 0.999423 0
M  V30 1451 N 134.507 -0.190092 1.56449 0
M  V30 1452 C 135.923 -0.54113 1.50146 0
M  V30 1453 C 136.123 -1.85603 0.784465 0
M  V30 1454 O 135.179 -2.5024 0.337051 0
M  V30 1455 C 136.492 -0.591241 2.9483 0
M  V30 1456 C 138.04 -0.679732 3.0553 0
M  V30 1457 C 138.515 -0.760908 4.51635 0
M  V30 1458 N 140.006 -0.824302 4.55806 0
M  V30 1459 C 140.741 -0.907365 5.66175 0
M  V30 1460 N 140.237 -0.952422 6.86222 0
M  V30 1461 N 142.03 -0.94494 5.541 0
M  V30 1462 H 134.181 0.67235 2.01478 0
M  V30 1463 H 136.444 0.240127 0.917084 0
M  V30 1464 H 136.15 0.305905 3.50367 0
M  V30 1465 H 136.024 -1.44422 3.48457 0
M  V30 1466 H 138.411 -1.56731 2.50039 0
M  V30 1467 H 138.492 0.199549 2.5502 0
M  V30 1468 H 138.136 0.122336 5.07753 0
M  V30 1469 H 138.066 -1.65606 4.99882 0
M  V30 1470 H 140.557 -0.798526 3.69367 0
M  V30 1471 H 140.87 -1.01645 7.66086 0
M  V30 1472 H 139.215 -0.921014 6.8887 0
M  V30 1473 H 142.406 -0.906612 4.59236 0
M  V30 1474 H 142.579 -1.00622 6.4014 0
M  V30 1475 N 135.985 -1.50799 -0.457987 0
M  V30 1476 C 137.225 -1.64088 -1.21879 0
M  V30 1477 C 137.589 -0.339848 -1.88968 0
M  V30 1478 O 138.79 -0.348301 -2.66534 0
M  V30 1479 C 137.061 -2.79726 -2.2246 0
M  V30 1480 S 138.62 -3.13225 -3.07303 0
M  V30 1481 H 135.438 -0.578314 -0.41361 0
M  V30 1482 H 138.04 -1.88632 -0.513645 0
M  V30 1483 H 136.744 -3.72722 -1.71775 0
M  V30 1484 H 136.275 -2.57308 -2.97584 0
M  V30 1485 H 138.29 -2.58062 -4.23814 0
M  V30 1486 N 137.463 0.71206 -1.40597 0
M  V30 1487 C 138.709 1.47416 -1.39271 0
M  V30 1488 C 139.042 1.942 0.00388791 0
M  V30 1489 O 138.317 1.68403 0.973179 0
M  V30 1490 C 138.6 2.69774 -2.38525 0
M  V30 1491 C 138.453 2.28861 -3.87224 0
M  V30 1492 C 139.772 3.71939 -2.35264 0
M  V30 1493 H 136.891 0.534713 -0.5072 0
M  V30 1494 H 139.533 0.812375 -1.71757 0
M  V30 1495 H 137.683 3.26238 -2.10953 0
M  V30 1496 H 139.355 1.77852 -4.25636 0
M  V30 1497 H 137.598 1.60824 -4.02887 0
M  V30 1498 H 138.269 3.16584 -4.52193 0
M  V30 1499 H 140.745 3.25113 -2.59694 0
M  V30 1500 H 139.621 4.55186 -3.06753 0
M  V30 1501 H 139.882 4.20484 -1.36549 0
M  V30 1502 N 138.941 1.26152 0.944643 0
M  V30 1503 C 140.166 1.14363 1.7302 0
M  V30 1504 C 140.591 -0.29772 1.85729 0
M  V30 1505 O 139.949 -1.2157 1.34501 0
M  V30 1506 C 139.997 1.81378 3.11664 0
M  V30 1507 O 139.101 1.10022 3.97453 0
M  V30 1508 H 138.442 0.398694 0.53098 0
M  V30 1509 H 140.972 1.66906 1.18337 0
M  V30 1510 H 140.982 1.88064 3.62072 0
M  V30 1511 H 139.657 2.86237 3.0173 0
M  V30 1512 H 138.234 1.11287 3.55907 0
M  V30 1513 N 140.419 -1.14872 1.07899 0
M  V30 1514 C 141.382 -2.17986 0.708161 0
M  V30 1515 C 142.382 -1.58775 -0.25442 0
M  V30 1516 O 143.572 -1.74166 -0.034645 0
M  V30 1517 C 140.704 -3.40871 0.0446929 0
M  V30 1518 H 141.897 -2.52306 1.62116 0
M  V30 1519 H 139.45 -1.2943 0.876218 0
M  V30 1520 H 140.185 -3.12124 -0.880281 0
M  V30 1521 H 139.97 -3.8511 0.737091 0
M  V30 1522 H 141.46 -4.17121 -0.19991 0
M  V30 1523 N 141.898 -0.863906 -1.31812 0
M  V30 1524 C 142.848 -0.286898 -2.26188 0
M  V30 1525 C 143.832 0.572577 -1.50367 0
M  V30 1526 O 145.024 0.420447 -1.71934 0
M  V30 1527 C 142.153 0.515849 -3.39402 0
M  V30 1528 C 141.239 -0.356531 -4.22599 0
M  V30 1529 N 141.63 -1.44716 -4.84656 0
M  V30 1530 C 139.928 -0.147898 -4.45755 0
M  V30 1531 C 140.629 -1.98462 -5.46798 0
M  V30 1532 N 139.605 -1.28247 -5.28255 0
M  V30 1533 H 143.407 -1.12055 -2.717 0
M  V30 1534 H 140.921 -0.711012 -1.46008 0
M  V30 1535 H 142.918 0.945701 -4.06032 0
M  V30 1536 H 141.578 1.34718 -2.95434 0
M  V30 1537 H 142.589 -1.83008 -4.84488 0
M  V30 1538 H 139.266 0.647973 -4.12441 0
M  V30 1539 H 140.656 -2.89932 -6.06126 0
M  V30 1540 N 143.376 1.44774 -0.622745 0
M  V30 1541 C 144.787 1.85546 -0.207226 0
M  V30 1542 C 145.138 1.52093 1.23944 0
M  V30 1543 O 144.263 0.95492 1.94191 0
M  V30 1544 C 144.858 3.36781 -0.369313 0
M  V30 1545 C 143.417 3.76399 -0.00836847 0
M  V30 1546 C 142.564 2.68664 -0.686651 0
M  V30 1547 H 145.515 1.3536 -0.828454 0
M  V30 1548 H 145.536 3.78453 0.394162 0
M  V30 1549 H 145.048 3.61098 -1.42231 0
M  V30 1550 H 143.149 3.57698 1.04322 0
M  V30 1551 H 143.262 4.7732 -0.412584 0
M  V30 1552 H 141.626 2.54404 -0.122777 0
M  V30 1553 H 142.409 2.95815 -1.74208 0
M  V30 1554 N 144.854 0.36279 1.53368 0
M  V30 1555 C 146.102 -0.227326 2.00817 0
M  V30 1556 C 146.423 -1.49511 1.25186 0
M  V30 1557 O 145.693 -1.92482 0.364348 0
M  V30 1558 H 144.273 -0.0869923 0.741917 0
M  V30 1559 H 146.935 0.488381 1.88682 0
M  V30 1560 H 146.031 -0.456273 3.08747 0
M  V30 1561 N 146.332 -1.57332 0.0918853 0
M  V30 1562 C 147.262 -2.16872 -0.865371 0
M  V30 1563 C 148.243 -1.10118 -1.29646 0
M  V30 1564 O 149.428 -1.38242 -1.36392 0
M  V30 1565 C 146.558 -2.74649 -2.12569 0
M  V30 1566 C 145.512 -3.86747 -1.83333 0
M  V30 1567 C 144.838 -4.31212 -3.16166 0
M  V30 1568 C 146.138 -5.10089 -1.1228 0
M  V30 1569 H 147.832 -2.97114 -0.369307 0
M  V30 1570 H 145.378 -1.42918 -0.176194 0
M  V30 1571 H 147.331 -3.14952 -2.7997 0
M  V30 1572 H 146.055 -1.91657 -2.64452 0
M  V30 1573 H 144.714 -3.46978 -1.18331 0
M  V30 1574 H 144.362 -3.45115 -3.6593 0
M  V30 1575 H 144.062 -5.06788 -2.97388 0
M  V30 1576 H 145.586 -4.74146 -3.84731 0
M  V30 1577 H 147 -5.47582 -1.69785 0
M  V30 1578 H 145.397 -5.91073 -1.03693 0
M  V30 1579 H 146.467 -4.84786 -0.105041 0
M  V30 1580 N 147.81 0.181792 -1.56548 0
M  V30 1581 C 148.74 1.22765 -1.98623 0
M  V30 1582 C 149.721 1.46747 -0.860189 0
M  V30 1583 O 150.906 1.58259 -1.12551 0
M  V30 1584 C 148.036 2.56894 -2.33715 0
M  V30 1585 C 146.99 2.475 -3.49182 0
M  V30 1586 C 146.316 3.86023 -3.69986 0
M  V30 1587 C 147.616 1.98866 -4.82959 0
M  V30 1588 H 149.31 0.877942 -2.86239 0
M  V30 1589 H 146.856 0.42088 -1.37712 0
M  V30 1590 H 148.809 3.30253 -2.61746 0
M  V30 1591 H 147.533 2.93632 -1.42997 0
M  V30 1592 H 146.192 1.76596 -3.21262 0
M  V30 1593 H 145.84 4.20136 -2.76576 0
M  V30 1594 H 145.54 3.80609 -4.47672 0
M  V30 1595 H 147.064 4.60984 -4.00407 0
M  V30 1596 H 148.478 2.61992 -5.09934 0
M  V30 1597 H 146.875 2.04424 -5.64208 0
M  V30 1598 H 147.945 0.942465 -4.75653 0
M  V30 1599 N 149.288 1.51039 0.449983 0
M  V30 1600 C 150.22 1.67617 1.56324 0
M  V30 1601 C 151.233 0.557083 1.52972 0
M  V30 1602 O 152.422 0.830989 1.57977 0
M  V30 1603 C 149.522 1.66402 2.95235 0
M  V30 1604 C 148.695 2.9469 3.23229 0
M  V30 1605 C 147.754 2.85832 4.41799 0
M  V30 1606 O 146.78 3.59785 4.41071 0
M  V30 1607 N 147.982 2.00821 5.44657 0
M  V30 1608 H 150.747 2.63648 1.42512 0
M  V30 1609 H 148.308 1.48767 0.638737 0
M  V30 1610 H 150.3 1.58062 3.72557 0
M  V30 1611 H 148.87 0.780182 3.02708 0
M  V30 1612 H 148.09 3.16996 2.34323 0
M  V30 1613 H 149.378 3.79636 3.38754 0
M  V30 1614 H 148.776 1.40091 5.48079 0
M  V30 1615 H 147.333 1.98368 6.20881 0
M  V30 1616 N 150.766 -0.704594 1.40972 0
M  V30 1617 C 151.994 -1.49354 1.43182 0
M  V30 1618 C 152.409 -1.88768 0.0345508 0
M  V30 1619 O 151.766 -1.56184 -0.944081 0
M  V30 1620 C 151.817 -2.76187 2.33244 0
M  V30 1621 O 151.538 -2.38436 3.67532 0
M  V30 1622 C 153.039 -3.7 2.44162 0
M  V30 1623 H 150.259 -0.460559 0.487982 0
M  V30 1624 H 152.803 -0.868261 1.85153 0
M  V30 1625 H 150.958 -3.34974 1.94606 0
M  V30 1626 H 151.372 -3.20126 4.15475 0
M  V30 1627 H 152.846 -4.55803 3.11364 0
M  V30 1628 H 153.323 -4.13867 1.47006 0
M  V30 1629 H 153.929 -3.17121 2.83398 0
M  V30 1630 N 152.244 -1.26651 -0.937939 0
M  V30 1631 C 153.174 -1.10993 -2.05433 0
M  V30 1632 C 154.155 -0.0142161 -1.70094 0
M  V30 1633 O 155.34 -0.186837 -1.93299 0
M  V30 1634 C 152.47 -0.745561 -3.39203 0
M  V30 1635 C 151.424 -1.79337 -3.88616 0
M  V30 1636 C 150.75 -1.28324 -5.19073 0
M  V30 1637 C 152.05 -3.19553 -4.13138 0
M  V30 1638 H 153.744 -2.0438 -2.1879 0
M  V30 1639 H 151.29 -0.984041 -1.05131 0
M  V30 1640 H 153.243 -0.622888 -4.16771 0
M  V30 1641 H 151.967 0.22401 -3.25831 0
M  V30 1642 H 150.626 -1.90477 -3.13231 0
M  V30 1643 H 150.274 -0.303414 -5.02084 0
M  V30 1644 H 149.974 -1.98369 -5.53103 0
M  V30 1645 H 151.498 -1.1733 -5.99221 0
M  V30 1646 H 152.912 -3.11471 -4.81309 0
M  V30 1647 H 151.309 -3.87218 -4.58457 0
M  V30 1648 H 152.379 -3.65368 -3.18801 0
M  V30 1649 N 153.722 1.14298 -1.08507 0
M  V30 1650 C 154.685 2.17607 -0.719711 0
M  V30 1651 C 155.685 1.58907 0.245997 0
M  V30 1652 O 156.875 1.74181 0.0254081 0
M  V30 1653 C 154.007 3.40842 -0.0627695 0
M  V30 1654 H 155.2 2.51443 -1.63452 0
M  V30 1655 H 152.753 1.28963 -0.88307 0
M  V30 1656 H 153.488 3.12587 0.863716 0
M  V30 1657 H 153.273 3.84713 -0.757504 0
M  V30 1658 H 154.763 4.17221 0.177786 0
M  V30 1659 N 155.201 0.870884 1.31352 0
M  V30 1660 C 156.449 0.48132 1.96285 0
M  V30 1661 C 156.77 -0.969813 1.69173 0
M  V30 1662 O 156.04 -1.67998 1.00764 0
M  V30 1663 H 154.62 0.175002 0.726212 0
M  V30 1664 H 157.282 1.11087 1.60143 0
M  V30 1665 H 156.378 0.639825 3.05471 0
M  V30 1666 N 156.679 -1.44442 0.630414 0
M  V30 1667 C 158.09 -1.85434 0.217063 0
M  V30 1668 C 158.441 -1.52748 -1.23136 0
M  V30 1669 O 157.566 -0.965205 -1.93682 0
M  V30 1670 C 158.161 -3.36581 0.387168 0
M  V30 1671 C 156.72 -3.76389 0.0283297 0
M  V30 1672 C 155.867 -2.68296 0.700889 0
M  V30 1673 H 158.818 -1.34919 0.83562 0
M  V30 1674 H 158.839 -3.78657 -0.374086 0
M  V30 1675 H 158.351 -3.60339 1.44144 0
M  V30 1676 H 156.452 -3.58246 -1.02423 0
M  V30 1677 H 156.565 -4.77095 0.437892 0
M  V30 1678 H 154.929 -2.54335 0.136267 0
M  V30 1679 H 155.712 -2.94887 1.75774 0
M  V30 1680 N 158.157 -0.370918 -1.53173 0
M  V30 1681 C 159.087 0.464847 -2.28826 0
M  V30 1682 C 160.068 1.07936 -1.31468 0
M  V30 1683 O 161.253 1.0956 -1.60344 0
M  V30 1684 C 158.383 1.60196 -3.08147 0
M  V30 1685 C 157.337 1.11443 -4.13237 0
M  V30 1686 C 156.663 2.3422 -4.80672 0
M  V30 1687 C 157.963 0.195384 -5.21934 0
M  V30 1688 H 159.657 -0.166329 -2.98938 0
M  V30 1689 H 157.203 -0.0814359 -1.4377 0
M  V30 1690 H 159.156 2.19332 -3.59822 0
M  V30 1691 H 157.88 2.26045 -2.35735 0
M  V30 1692 H 156.539 0.545727 -3.62515 0
M  V30 1693 H 156.187 2.98537 -4.04827 0
M  V30 1694 H 155.887 2.02269 -5.51689 0
M  V30 1695 H 157.411 2.94032 -5.35143 0
M  V30 1696 H 158.825 0.694375 -5.69079 0
M  V30 1697 H 157.222 -0.0335027 -6.00091 0
M  V30 1698 H 158.292 -0.760961 -4.78892 0
M  V30 1699 N 159.635 1.57281 -0.100228 0
M  V30 1700 C 160.567 2.11342 0.886972 0
M  V30 1701 C 161.58 1.05182 1.24261 0
M  V30 1702 O 162.769 1.32613 1.19483 0
M  V30 1703 C 159.869 2.5825 2.19454 0
M  V30 1704 C 159.042 3.88302 2.01346 0
M  V30 1705 C 158.101 4.21004 3.15661 0
M  V30 1706 O 157.127 4.9014 2.89398 0
M  V30 1707 N 158.329 3.76818 4.41575 0
M  V30 1708 H 161.094 2.96668 0.425216 0
M  V30 1709 H 158.655 1.61678 0.0847334 0
M  V30 1710 H 160.647 2.7717 2.94888 0
M  V30 1711 H 159.217 1.77907 2.57037 0
M  V30 1712 H 158.437 3.7848 1.10212 0
M  V30 1713 H 159.725 4.73375 1.8653 0
M  V30 1714 H 159.123 3.2102 4.65792 0
M  V30 1715 H 157.68 4.00882 5.13942 0
M  V30 1716 N 161.113 -0.173488 1.56642 0
M  V30 1717 C 162.341 -0.906095 1.86004 0
M  V30 1718 C 162.756 -1.75921 0.685355 0
M  V30 1719 O 162.113 -1.79198 -0.345578 0
M  V30 1720 C 162.164 -1.78462 3.14378 0
M  V30 1721 O 161.885 -0.965914 4.27319 0
M  V30 1722 C 163.386 -2.62707 3.57071 0
M  V30 1723 H 160.606 -0.263341 0.617165 0
M  V30 1724 H 163.15 -0.174236 2.03756 0
M  V30 1725 H 161.305 -2.46984 2.98459 0
M  V30 1726 H 161.719 -1.56655 5.00559 0
M  V30 1727 H 163.193 -3.19969 4.49804 0
M  V30 1728 H 163.67 -3.37472 2.81086 0
M  V30 1729 H 164.276 -1.99521 3.75595 0
M  V30 1730 N 162.591 -1.51276 -0.441967 0
M  V30 1731 C 164.002 -1.56244 -1.02199 0
M  V30 1732 C 164.353 -0.383149 -1.92422 0
M  V30 1733 O 163.478 0.500613 -2.1053 0
M  V30 1734 C 164.073 -2.83162 -1.86024 0
M  V30 1735 C 162.632 -2.90716 -2.39084 0
M  V30 1736 C 161.779 -2.50858 -1.18175 0
M  V30 1737 H 164.73 -1.5712 -0.223416 0
M  V30 1738 H 164.751 -2.66663 -2.71425 0
M  V30 1739 H 164.263 -3.68974 -1.20331 0
M  V30 1740 H 162.364 -2.09323 -3.08244 0
M  V30 1741 H 162.477 -3.94266 -2.72198 0
M  V30 1742 H 160.841 -2.03951 -1.52565 0
M  V30 1743 H 161.624 -3.3901 -0.541001 0
M  V30 1744 N 164.069 0.697108 -1.41344 0
M  V30 1745 C 165.485 1.00751 -1.2378 0
M  V30 1746 C 165.685 2.01105 -0.126066 0
M  V30 1747 O 164.741 2.47295 0.51004 0
M  V30 1748 C 166.054 1.53359 -2.58653 0
M  V30 1749 C 167.602 1.6525 -2.65822 0
M  V30 1750 C 168.077 2.2126 -4.01009 0
M  V30 1751 N 169.568 2.28622 -4.02847 0
M  V30 1752 C 170.303 2.72984 -5.04249 0
M  V30 1753 N 169.799 3.16962 -6.16041 0
M  V30 1754 N 171.592 2.72534 -4.91611 0
M  V30 1755 H 163.743 0.0322662 -2.12375 0
M  V30 1756 H 166.006 0.0768853 -0.944877 0
M  V30 1757 H 165.712 0.870773 -3.4075 0
M  V30 1758 H 165.586 2.51597 -2.81032 0
M  V30 1759 H 167.973 2.30644 -1.84086 0
M  V30 1760 H 168.054 0.655614 -2.47256 0
M  V30 1761 H 167.698 1.56482 -4.83193 0
M  V30 1762 H 167.628 3.21698 -4.16915 0
M  V30 1763 H 170.119 1.97585 -3.22131 0
M  V30 1764 H 170.432 3.49434 -6.89287 0
M  V30 1765 H 168.777 3.14875 -6.1958 0
M  V30 1766 H 171.968 2.37525 -4.0336 0
M  V30 1767 H 172.141 3.06789 -5.70775 0
M  V30 1768 N 165.547 1.27147 0.931209 0
M  V30 1769 C 166.777 1.15914 1.71019 0
M  V30 1770 C 167.185 -0.287112 1.87009 0
M  V30 1771 O 166.528 -1.20761 1.38429 0
M  V30 1772 C 166.59 1.76647 3.13107 0
M  V30 1773 C 166.254 3.25807 3.20467 0
M  V30 1774 C 167.251 4.22489 3.02983 0
M  V30 1775 C 164.936 3.66452 3.43538 0
M  V30 1776 C 166.93 5.57794 3.08454 0
M  V30 1777 C 164.617 5.01888 3.48643 0
M  V30 1778 C 165.615 5.97369 3.31119 0
M  V30 1779 O 165.303 7.30337 3.35952 0
M  V30 1780 H 165.035 0.404062 0.54195 0
M  V30 1781 H 167.589 1.68457 1.17521 0
M  V30 1782 H 165.819 1.18578 3.68071 0
M  V30 1783 H 167.508 1.60179 3.72958 0
M  V30 1784 H 168.274 3.92425 2.85004 0
M  V30 1785 H 164.153 2.92611 3.5623 0
M  V30 1786 H 167.697 6.32298 2.94694 0
M  V30 1787 H 163.594 5.31609 3.66145 0
M  V30 1788 H 164.362 7.38739 3.5243 0
M  V30 1789 N 167.025 -1.13721 1.09112 0
M  V30 1790 C 168.272 -1.84924 0.825192 0
M  V30 1791 C 168.6 -1.83347 -0.649151 0
M  V30 1792 O 167.855 -1.26449 -1.49362 0
M  V30 1793 C 168.154 -3.32861 1.30146 0
M  V30 1794 C 167.82 -3.54621 2.78486 0
M  V30 1795 C 166.482 -3.60268 3.18999 0
M  V30 1796 C 168.834 -3.62855 3.74146 0
M  V30 1797 C 166.162 -3.71679 4.53951 0
M  V30 1798 C 168.514 -3.75793 5.08883 0
M  V30 1799 C 167.178 -3.79692 5.4899 0
M  V30 1800 H 166.448 -0.676684 0.301959 0
M  V30 1801 H 169.095 -1.3428 1.36533 0
M  V30 1802 H 167.4 -3.85835 0.681064 0
M  V30 1803 H 169.097 -3.86395 1.07236 0
M  V30 1804 H 165.687 -3.50879 2.46134 0
M  V30 1805 H 169.871 -3.57775 3.43963 0
M  V30 1806 H 165.127 -3.72963 4.84467 0
M  V30 1807 H 169.301 -3.81107 5.82864 0
M  V30 1808 H 166.928 -3.88287 6.53558 0
M  V30 1809 N 168.503 -0.877838 -1.30888 0
M  V30 1810 C 169.466 -0.344265 -2.266 0
M  V30 1811 C 170.466 0.50922 -1.52524 0
M  V30 1812 O 171.656 0.317398 -1.71284 0
M  V30 1813 C 168.788 0.510198 -3.37061 0
M  V30 1814 H 169.981 -1.1893 -2.7531 0
M  V30 1815 H 167.534 -0.654088 -1.41956 0
M  V30 1816 H 168.269 1.37612 -2.93655 0
M  V30 1817 H 168.054 -0.101047 -3.9197 0
M  V30 1818 H 169.544 0.875537 -4.08319 0
M  V30 1819 N 169.982 1.44106 -0.638065 0
M  V30 1820 C 171.229 2.01978 -0.14533 0
M  V30 1821 C 171.557 1.50234 1.23532 0
M  V30 1822 O 170.812 0.679548 1.83523 0
M  V30 1823 C 171.111 3.5729 -0.0887327 0
M  V30 1824 C 170.777 4.28317 -1.40909 0
M  V30 1825 C 169.439 4.47437 -1.77069 0
M  V30 1826 C 171.791 4.6867 -2.28031 0
M  V30 1827 C 169.119 5.04171 -3.00047 0
M  V30 1828 C 171.471 5.26766 -3.50286 0
M  V30 1829 C 170.135 5.44104 -3.86661 0
M  V30 1830 H 169.405 0.739089 -0.0531801 0
M  V30 1831 H 172.052 1.72781 -0.825761 0
M  V30 1832 H 170.357 3.8594 0.675095 0
M  V30 1833 H 172.054 3.99807 0.309145 0
M  V30 1834 H 168.644 4.1377 -1.1177 0
M  V30 1835 H 172.828 4.53604 -2.01388 0
M  V30 1836 H 168.084 5.15782 -3.28298 0
M  V30 1837 H 172.258 5.56983 -4.18023 0
M  V30 1838 H 169.885 5.87832 -4.82034 0
M  V30 1839 N 171.46 0.379036 1.52974 0
M  V30 1840 C 172.423 -0.448865 2.24762 0
M  V30 1841 C 173.423 -0.998689 1.26027 0
M  V30 1842 O 174.613 -0.882313 1.50203 0
M  V30 1843 C 171.745 -1.62872 2.99476 0
M  V30 1844 H 172.938 0.179491 2.99362 0
M  V30 1845 H 170.491 0.13096 1.5575 0
M  V30 1846 H 171.226 -2.29479 2.29151 0
M  V30 1847 H 171.011 -1.24128 3.71934 0
M  V30 1848 H 172.501 -2.2151 3.5401 0
M  V30 1849 N 172.938 -1.57226 0.108567 0
M  V30 1850 C 173.87 -2.11809 -0.875752 0
M  V30 1851 C 174.883 -1.05839 -1.23701 0
M  V30 1852 O 176.072 -1.33245 -1.18778 0
M  V30 1853 C 173.172 -2.59411 -2.18081 0
M  V30 1854 C 172.345 -3.89364 -1.99284 0
M  V30 1855 C 171.404 -4.22672 -3.13424 0
M  V30 1856 O 170.43 -4.91668 -2.86795 0
M  V30 1857 N 171.632 -3.79154 -4.3957 0
M  V30 1858 H 174.397 -2.9689 -0.409477 0
M  V30 1859 H 171.958 -1.61721 -0.076158 0
M  V30 1860 H 173.95 -2.7873 -2.93414 0
M  V30 1861 H 172.52 -1.79268 -2.5609 0
M  V30 1862 H 171.74 -3.79059 -1.08203 0
M  V30 1863 H 173.028 -4.74358 -1.84017 0
M  V30 1864 H 172.426 -3.23486 -4.64083 0
M  V30 1865 H 170.983 -4.03602 -5.11809 0
M  V30 1866 N 174.416 0.165178 -1.56732 0
M  V30 1867 C 175.326 1.22423 -2.00125 0
M  V30 1868 C 176.342 1.48084 -0.913619 0
M  V30 1869 O 177.518 1.60112 -1.22172 0
M  V30 1870 C 174.583 2.54197 -2.35764 0
M  V30 1871 C 173.644 2.36343 -3.58386 0
M  V30 1872 C 172.877 3.61834 -3.92316 0
M  V30 1873 O 173.1 4.67267 -3.27135 0
M  V30 1874 O 172.034 3.55579 -4.85641 0
M  V30 1875 H 175.86 0.885886 -2.90492 0
M  V30 1876 H 173.445 0.372518 -1.44681 0
M  V30 1877 H 175.327 3.3192 -2.59629 0
M  V30 1878 H 174.002 2.87598 -1.48557 0
M  V30 1879 H 172.909 1.56632 -3.39731 0
M  V30 1880 H 174.242 2.07865 -4.46154 0
M  V30 1881 N 175.894 1.51508 0.433938 0
M  V30 1882 C 177.124 1.67914 1.20369 0
M  V30 1883 C 177.532 0.377461 1.85397 0
M  V30 1884 O 176.875 -0.654255 1.71654 0
M  V30 1885 C 176.937 2.74045 2.32679 0
M  V30 1886 C 176.601 4.16543 1.87991 0
M  V30 1887 C 177.598 5.01211 1.38145 0
M  V30 1888 C 175.283 4.6266 1.95579 0
M  V30 1889 C 177.277 6.30056 0.964774 0
M  V30 1890 C 174.964 5.91501 1.53523 0
M  V30 1891 C 175.962 6.75027 1.04055 0
M  V30 1892 O 175.65 8.01459 0.625964 0
M  V30 1893 H 175.382 0.566578 0.368735 0
M  V30 1894 H 177.936 1.98709 0.51999 0
M  V30 1895 H 176.166 2.38572 3.04336 0
M  V30 1896 H 177.855 2.79295 2.94532 0
M  V30 1897 H 178.621 4.66783 1.31675 0
M  V30 1898 H 174.5 3.97767 2.33029 0
M  V30 1899 H 178.044 6.95202 0.57796 0
M  V30 1900 H 173.941 6.25442 1.59665 0
M  V30 1901 H 174.709 8.15043 0.751509 0
M  V30 1902 N 177.372 -0.689602 1.41712 0
M  V30 1903 C 178.335 -1.78521 1.43746 0
M  V30 1904 C 179.335 -1.57436 0.327191 0
M  V30 1905 O 180.525 -1.64 0.587348 0
M  V30 1906 C 177.657 -3.16971 1.25467 0
M  V30 1907 H 178.85 -1.78108 2.41283 0
M  V30 1908 H 176.403 -0.89781 1.27942 0
M  V30 1909 H 177.138 -3.23019 0.287948 0
M  V30 1910 H 176.923 -3.33678 2.05917 0
M  V30 1911 H 178.413 -3.96935 1.2974 0
M  V30 1912 N 178.85 -1.27639 -0.924453 0
M  V30 1913 C 180.261 -1.12834 -1.48746 0
M  V30 1914 C 180.612 0.285505 -1.94112 0
M  V30 1915 O 179.737 1.17874 -1.81479 0
M  V30 1916 C 180.332 -2.04217 -2.70334 0
M  V30 1917 C 178.891 -1.93509 -3.22848 0
M  V30 1918 C 178.038 -1.96583 -1.95577 0
M  V30 1919 H 180.989 -1.40484 -0.738233 0
M  V30 1920 H 181.01 -1.59989 -3.4523 0
M  V30 1921 H 180.522 -3.07111 -2.37285 0
M  V30 1922 H 178.623 -0.936131 -3.60649 0
M  V30 1923 H 178.736 -2.79917 -3.88823 0
M  V30 1924 H 177.1 -1.4085 -2.12211 0
M  V30 1925 H 177.883 -3.01137 -1.64837 0
M  V30 1926 N 180.328 1.1314 -1.09713 0
M  V30 1927 C 181.568 1.8613 -0.844683 0
M  V30 1928 C 181.932 1.81765 0.618491 0
M  V30 1929 O 183.133 2.50024 0.98699 0
M  V30 1930 C 181.404 3.30151 -1.36877 0
M  V30 1931 S 182.963 4.206 -1.25064 0
M  V30 1932 H 179.781 0.642056 -0.305427 0
M  V30 1933 H 182.383 1.36343 -1.4011 0
M  V30 1934 H 181.087 3.30883 -2.42786 0
M  V30 1935 H 180.618 3.85 -0.808614 0
M  V30 1936 H 182.633 4.95783 -0.203486 0
M  V30 1937 N 181.806 0.884767 1.30421 0
M  V30 1938 C 183.054 0.502112 1.95763 0
M  V30 1939 C 183.375 -0.951815 1.70192 0
M  V30 1940 O 182.645 -1.6692 1.0254 0
M  V30 1941 H 181.225 0.182694 0.724315 0
M  V30 1942 H 183.887 1.1278 1.58955 0
M  V30 1943 H 182.983 0.672188 3.04775 0
M  V30 1944 N 183.284 -1.43765 0.645699 0
M  V30 1945 C 184.561 -1.9541 0.0862963 0
M  V30 1946 C 184.941 -1.58725 -1.39175 0
M  V30 1947 O 184.289 -0.868581 -2.11348 0
M  V30 1948 C 184.499 -3.47488 0.324565 0
M  V30 1949 C 185.847 -4.24001 0.225497 0
M  V30 1950 O 186.871 -3.55274 0.256715 0
M  V30 1951 O 185.73 -5.46313 0.142801 0
M  V30 1952 H 182.824 -0.826882 -0.0139483 0
M  V30 1953 H 185.37 -1.53743 0.718415 0
M  V30 1954 H 184.142 -3.67289 1.3496 0
M  V30 1955 H 183.765 -3.96135 -0.340987 0
M  V30 1956 N 184.763 -0.387143 -1.52771 0
M  V30 1957 C 185.693 0.440551 -2.29306 0
M  V30 1958 C 186.674 1.06535 -1.32606 0
M  V30 1959 O 187.859 1.07853 -1.61497 0
M  V30 1960 C 184.989 1.56919 -3.09829 0
M  V30 1961 C 183.943 1.07054 -4.14395 0
M  V30 1962 C 183.269 2.29109 -4.83129 0
M  V30 1963 C 184.569 0.140015 -5.22112 0
M  V30 1964 H 186.263 -0.198026 -2.98744 0
M  V30 1965 H 183.809 -0.09668 -1.43675 0
M  V30 1966 H 185.762 2.15503 -3.62128 0
M  V30 1967 H 184.486 2.23532 -2.3812 0
M  V30 1968 H 183.145 0.507247 -3.63074 0
M  V30 1969 H 182.793 2.94227 -4.0797 0
M  V30 1970 H 182.493 1.96406 -5.53804 0
M  V30 1971 H 184.017 2.88339 -5.38231 0
M  V30 1972 H 185.431 0.633978 -5.69784 0
M  V30 1973 H 183.828 -0.0971485 -6.00021 0
M  V30 1974 H 184.898 -0.811711 -4.78058 0
M  V30 1975 N 186.241 1.57166 -0.116904 0
M  V30 1976 C 187.466 1.999 0.55271 0
M  V30 1977 C 187.891 0.996039 1.59564 0
M  V30 1978 O 187.249 -0.032556 1.81271 0
M  V30 1979 C 187.297 3.4152 1.15742 0
M  V30 1980 O 186.401 3.44106 2.27299 0
M  V30 1981 H 185.742 0.649447 0.138258 0
M  V30 1982 H 188.272 2.03573 -0.204759 0
M  V30 1983 H 188.282 3.79684 1.49346 0
M  V30 1984 H 186.957 4.14034 0.393493 0
M  V30 1985 H 185.534 3.17759 1.9515 0
M  V30 1986 N 187.719 -0.156864 1.56817 0
M  V30 1987 C 188.967 -0.869404 1.82444 0
M  V30 1988 C 189.288 -1.82147 0.69623 0
M  V30 1989 O 188.558 -1.93847 -0.28287 0
M  V30 1990 H 187.138 -0.324043 0.673056 0
M  V30 1991 H 189.8 -0.153224 1.94297 0
M  V30 1992 H 188.896 -1.43761 2.77019 0
M  V30 1993 N 189.197 -1.51736 -0.425897 0
M  V30 1994 C 190.13 -1.68574 -1.53812 0
M  V30 1995 C 191.108 -0.53328 -1.53606 0
M  V30 1996 O 192.292 -0.758555 -1.72564 0
M  V30 1997 C 189.419 -1.70977 -2.92377 0
M  V30 1998 C 188.465 -2.92324 -3.10563 0
M  V30 1999 S 189.298 -4.52952 -2.85648 0
M  V30 2000 C 190.454 -4.58117 -4.26474 0
M  V30 2001 H 190.687 -2.62647 -1.39298 0
M  V30 2002 H 188.22 -1.41564 -0.616361 0
M  V30 2003 H 190.178 -1.73047 -3.72243 0
M  V30 2004 H 188.839 -0.78061 -3.04245 0
M  V30 2005 H 188.032 -2.90439 -4.11899 0
M  V30 2006 H 187.634 -2.88055 -2.38538 0
M  V30 2007 H 189.926 -4.34462 -5.19855 0
M  V30 2008 H 190.869 -5.59983 -4.33388 0
M  V30 2009 H 191.277 -3.8732 -4.10662 0
M  V30 2010 N 190.675 0.682077 -1.42076 0
M  V30 2011 C 191.605 1.80796 -1.47767 0
M  V30 2012 C 192.586 1.6677 -0.334954 0
M  V30 2013 O 193.771 1.863 -0.548264 0
M  V30 2014 C 190.901 3.19038 -1.37229 0
M  V30 2015 C 189.855 3.47789 -2.49453 0
M  V30 2016 C 189.181 4.8553 -2.23975 0
M  V30 2017 C 190.481 3.45411 -3.91776 0
M  V30 2018 H 192.175 1.7629 -2.41997 0
M  V30 2019 H 189.721 0.846721 -1.16476 0
M  V30 2020 H 191.674 3.97528 -1.39821 0
M  V30 2021 H 190.398 3.24204 -0.394907 0
M  V30 2022 H 189.057 2.71657 -2.46166 0
M  V30 2023 H 188.705 4.87337 -1.24547 0
M  V30 2024 H 188.405 5.0573 -2.99184 0
M  V30 2025 H 189.929 5.66312 -2.28304 0
M  V30 2026 H 191.343 4.13882 -3.96705 0
M  V30 2027 H 189.74 3.77145 -4.66778 0
M  V30 2028 H 190.81 2.44122 -4.18966 0
M  V30 2029 N 192.153 1.28127 0.917671 0
M  V30 2030 C 193.085 1.07517 2.02417 0
M  V30 2031 C 194.098 0.0281099 1.62776 0
M  V30 2032 O 195.287 0.270748 1.76435 0
M  V30 2033 C 192.387 0.610957 3.33347 0
M  V30 2034 C 191.56 1.73255 4.01624 0
M  V30 2035 C 190.619 1.26238 5.10833 0
M  V30 2036 O 189.645 1.96389 5.34247 0
M  V30 2037 N 190.847 0.123448 5.80369 0
M  V30 2038 H 193.612 2.02806 2.20658 0
M  V30 2039 H 191.173 1.19827 1.08871 0
M  V30 2040 H 193.165 0.280101 4.0373 0
M  V30 2041 H 191.735 -0.24898 3.11607 0
M  V30 2042 H 190.955 2.23319 3.24842 0
M  V30 2043 H 192.243 2.48503 4.43986 0
M  V30 2044 H 191.641 -0.461847 5.63812 0
M  V30 2045 H 190.198 -0.148158 6.51632 0
M  V30 2046 N 193.631 -1.12557 1.10312 0
M  V30 2047 C 194.541 -2.21841 0.763142 0
M  V30 2048 C 195.557 -1.72354 -0.238801 0
M  V30 2049 O 196.733 -2.01249 -0.0778746 0
M  V30 2050 C 193.798 -3.46131 0.198632 0
M  V30 2051 C 192.859 -4.10464 1.25769 0
M  V30 2052 C 192.092 -5.28821 0.72002 0
M  V30 2053 O 192.315 -5.6859 -0.453993 0
M  V30 2054 O 191.249 -5.83437 1.47935 0
M  V30 2055 H 195.075 -2.53312 1.67532 0
M  V30 2056 H 192.66 -1.20867 0.878157 0
M  V30 2057 H 194.542 -4.2125 -0.112401 0
M  V30 2058 H 193.217 -3.16338 -0.686419 0
M  V30 2059 H 192.124 -3.3713 1.62156 0
M  V30 2060 H 193.457 -4.44408 2.11571 0
M  V30 2061 N 195.109 -0.891671 -1.2995 0
M  V30 2062 C 196.525 -0.58662 -1.48428 0
M  V30 2063 C 196.725 0.873951 -1.81561 0
M  V30 2064 O 195.781 1.65471 -1.90724 0
M  V30 2065 C 197.094 -1.50553 -2.60296 0
M  V30 2066 C 198.642 -1.50988 -2.74175 0
M  V30 2067 C 199.117 -2.41488 -3.89163 0
M  V30 2068 N 200.608 -2.39489 -3.96483 0
M  V30 2069 C 201.343 -3.06223 -4.84784 0
M  V30 2070 N 200.839 -3.82206 -5.77833 0
M  V30 2071 N 202.632 -2.95421 -4.78208 0
M  V30 2072 H 194.783 -1.83644 -1.06718 0
M  V30 2073 H 197.046 -0.786455 -0.529332 0
M  V30 2074 H 196.752 -2.54581 -2.42654 0
M  V30 2075 H 196.626 -1.22008 -3.56923 0
M  V30 2076 H 199.013 -0.47708 -2.91218 0
M  V30 2077 H 199.094 -1.83567 -1.78148 0
M  V30 2078 H 198.738 -3.44857 -3.72876 0
M  V30 2079 H 198.668 -2.06222 -4.84541 0
M  V30 2080 H 201.159 -1.84278 -3.29924 0
M  V30 2081 H 201.472 -4.302 -6.41988 0
M  V30 2082 H 199.817 -3.86313 -5.77743 0
M  V30 2083 H 203.008 -2.35581 -4.04499 0
M  V30 2084 H 203.181 -3.47704 -5.46814 0
M  V30 2085 N 196.587 1.43421 -0.653314 0
M  V30 2086 C 197.835 2.01414 -0.166415 0
M  V30 2087 C 198.156 1.51803 1.22397 0
M  V30 2088 O 197.426 0.730693 1.81763 0
M  V30 2089 H 196.006 0.744703 -0.0585319 0
M  V30 2090 H 198.668 1.75629 -0.845003 0
M  V30 2091 H 197.764 3.11734 -0.151111 0
M  V30 2092 N 198.065 0.39524 1.52563 0
M  V30 2093 C 198.995 -0.428384 2.29537 0
M  V30 2094 C 199.976 -1.05831 1.33169 0
M  V30 2095 O 201.161 -1.06995 1.62067 0
M  V30 2096 C 198.291 -1.55274 3.10656 0
M  V30 2097 C 197.245 -1.04855 4.14957 0
M  V30 2098 C 196.571 -2.26543 4.84337 0
M  V30 2099 C 197.871 -0.112324 5.22179 0
M  V30 2100 H 199.565 0.213867 2.98635 0
M  V30 2101 H 197.111 0.104298 1.43622 0
M  V30 2102 H 199.064 -2.1358 3.63265 0
M  V30 2103 H 197.788 -2.22266 2.39302 0
M  V30 2104 H 196.447 -0.487985 3.63338 0
M  V30 2105 H 196.095 -2.92059 4.09525 0
M  V30 2106 H 195.795 -1.93466 5.54837 0
M  V30 2107 H 197.319 -2.85481 5.39753 0
M  V30 2108 H 198.733 -0.603752 5.70112 0
M  V30 2109 H 197.13 0.128968 5.99961 0
M  V30 2110 H 198.2 0.837052 4.77621 0
M  V30 2111 N 199.544 -1.57102 0.125237 0
M  V30 2112 C 200.955 -1.82384 -0.399142 0
M  V30 2113 C 201.306 -1.04276 -1.66195 0
M  V30 2114 O 200.431 -0.281269 -2.14564 0
M  V30 2115 C 201.026 -3.30821 -0.730932 0
M  V30 2116 C 199.585 -3.56762 -1.19992 0
M  V30 2117 C 198.732 -2.7649 -0.211792 0
M  V30 2118 H 201.683 -1.54786 0.350277 0
M  V30 2119 H 201.704 -3.4579 -1.58775 0
M  V30 2120 H 201.216 -3.87643 0.188345 0
M  V30 2121 H 199.317 -3.05305 -2.13588 0
M  V30 2122 H 199.43 -4.65317 -1.14093 0
M  V30 2123 H 197.794 -2.4489 -0.700085 0
M  V30 2124 H 198.577 -3.36073 0.700691 0
M  V30 2125 N 201.022 0.148545 -1.56898 0
M  V30 2126 C 201.932 1.20293 -2.01412 0
M  V30 2127 C 202.948 1.47107 -0.929273 0
M  V30 2128 O 204.124 1.58807 -1.23863 0
M  V30 2129 C 201.189 2.51682 -2.38447 0
M  V30 2130 C 200.25 2.32529 -3.60872 0
M  V30 2131 C 199.483 3.57653 -3.96132 0
M  V30 2132 O 199.706 4.63771 -3.32073 0
M  V30 2133 O 198.64 3.50408 -4.89385 0
M  V30 2134 H 202.466 0.855025 -2.91416 0
M  V30 2135 H 200.051 0.357151 -1.45068 0
M  V30 2136 H 201.933 3.29147 -2.63135 0
M  V30 2137 H 200.608 2.86006 -1.51599 0
M  V30 2138 H 199.515 1.53019 -3.41373 0
M  V30 2139 H 200.848 2.03121 -4.48333 0
M  V30 2140 N 202.5 1.5196 0.417844 0
M  V30 2141 C 203.43 1.77634 1.51554 0
M  V30 2142 C 204.411 0.626918 1.58126 0
M  V30 2143 O 205.596 0.871632 1.7354 0
M  V30 2144 C 202.726 1.91911 2.8946 0
M  V30 2145 C 201.68 3.07463 2.97743 0
M  V30 2146 C 201.006 3.06951 4.37819 0
M  V30 2147 C 202.306 4.47082 2.70027 0
M  V30 2148 H 204 2.6955 1.3032 0
M  V30 2149 H 201.546 1.29706 0.625492 0
M  V30 2150 H 203.499 2.08455 3.6623 0
M  V30 2151 H 202.223 0.966598 3.11969 0
M  V30 2152 H 200.882 2.90656 2.23416 0
M  V30 2153 H 200.53 2.09438 4.57323 0
M  V30 2154 H 200.23 3.84556 4.44286 0
M  V30 2155 H 201.754 3.25613 5.16535 0
M  V30 2156 H 203.168 4.6414 3.36522 0
M  V30 2157 H 201.565 5.2654 2.87881 0
M  V30 2158 H 202.635 4.55777 1.65514 0
M  V30 2159 N 203.978 -0.674533 1.42435 0
M  V30 2160 C 204.908 -1.80009 1.48724 0
M  V30 2161 C 205.889 -1.6659 0.343793 0
M  V30 2162 O 207.074 -1.86007 0.558137 0
M  V30 2163 C 204.204 -3.18306 1.38919 0
M  V30 2164 C 203.158 -3.46461 2.51294 0
M  V30 2165 C 202.484 -4.84335 2.26547 0
M  V30 2166 C 203.784 -3.43328 3.93603 0
M  V30 2167 H 205.478 -1.75004 2.42928 0
M  V30 2168 H 203.024 -0.840533 1.16923 0
M  V30 2169 H 204.977 -3.9678 1.41927 0
M  V30 2170 H 203.701 -3.2399 0.412094 0
M  V30 2171 H 202.36 -2.70348 2.47604 0
M  V30 2172 H 202.008 -4.86669 1.2713 0
M  V30 2173 H 201.708 -5.04136 3.01861 0
M  V30 2174 H 203.232 -5.65094 2.31304 0
M  V30 2175 H 204.646 -4.11772 3.98894 0
M  V30 2176 H 203.043 -3.74664 4.68771 0
M  V30 2177 H 204.113 -2.41897 4.20255 0
M  V30 2178 N 205.456 -1.28612 -0.910864 0
M  V30 2179 C 206.702 -1.16106 -1.66274 0
M  V30 2180 C 207.035 0.289113 -1.92036 0
M  V30 2181 O 206.31 1.21 -1.52281 0
M  V30 2182 C 206.593 -1.96309 -3.01885 0
M  V30 2183 C 206.446 -3.49405 -2.8326 0
M  V30 2184 C 207.765 -1.78076 -4.02463 0
M  V30 2185 H 204.884 -0.423152 -0.603417 0
M  V30 2186 H 207.526 -1.57961 -1.05586 0
M  V30 2187 H 205.676 -1.60742 -3.53687 0
M  V30 2188 H 207.348 -3.94894 -2.38446 0
M  V30 2189 H 205.591 -3.74893 -2.18261 0
M  V30 2190 H 206.262 -4.00784 -3.79574 0
M  V30 2191 H 208.738 -2.0912 -3.59733 0
M  V30 2192 H 207.614 -2.36561 -4.95308 0
M  V30 2193 H 207.875 -0.733008 -4.35981 0
M  V30 2194 N 206.934 1.1197 -1.10907 0
M  V30 2195 C 207.881 2.17846 -0.762345 0
M  V30 2196 C 208.851 1.63995 0.263599 0
M  V30 2197 O 210.036 1.90273 0.141773 0
M  V30 2198 C 207.176 3.44487 -0.205651 0
M  V30 2199 C 206.289 4.12369 -1.28748 0
M  V30 2200 C 205.424 5.26674 -0.691919 0
M  V30 2201 C 204.463 5.86431 -1.75399 0
M  V30 2202 N 203.6 6.92142 -1.17833 0
M  V30 2203 H 208.44 2.46851 -1.6694 0
M  V30 2204 H 205.977 1.21188 -0.833776 0
M  V30 2205 H 207.935 4.16981 0.135037 0
M  V30 2206 H 206.565 3.15884 0.664613 0
M  V30 2207 H 205.617 3.38003 -1.74522 0
M  V30 2208 H 206.929 4.52844 -2.09125 0
M  V30 2209 H 206.083 6.05953 -0.300963 0
M  V30 2210 H 204.822 4.8749 0.143232 0
M  V30 2211 H 203.827 5.05835 -2.15432 0
M  V30 2212 H 205.052 6.27685 -2.59208 0
M  V30 2213 H 202.998 6.54985 -0.364725 0
M  V30 2214 H 202.915 7.31242 -1.91887 0
M  V30 2215 H 204.183 7.75237 -0.81408 0
M  V30 2216 N 208.412 0.89855 1.29475 0
M  V30 2217 C 209.828 0.594483 1.48115 0
M  V30 2218 C 210.028 -0.86431 1.82022 0
M  V30 2219 O 209.084 -1.64457 1.91599 0
M  V30 2220 C 210.397 1.51932 2.59494 0
M  V30 2221 C 211.945 1.5244 2.7337 0
M  V30 2222 C 212.42 2.43548 3.87877 0
M  V30 2223 N 213.911 2.41589 3.95208 0
M  V30 2224 C 214.646 3.08789 4.83153 0
M  V30 2225 N 214.142 3.85265 5.75798 0
M  V30 2226 N 215.935 2.97952 4.76635 0
M  V30 2227 H 208.086 1.84207 1.05742 0
M  V30 2228 H 210.349 0.789251 0.525154 0
M  V30 2229 H 210.055 2.55865 2.41301 0
M  V30 2230 H 209.929 1.23899 3.56271 0
M  V30 2231 H 212.316 0.492518 2.90961 0
M  V30 2232 H 212.397 1.8451 1.77172 0
M  V30 2233 H 212.041 3.46829 3.71041 0
M  V30 2234 H 211.971 2.08788 4.83441 0
M  V30 2235 H 214.462 1.86025 3.28943 0
M  V30 2236 H 214.775 4.33598 6.39697 0
M  V30 2237 H 213.12 3.89371 5.75687 0
M  V30 2238 H 216.311 2.37723 4.03244 0
M  V30 2239 H 216.484 3.50599 5.44962 0
M  V30 2240 N 209.89 -1.43072 0.660911 0
M  V30 2241 C 211.136 -2.0202 0.177708 0
M  V30 2242 C 211.469 -1.52066 -1.20787 0
M  V30 2243 O 210.744 -0.716987 -1.80802 0
M  V30 2244 C 211.027 -3.59561 0.197019 0
M  V30 2245 C 210.88 -4.19727 1.61706 0
M  V30 2246 C 212.199 -4.37664 -0.462396 0
M  V30 2247 H 209.318 -0.734034 0.0660494 0
M  V30 2248 H 211.96 -1.70272 0.843058 0
M  V30 2249 H 210.11 -3.86739 -0.369527 0
M  V30 2250 H 211.782 -4.03553 2.23479 0
M  V30 2251 H 210.025 -3.76084 2.16201 0
M  V30 2252 H 210.696 -5.28834 1.58237 0
M  V30 2253 H 213.172 -4.16095 0.0197215 0
M  V30 2254 H 212.048 -5.47305 -0.418188 0
M  V30 2255 H 212.309 -4.14493 -1.53778 0
M  V30 2256 N 211.368 -0.403325 -1.52352 0
M  V30 2257 C 212.614 0.174605 -2.02047 0
M  V30 2258 C 212.947 1.45282 -1.28867 0
M  V30 2259 O 212.222 1.90483 -0.393257 0
M  V30 2260 C 212.505 0.428238 -3.57545 0
M  V30 2261 C 212.358 -0.866248 -4.4138 0
M  V30 2262 C 213.677 1.21287 -4.23057 0
M  V30 2263 H 210.796 0.0619851 -0.734389 0
M  V30 2264 H 213.438 -0.53565 -1.82293 0
M  V30 2265 H 211.588 1.03327 -3.74507 0
M  V30 2266 H 213.26 -1.50265 -4.3614 0
M  V30 2267 H 211.503 -1.47851 -4.07827 0
M  V30 2268 H 212.174 -0.643249 -5.48239 0
M  V30 2269 H 214.65 0.700703 -4.10158 0
M  V30 2270 H 213.526 1.35909 -5.31808 0
M  V30 2271 H 213.787 2.23193 -3.81625 0
M  V30 2272 N 212.846 1.57033 -0.133567 0
M  V30 2273 C 213.809 2.14897 0.796995 0
M  V30 2274 C 214.809 1.0874 1.18458 0
M  V30 2275 O 215.999 1.34446 1.1077 0
M  V30 2276 C 213.131 2.70112 2.07973 0
M  V30 2277 H 214.324 2.98457 0.293873 0
M  V30 2278 H 211.877 1.55871 0.115787 0
M  V30 2279 H 212.612 1.9018 2.62682 0
M  V30 2280 H 212.397 3.47764 1.81115 0
M  V30 2281 H 213.887 3.14738 2.74462 0
M  V30 2282 N 214.325 -0.140222 1.56975 0
M  V30 2283 C 215.257 -1.19818 1.95388 0
M  V30 2284 C 216.27 -1.38816 0.850525 0
M  V30 2285 O 217.459 -1.38267 1.12891 0
M  V30 2286 C 214.559 -2.56189 2.21857 0
M  V30 2287 C 213.732 -2.58077 3.5315 0
M  V30 2288 C 212.791 -3.76037 3.6808 0
M  V30 2289 O 211.817 -3.60598 4.40406 0
M  V30 2290 N 213.019 -4.93763 3.05251 0
M  V30 2291 H 215.784 -0.871609 2.86746 0
M  V30 2292 H 213.345 -0.32972 1.58507 0
M  V30 2293 H 215.337 -3.33623 2.2908 0
M  V30 2294 H 213.907 -2.81111 1.36731 0
M  V30 2295 H 213.127 -1.6651 3.57307 0
M  V30 2296 H 214.415 -2.56377 4.39486 0
M  V30 2297 H 213.813 -5.09209 2.46419 0
M  V30 2298 H 212.37 -5.68949 3.18026 0
M  V30 2299 N 215.803 -1.52179 -0.40978 0
M  V30 2300 C 216.733 -1.78435 -1.5061 0
M  V30 2301 C 217.714 -0.635295 -1.57791 0
M  V30 2302 O 218.899 -0.880823 -1.73076 0
M  V30 2303 C 216.029 -1.93444 -2.88439 0
M  V30 2304 C 214.983 -3.09038 -2.96108 0
M  V30 2305 C 214.309 -3.09268 -4.36185 0
M  V30 2306 C 215.609 -4.48508 -2.67652 0
M  V30 2307 H 217.303 -2.70237 -1.28889 0
M  V30 2308 H 214.849 -1.30036 -0.618605 0
M  V30 2309 H 216.802 -2.10394 -3.65119 0
M  V30 2310 H 215.526 -0.983129 -3.11452 0
M  V30 2311 H 214.185 -2.91837 -2.21872 0
M  V30 2312 H 213.833 -2.11861 -4.56206 0
M  V30 2313 H 213.533 -3.86907 -4.42241 0
M  V30 2314 H 215.057 -3.28348 -5.14801 0
M  V30 2315 H 216.471 -4.65918 -3.34056 0
M  V30 2316 H 214.868 -5.28059 -2.85085 0
M  V30 2317 H 215.938 -4.56649 -1.63095 0
M  V30 2318 N 217.281 0.66697 -1.42791 0
M  V30 2319 C 218.244 1.76211 -1.46568 0
M  V30 2320 C 219.244 1.56896 -0.352196 0
M  V30 2321 O 220.434 1.63044 -0.613364 0
M  V30 2322 C 217.566 3.14935 -1.30494 0
M  V30 2323 H 218.759 1.74247 -2.44086 0
M  V30 2324 H 216.312 0.877342 -1.29354 0
M  V30 2325 H 217.047 3.2252 -0.339301 0
M  V30 2326 H 216.832 3.30359 -2.11199 0
M  V30 2327 H 218.322 3.94821 -1.36038 0
M  V30 2328 N 218.759 1.29093 0.90403 0
M  V30 2329 C 220.007 1.16583 1.65085 0
M  V30 2330 C 220.328 -0.283933 1.92922 0
M  V30 2331 O 219.598 -1.19509 1.55224 0
M  V30 2332 H 218.178 0.428467 0.611903 0
M  V30 2333 H 220.84 1.61959 1.08422 0
M  V30 2334 H 219.936 1.71266 2.6091 0
M  V30 2335 N 220.237 -1.11381 1.11499 0
M  V30 2336 C 221.2 -2.15622 0.777153 0
M  V30 2337 C 222.2 -1.59504 -0.203779 0
M  V30 2338 O 223.39 -1.74188 0.020782 0
M  V30 2339 C 220.522 -3.40556 0.153116 0
M  V30 2340 H 221.715 -2.47021 1.70061 0
M  V30 2341 H 219.268 -1.26577 0.916952 0
M  V30 2342 H 220.003 -3.14767 -0.780536 0
M  V30 2343 H 219.788 -3.8257 0.859238 0
M  V30 2344 H 221.278 -4.17546 -0.0671044 0
M  V30 2345 N 221.715 -0.905404 -1.28997 0
M  V30 2346 C 222.645 -0.404212 -2.29975 0
M  V30 2347 C 223.626 0.523784 -1.61835 0
M  V30 2348 O 224.811 0.433298 -1.89304 0
M  V30 2349 C 221.941 0.364042 -3.45387 0
M  V30 2350 C 220.895 -0.474048 -4.25367 0
M  V30 2351 C 220.221 0.422045 -5.33032 0
M  V30 2352 C 221.521 -1.72696 -4.92923 0
M  V30 2353 H 223.215 -1.24807 -2.72146 0
M  V30 2354 H 220.761 -0.601585 -1.30832 0
M  V30 2355 H 222.714 0.725447 -4.15109 0
M  V30 2356 H 221.438 1.24174 -3.02074 0
M  V30 2357 H 220.097 -0.81786 -3.57361 0
M  V30 2358 H 219.745 1.29804 -4.85963 0
M  V30 2359 H 219.445 -0.135057 -5.87445 0
M  V30 2360 H 220.969 0.779517 -6.05604 0
M  V30 2361 H 222.383 -1.43495 -5.55051 0
M  V30 2362 H 220.78 -2.22582 -5.57295 0
M  V30 2363 H 221.85 -2.45964 -4.17887 0
M  V30 2364 N 223.193 1.4272 -0.668489 0
M  V30 2365 C 224.47 1.95248 -0.117373 0
M  V30 2366 C 224.85 1.60919 1.36632 0
M  V30 2367 O 224.198 0.902095 2.09939 0
M  V30 2368 C 224.408 3.46927 -0.379806 0
M  V30 2369 C 225.756 4.23588 -0.292923 0
M  V30 2370 O 226.78 3.5482 -0.313204 0
M  V30 2371 O 225.639 5.46017 -0.229697 0
M  V30 2372 H 222.733 0.827 0.00079152 0
M  V30 2373 H 225.279 1.52581 -0.742783 0
M  V30 2374 H 224.051 3.65096 -1.40786 0
M  V30 2375 H 223.674 3.96627 0.277923 0
M  V30 2376 N 224.671 0.411399 1.52136 0
M  V30 2377 C 225.918 -0.163645 2.01838 0
M  V30 2378 C 226.246 -1.4495 1.29691 0
M  V30 2379 O 225.501 -1.91725 0.392431 0
M  V30 2380 C 225.8 -0.455872 3.54481 0
M  V30 2381 C 225.466 0.741055 4.44769 0
M  V30 2382 C 224.128 1.06936 4.69167 0
M  V30 2383 C 226.48 1.54075 4.97906 0
M  V30 2384 C 223.808 2.19851 5.43951 0
M  V30 2385 C 226.16 2.66067 5.73926 0
M  V30 2386 C 224.824 2.99381 5.96596 0
M  V30 2387 H 224.094 -0.0598821 0.738576 0
M  V30 2388 H 226.741 0.553283 1.83333 0
M  V30 2389 H 225.046 -1.2544 3.71177 0
M  V30 2390 H 226.743 -0.913802 3.90449 0
M  V30 2391 H 223.333 0.475192 4.25958 0
M  V30 2392 H 227.517 1.30033 4.78963 0
M  V30 2393 H 222.773 2.46006 5.59724 0
M  V30 2394 H 226.947 3.28419 6.14096 0
M  V30 2395 H 224.574 3.86992 6.54325 0
M  V30 2396 N 226.149 -1.5696 0.141893 0
M  V30 2397 C 227.079 -2.19516 -0.795936 0
M  V30 2398 C 228.06 -1.14187 -1.26077 0
M  V30 2399 O 229.245 -1.42511 -1.31925 0
M  V30 2400 C 226.375 -2.81272 -2.03723 0
M  V30 2401 C 225.329 -3.92384 -1.70936 0
M  V30 2402 C 224.655 -4.41052 -3.02287 0
M  V30 2403 C 225.955 -5.13403 -0.959954 0
M  V30 2404 H 227.649 -2.98138 -0.274596 0
M  V30 2405 H 225.195 -1.43406 -0.130636 0
M  V30 2406 H 227.148 -3.237 -2.69808 0
M  V30 2407 H 225.872 -1.99973 -2.58221 0
M  V30 2408 H 224.531 -3.50566 -1.07232 0
M  V30 2409 H 224.179 -3.56582 -3.54765 0
M  V30 2410 H 223.879 -5.15993 -2.81114 0
M  V30 2411 H 225.403 -4.86146 -3.69451 0
M  V30 2412 H 226.817 -5.52706 -1.52279 0
M  V30 2413 H 225.214 -5.94073 -0.848357 0
M  V30 2414 H 226.284 -4.84875 0.0492434 0
M  V30 2415 N 227.627 0.131896 -1.57047 0
M  V30 2416 C 228.577 1.1679 -1.95816 0
M  V30 2417 C 229.561 1.37756 -0.831393 0
M  V30 2418 O 230.753 1.39065 -1.09499 0
M  V30 2419 C 227.882 2.49778 -2.35512 0
M  V30 2420 C 226.968 2.32342 -3.54793 0
M  V30 2421 N 227.359 1.8469 -4.70875 0
M  V30 2422 C 225.657 2.63043 -3.60173 0
M  V30 2423 C 226.358 1.80656 -5.52936 0
M  V30 2424 N 225.334 2.24528 -4.95064 0
M  V30 2425 H 229.136 0.791818 -2.83033 0
M  V30 2426 H 226.65 0.339791 -1.58805 0
M  V30 2427 H 228.647 3.24692 -2.61498 0
M  V30 2428 H 227.307 2.88156 -1.49654 0
M  V30 2429 H 228.318 1.54429 -4.9434 0
M  V30 2430 H 224.995 3.05193 -2.84892 0
M  V30 2431 H 226.385 1.45178 -6.56028 0
M  V30 2432 N 229.106 1.52395 0.401703 0
M  V30 2433 C 230.331 1.70972 1.17403 0
M  V30 2434 C 230.756 0.421615 1.83314 0
M  V30 2435 O 230.114 -0.621564 1.70312 0
M  V30 2436 C 230.162 2.85151 2.20728 0
M  V30 2437 O 229.266 2.51238 3.27037 0
M  V30 2438 H 228.607 0.568927 0.342372 0
M  V30 2439 H 231.137 1.99131 0.469891 0
M  V30 2440 H 231.147 3.10279 2.64936 0
M  V30 2441 H 229.822 3.78603 1.7214 0
M  V30 2442 H 228.399 2.36808 2.88057 0
M  V30 2443 N 230.584 -0.659388 1.43143 0
M  V30 2444 C 232 -0.974337 1.26407 0
M  V30 2445 C 232.2 -2.007 0.179341 0
M  V30 2446 O 231.256 -2.4856 -0.444295 0
M  V30 2447 C 232.569 -1.46447 2.62628 0
M  V30 2448 C 234.117 -1.58144 2.7011 0
M  V30 2449 C 234.592 -2.1055 4.06734 0
M  V30 2450 N 236.083 -2.17861 4.08767 0
M  V30 2451 C 236.818 -2.59519 5.1131 0
M  V30 2452 N 236.314 -3.00518 6.24228 0
M  V30 2453 N 238.107 -2.59404 4.98664 0
M  V30 2454 H 230.258 0.0240528 2.12386 0
M  V30 2455 H 232.521 -0.0518065 0.946583 0
M  V30 2456 H 232.227 -0.780123 3.42939 0
M  V30 2457 H 232.101 -2.44058 2.87603 0
M  V30 2458 H 234.488 -2.25682 1.90136 0
M  V30 2459 H 234.569 -0.589828 2.48907 0
M  V30 2460 H 234.213 -1.43616 4.87172 0
M  V30 2461 H 234.143 -3.10531 4.25298 0
M  V30 2462 H 236.634 -1.88975 3.27257 0
M  V30 2463 H 236.947 -3.31036 6.98309 0
M  V30 2464 H 235.292 -2.98337 6.2771 0
M  V30 2465 H 238.483 -2.26747 4.09516 0
M  V30 2466 H 238.656 -2.91548 5.78709 0
M  V30 2467 N 232.062 -1.29571 -0.897171 0
M  V30 2468 C 233.31 -1.17456 -1.64464 0
M  V30 2469 C 233.631 0.273698 -1.9307 0
M  V30 2470 O 232.901 1.18684 -1.55855 0
M  V30 2471 H 231.481 -0.431706 -0.609622 0
M  V30 2472 H 234.143 -1.62531 -1.07562 0
M  V30 2473 H 233.239 -1.72648 -2.59998 0
M  V30 2474 N 233.54 1.10788 -1.12088 0
M  V30 2475 C 234.47 2.19083 -0.807755 0
M  V30 2476 C 235.451 1.6858 0.226859 0
M  V30 2477 O 236.636 1.93997 0.0888475 0
M  V30 2478 C 233.766 3.46344 -0.257576 0
M  V30 2479 C 232.72 4.101 -1.22483 0
M  V30 2480 C 232.046 5.32016 -0.535052 0
M  V30 2481 C 233.346 4.54236 -2.57811 0
M  V30 2482 H 235.04 2.45534 -1.71328 0
M  V30 2483 H 232.586 1.1801 -0.825205 0
M  V30 2484 H 234.539 4.21392 -0.0262679 0
M  V30 2485 H 233.263 3.19373 0.683278 0
M  V30 2486 H 231.922 3.37054 -1.44189 0
M  V30 2487 H 231.57 5.01319 0.410827 0
M  V30 2488 H 231.27 5.75625 -1.18024 0
M  V30 2489 H 232.794 6.09799 -0.312695 0
M  V30 2490 H 234.208 5.20575 -2.40155 0
M  V30 2491 H 232.605 5.08682 -3.18375 0
M  V30 2492 H 233.675 3.6734 -3.16528 0
M  V30 2493 N 235.018 0.912232 1.28515 0
M  V30 2494 C 236.264 0.545405 1.95328 0
M  V30 2495 C 236.597 -0.908313 1.71649 0
M  V30 2496 O 235.872 -1.64575 1.03659 0
M  V30 2497 C 236.155 0.853483 3.4984 0
M  V30 2498 C 236.008 2.35982 3.82926 0
M  V30 2499 C 237.327 0.348589 4.38717 0
M  V30 2500 H 234.446 0.199626 0.709449 0
M  V30 2501 H 237.088 1.1412 1.5191 0
M  V30 2502 H 235.238 0.34643 3.86952 0
M  V30 2503 H 236.91 2.93738 3.55691 0
M  V30 2504 H 235.153 2.81543 3.30024 0
M  V30 2505 H 235.824 2.52593 4.90816 0
M  V30 2506 H 238.3 0.78294 4.08668 0
M  V30 2507 H 237.176 0.593242 5.45685 0
M  V30 2508 H 237.437 -0.751049 4.35674 0
M  V30 2509 N 236.496 -1.42363 0.676048 0
M  V30 2510 C 237.446 -2.27987 -0.0242903 0
M  V30 2511 C 238.43 -1.41153 -0.772319 0
M  V30 2512 O 239.622 -1.64592 -0.651025 0
M  V30 2513 C 236.751 -3.29195 -0.973953 0
M  V30 2514 C 235.837 -4.23512 -0.223202 0
M  V30 2515 N 236.228 -4.99865 0.772589 0
M  V30 2516 C 234.526 -4.43606 -0.461469 0
M  V30 2517 C 235.227 -5.68757 1.22027 0
M  V30 2518 N 234.203 -5.40811 0.549975 0
M  V30 2519 H 238.005 -2.84445 0.73949 0
M  V30 2520 H 235.519 -1.54341 0.50522 0
M  V30 2521 H 237.516 -3.89339 -1.49067 0
M  V30 2522 H 236.176 -2.74298 -1.73755 0
M  V30 2523 H 237.187 -5.04921 1.15217 0
M  V30 2524 H 233.864 -3.99749 -1.20446 0
M  V30 2525 H 235.254 -6.40007 2.0455 0
M  V30 2526 N 237.974 -0.419461 -1.51915 0
M  V30 2527 C 238.937 0.389116 -2.25873 0
M  V30 2528 C 239.937 0.964924 -1.28631 0
M  V30 2529 O 241.127 0.842179 -1.52489 0
M  V30 2530 C 238.259 1.54874 -3.03689 0
M  V30 2531 H 239.452 -0.258799 -2.98781 0
M  V30 2532 H 237.005 -0.172209 -1.55348 0
M  V30 2533 H 237.74 2.23323 -2.35154 0
M  V30 2534 H 237.525 1.14223 -3.75094 0
M  V30 2535 H 239.015 2.12046 -3.59759 0
M  V30 2536 N 239.452 1.56882 -0.150215 0
M  V30 2537 C 240.729 1.87844 0.545327 0
M  V30 2538 C 241.109 1.0567 1.82749 0
M  V30 2539 O 240.457 0.144442 2.28043 0
M  V30 2540 C 240.667 3.39526 0.80767 0
M  V30 2541 C 242.015 4.08814 1.14703 0
M  V30 2542 O 243.039 3.44723 0.896917 0
M  V30 2543 O 241.898 5.22004 1.61784 0
M  V30 2544 H 238.992 0.778677 0.278553 0
M  V30 2545 H 241.538 1.68666 -0.187068 0
M  V30 2546 H 240.31 3.91173 -0.0996096 0
M  V30 2547 H 239.933 3.64243 1.59413 0
M  V30 2548 N 240.93 -0.123565 1.57115 0
M  V30 2549 C 242.176 -0.833386 1.84885 0
M  V30 2550 C 242.509 -1.79742 0.735292 0
M  V30 2551 O 241.784 -1.92764 -0.25925 0
M  V30 2552 C 242.067 -1.5873 3.23228 0
M  V30 2553 C 241.92 -0.643183 4.45178 0
M  V30 2554 C 243.239 -2.54453 3.59085 0
M  V30 2555 H 240.358 -0.301518 0.6725 0
M  V30 2556 H 243 -0.097778 1.89748 0
M  V30 2557 H 241.15 -2.21438 3.19214 0
M  V30 2558 H 242.822 -0.0253015 4.61293 0
M  V30 2559 H 241.065 0.0456139 4.33776 0
M  V30 2560 H 241.736 -1.20724 5.38637 0
M  V30 2561 H 244.212 -2.01853 3.63861 0
M  V30 2562 H 243.088 -3.04238 4.5687 0
M  V30 2563 H 243.349 -3.36906 2.86264 0
M  V30 2564 N 242.408 -1.52605 -0.393616 0
M  V30 2565 C 243.355 -1.77055 -1.48054 0
M  V30 2566 C 244.325 -0.61358 -1.54352 0
M  V30 2567 O 245.51 -0.852806 -1.70681 0
M  V30 2568 C 242.65 -1.94108 -2.85335 0
M  V30 2569 C 241.763 -3.21792 -2.88226 0
M  V30 2570 C 240.898 -3.29188 -4.16904 0
M  V30 2571 C 239.937 -4.51013 -4.13828 0
M  V30 2572 N 239.074 -4.55716 -5.34105 0
M  V30 2573 H 243.914 -2.69815 -1.26506 0
M  V30 2574 H 241.451 -1.33683 -0.61379 0
M  V30 2575 H 243.409 -2.01979 -3.65049 0
M  V30 2576 H 242.039 -1.04713 -3.05344 0
M  V30 2577 H 241.091 -3.23015 -2.00911 0
M  V30 2578 H 242.403 -4.11557 -2.8182 0
M  V30 2579 H 241.557 -3.36216 -5.05018 0
M  V30 2580 H 240.296 -2.37389 -4.26026 0
M  V30 2581 H 239.301 -4.44115 -3.24102 0
M  V30 2582 H 240.526 -5.44123 -4.06333 0
M  V30 2583 H 238.472 -3.66807 -5.43865 0
M  V30 2584 H 238.389 -5.39346 -5.29756 0
M  V30 2585 H 239.657 -4.66993 -6.2413 0
M  V30 2586 N 243.887 0.651787 -1.4349 0
M  V30 2587 C 245.298 1.233 -1.40193 0
M  V30 2588 C 245.649 1.9591 -0.106727 0
M  V30 2589 O 244.774 2.01316 0.793773 0
M  V30 2590 C 245.369 2.24257 -2.53957 0
M  V30 2591 C 243.928 2.77852 -2.5392 0
M  V30 2592 C 243.075 1.52517 -2.3159 0
M  V30 2593 H 246.026 0.443717 -1.52371 0
M  V30 2594 H 246.047 3.0646 -2.25528 0
M  V30 2595 H 245.559 1.71382 -3.4821 0
M  V30 2596 H 243.66 3.34786 -1.63551 0
M  V30 2597 H 243.773 3.25299 -3.51735 0
M  V30 2598 H 242.137 1.79915 -1.80285 0
M  V30 2599 H 242.92 1.01574 -3.27929 0
M  V30 2600 N 245.365 1.30045 0.890287 0
M  V30 2601 C 246.642 1.09227 1.62262 0
M  V30 2602 C 247.022 -0.360305 2.08002 0
M  V30 2603 O 246.37 -1.35084 1.84295 0
M  V30 2604 C 246.58 2.08835 2.79623 0
M  V30 2605 C 247.928 2.40266 3.50082 0
M  V30 2606 O 248.952 2.07104 2.89804 0
M  V30 2607 O 247.811 2.96967 4.58773 0
M  V30 2608 H 244.905 0.419132 0.712922 0
M  V30 2609 H 247.451 1.41451 0.937529 0
M  V30 2610 H 246.223 3.06633 2.43089 0
M  V30 2611 H 245.846 1.77397 3.55832 0
M  V30 2612 N 246.843 -1.10192 1.12674 0
M  V30 2613 C 247.791 -2.18694 0.792196 0
M  V30 2614 C 248.785 -1.67938 -0.222058 0
M  V30 2615 O 249.991 -1.79822 -0.0800074 0
M  V30 2616 H 246.366 -0.713223 0.238364 0
M  V30 2617 H 248.337 -2.44149 1.71564 0
M  V30 2618 C 247.086 -3.46682 0.265859 0
M  V30 2619 H 246.409 -3.86101 1.03761 0
M  V30 2620 H 247.849 -4.23942 0.0701128 0
M  V30 2621 C 246.308 -3.21506 -1.00675 0
M  V30 2622 O 246.838 -3.43408 -2.08408 0
M  V30 2623 N 245.044 -2.75158 -0.934692 0
M  V30 2624 H 244.591 -2.57535 -0.0578604 0
M  V30 2625 H 244.549 -2.58691 -1.7868 0
M  V30 2626 N 248.321 -0.919034 -1.28029 0
M  V30 2627 C 249.567 -0.555757 -1.95036 0
M  V30 2628 C 249.9 0.899198 -1.72128 0
M  V30 2629 O 249.175 1.64023 -1.04531 0
M  V30 2630 C 249.458 -0.872024 -3.49382 0
M  V30 2631 C 249.311 -2.3801 -3.81669 0
M  V30 2632 C 250.63 -0.37185 -4.38526 0
M  V30 2633 H 247.749 -0.203386 -0.708381 0
M  V30 2634 H 250.391 -1.14924 -1.51303 0
M  V30 2635 H 248.541 -0.366946 -3.86763 0
M  V30 2636 H 250.213 -2.9562 -3.54128 0
M  V30 2637 H 248.456 -2.83289 -3.28526 0
M  V30 2638 H 249.127 -2.55192 -4.8947 0
M  V30 2639 H 251.603 -0.804602 -4.08247 0
M  V30 2640 H 250.479 -0.622173 -5.45362 0
M  V30 2641 H 250.74 0.727934 -4.36066 0
M  V30 2642 N 249.799 1.42003 -0.683588 0
M  V30 2643 C 250.729 2.33487 -0.024866 0
M  V30 2644 C 251.71 1.51163 0.779975 0
M  V30 2645 O 252.895 1.79739 0.735362 0
M  V30 2646 C 250.025 3.3487 0.920836 0
M  V30 2647 C 248.979 4.27414 0.223958 0
M  V30 2648 C 248.305 5.19074 1.2832 0
M  V30 2649 C 249.605 5.14445 -0.90242 0
M  V30 2650 H 251.299 2.88819 -0.788921 0
M  V30 2651 H 248.845 1.38873 -0.38083 0
M  V30 2652 H 250.798 3.97787 1.39081 0
M  V30 2653 H 249.522 2.77861 1.71642 0
M  V30 2654 H 248.181 3.65904 -0.225864 0
M  V30 2655 H 247.829 4.58387 2.071 0
M  V30 2656 H 247.529 5.81822 0.821995 0
M  V30 2657 H 249.053 5.84867 1.75392 0
M  V30 2658 H 250.467 5.70998 -0.513272 0
M  V30 2659 H 248.864 5.86072 -1.28997 0
M  V30 2660 H 249.934 4.52322 -1.74737 0
M  V30 2661 N 251.277 0.427512 1.51691 0
M  V30 2662 C 252.523 -0.142439 2.02299 0
M  V30 2663 C 252.856 -1.43214 1.31162 0
M  V30 2664 O 252.131 -1.89833 0.423511 0
M  V30 2665 C 252.414 -0.371301 3.58181 0
M  V30 2666 C 252.267 0.936358 4.39946 0
M  V30 2667 C 253.586 -1.14542 4.24933 0
M  V30 2668 H 250.705 -0.0502937 0.735282 0
M  V30 2669 H 253.347 0.564584 1.81418 0
M  V30 2670 H 251.497 -0.973559 3.76104 0
M  V30 2671 H 253.169 1.57184 4.33694 0
M  V30 2672 H 251.412 1.5432 4.05423 0
M  V30 2673 H 252.083 0.730388 5.47147 0
M  V30 2674 H 254.559 -0.635362 4.11221 0
M  V30 2675 H 253.435 -1.27431 5.33903 0
M  V30 2676 H 253.696 -2.17093 3.85127 0
M  V30 2677 N 252.755 -1.56801 0.158532 0
M  V30 2678 C 254.002 -1.9649 -0.489679 0
M  V30 2679 C 254.33 -1.04394 -1.6411 0
M  V30 2680 O 253.585 -0.0754401 -1.95555 0
M  V30 2681 C 253.884 -3.4235 -1.02623 0
M  V30 2682 C 253.55 -4.50899 0.00794526 0
M  V30 2683 C 252.212 -4.80312 0.292207 0
M  V30 2684 C 254.564 -5.16333 0.710584 0
M  V30 2685 C 251.892 -5.72461 1.28472 0
M  V30 2686 C 254.244 -6.09553 1.69199 0
M  V30 2687 C 252.908 -6.37339 1.98383 0
M  V30 2688 H 252.178 -0.719009 -0.179186 0
M  V30 2689 H 254.825 -1.8989 0.247798 0
M  V30 2690 H 253.13 -3.45838 -1.84128 0
M  V30 2691 H 254.827 -3.70393 -1.53656 0
M  V30 2692 H 251.417 -4.28015 -0.22379 0
M  V30 2693 H 255.601 -4.93732 0.504174 0
M  V30 2694 H 250.857 -5.92278 1.51714 0
M  V30 2695 H 255.031 -6.59327 2.24189 0
M  V30 2696 H 252.658 -7.08546 2.7544 0
M  V30 2697 N 254.233 0.115231 -1.57178 0
M  V30 2698 C 255.51 0.852873 -1.76027 0
M  V30 2699 C 255.89 1.97892 -0.73498 0
M  V30 2700 O 255.238 2.27232 0.24036 0
M  V30 2701 C 255.448 1.36608 -3.21153 0
M  V30 2702 C 256.796 1.81692 -3.83762 0
M  V30 2703 O 257.82 1.46278 -3.24779 0
M  V30 2704 O 256.679 2.47104 -4.87444 0
M  V30 2705 H 253.773 0.405296 -0.720877 0
M  V30 2706 H 256.319 0.0986785 -1.69413 0
M  V30 2707 H 255.091 0.558357 -3.87296 0
M  V30 2708 H 254.714 2.18287 -3.3232 0
M  V30 2709 N 255.711 1.52812 0.385517 0
M  V30 2710 C 257.122 1.5993 0.963293 0
M  V30 2711 C 257.473 0.454302 1.90868 0
M  V30 2712 O 256.598 -0.422132 2.12243 0
M  V30 2713 C 257.193 2.89871 1.75387 0
M  V30 2714 C 255.752 2.99389 2.28129 0
M  V30 2715 C 254.899 2.55071 1.08783 0
M  V30 2716 H 257.85 1.5784 0.164948 0
M  V30 2717 H 257.871 2.76553 2.61341 0
M  V30 2718 H 257.383 3.73186 1.06554 0
M  V30 2719 H 255.484 2.20619 3.00263 0
M  V30 2720 H 255.597 4.04096 2.57377 0
M  V30 2721 H 253.961 2.09473 1.4489 0
M  V30 2722 H 254.744 3.40785 0.414807 0
M  V30 2723 N 257.189 -0.644168 1.43834 0
M  V30 2724 C 258.435 -1.40603 1.46146 0
M  V30 2725 C 258.768 -1.93997 0.0887717 0
M  V30 2726 O 258.043 -1.72854 -0.891724 0
M  V30 2727 C 258.326 -2.58086 2.51124 0
M  V30 2728 C 258.179 -2.10126 3.97702 0
M  V30 2729 C 259.498 -3.60291 2.52742 0
M  V30 2730 H 256.617 -0.509905 0.532134 0
M  V30 2731 H 259.259 -0.729502 1.75437 0
M  V30 2732 H 257.409 -3.15801 2.26278 0
M  V30 2733 H 259.081 -1.57342 4.33637 0
M  V30 2734 H 257.324 -1.41419 4.10101 0
M  V30 2735 H 257.995 -2.94649 4.66783 0
M  V30 2736 H 260.471 -3.12352 2.7491 0
M  V30 2737 H 259.347 -4.40032 3.28121 0
M  V30 2738 H 259.608 -4.1349 1.56455 0
M  V30 2739 N 258.668 -1.30515 -0.883378 0
M  V30 2740 C 259.908 -1.20716 -1.64946 0
M  V30 2741 C 260.272 0.234072 -1.90568 0
M  V30 2742 O 261.473 0.455335 -2.64915 0
M  V30 2743 C 259.744 -2.01444 -2.9522 0
M  V30 2744 S 261.303 -2.0836 -3.86175 0
M  V30 2745 H 258.121 -0.430165 -0.566109 0
M  V30 2746 H 260.723 -1.65011 -1.04841 0
M  V30 2747 H 259.427 -3.05268 -2.74298 0
M  V30 2748 H 258.958 -1.57817 -3.60357 0
M  V30 2749 H 260.973 -1.21215 -4.81167 0
M  V30 2750 N 260.146 1.09593 -1.13257 0
M  V30 2751 C 261.371 1.8604 -0.916732 0
M  V30 2752 C 261.796 1.80504 0.529146 0
M  V30 2753 O 261.154 1.18127 1.37534 0
M  V30 2754 C 261.202 3.32017 -1.40703 0
M  V30 2755 O 260.306 4.08141 -0.591153 0
M  V30 2756 H 259.647 0.576943 -0.328683 0
M  V30 2757 H 262.177 1.38405 -1.50682 0
M  V30 2758 H 262.187 3.82865 -1.4099 0
M  V30 2759 H 260.862 3.35361 -2.45979 0
M  V30 2760 H 259.439 3.67084 -0.656005 0
M  V30 2761 N 261.624 0.925811 1.2754 0
M  V30 2762 C 263.04 0.625767 1.46821 0
M  V30 2763 C 263.24 -0.825506 1.83814 0
M  V30 2764 O 262.296 -1.60356 1.95044 0
M  V30 2765 C 263.609 1.57402 2.56213 0
M  V30 2766 C 265.157 1.58204 2.70075 0
M  V30 2767 C 265.632 2.51721 3.82623 0
M  V30 2768 N 267.123 2.49917 3.89994 0
M  V30 2769 C 267.858 3.18968 4.76494 0
M  V30 2770 N 267.354 3.97391 5.67496 0
M  V30 2771 N 269.147 3.07996 4.70208 0
M  V30 2772 H 261.298 1.86409 1.01811 0
M  V30 2773 H 263.561 0.800213 0.508295 0
M  V30 2774 H 263.267 2.60925 2.35819 0
M  V30 2775 H 263.141 1.31428 3.53563 0
M  V30 2776 H 265.528 0.554124 2.89851 0
M  V30 2777 H 265.609 1.88226 1.73218 0
M  V30 2778 H 265.253 3.54622 3.63601 0
M  V30 2779 H 265.183 2.18996 4.78903 0
M  V30 2780 H 267.674 1.9296 3.24923 0
M  V30 2781 H 267.987 4.4707 6.30356 0
M  V30 2782 H 266.332 4.01495 5.67298 0
M  V30 2783 H 269.523 2.46223 3.9811 0
M  V30 2784 H 269.696 3.6208 5.37403 0
M  V30 2785 N 263.102 -1.41638 0.69111 0
M  V30 2786 C 264.348 -2.01598 0.220519 0
M  V30 2787 C 264.681 -1.54594 -1.17535 0
M  V30 2788 O 263.956 -0.755177 -1.79241 0
M  V30 2789 C 264.239 -3.59062 0.273243 0
M  V30 2790 C 264.092 -4.16203 1.70573 0
M  V30 2791 C 265.411 -4.38546 -0.369457 0
M  V30 2792 H 262.53 -0.732468 0.0816045 0
M  V30 2793 H 265.172 -1.68445 0.878986 0
M  V30 2794 H 263.322 -3.87435 -0.287411 0
M  V30 2795 H 264.994 -3.98722 2.31989 0
M  V30 2796 H 263.237 -3.71414 2.2413 0
M  V30 2797 H 263.908 -5.25358 1.69419 0
M  V30 2798 H 266.384 -4.1596 0.107977 0
M  V30 2799 H 265.26 -5.48069 -0.302002 0
M  V30 2800 H 265.521 -4.17662 -1.44951 0
M  V30 2801 N 264.58 -0.43555 -1.51462 0
M  V30 2802 C 265.543 0.365137 -2.26273 0
M  V30 2803 C 266.543 0.951227 -1.29647 0
M  V30 2804 O 267.733 0.825958 -1.53374 0
M  V30 2805 C 264.865 1.51645 -3.05314 0
M  V30 2806 H 266.058 -0.290474 -2.9849 0
M  V30 2807 H 263.611 -0.188676 -1.55157 0
M  V30 2808 H 264.346 2.20816 -2.3751 0
M  V30 2809 H 264.131 1.10238 -3.76284 0
M  V30 2810 H 265.621 2.08218 -3.61987 0
M  V30 2811 N 266.058 1.56714 -0.166846 0
M  V30 2812 C 266.988 2.20754 0.760913 0
M  V30 2813 C 267.969 1.16178 1.24244 0
M  V30 2814 O 269.154 1.44592 1.29641 0
M  V30 2815 C 266.284 2.84478 1.99223 0
M  V30 2816 C 265.238 3.95053 1.64672 0
M  V30 2817 C 264.564 4.45805 2.95232 0
M  V30 2818 C 265.864 5.14865 0.878155 0
M  V30 2819 H 267.558 2.98537 0.22713 0
M  V30 2820 H 265.104 1.43596 0.107805 0
M  V30 2821 H 267.057 3.27951 2.64624 0
M  V30 2822 H 265.781 2.04056 2.55007 0
M  V30 2823 H 264.44 3.52228 1.01641 0
M  V30 2824 H 264.088 3.62181 3.49047 0
M  V30 2825 H 263.788 5.204 2.7287 0
M  V30 2826 H 265.312 4.91962 3.6167 0
M  V30 2827 H 266.726 5.55059 1.43466 0
M  V30 2828 H 265.123 5.95348 0.753738 0
M  V30 2829 H 266.193 4.84735 -0.126377 0
M  V30 2830 N 267.536 -0.106894 1.57237 0
M  V30 2831 C 268.784 -0.810921 1.85117 0
M  V30 2832 C 269.105 -1.7984 0.753827 0
M  V30 2833 O 268.375 -1.94649 -0.221056 0
M  V30 2834 H 266.955 -0.302466 0.683025 0
M  V30 2835 H 269.617 -0.0913324 1.94686 0
M  V30 2836 H 268.713 -1.34875 2.81452 0
M  V30 2837 N 269.014 -1.53014 -0.377408 0
M  V30 2838 C 270.291 -1.59215 -1.13622 0
M  V30 2839 C 270.671 -0.392407 -2.07421 0
M  V30 2840 O 270.019 0.618342 -2.19975 0
M  V30 2841 C 270.229 -2.93669 -1.88573 0
M  V30 2842 C 271.577 -3.47822 -2.43526 0
M  V30 2843 O 272.601 -2.9562 -1.98715 0
M  V30 2844 O 271.46 -4.39055 -3.25412 0
M  V30 2845 H 268.554 -0.642625 -0.52054 0
M  V30 2846 H 271.1 -1.65353 -0.381625 0
M  V30 2847 H 269.872 -3.7243 -1.20048 0
M  V30 2848 H 269.495 -2.90968 -2.70968 0
M  V30 2849 N 270.492 0.636531 -1.44174 0
M  V30 2850 C 271.422 1.76003 -1.53444 0
M  V30 2851 C 272.403 1.65619 -0.387841 0
M  V30 2852 O 273.588 1.84461 -0.607257 0
M  V30 2853 C 270.718 3.14511 -1.4731 0
M  V30 2854 C 269.672 3.39677 -2.60391 0
M  V30 2855 C 268.998 4.78159 -2.39308 0
M  V30 2856 C 270.298 3.32772 -4.02567 0
M  V30 2857 H 271.992 1.68501 -2.47483 0
M  V30 2858 H 269.538 0.809237 -1.19111 0
M  V30 2859 H 271.491 3.92878 -1.52397 0
M  V30 2860 H 270.215 3.22783 -0.49785 0
M  V30 2861 H 268.874 2.63688 -2.54684 0
M  V30 2862 H 268.522 4.83128 -1.39988 0
M  V30 2863 H 268.222 4.95956 -3.15122 0
M  V30 2864 H 269.746 5.58762 -2.46205 0
M  V30 2865 H 271.16 4.01051 -4.09672 0
M  V30 2866 H 269.557 3.62104 -4.7854 0
M  V30 2867 H 270.627 2.30669 -4.2652 0
M  V30 2868 N 271.97 1.30982 0.876444 0
M  V30 2869 C 273.218 1.20058 1.62575 0
M  V30 2870 C 273.539 -0.242947 1.93481 0
M  V30 2871 O 272.809 -1.1619 1.57724 0
M  V30 2872 H 271.389 0.44135 0.602677 0
M  V30 2873 H 274.051 1.64222 1.04962 0
M  V30 2874 H 273.147 1.76762 2.57219 0
M  V30 2875 N 273.449 -1.08991 1.13837 0
M  V30 2876 C 274.379 -2.17771 0.842507 0
M  V30 2877 C 275.36 -1.6892 -0.20001 0
M  V30 2878 O 276.545 -1.94113 -0.0579731 0
M  V30 2879 C 273.675 -3.4589 0.312644 0
M  V30 2880 C 272.629 -4.08099 1.28992 0
M  V30 2881 C 271.955 -5.31098 0.619623 0
M  V30 2882 C 273.255 -4.50077 2.65005 0
M  V30 2883 H 274.949 -2.42777 1.75213 0
M  V30 2884 H 272.495 -1.16682 0.843875 0
M  V30 2885 H 274.448 -4.21297 0.0933043 0
M  V30 2886 H 273.172 -3.20419 -0.632382 0
M  V30 2887 H 271.831 -3.34717 1.49533 0
M  V30 2888 H 271.479 -5.0191 -0.33102 0
M  V30 2889 H 271.179 -5.73674 1.27167 0
M  V30 2890 H 272.703 -6.09224 0.409669 0
M  V30 2891 H 274.117 -5.16688 2.48407 0
M  V30 2892 H 272.514 -5.03553 3.26427 0
M  V30 2893 H 273.584 -3.62257 3.22332 0
M  V30 2894 N 274.927 -0.932562 -1.27047 0
M  V30 2895 C 276.155 -0.592031 -1.98249 0
M  V30 2896 C 276.57 0.831062 -1.69525 0
M  V30 2897 O 275.927 1.55299 -0.958561 0
M  V30 2898 C 275.978 -0.814279 -3.5221 0
M  V30 2899 O 275.699 -2.18139 -3.7993 0
M  V30 2900 C 277.2 -0.483121 -4.4066 0
M  V30 2901 H 274.42 -0.223896 -0.632544 0
M  V30 2902 H 276.964 -1.25091 -1.61779 0
M  V30 2903 H 275.119 -0.20213 -3.86872 0
M  V30 2904 H 275.533 -2.235 -4.74498 0
M  V30 2905 H 277.007 -0.689298 -5.47679 0
M  V30 2906 H 277.484 0.581546 -4.35333 0
M  V30 2907 H 278.09 -1.07362 -4.11526 0
M  V30 2908 N 276.405 1.4127 -0.698611 0
M  V30 2909 C 277.821 1.55241 -0.370462 0
M  V30 2910 C 278.021 1.67351 1.12231 0
M  V30 2911 O 277.077 1.65363 1.90818 0
M  V30 2912 C 278.39 2.78997 -1.12165 0
M  V30 2913 C 279.938 2.92797 -1.1063 0
M  V30 2914 C 280.413 4.19445 -1.8393 0
M  V30 2915 N 281.904 4.26409 -1.80914 0
M  V30 2916 C 282.639 5.23271 -2.34467 0
M  V30 2917 N 282.135 6.26145 -2.96504 0
M  V30 2918 N 283.928 5.15232 -2.24706 0
M  V30 2919 H 276.079 1.31654 -1.66676 0
M  V30 2920 H 278.342 0.635393 -0.703548 0
M  V30 2921 H 278.048 2.76268 -2.17644 0
M  V30 2922 H 277.922 3.70606 -0.702209 0
M  V30 2923 H 280.309 2.95039 -0.0597713 0
M  V30 2924 H 280.39 2.02353 -1.56483 0
M  V30 2925 H 280.034 4.17964 -2.88563 0
M  V30 2926 H 279.964 5.08866 -1.35509 0
M  V30 2927 H 282.455 3.527 -1.35687 0
M  V30 2928 H 282.768 6.96451 -3.34927 0
M  V30 2929 H 281.113 6.26638 -3.00583 0
M  V30 2930 H 284.304 4.33789 -1.7591 0
M  V30 2931 H 284.477 5.90552 -2.66745 0
M  V30 2932 N 277.883 0.443576 1.51229 0
M  V30 2933 C 279.294 -0.0180867 1.86691 0
M  V30 2934 C 279.645 -1.41384 1.36033 0
M  V30 2935 O 278.77 -2.04291 0.713722 0
M  V30 2936 C 279.365 -0.039597 3.38777 0
M  V30 2937 C 277.924 -0.445692 3.73752 0
M  V30 2938 C 277.071 0.357584 2.74985 0
M  V30 2939 H 280.022 0.659138 1.44364 0
M  V30 2940 H 280.043 -0.847761 3.70936 0
M  V30 2941 H 279.555 0.976382 3.75617 0
M  V30 2942 H 277.656 -1.46704 3.42503 0
M  V30 2943 H 277.769 -0.166155 4.78812 0
M  V30 2944 H 276.133 -0.184973 2.54027 0
M  V30 2945 H 276.916 1.37256 3.14668 0
M  V30 2946 N 279.361 -1.56624 0.175154 0
M  V30 2947 C 280.271 -2.21741 -0.766042 0
M  V30 2948 C 281.287 -1.21023 -1.25018 0
M  V30 2949 O 282.463 -1.53697 -1.3015 0
M  V30 2950 C 279.528 -2.84839 -1.97655 0
M  V30 2951 C 278.589 -4.00769 -1.53892 0
M  V30 2952 C 277.822 -4.60849 -2.69173 0
M  V30 2953 O 278.045 -4.19823 -3.86141 0
M  V30 2954 O 276.979 -5.50655 -2.43028 0
M  V30 2955 H 280.805 -3.02738 -0.241585 0
M  V30 2956 H 278.39 -1.49305 -0.053222 0
M  V30 2957 H 280.272 -3.24834 -2.68442 0
M  V30 2958 H 278.947 -2.06836 -2.48999 0
M  V30 2959 H 277.854 -3.65436 -0.80044 0
M  V30 2960 H 279.187 -4.80376 -1.07236 0
M  V30 2961 N 280.839 0.0985539 -1.57292 0
M  V30 2962 C 282.087 0.801092 -1.85545 0
M  V30 2963 C 282.408 1.79438 -0.763353 0
M  V30 2964 O 281.678 1.94763 0.21073 0
M  V30 2965 H 280.258 0.29884 -0.684619 0
M  V30 2966 H 282.92 0.0810064 -1.94732 0
M  V30 2967 H 282.016 1.3338 -2.82163 0
M  V30 2968 N 282.317 1.53212 0.369288 0
M  V30 2969 C 283.542 1.73423 1.1375 0
M  V30 2970 C 283.967 0.460404 1.82378 0
M  V30 2971 O 283.325 -0.585298 1.71592 0
M  V30 2972 C 283.373 2.89769 2.1463 0
M  V30 2973 O 282.477 2.58119 3.21634 0
M  V30 2974 H 281.818 0.576061 0.330227 0
M  V30 2975 H 284.348 2.00083 0.427547 0
M  V30 2976 H 284.358 3.15829 2.58294 0
M  V30 2977 H 283.033 3.8217 1.64071 0
M  V30 2978 H 281.61 2.42864 2.82969 0
M  V30 2979 N 283.795 -0.628877 1.44509 0
M  V30 2980 C 285.206 -1.21054 1.42137 0
M  V30 2981 C 285.557 -1.95715 0.137881 0
M  V30 2982 O 284.682 -2.02554 -0.761645 0
M  V30 2983 C 285.277 -2.20189 2.57493 0
M  V30 2984 C 283.836 -2.73777 2.58308 0
M  V30 2985 C 282.983 -1.48813 2.33987 0
M  V30 2986 H 285.934 -0.41942 1.53057 0
M  V30 2987 H 285.955 -3.02833 2.30375 0
M  V30 2988 H 285.467 -1.6582 3.50892 0
M  V30 2989 H 283.568 -3.32142 1.68856 0
M  V30 2990 H 283.681 -3.19662 3.56865 0
M  V30 2991 H 282.045 -1.77024 1.83124 0
M  V30 2992 H 282.828 -0.963442 3.29504 0
M  V30 2993 N 285.273 -1.31445 -0.869486 0
M  V30 2994 C 286.501 -1.24122 -1.65534 0
M  V30 2995 C 286.916 0.193387 -1.87807 0
M  V30 2996 O 286.273 1.12557 -1.43656 0
M  V30 2997 C 286.324 -1.98229 -3.02304 0
M  V30 2998 O 286.045 -3.3609 -2.81026 0
M  V30 2999 C 287.546 -1.97751 -3.96749 0
M  V30 3000 H 284.766 -0.428868 -0.516055 0
M  V30 3001 H 287.31 -1.73328 -1.08525 0
M  V30 3002 H 285.465 -1.52782 -3.56001 0
M  V30 3003 H 285.879 -3.7383 -3.67902 0
M  V30 3004 H 287.353 -2.54114 -4.90031 0
M  V30 3005 H 287.83 -0.960137 -4.28577 0
M  V30 3006 H 288.436 -2.43079 -3.48988 0
M  V30 3007 N 286.751 1.08385 -1.14413 0
M  V30 3008 C 288.162 1.62258 -0.923535 0
M  V30 3009 C 288.513 1.88691 0.537595 0
M  V30 3010 O 287.638 1.64454 1.40655 0
M  V30 3011 C 288.233 2.94781 -1.67002 0
M  V30 3012 C 286.792 3.45437 -1.495 0
M  V30 3013 C 285.939 2.19668 -1.69238 0
M  V30 3014 H 288.89 0.916086 -1.2959 0
M  V30 3015 H 288.911 3.63229 -1.13334 0
M  V30 3016 H 288.423 2.7551 -2.73342 0
M  V30 3017 H 286.524 3.6981 -0.455097 0
M  V30 3018 H 286.637 4.22173 -2.2651 0
M  V30 3019 H 285.001 2.28849 -1.11804 0
M  V30 3020 H 285.784 2.02905 -2.7692 0
M  V30 3021 N 288.23 0.939286 1.26551 0
M  V30 3022 C 289.193 0.451987 2.24699 0
M  V30 3023 C 290.193 -0.435869 1.5478 0
M  V30 3024 O 291.383 -0.235314 1.72603 0
M  V30 3025 C 288.515 -0.348801 3.39111 0
M  V30 3026 H 289.708 1.3193 2.69322 0
M  V30 3027 H 287.261 0.721072 1.38673 0
M  V30 3028 H 287.996 -1.23444 2.99887 0
M  V30 3029 H 287.781 0.287945 3.91041 0
M  V30 3030 H 289.271 -0.679726 4.12031 0
M  V30 3031 N 289.708 -1.40897 0.706093 0
M  V30 3032 C 291.119 -1.84023 0.315052 0
M  V30 3033 C 291.47 -1.5906 -1.14866 0
M  V30 3034 O 290.595 -1.06651 -1.88293 0
M  V30 3035 C 291.19 -3.34055 0.565038 0
M  V30 3036 C 289.749 -3.7571 0.227806 0
M  V30 3037 C 288.896 -2.64204 0.842122 0
M  V30 3038 H 291.847 -1.303 0.905963 0
M  V30 3039 H 291.868 -3.80107 -0.172843 0
M  V30 3040 H 291.38 -3.52192 1.63042 0
M  V30 3041 H 289.481 -3.63172 -0.832895 0
M  V30 3042 H 289.594 -4.74103 0.690174 0
M  V30 3043 H 287.958 -2.53255 0.270893 0
M  V30 3044 H 288.741 -2.85155 1.91158 0
M  V30 3045 N 291.186 -0.45159 -1.50991 0
M  V30 3046 C 292.597 0.00818571 -1.86698 0
M  V30 3047 C 292.948 1.40661 -1.3678 0
M  V30 3048 O 292.073 2.0391 -0.724546 0
M  V30 3049 C 292.668 0.0216303 -3.38793 0
M  V30 3050 C 291.227 0.425865 -3.73983 0
M  V30 3051 C 290.374 -0.372163 -2.74791 0
M  V30 3052 H 293.325 -0.666785 -1.44013 0
M  V30 3053 H 293.346 0.828078 -3.7138 0
M  V30 3054 H 292.858 -0.996288 -3.75094 0
M  V30 3055 H 290.959 1.44886 -3.43277 0
M  V30 3056 H 291.072 0.140761 -4.78893 0
M  V30 3057 H 289.436 0.171498 -2.54122 0
M  V30 3058 H 290.219 -1.38922 -3.13935 0
M  V30 3059 N 292.664 1.56529 -0.183458 0
M  V30 3060 C 293.91 1.97537 0.459036 0
M  V30 3061 C 294.243 1.06989 1.62071 0
M  V30 3062 O 293.518 0.11948 1.94133 0
M  V30 3063 C 293.801 3.47874 0.930368 0
M  V30 3064 C 293.654 4.492 -0.232317 0
M  V30 3065 C 294.973 4.01612 1.79989 0
M  V30 3066 H 292.092 0.718204 0.165383 0
M  V30 3067 H 294.734 1.88042 -0.272038 0
M  V30 3068 H 292.884 3.56095 1.55333 0
M  V30 3069 H 294.556 4.53027 -0.86972 0
M  V30 3070 H 292.799 4.24657 -0.885928 0
M  V30 3071 H 293.47 5.51823 0.139796 0
M  V30 3072 H 295.946 3.96097 1.27461 0
M  V30 3073 H 294.822 5.07195 2.09867 0
M  V30 3074 H 295.083 3.46163 2.74998 0
M  V30 3075 N 294.142 -0.090211 1.57342 0
M  V30 3076 C 295.553 -0.644173 1.75235 0
M  V30 3077 C 295.904 -1.78865 0.806335 0
M  V30 3078 O 295.029 -2.16395 -0.0140128 0
M  V30 3079 C 295.624 -1.17532 3.1776 0
M  V30 3080 C 294.183 -1.67531 3.37061 0
M  V30 3081 C 293.33 -0.58693 2.71017 0
M  V30 3082 H 296.281 0.135884 1.58117 0
M  V30 3083 H 296.302 -2.04455 3.20902 0
M  V30 3084 H 295.814 -0.342138 3.86589 0
M  V30 3085 H 293.915 -2.53234 2.73319 0
M  V30 3086 H 294.028 -1.76493 4.45406 0
M  V30 3087 H 292.392 -1.02756 2.33052 0
M  V30 3088 H 293.175 0.235758 3.4249 0
M  V30 3089 N 295.62 -1.53406 -0.361157 0
M  V30 3090 C 296.55 -1.83136 -1.44857 0
M  V30 3091 C 297.531 -0.685174 -1.5569 0
M  V30 3092 O 298.716 -0.93544 -1.70186 0
M  V30 3093 C 295.846 -2.02522 -2.82138 0
M  V30 3094 C 294.8 -3.18302 -2.86126 0
M  V30 3095 C 294.126 -3.22989 -4.26125 0
M  V30 3096 C 295.426 -4.56796 -2.53248 0
M  V30 3097 H 297.12 -2.74201 -1.20226 0
M  V30 3098 H 294.666 -1.31938 -0.576922 0
M  V30 3099 H 296.619 -2.21904 -3.58241 0
M  V30 3100 H 295.343 -1.08172 -3.08166 0
M  V30 3101 H 294.002 -2.98747 -2.12475 0
M  V30 3102 H 293.65 -2.26267 -4.49235 0
M  V30 3103 H 293.35 -4.00781 -4.29708 0
M  V30 3104 H 294.874 -3.44559 -5.04094 0
M  V30 3105 H 296.288 -4.7631 -3.19064 0
M  V30 3106 H 294.685 -5.36862 -2.68141 0
M  V30 3107 H 295.755 -4.61606 -1.48484 0
M  V30 3108 N 297.098 0.621204 -1.44841 0
M  V30 3109 C 298.509 1.20298 -1.42777 0
M  V30 3110 C 298.86 1.95639 -0.148259 0
M  V30 3111 O 297.985 2.02955 0.750892 0
M  V30 3112 C 298.58 2.1882 -2.58657 0
M  V30 3113 C 297.139 2.72403 -2.59756 0
M  V30 3114 C 296.286 1.4757 -2.34773 0
M  V30 3115 H 299.237 0.411297 -1.53278 0
M  V30 3116 H 299.258 3.01607 -2.31977 0
M  V30 3117 H 298.77 1.63957 -3.51766 0
M  V30 3118 H 296.871 3.31242 -1.70615 0
M  V30 3119 H 296.984 3.17765 -3.58556 0
M  V30 3120 H 295.348 1.76051 -1.8406 0
M  V30 3121 H 296.131 0.945954 -3.3001 0
M  V30 3122 N 298.576 1.31904 0.862503 0
M  V30 3123 C 299.804 1.24998 1.64873 0
M  V30 3124 C 300.219 -0.183425 1.87907 0
M  V30 3125 O 299.576 -1.11794 1.44251 0
M  V30 3126 C 299.627 1.99829 3.01248 0
M  V30 3127 O 299.348 3.37575 2.79239 0
M  V30 3128 C 300.849 1.99852 3.95694 0
M  V30 3129 H 298.069 0.431599 0.513773 0
M  V30 3130 H 300.613 1.73901 1.07604 0
M  V30 3131 H 298.768 1.54668 3.55185 0
M  V30 3132 H 299.182 3.75776 3.65914 0
M  V30 3133 H 300.656 2.56709 4.88676 0
M  V30 3134 H 301.133 0.982852 4.28062 0
M  V30 3135 H 301.739 2.44926 3.47694 0
M  V30 3136 N 300.054 -1.07777 1.14986 0
M  V30 3137 C 301.017 -2.13041 0.845358 0
M  V30 3138 C 302.017 -1.60071 -0.152931 0
M  V30 3139 O 303.207 -1.74033 0.0761879 0
M  V30 3140 C 300.339 -3.39896 0.261383 0
M  V30 3141 H 301.532 -2.41485 1.77834 0
M  V30 3142 H 299.085 -1.23595 0.956757 0
M  V30 3143 H 299.82 -3.17091 -0.68 0
M  V30 3144 H 299.605 -3.79642 0.980514 0
M  V30 3145 H 301.095 -4.17548 0.0657687 0
M  V30 3146 N 301.532 -0.945985 -1.26051 0
M  V30 3147 C 302.943 -0.638096 -1.75457 0
M  V30 3148 C 303.294 0.846672 -1.76991 0
M  V30 3149 O 302.419 1.66262 -1.38513 0
M  V30 3150 C 303.014 -1.15157 -3.18629 0
M  V30 3151 C 301.573 -0.894004 -3.65629 0
M  V30 3152 C 300.72 -1.29967 -2.44957 0
M  V30 3153 H 303.671 -1.12376 -1.1206 0
M  V30 3154 H 303.692 -0.507615 -3.77099 0
M  V30 3155 H 303.204 -2.23222 -3.1748 0
M  V30 3156 H 301.305 0.172057 -3.72203 0
M  V30 3157 H 301.418 -1.52439 -4.54202 0
M  V30 3158 H 299.782 -0.718078 -2.44368 0
M  V30 3159 H 300.565 -2.38935 -2.46505 0
M  V30 3160 N 303.011 1.40521 -0.713556 0
M  V30 3161 C 304.422 1.83853 -0.324807 0
M  V30 3162 C 304.773 1.59667 1.14021 0
M  V30 3163 O 303.898 1.07649 1.87725 0
M  V30 3164 C 304.493 3.33751 -0.582746 0
M  V30 3165 C 303.052 3.75584 -0.247727 0
M  V30 3166 C 302.199 2.63753 -0.856121 0
M  V30 3167 H 305.15 1.29817 -0.91286 0
M  V30 3168 H 305.171 3.80194 0.152682 0
M  V30 3169 H 304.683 3.51322 -1.64908 0
M  V30 3170 H 302.784 3.63608 0.813624 0
M  V30 3171 H 302.897 4.7373 -0.715307 0
M  V30 3172 H 301.261 2.53108 -0.28432 0
M  V30 3173 H 302.044 2.84137 -1.92668 0
M  V30 3174 N 304.489 0.459591 1.5075 0
M  V30 3175 C 305.399 -0.34613 2.32033 0
M  V30 3176 C 306.415 -1.00686 1.41909 0
M  V30 3177 O 307.591 -0.997361 1.7497 0
M  V30 3178 C 304.656 -1.42029 3.16273 0
M  V30 3179 C 303.717 -0.777362 4.22203 0
M  V30 3180 C 302.95 -1.80034 5.02418 0
M  V30 3181 O 303.173 -3.02544 4.83553 0
M  V30 3182 O 302.107 -1.37853 5.85901 0
M  V30 3183 H 305.933 0.318054 3.0203 0
M  V30 3184 H 303.518 0.221663 1.47746 0
M  V30 3185 H 305.4 -2.04275 3.68578 0
M  V30 3186 H 304.075 -2.06815 2.49016 0
M  V30 3187 H 302.982 -0.116256 3.73919 0
M  V30 3188 H 304.315 -0.172634 4.91897 0
M  V30 3189 N 305.967 -1.56429 0.191757 0
M  V30 3190 C 306.897 -2.21937 -0.725696 0
M  V30 3191 C 307.878 -1.1814 -1.2238 0
M  V30 3192 O 309.063 -1.46636 -1.27325 0
M  V30 3193 C 306.193 -2.87611 -1.94672 0
M  V30 3194 C 305.147 -3.97623 -1.58366 0
M  V30 3195 C 304.473 -4.50446 -2.88102 0
M  V30 3196 C 305.773 -5.16197 -0.796133 0
M  V30 3197 H 307.467 -2.98861 -0.179606 0
M  V30 3198 H 305.013 -1.43749 -0.0849464 0
M  V30 3199 H 306.966 -3.3212 -2.59373 0
M  V30 3200 H 305.69 -2.08087 -2.51728 0
M  V30 3201 H 304.349 -3.53801 -0.960247 0
M  V30 3202 H 303.997 -3.67688 -3.43241 0
M  V30 3203 H 303.697 -5.24675 -2.64556 0
M  V30 3204 H 305.221 -4.97654 -3.53798 0
M  V30 3205 H 306.635 -5.57271 -1.34618 0
M  V30 3206 H 305.032 -5.96471 -0.658928 0
M  V30 3207 H 306.102 -4.84473 0.203478 0
M  V30 3208 N 307.445 0.0818655 -1.57387 0
M  V30 3209 C 308.685 0.788375 -1.88584 0
M  V30 3210 C 309.049 1.75248 -0.784351 0
M  V30 3211 O 310.25 2.50334 -0.979105 0
M  V30 3212 C 308.521 1.48654 -3.25018 0
M  V30 3213 S 310.08 2.22951 -3.7794 0
M  V30 3214 H 306.898 0.262383 -0.660815 0
M  V30 3215 H 309.5 0.0448995 -1.95448 0
M  V30 3216 H 308.204 0.770919 -4.03094 0
M  V30 3217 H 307.735 2.26965 -3.21326 0
M  V30 3218 H 309.75 3.49309 -3.52417 0
M  V30 3219 N 308.923 1.53595 0.353017 0
M  V30 3220 C 309.853 1.83902 1.43883 0
M  V30 3221 C 310.834 0.693421 1.55324 0
M  V30 3222 O 312.019 0.944452 1.69687 0
M  V30 3223 C 309.149 2.04016 2.8106 0
M  V30 3224 C 308.103 3.19814 2.84434 0
M  V30 3225 C 307.429 3.25244 4.24406 0
M  V30 3226 C 308.729 4.58133 2.50822 0
M  V30 3227 H 310.423 2.74835 1.1877 0
M  V30 3228 H 307.969 1.32242 0.569917 0
M  V30 3229 H 309.922 2.238 3.57059 0
M  V30 3230 H 308.646 1.09804 3.07588 0
M  V30 3231 H 307.305 2.9987 2.10887 0
M  V30 3232 H 306.953 2.28646 4.48029 0
M  V30 3233 H 306.653 4.03054 4.27576 0
M  V30 3234 H 308.177 3.47228 5.0226 0
M  V30 3235 H 309.591 4.77995 3.16534 0
M  V30 3236 H 307.988 5.38276 2.6529 0
M  V30 3237 H 309.058 4.62387 1.46034 0
M  V30 3238 N 310.401 -0.613514 1.45168 0
M  V30 3239 C 311.331 -1.7354 1.56225 0
M  V30 3240 C 312.312 -1.64981 0.41414 0
M  V30 3241 O 313.497 -1.83472 0.636526 0
M  V30 3242 C 310.627 -3.12128 1.52295 0
M  V30 3243 C 309.581 -3.35491 2.65762 0
M  V30 3244 C 308.907 -4.74291 2.46885 0
M  V30 3245 C 310.207 -3.26325 4.0781 0
M  V30 3246 H 311.901 -1.64543 2.50132 0
M  V30 3247 H 309.447 -0.790185 1.20383 0
M  V30 3248 H 311.4 -3.90404 1.58628 0
M  V30 3249 H 310.124 -3.2195 0.549139 0
M  V30 3250 H 308.783 -2.59603 2.58847 0
M  V30 3251 H 308.431 -4.80839 1.47657 0
M  V30 3252 H 308.131 -4.9088 3.22972 0
M  V30 3253 H 309.655 -5.54775 2.55063 0
M  V30 3254 H 311.069 -3.94483 4.16 0
M  V30 3255 H 309.466 -3.54445 4.8424 0
M  V30 3256 H 310.536 -2.23855 4.30136 0
M  V30 3257 N 311.879 -1.3236 -0.855495 0
M  V30 3258 C 312.809 -1.23833 -1.97958 0
M  V30 3259 C 313.79 -0.122361 -1.69659 0
M  V30 3260 O 314.975 -0.30939 -1.9172 0
M  V30 3261 C 312.105 -0.959772 -3.33775 0
M  V30 3262 C 311.059 -2.03689 -3.76424 0
M  V30 3263 C 310.385 -1.61075 -5.09862 0
M  V30 3264 C 311.685 -3.4518 -3.9198 0
M  V30 3265 H 313.379 -2.1788 -2.0535 0
M  V30 3266 H 310.925 -1.04891 -0.986605 0
M  V30 3267 H 312.878 -0.886678 -4.11966 0
M  V30 3268 H 311.602 0.0163404 -3.26596 0
M  V30 3269 H 310.261 -2.10012 -3.00484 0
M  V30 3270 H 309.909 -0.622107 -4.99138 0
M  V30 3271 H 309.609 -2.33143 -5.39368 0
M  V30 3272 H 311.133 -1.55201 -5.90546 0
M  V30 3273 H 312.547 -3.4145 -4.60526 0
M  V30 3274 H 310.944 -4.1559 -4.32903 0
M  V30 3275 H 312.014 -3.84903 -2.94919 0
M  V30 3276 N 313.357 1.07166 -1.15556 0
M  V30 3277 C 314.768 1.6127 -0.940693 0
M  V30 3278 C 315.119 1.89251 0.517551 0
M  V30 3279 O 314.244 1.65937 1.38903 0
M  V30 3280 C 314.839 2.92993 -1.7012 0
M  V30 3281 C 313.398 3.43832 -1.53156 0
M  V30 3282 C 312.545 2.1786 -1.71558 0
M  V30 3283 H 315.496 0.90229 -1.30554 0
M  V30 3284 H 315.517 3.62007 -1.17181 0
M  V30 3285 H 315.029 2.72596 -2.76248 0
M  V30 3286 H 313.13 3.69307 -0.494294 0
M  V30 3287 H 313.243 4.19747 -2.30975 0
M  V30 3288 H 311.607 2.2765 -1.14225 0
M  V30 3289 H 312.39 1.99956 -2.79056 0
M  V30 3290 N 314.835 0.952656 1.25548 0
M  V30 3291 C 316.246 0.647392 1.75116 0
M  V30 3292 C 316.597 -0.837274 1.77438 0
M  V30 3293 O 315.722 -1.65525 1.39393 0
M  V30 3294 C 316.317 1.16845 3.18014 0
M  V30 3295 C 314.876 0.913382 3.6515 0
M  V30 3296 C 314.023 1.31265 2.44264 0
M  V30 3297 H 316.974 1.12968 1.11462 0
M  V30 3298 H 316.995 0.527606 3.76824 0
M  V30 3299 H 316.507 2.24902 3.16292 0
M  V30 3300 H 314.608 -0.152316 3.72289 0
M  V30 3301 H 314.721 1.54845 4.53387 0
M  V30 3302 H 313.085 0.731028 2.43984 0
M  V30 3303 H 313.868 2.40239 2.45234 0
M  V30 3304 N 316.313 -1.40141 0.720998 0
M  V30 3305 C 317.59 -1.94677 0.189757 0
M  V30 3306 C 317.97 -1.65879 -1.30566 0
M  V30 3307 O 317.318 -0.979391 -2.06447 0
M  V30 3308 C 317.528 -3.45279 0.508304 0
M  V30 3309 C 318.876 -4.22209 0.449934 0
M  V30 3310 O 319.9 -3.53413 0.444677 0
M  V30 3311 O 318.759 -5.44788 0.432189 0
M  V30 3312 H 315.853 -0.826459 0.0299026 0
M  V30 3313 H 318.399 -1.49719 0.7989 0
M  V30 3314 H 317.171 -3.59619 1.54239 0
M  V30 3315 H 316.794 -3.97386 -0.130525 0
M  V30 3316 N 317.792 -0.46758 -1.50504 0
M  V30 3317 C 319.02 0.0864133 -2.06719 0
M  V30 3318 C 319.435 1.33819 -1.33184 0
M  V30 3319 O 318.792 1.78061 -0.400083 0
M  V30 3320 C 318.843 0.378079 -3.59517 0
M  V30 3321 O 318.564 -0.824044 -4.3028 0
M  V30 3322 C 320.065 0.979426 -4.32345 0
M  V30 3323 H 317.285 -0.00551697 -0.670977 0
M  V30 3324 H 319.829 -0.655354 -1.93715 0
M  V30 3325 H 317.984 1.06977 -3.72337 0
M  V30 3326 H 318.398 -0.566518 -5.21432 0
M  V30 3327 H 319.872 1.1333 -5.40241 0
M  V30 3328 H 320.349 1.9686 -3.9261 0
M  V30 3329 H 320.955 0.326216 -4.24047 0
M  V30 3330 N 319.27 1.56325 -0.20005 0
M  V30 3331 C 320.2 2.22318 0.713916 0
M  V30 3332 C 321.181 1.18788 1.21752 0
M  V30 3333 O 322.366 1.47309 1.26545 0
M  V30 3334 C 319.496 2.88639 1.93144 0
M  V30 3335 C 318.45 3.98457 1.56255 0
M  V30 3336 C 317.776 4.51967 2.85709 0
M  V30 3337 C 319.076 5.16612 0.768747 0
M  V30 3338 H 320.77 2.98952 0.163755 0
M  V30 3339 H 318.316 1.43792 0.0773219 0
M  V30 3340 H 320.269 3.33491 2.57608 0
M  V30 3341 H 318.993 2.09419 2.50621 0
M  V30 3342 H 317.652 3.54305 0.941471 0
M  V30 3343 H 317.3 3.69503 3.41287 0
M  V30 3344 H 317 5.26071 2.6177 0
M  V30 3345 H 318.524 4.99523 3.51154 0
M  V30 3346 H 319.938 5.57977 1.3166 0
M  V30 3347 H 318.335 5.96812 0.627286 0
M  V30 3348 H 319.405 4.84358 -0.229168 0
M  V30 3349 N 320.748 -0.0735177 1.57428 0
M  V30 3350 C 322.159 -0.625551 1.75908 0
M  V30 3351 C 322.51 -1.78 0.825261 0
M  V30 3352 O 321.635 -2.16398 0.00893964 0
M  V30 3353 C 322.23 -1.14155 3.18989 0
M  V30 3354 C 320.789 -1.63946 3.38819 0
M  V30 3355 C 319.936 -0.558151 2.71625 0
M  V30 3356 H 322.887 0.152647 1.57964 0
M  V30 3357 H 322.908 -2.0104 3.23053 0
M  V30 3358 H 322.42 -0.301116 3.8693 0
M  V30 3359 H 320.521 -2.50321 2.7599 0
M  V30 3360 H 320.634 -1.71759 4.47253 0
M  V30 3361 H 318.998 -1.00278 2.34129 0
M  V30 3362 H 319.781 0.272071 3.4222 0
M  V30 3363 N 322.226 -1.5378 -0.344866 0
M  V30 3364 C 323.156 -1.84662 -1.42906 0
M  V30 3365 C 324.137 -0.701648 -1.54955 0
M  V30 3366 O 325.322 -0.953438 -1.69184 0
M  V30 3367 C 322.452 -2.05503 -2.79974 0
M  V30 3368 C 321.406 -3.21318 -2.82734 0
M  V30 3369 C 320.732 -3.2749 -4.22675 0
M  V30 3370 C 322.032 -4.59456 -2.48389 0
M  V30 3371 H 323.726 -2.75461 -1.17311 0
M  V30 3372 H 321.272 -1.32542 -0.562896 0
M  V30 3373 H 323.225 -2.25691 -3.55867 0
M  V30 3374 H 321.949 -1.11434 -3.07002 0
M  V30 3375 H 320.608 -3.00984 -2.09294 0
M  V30 3376 H 320.256 -2.31019 -4.4681 0
M  V30 3377 H 319.956 -4.05316 -4.25433 0
M  V30 3378 H 321.48 -3.49887 -5.00412 0
M  V30 3379 H 322.894 -4.79667 -3.13995 0
M  V30 3380 H 321.291 -5.39675 -2.62432 0
M  V30 3381 H 322.361 -4.63155 -1.4358 0
M  V30 3382 N 323.704 0.605807 -1.45491 0
M  V30 3383 C 325.12 0.926751 -1.29936 0
M  V30 3384 C 325.32 1.99896 -0.253706 0
M  V30 3385 O 324.376 2.50038 0.351737 0
M  V30 3386 C 325.689 1.36599 -2.67883 0
M  V30 3387 C 327.237 1.4801 -2.75793 0
M  V30 3388 C 327.712 1.95309 -4.14268 0
M  V30 3389 N 329.203 2.0254 -4.16571 0
M  V30 3390 C 329.938 2.40363 -5.20589 0
M  V30 3391 N 329.434 2.77143 -6.34952 0
M  V30 3392 N 331.227 2.40718 -5.07948 0
M  V30 3393 H 323.378 -0.102862 -2.12151 0
M  V30 3394 H 325.641 0.016639 -0.947854 0
M  V30 3395 H 325.347 0.652306 -3.45598 0
M  V30 3396 H 325.221 2.33215 -2.96463 0
M  V30 3397 H 327.608 2.1847 -1.98381 0
M  V30 3398 H 327.689 0.497041 -2.50925 0
M  V30 3399 H 327.333 1.25436 -4.92167 0
M  V30 3400 H 327.263 2.94532 -4.3653 0
M  V30 3401 H 329.754 1.76699 -3.34045 0
M  V30 3402 H 330.067 3.0489 -7.10114 0
M  V30 3403 H 328.412 2.74834 -6.3835 0
M  V30 3404 H 331.603 2.11392 -4.1765 0
M  V30 3405 H 331.776 2.69869 -5.89131 0
M  V30 3406 N 325.182 1.32811 0.848464 0
M  V30 3407 C 326.593 1.21315 1.41914 0
M  V30 3408 C 326.944 -0.171847 1.95446 0
M  V30 3409 O 326.069 -1.07093 1.88043 0
M  V30 3410 C 326.664 2.19631 2.57968 0
M  V30 3411 C 325.223 2.12003 3.11017 0
M  V30 3412 C 324.37 2.07651 1.83783 0
M  V30 3413 H 327.321 1.44549 0.655071 0
M  V30 3414 H 327.342 1.79845 3.35315 0
M  V30 3415 H 326.854 3.20423 2.18976 0
M  V30 3416 H 324.955 1.14481 3.54577 0
M  V30 3417 H 325.068 3.02111 3.71841 0
M  V30 3418 H 323.432 1.52983 2.03638 0
M  V30 3419 H 324.215 3.10235 1.47 0
M  V30 3420 N 326.66 -1.06551 1.16123 0
M  V30 3421 C 327.623 -2.12132 0.867906 0
M  V30 3422 C 328.623 -1.60224 -0.135944 0
M  V30 3423 O 329.813 -1.73943 0.0946422 0
M  V30 3424 C 326.945 -3.396 0.297419 0
M  V30 3425 H 328.138 -2.39586 1.80385 0
M  V30 3426 H 325.691 -1.22574 0.969812 0
M  V30 3427 H 326.426 -3.17794 -0.64633 0
M  V30 3428 H 326.211 -3.78581 1.02073 0
M  V30 3429 H 327.701 -4.17455 0.110052 0
M  V30 3430 N 328.138 -0.959301 -1.25041 0
M  V30 3431 C 329.384 -0.617525 -1.9317 0
M  V30 3432 C 329.717 0.843981 -1.74902 0
M  V30 3433 O 328.992 1.60615 -1.09696 0
M  V30 3434 C 329.275 -0.982736 -3.46431 0
M  V30 3435 C 329.128 -2.50032 -3.73904 0
M  V30 3436 C 330.447 -0.511176 -4.37121 0
M  V30 3437 H 327.566 -0.22582 -0.701552 0
M  V30 3438 H 330.208 -1.19679 -1.4757 0
M  V30 3439 H 328.358 -0.489806 -3.854 0
M  V30 3440 H 330.03 -3.06737 -3.44544 0
M  V30 3441 H 328.273 -2.93598 -3.19348 0
M  V30 3442 H 328.944 -2.70635 -4.81103 0
M  V30 3443 H 331.42 -0.934075 -4.0548 0
M  V30 3444 H 330.296 -0.795361 -5.43107 0
M  V30 3445 H 330.557 0.588834 -4.38161 0
M  V30 3446 N 329.616 1.39756 -0.72842 0
M  V30 3447 C 330.893 1.94574 -0.200079 0
M  V30 3448 C 331.273 1.66569 1.29684 0
M  V30 3449 O 330.621 0.990326 2.05924 0
M  V30 3450 C 330.831 3.45004 -0.526608 0
M  V30 3451 C 332.179 4.21965 -0.472318 0
M  V30 3452 O 333.203 3.53173 -0.463413 0
M  V30 3453 O 332.062 5.44552 -0.461075 0
M  V30 3454 H 329.156 0.826289 -0.0342851 0
M  V30 3455 H 331.702 1.49293 -0.806829 0
M  V30 3456 H 330.474 3.58796 -1.56144 0
M  V30 3457 H 330.097 3.97449 0.109449 0
M  V30 3458 N 331.094 0.475555 1.50254 0
M  V30 3459 C 332.319 -0.0777042 2.07254 0
M  V30 3460 C 332.744 -1.3235 1.3366 0
M  V30 3461 O 332.102 -1.77152 0.385597 0
M  V30 3462 C 332.15 -0.340169 3.58992 0
M  V30 3463 O 331.254 -1.41982 3.87188 0
M  V30 3464 H 330.595 0.0149556 0.663832 0
M  V30 3465 H 333.125 0.667878 1.93392 0
M  V30 3466 H 333.135 -0.579332 4.03866 0
M  V30 3467 H 331.81 0.570167 4.11973 0
M  V30 3468 H 330.387 -1.16762 3.54148 0
M  V30 3469 N 332.573 -1.56217 0.208337 0
M  V30 3470 C 333.819 -1.98998 -0.42086 0
M  V30 3471 C 334.174 -1.09331 -1.58317 0
M  V30 3472 O 333.467 -0.140466 -1.91084 0
M  V30 3473 C 333.661 -3.45441 -0.916797 0
M  V30 3474 C 333.49 -4.49273 0.195925 0
M  V30 3475 C 332.26 -5.00998 0.657956 0
M  V30 3476 C 334.458 -5.04294 1.00956 0
M  V30 3477 N 332.44 -5.88514 1.74712 0
M  V30 3478 C 333.811 -5.88607 1.94785 0
M  V30 3479 C 335.866 -4.86692 1.05049 0
M  V30 3480 C 334.569 -6.572 2.9237 0
M  V30 3481 C 336.595 -5.56034 2.01446 0
M  V30 3482 C 335.957 -6.40105 2.94016 0
M  V30 3483 H 332.056 -0.772574 -0.121048 0
M  V30 3484 H 334.64 -1.92101 0.317075 0
M  V30 3485 H 332.811 -3.52812 -1.62413 0
M  V30 3486 H 334.543 -3.75164 -1.51771 0
M  V30 3487 H 331.298 -4.72945 0.248912 0
M  V30 3488 H 331.722 -6.36975 2.2933 0
M  V30 3489 H 336.364 -4.21359 0.348759 0
M  V30 3490 H 334.082 -7.21723 3.63512 0
M  V30 3491 H 337.668 -5.44385 2.0527 0
M  V30 3492 H 336.548 -6.92816 3.6739 0
M  V30 3493 N 334.051 0.0651679 -1.57465 0
M  V30 3494 C 335.299 0.761555 -1.87202 0
M  V30 3495 C 335.62 1.77778 -0.801243 0
M  V30 3496 O 334.89 1.95166 0.16937 0
M  V30 3497 H 333.47 0.284251 -0.690804 0
M  V30 3498 H 336.132 0.0396827 -1.9486 0
M  V30 3499 H 335.228 1.27365 -2.84929 0
M  V30 3500 N 335.529 1.53961 0.336706 0
M  V30 3501 C 336.459 1.85417 1.41925 0
M  V30 3502 C 337.44 0.709856 1.5458 0
M  V30 3503 O 338.625 0.962396 1.68676 0
M  V30 3504 C 335.755 2.06985 2.78881 0
M  V30 3505 C 334.709 3.22813 2.81026 0
M  V30 3506 C 334.035 3.29727 4.20932 0
M  V30 3507 C 335.335 4.60767 2.45949 0
M  V30 3508 H 337.029 2.76079 1.15848 0
M  V30 3509 H 334.575 1.32839 0.555859 0
M  V30 3510 H 336.528 2.27575 3.54665 0
M  V30 3511 H 335.252 1.13061 3.06406 0
M  V30 3512 H 333.911 3.0209 2.07695 0
M  V30 3513 H 333.559 2.33385 4.45579 0
M  V30 3514 H 333.259 4.07566 4.23277 0
M  V30 3515 H 334.783 3.52536 4.98549 0
M  V30 3516 H 336.197 4.81325 3.11446 0
M  V30 3517 H 334.594 5.4106 2.59566 0
M  V30 3518 H 335.664 4.6391 1.41122 0
M  V30 3519 N 337.007 -0.598083 1.45811 0
M  V30 3520 C 338.255 -1.35413 1.50026 0
M  V30 3521 C 338.576 -1.94444 0.147177 0
M  V30 3522 O 337.846 -1.77701 -0.824571 0
M  V30 3523 H 336.426 -0.502727 0.552517 0
M  V30 3524 H 339.088 -0.701606 1.81834 0
M  V30 3525 H 338.184 -2.16871 2.2444 0
M  V30 3526 N 338.485 -1.33259 -0.841409 0
M  V30 3527 C 339.731 -1.24757 -1.59886 0
M  V30 3528 C 340.064 0.186913 -1.93298 0
M  V30 3529 O 339.339 1.12757 -1.5848 0
M  V30 3530 C 339.622 -2.12036 -2.91055 0
M  V30 3531 C 339.475 -3.63929 -2.6434 0
M  V30 3532 C 340.794 -1.9916 -3.92458 0
M  V30 3533 H 337.913 -0.454542 -0.580138 0
M  V30 3534 H 340.555 -1.63335 -0.970647 0
M  V30 3535 H 338.705 -1.79265 -3.44669 0
M  V30 3536 H 340.377 -4.06978 -2.17178 0
M  V30 3537 H 338.62 -3.85935 -1.98082 0
M  V30 3538 H 339.291 -4.20341 -3.57796 0
M  V30 3539 H 341.767 -2.27895 -3.48143 0
M  V30 3540 H 340.643 -2.62484 -4.82072 0
M  V30 3541 H 340.904 -0.963082 -4.31482 0
M  V30 3542 N 339.963 1.05934 -1.16686 0
M  V30 3543 C 340.893 2.1546 -0.899949 0
M  V30 3544 C 341.874 1.69391 0.155154 0
M  V30 3545 O 343.059 1.94199 0.00648693 0
M  V30 3546 C 340.189 3.44939 -0.404241 0
M  V30 3547 C 339.143 4.04536 -1.39767 0
M  V30 3548 C 338.469 5.29268 -0.760216 0
M  V30 3549 C 339.769 4.42893 -2.76845 0
M  V30 3550 H 341.463 2.38046 -1.81588 0
M  V30 3551 H 339.009 1.14404 -0.874514 0
M  V30 3552 H 340.962 4.20901 -0.204971 0
M  V30 3553 H 339.686 3.21983 0.547206 0
M  V30 3554 H 338.345 3.30635 -1.58355 0
M  V30 3555 H 337.993 5.02611 0.197831 0
M  V30 3556 H 337.693 5.70101 -1.42332 0
M  V30 3557 H 339.217 6.07924 -0.57105 0
M  V30 3558 H 340.631 5.09921 -2.62019 0
M  V30 3559 H 339.028 4.94721 -3.39663 0
M  V30 3560 H 340.098 3.53584 -3.31823 0
M  V30 3561 N 341.441 0.965919 1.2453 0
M  V30 3562 C 342.371 0.513476 2.27784 0
M  V30 3563 C 343.352 -0.445974 1.6415 0
M  V30 3564 O 344.537 -0.342485 1.91156 0
M  V30 3565 C 341.667 -0.198839 3.4673 0
M  V30 3566 C 340.621 0.676456 4.2262 0
M  V30 3567 C 339.947 -0.167248 5.34438 0
M  V30 3568 C 341.247 1.96017 4.84123 0
M  V30 3569 H 342.941 1.3765 2.65881 0
M  V30 3570 H 340.487 0.663321 1.27813 0
M  V30 3571 H 342.44 -0.526567 4.18097 0
M  V30 3572 H 341.164 -1.0962 3.07654 0
M  V30 3573 H 339.823 0.98743 3.53052 0
M  V30 3574 H 339.471 -1.0647 4.91603 0
M  V30 3575 H 339.171 0.415181 5.86131 0
M  V30 3576 H 340.695 -0.489688 6.08633 0
M  V30 3577 H 342.109 1.69814 5.47573 0
M  V30 3578 H 340.506 2.48918 5.4604 0
M  V30 3579 H 341.576 2.65622 4.05676 0
M  V30 3580 N 342.919 -1.39368 0.735821 0
M  V30 3581 C 344.166 -2.00497 0.284123 0
M  V30 3582 C 344.494 -1.58387 -1.12889 0
M  V30 3583 O 343.749 -0.804359 -1.78406 0
M  V30 3584 C 344.048 -3.5583 0.334651 0
M  V30 3585 C 343.714 -4.17593 1.7008 0
M  V30 3586 C 342.376 -4.34176 2.07472 0
M  V30 3587 C 344.728 -4.51848 2.59775 0
M  V30 3588 C 342.056 -4.82304 3.34065 0
M  V30 3589 C 344.408 -5.01384 3.85741 0
M  V30 3590 C 343.072 -5.16175 4.23225 0
M  V30 3591 H 342.342 -0.73367 0.103968 0
M  V30 3592 H 344.989 -1.66683 0.942825 0
M  V30 3593 H 343.294 -3.89674 -0.407625 0
M  V30 3594 H 344.991 -4.00986 -0.0329927 0
M  V30 3595 H 341.581 -4.05087 1.40008 0
M  V30 3596 H 345.765 -4.38653 2.32157 0
M  V30 3597 H 341.021 -4.91941 3.63049 0
M  V30 3598 H 345.195 -5.26863 4.55399 0
M  V30 3599 H 342.822 -5.5323 5.21384 0
M  V30 3600 N 344.397 -0.483516 -1.5 0
M  V30 3601 C 345.637 0.0657469 -2.04294 0
M  V30 3602 C 346.001 1.35869 -1.35659 0
M  V30 3603 O 347.202 1.99111 -1.80578 0
M  V30 3604 C 345.473 0.232758 -3.56641 0
M  V30 3605 S 347.032 0.738788 -4.32536 0
M  V30 3606 H 343.85 0.0100755 -0.710929 0
M  V30 3607 H 346.452 -0.653494 -1.84254 0
M  V30 3608 H 345.156 -0.713847 -4.04144 0
M  V30 3609 H 344.687 0.977751 -3.81056 0
M  V30 3610 H 346.702 2.01048 -4.53645 0
M  V30 3611 N 345.875 1.56104 -0.216619 0
M  V30 3612 C 346.838 2.18819 0.681962 0
M  V30 3613 C 347.838 1.14866 1.12528 0
M  V30 3614 O 349.028 1.40128 1.03488 0
M  V30 3615 C 346.16 2.80756 1.93362 0
M  V30 3616 H 347.353 2.99595 0.135254 0
M  V30 3617 H 344.906 1.56265 0.0330003 0
M  V30 3618 H 345.641 2.03837 2.52232 0
M  V30 3619 H 345.426 3.56876 1.62426 0
M  V30 3620 H 346.916 3.28844 2.57393 0
M  V30 3621 N 347.353 -0.0568162 1.57498 0
M  V30 3622 C 348.316 -1.05038 2.03715 0
M  V30 3623 C 349.316 -1.30709 0.936577 0
M  V30 3624 O 350.506 -1.26178 1.20103 0
M  V30 3625 C 347.638 -2.39034 2.43055 0
M  V30 3626 H 348.831 -0.651715 2.92733 0
M  V30 3627 H 346.384 -0.302947 1.53336 0
M  V30 3628 H 347.119 -2.83703 1.57108 0
M  V30 3629 H 346.904 -2.21739 3.2338 0
M  V30 3630 H 348.394 -3.10421 2.79336 0
M  V30 3631 N 348.832 -1.54138 -0.328536 0
M  V30 3632 C 350.06 -1.76062 -1.08673 0
M  V30 3633 C 350.475 -0.506852 -1.81869 0
M  V30 3634 O 349.832 0.522223 -1.74869 0
M  V30 3635 C 349.883 -2.95054 -2.08866 0
M  V30 3636 O 349.604 -4.15583 -1.38644 0
M  V30 3637 C 351.105 -3.2915 -2.96943 0
M  V30 3638 H 348.325 -0.587889 -0.323461 0
M  V30 3639 H 350.869 -2.0101 -0.376175 0
M  V30 3640 H 349.024 -2.72394 -2.75464 0
M  V30 3641 H 349.438 -4.82481 -2.05699 0
M  V30 3642 H 350.912 -4.15723 -3.63151 0
M  V30 3643 H 351.389 -2.461 -3.63774 0
M  V30 3644 H 351.995 -3.53871 -2.35914 0
M  V30 3645 N 350.31 0.590341 -1.46126 0
M  V30 3646 C 351.273 1.68194 -1.55703 0
M  V30 3647 C 352.273 1.54808 -0.434868 0
M  V30 3648 O 353.463 1.59564 -0.698928 0
M  V30 3649 C 350.595 3.07575 -1.47005 0
M  V30 3650 H 351.788 1.61064 -2.52979 0
M  V30 3651 H 349.341 0.807541 -1.33823 0
M  V30 3652 H 350.076 3.20268 -0.509785 0
M  V30 3653 H 349.861 3.187 -2.28414 0
M  V30 3654 H 351.351 3.87055 -1.56776 0
M  V30 3655 N 351.788 1.33704 0.83433 0
M  V30 3656 C 353.028 1.26754 1.60352 0
M  V30 3657 C 353.392 -0.163182 1.91305 0
M  V30 3658 O 354.593 -0.3567 2.66423 0
M  V30 3659 C 352.864 2.12262 2.8754 0
M  V30 3660 S 354.423 2.22549 3.78176 0
M  V30 3661 H 351.241 0.450879 0.549753 0
M  V30 3662 H 353.843 1.68788 0.986444 0
M  V30 3663 H 352.547 3.15238 2.62779 0
M  V30 3664 H 352.078 1.71082 3.54252 0
M  V30 3665 H 354.093 1.3899 4.76336 0
M  V30 3666 N 353.266 -1.05314 1.17247 0
M  V30 3667 C 354.513 -1.78293 0.960091 0
M  V30 3668 C 354.841 -1.87658 -0.51136 0
M  V30 3669 O 354.096 -1.3718 -1.39571 0
M  V30 3670 C 354.395 -3.2229 1.54479 0
M  V30 3671 C 354.061 -3.32987 3.04024 0
M  V30 3672 C 352.723 -3.35613 3.44844 0
M  V30 3673 C 355.075 -3.34102 4.00031 0
M  V30 3674 C 352.403 -3.36982 4.8027 0
M  V30 3675 C 354.755 -3.3701 5.35357 0
M  V30 3676 C 353.419 -3.37923 5.75642 0
M  V30 3677 H 352.689 -0.652422 0.351322 0
M  V30 3678 H 355.336 -1.23782 1.46117 0
M  V30 3679 H 353.641 -3.7972 0.965391 0
M  V30 3680 H 355.338 -3.77376 1.35603 0
M  V30 3681 H 351.928 -3.31655 2.71483 0
M  V30 3682 H 356.112 -3.31276 3.69554 0
M  V30 3683 H 351.368 -3.35999 5.10798 0
M  V30 3684 H 355.542 -3.36822 6.09528 0
M  V30 3685 H 353.169 -3.38738 6.80559 0
M  V30 3686 N 354.744 -0.972509 -1.24016 0
M  V30 3687 C 356.155 -0.67517 -1.74064 0
M  V30 3688 C 356.506 0.808939 -1.78747 0
M  V30 3689 O 355.631 1.63286 -1.42009 0
M  V30 3690 C 356.226 -1.21889 -3.16115 0
M  V30 3691 C 354.785 -0.971358 -3.6365 0
M  V30 3692 C 353.932 -1.35134 -2.42145 0
M  V30 3693 H 356.883 -1.14727 -1.09651 0
M  V30 3694 H 356.904 -0.587489 -3.75937 0
M  V30 3695 H 356.416 -2.29906 -3.12674 0
M  V30 3696 H 354.517 0.0930686 -3.72484 0
M  V30 3697 H 354.63 -1.62039 -4.50866 0
M  V30 3698 H 352.994 -0.769751 -2.4279 0
M  V30 3699 H 353.777 -2.4411 -2.41381 0
M  V30 3700 N 356.222 1.38976 -0.743202 0
M  V30 3701 C 357.468 2.01114 -0.304109 0
M  V30 3702 C 357.823 1.57929 1.09892 0
M  V30 3703 O 357.116 0.801983 1.74008 0
M  V30 3704 C 357.31 3.55647 -0.353517 0
M  V30 3705 C 357.139 4.13837 -1.75981 0
M  V30 3706 C 355.909 4.46062 -2.37395 0
M  V30 3707 C 358.107 4.36812 -2.71477 0
M  V30 3708 N 356.089 4.898 -3.70093 0
M  V30 3709 C 357.46 4.82844 -3.88923 0
M  V30 3710 C 359.515 4.18893 -2.69134 0
M  V30 3711 C 358.218 5.12837 -5.04371 0
M  V30 3712 C 360.244 4.50005 -3.83731 0
M  V30 3713 C 359.606 4.96251 -4.99914 0
M  V30 3714 H 355.705 0.765931 -0.157716 0
M  V30 3715 H 358.289 1.68763 -0.970931 0
M  V30 3716 H 356.46 3.87368 0.282987 0
M  V30 3717 H 358.192 4.04564 0.104904 0
M  V30 3718 H 354.947 4.34145 -1.89248 0
M  V30 3719 H 355.371 5.16016 -4.38242 0
M  V30 3720 H 360.013 3.82335 -1.80499 0
M  V30 3721 H 357.731 5.48297 -5.9363 0
M  V30 3722 H 361.317 4.37755 -3.83225 0
M  V30 3723 H 360.197 5.19867 -5.87118 0
M  V30 3724 N 357.7 0.491464 1.49741 0
M  V30 3725 C 358.977 -0.118984 1.95238 0
M  V30 3726 C 359.357 -1.55044 1.43264 0
M  V30 3727 O 358.705 -2.19287 0.642287 0
M  V30 3728 C 358.915 -0.0414187 3.48975 0
M  V30 3729 C 360.263 -0.220133 4.24029 0
M  V30 3730 O 361.287 -0.117055 3.56008 0
M  V30 3731 O 360.146 -0.430567 5.44801 0
M  V30 3732 H 357.24 -0.100536 0.820866 0
M  V30 3733 H 359.786 0.553322 1.60426 0
M  V30 3734 H 358.558 0.957214 3.79412 0
M  V30 3735 H 358.181 -0.754292 3.9038 0
M  V30 3736 N 359.178 -1.55987 0.224894 0
M  V30 3737 C 360.424 -1.98684 -0.406502 0
M  V30 3738 C 360.757 -1.11248 -1.59177 0
M  V30 3739 O 360.032 -0.170909 -1.93748 0
M  V30 3740 C 360.315 -3.50218 -0.837808 0
M  V30 3741 C 360.168 -4.48426 0.351332 0
M  V30 3742 C 361.487 -4.06243 -1.69278 0
M  V30 3743 H 358.606 -0.722337 -0.146283 0
M  V30 3744 H 361.248 -1.87255 0.321799 0
M  V30 3745 H 359.398 -3.60089 -1.45837 0
M  V30 3746 H 361.07 -4.50562 0.989526 0
M  V30 3747 H 359.313 -4.22159 0.998207 0
M  V30 3748 H 359.984 -5.52 0.00655905 0
M  V30 3749 H 362.46 -3.99337 -1.16914 0
M  V30 3750 H 361.336 -5.12581 -1.96346 0
M  V30 3751 H 361.597 -3.53332 -2.65723 0
M  V30 3752 N 360.656 0.0484629 -1.57525 0
M  V30 3753 C 361.619 1.03956 -2.04269 0
M  V30 3754 C 362.619 1.30211 -0.943496 0
M  V30 3755 O 363.809 1.25539 -1.20771 0
M  V30 3756 C 360.941 2.37742 -2.44319 0
M  V30 3757 H 362.134 0.636182 -2.93075 0
M  V30 3758 H 359.687 0.294811 -1.53494 0
M  V30 3759 H 360.422 2.82866 -1.5861 0
M  V30 3760 H 360.207 2.20021 -3.24551 0
M  V30 3761 H 361.697 3.08936 -2.80978 0
M  V30 3762 N 362.134 1.5431 0.320358 0
M  V30 3763 C 363.064 1.86912 1.3995 0
M  V30 3764 C 364.045 0.726211 1.53819 0
M  V30 3765 O 365.23 0.980233 1.67646 0
M  V30 3766 C 362.36 2.09932 2.7667 0
M  V30 3767 C 361.314 3.25776 2.77586 0
M  V30 3768 C 360.64 3.34173 4.17412 0
M  V30 3769 C 361.94 4.6335 2.41048 0
M  V30 3770 H 363.634 2.77292 1.12914 0
M  V30 3771 H 361.18 1.33421 0.541738 0
M  V30 3772 H 363.133 2.31324 3.52232 0
M  V30 3773 H 361.857 1.16304 3.0519 0
M  V30 3774 H 360.516 3.04276 2.04479 0
M  V30 3775 H 360.164 2.38098 4.43078 0
M  V30 3776 H 359.864 4.12033 4.18931 0
M  V30 3777 H 361.388 3.57803 4.94782 0
M  V30 3778 H 362.802 4.84602 3.06324 0
M  V30 3779 H 361.199 5.43782 2.53813 0
M  V30 3780 H 362.269 4.65381 1.36193 0
M  V30 3781 N 363.613 -0.582584 1.46437 0
M  V30 3782 C 364.576 -1.67366 1.56592 0
M  V30 3783 C 365.576 -1.54575 0.443072 0
M  V30 3784 O 366.766 -1.59191 0.707381 0
M  V30 3785 C 363.898 -3.06791 1.48634 0
M  V30 3786 H 365.091 -1.5972 2.5383 0
M  V30 3787 H 362.644 -0.800432 1.34249 0
M  V30 3788 H 363.379 -3.19993 0.526763 0
M  V30 3789 H 363.164 -3.17484 2.30101 0
M  V30 3790 H 364.654 -3.86218 1.58826 0
M  V30 3791 N 365.091 -1.34144 -0.827227 0
M  V30 3792 C 366.502 -1.23557 -1.39966 0
M  V30 3793 C 366.853 0.140731 -1.95695 0
M  V30 3794 O 365.978 1.04087 -1.89723 0
M  V30 3795 C 366.573 -2.23708 -2.54441 0
M  V30 3796 C 365.132 -2.16924 -3.07605 0
M  V30 3797 C 364.279 -2.10549 -1.80456 0
M  V30 3798 H 367.23 -1.45573 -0.631991 0
M  V30 3799 H 367.251 -1.85157 -3.32411 0
M  V30 3800 H 366.763 -3.23866 -2.13851 0
M  V30 3801 H 364.864 -1.20107 -3.52711 0
M  V30 3802 H 364.977 -3.07988 -3.66988 0
M  V30 3803 H 363.341 -1.56203 -2.01178 0
M  V30 3804 H 364.124 -3.12535 -1.42046 0
M  V30 3805 N 366.569 1.04691 -1.17803 0
M  V30 3806 C 367.517 2.14665 -0.895635 0
M  V30 3807 C 368.511 1.68806 0.141679 0
M  V30 3808 O 369.717 1.79999 -0.00587914 0
M  V30 3809 H 366.092 0.701038 -0.272121 0
M  V30 3810 H 368.063 2.35685 -1.83017 0
M  V30 3811 C 366.812 3.45019 -0.430962 0
M  V30 3812 H 366.135 3.8071 -1.22064 0
M  V30 3813 H 367.575 4.23125 -0.272301 0
M  V30 3814 C 366.034 3.25943 0.852207 0
M  V30 3815 O 366.564 3.5296 1.91786 0
M  V30 3816 N 364.77 2.79304 0.802346 0
M  V30 3817 H 364.317 2.57518 -0.0650788 0
M  V30 3818 H 364.275 2.66921 1.66134 0
M  V30 3819 N 368.047 0.979072 1.23499 0
M  V30 3820 C 369.458 0.684391 1.73704 0
M  V30 3821 C 369.809 -0.799448 1.79174 0
M  V30 3822 O 368.934 -1.62531 1.42873 0
M  V30 3823 C 369.529 1.23564 3.15464 0
M  V30 3824 C 368.088 0.99063 3.6313 0
M  V30 3825 C 367.235 1.36416 2.41425 0
M  V30 3826 H 370.186 1.15307 1.09041 0
M  V30 3827 H 370.207 0.607417 3.7562 0
M  V30 3828 H 369.719 2.31561 3.1145 0
M  V30 3829 H 367.82 -0.0733136 3.72528 0
M  V30 3830 H 367.933 1.64427 4.5 0
M  V30 3831 H 366.297 0.782616 2.42378 0
M  V30 3832 H 367.08 2.45387 2.40083 0
M  V30 3833 N 369.525 -1.3858 0.750561 0
M  V30 3834 C 370.435 -2.34278 0.122825 0
M  V30 3835 C 371.451 -1.59116 -0.704131 0
M  V30 3836 O 372.627 -1.91326 -0.628987 0
M  V30 3837 C 369.692 -3.38221 -0.762086 0
M  V30 3838 C 368.753 -4.29227 0.078896 0
M  V30 3839 C 367.986 -5.28205 -0.763874 0
M  V30 3840 O 368.209 -5.34112 -2.00201 0
M  V30 3841 O 367.143 -6.01618 -0.18428 0
M  V30 3842 H 370.969 -2.89649 0.913088 0
M  V30 3843 H 368.554 -1.40374 0.511417 0
M  V30 3844 H 370.436 -4.01872 -1.26793 0
M  V30 3845 H 369.111 -2.85211 -1.5309 0
M  V30 3846 H 368.018 -3.68747 0.630621 0
M  V30 3847 H 369.351 -4.85484 0.810289 0
M  V30 3848 N 371.003 -0.499398 -1.49478 0
M  V30 3849 C 372.25 0.0456899 -2.02448 0
M  V30 3850 C 372.578 1.37142 -1.37921 0
M  V30 3851 O 371.833 1.89111 -0.503544 0
M  V30 3852 C 372.132 0.248424 -3.56536 0
M  V30 3853 C 371.798 -0.999107 -4.39692 0
M  V30 3854 C 370.46 -1.34108 -4.62135 0
M  V30 3855 C 372.812 -1.82842 -4.88076 0
M  V30 3856 C 370.14 -2.51191 -5.30208 0
M  V30 3857 C 372.492 -2.99076 -5.57437 0
M  V30 3858 C 371.156 -3.33655 -5.78127 0
M  V30 3859 H 370.426 0.0167191 -0.740811 0
M  V30 3860 H 373.073 -0.65923 -1.79795 0
M  V30 3861 H 371.378 1.03586 -3.77859 0
M  V30 3862 H 373.075 0.684605 -3.95113 0
M  V30 3863 H 369.665 -0.722729 -4.22463 0
M  V30 3864 H 373.849 -1.57737 -4.70566 0
M  V30 3865 H 369.105 -2.78221 -5.44429 0
M  V30 3866 H 373.279 -3.63664 -5.93904 0
M  V30 3867 H 370.906 -4.24483 -6.30649 0
M  V30 3868 N 372.481 1.55866 -0.233164 0
M  V30 3869 C 373.391 2.24431 0.683217 0
M  V30 3870 C 374.407 1.2558 1.2044 0
M  V30 3871 O 375.583 1.58422 1.24356 0
M  V30 3872 C 372.648 2.91979 1.86947 0
M  V30 3873 C 371.709 4.06204 1.38912 0
M  V30 3874 C 370.942 4.70522 2.51883 0
M  V30 3875 O 371.165 4.33865 3.70293 0
M  V30 3876 O 370.099 5.59296 2.22423 0
M  V30 3877 H 373.925 3.03426 0.129059 0
M  V30 3878 H 371.51 1.494 -0.0022283 0
M  V30 3879 H 373.392 3.34573 2.56201 0
M  V30 3880 H 372.067 2.15935 2.41151 0
M  V30 3881 H 370.974 3.68155 0.664259 0
M  V30 3882 H 372.307 4.84025 0.893328 0
M  V30 3883 N 373.959 -0.0401083 1.57549 0
M  V30 3884 C 374.922 -1.02871 2.04817 0
M  V30 3885 C 375.922 -1.29708 0.950388 0
M  V30 3886 O 377.112 -1.24897 1.21435 0
M  V30 3887 C 374.244 -2.36443 2.45576 0
M  V30 3888 H 375.437 -0.620631 2.93408 0
M  V30 3889 H 372.99 -0.286667 1.53649 0
M  V30 3890 H 373.725 -2.82021 1.60108 0
M  V30 3891 H 373.51 -2.18296 3.25713 0
M  V30 3892 H 375 -3.07441 2.82612 0
M  V30 3893 N 375.437 -1.54477 -0.31217 0
M  V30 3894 C 376.684 -1.73227 -1.04875 0
M  V30 3895 C 377.012 -0.512042 -1.87639 0
M  V30 3896 O 376.267 0.506131 -1.89042 0
M  V30 3897 C 376.566 -2.967 -1.99258 0
M  V30 3898 C 376.232 -4.30974 -1.32559 0
M  V30 3899 C 374.894 -4.67477 -1.141 0
M  V30 3900 C 377.246 -5.14258 -0.847835 0
M  V30 3901 C 374.574 -5.84852 -0.465326 0
M  V30 3902 C 376.926 -6.32327 -0.185931 0
M  V30 3903 C 375.59 -6.67499 0.0107077 0
M  V30 3904 H 374.86 -0.633881 -0.383765 0
M  V30 3905 H 377.507 -1.88727 -0.324731 0
M  V30 3906 H 375.812 -2.75935 -2.7815 0
M  V30 3907 H 377.509 -3.08401 -2.563 0
M  V30 3908 H 374.099 -4.02262 -1.4793 0
M  V30 3909 H 378.283 -4.86565 -0.978192 0
M  V30 3910 H 373.539 -6.10654 -0.301883 0
M  V30 3911 H 377.713 -6.96135 0.192211 0
M  V30 3912 H 375.34 -7.58306 0.536287 0
M  V30 3913 N 376.915 0.57481 -1.46744 0
M  V30 3914 C 377.878 1.66533 -1.57478 0
M  V30 3915 C 378.878 1.54338 -0.451263 0
M  V30 3916 O 380.068 1.58814 -0.715813 0
M  V30 3917 C 377.2 3.05999 -1.50259 0
M  V30 3918 H 378.393 1.58372 -2.54673 0
M  V30 3919 H 375.946 0.793301 -1.34672 0
M  V30 3920 H 376.681 3.19709 -0.543725 0
M  V30 3921 H 376.466 3.16259 -2.31781 0
M  V30 3922 H 377.956 3.8537 -1.60872 0
M  V30 3923 N 378.394 1.34581 0.820102 0
M  V30 3924 C 379.642 1.26845 1.57336 0
M  V30 3925 C 379.963 -0.160667 1.94337 0
M  V30 3926 O 379.233 -1.09396 1.6251 0
M  V30 3927 H 377.813 0.466514 0.583415 0
M  V30 3928 H 380.475 1.68526 0.979027 0
M  V30 3929 H 379.571 1.87513 2.4949 0
M  V30 3930 N 379.872 -1.04064 1.18357 0
M  V30 3931 C 381.118 -1.77658 0.990412 0
M  V30 3932 C 381.473 -1.86446 -0.474944 0
M  V30 3933 O 380.766 -1.36153 -1.34807 0
M  V30 3934 C 380.96 -3.20634 1.57888 0
M  V30 3935 C 380.789 -3.25782 3.09994 0
M  V30 3936 C 379.559 -3.34411 3.7881 0
M  V30 3937 C 381.757 -3.13791 4.0748 0
M  V30 3938 N 379.739 -3.28809 5.18418 0
M  V30 3939 C 381.11 -3.15689 5.33611 0
M  V30 3940 C 383.165 -2.97833 3.98998 0
M  V30 3941 C 381.868 -3.03268 6.52243 0
M  V30 3942 C 383.894 -2.86759 5.17227 0
M  V30 3943 C 383.256 -2.893 6.4225 0
M  V30 3944 H 379.355 -0.661901 0.416427 0
M  V30 3945 H 381.939 -1.23968 1.50133 0
M  V30 3946 H 380.11 -3.7267 1.09414 0
M  V30 3947 H 381.842 -3.82525 1.32124 0
M  V30 3948 H 378.597 -3.40144 3.29543 0
M  V30 3949 H 379.021 -3.29448 5.91433 0
M  V30 3950 H 383.663 -2.94698 3.03171 0
M  V30 3951 H 381.381 -3.05156 7.48268 0
M  V30 3952 H 384.967 -2.75465 5.12455 0
M  V30 3953 H 383.847 -2.80818 7.32196 0
M  V30 3954 N 381.35 -0.985608 -1.22978 0
M  V30 3955 C 382.596 -0.65836 -1.91816 0
M  V30 3956 C 382.929 0.806692 -1.76653 0
M  V30 3957 O 382.204 1.58252 -1.13078 0
M  V30 3958 C 382.487 -1.056 -3.44268 0
M  V30 3959 C 382.34 -2.57906 -3.68516 0
M  V30 3960 C 383.659 -0.603781 -4.35939 0
M  V30 3961 H 380.778 -0.24065 -0.696604 0
M  V30 3962 H 383.42 -1.22783 -1.44998 0
M  V30 3963 H 381.57 -0.571445 -3.84274 0
M  V30 3964 H 383.242 -3.13976 -3.3796 0
M  V30 3965 H 381.485 -3.00305 -3.13048 0
M  V30 3966 H 382.156 -2.80779 -4.75255 0
M  V30 3967 H 384.632 -1.01987 -4.03408 0
M  V30 3968 H 383.508 -0.910383 -5.41298 0
M  V30 3969 H 383.769 0.495761 -4.39312 0
M  V30 3970 N 382.828 1.3818 -0.7579 0
M  V30 3971 C 384.056 2.04301 -0.326937 0
M  V30 3972 C 384.471 1.57163 1.0462 0
M  V30 3973 O 383.828 0.746626 1.66529 0
M  V30 3974 C 383.879 3.59846 -0.345363 0
M  V30 3975 O 383.6 4.05256 -1.66432 0
M  V30 3976 C 385.101 4.4319 0.098927 0
M  V30 3977 H 382.321 0.656443 -0.139012 0
M  V30 3978 H 384.865 1.76786 -1.02796 0
M  V30 3979 H 383.02 3.86182 0.306955 0
M  V30 3980 H 383.434 4.99709 -1.59345 0
M  V30 3981 H 384.908 5.51989 0.0348745 0
M  V30 3982 H 385.385 4.23947 1.14741 0
M  V30 3983 H 385.991 4.22051 -0.52468 0
M  V30 3984 N 384.306 0.507319 1.49211 0
M  V30 3985 C 385.534 -0.0315749 2.06876 0
M  V30 3986 C 385.949 -1.30241 1.36685 0
M  V30 3987 O 385.306 -1.76937 0.447152 0
M  V30 3988 C 385.357 -0.282627 3.60393 0
M  V30 3989 O 385.078 0.937835 4.27944 0
M  V30 3990 C 386.579 -0.864453 4.3479 0
M  V30 3991 H 383.799 0.0233048 0.670595 0
M  V30 3992 H 386.343 0.706484 1.91909 0
M  V30 3993 H 384.498 -0.97068 3.75042 0
M  V30 3994 H 384.912 0.704567 5.19746 0
M  V30 3995 H 386.386 -0.989664 5.43056 0
M  V30 3996 H 386.863 -1.86382 3.97692 0
M  V30 3997 H 387.469 -0.213672 4.24763 0
M  V30 3998 N 385.784 -1.5574 0.241426 0
M  V30 3999 C 386.731 -2.21149 -0.660432 0
M  V30 4000 C 387.701 -1.17356 -1.17545 0
M  V30 4001 O 388.886 -1.45784 -1.23093 0
M  V30 4002 C 386.026 -2.91059 -1.85414 0
M  V30 4003 C 385.139 -4.09495 -1.37616 0
M  V30 4004 C 384.274 -4.67135 -2.529 0
M  V30 4005 C 383.313 -5.77831 -2.01936 0
M  V30 4006 N 382.45 -6.29677 -3.10566 0
M  V30 4007 H 387.29 -2.97845 -0.095955 0
M  V30 4008 H 384.827 -1.47057 -0.0356024 0
M  V30 4009 H 386.785 -3.29788 -2.5553 0
M  V30 4010 H 385.415 -2.16846 -2.39118 0
M  V30 4011 H 384.467 -3.76117 -0.569235 0
M  V30 4012 H 385.779 -4.89423 -0.962618 0
M  V30 4013 H 384.933 -5.08409 -3.31067 0
M  V30 4014 H 383.672 -3.86411 -2.97553 0
M  V30 4015 H 382.677 -5.36039 -1.22238 0
M  V30 4016 H 383.902 -6.60402 -1.58259 0
M  V30 4017 H 381.848 -5.5186 -3.54664 0
M  V30 4018 H 381.765 -7.04783 -2.73526 0
M  V30 4019 H 383.033 -6.75609 -3.88809 0
M  V30 4020 N 387.262 0.0317525 -1.57568 0
M  V30 4021 C 388.673 0.578692 -1.77505 0
M  V30 4022 C 389.024 1.75749 -0.872164 0
M  V30 4023 O 388.149 2.16298 -0.0663106 0
M  V30 4024 C 388.744 1.05658 -3.21904 0
M  V30 4025 C 387.303 1.54906 -3.43047 0
M  V30 4026 C 386.45 0.485939 -2.73009 0
M  V30 4027 H 389.401 -0.194475 -1.57504 0
M  V30 4028 H 389.422 1.92404 -3.28269 0
M  V30 4029 H 388.934 0.198422 -3.87592 0
M  V30 4030 H 387.035 2.42915 -2.82529 0
M  V30 4031 H 387.148 1.59841 -4.5165 0
M  V30 4032 H 385.512 0.940354 -2.36705 0
M  V30 4033 H 386.295 -0.362709 -3.41379 0
M  V30 4034 N 388.74 1.54641 0.303973 0
M  V30 4035 C 389.672 1.81754 1.39636 0
M  V30 4036 C 390.685 0.70035 1.46966 0
M  V30 4037 O 391.874 0.97778 1.49338 0
M  V30 4038 C 388.974 1.93785 2.7803 0
M  V30 4039 C 388.147 3.24156 2.93669 0
M  V30 4040 C 387.206 3.26641 4.12544 0
M  V30 4041 O 386.232 4.00187 4.04771 0
M  V30 4042 N 387.434 2.5182 5.23036 0
M  V30 4043 H 390.199 2.76031 1.16734 0
M  V30 4044 H 387.76 1.54178 0.494033 0
M  V30 4045 H 389.752 1.92852 3.55795 0
M  V30 4046 H 388.322 1.06515 2.93893 0
M  V30 4047 H 387.542 3.37887 2.03042 0
M  V30 4048 H 388.83 4.10195 3.01027 0
M  V30 4049 H 388.228 1.91692 5.32232 0
M  V30 4050 H 386.785 2.56644 5.99147 0
M  V30 4051 N 390.218 -0.567019 1.47046 0
M  V30 4052 C 391.629 -1.14916 1.47143 0
M  V30 4053 C 391.98 -1.94954 0.220767 0
M  V30 4054 O 391.105 -2.05602 -0.67505 0
M  V30 4055 C 391.7 -2.09069 2.666 0
M  V30 4056 C 390.259 -2.62575 2.69687 0
M  V30 4057 C 389.406 -1.38755 2.40088 0
M  V30 4058 H 392.357 -0.354126 1.54699 0
M  V30 4059 H 392.378 -2.92789 2.43011 0
M  V30 4060 H 391.89 -1.50789 3.57609 0
M  V30 4061 H 389.991 -3.24681 1.82792 0
M  V30 4062 H 390.104 -3.04239 3.70102 0
M  V30 4063 H 388.468 -1.69098 1.90468 0
M  V30 4064 H 389.251 -0.822822 3.33293 0
M  V30 4065 N 391.696 -1.35014 -0.812953 0
M  V30 4066 C 393.107 -1.25035 -1.38648 0
M  V30 4067 C 393.458 0.119967 -1.95833 0
M  V30 4068 O 392.583 1.02069 -1.90816 0
M  V30 4069 C 393.178 -2.26394 -2.52054 0
M  V30 4070 C 391.737 -2.20175 -3.05287 0
M  V30 4071 C 390.884 -2.12451 -1.78213 0
M  V30 4072 H 393.835 -1.46235 -0.616516 0
M  V30 4073 H 393.856 -1.88672 -3.30429 0
M  V30 4074 H 393.368 -3.26116 -2.10404 0
M  V30 4075 H 391.469 -1.23841 -3.51417 0
M  V30 4076 H 391.582 -3.11863 -3.63701 0
M  V30 4077 H 389.946 -1.58328 -1.9951 0
M  V30 4078 H 390.729 -3.14024 -1.38723 0
M  V30 4079 N 393.175 1.03435 -1.18907 0
M  V30 4080 C 394.107 2.1165 -0.879595 0
M  V30 4081 C 395.12 1.62316 0.125439 0
M  V30 4082 O 396.309 1.78201 -0.103245 0
M  V30 4083 C 393.409 3.37622 -0.294042 0
M  V30 4084 C 392.582 4.16166 -1.34629 0
M  V30 4085 C 391.641 5.20457 -0.775274 0
M  V30 4086 O 390.667 5.50379 -1.4516 0
M  V30 4087 N 391.869 5.78949 0.424126 0
M  V30 4088 H 394.634 2.38791 -1.81105 0
M  V30 4089 H 392.195 1.19681 -1.09032 0
M  V30 4090 H 394.187 4.04572 0.101679 0
M  V30 4091 H 392.757 3.07873 0.541575 0
M  V30 4092 H 391.977 3.44444 -1.91707 0
M  V30 4093 H 393.265 4.65432 -2.05549 0
M  V30 4094 H 392.663 5.56948 0.991209 0
M  V30 4095 H 391.22 6.47334 0.761691 0
M  V30 4096 N 394.653 0.992116 1.22453 0
M  V30 4097 C 396.064 0.702776 1.72968 0
M  V30 4098 C 396.415 -0.780399 1.80012 0
M  V30 4099 O 395.54 -1.61007 1.44589 0
M  V30 4100 C 396.135 1.26903 3.14135 0
M  V30 4101 C 394.694 1.02909 3.62059 0
M  V30 4102 C 393.841 1.38969 2.39964 0
M  V30 4103 H 396.792 1.16457 1.07812 0
M  V30 4104 H 396.813 0.647223 3.74955 0
M  V30 4105 H 396.325 2.34851 3.08977 0
M  V30 4106 H 394.426 -0.0337979 3.72585 0
M  V30 4107 H 394.539 1.69191 4.48231 0
M  V30 4108 H 392.903 0.808279 2.41535 0
M  V30 4109 H 393.686 2.4792 2.37467 0
M  V30 4110 N 396.131 -1.37776 0.765217 0
M  V30 4111 C 397.542 -1.82521 0.392819 0
M  V30 4112 C 397.893 -1.63789 -1.08017 0
M  V30 4113 O 397.018 -1.14542 -1.83601 0
M  V30 4114 C 397.613 -3.31358 0.706214 0
M  V30 4115 C 396.172 -3.74406 0.386952 0
M  V30 4116 C 395.319 -2.60394 0.953422 0
M  V30 4117 H 398.27 -1.2634 0.960412 0
M  V30 4118 H 398.291 -3.80498 -0.0114706 0
M  V30 4119 H 397.803 -3.44959 1.77833 0
M  V30 4120 H 395.904 -3.66377 -0.678112 0
M  V30 4121 H 396.017 -4.70749 0.890636 0
M  V30 4122 H 394.381 -2.51878 0.378064 0
M  V30 4123 H 395.164 -2.76791 2.03081 0
M  V30 4124 N 397.609 -0.515225 -1.4894 0
M  V30 4125 C 399.02 -0.0710067 -1.86565 0
M  V30 4126 C 399.371 1.34733 -1.42623 0
M  V30 4127 O 398.496 2.00653 -0.810379 0
M  V30 4128 C 399.091 -0.122083 -3.3858 0
M  V30 4129 C 397.65 0.266863 -3.75453 0
M  V30 4130 C 396.797 -0.488376 -2.72966 0
M  V30 4131 H 399.748 -0.727266 -1.41055 0
M  V30 4132 H 399.769 0.669818 -3.74558 0
M  V30 4133 H 399.281 -1.15448 -3.70531 0
M  V30 4134 H 397.382 1.30196 -3.49113 0
M  V30 4135 H 397.495 -0.0624811 -4.79059 0
M  V30 4136 H 395.859 0.0635622 -2.54621 0
M  V30 4137 H 396.642 -1.52113 -3.07761 0
M  V30 4138 N 399.087 1.5561 -0.249682 0
M  V30 4139 C 400.498 1.84979 0.252949 0
M  V30 4140 C 400.849 1.17153 1.57384 0
M  V30 4141 O 399.974 0.450884 2.11651 0
M  V30 4142 C 400.569 3.35584 0.465732 0
M  V30 4143 C 399.128 3.65169 0.912624 0
M  V30 4144 C 398.275 2.77299 -0.00859085 0
M  V30 4145 H 401.226 1.51513 -0.47217 0
M  V30 4146 H 401.247 3.57313 1.30795 0
M  V30 4147 H 400.759 3.8492 -0.49579 0
M  V30 4148 H 398.86 3.21312 1.88652 0
M  V30 4149 H 398.973 4.72912 0.767559 0
M  V30 4150 H 397.337 2.49678 0.50327 0
M  V30 4151 H 398.12 3.29442 -0.965537 0
M  V30 4152 N 400.565 -0.0233959 1.57583 0
M  V30 4153 C 401.811 -0.708611 1.90657 0
M  V30 4154 C 402.166 -1.7266 0.848895 0
M  V30 4155 O 401.459 -1.91075 -0.141749 0
M  V30 4156 C 401.653 -1.41428 3.28227 0
M  V30 4157 C 401.482 -0.466155 4.47277 0
M  V30 4158 C 400.252 -0.085117 5.05228 0
M  V30 4159 C 402.45 0.257836 5.13653 0
M  V30 4160 N 400.432 0.863672 6.07794 0
M  V30 4161 C 401.803 1.06209 6.10835 0
M  V30 4162 C 403.858 0.324174 4.96844 0
M  V30 4163 C 402.561 1.9266 6.93018 0
M  V30 4164 C 404.587 1.17583 5.79593 0
M  V30 4165 C 403.949 1.96799 6.7635 0
M  V30 4166 H 400.048 -0.233222 0.746412 0
M  V30 4167 H 402.632 0.0314512 1.94675 0
M  V30 4168 H 400.803 -2.12477 3.25128 0
M  V30 4169 H 402.535 -2.05233 3.488 0
M  V30 4170 H 399.29 -0.448516 4.71471 0
M  V30 4171 H 399.714 1.33274 6.63752 0
M  V30 4172 H 404.356 -0.273975 4.21911 0
M  V30 4173 H 402.074 2.53552 7.67292 0
M  V30 4174 H 405.66 1.23076 5.68633 0
M  V30 4175 H 404.54 2.61635 7.39268 0
M  V30 4176 N 402.043 -1.548 -0.295768 0
M  V30 4177 C 403.32 -1.65014 -1.05023 0
M  V30 4178 C 403.7 -0.501805 -2.05049 0
M  V30 4179 O 403.048 0.500869 -2.22943 0
M  V30 4180 C 403.258 -3.03252 -1.72741 0
M  V30 4181 C 404.606 -3.60242 -2.24746 0
M  V30 4182 O 405.63 -3.05737 -1.82765 0
M  V30 4183 O 404.489 -4.55687 -3.01681 0
M  V30 4184 H 401.583 -0.669314 -0.485744 0
M  V30 4185 H 404.129 -1.67144 -0.293438 0
M  V30 4186 H 402.901 -3.7827 -1.00138 0
M  V30 4187 H 402.524 -3.04922 -2.55163 0
M  V30 4188 N 403.521 0.559213 -1.47345 0
M  V30 4189 C 404.453 1.68161 -1.55738 0
M  V30 4190 C 405.466 1.56636 -0.443744 0
M  V30 4191 O 406.655 1.6363 -0.713258 0
M  V30 4192 C 403.755 3.06611 -1.4437 0
M  V30 4193 C 402.928 3.4391 -2.70268 0
M  V30 4194 C 401.987 4.61515 -2.52765 0
M  V30 4195 O 401.013 4.66197 -3.26572 0
M  V30 4196 N 402.215 5.57883 -1.6046 0
M  V30 4197 H 404.98 1.61408 -2.52522 0
M  V30 4198 H 402.541 0.7458 -1.43699 0
M  V30 4199 H 404.533 3.83117 -1.30398 0
M  V30 4200 H 403.103 3.07602 -0.556766 0
M  V30 4201 H 402.323 2.56873 -2.99015 0
M  V30 4202 H 403.611 3.65605 -3.53851 0
M  V30 4203 H 403.009 5.56855 -0.996422 0
M  V30 4204 H 401.566 6.33723 -1.52441 0
M  V30 4205 N 404.999 1.35443 0.805782 0
M  V30 4206 C 406.246 1.28761 1.56291 0
M  V30 4207 C 406.574 -0.137747 1.94012 0
M  V30 4208 O 405.829 -1.1032 1.61642 0
M  V30 4209 C 406.128 2.14045 2.86216 0
M  V30 4210 C 405.794 3.62826 2.67709 0
M  V30 4211 C 404.456 4.0338 2.6237 0
M  V30 4212 C 406.808 4.57227 2.50186 0
M  V30 4213 C 404.136 5.36501 2.37451 0
M  V30 4214 C 406.488 5.90547 2.26797 0
M  V30 4215 C 405.152 6.30245 2.1988 0
M  V30 4216 H 404.422 0.471171 0.571908 0
M  V30 4217 H 407.069 1.67347 0.930974 0
M  V30 4218 H 405.374 1.68342 3.53791 0
M  V30 4219 H 407.071 2.0621 3.43917 0
M  V30 4220 H 403.661 3.30644 2.72713 0
M  V30 4221 H 407.845 4.2678 2.53323 0
M  V30 4222 H 403.101 5.66259 2.30567 0
M  V30 4223 H 407.275 6.63274 2.12228 0
M  V30 4224 H 404.902 7.33328 2.00333 0
M  V30 4225 N 406.477 -1.02803 1.19454 0
M  V30 4226 C 407.44 -2.09264 0.934955 0
M  V30 4227 C 408.44 -1.60576 -0.0849015 0
M  V30 4228 O 409.63 -1.73554 0.149933 0
M  V30 4229 C 406.762 -3.38482 0.40531 0
M  V30 4230 H 407.955 -2.33726 1.87916 0
M  V30 4231 H 405.508 -1.19426 1.00832 0
M  V30 4232 H 406.243 -3.19689 -0.544899 0
M  V30 4233 H 406.028 -3.75142 1.14065 0
M  V30 4234 H 407.518 -4.16894 0.242806 0
M  V30 4235 N 407.956 -0.998596 -1.21925 0
M  V30 4236 C 409.367 -0.711939 -1.72593 0
M  V30 4237 C 409.718 0.770842 -1.80423 0
M  V30 4238 O 408.843 1.60237 -1.4544 0
M  V30 4239 C 409.438 -1.28567 -3.13458 0
M  V30 4240 C 407.997 -1.04828 -3.61508 0
M  V30 4241 C 407.144 -1.4024 -2.39224 0
M  V30 4242 H 410.095 -1.17027 -1.07193 0
M  V30 4243 H 410.116 -0.667098 -3.74607 0
M  V30 4244 H 409.628 -2.36486 -3.07727 0
M  V30 4245 H 407.729 0.0140383 -3.72597 0
M  V30 4246 H 407.842 -1.71566 -4.47328 0
M  V30 4247 H 406.206 -0.821077 -2.41103 0
M  V30 4248 H 406.989 -2.49176 -2.36149 0
M  V30 4249 N 409.434 1.37368 -0.772513 0
M  V30 4250 C 410.845 1.8231 -0.402493 0
M  V30 4251 C 411.196 1.6436 1.07146 0
M  V30 4252 O 410.321 1.15514 1.82991 0
M  V30 4253 C 410.916 3.30979 -0.723776 0
M  V30 4254 C 409.475 3.74195 -0.406802 0
M  V30 4255 C 408.622 2.59885 -0.967218 0
M  V30 4256 H 411.573 1.25829 -0.967099 0
M  V30 4257 H 411.594 3.80499 -0.00870832 0
M  V30 4258 H 411.106 3.44011 -1.7966 0
M  V30 4259 H 409.207 3.66732 0.658673 0
M  V30 4260 H 409.32 4.7027 -0.915588 0
M  V30 4261 H 407.684 2.51674 -0.391416 0
M  V30 4262 H 408.467 2.7571 -2.04546 0
M  V30 4263 N 410.912 0.523116 1.48665 0
M  V30 4264 C 411.875 -0.232592 2.28017 0
M  V30 4265 C 412.875 -0.874021 1.34972 0
M  V30 4266 O 414.065 -0.735132 1.57929 0
M  V30 4267 C 411.197 -1.33586 3.13636 0
M  V30 4268 H 412.39 0.464008 2.96289 0
M  V30 4269 H 409.943 0.278816 1.53793 0
M  V30 4270 H 410.678 -2.06593 2.4998 0
M  V30 4271 H 410.463 -0.881125 3.82071 0
M  V30 4272 H 411.953 -1.86759 3.73511 0
M  V30 4273 N 412.39 -1.55475 0.257931 0
M  V30 4274 C 413.32 -2.24815 -0.630912 0
M  V30 4275 C 414.301 -1.23224 -1.17259 0
M  V30 4276 O 415.486 -1.51904 -1.20991 0
M  V30 4277 C 412.616 -2.95609 -1.82298 0
M  V30 4278 C 411.57 -4.03982 -1.41359 0
M  V30 4279 C 410.896 -4.6226 -2.68738 0
M  V30 4280 C 412.196 -5.19109 -0.57648 0
M  V30 4281 H 413.89 -2.99354 -0.0526878 0
M  V30 4282 H 411.436 -1.4398 -0.023901 0
M  V30 4283 H 413.389 -3.42822 -2.45054 0
M  V30 4284 H 412.113 -2.18577 -2.42676 0
M  V30 4285 H 410.772 -3.57555 -0.809324 0
M  V30 4286 H 410.42 -3.81915 -3.27338 0
M  V30 4287 H 410.12 -5.35424 -2.42065 0
M  V30 4288 H 411.644 -5.12212 -3.32372 0
M  V30 4289 H 413.058 -5.62479 -1.10861 0
M  V30 4290 H 411.455 -5.98729 -0.405351 0
M  V30 4291 H 412.525 -4.83174 0.408776 0
M  V30 4292 N 413.868 0.0150385 -1.57593 0
M  V30 4293 C 414.831 0.995996 -2.06428 0
M  V30 4294 C 415.831 1.2818 -0.970903 0
M  V30 4295 O 417.021 1.22949 -1.23406 0
M  V30 4296 C 414.153 2.32506 -2.49307 0
M  V30 4297 H 415.346 0.573873 -2.94358 0
M  V30 4298 H 412.899 0.262186 -1.54085 0
M  V30 4299 H 413.634 2.79438 -1.64575 0
M  V30 4300 H 413.419 2.13087 -3.29145 0
M  V30 4301 H 414.909 3.02906 -2.87468 0
M  V30 4302 N 415.346 1.54954 0.287554 0
M  V30 4303 C 416.276 1.89839 1.35954 0
M  V30 4304 C 417.257 0.758675 1.52244 0
M  V30 4305 O 418.442 1.01557 1.65529 0
M  V30 4306 C 415.572 2.15753 2.72154 0
M  V30 4307 C 414.526 3.3159 2.70614 0
M  V30 4308 C 413.852 3.42952 4.10229 0
M  V30 4309 C 415.152 4.68359 2.31165 0
M  V30 4310 H 416.846 2.79625 1.07007 0
M  V30 4311 H 414.392 1.3454 0.513316 0
M  V30 4312 H 416.345 2.38743 3.47246 0
M  V30 4313 H 415.069 1.22752 3.02654 0
M  V30 4314 H 413.728 3.08545 1.97979 0
M  V30 4315 H 413.376 2.47443 4.37928 0
M  V30 4316 H 413.076 4.20826 4.10097 0
M  V30 4317 H 414.6 3.68218 4.87081 0
M  V30 4318 H 416.014 4.9099 2.95976 0
M  V30 4319 H 414.411 5.49044 2.42221 0
M  V30 4320 H 415.481 4.68165 1.26291 0
M  V30 4321 N 416.824 -0.551391 1.4764 0
M  V30 4322 C 417.754 -1.66757 1.63445 0
M  V30 4323 C 418.735 -1.63077 0.483742 0
M  V30 4324 O 419.92 -1.80607 0.71377 0
M  V30 4325 C 417.05 -3.05387 1.65396 0
M  V30 4326 C 416.004 -3.23918 2.79752 0
M  V30 4327 C 415.33 -4.63393 2.66779 0
M  V30 4328 C 416.63 -3.08735 4.21284 0
M  V30 4329 H 418.324 -1.53786 2.56886 0
M  V30 4330 H 415.87 -0.738415 1.23626 0
M  V30 4331 H 417.823 -3.83325 1.75043 0
M  V30 4332 H 416.547 -3.19332 0.685195 0
M  V30 4333 H 415.206 -2.48391 2.69625 0
M  V30 4334 H 414.854 -4.74144 1.67918 0
M  V30 4335 H 414.554 -4.7674 3.43501 0
M  V30 4336 H 416.078 -5.43458 2.78364 0
M  V30 4337 H 417.492 -3.76484 4.32357 0
M  V30 4338 H 415.889 -3.33588 4.98838 0
M  V30 4339 H 416.959 -2.0541 4.39243 0
M  V30 4340 N 418.302 -1.35869 -0.798587 0
M  V30 4341 C 419.234 -1.25305 -1.91915 0
M  V30 4342 C 420.247 -0.174548 -1.61862 0
M  V30 4343 O 421.436 -0.428499 -1.73281 0
M  V30 4344 C 418.536 -0.9086 -3.26493 0
M  V30 4345 C 417.709 -2.08711 -3.84394 0
M  V30 4346 C 416.768 -1.71717 -4.97393 0
M  V30 4347 O 415.794 -2.43692 -5.14396 0
M  V30 4348 N 416.996 -0.645473 -5.769 0
M  V30 4349 H 419.761 -2.21849 -2.01502 0
M  V30 4350 H 417.322 -1.29143 -0.976408 0
M  V30 4351 H 419.314 -0.642455 -3.99568 0
M  V30 4352 H 417.884 -0.0325815 -3.12583 0
M  V30 4353 H 417.104 -2.51659 -3.03416 0
M  V30 4354 H 418.392 -2.87468 -4.19809 0
M  V30 4355 H 417.79 -0.047648 -5.6568 0
M  V30 4356 H 416.347 -0.43913 -6.50319 0
M  V30 4357 N 419.78 1.02168 -1.19998 0
M  V30 4358 C 421.028 1.75338 -1.00504 0
M  V30 4359 C 421.349 1.89387 0.464506 0
M  V30 4360 O 420.619 1.43268 1.33608 0
M  V30 4361 H 419.199 0.649564 -0.368885 0
M  V30 4362 H 421.861 1.23205 -1.51018 0
M  V30 4363 H 420.957 2.75892 -1.45912 0
M  V30 4364 N 421.258 1.00505 1.21394 0
M  V30 4365 C 422.188 0.585684 2.26035 0
M  V30 4366 C 423.169 -0.393525 1.65485 0
M  V30 4367 O 424.354 -0.281497 1.92149 0
M  V30 4368 C 421.484 -0.0884283 3.47187 0
M  V30 4369 C 420.438 0.810567 4.20254 0
M  V30 4370 C 419.764 0.00286382 5.347 0
M  V30 4371 C 421.064 2.1132 4.77641 0
M  V30 4372 H 422.758 1.46039 2.61368 0
M  V30 4373 H 420.304 0.703648 1.25638 0
M  V30 4374 H 422.257 -0.393286 4.19561 0
M  V30 4375 H 420.981 -0.997766 3.10986 0
M  V30 4376 H 419.64 1.09925 3.49731 0
M  V30 4377 H 419.288 -0.907765 4.94741 0
M  V30 4378 H 418.988 0.601444 5.84514 0
M  V30 4379 H 420.512 -0.295808 6.09883 0
M  V30 4380 H 421.926 1.87148 5.41893 0
M  V30 4381 H 420.323 2.66164 5.37845 0
M  V30 4382 H 421.393 2.78393 3.9702 0
M  V30 4383 N 422.737 -1.36956 0.779787 0
M  V30 4384 C 423.667 -2.32761 0.185651 0
M  V30 4385 C 424.648 -1.56177 -0.673989 0
M  V30 4386 O 425.833 -1.84378 -0.609797 0
M  V30 4387 C 422.963 -3.40418 -0.687964 0
M  V30 4388 C 421.917 -4.27941 0.0710102 0
M  V30 4389 C 421.243 -5.26681 -0.922573 0
M  V30 4390 C 422.543 -5.07006 1.25467 0
M  V30 4391 H 424.237 -2.82698 0.986008 0
M  V30 4392 H 421.783 -1.3592 0.475592 0
M  V30 4393 H 423.736 -4.06423 -1.11348 0
M  V30 4394 H 422.46 -2.89025 -1.52093 0
M  V30 4395 H 421.119 -3.63478 0.47739 0
M  V30 4396 H 420.767 -4.71565 -1.7503 0
M  V30 4397 H 420.467 -5.86103 -0.419237 0
M  V30 4398 H 421.991 -5.9556 -1.34686 0
M  V30 4399 H 423.405 -5.66105 0.905401 0
M  V30 4400 H 421.802 -5.75793 1.69063 0
M  V30 4401 H 422.872 -4.3921 2.05481 0
M  V30 4402 N 424.215 -0.530993 -1.48385 0
M  V30 4403 C 425.492 0.0671788 -1.95485 0
M  V30 4404 C 425.872 1.51191 -1.47324 0
M  V30 4405 O 425.22 2.17507 -0.700202 0
M  V30 4406 C 425.43 -0.0511206 -3.48963 0
M  V30 4407 C 426.778 0.107632 -4.24464 0
M  V30 4408 O 427.802 0.0226248 -3.56193 0
M  V30 4409 O 426.661 0.285972 -5.45751 0
M  V30 4410 H 423.755 0.0787365 -0.823243 0
M  V30 4411 H 426.301 -0.595662 -1.58902 0
M  V30 4412 H 425.073 -1.05747 -3.7674 0
M  V30 4413 H 424.696 0.650525 -3.92242 0
M  V30 4414 N 425.693 1.55336 -0.266172 0
M  V30 4415 C 426.623 2.25146 0.618981 0
M  V30 4416 C 427.604 1.23845 1.16604 0
M  V30 4417 O 428.789 1.52544 1.20183 0
M  V30 4418 C 425.919 2.96572 1.80728 0
M  V30 4419 C 424.873 4.04726 1.39215 0
M  V30 4420 C 424.199 4.63678 2.66283 0
M  V30 4421 C 425.499 5.19407 0.548942 0
M  V30 4422 H 427.193 2.99377 0.0368116 0
M  V30 4423 H 424.739 1.43991 0.0162651 0
M  V30 4424 H 426.692 3.44116 2.43232 0
M  V30 4425 H 425.416 2.19861 2.41514 0
M  V30 4426 H 424.075 3.57979 0.790351 0
M  V30 4427 H 423.723 3.83646 3.25308 0
M  V30 4428 H 423.423 5.367 2.39222 0
M  V30 4429 H 424.947 5.13967 3.29651 0
M  V30 4430 H 426.361 5.63059 1.07876 0
M  V30 4431 H 424.758 5.98936 0.373593 0
M  V30 4432 H 425.828 4.8295 -0.434394 0
M  V30 4433 N 427.171 -0.0066808 1.57599 0
M  V30 4434 C 428.448 -0.729586 1.81484 0
M  V30 4435 C 428.828 -1.92359 0.869558 0
M  V30 4436 O 428.176 -2.28348 -0.0832533 0
M  V30 4437 C 428.386 -1.1416 3.29801 0
M  V30 4438 C 429.734 -1.54823 3.95367 0
M  V30 4439 O 430.758 -1.23558 3.34084 0
M  V30 4440 O 429.617 -2.12937 5.03309 0
M  V30 4441 H 426.711 -0.354674 0.747085 0
M  V30 4442 H 429.257 0.0182609 1.6969 0
M  V30 4443 H 428.029 -0.290231 3.90222 0
M  V30 4444 H 427.652 -1.94876 3.46568 0
M  V30 4445 N 428.649 -1.55105 -0.279332 0
M  V30 4446 C 430.06 -1.66186 -0.850832 0
M  V30 4447 C 430.411 -0.584707 -1.87285 0
M  V30 4448 O 429.536 0.274919 -2.14647 0
M  V30 4449 C 430.131 -3.01264 -1.55001 0
M  V30 4450 C 428.69 -3.14394 -2.06963 0
M  V30 4451 C 427.837 -2.61959 -0.909536 0
M  V30 4452 H 430.788 -1.58602 -0.0558235 0
M  V30 4453 H 430.809 -2.93899 -2.41669 0
M  V30 4454 H 430.321 -3.7964 -0.805931 0
M  V30 4455 H 428.422 -2.4078 -2.84352 0
M  V30 4456 H 428.535 -4.20867 -2.28928 0
M  V30 4457 H 426.899 -2.18957 -1.30116 0
M  V30 4458 H 427.682 -3.42833 -0.179062 0
M  V30 4459 N 430.127 0.543554 -1.4793 0
M  V30 4460 C 431.037 1.67657 -1.64098 0
M  V30 4461 C 432.053 1.65934 -0.523622 0
M  V30 4462 O 433.229 1.85133 -0.792943 0
M  V30 4463 C 430.294 3.04146 -1.66421 0
M  V30 4464 C 429.355 3.16831 -2.89684 0
M  V30 4465 C 428.588 4.46809 -2.91886 0
M  V30 4466 O 428.811 5.33095 -2.02895 0
M  V30 4467 O 427.745 4.63573 -3.83906 0
M  V30 4468 H 431.571 1.56957 -2.59997 0
M  V30 4469 H 429.156 0.715116 -1.31173 0
M  V30 4470 H 431.038 3.85346 -1.70548 0
M  V30 4471 H 429.713 3.152 -0.736923 0
M  V30 4472 H 428.62 2.34977 -2.91095 0
M  V30 4473 H 429.953 3.10687 -3.81752 0
M  V30 4474 N 431.605 1.3629 0.791371 0
M  V30 4475 C 432.833 1.33562 1.58016 0
M  V30 4476 C 433.248 -0.0835616 1.88615 0
M  V30 4477 O 432.605 -1.0399 1.49974 0
M  V30 4478 C 432.656 2.15517 2.90232 0
M  V30 4479 O 432.377 3.51902 2.60953 0
M  V30 4480 C 433.878 2.20546 3.84544 0
M  V30 4481 H 431.098 0.458226 0.490173 0
M  V30 4482 H 433.642 1.79361 0.982345 0
M  V30 4483 H 431.797 1.73278 3.46487 0
M  V30 4484 H 432.211 3.94644 3.4548 0
M  V30 4485 H 433.685 2.82252 4.74382 0
M  V30 4486 H 434.162 1.20838 4.2225 0
M  V30 4487 H 434.768 2.63013 3.34222 0
M  V30 4488 N 433.083 -1.0153 1.20538 0
M  V30 4489 C 434.499 -1.27461 0.96051 0
M  V30 4490 C 434.699 -1.98273 -0.359193 0
M  V30 4491 O 433.755 -2.27886 -1.0874 0
M  V30 4492 C 435.068 -2.10837 2.14402 0
M  V30 4493 C 436.616 -2.24099 2.18515 0
M  V30 4494 C 437.091 -3.10852 3.36355 0
M  V30 4495 N 438.582 -3.18441 3.36377 0
M  V30 4496 C 439.317 -3.85795 4.24205 0
M  V30 4497 N 438.813 -4.55264 5.22213 0
M  V30 4498 N 440.606 -3.82331 4.12043 0
M  V30 4499 H 432.757 -0.539907 2.05423 0
M  V30 4500 H 435.02 -0.30092 0.898972 0
M  V30 4501 H 434.726 -1.66144 3.09983 0
M  V30 4502 H 434.6 -3.11576 2.12604 0
M  V30 4503 H 436.987 -2.68016 1.23497 0
M  V30 4504 H 437.068 -1.22865 2.24361 0
M  V30 4505 H 436.712 -2.6764 4.31661 0
M  V30 4506 H 436.642 -4.12177 3.27746 0
M  V30 4507 H 439.133 -2.68978 2.65442 0
M  V30 4508 H 439.446 -5.04331 5.85551 0
M  V30 4509 H 437.791 -4.54085 5.26148 0
M  V30 4510 H 440.982 -3.27207 3.34743 0
M  V30 4511 H 441.155 -4.34547 4.807 0
M  V30 4512 N 434.561 -1.01147 -1.20859 0
M  V30 4513 C 435.786 -0.716698 -1.94623 0
M  V30 4514 C 436.211 0.715415 -1.73964 0
M  V30 4515 O 435.569 1.49157 -1.03062 0
M  V30 4516 C 435.617 -1.0513 -3.44935 0
M  V30 4517 O 434.721 -0.160131 -4.12089 0
M  V30 4518 H 434.062 -0.266404 -0.608214 0
M  V30 4519 H 436.592 -1.35346 -1.53436 0
M  V30 4520 H 436.602 -1.00086 -3.95533 0
M  V30 4521 H 435.277 -2.09475 -3.59295 0
M  V30 4522 H 433.854 -0.267657 -3.71938 0
M  V30 4523 N 436.039 1.36541 -0.78704 0
M  V30 4524 C 437.45 1.81873 -0.421807 0
M  V30 4525 C 437.801 1.65487 1.05397 0
M  V30 4526 O 436.926 1.17448 1.81755 0
M  V30 4527 C 437.521 3.30192 -0.758841 0
M  V30 4528 C 436.08 3.73743 -0.446468 0
M  V30 4529 C 435.227 2.58844 -0.994728 0
M  V30 4530 H 438.178 1.24796 -0.98039 0
M  V30 4531 H 438.199 3.80468 -0.0490648 0
M  V30 4532 H 437.711 3.42087 -1.83299 0
M  V30 4533 H 435.812 3.6741 0.619739 0
M  V30 4534 H 435.925 4.69272 -0.965415 0
M  V30 4535 H 434.289 2.51245 -0.418087 0
M  V30 4536 H 435.072 2.73525 -2.07458 0
M  V30 4537 N 437.518 0.538854 1.48102 0
M  V30 4538 C 438.929 0.100679 1.86428 0
M  V30 4539 C 439.28 -1.32447 1.44749 0
M  V30 4540 O 438.405 -1.99339 0.842199 0
M  V30 4541 C 439 0.175933 3.38343 0
M  V30 4542 C 437.559 -0.207098 3.7583 0
M  V30 4543 C 436.706 0.531741 2.72154 0
M  V30 4544 H 439.657 0.749614 1.3988 0
M  V30 4545 H 439.678 -0.610144 3.75576 0
M  V30 4546 H 439.19 1.21328 3.68648 0
M  V30 4547 H 437.291 -1.24626 3.5114 0
M  V30 4548 H 437.404 0.138687 4.78899 0
M  V30 4549 H 435.768 -0.0230462 2.5469 0
M  V30 4550 H 436.551 1.56989 3.05302 0
M  V30 4551 N 438.996 -1.55193 0.274407 0
M  V30 4552 C 439.926 -2.25471 -0.607032 0
M  V30 4553 C 440.907 -1.24461 -1.15946 0
M  V30 4554 O 442.092 -1.53179 -1.19373 0
M  V30 4555 C 439.222 -2.97526 -1.79153 0
M  V30 4556 C 438.176 -4.05459 -1.37067 0
M  V30 4557 C 437.502 -4.65084 -2.6382 0
M  V30 4558 C 438.802 -5.19691 -0.521389 0
M  V30 4559 H 440.496 -2.99393 -0.0209343 0
M  V30 4560 H 438.042 -1.43997 -0.00862866 0
M  V30 4561 H 439.995 -3.45402 -2.41404 0
M  V30 4562 H 438.719 -2.21138 -2.40344 0
M  V30 4563 H 437.378 -3.58393 -0.771355 0
M  V30 4564 H 437.026 -3.85365 -3.23268 0
M  V30 4565 H 436.726 -5.37961 -2.36372 0
M  V30 4566 H 438.25 -5.15708 -3.26921 0
M  V30 4567 H 439.664 -5.63623 -1.04889 0
M  V30 4568 H 438.061 -5.99126 -0.341825 0
M  V30 4569 H 439.131 -4.82713 0.46 0
M  V30 4570 N 440.474 -0.00167713 -1.576 0
M  V30 4571 C 441.437 0.974046 -2.07473 0
M  V30 4572 C 442.437 1.27143 -0.984444 0
M  V30 4573 O 443.627 1.21633 -1.24703 0
M  V30 4574 C 440.759 2.29849 -2.51759 0
M  V30 4575 H 441.952 0.54262 -2.9495 0
M  V30 4576 H 439.505 0.245829 -1.54355 0
M  V30 4577 H 440.24 2.77677 -1.67529 0
M  V30 4578 H 440.025 2.09584 -3.31386 0
M  V30 4579 H 441.515 2.9984 -2.90664 0
M  V30 4580 N 441.952 1.55251 0.271103 0
M  V30 4581 C 443.198 1.76207 1.00394 0
M  V30 4582 C 443.531 0.562604 1.85872 0
M  V30 4583 O 442.806 -0.439785 1.89463 0
M  V30 4584 C 443.089 3.06828 1.8849 0
M  V30 4585 C 442.942 4.37134 1.05992 0
M  V30 4586 C 444.261 3.33503 2.87165 0
M  V30 4587 H 441.38 0.641086 0.363562 0
M  V30 4588 H 444.022 1.87982 0.276189 0
M  V30 4589 H 442.172 2.96921 2.5054 0
M  V30 4590 H 443.844 4.59001 0.459978 0
M  V30 4591 H 442.087 4.32275 0.363443 0
M  V30 4592 H 442.758 5.2486 1.70955 0
M  V30 4593 H 445.234 3.43215 2.3525 0
M  V30 4594 H 444.11 4.2616 3.45946 0
M  V30 4595 H 444.371 2.53235 3.62387 0
M  V30 4596 N 443.43 -0.535701 1.48216 0
M  V30 4597 C 444.36 -1.65014 1.65204 0
M  V30 4598 C 445.341 -1.62554 0.501011 0
M  V30 4599 O 446.526 -1.7984 0.732886 0
M  V30 4600 C 443.656 -3.03616 1.68626 0
M  V30 4601 C 442.61 -3.20932 2.83172 0
M  V30 4602 C 441.936 -4.60537 2.71679 0
M  V30 4603 C 443.236 -3.04249 4.24535 0
M  V30 4604 H 444.93 -1.51053 2.58502 0
M  V30 4605 H 442.476 -0.725262 1.24402 0
M  V30 4606 H 444.429 -3.81446 1.79099 0
M  V30 4607 H 443.153 -3.18587 0.719026 0
M  V30 4608 H 441.812 -2.45517 2.72244 0
M  V30 4609 H 441.46 -4.72336 1.72937 0
M  V30 4610 H 441.16 -4.73069 3.48538 0
M  V30 4611 H 442.684 -5.40475 2.84112 0
M  V30 4612 H 444.098 -3.71877 4.36326 0
M  V30 4613 H 442.495 -3.28278 5.02348 0
M  V30 4614 H 443.565 -2.00739 4.41397 0
M  V30 4615 N 444.908 -1.36708 -0.784132 0
M  V30 4616 C 446.185 -1.21776 -1.53069 0
M  V30 4617 C 446.565 0.193876 -2.10208 0
M  V30 4618 O 445.913 1.20012 -1.94446 0
M  V30 4619 C 446.123 -2.30395 -2.62143 0
M  V30 4620 C 447.471 -2.67325 -3.29882 0
M  V30 4621 O 448.495 -2.29478 -2.7243 0
M  V30 4622 O 447.354 -3.32485 -4.33724 0
M  V30 4623 H 444.448 -0.474459 -0.677361 0
M  V30 4624 H 446.994 -1.48454 -0.82216 0
M  V30 4625 H 445.766 -3.2498 -2.17953 0
M  V30 4626 H 445.389 -2.05112 -3.40609 0
M  V30 4627 N 446.386 1.0089 -1.21074 0
M  V30 4628 C 447.633 1.74607 -1.0256 0
M  V30 4629 C 447.961 1.89426 0.44136 0
M  V30 4630 O 447.216 1.42266 1.34384 0
M  V30 4631 C 447.515 3.16335 -1.66334 0
M  V30 4632 C 447.181 3.21474 -3.16173 0
M  V30 4633 C 445.843 3.22583 -3.57062 0
M  V30 4634 C 448.195 3.19025 -4.12156 0
M  V30 4635 C 445.523 3.18925 -4.92446 0
M  V30 4636 C 447.875 3.16909 -5.47496 0
M  V30 4637 C 446.539 3.16326 -5.87787 0
M  V30 4638 H 445.809 0.638933 -0.375294 0
M  V30 4639 H 448.456 1.18274 -1.50611 0
M  V30 4640 H 446.761 3.75876 -1.10566 0
M  V30 4641 H 448.458 3.72083 -1.49516 0
M  V30 4642 H 445.048 3.2135 -2.83605 0
M  V30 4643 H 449.232 3.17332 -3.81595 0
M  V30 4644 H 444.488 3.16809 -5.22917 0
M  V30 4645 H 448.662 3.13968 -6.21609 0
M  V30 4646 H 446.289 3.13246 -6.92662 0
M  V30 4647 N 447.864 1.01787 1.20321 0
M  V30 4648 C 448.794 0.609625 2.25401 0
M  V30 4649 C 449.775 -0.375951 1.65893 0
M  V30 4650 O 450.96 -0.261101 1.92437 0
M  V30 4651 C 448.09 -0.0515995 3.47262 0
M  V30 4652 C 447.044 0.855095 4.19371 0
M  V30 4653 C 446.37 0.0595757 5.34667 0
M  V30 4654 C 447.67 2.16374 4.75373 0
M  V30 4655 H 449.364 1.48803 2.59804 0
M  V30 4656 H 446.91 0.716934 1.24884 0
M  V30 4657 H 448.863 -0.348764 4.19954 0
M  V30 4658 H 447.587 -0.964726 3.12027 0
M  V30 4659 H 446.246 1.13628 3.48546 0
M  V30 4660 H 445.894 -0.85524 4.95676 0
M  V30 4661 H 445.594 0.663406 5.83843 0
M  V30 4662 H 447.118 -0.231105 6.10162 0
M  V30 4663 H 448.532 1.92885 5.39878 0
M  V30 4664 H 446.929 2.71853 5.34991 0
M  V30 4665 H 447.999 2.82589 3.94045 0
M  V30 4666 N 449.342 -1.36122 0.79427 0
M  V30 4667 C 450.59 -1.98718 0.368177 0
M  V30 4668 C 450.911 -1.63345 -1.06506 0
M  V30 4669 O 450.181 -0.909825 -1.73491 0
M  V30 4670 H 448.761 -0.735038 0.133146 0
M  V30 4671 H 451.423 -1.66239 1.01739 0
M  V30 4672 H 450.519 -3.08633 0.463923 0
M  V30 4673 N 450.82 -0.546701 -1.47814 0
M  V30 4674 C 452.097 0.0464413 -1.95545 0
M  V30 4675 C 452.477 1.4962 -1.48919 0
M  V30 4676 O 451.825 2.16752 -0.723232 0
M  V30 4677 C 452.035 -0.0881298 -3.48889 0
M  V30 4678 C 453.383 0.0626059 -4.24554 0
M  V30 4679 O 454.407 -0.0151555 -3.56197 0
M  V30 4680 O 453.266 0.228071 -5.46024 0
M  V30 4681 H 450.36 0.0700004 -0.824032 0
M  V30 4682 H 452.906 -0.612482 -1.58262 0
M  V30 4683 H 451.678 -1.09737 -3.75597 0
M  V30 4684 H 451.301 0.608886 -3.9291 0
M  V30 4685 N 452.299 1.55045 -0.282633 0
M  V30 4686 C 453.576 1.9179 0.384166 0
M  V30 4687 C 453.956 1.20778 1.73136 0
M  V30 4688 O 453.304 0.33719 2.25998 0
M  V30 4689 C 453.514 3.45149 0.517014 0
M  V30 4690 C 454.862 4.17064 0.796427 0
M  V30 4691 O 455.886 3.51084 0.601535 0
M  V30 4692 O 454.745 5.33837 1.16962 0
M  V30 4693 H 451.839 0.799483 0.211558 0
M  V30 4694 H 454.385 1.66474 -0.32934 0
M  V30 4695 H 453.157 3.88922 -0.430772 0
M  V30 4696 H 452.78 3.76443 1.2797 0
M  V30 4697 N 453.777 0.010035 1.57597 0
M  V30 4698 C 455.023 -0.668011 1.92118 0
M  V30 4699 C 455.378 -1.70821 0.885328 0
M  V30 4700 O 454.671 -1.91333 -0.101187 0
M  V30 4701 C 454.865 -1.34434 3.31153 0
M  V30 4702 C 454.694 -0.371176 4.48166 0
M  V30 4703 C 453.464 0.0220686 5.05295 0
M  V30 4704 C 455.662 0.366731 5.12991 0
M  V30 4705 N 453.644 0.9924 6.05826 0
M  V30 4706 C 455.015 1.19142 6.08445 0
M  V30 4707 C 457.07 0.429489 4.96044 0
M  V30 4708 C 455.773 2.07317 6.88776 0
M  V30 4709 C 457.799 1.2985 5.76969 0
M  V30 4710 C 457.161 2.11101 6.72023 0
M  V30 4711 H 453.26 -0.217337 0.751192 0
M  V30 4712 H 455.844 0.0727375 1.94564 0
M  V30 4713 H 454.015 -2.05533 3.29561 0
M  V30 4714 H 455.747 -1.97789 3.53075 0
M  V30 4715 H 452.502 -0.348409 4.72317 0
M  V30 4716 H 452.926 1.47324 6.60776 0
M  V30 4717 H 457.568 -0.18442 4.22398 0
M  V30 4718 H 455.286 2.69771 7.61741 0
M  V30 4719 H 458.872 1.3511 5.65894 0
M  V30 4720 H 457.752 2.77257 7.33552 0
M  V30 4721 N 455.255 -1.55392 -0.262866 0
M  V30 4722 C 456.503 -1.76127 -0.991147 0
M  V30 4723 C 456.824 -0.571083 -1.8645 0
M  V30 4724 O 456.094 0.413698 -1.91482 0
M  V30 4725 H 454.674 -0.649528 -0.368948 0
M  V30 4726 H 457.336 -1.9281 -0.284655 0
M  V30 4727 H 456.432 -2.6663 -1.62219 0
M  V30 4728 N 456.733 0.527833 -1.48498 0
M  V30 4729 C 457.663 1.64136 -1.66077 0
M  V30 4730 C 458.644 1.62286 -0.509625 0
M  V30 4731 O 459.829 1.79449 -0.742413 0
M  V30 4732 C 456.959 3.02717 -1.70234 0
M  V30 4733 C 455.913 3.19426 -2.8487 0
M  V30 4734 C 455.239 4.5909 -2.74118 0
M  V30 4735 C 456.539 3.01993 -4.26142 0
M  V30 4736 H 458.233 1.4968 -2.593 0
M  V30 4737 H 455.779 0.718654 -1.24785 0
M  V30 4738 H 457.732 3.80491 -1.8112 0
M  V30 4739 H 456.456 3.18201 -0.735911 0
M  V30 4740 H 455.115 2.4407 -2.73542 0
M  V30 4741 H 454.763 4.71413 -1.7544 0
M  V30 4742 H 454.463 4.71214 -3.51042 0
M  V30 4743 H 455.987 5.3896 -2.86974 0
M  V30 4744 H 457.401 3.69558 -4.38292 0
M  V30 4745 H 455.798 3.2561 -5.04082 0
M  V30 4746 H 456.868 1.98396 -4.42456 0
M  V30 4747 N 458.211 1.37122 0.776871 0
M  V30 4748 C 459.143 1.28342 1.89897 0
M  V30 4749 C 460.156 0.200277 1.61563 0
M  V30 4750 O 461.345 0.456012 1.72577 0
M  V30 4751 C 458.445 0.960427 3.25006 0
M  V30 4752 C 457.618 2.148 3.81025 0
M  V30 4753 C 456.677 1.79608 4.94598 0
M  V30 4754 O 455.703 2.51845 5.10454 0
M  V30 4755 N 456.905 0.737171 5.758 0
M  V30 4756 H 459.67 2.25027 1.97947 0
M  V30 4757 H 457.231 1.3068 0.955739 0
M  V30 4758 H 459.223 0.705942 3.98495 0
M  V30 4759 H 457.793 0.0823066 3.12492 0
M  V30 4760 H 457.013 2.56454 2.99374 0
M  V30 4761 H 458.301 2.9411 4.15183 0
M  V30 4762 H 457.699 0.137637 5.65533 0
M  V30 4763 H 456.256 0.542534 6.49538 0
M  V30 4764 N 459.689 -1.00246 1.21608 0
M  V30 4765 C 460.937 -1.73717 1.0328 0
M  V30 4766 C 461.258 -1.90102 -0.434318 0
M  V30 4767 O 460.528 -1.45376 -1.31311 0
M  V30 4768 H 459.108 -0.643613 0.379172 0
M  V30 4769 H 461.77 -1.20787 1.52959 0
M  V30 4770 H 460.866 -2.73535 1.50283 0
M  V30 4771 N 461.167 -1.02423 -1.1978 0
M  V30 4772 C 462.115 -0.594474 -2.24875 0
M  V30 4773 C 463.109 0.370598 -1.65296 0
M  V30 4774 O 464.315 0.239684 -1.78397 0
M  V30 4775 H 460.69 -0.173961 -0.731602 0
M  V30 4776 H 462.661 -1.4916 -2.58445 0
M  V30 4777 C 461.41 0.0436512 -3.47673 0
M  V30 4778 H 460.733 -0.689963 -3.93801 0
M  V30 4779 H 462.173 0.307362 -4.22884 0
M  V30 4780 C 460.632 1.28881 -3.11274 0
M  V30 4781 O 461.162 2.38135 -3.23503 0
M  V30 4782 N 459.368 1.1758 -2.6575 0
M  V30 4783 H 458.915 0.286769 -2.55999 0
M  V30 4784 H 458.873 2.00988 -2.41767 0
M  V30 4785 N 462.645 1.35699 -0.801477 0
M  V30 4786 C 464.061 1.52065 -0.484596 0
M  V30 4787 C 464.261 1.75215 0.995084 0
M  V30 4788 O 463.317 1.79061 1.78026 0
M  V30 4789 C 464.63 2.69908 -1.32552 0
M  V30 4790 C 466.178 2.83784 -1.32044 0
M  V30 4791 C 466.653 4.04646 -2.14536 0
M  V30 4792 N 468.144 4.11814 -2.12046 0
M  V30 4793 C 468.879 5.04437 -2.72636 0
M  V30 4794 N 468.375 6.02426 -3.42133 0
M  V30 4795 N 470.168 4.97144 -2.62305 0
M  V30 4796 H 462.319 1.18928 -1.75983 0
M  V30 4797 H 464.582 0.581455 -0.748741 0
M  V30 4798 H 464.288 2.59363 -2.37537 0
M  V30 4799 H 464.162 3.64376 -0.975181 0
M  V30 4800 H 466.549 2.93783 -0.27846 0
M  V30 4801 H 466.63 1.90188 -1.71062 0
M  V30 4802 H 466.274 3.95407 -3.18772 0
M  V30 4803 H 466.204 4.97413 -1.72882 0
M  V30 4804 H 468.695 3.41664 -1.61476 0
M  V30 4805 H 469.008 6.69688 -3.85666 0
M  V30 4806 H 467.353 6.02615 -3.46237 0
M  V30 4807 H 470.544 4.19546 -2.07603 0
M  V30 4808 H 470.717 5.69138 -3.09815 0
M  V30 4809 N 464.123 0.554532 1.47522 0
M  V30 4810 C 465.033 -0.197865 2.33764 0
M  V30 4811 C 466.049 -0.914576 1.48025 0
M  V30 4812 O 467.225 -0.884067 1.80959 0
M  V30 4813 C 464.29 -1.21628 3.24665 0
M  V30 4814 C 463.351 -0.507283 4.26292 0
M  V30 4815 C 462.584 -1.47718 5.1285 0
M  V30 4816 O 462.807 -2.7118 5.01814 0
M  V30 4817 O 461.741 -1.00313 5.93482 0
M  V30 4818 H 465.567 0.50949 2.99396 0
M  V30 4819 H 463.152 0.315176 1.46038 0
M  V30 4820 H 465.034 -1.80421 3.80823 0
M  V30 4821 H 463.709 -1.9056 2.61665 0
M  V30 4822 H 462.616 0.121778 3.73902 0
M  V30 4823 H 463.949 0.140544 4.91999 0
M  V30 4824 N 465.601 -1.54893 0.290851 0
M  V30 4825 C 466.849 -1.99538 -0.320756 0
M  V30 4826 C 467.17 -1.18075 -1.55188 0
M  V30 4827 O 466.44 -0.274162 -1.93972 0
M  V30 4828 H 465.02 -0.737052 -0.121507 0
M  V30 4829 H 467.682 -1.90755 0.399832 0
M  V30 4830 H 466.778 -3.06282 -0.599802 0
M  V30 4831 N 467.08 -0.0183926 -1.57589 0
M  V30 4832 C 468.491 0.521927 -1.79256 0
M  V30 4833 C 468.842 1.72885 -0.927636 0
M  V30 4834 O 467.967 2.15978 -0.135091 0
M  V30 4835 C 468.562 0.953632 -3.25102 0
M  V30 4836 C 467.121 1.43913 -3.47801 0
M  V30 4837 C 466.268 0.398837 -2.74417 0
M  V30 4838 H 469.219 -0.244485 -1.56805 0
M  V30 4839 H 469.24 1.81863 -3.34224 0
M  V30 4840 H 468.752 0.0750123 -3.88028 0
M  V30 4841 H 466.853 2.33804 -2.90115 0
M  V30 4842 H 466.966 1.45391 -4.56507 0
M  V30 4843 H 465.33 0.864572 -2.39577 0
M  V30 4844 H 466.113 -0.471132 -3.40052 0
M  V30 4845 N 468.558 1.5553 0.254621 0
M  V30 4846 C 469.806 1.7665 0.981793 0
M  V30 4847 C 470.127 0.580963 1.86145 0
M  V30 4848 O 469.397 -0.403537 1.91699 0
M  V30 4849 H 467.977 0.651475 0.365498 0
M  V30 4850 H 470.639 1.92958 0.274426 0
M  V30 4851 H 469.735 2.67486 1.60802 0
M  V30 4852 N 470.036 -0.519951 1.48776 0
M  V30 4853 C 471.282 -1.27711 1.57536 0
M  V30 4854 C 471.615 -1.92547 0.252866 0
M  V30 4855 O 470.89 -1.7979 -0.742021 0
M  V30 4856 C 471.173 -2.35875 2.72094 0
M  V30 4857 C 471.026 -1.75664 4.1408 0
M  V30 4858 C 472.345 -3.37575 2.82367 0
M  V30 4859 H 469.464 -0.462971 0.573434 0
M  V30 4860 H 472.106 -0.578194 1.80989 0
M  V30 4861 H 470.256 -2.95488 2.52228 0
M  V30 4862 H 471.928 -1.20025 4.45412 0
M  V30 4863 H 470.171 -1.06154 4.20611 0
M  V30 4864 H 470.842 -2.54029 4.90075 0
M  V30 4865 H 473.318 -2.87929 3.00393 0
M  V30 4866 H 472.194 -4.1064 3.64233 0
M  V30 4867 H 472.455 -3.98743 1.90936 0
M  V30 4868 N 471.514 -1.37532 -0.769588 0
M  V30 4869 C 472.444 -1.36172 -1.89682 0
M  V30 4870 C 473.425 -0.23001 -1.68538 0
M  V30 4871 O 474.61 -0.43069 -1.89364 0
M  V30 4872 C 471.74 -1.1701 -3.26995 0
M  V30 4873 C 470.694 -2.27216 -3.62708 0
M  V30 4874 C 470.02 -1.93174 -4.98586 0
M  V30 4875 C 471.32 -3.6941 -3.69234 0
M  V30 4876 H 473.014 -2.30499 -1.91078 0
M  V30 4877 H 470.56 -1.10953 -0.917902 0
M  V30 4878 H 472.513 -1.14688 -4.05493 0
M  V30 4879 H 471.237 -0.191395 -3.26039 0
M  V30 4880 H 469.896 -2.28697 -2.86519 0
M  V30 4881 H 469.544 -0.938281 -4.94171 0
M  V30 4882 H 469.244 -2.66973 -5.23449 0
M  V30 4883 H 470.768 -1.92443 -5.79481 0
M  V30 4884 H 472.182 -3.70047 -4.37879 0
M  V30 4885 H 470.579 -4.4228 -4.05597 0
M  V30 4886 H 471.649 -4.0288 -2.69844 0
M  V30 4887 N 472.992 0.995999 -1.22138 0
M  V30 4888 C 474.24 1.73167 -1.042 0
M  V30 4889 C 474.561 1.90329 0.42423 0
M  V30 4890 O 473.831 1.4607 1.30539 0
M  V30 4891 H 472.411 0.641593 -0.38258 0
M  V30 4892 H 475.073 1.19974 -1.53598 0
M  V30 4893 H 474.169 2.72734 -1.51731 0
M  V30 4894 N 474.47 1.03057 1.19235 0
M  V30 4895 C 475.695 0.74757 1.93458 0
M  V30 4896 C 476.12 -0.687648 1.7508 0
M  V30 4897 O 475.478 -1.47499 1.05422 0
M  V30 4898 C 475.526 1.10604 3.43219 0
M  V30 4899 O 474.63 0.225671 4.11782 0
M  V30 4900 H 473.971 0.276047 0.603899 0
M  V30 4901 H 476.501 1.3777 1.51263 0
M  V30 4902 H 476.511 1.06366 3.93891 0
M  V30 4903 H 475.186 2.15165 3.55917 0
M  V30 4904 H 473.763 0.326795 3.71465 0
M  V30 4905 N 475.948 -1.35272 0.808662 0
M  V30 4906 C 476.911 -2.28082 0.226093 0
M  V30 4907 C 477.911 -1.49673 -0.587762 0
M  V30 4908 O 479.101 -1.69404 -0.405943 0
M  V30 4909 C 476.233 -3.33955 -0.684596 0
M  V30 4910 H 477.426 -2.81116 1.04469 0
M  V30 4911 H 474.979 -1.45162 0.579466 0
M  V30 4912 H 475.714 -2.86111 -1.5268 0
M  V30 4913 H 475.499 -3.91965 -0.102699 0
M  V30 4914 H 476.989 -4.03219 -1.08646 0
M  V30 4915 N 477.426 -0.562348 -1.47226 0
M  V30 4916 C 478.672 -0.0402761 -2.0276 0
M  V30 4917 C 479.005 1.30823 -1.43523 0
M  V30 4918 O 478.28 1.85249 -0.592705 0
M  V30 4919 C 478.563 0.047311 -3.60069 0
M  V30 4920 C 478.416 -1.32865 -4.29729 0
M  V30 4921 C 479.735 0.758182 -4.3352 0
M  V30 4922 H 476.854 -0.0161105 -0.736824 0
M  V30 4923 H 479.496 -0.725628 -1.75598 0
M  V30 4924 H 477.646 0.630986 -3.83342 0
M  V30 4925 H 479.318 -1.95593 -4.17781 0
M  V30 4926 H 477.561 -1.90195 -3.89882 0
M  V30 4927 H 478.232 -1.22004 -5.38349 0
M  V30 4928 H 480.708 0.262546 -4.15271 0
M  V30 4929 H 479.584 0.78844 -5.43208 0
M  V30 4930 H 479.845 1.81537 -4.03109 0
M  V30 4931 N 478.904 1.54736 -0.299062 0
M  V30 4932 C 480.129 2.04975 0.316254 0
M  V30 4933 C 480.554 1.17501 1.46885 0
M  V30 4934 O 479.912 0.178678 1.80417 0
M  V30 4935 C 479.96 3.52672 0.751997 0
M  V30 4936 O 479.064 3.68226 1.85697 0
M  V30 4937 H 478.405 0.661126 0.0617175 0
M  V30 4938 H 480.935 1.99805 -0.440341 0
M  V30 4939 H 480.945 3.94488 1.04133 0
M  V30 4940 H 479.62 4.158 -0.0911482 0
M  V30 4941 H 478.197 3.38316 1.56834 0
M  V30 4942 N 480.382 0.0267497 1.57577 0
M  V30 4943 C 481.612 -0.6617 1.95717 0
M  V30 4944 C 482.02 -1.66331 0.901706 0
M  V30 4945 O 481.363 -1.83273 -0.125241 0
M  V30 4946 C 481.425 -1.42649 3.29987 0
M  V30 4947 C 481.089 -0.583482 4.5326 0
M  V30 4948 C 482.086 0.140221 5.19711 0
M  V30 4949 C 479.771 -0.521581 4.99585 0
M  V30 4950 C 481.765 0.914523 6.30805 0
M  V30 4951 C 479.452 0.256428 6.10562 0
M  V30 4952 C 480.45 0.973189 6.76031 0
M  V30 4953 O 480.138 1.73845 7.84878 0
M  V30 4954 H 479.87 -0.187483 0.649481 0
M  V30 4955 H 482.424 0.0820847 2.05236 0
M  V30 4956 H 480.654 -2.21536 3.16952 0
M  V30 4957 H 482.343 -2.00282 3.53047 0
M  V30 4958 H 483.109 0.101716 4.84893 0
M  V30 4959 H 478.988 -1.06904 4.48433 0
M  V30 4960 H 482.532 1.4745 6.81839 0
M  V30 4961 H 478.429 0.296657 6.44818 0
M  V30 4962 H 479.197 1.65797 8.01532 0
M  V30 4963 N 481.861 -1.55662 -0.24637 0
M  V30 4964 C 482.771 -1.93495 -1.32653 0
M  V30 4965 C 483.787 -0.835462 -1.5263 0
M  V30 4966 O 484.963 -1.1369 -1.66242 0
M  V30 4967 C 482.028 -2.22242 -2.66101 0
M  V30 4968 C 481.089 -3.45625 -2.54641 0
M  V30 4969 C 480.322 -3.72991 -3.81724 0
M  V30 4970 O 480.545 -3.02421 -4.8363 0
M  V30 4971 O 479.479 -4.66515 -3.80325 0
M  V30 4972 H 483.305 -2.85498 -1.03559 0
M  V30 4973 H 480.89 -1.42551 -0.44717 0
M  V30 4974 H 482.772 -2.42037 -3.44958 0
M  V30 4975 H 481.447 -1.33417 -2.94926 0
M  V30 4976 H 480.354 -3.31136 -1.74067 0
M  V30 4977 H 481.687 -4.34754 -2.3076 0
M  V30 4978 N 483.339 0.512053 -1.4905 0
M  V30 4979 C 484.616 1.27337 -1.48474 0
M  V30 4980 C 484.996 2.1009 -0.206301 0
M  V30 4981 O 484.344 2.136 0.811609 0
M  V30 4982 C 484.554 2.13954 -2.75726 0
M  V30 4983 C 485.902 2.73507 -3.24776 0
M  V30 4984 O 486.926 2.24229 -2.76767 0
M  V30 4985 O 485.785 3.63186 -4.08361 0
M  V30 4986 H 482.879 0.575652 -0.593762 0
M  V30 4987 H 485.425 0.527232 -1.61302 0
M  V30 4988 H 484.197 1.52709 -3.60272 0
M  V30 4989 H 483.82 2.95782 -2.65705 0
M  V30 4990 N 484.817 1.37938 0.762283 0
M  V30 4991 C 486.233 1.18945 1.06415 0
M  V30 4992 C 486.433 0.0321163 2.01474 0
M  V30 4993 O 485.489 -0.624844 2.44647 0
M  V30 4994 C 486.802 2.51218 1.65258 0
M  V30 4995 C 488.35 2.57824 1.7747 0
M  V30 4996 C 488.825 3.90251 2.39725 0
M  V30 4997 N 490.316 3.91744 2.47166 0
M  V30 4998 C 491.051 4.90966 2.96209 0
M  V30 4999 N 490.547 6.00585 3.45354 0
M  V30 5000 N 492.34 4.78363 2.9517 0
M  V30 5001 H 484.491 2.11994 0.131301 0
M  V30 5002 H 486.754 0.940262 0.120879 0
M  V30 5003 H 486.46 3.36317 1.02878 0
M  V30 5004 H 486.334 2.68989 2.64433 0
M  V30 5005 H 488.721 1.73126 2.3898 0
M  V30 5006 H 488.802 2.43928 0.770241 0
M  V30 5007 H 488.446 4.75368 1.78852 0
M  V30 5008 H 488.376 4.01454 3.40796 0
M  V30 5009 H 490.867 3.12563 2.12397 0
M  V30 5010 H 491.18 6.72236 3.81207 0
M  V30 5011 H 489.525 6.04217 3.43434 0
M  V30 5012 H 492.716 3.91841 2.56082 0
M  V30 5013 H 492.889 5.55843 3.33081 0
M  V30 5014 N 486.295 -0.989507 1.22664 0
M  V30 5015 C 487.205 -2.11449 1.01619 0
M  V30 5016 C 488.221 -1.73962 -0.036545 0
M  V30 5017 O 489.397 -2.00788 0.156924 0
M  V30 5018 C 486.462 -3.41465 0.600204 0
M  V30 5019 C 485.523 -3.93033 1.72695 0
M  V30 5020 C 484.756 -5.16844 1.33071 0
M  V30 5021 O 484.979 -5.7001 0.210975 0
M  V30 5022 O 483.913 -5.6225 2.14845 0
M  V30 5023 H 487.739 -2.32088 1.9588 0
M  V30 5024 H 485.324 -1.09823 1.01289 0
M  V30 5025 H 487.206 -4.19695 0.37873 0
M  V30 5026 H 485.881 -3.22178 -0.313511 0
M  V30 5027 H 484.788 -3.15961 2.00298 0
M  V30 5028 H 486.121 -4.16758 2.61865 0
M  V30 5029 N 487.773 -1.03688 -1.18687 0
M  V30 5030 C 488.683 -0.634908 -2.25845 0
M  V30 5031 C 489.699 0.337065 -1.70704 0
M  V30 5032 O 490.875 0.192943 -2.00474 0
M  V30 5033 C 487.94 -0.000180054 -3.467 0
M  V30 5034 C 487.001 -1.02067 -4.1699 0
M  V30 5035 C 486.234 -0.41614 -5.32075 0
M  V30 5036 O 486.457 0.778712 -5.65059 0
M  V30 5037 O 485.391 -1.14296 -5.90948 0
M  V30 5038 H 489.217 -1.52757 -2.62486 0
M  V30 5039 H 486.802 -0.807533 -1.25695 0
M  V30 5040 H 488.684 0.353342 -4.19916 0
M  V30 5041 H 487.359 0.866367 -3.11891 0
M  V30 5042 H 486.266 -1.42592 -3.45859 0
M  V30 5043 H 487.599 -1.85786 -4.5579 0
M  V30 5044 N 489.251 1.34841 -0.815825 0
M  V30 5045 C 490.499 1.98107 -0.399744 0
M  V30 5046 C 490.82 1.65019 1.03894 0
M  V30 5047 O 490.09 0.937311 1.72021 0
M  V30 5048 H 488.67 0.732827 -0.144823 0
M  V30 5049 H 491.332 1.64599 -1.0437 0
M  V30 5050 H 490.428 3.07856 -0.512965 0
M  V30 5051 N 490.729 0.570148 1.46925 0
M  V30 5052 C 491.977 0.0508523 2.02036 0
M  V30 5053 C 492.298 -1.30885 1.44548 0
M  V30 5054 O 491.568 -1.85647 0.625453 0
M  V30 5055 H 490.148 0.0158088 0.746833 0
M  V30 5056 H 492.81 0.743086 1.80178 0
M  V30 5057 H 491.906 -0.027575 3.12088 0
M  V30 5058 N 492.207 -1.54576 0.307264 0
M  V30 5059 C 493.432 -2.05139 -0.305379 0
M  V30 5060 C 493.857 -1.18278 -1.46259 0
M  V30 5061 O 493.215 -0.188243 -1.8032 0
M  V30 5062 C 493.263 -3.53066 -0.733283 0
M  V30 5063 O 492.367 -3.69206 -1.83741 0
M  V30 5064 H 491.708 -0.661444 -0.0582105 0
M  V30 5065 H 494.238 -1.99569 0.450931 0
M  V30 5066 H 494.248 -3.95034 -1.02039 0
M  V30 5067 H 492.923 -4.15746 0.113198 0
M  V30 5068 H 491.5 -3.39143 -1.55037 0
M  V30 5069 N 493.685 -0.035106 -1.57561 0
M  V30 5070 C 494.91 0.655802 -1.96759 0
M  V30 5071 C 495.335 1.64523 -0.911809 0
M  V30 5072 O 494.693 1.80857 0.126673 0
M  V30 5073 C 494.741 1.33326 -3.35047 0
M  V30 5074 O 493.845 2.44866 -3.31835 0
M  V30 5075 H 493.186 0.171807 -0.641388 0
M  V30 5076 H 495.716 -0.0987369 -2.04362 0
M  V30 5077 H 495.726 1.68867 -3.71413 0
M  V30 5078 H 494.401 0.608033 -4.11431 0
M  V30 5079 H 492.978 2.11392 -3.07193 0
M  V30 5080 N 495.163 1.55791 0.238111 0
M  V30 5081 C 496.093 1.94068 1.29846 0
M  V30 5082 C 497.074 0.806726 1.49753 0
M  V30 5083 O 498.259 1.06772 1.62214 0
M  V30 5084 C 495.389 2.24302 2.65153 0
M  V30 5085 C 494.343 3.40032 2.59927 0
M  V30 5086 C 493.669 3.55829 3.99111 0
M  V30 5087 C 494.969 4.75476 2.16148 0
M  V30 5088 H 496.663 2.82887 0.980563 0
M  V30 5089 H 494.209 1.36105 0.470253 0
M  V30 5090 H 496.162 2.4967 3.39475 0
M  V30 5091 H 494.886 1.32318 2.98596 0
M  V30 5092 H 493.545 3.14687 1.88063 0
M  V30 5093 H 493.193 2.6125 4.29834 0
M  V30 5094 H 492.893 4.3366 3.96501 0
M  V30 5095 H 494.417 3.83528 4.7512 0
M  V30 5096 H 495.831 5.00158 2.80205 0
M  V30 5097 H 494.228 5.56472 2.24631 0
M  V30 5098 H 495.298 4.71946 1.11333 0
M  V30 5099 N 496.642 -0.504142 1.49319 0
M  V30 5100 C 497.552 -1.63248 1.68486 0
M  V30 5101 C 498.568 -1.64488 0.567432 0
M  V30 5102 O 499.744 -1.82966 0.841749 0
M  V30 5103 C 496.809 -2.99627 1.74426 0
M  V30 5104 C 495.87 -3.09039 2.97982 0
M  V30 5105 C 495.103 -4.38913 3.0363 0
M  V30 5106 O 495.326 -5.27528 2.16958 0
M  V30 5107 O 494.26 -4.53231 3.96062 0
M  V30 5108 H 498.086 -1.50008 2.64067 0
M  V30 5109 H 495.671 -0.680086 1.33023 0
M  V30 5110 H 497.553 -3.80689 1.80705 0
M  V30 5111 H 496.228 -3.13136 0.820233 0
M  V30 5112 H 495.135 -2.27177 2.97223 0
M  V30 5113 H 496.468 -3.00456 3.89855 0
M  V30 5114 N 498.12 -1.38341 -0.754957 0
M  V30 5115 C 499.03 -1.3769 -1.89944 0
M  V30 5116 C 500.046 -0.274194 -1.71826 0
M  V30 5117 O 501.222 -0.512391 -1.94773 0
M  V30 5118 C 498.287 -1.19938 -3.25293 0
M  V30 5119 C 497.348 -2.40001 -3.55946 0
M  V30 5120 C 496.581 -2.23087 -4.84838 0
M  V30 5121 O 496.804 -1.22386 -5.57116 0
M  V30 5122 O 495.738 -3.11646 -5.14937 0
M  V30 5123 H 499.564 -2.3412 -1.93446 0
M  V30 5124 H 497.149 -1.19246 -0.900044 0
M  V30 5125 H 499.031 -1.12093 -4.06218 0
M  V30 5126 H 497.706 -0.265919 -3.22606 0
M  V30 5127 H 496.613 -2.53421 -2.75188 0
M  V30 5128 H 497.946 -3.31973 -3.63394 0
M  V30 5129 N 499.598 0.982988 -1.23187 0
M  V30 5130 C 500.844 1.7273 -1.07405 0
M  V30 5131 C 501.199 1.885 0.385447 0
M  V30 5132 O 500.492 1.4243 1.28157 0
M  V30 5133 C 500.686 3.12736 -1.73006 0
M  V30 5134 C 500.515 3.10621 -3.25184 0
M  V30 5135 C 499.285 3.15957 -3.94334 0
M  V30 5136 C 501.483 2.93992 -4.21987 0
M  V30 5137 N 499.465 3.03701 -5.33516 0
M  V30 5138 C 500.836 2.8987 -5.48065 0
M  V30 5139 C 502.891 2.78457 -4.12754 0
M  V30 5140 C 501.594 2.71804 -6.65969 0
M  V30 5141 C 503.62 2.61754 -5.30319 0
M  V30 5142 C 502.982 2.58328 -6.55321 0
M  V30 5143 H 499.081 0.641279 -0.447533 0
M  V30 5144 H 501.665 1.16664 -1.55877 0
M  V30 5145 H 499.836 3.67026 -1.2707 0
M  V30 5146 H 501.568 3.75786 -1.50224 0
M  V30 5147 H 498.323 3.24034 -3.45397 0
M  V30 5148 H 498.747 3.00855 -6.06478 0
M  V30 5149 H 503.389 2.79898 -3.16886 0
M  V30 5150 H 501.107 2.69108 -7.61975 0
M  V30 5151 H 504.693 2.50702 -5.25014 0
M  V30 5152 H 503.573 2.45564 -7.4476 0
M  V30 5153 N 501.076 1.04316 1.18135 0
M  V30 5154 C 502.304 0.768117 1.92113 0
M  V30 5155 C 502.719 -0.675057 1.76319 0
M  V30 5156 O 502.076 -1.46038 1.09449 0
M  V30 5157 C 502.127 1.12808 3.43448 0
M  V30 5158 O 501.848 2.5146 3.58747 0
M  V30 5159 C 503.349 0.8779 4.3452 0
M  V30 5160 H 500.569 0.279937 0.609817 0
M  V30 5161 H 503.113 1.39149 1.49859 0
M  V30 5162 H 501.268 0.549623 3.83481 0
M  V30 5163 H 501.682 2.65313 4.52448 0
M  V30 5164 H 503.156 1.17959 5.39249 0
M  V30 5165 H 503.633 -0.187239 4.38801 0
M  V30 5166 H 504.239 1.43977 4.00188 0
M  V30 5167 N 502.554 -1.34406 0.822964 0
M  V30 5168 C 503.831 -1.92733 0.333641 0
M  V30 5169 C 504.211 -1.75107 -1.17901 0
M  V30 5170 O 503.559 -1.12983 -1.98613 0
M  V30 5171 C 503.769 -3.40557 0.763023 0
M  V30 5172 C 505.117 -4.17709 0.761879 0
M  V30 5173 O 506.141 -3.49141 0.705606 0
M  V30 5174 O 505 -5.40082 0.835109 0
M  V30 5175 H 502.094 -0.821964 0.0911249 0
M  V30 5176 H 504.64 -1.4338 0.907757 0
M  V30 5177 H 503.412 -3.47187 1.8049 0
M  V30 5178 H 503.035 -3.97259 0.164605 0
M  V30 5179 N 504.032 -0.577932 -1.46621 0
M  V30 5180 C 504.942 0.160651 -2.34049 0
M  V30 5181 C 505.958 0.890911 -1.49462 0
M  V30 5182 O 507.134 0.855166 -1.82343 0
M  V30 5183 C 504.199 1.16447 -3.26559 0
M  V30 5184 C 503.26 0.4394 -4.27045 0
M  V30 5185 C 502.493 1.3954 -5.15135 0
M  V30 5186 O 502.716 2.63162 -5.06065 0
M  V30 5187 O 501.65 0.908585 -5.95003 0
M  V30 5188 H 505.476 -0.557057 -2.98547 0
M  V30 5189 H 503.061 -0.338369 -1.45518 0
M  V30 5190 H 504.943 1.7434 -3.83645 0
M  V30 5191 H 503.618 1.86373 -2.64663 0
M  V30 5192 H 502.525 -0.181247 -3.73661 0
M  V30 5193 H 503.858 -0.218799 -4.91713 0
M  V30 5194 N 505.51 1.54411 -0.315457 0
M  V30 5195 C 506.758 2.00023 0.288971 0
M  V30 5196 C 507.079 1.20529 1.5329 0
M  V30 5197 O 506.349 0.304986 1.93511 0
M  V30 5198 H 504.929 0.738891 0.109766 0
M  V30 5199 H 507.591 1.90094 -0.430129 0
M  V30 5200 H 506.687 3.07198 0.550999 0
M  V30 5201 N 506.988 0.0434614 1.5754 0
M  V30 5202 C 508.265 -0.671479 1.83713 0
M  V30 5203 C 508.645 -1.89495 0.930315 0
M  V30 5204 O 507.993 -2.28498 -0.0105639 0
M  V30 5205 C 508.203 -1.0361 3.33266 0
M  V30 5206 C 509.551 -1.42167 4.00092 0
M  V30 5207 O 510.575 -1.12866 3.37846 0
M  V30 5208 O 509.434 -1.96817 5.09829 0
M  V30 5209 H 506.528 -0.330726 0.75799 0
M  V30 5210 H 509.074 0.0722373 1.69546 0
M  V30 5211 H 507.846 -0.165938 3.90948 0
M  V30 5212 H 507.469 -1.83751 3.52592 0
M  V30 5213 N 508.466 -1.55915 -0.229846 0
M  V30 5214 C 509.743 -1.6932 -0.979295 0
M  V30 5215 C 510.123 -0.588321 -2.02736 0
M  V30 5216 O 509.471 0.40586 -2.24867 0
M  V30 5217 C 509.681 -3.10305 -1.59724 0
M  V30 5218 C 511.029 -3.6945 -2.09264 0
M  V30 5219 O 512.053 -3.13214 -1.69633 0
M  V30 5220 O 510.912 -4.68072 -2.82082 0
M  V30 5221 H 508.006 -0.689314 -0.456919 0
M  V30 5222 H 510.552 -1.68238 -0.222283 0
M  V30 5223 H 509.324 -3.82177 -0.840039 0
M  V30 5224 H 508.947 -3.1547 -2.42001 0
M  V30 5225 N 509.944 0.496216 -1.49584 0
M  V30 5226 C 511.169 1.27865 -1.63295 0
M  V30 5227 C 511.594 1.85592 -0.306156 0
M  V30 5228 O 510.952 1.66092 0.726851 0
M  V30 5229 C 511 2.38128 -2.7079 0
M  V30 5230 O 510.104 3.42108 -2.30296 0
M  V30 5231 H 509.445 0.377279 -0.546403 0
M  V30 5232 H 511.975 0.593497 -1.95803 0
M  V30 5233 H 511.985 2.8382 -2.93104 0
M  V30 5234 H 510.66 1.95479 -3.67098 0
M  V30 5235 H 509.237 3.02301 -2.18331 0
M  V30 5236 N 511.423 1.38739 0.74761 0
M  V30 5237 C 512.37 1.36449 1.86146 0
M  V30 5238 C 513.34 0.226098 1.64554 0
M  V30 5239 O 514.525 0.41926 1.86137 0
M  V30 5240 C 511.665 1.2013 3.23516 0
M  V30 5241 C 510.778 2.43407 3.56899 0
M  V30 5242 C 509.913 2.19773 4.83605 0
M  V30 5243 C 508.952 3.3879 5.09792 0
M  V30 5244 N 508.089 3.14553 6.27695 0
M  V30 5245 H 512.929 2.3167 1.87438 0
M  V30 5246 H 510.466 1.15094 0.916063 0
M  V30 5247 H 512.424 1.08683 4.02795 0
M  V30 5248 H 511.054 0.285453 3.21535 0
M  V30 5249 H 510.106 2.65504 2.72418 0
M  V30 5250 H 511.418 3.32094 3.72176 0
M  V30 5251 H 510.572 2.05496 5.70838 0
M  V30 5252 H 509.311 1.28461 4.70478 0
M  V30 5253 H 508.316 3.53579 4.21025 0
M  V30 5254 H 509.541 4.30986 5.24812 0
M  V30 5255 H 507.487 2.25893 6.1588 0
M  V30 5256 H 507.404 3.96791 6.435 0
M  V30 5257 H 508.672 3.03943 7.17801 0
M  V30 5258 N 512.901 -0.976442 1.23707 0
M  V30 5259 C 514.126 -1.75875 1.09922 0
M  V30 5260 C 514.551 -1.84911 -0.34489 0
M  V30 5261 O 513.909 -1.31363 -1.24954 0
M  V30 5262 C 513.957 -3.16179 1.73388 0
M  V30 5263 O 513.061 -4.00124 0.99871 0
M  V30 5264 H 512.402 -0.540954 0.385052 0
M  V30 5265 H 514.932 -1.22546 1.6384 0
M  V30 5266 H 514.942 -3.66741 1.78788 0
M  V30 5267 H 513.617 -3.08917 2.78466 0
M  V30 5268 H 512.194 -3.58624 1.02193 0
M  V30 5269 N 514.379 -1.04941 -1.1758 0
M  V30 5270 C 515.627 -0.756492 -1.87408 0
M  V30 5271 C 515.948 0.718478 -1.81281 0
M  V30 5272 O 515.218 1.519 -1.23706 0
M  V30 5273 H 513.798 -0.276841 -0.693807 0
M  V30 5274 H 516.46 -1.32803 -1.42652 0
M  V30 5275 H 515.556 -1.06918 -2.93215 0
M  V30 5276 N 515.857 1.33968 -0.830081 0
M  V30 5277 C 517.105 1.97672 -0.420734 0
M  V30 5278 C 517.426 1.66111 1.02138 0
M  V30 5279 O 516.696 0.955503 1.71017 0
M  V30 5280 H 515.276 0.73125 -0.152587 0
M  V30 5281 H 517.938 1.63483 -1.0611 0
M  V30 5282 H 517.034 3.07294 -0.545588 0
M  V30 5283 N 517.335 0.585699 1.46312 0
M  V30 5284 C 518.751 0.247607 1.57668 0
M  V30 5285 C 518.951 -1.25007 1.58037 0
M  V30 5286 O 518.007 -2.03196 1.49893 0
M  V30 5287 C 519.32 0.899456 2.86933 0
M  V30 5288 C 520.868 0.873326 3.00569 0
M  V30 5289 C 521.343 1.50477 4.32574 0
M  V30 5290 N 522.834 1.46925 4.3928 0
M  V30 5291 C 523.569 1.92719 5.40044 0
M  V30 5292 N 523.065 2.46499 6.47464 0
M  V30 5293 N 524.858 1.83617 5.31264 0
M  V30 5294 H 517.009 1.55841 1.44317 0
M  V30 5295 H 519.272 0.651564 0.688599 0
M  V30 5296 H 518.978 1.95313 2.92482 0
M  V30 5297 H 518.852 0.409476 3.74971 0
M  V30 5298 H 521.239 -0.171736 2.946 0
M  V30 5299 H 521.32 1.40136 2.13999 0
M  V30 5300 H 520.964 2.54905 4.39302 0
M  V30 5301 H 520.894 0.951944 5.17924 0
M  V30 5302 H 523.385 1.07616 3.62253 0
M  V30 5303 H 523.698 2.79291 7.20567 0
M  V30 5304 H 522.043 2.50526 6.48276 0
M  V30 5305 H 525.234 1.41358 4.46246 0
M  V30 5306 H 525.407 2.19622 6.09648 0
M  V30 5307 N 518.813 -1.54241 0.323641 0
M  V30 5308 C 520.041 -2.04985 -0.280871 0
M  V30 5309 C 520.456 -1.19978 -1.45777 0
M  V30 5310 O 519.813 -0.230471 -1.81039 0
M  V30 5311 C 519.864 -3.54353 -0.715258 0
M  V30 5312 O 519.585 -4.36132 0.414817 0
M  V30 5313 C 521.086 -4.21189 -1.38257 0
M  V30 5314 H 518.306 -0.66851 -0.0577502 0
M  V30 5315 H 520.85 -1.99029 0.469852 0
M  V30 5316 H 519.005 -3.60596 -1.41596 0
M  V30 5317 H 519.419 -5.2445 0.0725227 0
M  V30 5318 H 520.893 -5.27154 -1.63745 0
M  V30 5319 H 521.37 -3.72307 -2.32989 0
M  V30 5320 H 521.976 -4.19085 -0.724447 0
M  V30 5321 N 520.291 -0.0518155 -1.57515 0
M  V30 5322 C 521.539 0.620595 -1.92336 0
M  V30 5323 C 521.86 1.71345 -0.930907 0
M  V30 5324 O 521.13 1.95885 0.0241341 0
M  V30 5325 H 519.71 0.232226 -0.709986 0
M  V30 5326 H 522.372 -0.104969 -1.94617 0
M  V30 5327 H 521.468 1.05879 -2.93592 0
M  V30 5328 N 521.769 1.56035 0.221574 0
M  V30 5329 C 522.997 1.8313 0.962864 0
M  V30 5330 C 523.412 0.630934 1.77946 0
M  V30 5331 O 522.769 -0.400519 1.78051 0
M  V30 5332 C 522.82 3.08742 1.88045 0
M  V30 5333 O 522.541 4.24147 1.09686 0
M  V30 5334 C 524.042 3.48824 2.73563 0
M  V30 5335 H 521.262 0.608775 0.282194 0
M  V30 5336 H 523.806 2.03124 0.23681 0
M  V30 5337 H 521.961 2.90723 2.56045 0
M  V30 5338 H 522.375 4.95505 1.71974 0
M  V30 5339 H 523.849 4.39752 3.3365 0
M  V30 5340 H 524.326 2.70575 3.45956 0
M  V30 5341 H 524.932 3.69282 2.10976 0
M  V30 5342 N 523.247 -0.488276 1.49845 0
M  V30 5343 C 524.524 -1.24959 1.50481 0
M  V30 5344 C 524.904 -2.09735 0.239698 0
M  V30 5345 O 524.252 -2.14865 -0.777524 0
M  V30 5346 C 524.462 -2.0954 2.79095 0
M  V30 5347 C 525.81 -2.68305 3.29086 0
M  V30 5348 O 526.834 -2.19797 2.80299 0
M  V30 5349 O 525.693 -3.56643 4.14087 0
M  V30 5350 H 522.787 -0.566133 0.602845 0
M  V30 5351 H 525.333 -0.501504 1.6212 0
M  V30 5352 H 524.105 -1.46958 3.62656 0
M  V30 5353 H 523.728 -2.91517 2.70377 0
M  V30 5354 N 524.725 -1.39134 -0.740242 0
M  V30 5355 C 525.973 -1.35803 -1.49673 0
M  V30 5356 C 526.294 0.0470897 -1.94943 0
M  V30 5357 O 525.564 0.997347 -1.68611 0
M  V30 5358 H 524.144 -0.499736 -0.555224 0
M  V30 5359 H 526.806 -1.73947 -0.879107 0
M  V30 5360 H 525.902 -2.0174 -2.38133 0
M  V30 5361 N 526.204 0.969867 -1.24223 0
M  V30 5362 C 527.452 1.70918 -1.0785 0
M  V30 5363 C 527.773 1.91186 0.383763 0
M  V30 5364 O 527.043 1.48806 1.27411 0
M  V30 5365 H 525.623 0.633334 -0.396103 0
M  V30 5366 H 528.285 1.16689 -1.56108 0
M  V30 5367 H 527.381 2.69455 -1.57482 0
M  V30 5368 N 527.682 1.05563 1.17022 0
M  V30 5369 C 528.645 0.664098 2.19368 0
M  V30 5370 C 529.645 -0.286358 1.5823 0
M  V30 5371 O 530.835 -0.069728 1.7406 0
M  V30 5372 C 527.967 -0.0239932 3.40892 0
M  V30 5373 H 529.16 1.57 2.55521 0
M  V30 5374 H 526.713 0.849964 1.31169 0
M  V30 5375 H 527.448 -0.942988 3.10287 0
M  V30 5376 H 527.233 0.659351 3.86516 0
M  V30 5377 H 528.723 -0.283909 4.16634 0
M  V30 5378 N 529.16 -1.33526 0.837174 0
M  V30 5379 C 530.571 -1.80182 0.489017 0
M  V30 5380 C 530.922 -1.69285 -0.991826 0
M  V30 5381 O 530.047 -1.24113 -1.77271 0
M  V30 5382 C 530.642 -3.27149 0.880866 0
M  V30 5383 C 529.201 -3.71828 0.584872 0
M  V30 5384 C 528.348 -2.54974 1.09011 0
M  V30 5385 H 531.299 -1.21071 1.02603 0
M  V30 5386 H 531.32 -3.80024 0.190239 0
M  V30 5387 H 530.832 -3.35048 1.95869 0
M  V30 5388 H 528.933 -3.69457 -0.48295 0
M  V30 5389 H 529.046 -4.65366 1.13892 0
M  V30 5390 H 527.41 -2.4952 0.511047 0
M  V30 5391 H 528.193 -2.65637 2.17467 0
M  V30 5392 O 530.677 -0.734023 -1.43855 0
M  V30 5393 H 531.368 -0.285275 -1.91588 0
M  V30 END ATOM
M  V30 BEGIN BOND
M  V30 END BOND
M  V30 END CTAB
M  END
$$$$
