drugbank_target|Q8IJT2 Conserved Plasmodium membrane protein (DB11638)
 OpenBabel12092121103D

  0  0  0     0  0            999 V3000
M  V30 BEGIN CTAB
M  V30 COUNTS 10990 11118 0 0 0
M  V30 BEGIN ATOM
M  V30 1 H -0.908 1.98254 -0.117106 0
M  V30 2 N 0 1.576 0 0
M  V30 3 C 0.933 2.03868 1.02534 0
M  V30 4 C 1.911 0.928543 1.3348 0
M  V30 5 O 3.095 1.19667 1.45644 0
M  V30 6 C 0.222 2.43627 2.35294 0
M  V30 7 C -0.732 3.65373 2.2001 0
M  V30 8 S 0.101 5.13292 1.52614 0
M  V30 9 C 1.257 5.56322 2.86805 0
M  V30 10 H 1.49 2.90518 0.631377 0
M  V30 11 H -0.977 1.52953 0.210867 0
M  V30 12 H 0.981 2.67203 3.11629 0
M  V30 13 H -0.358 1.57376 2.7183 0
M  V30 14 H -1.165 3.90944 3.18086 0
M  V30 15 H -1.563 3.418 1.51819 0
M  V30 16 H 0.729 5.58782 3.83104 0
M  V30 17 H 1.672 6.56266 2.65933 0
M  V30 18 H 2.08 4.83886 2.90714 0
M  V30 19 N 1.4781 -0.272755 1.55222 0
M  V30 20 C 2.7271 -1.00211 1.75045 0
M  V30 21 C 3.0401 -1.87441 0.559046 0
M  V30 22 O 4.2461 -2.63856 0.639698 0
M  V30 23 C 2.7021 -1.83165 3.09804 0
M  V30 24 C 2.3101 -1.008 4.36513 0
M  V30 25 C 4.0541 -2.55529 3.38977 0
M  V30 26 C 1.9611 -1.83194 5.62311 0
M  V30 27 H 0.8911 -0.377878 0.652476 0
M  V30 28 H 3.5421 -0.257776 1.8168 0
M  V30 29 H 1.9241 -2.61694 2.97207 0
M  V30 30 H 3.0981 -0.266855 4.60027 0
M  V30 31 H 1.4131 -0.398897 4.14485 0
M  V30 32 H 4.0101 -3.17578 4.30172 0
M  V30 33 H 4.3531 -3.25825 2.59121 0
M  V30 34 H 4.8861 -1.84029 3.52673 0
M  V30 35 H 1.6251 -1.17318 6.44916 0
M  V30 36 H 1.1451 -2.54905 5.4294 0
M  V30 37 H 2.8241 -2.40552 6.00619 0
M  V30 38 N 2.9562 -1.48159 -0.537278 0
M  V30 39 C 4.1962 -1.57397 -1.30405 0
M  V30 40 C 4.5602 -0.239202 -1.90504 0
M  V30 41 O 5.7612 -0.206528 -2.68005 0
M  V30 42 C 4.0322 -2.6754 -2.36974 0
M  V30 43 S 5.5912 -2.96496 -3.23475 0
M  V30 44 H 2.4092 -0.555577 -0.443684 0
M  V30 45 H 5.0112 -1.85644 -0.612912 0
M  V30 46 H 3.7152 -3.63092 -1.91291 0
M  V30 47 H 3.2462 -2.41172 -3.10805 0
M  V30 48 H 5.2612 -2.35234 -4.36897 0
M  V30 49 N 4.4343 0.785586 -1.36625 0
M  V30 50 C 5.6833 1.53883 -1.30396 0
M  V30 51 C 5.9963 1.95271 0.113452 0
M  V30 52 O 7.2023 2.69858 0.298142 0
M  V30 53 C 5.6583 2.77808 -2.28802 0
M  V30 54 C 5.2663 2.43574 -3.75999 0
M  V30 55 C 7.0103 3.55783 -2.31558 0
M  V30 56 C 4.9173 3.63919 -4.66173 0
M  V30 57 H 3.8473 0.577678 -0.484566 0
M  V30 58 H 6.4983 0.861705 -1.62009 0
M  V30 59 H 4.8803 3.47339 -1.90188 0
M  V30 60 H 6.0543 1.81916 -4.23371 0
M  V30 61 H 4.3693 1.78803 -3.76056 0
M  V30 62 H 6.9663 4.45205 -2.96137 0
M  V30 63 H 7.3093 3.94644 -1.3252 0
M  V30 64 H 7.8423 2.93235 -2.68809 0
M  V30 65 H 4.5813 3.3015 -5.66287 0
M  V30 66 H 4.1013 4.2473 -4.23515 0
M  V30 67 H 5.7803 4.30901 -4.82632 0
M  V30 68 N 5.9124 1.20967 1.01018 0
M  V30 69 C 6.8594 0.964281 2.09691 0
M  V30 70 C 7.8294 -0.107853 1.65749 0
M  V30 71 O 9.0144 0.0381987 1.90762 0
M  V30 72 C 6.1544 0.52943 3.41015 0
M  V30 73 C 5.2674 1.67043 3.98398 0
M  V30 74 C 4.4024 1.18525 5.17808 0
M  V30 75 C 3.4414 2.29892 5.67288 0
M  V30 76 N 2.5784 1.82546 6.77954 0
M  V30 77 H 7.4184 1.89463 2.30017 0
M  V30 78 H 4.9554 0.944289 1.1279 0
M  V30 79 H 6.9134 0.258588 4.16398 0
M  V30 80 H 5.5434 -0.363919 3.20742 0
M  V30 81 H 4.5954 2.05603 3.20049 0
M  V30 82 H 5.9074 2.50877 4.31117 0
M  V30 83 H 5.0614 0.870762 6.00419 0
M  V30 84 H 3.8004 0.316887 4.86669 0
M  V30 85 H 2.8054 2.6215 4.83278 0
M  V30 86 H 4.0304 3.17216 6.00459 0
M  V30 87 H 1.9764 0.980454 6.48632 0
M  V30 88 H 1.8934 2.59956 7.09901 0
M  V30 89 H 3.1614 1.54115 7.64113 0
M  V30 90 N 7.3905 -1.2043 1.01659 0
M  V30 91 C 8.6305 -1.91507 0.714456 0
M  V30 92 C 8.9945 -1.77073 -0.742237 0
M  V30 93 O 10.1955 -2.42631 -1.15688 0
M  V30 94 C 8.4665 -3.38795 1.13809 0
M  V30 95 S 10.0255 -4.28216 0.957925 0
M  V30 96 H 6.8435 -0.661571 0.260471 0
M  V30 97 H 9.4455 -1.45671 1.30384 0
M  V30 98 H 8.1495 -3.46822 2.19415 0
M  V30 99 H 7.6805 -3.89656 0.541474 0
M  V30 100 H 9.6955 -4.96007 -0.138531 0
M  V30 101 N 8.8686 -0.792821 -1.36206 0
M  V30 102 C 10.1166 -0.366062 -1.98757 0
M  V30 103 C 10.4376 1.0668 -1.63231 0
M  V30 104 O 9.7076 1.73587 -0.907978 0
M  V30 105 H 8.2876 -0.132364 -0.735179 0
M  V30 106 H 10.9496 -1.01562 -1.66347 0
M  V30 107 H 10.0456 -0.460638 -3.08682 0
M  V30 108 N 10.3467 1.47872 -0.545128 0
M  V30 109 C 11.5717 2.07391 -0.0190611 0
M  V30 110 C 11.9967 1.39688 1.25971 0
M  V30 111 O 11.3547 0.467816 1.7516 0
M  V30 112 C 11.4027 3.60188 0.172335 0
M  V30 113 O 10.5067 3.9339 1.23766 0
M  V30 114 H 9.8477 0.662411 -0.0459059 0
M  V30 115 H 12.3777 1.90066 -0.757365 0
M  V30 116 H 12.3877 4.06129 0.390305 0
M  V30 117 H 11.0627 4.08865 -0.761725 0
M  V30 118 H 9.6397 3.5921 1.00114 0
M  V30 119 N 11.8248 0.280983 1.55075 0
M  V30 120 C 13.0498 -0.340154 2.04592 0
M  V30 121 C 13.4748 -1.48246 1.15779 0
M  V30 122 O 12.8328 -1.80614 0.15761 0
M  V30 123 C 12.8808 -0.793104 3.5177 0
M  V30 124 O 11.9848 -1.89981 3.66034 0
M  V30 125 H 11.3258 -0.0694289 0.66036 0
M  V30 126 H 13.8558 0.416993 2.00306 0
M  V30 127 H 13.8658 -1.08729 3.93245 0
M  V30 128 H 12.5408 0.0426163 4.15878 0
M  V30 129 H 11.1178 -1.60771 3.36463 0
M  V30 130 N 13.3029 -1.57598 0.00835791 0
M  V30 131 C 14.2509 -2.10078 -0.998508 0
M  V30 132 C 15.2449 -1.02262 -1.35051 0
M  V30 133 O 16.4509 -1.20719 -1.33518 0
M  V30 134 H 12.8259 -0.670903 -0.339696 0
M  V30 135 H 14.7969 -2.93648 -0.530398 0
M  V30 136 C 13.5459 -2.62615 -2.27879 0
M  V30 137 H 12.8689 -3.45213 -2.01662 0
M  V30 138 H 14.3089 -3.03004 -2.96588 0
M  V30 139 C 12.7679 -1.54407 -2.99433 0
M  V30 140 O 13.2979 -0.931812 -3.90743 0
M  V30 141 N 11.5039 -1.2695 -2.61404 0
M  V30 142 H 11.0509 -1.76924 -1.87232 0
M  V30 143 H 11.0089 -0.547704 -3.09593 0
M  V30 144 N 14.781 0.264519 -1.55364 0
M  V30 145 C 16.006 1.01726 -1.80739 0
M  V30 146 C 16.431 1.78836 -0.583044 0
M  V30 147 O 15.789 1.75167 0.467566 0
M  V30 148 C 15.837 1.94482 -3.03659 0
M  V30 149 O 14.941 3.03386 -2.7934 0
M  V30 150 H 14.282 0.290395 -0.597132 0
M  V30 151 H 16.812 0.290854 -2.02522 0
M  V30 152 H 16.822 2.36278 -3.32621 0
M  V30 153 H 15.497 1.37772 -3.92418 0
M  V30 154 H 14.074 2.65844 -2.61498 0
M  V30 155 N 16.2591 1.48442 0.529413 0
M  V30 156 C 17.2071 1.63452 1.65487 0
M  V30 157 C 18.2011 0.500955 1.61823 0
M  V30 158 O 19.4071 0.679695 1.66674 0
M  V30 159 H 15.7821 0.514905 0.548066 0
M  V30 160 H 17.7531 2.57975 1.49971 0
M  V30 161 C 16.5021 1.69196 3.03756 0
M  V30 162 H 15.8251 2.55784 3.07269 0
M  V30 163 H 17.2651 1.83743 3.82119 0
M  V30 164 C 15.7241 0.430765 3.34135 0
M  V30 165 O 16.2541 -0.4561 3.99102 0
M  V30 166 N 14.4601 0.302293 2.89023 0
M  V30 167 H 14.0071 1.02496 2.36331 0
M  V30 168 H 13.9651 -0.540546 3.09718 0
M  V30 169 N 17.7372 -0.778329 1.37039 0
M  V30 170 C 18.6672 -1.90546 1.34962 0
M  V30 171 C 19.6482 -1.68681 0.219274 0
M  V30 172 O 20.8332 -1.89634 0.418624 0
M  V30 173 C 17.9632 -3.27734 1.14925 0
M  V30 174 C 16.9172 -3.64147 2.24902 0
M  V30 175 C 16.2432 -4.99806 1.89996 0
M  V30 176 C 17.5432 -3.71579 3.67051 0
M  V30 177 H 19.2372 -1.92541 2.29277 0
M  V30 178 H 16.7832 -0.924948 1.10366 0
M  V30 179 H 18.7362 -4.06215 1.12104 0
M  V30 180 H 17.4602 -3.26154 0.170631 0
M  V30 181 H 16.1192 -2.8797 2.26868 0
M  V30 182 H 15.7672 -4.94759 0.906796 0
M  V30 183 H 15.4672 -5.25139 2.63634 0
M  V30 184 H 16.9912 -5.80694 1.88749 0
M  V30 185 H 18.4052 -4.40227 3.67251 0
M  V30 186 H 16.8022 -4.08405 4.39688 0
M  V30 187 H 17.8722 -2.72404 4.01154 0
M  V30 188 N 19.2153 -1.21501 -1.00376 0
M  V30 189 C 20.4453 -1.05746 -1.77486 0
M  V30 190 C 20.8533 0.395655 -1.85017 0
M  V30 191 O 20.1963 1.28626 -1.31152 0
M  V30 192 C 20.2583 -1.58092 -3.22873 0
M  V30 193 C 19.9223 -3.06568 -3.38917 0
M  V30 194 C 20.9193 -4.04106 -3.271 0
M  V30 195 C 18.6043 -3.45799 -3.64319 0
M  V30 196 C 20.5983 -5.38862 -3.40451 0
M  V30 197 C 18.2853 -4.80707 -3.77311 0
M  V30 198 C 19.2833 -5.77047 -3.65384 0
M  V30 199 O 18.9713 -7.09507 -3.77961 0
M  V30 200 H 18.7033 -0.371778 -0.564586 0
M  V30 201 H 21.2573 -1.61319 -1.27143 0
M  V30 202 H 19.4873 -0.969163 -3.74358 0
M  V30 203 H 21.1763 -1.38162 -3.81662 0
M  V30 204 H 21.9423 -3.75141 -3.07399 0
M  V30 205 H 17.8213 -2.71344 -3.72684 0
M  V30 206 H 21.3653 -6.14041 -3.31058 0
M  V30 207 H 17.2623 -5.09357 -3.96517 0
M  V30 208 H 18.0303 -7.16935 -3.94901 0
M  V30 209 N 20.6934 1.19889 -1.02296 0
M  V30 210 C 21.9214 1.9339 -0.735399 0
M  V30 211 C 22.3364 1.75148 0.704887 0
M  V30 212 O 21.6934 1.06954 1.47875 0
M  V30 213 C 21.7444 3.45313 -1.06962 0
M  V30 214 O 21.4654 3.62964 -2.45334 0
M  V30 215 C 22.9664 4.35948 -0.804021 0
M  V30 216 H 20.1864 0.61448 -0.269546 0
M  V30 217 H 22.7304 1.522 -1.36585 0
M  V30 218 H 20.8854 3.84359 -0.484455 0
M  V30 219 H 21.2994 4.56886 -2.57595 0
M  V30 220 H 22.7734 5.41174 -1.0879 0
M  V30 221 H 23.2504 4.3842 0.261691 0
M  V30 222 H 23.8564 4.02574 -1.37164 0
M  V30 223 N 22.1715 0.800033 1.35784 0
M  V30 224 C 23.4175 0.377901 1.99248 0
M  V30 225 C 23.7505 -1.05052 1.63333 0
M  V30 226 O 23.0255 -1.72768 0.893385 0
M  V30 227 C 23.3085 0.553922 3.55814 0
M  V30 228 C 23.1615 2.0268 4.01548 0
M  V30 229 C 24.4805 -0.0244802 4.40093 0
M  V30 230 H 21.5995 0.138782 0.723815 0
M  V30 231 H 24.2415 1.00835 1.61035 0
M  V30 232 H 22.3915 0.0172398 3.88496 0
M  V30 233 H 24.0635 2.62536 3.79305 0
M  V30 234 H 22.3065 2.5256 3.52698 0
M  V30 235 H 22.9775 2.10087 5.10458 0
M  V30 236 H 25.4535 0.433775 4.13833 0
M  V30 237 H 24.3295 0.128637 5.48749 0
M  V30 238 H 24.5905 -1.11758 4.27741 0
M  V30 239 N 23.6496 -1.47581 0.552962 0
M  V30 240 C 24.8796 -2.06575 0.0320091 0
M  V30 241 C 25.2876 -1.4067 -1.26525 0
M  V30 242 O 24.6306 -0.495808 -1.76883 0
M  V30 243 C 24.6926 -3.58705 -0.238913 0
M  V30 244 C 24.3566 -4.46625 0.968272 0
M  V30 245 C 25.3536 -4.85 1.87274 0
M  V30 246 C 23.0386 -4.88201 1.18175 0
M  V30 247 C 25.0326 -5.63745 2.9744 0
M  V30 248 C 22.7196 -5.66712 2.28651 0
M  V30 249 C 23.7176 -6.04394 3.18114 0
M  V30 250 O 23.4056 -6.81324 4.26676 0
M  V30 251 H 23.1376 -0.674763 0.0408689 0
M  V30 252 H 25.6916 -1.90634 0.764719 0
M  V30 253 H 23.9216 -3.72844 -1.02588 0
M  V30 254 H 25.6106 -3.99735 -0.704731 0
M  V30 255 H 26.3766 -4.53482 1.71984 0
M  V30 256 H 22.2556 -4.58339 0.494593 0
M  V30 257 H 25.7996 -5.93077 3.67296 0
M  V30 258 H 21.6966 -5.97642 2.43915 0
M  V30 259 H 22.4646 -6.99712 4.24671 0
M  V30 260 N 25.1277 -0.289203 -1.54924 0
M  V30 261 C 26.0757 0.607966 -2.24514 0
M  V30 262 C 27.0697 1.14655 -1.24702 0
M  V30 263 O 28.2757 1.09856 -1.4259 0
M  V30 264 H 24.6507 0.21464 -0.720718 0
M  V30 265 H 26.6217 -0.00164182 -2.984 0
M  V30 266 C 25.3707 1.77406 -2.99036 0
M  V30 267 H 24.6937 1.36884 -3.75637 0
M  V30 268 H 26.1337 2.37814 -3.51028 0
M  V30 269 C 24.5927 2.67107 -2.05318 0
M  V30 270 O 25.1227 3.6787 -1.61353 0
M  V30 271 N 23.3287 2.34582 -1.71521 0
M  V30 272 H 22.8757 1.52688 -2.07471 0
M  V30 273 H 22.8337 2.94867 -1.0909 0
M  V30 274 N 26.6058 1.57591 -0.0167156 0
M  V30 275 C 27.5528 2.09462 0.969251 0
M  V30 276 C 28.5228 0.99381 1.33089 0
M  V30 277 O 29.7078 1.26726 1.42636 0
M  V30 278 C 26.8478 2.61622 2.25051 0
M  V30 279 C 25.9608 3.85666 1.94642 0
M  V30 280 C 25.0958 4.26266 3.16972 0
M  V30 281 C 24.1348 5.43101 2.82326 0
M  V30 282 N 23.2718 5.78915 3.97243 0
M  V30 283 H 28.1118 2.93428 0.519997 0
M  V30 284 H 25.6488 1.45044 0.245087 0
M  V30 285 H 27.6068 2.89949 2.99976 0
M  V30 286 H 26.2368 1.80505 2.67615 0
M  V30 287 H 25.2888 3.64145 1.10013 0
M  V30 288 H 26.6008 4.70678 1.65117 0
M  V30 289 H 25.7548 4.55963 4.00228 0
M  V30 290 H 24.4938 3.39996 3.49648 0
M  V30 291 H 23.4988 5.1311 1.97479 0
M  V30 292 H 24.7238 6.3106 2.50879 0
M  V30 293 H 22.6698 4.95602 4.29785 0
M  V30 294 H 22.5868 6.58539 3.71299 0
M  V30 295 H 23.8548 6.13212 4.81239 0
M  V30 296 N 28.0839 -0.256276 1.55502 0
M  V30 297 C 29.0319 -1.33694 1.90338 0
M  V30 298 C 30.0259 -1.50299 0.781441 0
M  V30 299 O 31.2319 -1.51885 0.965966 0
M  V30 300 H 27.6069 -0.447483 0.60437 0
M  V30 301 H 29.5779 -1.01574 2.8058 0
M  V30 302 C 28.3269 -2.68724 2.20642 0
M  V30 303 H 27.6499 -2.56743 3.06469 0
M  V30 304 H 29.0899 -3.43237 2.48926 0
M  V30 305 C 27.5489 -3.21101 1.01959 0
M  V30 306 O 28.0789 -4.0084 0.262762 0
M  V30 307 N 26.2849 -2.79003 0.812746 0
M  V30 308 H 25.8319 -2.14271 1.42989 0
M  V30 309 H 25.7899 -3.14393 0.0203076 0
M  V30 310 N 29.562 -1.4872 -0.521534 0
M  V30 311 C 30.51 -1.64328 -1.64618 0
M  V30 312 C 31.504 -0.50953 -1.61555 0
M  V30 313 O 32.71 -0.688525 -1.66311 0
M  V30 314 H 29.085 -0.517805 -0.545328 0
M  V30 315 H 31.056 -2.58767 -1.48601 0
M  V30 316 C 29.805 -1.70805 -3.02855 0
M  V30 317 H 29.128 -2.5741 -3.05909 0
M  V30 318 H 30.568 -1.85766 -3.81139 0
M  V30 319 C 29.027 -0.448479 -3.33902 0
M  V30 320 O 29.557 0.434928 -3.99339 0
M  V30 321 N 27.763 -0.317616 -2.88859 0
M  V30 322 H 27.31 -1.03748 -2.35784 0
M  V30 323 H 27.268 0.524113 -3.10001 0
M  V30 324 N 31.0401 0.771051 -1.3745 0
M  V30 325 C 32.2891 1.52491 -1.3202 0
M  V30 326 C 32.6021 1.9538 0.0927347 0
M  V30 327 O 33.8081 2.70159 0.269503 0
M  V30 328 C 32.2641 2.75366 -2.31736 0
M  V30 329 C 31.8721 2.39573 -3.78562 0
M  V30 330 C 33.6161 3.53307 -2.35318 0
M  V30 331 C 31.5231 3.58954 -4.70007 0
M  V30 332 H 30.4531 0.572506 -0.490666 0
M  V30 333 H 33.1041 0.844474 -1.62914 0
M  V30 334 H 31.4861 3.45303 -1.93861 0
M  V30 335 H 32.6601 1.77415 -4.25277 0
M  V30 336 H 30.9751 1.74805 -3.77932 0
M  V30 337 H 33.5721 4.42039 -3.00842 0
M  V30 338 H 33.9151 3.93217 -1.36698 0
M  V30 339 H 34.4481 2.90367 -2.71904 0
M  V30 340 H 31.1871 3.24125 -5.69757 0
M  V30 341 H 30.7071 4.20214 -4.27996 0
M  V30 342 H 32.3861 4.25758 -4.87175 0
M  V30 343 N 32.5182 1.22032 0.997298 0
M  V30 344 C 33.9342 0.979326 1.26021 0
M  V30 345 C 34.1342 -0.32972 1.98784 0
M  V30 346 O 33.1902 -1.05345 2.29475 0
M  V30 347 C 34.5032 2.17509 2.07631 0
M  V30 348 C 36.0512 2.21817 2.2083 0
M  V30 349 C 36.5262 3.40933 3.05825 0
M  V30 350 N 38.0172 3.41067 3.13412 0
M  V30 351 C 38.7522 4.29885 3.79455 0
M  V30 352 N 38.2482 5.28914 4.47462 0
M  V30 353 N 40.0412 4.17673 3.76173 0
M  V30 354 H 32.1922 2.06202 0.509352 0
M  V30 355 H 34.4552 0.90334 0.287541 0
M  V30 356 H 34.1612 3.12415 1.61524 0
M  V30 357 H 34.0352 2.17206 3.08385 0
M  V30 358 H 36.4222 1.27462 2.66153 0
M  V30 359 H 36.5032 2.2616 1.1952 0
M  V30 360 H 36.1472 4.35586 2.61203 0
M  V30 361 H 36.0772 3.33829 4.07266 0
M  V30 362 H 38.5682 2.69406 2.65007 0
M  V30 363 H 38.8812 5.92973 4.95583 0
M  V30 364 H 37.2262 5.32831 4.46224 0
M  V30 365 H 40.4172 3.39564 3.22202 0
M  V30 366 H 40.5902 4.87098 4.27363 0
M  V30 367 N 33.9963 -1.19345 1.0293 0
M  V30 368 C 34.9263 -2.2481 0.631105 0
M  V30 369 C 35.9073 -1.66245 -0.360104 0
M  V30 370 O 37.0923 -1.92677 -0.242726 0
M  V30 371 C 34.2223 -3.47295 -0.0184607 0
M  V30 372 C 33.1763 -4.18536 0.895073 0
M  V30 373 C 32.5023 -5.34586 0.110592 0
M  V30 374 C 33.8023 -4.73287 2.209 0
M  V30 375 H 35.4963 -2.58372 1.51275 0
M  V30 376 H 33.0423 -1.24194 0.728818 0
M  V30 377 H 34.9953 -4.20268 -0.308675 0
M  V30 378 H 33.7193 -3.12933 -0.934907 0
M  V30 379 H 32.3783 -3.47446 1.16949 0
M  V30 380 H 32.0263 -4.96469 -0.807902 0
M  V30 381 H 31.7263 -5.83183 0.719087 0
M  V30 382 H 33.2503 -6.10355 -0.172871 0
M  V30 383 H 34.6643 -5.38013 1.98028 0
M  V30 384 H 33.0613 -5.32373 2.76946 0
M  V30 385 H 34.1313 -3.91331 2.86336 0
M  V30 386 N 35.4744 -0.807222 -1.35358 0
M  V30 387 C 36.4224 -0.20614 -2.31685 0
M  V30 388 C 37.4164 0.644445 -1.56663 0
M  V30 389 O 38.6224 0.537538 -1.71786 0
M  V30 390 H 34.9974 -0.0479006 -0.750473 0
M  V30 391 H 36.9684 -1.03369 -2.79924 0
M  V30 392 C 35.7174 0.630212 -3.41941 0
M  V30 393 H 35.0404 -0.0149558 -3.99797 0
M  V30 394 H 36.4804 1.01716 -4.11619 0
M  V30 395 C 34.9394 1.79601 -2.85035 0
M  V30 396 O 35.4694 2.89351 -2.78637 0
M  V30 397 N 33.6754 1.60774 -2.42074 0
M  V30 398 H 33.2224 0.715009 -2.47478 0
M  V30 399 H 33.1804 2.38933 -2.04349 0
M  V30 400 N 36.9525 1.47285 -0.560781 0
M  V30 401 C 37.8625 2.33846 0.187954 0
M  V30 402 C 38.8785 1.48412 0.908293 0
M  V30 403 O 40.0545 1.81332 0.876388 0
M  V30 404 C 37.1195 3.25178 1.2025 0
M  V30 405 C 36.1805 4.26504 0.489208 0
M  V30 406 C 35.4135 5.13472 1.45542 0
M  V30 407 O 35.6365 5.02959 2.6905 0
M  V30 408 O 34.5705 5.93902 0.977963 0
M  V30 409 H 38.3965 2.99177 -0.522177 0
M  V30 410 H 35.9815 1.45903 -0.321364 0
M  V30 411 H 37.8635 3.81584 1.78805 0
M  V30 412 H 36.5385 2.6247 1.89449 0
M  V30 413 H 35.4455 3.73847 -0.137627 0
M  V30 414 H 36.7785 4.91935 -0.161399 0
M  V30 415 N 38.4306 0.297415 1.54768 0
M  V30 416 C 39.6706 -0.313829 2.01976 0
M  V30 417 C 40.0346 -1.51366 1.1812 0
M  V30 418 O 41.2356 -2.19603 1.5501 0
M  V30 419 C 39.5066 -0.664964 3.51159 0
M  V30 420 S 41.0656 -1.25958 4.20333 0
M  V30 421 H 37.8836 -0.0965014 0.704421 0
M  V30 422 H 40.4856 0.424451 1.90837 0
M  V30 423 H 39.1896 0.21681 4.09827 0
M  V30 424 H 38.7206 -1.43413 3.66328 0
M  V30 425 H 40.7356 -2.54751 4.25813 0
M  V30 426 N 39.9087 -1.5758 0.0250728 0
M  V30 427 C 40.8567 -2.11125 -0.97617 0
M  V30 428 C 41.8507 -1.03689 -1.33959 0
M  V30 429 O 43.0567 -1.22128 -1.3223 0
M  V30 430 H 39.4317 -0.674468 -0.332561 0
M  V30 431 H 41.4027 -2.94194 -0.499223 0
M  V30 432 C 40.1517 -2.65017 -2.2508 0
M  V30 433 H 39.4747 -3.47333 -1.9799 0
M  V30 434 H 40.9147 -3.06133 -2.93357 0
M  V30 435 C 39.3737 -1.57574 -2.97779 0
M  V30 436 O 39.9037 -0.973203 -3.89733 0
M  V30 437 N 38.1097 -1.29716 -2.60043 0
M  V30 438 H 37.6567 -1.789 -1.85345 0
M  V30 439 H 37.6147 -0.58051 -3.08994 0
M  V30 440 N 41.3868 0.248026 -1.55636 0
M  V30 441 C 42.8028 0.596483 -1.48035 0
M  V30 442 C 43.0028 1.88386 -0.715039 0
M  V30 443 O 42.0588 2.51319 -0.243944 0
M  V30 444 C 43.3718 0.700258 -2.92433 0
M  V30 445 C 44.9198 0.792659 -3.02797 0
M  V30 446 C 45.3948 0.928005 -4.485 0
M  V30 447 N 46.8858 0.992903 -4.52433 0
M  V30 448 C 47.6208 1.11687 -5.62418 0
M  V30 449 N 47.1168 1.20645 -6.82214 0
M  V30 450 N 48.9098 1.14994 -5.50212 0
M  V30 451 H 41.0608 -0.597109 -2.03834 0
M  V30 452 H 43.3238 -0.205925 -0.925364 0
M  V30 453 H 43.0298 -0.175658 -3.51261 0
M  V30 454 H 42.9038 1.57255 -3.42857 0
M  V30 455 H 45.2908 1.65903 -2.4405 0
M  V30 456 H 45.3718 -0.104762 -2.55585 0
M  V30 457 H 45.0158 0.0661971 -5.07857 0
M  V30 458 H 44.9458 1.84045 -4.93391 0
M  V30 459 H 47.4368 0.935064 -3.66149 0
M  V30 460 H 47.7498 1.30008 -7.61786 0
M  V30 461 H 46.0948 1.17605 -6.84977 0
M  V30 462 H 49.2858 1.07643 -4.55555 0
M  V30 463 H 49.4588 1.24311 -6.35965 0
M  V30 464 N 42.8649 1.48995 0.513639 0
M  V30 465 C 44.1049 1.59452 1.27885 0
M  V30 466 C 44.4689 0.269479 1.90099 0
M  V30 467 O 45.6699 0.249139 2.67643 0
M  V30 468 C 43.9409 2.71277 2.32688 0
M  V30 469 S 45.4999 3.01604 3.18717 0
M  V30 470 H 42.3179 0.562565 0.434789 0
M  V30 471 H 44.9199 1.86595 0.583301 0
M  V30 472 H 43.6239 3.66089 1.8549 0
M  V30 473 H 43.1549 2.46086 3.06929 0
M  V30 474 H 45.1699 2.42155 4.331 0
M  V30 475 N 44.343 -0.763751 1.37857 0
M  V30 476 C 45.291 -1.89864 1.34367 0
M  V30 477 C 46.285 -1.67816 0.231143 0
M  V30 478 O 47.491 -1.75508 0.399617 0
M  V30 479 H 43.866 -0.624501 0.41893 0
M  V30 480 H 45.837 -1.89925 2.30155 0
M  V30 481 C 44.586 -3.27227 1.1755 0
M  V30 482 H 43.909 -3.44773 2.02414 0
M  V30 483 H 45.349 -4.06911 1.1916 0
M  V30 484 C 43.808 -3.36692 -0.118311 0
M  V30 485 O 44.338 -3.86374 -1.09902 0
M  V30 486 N 42.544 -2.90092 -0.171717 0
M  V30 487 H 42.091 -2.49853 0.627012 0
M  V30 488 H 42.049 -2.96806 -1.03699 0
M  V30 489 N 45.8211 -1.22559 -0.990812 0
M  V30 490 C 46.7681 -0.997519 -2.0813 0
M  V30 491 C 47.7381 0.0814702 -1.659 0
M  V30 492 O 48.9231 -0.0685424 -1.90677 0
M  V30 493 C 46.0631 -0.583615 -3.40129 0
M  V30 494 C 45.1761 -1.7336 -3.9569 0
M  V30 495 C 44.3111 -1.26748 -5.15857 0
M  V30 496 C 43.3501 -2.38888 -5.63559 0
M  V30 497 N 42.4871 -1.93308 -6.74964 0
M  V30 498 H 47.3271 -1.93099 -2.26973 0
M  V30 499 H 44.8641 -0.962114 -1.11273 0
M  V30 500 H 46.8221 -0.324801 -4.15934 0
M  V30 501 H 45.4521 0.312845 -3.2128 0
M  V30 502 H 44.5041 -2.10669 -3.16738 0
M  V30 503 H 45.8161 -2.57704 -4.27071 0
M  V30 504 H 44.9701 -0.966173 -5.98957 0
M  V30 505 H 43.7091 -0.394272 -4.86104 0
M  V30 506 H 42.7141 -2.69805 -4.79046 0
M  V30 507 H 43.9391 -3.26728 -5.95336 0
M  V30 508 H 41.8851 -1.08352 -6.4699 0
M  V30 509 H 41.8021 -2.71217 -7.05675 0
M  V30 510 H 43.0701 -1.66252 -7.61564 0
M  V30 511 N 47.2992 1.18797 -1.03562 0
M  V30 512 C 48.5482 1.87978 -0.731235 0
M  V30 513 C 48.8612 1.80911 0.743671 0
M  V30 514 O 50.0672 2.45407 1.16137 0
M  V30 515 C 48.5232 3.3721 -1.25768 0
M  V30 516 C 48.1312 3.52818 -2.76085 0
M  V30 517 C 49.8752 4.11825 -1.0296 0
M  V30 518 C 47.7822 4.9598 -3.22114 0
M  V30 519 H 46.7122 0.704063 -0.269835 0
M  V30 520 H 49.3632 1.34266 -1.25079 0
M  V30 521 H 47.7452 3.90359 -0.666011 0
M  V30 522 H 48.9192 3.09965 -3.40966 0
M  V30 523 H 47.2342 2.91602 -2.97249 0
M  V30 524 H 49.8312 5.17411 -1.34869 0
M  V30 525 H 50.1742 4.16287 0.0333546 0
M  V30 526 H 50.7072 3.64833 -1.58562 0
M  V30 527 H 47.4462 4.96684 -4.27768 0
M  V30 528 H 46.9662 5.39569 -2.61965 0
M  V30 529 H 48.6452 5.6467 -3.15844 0
M  V30 530 N 48.7773 0.814389 1.34928 0
M  V30 531 C 50.0173 0.404165 2.00364 0
M  V30 532 C 50.3813 -1.01166 1.63185 0
M  V30 533 O 51.5823 -1.52431 2.21401 0
M  V30 534 C 49.8533 0.590718 3.52484 0
M  V30 535 S 51.4123 0.272075 4.37956 0
M  V30 536 H 48.2303 0.15311 0.694319 0
M  V30 537 H 50.8323 1.05834 1.64376 0
M  V30 538 H 49.5363 1.62099 3.77031 0
M  V30 539 H 49.0673 -0.0785013 3.93322 0
M  V30 540 H 51.0823 -0.917405 4.87645 0
M  V30 541 N 50.2554 -1.46986 0.568584 0
M  V30 542 C 51.5324 -1.95592 -0.0174074 0
M  V30 543 C 51.9124 -1.51124 -1.47393 0
M  V30 544 O 51.2604 -0.755329 -2.15655 0
M  V30 545 C 51.4704 -3.48719 0.139913 0
M  V30 546 C 52.8184 -4.246 0.000426376 0
M  V30 547 O 53.8424 -3.56135 0.0680316 0
M  V30 548 O 52.7014 -5.46302 -0.146988 0
M  V30 549 H 49.7954 -0.82498 -0.0577599 0
M  V30 550 H 52.3414 -1.57335 0.635909 0
M  V30 551 H 51.1134 -3.73927 1.15301 0
M  V30 552 H 50.7364 -3.93771 -0.550491 0
M  V30 553 N 51.7335 -0.305618 -1.54608 0
M  V30 554 C 52.6435 0.57778 -2.27374 0
M  V30 555 C 53.6595 1.14451 -1.31061 0
M  V30 556 O 54.8355 1.16831 -1.6405 0
M  V30 557 C 51.9005 1.73123 -3.00382 0
M  V30 558 C 50.9615 1.19812 -4.12242 0
M  V30 559 C 50.1945 2.2966 -4.81759 0
M  V30 560 O 50.4175 3.49651 -4.50666 0
M  V30 561 O 49.3515 1.96091 -5.69062 0
M  V30 562 H 53.1775 -0.012624 -3.03697 0
M  V30 563 H 50.7625 -0.0719184 -1.49227 0
M  V30 564 H 52.6445 2.40315 -3.4616 0
M  V30 565 H 51.3195 2.30815 -2.26949 0
M  V30 566 H 50.2265 0.491798 -3.70853 0
M  V30 567 H 51.5595 0.666566 -4.87666 0
M  V30 568 N 53.2116 1.57565 -0.0334293 0
M  V30 569 C 54.4416 1.95996 0.653398 0
M  V30 570 C 54.8496 0.908749 1.65947 0
M  V30 571 O 54.1926 -0.117471 1.83324 0
M  V30 572 C 54.2546 3.30589 1.41249 0
M  V30 573 C 53.9186 4.53503 0.564263 0
M  V30 574 C 54.9156 5.19647 -0.16225 0
M  V30 575 C 52.6006 4.99801 0.500398 0
M  V30 576 C 54.5946 6.30412 -0.941255 0
M  V30 577 C 52.2816 6.10448 -0.282308 0
M  V30 578 C 53.2796 6.75612 -1.00184 0
M  V30 579 O 52.9676 7.84134 -1.77171 0
M  V30 580 H 52.6996 0.65027 0.184728 0
M  V30 581 H 55.2536 2.05199 -0.0907841 0
M  V30 582 H 53.4836 3.17888 2.20191 0
M  V30 583 H 55.1726 3.53892 1.98784 0
M  V30 584 H 55.9386 4.84846 -0.12227 0
M  V30 585 H 51.8176 4.48883 1.05002 0
M  V30 586 H 55.3616 6.81208 -1.50339 0
M  V30 587 H 51.2586 6.44686 -0.323989 0
M  V30 588 H 52.0266 8.00822 -1.69194 0
M  V30 589 N 54.6897 -0.239769 1.55765 0
M  V30 590 C 55.9357 -0.968234 1.78194 0
M  V30 591 C 56.2687 -1.84701 0.599938 0
M  V30 592 O 55.5437 -1.9031 -0.401524 0
M  V30 593 C 55.8267 -1.8227 3.10564 0
M  V30 594 C 55.6797 -0.971633 4.3918 0
M  V30 595 C 56.9987 -2.80388 3.39221 0
M  V30 596 H 54.1177 -0.350572 0.648281 0
M  V30 597 H 56.7597 -0.238259 1.885 0
M  V30 598 H 54.9097 -2.44507 3.01908 0
M  V30 599 H 56.5817 -0.367408 4.59835 0
M  V30 600 H 54.8247 -0.276276 4.32919 0
M  V30 601 H 55.4957 -1.60346 5.28198 0
M  V30 602 H 57.9717 -2.28287 3.47885 0
M  V30 603 H 56.8477 -3.3729 4.33044 0
M  V30 604 H 57.1087 -3.57212 2.60484 0
M  V30 605 N 56.1678 -1.49265 -0.50573 0
M  V30 606 C 57.0778 -1.68312 -1.63427 0
M  V30 607 C 58.0938 -0.565682 -1.64548 0
M  V30 608 O 59.2698 -0.839801 -1.83055 0
M  V30 609 C 56.3348 -1.74107 -2.99813 0
M  V30 610 C 55.3958 -2.97653 -3.09356 0
M  V30 611 C 54.6288 -3.03163 -4.39236 0
M  V30 612 O 54.8518 -2.16396 -5.27758 0
M  V30 613 O 53.7858 -3.9558 -4.53652 0
M  V30 614 H 57.6118 -2.63907 -1.50289 0
M  V30 615 H 55.1968 -1.32951 -0.681502 0
M  V30 616 H 57.0788 -1.803 -3.80881 0
M  V30 617 H 55.7538 -0.816901 -3.13223 0
M  V30 618 H 54.6608 -2.96981 -2.27493 0
M  V30 619 H 55.9938 -3.89535 -3.00871 0
M  V30 620 N 57.6459 0.756429 -1.3826 0
M  V30 621 C 58.5929 1.87011 -1.35261 0
M  V30 622 C 59.5629 1.64695 -0.215616 0
M  V30 623 O 60.7479 1.864 -0.407399 0
M  V30 624 C 57.8879 3.24275 -1.18068 0
M  V30 625 C 57.0009 3.58442 -2.41129 0
M  V30 626 C 56.1359 4.84994 -2.16689 0
M  V30 627 C 55.1749 5.11939 -3.35537 0
M  V30 628 N 54.3119 6.29685 -3.10549 0
M  V30 629 H 59.1519 1.8891 -2.30472 0
M  V30 630 H 56.6889 0.923373 -1.14509 0
M  V30 631 H 58.6469 4.03479 -1.06116 0
M  V30 632 H 57.2769 3.21711 -0.264973 0
M  V30 633 H 56.3289 2.74103 -2.63764 0
M  V30 634 H 57.6409 3.74283 -3.29717 0
M  V30 635 H 56.7949 5.72135 -2.01857 0
M  V30 636 H 55.5339 4.71286 -1.25462 0
M  V30 637 H 54.5389 4.23268 -3.50891 0
M  V30 638 H 55.7639 5.27546 -4.27635 0
M  V30 639 H 53.7099 6.17306 -2.21967 0
M  V30 640 H 53.6269 6.46014 -3.92686 0
M  V30 641 H 54.8949 7.19722 -2.99367 0
M  V30 642 N 59.124 1.23083 0.984299 0
M  V30 643 C 60.072 1.00593 2.09723 0
M  V30 644 C 61.066 -0.0538014 1.69315 0
M  V30 645 O 62.272 0.0993719 1.79725 0
M  V30 646 H 58.647 0.30817 0.685956 0
M  V30 647 H 60.618 1.95012 2.2586 0
M  V30 648 C 59.367 0.609601 3.42314 0
M  V30 649 H 58.69 1.41675 3.73856 0
M  V30 650 H 60.13 0.491726 4.21139 0
M  V30 651 C 58.589 -0.681745 3.2993 0
M  V30 652 O 59.119 -1.73192 3.62446 0
M  V30 653 N 57.325 -0.656178 2.83095 0
M  V30 654 H 56.872 0.198759 2.56832 0
M  V30 655 H 56.83 -1.52044 2.75191 0
M  V30 656 N 60.6021 -1.18246 1.0419 0
M  V30 657 C 62.0181 -1.40269 0.761366 0
M  V30 658 C 62.2181 -1.90777 -0.648578 0
M  V30 659 O 61.2741 -2.0929 -1.41258 0
M  V30 660 C 62.5871 -2.40237 1.8085 0
M  V30 661 C 64.1351 -2.53961 1.82955 0
M  V30 662 C 64.6101 -3.57194 2.86664 0
M  V30 663 N 66.1011 -3.64702 2.85563 0
M  V30 664 C 66.8361 -4.44309 3.6246 0
M  V30 665 N 66.3321 -5.27514 4.49111 0
M  V30 666 N 68.1251 -4.39084 3.50944 0
M  V30 667 H 60.2761 -0.837882 1.95175 0
M  V30 668 H 62.5391 -0.430608 0.84456 0
M  V30 669 H 62.2451 -2.10176 2.81991 0
M  V30 670 H 62.1191 -3.39601 1.64168 0
M  V30 671 H 64.5061 -2.83338 0.824855 0
M  V30 672 H 64.5871 -1.54706 2.03715 0
M  V30 673 H 64.2311 -3.28558 3.87314 0
M  V30 674 H 64.1611 -4.5613 2.6316 0
M  V30 675 H 66.6521 -3.05289 2.22727 0
M  V30 676 H 66.9651 -5.85411 5.04493 0
M  V30 677 H 65.3101 -5.2693 4.53178 0
M  V30 678 H 68.5011 -3.7313 2.82651 0
M  V30 679 H 68.6741 -5.00883 4.11121 0
M  V30 680 N 62.0802 -0.821533 -1.34494 0
M  V30 681 C 63.3272 -0.408946 -1.98328 0
M  V30 682 C 63.6552 1.02764 -1.65136 0
M  V30 683 O 62.9102 1.73026 -0.914349 0
M  V30 684 C 63.2092 -0.556512 -3.53041 0
M  V30 685 C 62.8752 -1.95861 -4.0614 0
M  V30 686 C 61.5372 -2.34217 -4.20352 0
M  V30 687 C 63.8892 -2.87523 -4.34718 0
M  V30 688 C 61.2172 -3.63572 -4.6047 0
M  V30 689 C 63.5692 -4.1634 -4.76281 0
M  V30 690 C 62.2332 -4.54675 -4.88699 0
M  V30 691 H 61.5032 -0.149644 -0.725732 0
M  V30 692 H 64.1502 -1.04521 -1.6046 0
M  V30 693 H 62.4552 0.163148 -3.9146 0
M  V30 694 H 64.1522 -0.217826 -4.00408 0
M  V30 695 H 60.7422 -1.65066 -3.95539 0
M  V30 696 H 64.9262 -2.59133 -4.23277 0
M  V30 697 H 60.1822 -3.93101 -4.68275 0
M  V30 698 H 64.3562 -4.87455 -4.97354 0
M  V30 699 H 61.9832 -5.54959 -5.19542 0
M  V30 700 N 63.5583 1.46682 -0.576371 0
M  V30 701 C 64.8073 2.01619 -0.0572825 0
M  V30 702 C 65.1203 1.45417 1.30818 0
M  V30 703 O 66.3263 1.92133 1.91825 0
M  V30 704 C 64.7823 3.59863 -0.0518371 0
M  V30 705 C 64.3903 4.25059 -1.41523 0
M  V30 706 C 66.1343 4.2248 0.413639 0
M  V30 707 C 64.0413 5.75364 -1.36785 0
M  V30 708 H 62.9713 0.753794 -0.0176448 0
M  V30 709 H 65.6223 1.68481 -0.727076 0
M  V30 710 H 64.0043 3.90048 0.683994 0
M  V30 711 H 65.1783 4.06491 -2.17029 0
M  V30 712 H 63.4933 3.7451 -1.8202 0
M  V30 713 H 66.0903 5.3265 0.467779 0
M  V30 714 H 66.4333 3.90976 1.42982 0
M  V30 715 H 66.9663 3.96897 -0.267929 0
M  V30 716 H 63.7053 6.11518 -2.36063 0
M  V30 717 H 63.2253 5.96214 -0.654895 0
M  V30 718 H 64.9043 6.37955 -1.07805 0
M  V30 719 N 65.0364 0.313813 1.54444 0
M  V30 720 C 66.2854 -0.292519 1.99568 0
M  V30 721 C 66.5984 -1.54011 1.20582 0
M  V30 722 O 67.8044 -2.22183 1.56035 0
M  V30 723 C 66.2604 -0.571752 3.55329 0
M  V30 724 C 65.8684 0.658229 4.43138 0
M  V30 725 C 67.6124 -1.13857 4.08946 0
M  V30 726 C 65.5194 0.351439 5.90355 0
M  V30 727 H 64.4494 -0.113079 0.745472 0
M  V30 728 H 67.1004 0.424518 1.78522 0
M  V30 729 H 65.4824 -1.34872 3.72325 0
M  V30 730 H 66.6564 1.43403 4.37918 0
M  V30 731 H 64.9714 1.14458 4.0036 0
M  V30 732 H 67.5684 -1.38257 5.16516 0
M  V30 733 H 67.9114 -2.08489 3.6033 0
M  V30 734 H 68.4444 -0.423015 3.95544 0
M  V30 735 H 65.1834 1.26667 6.43145 0
M  V30 736 H 64.7034 -0.386842 5.98551 0
M  V30 737 H 66.3824 -0.0423134 6.46986 0
M  V30 738 N 66.5145 -1.57545 0.0417849 0
M  V30 739 C 67.7615 -1.92317 -0.634082 0
M  V30 740 C 68.0895 -0.919334 -1.71402 0
M  V30 741 O 67.3445 0.0698253 -1.95575 0
M  V30 742 C 67.6435 -3.33794 -1.27735 0
M  V30 743 C 67.3095 -4.49716 -0.326543 0
M  V30 744 C 65.9715 -4.81156 -0.0648814 0
M  V30 745 C 68.3235 -5.20182 0.325623 0
M  V30 746 C 65.6515 -5.80414 0.856539 0
M  V30 747 C 68.0035 -6.20424 1.23518 0
M  V30 748 C 66.6675 -6.50298 1.5056 0
M  V30 749 H 65.9375 -0.703736 -0.232027 0
M  V30 750 H 68.5845 -1.91205 0.106259 0
M  V30 751 H 66.8895 -3.31228 -2.09274 0
M  V30 752 H 68.5865 -3.57975 -1.80707 0
M  V30 753 H 65.1765 -4.25176 -0.540665 0
M  V30 754 H 69.3605 -4.96112 0.136546 0
M  V30 755 H 64.6165 -6.019 1.07363 0
M  V30 756 H 68.7905 -6.74141 1.74664 0
M  V30 757 H 66.4175 -7.27025 2.22123 0
M  V30 758 N 67.9926 0.231505 -1.5589 0
M  V30 759 C 68.9226 1.29022 -1.94617 0
M  V30 760 C 69.9036 1.4941 -0.813067 0
M  V30 761 O 71.0886 1.6176 -1.07459 0
M  V30 762 C 68.2186 2.64199 -2.25424 0
M  V30 763 C 67.1726 2.58484 -3.41131 0
M  V30 764 C 66.4986 3.97599 -3.57518 0
M  V30 765 C 67.7986 2.1413 -4.76388 0
M  V30 766 H 69.4926 0.968563 -2.83301 0
M  V30 767 H 67.0386 0.464479 -1.36303 0
M  V30 768 H 68.9916 3.38413 -2.51107 0
M  V30 769 H 67.7156 2.98032 -1.33583 0
M  V30 770 H 66.3746 1.86727 -3.15481 0
M  V30 771 H 66.0226 4.28723 -2.6307 0
M  V30 772 H 65.7226 3.94659 -4.35337 0
M  V30 773 H 67.2466 4.7349 -3.85538 0
M  V30 774 H 68.6606 2.78083 -5.01341 0
M  V30 775 H 67.0576 2.2227 -5.57419 0
M  V30 776 H 68.1276 1.09331 -4.72414 0
M  V30 777 N 69.4707 1.49531 0.497807 0
M  V30 778 C 70.4187 1.66926 1.61983 0
M  V30 779 C 71.4127 0.535167 1.60724 0
M  V30 780 O 72.6187 0.714896 1.65195 0
M  V30 781 H 68.9937 0.526415 0.537021 0
M  V30 782 H 70.9647 2.61098 1.44465 0
M  V30 783 C 69.7137 1.75602 3.00099 0
M  V30 784 H 69.0367 2.62244 3.01775 0
M  V30 785 H 70.4767 1.91807 3.78135 0
M  V30 786 C 68.9357 0.501543 3.33146 0
M  V30 787 O 69.4657 -0.371342 3.9998 0
M  V30 788 N 67.6717 0.363531 2.88317 0
M  V30 789 H 67.2187 1.07485 2.34104 0
M  V30 790 H 67.1767 -0.474728 3.10795 0
M  V30 791 N 70.9488 -0.749086 1.3866 0
M  V30 792 C 72.1978 -1.50371 1.3443 0
M  V30 793 C 72.5108 -1.95503 -0.0616397 0
M  V30 794 O 73.7168 -2.70554 -0.226489 0
M  V30 795 C 72.1728 -2.71644 2.36088 0
M  V30 796 C 71.7808 -2.3352 3.82325 0
M  V30 797 C 73.5248 -3.49518 2.40909 0
M  V30 798 C 71.4318 -3.51431 4.75658 0
M  V30 799 H 70.3618 -0.564628 0.499712 0
M  V30 800 H 73.0128 -0.818449 1.64237 0
M  V30 801 H 71.3948 -3.42175 1.9933 0
M  V30 802 H 72.5688 -1.70627 4.28046 0
M  V30 803 H 70.8838 -1.6877 3.80665 0
M  V30 804 H 73.4808 -4.37197 3.07836 0
M  V30 805 H 73.8238 -3.90992 1.42937 0
M  V30 806 H 74.3568 -2.86005 2.76489 0
M  V30 807 H 71.0958 -3.15019 5.74842 0
M  V30 808 H 70.6158 -4.13352 4.34627 0
M  V30 809 H 72.2948 -4.17953 4.93887 0
M  V30 810 N 72.4269 -1.23603 -0.977757 0
M  V30 811 C 73.3569 -1.04401 -2.0886 0
M  V30 812 C 74.3379 0.0399052 -1.70053 0
M  V30 813 O 75.5229 -0.125246 -1.93796 0
M  V30 814 C 72.6529 -0.637269 -3.41403 0
M  V30 815 C 71.6069 -1.66883 -3.94124 0
M  V30 816 C 70.9329 -1.11745 -5.22893 0
M  V30 817 C 72.2329 -3.06247 -4.23096 0
M  V30 818 H 73.9269 -1.97316 -2.25182 0
M  V30 819 H 71.4729 -0.950096 -1.08209 0
M  V30 820 H 73.4259 -0.48998 -4.18542 0
M  V30 821 H 72.1499 0.327557 -3.24953 0
M  V30 822 H 70.8089 -1.80416 -3.19133 0
M  V30 823 H 70.4569 -0.143527 -5.02795 0
M  V30 824 H 70.1569 -1.80672 -5.59134 0
M  V30 825 H 71.6809 -0.982067 -6.02651 0
M  V30 826 H 73.0949 -2.96001 -4.90975 0
M  V30 827 H 71.4919 -3.72436 -4.70544 0
M  V30 828 H 72.5619 -3.55041 -3.30263 0
M  V30 829 N 73.905 1.17692 -1.04816 0
M  V30 830 C 75.152 1.87859 -0.75599 0
M  V30 831 C 75.48 1.80812 0.716752 0
M  V30 832 O 74.735 1.20819 1.53952 0
M  V30 833 C 75.034 3.37462 -1.17703 0
M  V30 834 C 74.7 3.64713 -2.65133 0
M  V30 835 C 73.362 3.71859 -3.05408 0
M  V30 836 C 75.714 3.76492 -3.60421 0
M  V30 837 C 73.042 3.88271 -4.39843 0
M  V30 838 C 75.394 3.94421 -4.94585 0
M  V30 839 C 74.058 3.99806 -5.3452 0
M  V30 840 H 73.328 0.687425 -0.276636 0
M  V30 841 H 75.975 1.39255 -1.31455 0
M  V30 842 H 74.28 3.88097 -0.537395 0
M  V30 843 H 75.977 3.90109 -0.928218 0
M  V30 844 H 72.567 3.59772 -2.32942 0
M  V30 845 H 76.751 3.70295 -3.30447 0
M  V30 846 H 72.007 3.90687 -4.70291 0
M  V30 847 H 76.181 4.02477 -5.68318 0
M  V30 848 H 73.808 4.12276 -6.38696 0
M  V30 849 N 75.3831 0.828654 1.34056 0
M  V30 850 C 76.3131 0.269443 2.3194 0
M  V30 851 C 77.2941 -0.617247 1.58506 0
M  V30 852 O 78.4791 -0.542931 1.86456 0
M  V30 853 C 75.6091 -0.564793 3.42677 0
M  V30 854 C 74.5631 0.225241 4.27407 0
M  V30 855 C 73.8891 -0.7321 5.29664 0
M  V30 856 C 75.1891 1.43663 5.02154 0
M  V30 857 H 76.8831 1.08728 2.7896 0
M  V30 858 H 74.4291 0.524283 1.34117 0
M  V30 859 H 76.3821 -0.966233 4.10173 0
M  V30 860 H 75.1061 -1.41574 2.9432 0
M  V30 861 H 73.7651 0.608117 3.61521 0
M  V30 862 H 73.4131 -1.57916 4.77568 0
M  V30 863 H 73.1131 -0.20767 5.87233 0
M  V30 864 H 74.6371 -1.13128 6.00029 0
M  V30 865 H 76.0511 1.1089 5.62473 0
M  V30 866 H 74.4481 1.89711 5.69324 0
M  V30 867 H 75.5181 2.21181 4.31517 0
M  V30 868 N 76.8612 -1.46375 0.584142 0
M  V30 869 C 77.8082 -2.30323 -0.148286 0
M  V30 870 C 78.7782 -1.40703 -0.882713 0
M  V30 871 O 79.9632 -1.69651 -0.873099 0
M  V30 872 C 77.1032 -3.25196 -1.15507 0
M  V30 873 C 76.2162 -4.29915 -0.423943 0
M  V30 874 C 75.3512 -5.11914 -1.41838 0
M  V30 875 C 74.3902 -6.08381 -0.673736 0
M  V30 876 N 73.5272 -6.83242 -1.6163 0
M  V30 877 H 78.3672 -2.92427 0.573644 0
M  V30 878 H 75.9042 -1.44118 0.294703 0
M  V30 879 H 77.8622 -3.78646 -1.75166 0
M  V30 880 H 76.4922 -2.64898 -1.8447 0
M  V30 881 H 75.5442 -3.7931 0.287714 0
M  V30 882 H 76.8562 -4.98549 0.158128 0
M  V30 883 H 76.0102 -5.69648 -2.08773 0
M  V30 884 H 74.7492 -4.43243 -2.03438 0
M  V30 885 H 73.7542 -5.49799 0.00938483 0
M  V30 886 H 74.9792 -6.79071 -0.0631082 0
M  V30 887 H 72.9252 -6.1728 -2.22038 0
M  V30 888 H 72.8422 -7.48144 -1.08707 0
M  V30 889 H 74.1102 -7.45534 -2.27596 0
M  V30 890 N 78.3393 -0.321999 -1.54275 0
M  V30 891 C 79.7503 0.166384 -1.85957 0
M  V30 892 C 80.1013 1.51747 -1.24367 0
M  V30 893 O 79.2263 2.09317 -0.549124 0
M  V30 894 C 79.8213 0.308681 -3.37391 0
M  V30 895 C 78.3803 0.741286 -3.69028 0
M  V30 896 C 77.5273 -0.137937 -2.76957 0
M  V30 897 H 80.4783 -0.542335 -1.49146 0
M  V30 898 H 80.4993 1.13984 -3.63026 0
M  V30 899 H 80.0113 -0.674809 -3.82188 0
M  V30 900 H 78.1123 1.73458 -3.29762 0
M  V30 901 H 78.2253 0.546118 -4.75977 0
M  V30 902 H 76.5893 0.386251 -2.51754 0
M  V30 903 H 77.3723 -1.11816 -3.2458 0
M  V30 904 N 79.8174 1.5752 -0.0501392 0
M  V30 905 C 80.7274 2.14952 0.939827 0
M  V30 906 C 81.7434 1.10706 1.34239 0
M  V30 907 O 82.9194 1.42869 1.41952 0
M  V30 908 C 79.9844 2.68232 2.19665 0
M  V30 909 C 79.0454 3.87272 1.85253 0
M  V30 910 C 78.2784 4.38002 3.04943 0
M  V30 911 O 78.5014 3.87811 4.18281 0
M  V30 912 O 77.4354 5.29602 2.86017 0
M  V30 913 H 81.2614 2.9986 0.481392 0
M  V30 914 H 78.8464 1.4841 0.171699 0
M  V30 915 H 80.7284 3.02475 2.93406 0
M  V30 916 H 79.4034 1.86395 2.64648 0
M  V30 917 H 78.3104 3.5792 1.0883 0
M  V30 918 H 79.6434 4.70336 1.4507 0
M  V30 919 N 81.2955 -0.223234 1.56011 0
M  V30 920 C 82.5445 -0.945912 1.78144 0
M  V30 921 C 82.8575 -1.85567 0.618396 0
M  V30 922 O 84.0635 -2.61688 0.723318 0
M  V30 923 C 82.5195 -1.73216 3.15475 0
M  V30 924 C 82.1275 -0.868619 4.39499 0
M  V30 925 C 83.8715 -2.44615 3.46935 0
M  V30 926 C 81.7785 -1.65212 5.67855 0
M  V30 927 H 80.7085 -0.356929 0.664167 0
M  V30 928 H 83.3595 -0.199845 1.82409 0
M  V30 929 H 81.7415 -2.52107 3.05382 0
M  V30 930 H 82.9155 -0.120366 4.60643 0
M  V30 931 H 81.2305 -0.26683 4.15544 0
M  V30 932 H 83.8275 -3.03732 4.40058 0
M  V30 933 H 84.1705 -3.17417 2.69355 0
M  V30 934 H 84.7035 -1.72715 3.58349 0
M  V30 935 H 81.4425 -0.967407 6.48322 0
M  V30 936 H 80.9625 -2.37503 5.50774 0
M  V30 937 H 82.6415 -2.21322 6.07968 0
M  V30 938 N 82.7736 -1.49793 -0.48987 0
M  V30 939 C 84.0036 -1.6333 -1.26518 0
M  V30 940 C 84.4116 -0.308392 -1.8667 0
M  V30 941 O 83.7546 0.717512 -1.69108 0
M  V30 942 C 83.8166 -2.6522 -2.4269 0
M  V30 943 C 83.4806 -4.09279 -2.03321 0
M  V30 944 C 84.4776 -4.95738 -1.56652 0
M  V30 945 C 82.1626 -4.55082 -2.12616 0
M  V30 946 C 84.1566 -6.26041 -1.19795 0
M  V30 947 C 81.8436 -5.85396 -1.75371 0
M  V30 948 C 82.8416 -6.707 -1.29036 0
M  V30 949 O 82.5296 -7.98584 -0.92299 0
M  V30 950 H 82.2616 -0.552502 -0.389509 0
M  V30 951 H 84.8156 -1.96642 -0.593381 0
M  V30 952 H 83.0456 -2.27112 -3.12981 0
M  V30 953 H 84.7346 -2.68171 -3.04695 0
M  V30 954 H 85.5006 -4.61575 -1.48908 0
M  V30 955 H 81.3796 -3.88844 -2.47631 0
M  V30 956 H 84.9236 -6.92578 -0.835582 0
M  V30 957 H 80.8206 -6.19085 -1.82768 0
M  V30 958 H 81.5886 -8.11692 -1.05349 0
M  V30 959 N 84.2517 0.741722 -1.39055 0
M  V30 960 C 85.6677 1.04638 -1.20512 0
M  V30 961 C 85.8677 2.01405 -0.0620218 0
M  V30 962 O 84.9237 2.45547 0.588457 0
M  V30 963 C 86.2367 1.6151 -2.53643 0
M  V30 964 C 87.7847 1.73623 -2.6043 0
M  V30 965 C 88.2597 2.33906 -3.93767 0
M  V30 966 N 89.7507 2.41323 -3.9537 0
M  V30 967 C 90.4857 2.88888 -4.95309 0
M  V30 968 N 89.9817 3.36401 -6.05645 0
M  V30 969 N 91.7747 2.88037 -4.82692 0
M  V30 970 H 83.9257 0.0998155 -2.12165 0
M  V30 971 H 86.1887 0.106907 -0.941953 0
M  V30 972 H 85.8947 0.978739 -3.37807 0
M  V30 973 H 85.7687 2.60411 -2.72885 0
M  V30 974 H 88.1557 2.36384 -1.76655 0
M  V30 975 H 88.2367 0.733945 -2.45045 0
M  V30 976 H 87.8807 1.71776 -4.7797 0
M  V30 977 H 87.8107 3.34799 -4.06469 0
M  V30 978 H 90.3017 2.07734 -3.15682 0
M  V30 979 H 90.6147 3.71186 -6.77821 0
M  V30 980 H 88.9597 3.34427 -6.09248 0
M  V30 981 H 92.1507 2.50237 -3.95599 0
M  V30 982 H 92.3237 3.24792 -5.60726 0
M  V30 983 N 85.7298 1.2412 0.971189 0
M  V30 984 C 86.6798 0.997551 2.05019 0
M  V30 985 C 87.6638 -0.0597747 1.60789 0
M  V30 986 O 88.8558 0.153516 1.76333 0
M  V30 987 C 85.9848 0.600557 3.38006 0
M  V30 988 C 85.0708 1.69377 3.88809 0
M  V30 989 N 85.4618 2.92586 4.12586 0
M  V30 990 C 83.7598 1.57048 4.17435 0
M  V30 991 C 84.4608 3.63431 4.54195 0
M  V30 992 N 83.4368 2.90979 4.59165 0
M  V30 993 H 87.2388 1.93316 2.21374 0
M  V30 994 H 84.7528 1.14194 1.1547 0
M  V30 995 H 86.7498 0.40725 4.14906 0
M  V30 996 H 85.4098 -0.327903 3.2304 0
M  V30 997 H 86.4208 3.288 4.00139 0
M  V30 998 H 83.0978 0.709798 4.11422 0
M  V30 999 H 84.4878 4.69102 4.81033 0
M  V30 1000 N 87.2079 -1.17134 1.05439 0
M  V30 1001 C 88.4569 -1.86791 0.761049 0
M  V30 1002 C 88.7699 -1.82072 -0.714795 0
M  V30 1003 O 89.9759 -2.47223 -1.12218 0
M  V30 1004 C 88.4319 -3.35166 1.31117 0
M  V30 1005 C 88.0399 -3.48381 2.81664 0
M  V30 1006 C 89.7839 -4.10134 1.09499 0
M  V30 1007 C 87.6909 -4.90793 3.29964 0
M  V30 1008 H 86.6209 -0.699681 0.281002 0
M  V30 1009 H 89.2719 -1.3226 1.27199 0
M  V30 1010 H 87.6539 -3.8925 0.72803 0
M  V30 1011 H 88.8279 -3.04502 3.45855 0
M  V30 1012 H 87.1429 -2.86836 3.01851 0
M  V30 1013 H 89.7399 -5.152 1.43084 0
M  V30 1014 H 90.0829 -4.16287 0.0328772 0
M  V30 1015 H 90.6159 -3.62264 1.64346 0
M  V30 1016 H 87.3549 -4.89816 4.35616 0
M  V30 1017 H 86.8749 -5.35333 2.70516 0
M  V30 1018 H 88.5539 -5.59573 3.24787 0
M  V30 1019 N 88.686 -0.835752 -1.33615 0
M  V30 1020 C 89.932 -0.430596 -1.98176 0
M  V30 1021 C 90.265 1.00684 -1.66061 0
M  V30 1022 O 89.54 1.70339 -0.938877 0
M  V30 1023 C 89.823 -0.648065 -3.5422 0
M  V30 1024 C 89.676 -2.13255 -3.96033 0
M  V30 1025 C 90.995 -0.0922113 -4.40003 0
M  V30 1026 H 88.114 -0.157924 -0.719881 0
M  V30 1027 H 90.756 -1.05069 -1.58305 0
M  V30 1028 H 88.906 -0.120237 -3.88314 0
M  V30 1029 H 90.578 -2.725 -3.72211 0
M  V30 1030 H 88.821 -2.61823 -3.45878 0
M  V30 1031 H 89.492 -2.23547 -5.04708 0
M  V30 1032 H 91.968 -0.543343 -4.12537 0
M  V30 1033 H 90.844 -0.274083 -5.48215 0
M  V30 1034 H 91.105 1.00378 -4.30554 0
M  V30 1035 N 90.1641 1.46063 -0.591896 0
M  V30 1036 C 91.4111 2.02338 -0.0809991 0
M  V30 1037 C 91.7391 1.46228 1.28249 0
M  V30 1038 O 90.9941 0.620818 1.85592 0
M  V30 1039 C 91.2931 3.57391 0.0249813 0
M  V30 1040 C 90.9591 4.32583 -1.27211 0
M  V30 1041 C 89.6211 4.52844 -1.62745 0
M  V30 1042 C 91.9731 4.75687 -2.13005 0
M  V30 1043 C 89.3011 5.13462 -2.83855 0
M  V30 1044 C 91.6531 5.37644 -3.3335 0
M  V30 1045 C 90.3171 5.5613 -3.69155 0
M  V30 1046 H 89.5871 0.740407 -0.0296397 0
M  V30 1047 H 92.2341 1.75321 -0.770374 0
M  V30 1048 H 90.5391 3.83597 0.797537 0
M  V30 1049 H 92.2361 3.98621 0.436184 0
M  V30 1050 H 88.8261 4.17116 -0.985499 0
M  V30 1051 H 93.0101 4.59782 -1.86855 0
M  V30 1052 H 88.2661 5.25965 -3.11722 0
M  V30 1053 H 92.4401 5.7 -4.00092 0
M  V30 1054 H 90.0671 6.0287 -4.63089 0
M  V30 1055 N 91.6422 0.330177 1.54103 0
M  V30 1056 C 92.5902 -0.548226 2.26047 0
M  V30 1057 C 93.5842 -1.11309 1.27698 0
M  V30 1058 O 94.7902 -1.06036 1.45452 0
M  V30 1059 H 91.1652 -0.195456 0.726155 0
M  V30 1060 H 93.1362 0.0807567 2.98291 0
M  V30 1061 C 91.8852 -1.69415 3.03634 0
M  V30 1062 H 91.2082 -1.26876 3.79134 0
M  V30 1063 H 92.6482 -2.28423 3.5721 0
M  V30 1064 C 91.1072 -2.61569 2.12328 0
M  V30 1065 O 91.6372 -3.63462 1.7105 0
M  V30 1066 N 89.8432 -2.29952 1.77681 0
M  V30 1067 H 89.3902 -1.47134 2.11446 0
M  V30 1068 H 89.3482 -2.91871 1.16869 0
M  V30 1069 N 93.1203 -1.57491 0.0584922 0
M  V30 1070 C 94.5363 -1.56792 -0.298091 0
M  V30 1071 C 94.7363 -1.06679 -1.70944 0
M  V30 1072 O 93.7923 -0.726672 -2.41818 0
M  V30 1073 C 95.1053 -3.00461 -0.119879 0
M  V30 1074 C 96.6533 -3.1242 -0.190428 0
M  V30 1075 C 97.1283 -4.57982 -0.0406567 0
M  V30 1076 N 98.6193 -4.63099 -0.0966958 0
M  V30 1077 C 99.3543 -5.734 -0.00502943 0
M  V30 1078 N 98.8503 -6.9266 0.139402 0
M  V30 1079 N 100.643 -5.62067 -0.0611391 0
M  V30 1080 H 92.7943 -1.88386 0.98105 0
M  V30 1081 H 95.0573 -0.867865 0.381463 0
M  V30 1082 H 94.7633 -3.41187 0.85349 0
M  V30 1083 H 94.6373 -3.66843 -0.877833 0
M  V30 1084 H 97.0243 -2.71589 -1.15427 0
M  V30 1085 H 97.1053 -2.48702 0.598405 0
M  V30 1086 H 96.7493 -4.995 0.919897 0
M  V30 1087 H 96.6793 -5.19715 -0.848727 0
M  V30 1088 H 99.1703 -3.77331 -0.207277 0
M  V30 1089 H 99.4833 -7.72536 0.201855 0
M  V30 1090 H 97.8283 -6.94781 0.174586 0
M  V30 1091 H 101.019 -4.67782 -0.172583 0
M  V30 1092 H 101.192 -6.47999 0.0137562 0
M  V30 1093 N 94.5984 0.214957 -1.56127 0
M  V30 1094 C 95.8474 0.936451 -1.78643 0
M  V30 1095 C 96.1604 1.85237 -0.628229 0
M  V30 1096 O 97.3664 2.613 -0.737186 0
M  V30 1097 C 95.8224 1.7154 -3.16389 0
M  V30 1098 C 95.4304 0.845299 -4.39953 0
M  V30 1099 C 97.1744 2.42772 -3.48227 0
M  V30 1100 C 95.0814 1.62198 -5.68723 0
M  V30 1101 H 94.0114 0.353401 -0.666051 0
M  V30 1102 H 96.6624 0.190169 -1.82512 0
M  V30 1103 H 95.0444 2.50484 -3.06715 0
M  V30 1104 H 96.2184 0.0959353 -4.607 0
M  V30 1105 H 94.5334 0.244789 -4.1568 0
M  V30 1106 H 97.1304 3.01394 -4.41663 0
M  V30 1107 H 97.4734 3.15984 -2.71035 0
M  V30 1108 H 98.0064 1.70813 -3.5926 0
M  V30 1109 H 94.7454 0.933011 -6.48826 0
M  V30 1110 H 94.2654 2.34579 -5.52026 0
M  V30 1111 H 95.9444 2.18095 -6.09133 0
M  V30 1112 N 96.0765 1.50051 0.48192 0
M  V30 1113 C 97.0235 1.68122 1.58125 0
M  V30 1114 C 97.9935 0.522545 1.57666 0
M  V30 1115 O 99.1785 0.751844 1.75362 0
M  V30 1116 C 96.3185 1.77142 2.96167 0
M  V30 1117 C 95.4315 3.0444 3.06497 0
M  V30 1118 C 94.5665 3.04321 4.35387 0
M  V30 1119 C 93.6055 4.26118 4.3942 0
M  V30 1120 N 92.7425 4.238 5.59766 0
M  V30 1121 H 97.5825 2.6198 1.42022 0
M  V30 1122 H 95.1195 1.29877 0.690687 0
M  V30 1123 H 97.0775 1.80352 3.76203 0
M  V30 1124 H 95.7075 0.867329 3.1093 0
M  V30 1125 H 94.7595 3.10752 2.19402 0
M  V30 1126 H 96.0715 3.94426 3.05336 0
M  V30 1127 H 95.2255 3.062 5.23762 0
M  V30 1128 H 93.9645 2.12147 4.39141 0
M  V30 1129 H 92.9695 4.24463 3.49444 0
M  V30 1130 H 94.1945 5.19507 4.37366 0
M  V30 1131 H 92.1405 3.34474 5.64326 0
M  V30 1132 H 92.0575 5.07542 5.60301 0
M  V30 1133 H 93.3255 4.2981 6.50295 0
M  V30 1134 N 97.5546 -0.734337 1.39446 0
M  V30 1135 C 98.7846 -1.52137 1.39778 0
M  V30 1136 C 99.1926 -1.89198 -0.00929312 0
M  V30 1137 O 98.5356 -1.54666 -0.991168 0
M  V30 1138 C 98.5976 -2.83762 2.20724 0
M  V30 1139 C 98.2616 -2.69131 3.69347 0
M  V30 1140 C 99.2586 -2.37635 4.62413 0
M  V30 1141 C 96.9436 -2.85982 4.1294 0
M  V30 1142 C 98.9376 -2.23172 5.97054 0
M  V30 1143 C 96.6246 -2.71137 5.47657 0
M  V30 1144 C 97.6226 -2.39777 6.39528 0
M  V30 1145 O 97.3106 -2.25026 7.71763 0
M  V30 1146 H 97.0426 -0.476717 0.479288 0
M  V30 1147 H 99.5966 -0.915012 1.83893 0
M  V30 1148 H 97.8266 -3.4666 1.71359 0
M  V30 1149 H 99.5156 -3.45383 2.13226 0
M  V30 1150 H 100.282 -2.24267 4.30034 0
M  V30 1151 H 96.1606 -3.09383 3.41765 0
M  V30 1152 H 99.7046 -1.98617 6.68728 0
M  V30 1153 H 95.6016 -2.84083 5.79626 0
M  V30 1154 H 96.3696 -2.40091 7.82495 0
M  V30 1155 N 99.0327 -1.24633 -0.964593 0
M  V30 1156 C 99.9827 -1.00841 -2.04487 0
M  V30 1157 C 100.967 0.0512468 -1.60818 0
M  V30 1158 O 102.159 -0.162865 -1.76249 0
M  V30 1159 C 99.2877 -0.618474 -3.37683 0
M  V30 1160 C 98.3737 -1.71437 -3.87905 0
M  V30 1161 N 98.7647 -2.9477 -4.11029 0
M  V30 1162 C 97.0627 -1.5926 -4.16596 0
M  V30 1163 C 97.7637 -3.65834 -4.52261 0
M  V30 1164 N 96.7397 -2.9341 -4.57615 0
M  V30 1165 H 100.542 -1.94487 -2.20345 0
M  V30 1166 H 98.0557 -1.14805 -1.14863 0
M  V30 1167 H 100.053 -0.429247 -4.14684 0
M  V30 1168 H 98.7127 0.310766 -3.23209 0
M  V30 1169 H 99.7237 -3.30917 -3.9839 0
M  V30 1170 H 96.4007 -0.731606 -4.1104 0
M  V30 1171 H 97.7907 -4.71646 -4.78539 0
M  V30 1172 N 100.511 1.16574 -1.06058 0
M  V30 1173 C 101.788 1.83048 -0.689416 0
M  V30 1174 C 102.168 1.94122 0.829443 0
M  V30 1175 O 101.516 1.48249 1.7388 0
M  V30 1176 C 101.726 3.20186 -1.38859 0
M  V30 1177 C 103.074 3.95989 -1.53226 0
M  V30 1178 O 104.098 3.29696 -1.3483 0
M  V30 1179 O 102.957 5.14813 -1.83384 0
M  V30 1180 H 100.051 0.790258 -0.243764 0
M  V30 1181 H 102.597 1.23797 -1.16071 0
M  V30 1182 H 101.369 3.07146 -2.4244 0
M  V30 1183 H 100.992 3.87112 -0.907216 0
M  V30 1184 N 101.989 0.842826 1.3317 0
M  V30 1185 C 102.936 0.276885 2.29133 0
M  V30 1186 C 103.906 -0.609527 1.54512 0
M  V30 1187 O 105.091 -0.546955 1.82792 0
M  V30 1188 C 102.231 -0.538707 3.40869 0
M  V30 1189 C 101.344 0.372169 4.30394 0
M  V30 1190 C 100.479 -0.454908 5.29249 0
M  V30 1191 C 99.5179 0.45411 6.10413 0
M  V30 1192 N 98.6549 -0.335075 7.013 0
M  V30 1193 H 103.495 1.10052 2.76934 0
M  V30 1194 H 101.032 0.554161 1.36262 0
M  V30 1195 H 102.99 -1.02709 4.0436 0
M  V30 1196 H 101.62 -1.32727 2.9425 0
M  V30 1197 H 100.672 0.97888 3.6759 0
M  V30 1198 H 101.984 1.0703 4.87182 0
M  V30 1199 H 101.138 -1.00695 5.98285 0
M  V30 1200 H 99.8769 -1.18646 4.73048 0
M  V30 1201 H 98.8819 1.01813 5.40291 0
M  V30 1202 H 100.107 1.18409 6.68697 0
M  V30 1203 H 98.0529 -1.04994 6.47543 0
M  V30 1204 H 97.9699 0.304262 7.55387 0
M  V30 1205 H 99.2379 -0.869224 7.74638 0
M  V30 1206 N 103.467 -1.45747 0.599634 0
M  V30 1207 C 104.714 -2.02292 0.0917284 0
M  V30 1208 C 105.042 -1.46906 -1.27472 0
M  V30 1209 O 104.297 -0.630652 -1.8526 0
M  V30 1210 C 104.596 -3.57399 -0.00602758 0
M  V30 1211 C 104.262 -4.31902 1.29503 0
M  V30 1212 C 102.924 -4.51974 1.65144 0
M  V30 1213 C 105.276 -4.74551 2.15525 0
M  V30 1214 C 102.604 -5.11949 2.86574 0
M  V30 1215 C 104.956 -5.35868 3.36196 0
M  V30 1216 C 103.62 -5.54165 3.72099 0
M  V30 1217 H 102.89 -0.740239 0.0335658 0
M  V30 1218 H 105.537 -1.7491 0.779661 0
M  V30 1219 H 103.842 -3.84014 -0.777183 0
M  V30 1220 H 105.539 -3.98846 -0.415038 0
M  V30 1221 H 102.129 -4.16588 1.00761 0
M  V30 1222 H 106.313 -4.58784 1.8929 0
M  V30 1223 H 101.569 -5.24305 3.14507 0
M  V30 1224 H 105.743 -5.6787 4.03109 0
M  V30 1225 H 103.37 -6.00406 4.6628 0
M  V30 1226 N 104.945 -0.338344 -1.53925 0
M  V30 1227 C 106.194 0.260732 -2.00008 0
M  V30 1228 C 106.507 1.52073 -1.23017 0
M  V30 1229 O 107.713 2.19672 -1.5955 0
M  V30 1230 C 106.169 0.51515 -3.56194 0
M  V30 1231 C 105.777 -0.728645 -4.42035 0
M  V30 1232 C 107.521 1.07337 -4.10706 0
M  V30 1233 C 105.428 -0.445315 -5.89721 0
M  V30 1234 H 104.358 0.101205 -0.747177 0
M  V30 1235 H 107.009 -0.452866 -1.77824 0
M  V30 1236 H 105.391 1.28932 -3.74423 0
M  V30 1237 H 106.565 -1.50352 -4.35581 0
M  V30 1238 H 104.88 -1.20813 -3.98489 0
M  V30 1239 H 107.477 1.30022 -5.18651 0
M  V30 1240 H 107.82 2.0273 -3.63602 0
M  V30 1241 H 108.353 0.360034 -3.96167 0
M  V30 1242 H 105.092 -1.36883 -6.41049 0
M  V30 1243 H 104.612 0.291569 -5.99091 0
M  V30 1244 H 106.291 -0.0606218 -6.46972 0
M  V30 1245 N 106.423 1.57458 -0.0668435 0
M  V30 1246 C 107.371 2.13639 0.919851 0
M  V30 1247 C 108.365 1.07204 1.31163 0
M  V30 1248 O 109.571 1.25591 1.28945 0
M  V30 1249 H 105.946 0.683048 0.314562 0
M  V30 1250 H 107.917 2.95415 0.421047 0
M  V30 1251 C 106.666 2.70892 2.17975 0
M  V30 1252 H 105.989 3.5246 1.88711 0
M  V30 1253 H 107.429 3.13803 2.85138 0
M  V30 1254 C 105.888 1.65414 2.93496 0
M  V30 1255 O 106.418 1.07619 3.87015 0
M  V30 1256 N 104.624 1.36564 2.56512 0
M  V30 1257 H 104.171 1.83751 1.80536 0
M  V30 1258 H 104.129 0.66223 3.07347 0
M  V30 1259 N 107.901 -0.206675 1.56239 0
M  V30 1260 C 108.849 -1.27571 1.94495 0
M  V30 1261 C 109.843 -1.47737 0.828862 0
M  V30 1262 O 111.049 -1.48735 1.0138 0
M  V30 1263 H 107.424 -0.428029 0.6183 0
M  V30 1264 H 109.395 -0.925961 2.8367 0
M  V30 1265 C 108.144 -2.61568 2.29079 0
M  V30 1266 H 107.467 -2.46863 3.14482 0
M  V30 1267 H 108.907 -3.35144 2.5972 0
M  V30 1268 C 107.366 -3.17695 1.12123 0
M  V30 1269 O 107.896 -3.99801 0.390153 0
M  V30 1270 N 106.102 -2.76276 0.901097 0
M  V30 1271 H 105.649 -2.09613 1.49733 0
M  V30 1272 H 105.607 -3.1417 0.120319 0
M  V30 1273 N 109.379 -1.50304 -0.473955 0
M  V30 1274 C 110.626 -1.6115 -1.22625 0
M  V30 1275 C 110.954 -0.310517 -1.92005 0
M  V30 1276 O 110.209 0.703419 -1.82621 0
M  V30 1277 C 110.508 -2.73938 -2.29549 0
M  V30 1278 C 110.174 -4.14519 -1.7744 0
M  V30 1279 C 108.836 -4.5277 -1.62949 0
M  V30 1280 C 111.188 -5.02392 -1.3875 0
M  V30 1281 C 108.516 -5.76639 -1.08187 0
M  V30 1282 C 110.868 -6.26805 -0.854309 0
M  V30 1283 C 109.532 -6.63861 -0.696011 0
M  V30 1284 H 108.802 -0.589691 -0.448715 0
M  V30 1285 H 111.449 -1.84228 -0.522705 0
M  V30 1286 H 109.754 -2.44937 -3.05799 0
M  V30 1287 H 111.451 -2.79534 -2.87509 0
M  V30 1288 H 108.041 -3.8434 -1.89685 0
M  V30 1289 H 112.225 -4.73474 -1.4878 0
M  V30 1290 H 107.481 -6.04027 -0.946666 0
M  V30 1291 H 111.655 -6.94258 -0.545843 0
M  V30 1292 H 109.282 -7.59722 -0.26952 0
M  V30 1293 N 110.857 0.726932 -1.39834 0
M  V30 1294 C 112.104 1.48664 -1.37496 0
M  V30 1295 C 112.432 1.94482 0.0264678 0
M  V30 1296 O 111.687 1.67692 1.00886 0
M  V30 1297 C 111.986 2.73495 -2.30077 0
M  V30 1298 C 111.652 2.46502 -3.77555 0
M  V30 1299 C 110.314 2.3885 -4.17737 0
M  V30 1300 C 112.666 2.23604 -4.70798 0
M  V30 1301 C 109.994 2.06352 -5.49214 0
M  V30 1302 C 112.346 1.92622 -6.02561 0
M  V30 1303 C 111.01 1.83444 -6.41798 0
M  V30 1304 H 110.28 0.544001 -0.503135 0
M  V30 1305 H 112.927 0.833657 -1.72402 0
M  V30 1306 H 111.232 3.43575 -1.88317 0
M  V30 1307 H 112.929 3.31549 -2.25558 0
M  V30 1308 H 109.519 2.5334 -3.45712 0
M  V30 1309 H 113.703 2.28479 -4.40581 0
M  V30 1310 H 108.959 1.97776 -5.78528 0
M  V30 1311 H 113.133 1.73914 -6.74334 0
M  V30 1312 H 110.76 1.58029 -7.43593 0
M  V30 1313 N 112.336 1.25143 0.95797 0
M  V30 1314 C 113.266 1.07711 2.07173 0
M  V30 1315 C 114.247 -0.0128462 1.70095 0
M  V30 1316 O 115.432 0.156061 1.93572 0
M  V30 1317 C 112.562 0.691503 3.40346 0
M  V30 1318 C 111.516 1.73132 3.9142 0
M  V30 1319 C 110.842 1.20049 5.21049 0
M  V30 1320 C 112.142 3.1294 4.1817 0
M  V30 1321 H 113.836 2.00873 2.22014 0
M  V30 1322 H 111.382 0.967191 1.06684 0
M  V30 1323 H 113.335 0.556505 4.17709 0
M  V30 1324 H 112.059 -0.275819 3.25433 0
M  V30 1325 H 110.718 1.8547 3.16222 0
M  V30 1326 H 110.366 0.223499 5.02503 0
M  V30 1327 H 110.066 1.89545 5.56189 0
M  V30 1328 H 111.59 1.07782 6.01012 0
M  V30 1329 H 113.004 3.03775 4.86203 0
M  V30 1330 H 111.401 3.79875 4.64559 0
M  V30 1331 H 112.471 3.6025 3.24573 0
M  V30 1332 N 113.814 -1.1601 1.06675 0
M  V30 1333 C 114.761 -2.20525 0.680967 0
M  V30 1334 C 115.731 -1.62904 -0.324283 0
M  V30 1335 O 116.916 -1.89615 -0.212294 0
M  V30 1336 C 114.056 -3.45013 0.0776551 0
M  V30 1337 C 113.169 -4.16863 1.13355 0
M  V30 1338 C 112.304 -5.2888 0.49597 0
M  V30 1339 C 111.343 -5.92537 1.53513 0
M  V30 1340 N 110.48 -6.96038 0.920631 0
M  V30 1341 H 115.32 -2.52876 1.57663 0
M  V30 1342 H 112.857 -1.24199 0.788223 0
M  V30 1343 H 114.815 -4.16193 -0.289704 0
M  V30 1344 H 113.445 -3.132 -0.781393 0
M  V30 1345 H 112.497 -3.44248 1.61857 0
M  V30 1346 H 113.809 -4.60294 1.92174 0
M  V30 1347 H 112.963 -6.06653 0.0758604 0
M  V30 1348 H 111.702 -4.86622 -0.324062 0
M  V30 1349 H 110.707 -5.13482 1.9651 0
M  V30 1350 H 111.932 -6.36873 2.35733 0
M  V30 1351 H 109.878 -6.55888 0.12138 0
M  V30 1352 H 109.795 -7.3786 1.64616 0
M  V30 1353 H 111.063 -7.77725 0.525795 0
M  V30 1354 N 115.292 -0.849877 -1.32721 0
M  V30 1355 C 116.225 -0.235903 -2.26977 0
M  V30 1356 C 117.203 0.623355 -1.50177 0
M  V30 1357 O 118.387 0.581207 -1.79316 0
M  V30 1358 C 115.514 0.667712 -3.32053 0
M  V30 1359 C 114.56 -0.11753 -4.26338 0
M  V30 1360 S 115.393 -1.48277 -5.14562 0
M  V30 1361 C 116.549 -0.584741 -6.23163 0
M  V30 1362 H 116.782 -1.03495 -2.78704 0
M  V30 1363 H 114.315 -0.64724 -1.40179 0
M  V30 1364 H 116.273 1.18343 -3.93072 0
M  V30 1365 H 114.934 1.44052 -2.7912 0
M  V30 1366 H 114.127 0.57051 -5.00761 0
M  V30 1367 H 113.729 -0.564668 -3.69713 0
M  V30 1368 H 116.021 0.212968 -6.77165 0
M  V30 1369 H 116.964 -1.29947 -6.96074 0
M  V30 1370 H 117.372 -0.161202 -5.6427 0
M  V30 1371 N 116.77 1.45427 -0.607355 0
M  V30 1372 C 118.019 2.01452 -0.100036 0
M  V30 1373 C 118.332 1.48159 1.27704 0
M  V30 1374 O 119.538 1.96159 1.87707 0
M  V30 1375 C 117.994 3.59672 -0.128158 0
M  V30 1376 C 117.602 4.21962 -1.50507 0
M  V30 1377 C 119.346 4.23262 0.323932 0
M  V30 1378 C 117.253 5.72333 -1.48959 0
M  V30 1379 H 116.183 0.75325 -0.0336299 0
M  V30 1380 H 118.834 1.66901 -0.76265 0
M  V30 1381 H 117.216 3.91411 0.601105 0
M  V30 1382 H 118.39 4.01796 -2.25602 0
M  V30 1383 H 116.705 3.70565 -1.89923 0
M  V30 1384 H 119.302 5.33522 0.354691 0
M  V30 1385 H 119.645 3.93921 1.34656 0
M  V30 1386 H 120.178 3.96239 -0.352056 0
M  V30 1387 H 116.917 6.06373 -2.48981 0
M  V30 1388 H 116.437 5.94691 -0.781214 0
M  V30 1389 H 118.116 6.35525 -1.21313 0
M  V30 1390 N 118.248 0.346503 1.53744 0
M  V30 1391 C 119.497 -0.250122 2.00143 0
M  V30 1392 C 119.81 -1.51418 1.23822 0
M  V30 1393 O 121.016 -2.18823 1.60713 0
M  V30 1394 C 119.472 -0.496252 3.56462 0
M  V30 1395 C 119.08 0.752077 4.41642 0
M  V30 1396 C 120.824 -1.05157 4.11269 0
M  V30 1397 C 118.731 0.476583 5.89477 0
M  V30 1398 H 117.661 -0.0972409 0.747703 0
M  V30 1399 H 120.312 0.46229 1.77581 0
M  V30 1400 H 118.694 -1.26944 3.75102 0
M  V30 1401 H 119.868 1.5266 4.34778 0
M  V30 1402 H 118.183 1.22925 3.97842 0
M  V30 1403 H 120.78 -1.27269 5.19333 0
M  V30 1404 H 121.123 -2.00799 3.64672 0
M  V30 1405 H 121.656 -0.339019 3.96353 0
M  V30 1406 H 118.395 1.4028 6.40314 0
M  V30 1407 H 117.915 -0.259794 5.99237 0
M  V30 1408 H 119.594 0.0949315 6.4693 0
M  V30 1409 N 119.726 -1.57421 0.075193 0
M  V30 1410 C 120.975 -1.92794 -0.592731 0
M  V30 1411 C 121.288 -0.957478 -1.70563 0
M  V30 1412 O 122.494 -1.20417 -2.43335 0
M  V30 1413 C 120.95 -3.42495 -1.10569 0
M  V30 1414 C 120.558 -4.47994 -0.0236121 0
M  V30 1415 C 122.302 -3.86864 -1.74748 0
M  V30 1416 C 120.209 -5.88829 -0.550803 0
M  V30 1417 H 119.139 -0.719591 -0.225177 0
M  V30 1418 H 121.79 -1.82902 0.147978 0
M  V30 1419 H 120.172 -3.47471 -1.89947 0
M  V30 1420 H 121.346 -4.54637 0.751099 0
M  V30 1421 H 119.661 -4.13113 0.522159 0
M  V30 1422 H 122.258 -4.8947 -2.15229 0
M  V30 1423 H 122.601 -3.24417 -2.60882 0
M  V30 1424 H 123.134 -3.84504 -1.01986 0
M  V30 1425 H 119.873 -6.54929 0.273457 0
M  V30 1426 H 119.393 -5.85698 -1.29296 0
M  V30 1427 H 121.072 -6.38811 -1.02613 0
M  V30 1428 N 121.204 0.198386 -1.56346 0
M  V30 1429 C 122.451 0.919286 -1.80431 0
M  V30 1430 C 122.779 1.83393 -0.647866 0
M  V30 1431 O 122.034 1.92236 0.366556 0
M  V30 1432 C 122.333 1.77031 -3.10475 0
M  V30 1433 C 121.999 1.00693 -4.39513 0
M  V30 1434 C 120.661 0.796145 -4.74568 0
M  V30 1435 C 123.013 0.469559 -5.19081 0
M  V30 1436 C 120.341 0.0364588 -5.86689 0
M  V30 1437 C 122.693 -0.2769 -6.31994 0
M  V30 1438 C 121.357 -0.49873 -6.65634 0
M  V30 1439 H 120.627 0.336391 -0.660244 0
M  V30 1440 H 123.274 0.185872 -1.90596 0
M  V30 1441 H 121.579 2.5723 -2.95533 0
M  V30 1442 H 123.276 2.33065 -3.26315 0
M  V30 1443 H 119.866 1.18122 -4.12001 0
M  V30 1444 H 124.05 0.619816 -4.92414 0
M  V30 1445 H 119.306 -0.145412 -6.11227 0
M  V30 1446 H 123.48 -0.700684 -6.92866 0
M  V30 1447 H 121.107 -1.0893 -7.52355 0
M  V30 1448 N 122.682 1.50554 0.465978 0
M  V30 1449 C 123.612 1.72722 1.57128 0
M  V30 1450 C 124.593 0.576294 1.6004 0
M  V30 1451 O 125.778 0.81598 1.76225 0
M  V30 1452 C 122.908 1.82605 2.95419 0
M  V30 1453 C 121.862 2.97835 3.07373 0
M  V30 1454 C 121.188 2.92867 4.47363 0
M  V30 1455 C 122.488 4.38265 2.84114 0
M  V30 1456 H 124.182 2.65267 1.38829 0
M  V30 1457 H 121.728 1.2765 0.666441 0
M  V30 1458 H 123.681 1.96698 3.72677 0
M  V30 1459 H 122.405 0.866858 3.14886 0
M  V30 1460 H 121.064 2.83401 2.3255 0
M  V30 1461 H 120.712 1.94783 4.63755 0
M  V30 1462 H 120.412 3.70227 4.56296 0
M  V30 1463 H 121.936 3.09015 5.26633 0
M  V30 1464 H 123.35 4.53198 3.51118 0
M  V30 1465 H 121.747 5.17115 3.04487 0
M  V30 1466 H 122.817 4.50281 1.7993 0
M  V30 1467 N 124.16 -0.719506 1.40217 0
M  V30 1468 C 125.409 -1.47486 1.37589 0
M  V30 1469 C 125.722 -1.9559 -0.0201568 0
M  V30 1470 O 126.928 -2.70973 -0.169049 0
M  V30 1471 C 125.384 -2.66575 2.41796 0
M  V30 1472 C 124.992 -2.25358 3.87192 0
M  V30 1473 C 126.736 -3.4433 2.48269 0
M  V30 1474 C 124.643 -3.41262 4.83005 0
M  V30 1475 H 123.573 -0.553901 0.511576 0
M  V30 1476 H 126.224 -0.783427 1.65936 0
M  V30 1477 H 124.606 -3.3787 2.06543 0
M  V30 1478 H 125.78 -1.61509 4.31569 0
M  V30 1479 H 124.095 -1.60657 3.84159 0
M  V30 1480 H 126.692 -4.30569 3.17041 0
M  V30 1481 H 127.035 -3.87872 1.51198 0
M  V30 1482 H 127.568 -2.80076 2.82493 0
M  V30 1483 H 124.307 -3.02755 5.81394 0
M  V30 1484 H 123.827 -4.0404 4.43297 0
M  V30 1485 H 125.506 -4.07383 5.02641 0
M  V30 1486 N 125.638 -1.25649 -0.95132 0
M  V30 1487 C 126.887 -1.09988 -1.69073 0
M  V30 1488 C 127.2 0.358355 -1.92289 0
M  V30 1489 O 128.406 0.635466 -2.63958 0
M  V30 1490 C 126.862 -1.92012 -3.044 0
M  V30 1491 C 126.47 -3.42347 -2.88968 0
M  V30 1492 C 128.214 -1.8493 -3.82101 0
M  V30 1493 C 126.121 -4.16655 -4.19705 0
M  V30 1494 H 125.051 -0.407993 -0.63408 0
M  V30 1495 H 127.702 -1.49873 -1.05879 0
M  V30 1496 H 126.084 -1.44952 -3.68517 0
M  V30 1497 H 127.258 -3.97104 -2.33762 0
M  V30 1498 H 125.573 -3.50557 -2.24719 0
M  V30 1499 H 128.17 -2.37739 -4.78941 0
M  V30 1500 H 128.513 -0.817883 -4.08187 0
M  V30 1501 H 129.046 -2.29758 -3.2474 0
M  V30 1502 H 125.785 -5.20224 -3.98807 0
M  V30 1503 H 125.305 -3.66681 -4.74663 0
M  V30 1504 H 126.984 -4.24551 -4.88227 0
M  V30 1505 N 127.117 1.15442 -1.07289 0
M  V30 1506 C 128.065 2.22225 -0.686952 0
M  V30 1507 C 129.059 1.66688 0.30193 0
M  V30 1508 O 130.265 1.79236 0.165712 0
M  V30 1509 H 126.64 0.723783 -0.204064 0
M  V30 1510 H 128.611 2.52056 -1.5972 0
M  V30 1511 C 127.36 3.47556 -0.100149 0
M  V30 1512 H 126.683 3.90612 -0.852211 0
M  V30 1513 H 128.123 4.23794 0.132235 0
M  V30 1514 C 126.582 3.16337 1.159 0
M  V30 1515 O 127.112 3.33074 2.24555 0
M  V30 1516 N 125.318 2.70385 1.06491 0
M  V30 1517 H 124.865 2.56966 0.180668 0
M  V30 1518 H 124.823 2.49871 1.90819 0
M  V30 1519 N 128.595 0.856903 1.32268 0
M  V30 1520 C 129.558 0.308171 2.27119 0
M  V30 1521 C 130.558 -0.533421 1.51695 0
M  V30 1522 O 131.748 -0.344607 1.70757 0
M  V30 1523 C 128.88 -0.563757 3.36206 0
M  V30 1524 H 130.073 1.14535 2.77167 0
M  V30 1525 H 127.626 0.631421 1.42978 0
M  V30 1526 H 128.361 -1.42266 2.91429 0
M  V30 1527 H 128.146 0.0386749 3.92081 0
M  V30 1528 H 129.636 -0.940386 4.06874 0
M  V30 1529 N 130.073 -1.45103 0.615059 0
M  V30 1530 C 131.303 -2.06254 0.119596 0
M  V30 1531 C 131.711 -1.4591 -1.20445 0
M  V30 1532 O 131.054 -0.570384 -1.7462 0
M  V30 1533 C 131.116 -3.59396 -0.0865591 0
M  V30 1534 C 130.78 -4.42116 1.15683 0
M  V30 1535 C 131.777 -4.7662 2.07676 0
M  V30 1536 C 129.462 -4.82749 1.38775 0
M  V30 1537 C 131.456 -5.50622 3.21082 0
M  V30 1538 C 129.143 -5.56504 2.52481 0
M  V30 1539 C 130.141 -5.90358 3.43463 0
M  V30 1540 O 129.829 -6.62615 4.55189 0
M  V30 1541 H 129.561 -0.672423 0.0694512 0
M  V30 1542 H 132.115 -1.87219 0.844885 0
M  V30 1543 H 130.345 -3.76859 -0.866823 0
M  V30 1544 H 132.034 -4.02365 -0.534555 0
M  V30 1545 H 132.8 -4.4578 1.91063 0
M  V30 1546 H 128.679 -4.55829 0.688545 0
M  V30 1547 H 132.223 -5.76965 3.92119 0
M  V30 1548 H 128.12 -5.86759 2.69043 0
M  V30 1549 H 128.888 -6.81071 4.53966 0
M  V30 1550 N 131.551 -0.354651 -1.53558 0
M  V30 1551 C 132.481 0.489091 -2.2832 0
M  V30 1552 C 133.462 1.09324 -1.30316 0
M  V30 1553 O 134.647 1.11255 -1.59173 0
M  V30 1554 C 131.777 1.63456 -3.0643 0
M  V30 1555 C 130.731 1.1582 -4.12031 0
M  V30 1556 C 130.057 2.39305 -4.7816 0
M  V30 1557 C 131.357 0.250731 -5.21698 0
M  V30 1558 H 133.051 -0.134614 -2.99097 0
M  V30 1559 H 130.597 -0.0661826 -1.43848 0
M  V30 1560 H 132.55 2.23136 -3.57475 0
M  V30 1561 H 131.274 2.28533 -2.33325 0
M  V30 1562 H 129.933 0.584146 -3.61916 0
M  V30 1563 H 129.581 3.02814 -4.01637 0
M  V30 1564 H 129.281 2.08109 -5.49513 0
M  V30 1565 H 130.805 2.99691 -5.31994 0
M  V30 1566 H 132.219 0.754695 -5.68311 0
M  V30 1567 H 130.616 0.0301468 -6.00092 0
M  V30 1568 H 131.686 -0.710125 -4.79672 0
M  V30 1569 N 133.029 1.57378 -0.0835403 0
M  V30 1570 C 133.979 2.09916 0.889905 0
M  V30 1571 C 134.963 1.01151 1.25129 0
M  V30 1572 O 136.155 1.27443 1.2283 0
M  V30 1573 C 133.284 2.67379 2.15322 0
M  V30 1574 C 132.37 3.83167 1.81779 0
M  V30 1575 N 132.761 4.91665 1.18739 0
M  V30 1576 C 131.059 3.92685 2.11459 0
M  V30 1577 C 131.76 5.72409 1.0355 0
M  V30 1578 N 130.736 5.21062 1.54906 0
M  V30 1579 H 134.538 2.91188 0.398378 0
M  V30 1580 H 132.052 1.61956 0.120013 0
M  V30 1581 H 134.049 3.0334 2.8599 0
M  V30 1582 H 132.709 1.87558 2.65051 0
M  V30 1583 H 133.72 5.10784 0.855604 0
M  V30 1584 H 130.397 3.23856 2.63483 0
M  V30 1585 H 131.787 6.69699 0.543425 0
M  V30 1586 N 134.507 -0.190092 1.56449 0
M  V30 1587 C 135.918 -0.754312 1.70784 0
M  V30 1588 C 136.269 -1.83631 0.690951 0
M  V30 1589 O 135.394 -2.15868 -0.151604 0
M  V30 1590 C 135.989 -1.37503 3.09642 0
M  V30 1591 C 134.548 -1.88628 3.25725 0
M  V30 1592 C 133.695 -0.758098 2.66736 0
M  V30 1593 H 136.646 0.0350524 1.58661 0
M  V30 1594 H 136.667 -2.2445 3.0725 0
M  V30 1595 H 136.179 -0.587302 3.83631 0
M  V30 1596 H 134.28 -2.70103 2.56661 0
M  V30 1597 H 134.393 -2.04462 4.3328 0
M  V30 1598 H 132.757 -1.17369 2.26046 0
M  V30 1599 H 133.54 0.0174705 3.43296 0
M  V30 1600 N 135.985 -1.50799 -0.457987 0
M  V30 1601 C 136.933 -1.71162 -1.575 0
M  V30 1602 C 137.927 -0.577592 -1.59249 0
M  V30 1603 O 139.133 -0.758443 -1.63241 0
M  V30 1604 H 135.508 -0.540468 -0.522875 0
M  V30 1605 H 137.479 -2.64837 -1.37492 0
M  V30 1606 C 136.228 -1.83496 -2.95338 0
M  V30 1607 H 135.551 -2.70153 -2.94716 0
M  V30 1608 H 136.991 -2.01765 -3.72917 0
M  V30 1609 C 135.45 -0.589694 -3.31699 0
M  V30 1610 O 135.98 0.265163 -4.00824 0
M  V30 1611 N 134.186 -0.439845 -2.87252 0
M  V30 1612 H 133.733 -1.13655 -2.31172 0
M  V30 1613 H 133.691 0.392159 -3.11945 0
M  V30 1614 N 137.463 0.71206 -1.40597 0
M  V30 1615 C 138.71 1.47197 -1.39065 0
M  V30 1616 C 139.038 1.94499 0.00583891 0
M  V30 1617 O 138.293 1.68752 0.99102 0
M  V30 1618 C 138.592 2.71039 -2.32965 0
M  V30 1619 C 138.258 2.42484 -3.80148 0
M  V30 1620 C 136.92 2.34406 -4.20247 0
M  V30 1621 C 139.272 2.18598 -4.73143 0
M  V30 1622 C 136.6 2.00516 -5.51371 0
M  V30 1623 C 138.952 1.8622 -6.0457 0
M  V30 1624 C 137.616 1.76626 -6.43708 0
M  V30 1625 H 136.886 0.538634 -0.508876 0
M  V30 1626 H 139.533 0.815325 -1.73276 0
M  V30 1627 H 137.838 3.41558 -1.91951 0
M  V30 1628 H 139.535 3.29138 -2.29061 0
M  V30 1629 H 136.125 2.49659 -3.4838 0
M  V30 1630 H 140.309 2.23793 -4.42979 0
M  V30 1631 H 135.565 1.91628 -5.80593 0
M  V30 1632 H 139.739 1.66752 -6.76141 0
M  V30 1633 H 137.366 1.50133 -7.45228 0
M  V30 1634 N 138.941 1.26152 0.944643 0
M  V30 1635 C 139.851 1.09176 2.07648 0
M  V30 1636 C 140.867 0.0261935 1.7398 0
M  V30 1637 O 142.043 0.229208 2.00091 0
M  V30 1638 C 139.108 0.722915 3.39079 0
M  V30 1639 C 138.169 1.86752 3.86552 0
M  V30 1640 C 137.402 1.51617 5.11711 0
M  V30 1641 O 137.625 0.416331 5.68879 0
M  V30 1642 O 136.559 2.34975 5.54139 0
M  V30 1643 H 140.385 2.0412 2.24875 0
M  V30 1644 H 137.97 1.05182 1.061 0
M  V30 1645 H 139.852 0.529787 4.18056 0
M  V30 1646 H 138.527 -0.197159 3.23099 0
M  V30 1647 H 137.434 2.11558 3.08535 0
M  V30 1648 H 138.767 2.76719 4.07047 0
M  V30 1649 N 140.419 -1.14872 1.07899 0
M  V30 1650 C 141.835 -1.37776 0.805606 0
M  V30 1651 C 142.035 -1.92743 -0.587555 0
M  V30 1652 O 141.091 -2.13678 -1.34528 0
M  V30 1653 C 142.404 -2.34361 1.88402 0
M  V30 1654 C 143.952 -2.48012 1.90942 0
M  V30 1655 C 144.427 -3.47893 2.97883 0
M  V30 1656 N 145.918 -3.55433 2.97021 0
M  V30 1657 C 146.653 -4.32553 3.76412 0
M  V30 1658 N 146.149 -5.12959 4.65666 0
M  V30 1659 N 147.942 -4.27697 3.64735 0
M  V30 1660 H 140.093 -0.775365 1.97742 0
M  V30 1661 H 142.356 -0.403521 0.857831 0
M  V30 1662 H 142.062 -2.01098 2.88535 0
M  V30 1663 H 141.936 -3.34206 1.74889 0
M  V30 1664 H 144.323 -2.8057 0.914579 0
M  V30 1665 H 144.404 -1.48147 2.08534 0
M  V30 1666 H 144.048 -3.16069 3.97571 0
M  V30 1667 H 143.978 -4.47527 2.77538 0
M  V30 1668 H 146.469 -2.98048 2.32326 0
M  V30 1669 H 146.782 -5.69065 5.22862 0
M  V30 1670 H 145.127 -5.12245 4.69712 0
M  V30 1671 H 148.318 -3.63949 2.94378 0
M  V30 1672 H 148.491 -4.8755 4.26848 0
M  V30 1673 N 141.898 -0.863906 -1.31812 0
M  V30 1674 C 142.808 -0.318461 -2.32428 0
M  V30 1675 C 143.824 0.568496 -1.64451 0
M  V30 1676 O 145 0.46666 -1.95919 0
M  V30 1677 C 142.065 0.476355 -3.43412 0
M  V30 1678 C 141.126 -0.43784 -4.27061 0
M  V30 1679 C 140.359 0.319138 -5.32745 0
M  V30 1680 O 140.582 1.54799 -5.48993 0
M  V30 1681 O 139.516 -0.319861 -6.01049 0
M  V30 1682 H 143.342 -1.15229 -2.80991 0
M  V30 1683 H 140.927 -0.627103 -1.35602 0
M  V30 1684 H 142.809 0.927156 -4.11074 0
M  V30 1685 H 141.484 1.28683 -2.97022 0
M  V30 1686 H 140.391 -0.937013 -3.62175 0
M  V30 1687 H 141.724 -1.21375 -4.77 0
M  V30 1688 N 143.376 1.44774 -0.622745 0
M  V30 1689 C 144.324 2.32387 0.0994683 0
M  V30 1690 C 145.318 1.46859 0.844326 0
M  V30 1691 O 146.524 1.63254 0.758174 0
M  V30 1692 H 142.899 0.750273 0.0509291 0
M  V30 1693 H 144.87 2.91062 -0.65767 0
M  V30 1694 C 143.619 3.30723 1.07319 0
M  V30 1695 H 142.942 3.96541 0.509462 0
M  V30 1696 H 144.382 3.94725 1.54817 0
M  V30 1697 C 142.841 2.59021 2.15429 0
M  V30 1698 O 143.371 2.38286 3.23393 0
M  V30 1699 N 141.577 2.189 1.91131 0
M  V30 1700 H 141.124 2.35964 1.03337 0
M  V30 1701 H 141.082 1.71251 2.63668 0
M  V30 1702 N 144.854 0.36279 1.53368 0
M  V30 1703 C 146.103 -0.22888 2.00397 0
M  V30 1704 C 146.416 -1.50096 1.25421 0
M  V30 1705 O 147.622 -2.17106 1.63025 0
M  V30 1706 C 146.078 -0.458417 3.56969 0
M  V30 1707 C 145.686 0.798877 4.4082 0
M  V30 1708 C 147.43 -1.00789 4.12361 0
M  V30 1709 C 145.337 0.539078 5.88938 0
M  V30 1710 H 144.267 -0.089305 0.748693 0
M  V30 1711 H 146.918 0.481099 1.77081 0
M  V30 1712 H 145.3 -1.22959 3.76427 0
M  V30 1713 H 146.474 1.57262 4.33134 0
M  V30 1714 H 144.789 1.27137 3.96516 0
M  V30 1715 H 147.386 -1.21754 5.20653 0
M  V30 1716 H 147.729 -1.9692 3.66781 0
M  V30 1717 H 148.262 -0.296961 3.9669 0
M  V30 1718 H 145.001 1.47064 6.3879 0
M  V30 1719 H 144.521 -0.196222 5.99479 0
M  V30 1720 H 146.2 0.163542 6.46793 0
M  V30 1721 N 146.332 -1.57332 0.0918853 0
M  V30 1722 C 147.279 -2.13847 -0.868211 0
M  V30 1723 C 148.249 -1.05618 -1.28196 0
M  V30 1724 O 149.434 -1.33387 -1.36427 0
M  V30 1725 C 146.574 -2.72062 -2.12312 0
M  V30 1726 C 145.687 -3.94514 -1.7602 0
M  V30 1727 C 144.822 -4.40903 -2.96273 0
M  V30 1728 C 143.861 -5.55953 -2.56092 0
M  V30 1729 N 142.998 -5.97209 -3.69169 0
M  V30 1730 H 147.838 -2.95575 -0.379406 0
M  V30 1731 H 145.375 -1.46048 -0.175606 0
M  V30 1732 H 147.333 -3.03931 -2.858 0
M  V30 1733 H 145.963 -1.93068 -2.58698 0
M  V30 1734 H 145.015 -3.68979 -0.925135 0
M  V30 1735 H 146.327 -4.7802 -1.42472 0
M  V30 1736 H 145.481 -4.74539 -3.78018 0
M  V30 1737 H 144.22 -3.56291 -3.33029 0
M  V30 1738 H 143.225 -5.21948 -1.72773 0
M  V30 1739 H 144.45 -6.42311 -2.20484 0
M  V30 1740 H 142.396 -5.15543 -4.05649 0
M  V30 1741 H 142.313 -6.75504 -3.39456 0
M  V30 1742 H 143.581 -6.35475 -4.51434 0
M  V30 1743 N 147.81 0.181792 -1.56548 0
M  V30 1744 C 148.758 1.24461 -1.965 0
M  V30 1745 C 149.752 1.464 -0.852261 0
M  V30 1746 O 150.958 1.47103 -1.03733 0
M  V30 1747 H 147.333 0.418138 -0.625031 0
M  V30 1748 H 149.304 0.880714 -2.85107 0
M  V30 1749 C 148.053 2.57891 -2.33212 0
M  V30 1750 H 147.376 2.41829 -3.18369 0
M  V30 1751 H 148.816 3.3097 -2.65019 0
M  V30 1752 C 147.275 3.15871 -1.17163 0
M  V30 1753 O 147.805 3.9913 -0.453708 0
M  V30 1754 N 146.011 2.74808 -0.944936 0
M  V30 1755 H 145.558 2.07205 -1.53049 0
M  V30 1756 H 145.516 3.13939 -0.170286 0
M  V30 1757 N 149.288 1.51039 0.449983 0
M  V30 1758 C 150.516 1.66869 1.2232 0
M  V30 1759 C 150.931 0.360727 1.85322 0
M  V30 1760 O 150.288 -0.659531 1.70166 0
M  V30 1761 C 150.339 2.77524 2.31652 0
M  V30 1762 O 150.06 4.03252 1.7123 0
M  V30 1763 C 151.561 3.04512 3.2216 0
M  V30 1764 H 148.781 0.560326 0.369155 0
M  V30 1765 H 151.325 1.97385 0.534719 0
M  V30 1766 H 149.48 2.49642 2.96239 0
M  V30 1767 H 149.894 4.64609 2.43389 0
M  V30 1768 H 151.368 3.85551 3.95038 0
M  V30 1769 H 151.845 2.16415 3.8218 0
M  V30 1770 H 152.451 3.34005 2.63288 0
M  V30 1771 N 150.766 -0.704594 1.40972 0
M  V30 1772 C 152.014 -1.46169 1.39568 0
M  V30 1773 C 152.335 -1.95 0.00253745 0
M  V30 1774 O 151.605 -1.71095 -0.954114 0
M  V30 1775 H 150.185 -0.542326 0.513704 0
M  V30 1776 H 152.847 -0.834553 1.76128 0
M  V30 1777 H 151.943 -2.32922 2.07735 0
M  V30 1778 N 152.244 -1.26651 -0.937939 0
M  V30 1779 C 153.493 -1.11775 -1.67897 0
M  V30 1780 C 153.806 0.33794 -1.92659 0
M  V30 1781 O 155.012 0.607434 -2.64618 0
M  V30 1782 C 153.468 -1.9523 -3.02346 0
M  V30 1783 C 153.076 -3.45393 -2.8532 0
M  V30 1784 C 154.82 -1.88972 -3.80118 0
M  V30 1785 C 152.727 -4.21083 -4.15263 0
M  V30 1786 H 151.657 -0.414696 -0.629717 0
M  V30 1787 H 154.308 -1.50988 -1.04283 0
M  V30 1788 H 152.69 -1.48853 -3.66959 0
M  V30 1789 H 153.864 -3.99561 -2.29537 0
M  V30 1790 H 152.179 -3.52921 -2.20988 0
M  V30 1791 H 154.776 -2.42805 -4.76392 0
M  V30 1792 H 155.119 -0.86113 -4.07296 0
M  V30 1793 H 155.652 -2.33189 -3.22285 0
M  V30 1794 H 152.391 -5.24425 -3.93267 0
M  V30 1795 H 151.911 -3.71695 -4.70747 0
M  V30 1796 H 153.59 -4.29706 -4.83696 0
M  V30 1797 N 153.722 1.14298 -1.08507 0
M  V30 1798 C 154.652 2.21542 -0.737646 0
M  V30 1799 C 155.633 1.67773 0.280377 0
M  V30 1800 O 156.818 1.93616 0.150521 0
M  V30 1801 C 153.948 3.46988 -0.147259 0
M  V30 1802 C 152.902 4.13789 -1.09374 0
M  V30 1803 C 152.228 5.33449 -0.365524 0
M  V30 1804 C 153.528 4.62208 -2.4323 0
M  V30 1805 H 155.222 2.5086 -1.6343 0
M  V30 1806 H 152.768 1.20576 -0.787243 0
M  V30 1807 H 154.721 4.21262 0.107808 0
M  V30 1808 H 153.445 3.17037 0.784538 0
M  V30 1809 H 152.104 3.4147 -1.33393 0
M  V30 1810 H 151.752 4.99759 0.57011 0
M  V30 1811 H 151.452 5.79088 -0.996512 0
M  V30 1812 H 152.976 6.10485 -0.118534 0
M  V30 1813 H 154.39 5.27952 -2.23472 0
M  V30 1814 H 152.787 5.18553 -3.02031 0
M  V30 1815 H 153.857 3.77224 -3.04681 0
M  V30 1816 N 155.201 0.870884 1.31352 0
M  V30 1817 C 156.426 0.495957 2.01383 0
M  V30 1818 C 156.851 -0.904324 1.64935 0
M  V30 1819 O 156.209 -1.59687 0.858466 0
M  V30 1820 C 156.257 0.661433 3.54482 0
M  V30 1821 O 155.361 -0.298851 4.11316 0
M  V30 1822 H 154.702 0.197158 0.634054 0
M  V30 1823 H 157.232 1.17455 1.67527 0
M  V30 1824 H 157.242 0.555072 4.04207 0
M  V30 1825 H 155.917 1.68246 3.8035 0
M  V30 1826 H 154.494 -0.147368 3.72609 0
M  V30 1827 N 156.679 -1.44442 0.630414 0
M  V30 1828 C 157.627 -2.32437 -0.0871428 0
M  V30 1829 C 158.621 -1.47304 -0.836525 0
M  V30 1830 O 159.827 -1.63653 -0.749506 0
M  V30 1831 H 156.202 -0.750533 -0.0469495 0
M  V30 1832 H 158.173 -2.90709 0.673096 0
M  V30 1833 C 156.922 -3.31288 -1.05563 0
M  V30 1834 H 156.245 -3.96805 -0.488426 0
M  V30 1835 H 157.685 -3.9554 -1.52721 0
M  V30 1836 C 156.144 -2.6016 -2.14052 0
M  V30 1837 O 156.674 -2.39997 -3.22124 0
M  V30 1838 N 154.88 -2.19911 -1.89967 0
M  V30 1839 H 154.427 -2.36509 -1.02085 0
M  V30 1840 H 154.385 -1.72646 -2.62756 0
M  V30 1841 N 158.157 -0.370918 -1.53173 0
M  V30 1842 C 159.406 0.218249 -2.00516 0
M  V30 1843 C 159.719 1.49429 -1.26215 0
M  V30 1844 O 160.925 2.16239 -1.64174 0
M  V30 1845 C 159.381 0.43948 -3.57207 0
M  V30 1846 C 158.989 -0.822244 -4.4039 0
M  V30 1847 C 160.733 0.986012 -4.1289 0
M  V30 1848 C 158.64 -0.570304 -5.88644 0
M  V30 1849 H 157.57 0.0853333 -0.749156 0
M  V30 1850 H 160.221 -0.490483 -1.76823 0
M  V30 1851 H 158.603 1.20961 -3.77074 0
M  V30 1852 H 159.777 -1.59557 -4.32294 0
M  V30 1853 H 158.092 -1.29238 -3.95836 0
M  V30 1854 H 160.689 1.18991 -5.21292 0
M  V30 1855 H 161.032 1.94972 -3.6782 0
M  V30 1856 H 161.565 0.27592 -3.96842 0
M  V30 1857 H 158.304 -1.50449 -6.38001 0
M  V30 1858 H 157.824 0.164427 -5.99575 0
M  V30 1859 H 159.503 -0.19784 -6.46697 0
M  V30 1860 N 159.635 1.57281 -0.100228 0
M  V30 1861 C 160.882 1.94537 0.562268 0
M  V30 1862 C 161.21 0.982315 1.67871 0
M  V30 1863 O 160.465 0.00280936 1.957 0
M  V30 1864 C 160.764 3.38305 1.15259 0
M  V30 1865 C 160.43 4.50618 0.159409 0
M  V30 1866 C 159.092 4.81066 -0.113741 0
M  V30 1867 C 161.444 5.18615 -0.518461 0
M  V30 1868 C 158.772 5.76835 -1.07137 0
M  V30 1869 C 161.124 6.15412 -1.46459 0
M  V30 1870 C 159.788 6.44262 -1.74592 0
M  V30 1871 H 159.058 0.711863 0.205748 0
M  V30 1872 H 161.705 1.90679 -0.17715 0
M  V30 1873 H 160.01 3.38766 1.96836 0
M  V30 1874 H 161.707 3.64435 1.67297 0
M  V30 1875 H 158.297 4.2689 0.382491 0
M  V30 1876 H 162.481 4.95264 -0.320581 0
M  V30 1877 H 157.737 5.975 -1.29628 0
M  V30 1878 H 161.911 6.67194 -1.99564 0
M  V30 1879 H 159.538 7.1828 -2.48953 0
M  V30 1880 N 161.113 -0.173488 1.56642 0
M  V30 1881 C 162.36 -0.890465 1.81871 0
M  V30 1882 C 162.688 -1.82339 0.67696 0
M  V30 1883 O 161.943 -1.92795 -0.335926 0
M  V30 1884 C 162.242 -1.72069 3.13252 0
M  V30 1885 C 161.908 -0.936878 4.41059 0
M  V30 1886 C 160.57 -0.720545 4.75775 0
M  V30 1887 C 162.922 -0.386919 5.19762 0
M  V30 1888 C 160.25 0.0568829 5.86672 0
M  V30 1889 C 162.602 0.37741 6.31473 0
M  V30 1890 C 161.266 0.604563 6.64757 0
M  V30 1891 H 160.536 -0.325844 0.665512 0
M  V30 1892 H 163.183 -0.155527 1.90867 0
M  V30 1893 H 161.488 -2.52496 2.99588 0
M  V30 1894 H 163.185 -2.27844 3.29982 0
M  V30 1895 H 159.775 -1.11553 4.13828 0
M  V30 1896 H 163.959 -0.541398 4.93338 0
M  V30 1897 H 159.215 0.242635 6.10918 0
M  V30 1898 H 163.389 0.810825 6.91664 0
M  V30 1899 H 161.016 1.20885 7.50527 0
M  V30 1900 N 162.591 -1.51276 -0.441967 0
M  V30 1901 C 163.524 -1.66933 -1.55591 0
M  V30 1902 C 164.502 -0.516958 -1.54163 0
M  V30 1903 O 165.686 -0.740209 -1.73358 0
M  V30 1904 C 162.813 -1.67866 -2.94174 0
M  V30 1905 C 161.859 -2.89013 -3.13646 0
M  V30 1906 S 162.692 -4.49897 -2.90436 0
M  V30 1907 C 163.848 -4.53568 -4.31308 0
M  V30 1908 H 164.081 -2.61155 -1.42076 0
M  V30 1909 H 161.614 -1.40902 -0.631341 0
M  V30 1910 H 163.572 -1.69089 -3.74058 0
M  V30 1911 H 162.233 -0.748296 -3.05056 0
M  V30 1912 H 161.426 -2.86054 -4.14957 0
M  V30 1913 H 161.028 -2.85509 -2.4158 0
M  V30 1914 H 163.32 -4.28924 -5.24434 0
M  V30 1915 H 164.263 -5.55355 -4.39303 0
M  V30 1916 H 164.671 -3.82943 -4.14747 0
M  V30 1917 N 164.069 0.697108 -1.41344 0
M  V30 1918 C 164.979 1.84088 -1.45427 0
M  V30 1919 C 165.995 1.70545 -0.34501 0
M  V30 1920 O 167.171 1.92488 -0.592492 0
M  V30 1921 C 164.236 3.20056 -1.33286 0
M  V30 1922 C 163.297 3.45718 -2.54514 0
M  V30 1923 C 162.53 4.75199 -2.42944 0
M  V30 1924 O 162.753 5.51579 -1.45318 0
M  V30 1925 O 161.687 5.0161 -3.32672 0
M  V30 1926 H 165.513 1.836 -2.41919 0
M  V30 1927 H 163.098 0.849966 -1.22866 0
M  V30 1928 H 164.98 4.01236 -1.28794 0
M  V30 1929 H 163.655 3.2123 -0.39909 0
M  V30 1930 H 162.562 2.64474 -2.64583 0
M  V30 1931 H 163.895 3.49356 -3.46715 0
M  V30 1932 N 165.547 1.27147 0.931209 0
M  V30 1933 C 166.495 1.09398 2.05268 0
M  V30 1934 C 167.489 0.0180591 1.6939 0
M  V30 1935 O 168.695 0.17551 1.79142 0
M  V30 1936 H 165.07 0.336986 0.672268 0
M  V30 1937 H 167.041 2.04416 2.17386 0
M  V30 1938 C 165.79 0.75424 3.39421 0
M  V30 1939 H 165.113 1.57404 3.67511 0
M  V30 1940 H 166.553 0.669903 4.18674 0
M  V30 1941 C 165.012 -0.541197 3.32525 0
M  V30 1942 O 165.542 -1.57664 3.69466 0
M  V30 1943 N 163.748 -0.535517 2.85623 0
M  V30 1944 H 163.295 0.307511 2.55758 0
M  V30 1945 H 163.253 -1.40236 2.81392 0
M  V30 1946 N 167.025 -1.13721 1.09112 0
M  V30 1947 C 167.973 -2.21103 0.722219 0
M  V30 1948 C 168.967 -1.67147 -0.275374 0
M  V30 1949 O 170.173 -1.79477 -0.137176 0
M  V30 1950 H 166.548 -0.720445 0.215553 0
M  V30 1951 H 168.519 -2.49483 1.63709 0
M  V30 1952 C 167.268 -3.47352 0.15543 0
M  V30 1953 H 166.591 -3.89206 0.914246 0
M  V30 1954 H 168.031 -4.2395 -0.0647967 0
M  V30 1955 C 166.49 -3.1814 -1.10852 0
M  V30 1956 O 167.02 -3.36604 -2.19227 0
M  V30 1957 N 165.226 -2.72045 -1.02176 0
M  V30 1958 H 164.773 -2.57221 -0.139764 0
M  V30 1959 H 164.731 -2.52875 -1.8682 0
M  V30 1960 N 168.503 -0.877838 -1.30888 0
M  V30 1961 C 169.75 -0.492696 -1.96415 0
M  V30 1962 C 170.078 0.956671 -1.69346 0
M  V30 1963 O 169.333 1.68993 -0.986913 0
M  V30 1964 C 169.632 -0.705748 -3.50363 0
M  V30 1965 C 169.298 -2.1291 -3.97467 0
M  V30 1966 C 167.96 -2.51834 -4.1004 0
M  V30 1967 C 170.312 -3.05702 -4.22132 0
M  V30 1968 C 167.64 -3.82775 -4.44635 0
M  V30 1969 C 169.992 -4.36166 -4.58194 0
M  V30 1970 C 168.656 -4.74993 -4.68975 0
M  V30 1971 H 167.926 -0.18029 -0.718733 0
M  V30 1972 H 170.573 -1.11233 -1.55883 0
M  V30 1973 H 168.878 -0.00303058 -3.918 0
M  V30 1974 H 170.575 -0.387456 -3.99124 0
M  V30 1975 H 167.165 -1.81694 -3.88182 0
M  V30 1976 H 171.349 -2.76853 -4.11906 0
M  V30 1977 H 166.605 -4.12609 -4.51181 0
M  V30 1978 H 170.779 -5.08111 -4.76231 0
M  V30 1979 H 168.406 -5.76495 -4.95537 0
M  V30 1980 N 169.982 1.44106 -0.638065 0
M  V30 1981 C 170.892 2.34513 0.0637334 0
M  V30 1982 C 171.908 1.53018 0.828346 0
M  V30 1983 O 173.084 1.85723 0.779036 0
M  V30 1984 C 170.149 3.31095 1.02844 0
M  V30 1985 C 169.21 4.28497 0.26244 0
M  V30 1986 C 168.443 5.20465 1.1812 0
M  V30 1987 O 168.666 5.16514 2.42011 0
M  V30 1988 O 167.6 5.98251 0.661774 0
M  V30 1989 H 171.426 2.95989 -0.68003 0
M  V30 1990 H 169.011 1.43994 -0.398252 0
M  V30 1991 H 170.893 3.90526 1.58327 0
M  V30 1992 H 169.568 2.72144 1.7527 0
M  V30 1993 H 168.475 3.72592 -0.335602 0
M  V30 1994 H 169.808 4.90388 -0.421936 0
M  V30 1995 N 171.46 0.379036 1.52974 0
M  V30 1996 C 172.37 -0.468639 2.29872 0
M  V30 1997 C 173.386 -1.08067 1.36373 0
M  V30 1998 O 174.562 -1.08871 1.69438 0
M  V30 1999 C 171.627 -1.58594 3.083 0
M  V30 2000 C 170.688 -1.00007 4.17489 0
M  V30 2001 C 169.921 -2.06413 4.92168 0
M  V30 2002 O 170.144 -3.27751 4.66835 0
M  V30 2003 O 169.078 -1.68717 5.7777 0
M  V30 2004 H 172.904 0.157508 3.03291 0
M  V30 2005 H 170.489 0.143035 1.48714 0
M  V30 2006 H 172.371 -2.23525 3.57232 0
M  V30 2007 H 171.046 -2.19724 2.37703 0
M  V30 2008 H 169.953 -0.314299 3.72777 0
M  V30 2009 H 171.286 -0.433135 4.90291 0
M  V30 2010 N 172.938 -1.57226 0.108567 0
M  V30 2011 C 174.168 -1.9889 -0.559142 0
M  V30 2012 C 174.576 -0.986889 -1.61422 0
M  V30 2013 O 173.919 0.0298705 -1.83676 0
M  V30 2014 C 173.981 -3.36952 -1.25315 0
M  V30 2015 C 173.645 -4.55679 -0.347248 0
M  V30 2016 C 174.642 -5.18281 0.409996 0
M  V30 2017 C 172.327 -5.0162 -0.261367 0
M  V30 2018 C 174.321 -6.25203 1.24096 0
M  V30 2019 C 172.008 -6.08405 0.573238 0
M  V30 2020 C 173.006 -6.70063 1.32304 0
M  V30 2021 O 172.694 -7.74788 2.14381 0
M  V30 2022 H 172.426 -0.658343 -0.153492 0
M  V30 2023 H 174.98 -2.04532 0.188584 0
M  V30 2024 H 173.21 -3.28032 -2.04773 0
M  V30 2025 H 174.899 -3.62974 -1.81673 0
M  V30 2026 H 175.665 -4.8371 0.353457 0
M  V30 2027 H 171.544 -4.53381 -0.834656 0
M  V30 2028 H 175.088 -6.73259 1.82669 0
M  V30 2029 H 170.985 -6.42406 0.631208 0
M  V30 2030 H 171.753 -7.91837 2.07209 0
M  V30 2031 N 174.416 0.165178 -1.56732 0
M  V30 2032 C 175.665 0.879143 -1.81532 0
M  V30 2033 C 175.978 1.83144 -0.686842 0
M  V30 2034 O 177.184 2.58823 -0.819944 0
M  V30 2035 C 175.64 1.61388 -3.21686 0
M  V30 2036 C 175.248 0.704904 -4.4242 0
M  V30 2037 C 176.992 2.3157 -3.55774 0
M  V30 2038 C 174.899 1.44022 -5.73595 0
M  V30 2039 H 173.829 0.332033 -0.676957 0
M  V30 2040 H 176.48 0.132008 -1.83025 0
M  V30 2041 H 174.862 2.40599 -3.14529 0
M  V30 2042 H 176.036 -0.0506815 -4.60772 0
M  V30 2043 H 174.351 0.112419 -4.16248 0
M  V30 2044 H 176.948 2.8719 -4.51028 0
M  V30 2045 H 177.291 3.07201 -2.8095 0
M  V30 2046 H 177.824 1.59297 -3.64513 0
M  V30 2047 H 174.563 0.72612 -6.51466 0
M  V30 2048 H 174.083 2.16898 -5.5921 0
M  V30 2049 H 175.762 1.98606 -6.15764 0
M  V30 2050 N 175.894 1.51508 0.433938 0
M  V30 2051 C 176.826 1.69266 1.54537 0
M  V30 2052 C 177.839 0.573276 1.52373 0
M  V30 2053 O 179.028 0.847698 1.57087 0
M  V30 2054 C 176.128 1.69524 2.93453 0
M  V30 2055 C 175.301 2.98101 3.20085 0
M  V30 2056 C 174.36 2.90502 4.38742 0
M  V30 2057 O 173.386 3.64442 4.3723 0
M  V30 2058 N 174.588 2.06586 5.42496 0
M  V30 2059 H 177.353 2.65145 1.39708 0
M  V30 2060 H 174.914 1.49437 0.622922 0
M  V30 2061 H 176.906 1.62004 3.70859 0
M  V30 2062 H 175.476 0.812245 3.01863 0
M  V30 2063 H 174.696 3.19464 2.30947 0
M  V30 2064 H 175.984 3.83207 3.34708 0
M  V30 2065 H 175.382 1.45896 5.46563 0
M  V30 2066 H 173.939 2.04943 6.18742 0
M  V30 2067 N 177.372 -0.689602 1.41712 0
M  V30 2068 C 178.62 -1.4468 1.4111 0
M  V30 2069 C 178.941 -1.94986 0.0232196 0
M  V30 2070 O 178.211 -1.72097 -0.935913 0
M  V30 2071 H 176.791 -0.536847 0.519427 0
M  V30 2072 H 179.453 -0.815825 1.77004 0
M  V30 2073 H 178.549 -2.30706 2.10193 0
M  V30 2074 N 178.85 -1.27639 -0.924453 0
M  V30 2075 C 180.078 -1.16989 -1.70649 0
M  V30 2076 C 180.493 0.272869 -1.86818 0
M  V30 2077 O 179.85 1.18549 -1.38753 0
M  V30 2078 C 179.901 -1.85229 -3.10439 0
M  V30 2079 O 179.622 -3.23868 -2.95028 0
M  V30 2080 C 181.123 -1.80746 -4.04779 0
M  V30 2081 H 178.343 -0.406595 -0.53378 0
M  V30 2082 H 180.887 -1.68569 -1.15778 0
M  V30 2083 H 179.042 -1.37545 -3.6216 0
M  V30 2084 H 179.456 -3.57889 -3.83426 0
M  V30 2085 H 180.93 -2.33101 -5.00368 0
M  V30 2086 H 181.407 -0.777499 -4.32263 0
M  V30 2087 H 182.013 -2.28059 -3.58984 0
M  V30 2088 N 180.328 1.1314 -1.09713 0
M  V30 2089 C 181.605 1.80762 -0.747302 0
M  V30 2090 C 181.985 1.96663 0.767265 0
M  V30 2091 O 181.333 1.53706 1.69076 0
M  V30 2092 C 181.543 3.15606 -1.48975 0
M  V30 2093 C 182.891 3.90914 -1.65746 0
M  V30 2094 O 183.915 3.25239 -1.45251 0
M  V30 2095 O 182.774 5.08718 -1.9967 0
M  V30 2096 H 179.868 0.782103 -0.268782 0
M  V30 2097 H 182.414 1.20041 -1.19951 0
M  V30 2098 H 181.186 2.99278 -2.52088 0
M  V30 2099 H 180.809 3.84029 -1.02991 0
M  V30 2100 N 181.806 0.884767 1.30421 0
M  V30 2101 C 182.753 0.349642 2.28136 0
M  V30 2102 C 183.723 -0.560061 1.56373 0
M  V30 2103 O 184.908 -0.488524 1.8444 0
M  V30 2104 C 182.048 -0.42999 3.42411 0
M  V30 2105 C 181.161 0.508907 4.28992 0
M  V30 2106 C 180.296 -0.286301 5.30428 0
M  V30 2107 C 179.335 0.648079 6.08659 0
M  V30 2108 N 178.472 -0.111792 7.02011 0
M  V30 2109 H 183.312 1.18807 2.73293 0
M  V30 2110 H 180.849 0.597231 1.3443 0
M  V30 2111 H 182.807 -0.897923 4.07423 0
M  V30 2112 H 181.437 -1.23299 2.98324 0
M  V30 2113 H 180.489 1.09533 3.64289 0
M  V30 2114 H 181.801 1.22475 4.8353 0
M  V30 2115 H 180.955 -0.816098 6.01186 0
M  V30 2116 H 179.694 -1.03536 4.76583 0
M  V30 2117 H 178.699 1.18951 5.36778 0
M  V30 2118 H 179.924 1.39623 6.64592 0
M  V30 2119 H 177.87 -0.843395 6.50556 0
M  V30 2120 H 177.787 0.544429 7.54037 0
M  V30 2121 H 179.055 -0.622339 7.77012 0
M  V30 2122 N 183.284 -1.43765 0.645699 0
M  V30 2123 C 184.514 -2.05953 0.163318 0
M  V30 2124 C 184.922 -1.48432 -1.17322 0
M  V30 2125 O 184.265 -0.607295 -1.73371 0
M  V30 2126 C 184.327 -3.59499 -0.0103065 0
M  V30 2127 C 183.991 -4.39563 1.25035 0
M  V30 2128 C 184.988 -4.72108 2.17739 0
M  V30 2129 C 182.673 -4.79697 1.48983 0
M  V30 2130 C 184.667 -5.43688 3.3269 0
M  V30 2131 C 182.354 -5.51023 2.64229 0
M  V30 2132 C 183.352 -5.8294 3.55908 0
M  V30 2133 O 183.04 -6.5281 4.69142 0
M  V30 2134 H 182.772 -0.670798 0.0836986 0
M  V30 2135 H 185.326 -1.85384 0.884407 0
M  V30 2136 H 183.556 -3.78613 -0.78669 0
M  V30 2137 H 185.245 -4.03408 -0.449087 0
M  V30 2138 H 186.011 -4.41627 2.00476 0
M  V30 2139 H 181.89 -4.54266 0.785078 0
M  V30 2140 H 185.434 -5.68517 4.04269 0
M  V30 2141 H 181.331 -5.8092 2.81429 0
M  V30 2142 H 182.099 -6.71288 4.6831 0
M  V30 2143 N 184.763 -0.387143 -1.52771 0
M  V30 2144 C 185.71 0.449048 -2.26389 0
M  V30 2145 C 186.68 1.05961 -1.27912 0
M  V30 2146 O 187.865 1.08804 -1.56737 0
M  V30 2147 C 185.005 1.57155 -3.0724 0
M  V30 2148 C 184.118 0.984066 -4.20643 0
M  V30 2149 C 183.253 2.07745 -4.88892 0
M  V30 2150 C 182.292 1.46574 -5.94292 0
M  V30 2151 N 181.429 2.49834 -6.56146 0
M  V30 2152 H 186.269 -0.185205 -2.97424 0
M  V30 2153 H 183.806 -0.103164 -1.46738 0
M  V30 2154 H 185.764 2.23309 -3.52405 0
M  V30 2155 H 184.394 2.17615 -2.38419 0
M  V30 2156 H 183.446 0.212193 -3.79808 0
M  V30 2157 H 184.758 0.497029 -4.96318 0
M  V30 2158 H 183.912 2.81673 -5.3735 0
M  V30 2159 H 182.651 2.59807 -4.12737 0
M  V30 2160 H 181.656 0.711696 -5.45174 0
M  V30 2161 H 182.881 0.953088 -6.72379 0
M  V30 2162 H 180.827 3.0107 -5.82832 0
M  V30 2163 H 180.744 2.05879 -7.27427 0
M  V30 2164 H 182.012 3.23399 -7.09249 0
M  V30 2165 N 186.241 1.57166 -0.116904 0
M  V30 2166 C 187.189 2.16457 0.851418 0
M  V30 2167 C 188.183 1.11323 1.27686 0
M  V30 2168 O 189.389 1.2963 1.24884 0
M  V30 2169 H 185.764 0.69271 0.292672 0
M  V30 2170 H 187.735 2.96605 0.32685 0
M  V30 2171 C 186.484 2.77689 2.09246 0
M  V30 2172 H 185.807 3.58285 1.77402 0
M  V30 2173 H 187.247 3.22716 2.7501 0
M  V30 2174 C 185.706 1.74667 2.88085 0
M  V30 2175 O 186.236 1.19877 3.83396 0
M  V30 2176 N 184.442 1.44656 2.52038 0
M  V30 2177 H 183.989 1.89402 1.74599 0
M  V30 2178 H 183.947 0.759675 3.05084 0
M  V30 2179 N 187.719 -0.156864 1.56817 0
M  V30 2180 C 188.996 -0.899244 1.73704 0
M  V30 2181 C 189.376 -1.99771 0.682254 0
M  V30 2182 O 188.724 -2.26515 -0.300522 0
M  V30 2183 C 188.934 -1.45075 3.17418 0
M  V30 2184 C 190.282 -1.91802 3.7881 0
M  V30 2185 O 191.306 -1.54838 3.20786 0
M  V30 2186 O 190.165 -2.5994 4.80722 0
M  V30 2187 H 187.259 -0.424267 0.709878 0
M  V30 2188 H 189.805 -0.143561 1.69092 0
M  V30 2189 H 188.577 -0.660846 3.85679 0
M  V30 2190 H 188.2 -2.27021 3.26416 0
M  V30 2191 N 189.197 -1.51736 -0.425897 0
M  V30 2192 C 190.437 -1.66636 -1.18371 0
M  V30 2193 C 190.801 -0.379854 -1.88205 0
M  V30 2194 O 192.002 -0.404758 -2.65735 0
M  V30 2195 C 190.273 -2.84382 -2.16476 0
M  V30 2196 S 191.832 -3.19673 -3.0059 0
M  V30 2197 H 188.65 -0.586957 -0.40125 0
M  V30 2198 H 191.252 -1.89679 -0.473518 0
M  V30 2199 H 189.956 -3.76281 -1.63831 0
M  V30 2200 H 189.487 -2.63562 -2.92059 0
M  V30 2201 H 191.502 -2.66994 -4.18245 0
M  V30 2202 N 190.675 0.682077 -1.42076 0
M  V30 2203 C 191.9 1.47558 -1.45744 0
M  V30 2204 C 192.325 1.87977 -0.0680981 0
M  V30 2205 O 191.683 1.55522 0.9318 0
M  V30 2206 C 191.731 2.70575 -2.38373 0
M  V30 2207 O 190.835 3.68573 -1.85007 0
M  V30 2208 H 190.176 0.443585 -0.494093 0
M  V30 2209 H 192.706 0.837238 -1.86686 0
M  V30 2210 H 192.716 3.18729 -2.54707 0
M  V30 2211 H 191.391 2.40495 -3.39315 0
M  V30 2212 H 189.968 3.2757 -1.78192 0
M  V30 2213 N 192.153 1.28127 0.917671 0
M  V30 2214 C 193.378 1.18007 1.70555 0
M  V30 2215 C 193.803 -0.258257 1.86319 0
M  V30 2216 O 193.161 -1.1869 1.37049 0
M  V30 2217 C 193.209 1.87948 3.07746 0
M  V30 2218 O 192.313 1.18427 3.9503 0
M  V30 2219 H 191.654 0.409867 0.522403 0
M  V30 2220 H 194.184 1.69379 1.1477 0
M  V30 2221 H 194.194 1.95701 3.58001 0
M  V30 2222 H 192.869 2.92573 2.95591 0
M  V30 2223 H 191.446 1.18811 3.53466 0
M  V30 2224 N 193.631 -1.12557 1.10312 0
M  V30 2225 C 194.861 -1.87592 0.865617 0
M  V30 2226 C 195.269 -1.79851 -0.587389 0
M  V30 2227 O 194.612 -1.16949 -1.41664 0
M  V30 2228 C 194.674 -3.37665 1.23381 0
M  V30 2229 C 194.338 -3.69181 2.69359 0
M  V30 2230 C 195.335 -3.67652 3.67597 0
M  V30 2231 C 193.02 -3.98555 3.05711 0
M  V30 2232 C 195.014 -3.95053 5.00212 0
M  V30 2233 C 192.701 -4.25616 4.38514 0
M  V30 2234 C 193.699 -4.23851 5.35574 0
M  V30 2235 O 193.387 -4.50242 6.65986 0
M  V30 2236 H 193.119 -0.600442 0.310557 0
M  V30 2237 H 195.673 -1.4335 1.47105 0
M  V30 2238 H 193.903 -3.82454 0.571467 0
M  V30 2239 H 195.592 -3.94041 0.973994 0
M  V30 2240 H 196.358 -3.45024 3.40857 0
M  V30 2241 H 192.237 -3.99071 2.30789 0
M  V30 2242 H 195.781 -3.93591 5.75962 0
M  V30 2243 H 191.678 -4.47718 4.64994 0
M  V30 2244 H 192.446 -4.67867 6.71597 0
M  V30 2245 N 195.109 -0.891671 -1.2995 0
M  V30 2246 C 196.337 -0.52866 -2.00032 0
M  V30 2247 C 196.752 0.884574 -1.66795 0
M  V30 2248 O 196.109 1.5827 -0.908669 0
M  V30 2249 C 196.16 -0.701814 -3.54622 0
M  V30 2250 O 195.881 -2.05942 -3.86678 0
M  V30 2251 C 197.382 -0.342683 -4.41973 0
M  V30 2252 H 194.602 -0.203659 -0.639347 0
M  V30 2253 H 197.146 -1.19881 -1.65677 0
M  V30 2254 H 195.301 -0.0789468 -3.8732 0
M  V30 2255 H 195.715 -2.08291 -4.81368 0
M  V30 2256 H 197.189 -0.514709 -5.49595 0
M  V30 2257 H 197.666 0.71975 -4.33262 0
M  V30 2258 H 198.272 -0.942154 -4.14733 0
M  V30 2259 N 196.587 1.43421 -0.653314 0
M  V30 2260 C 197.517 2.33487 0.0246656 0
M  V30 2261 C 198.498 1.49475 0.811863 0
M  V30 2262 O 199.683 1.78139 0.773322 0
M  V30 2263 C 196.813 3.32841 0.99166 0
M  V30 2264 C 195.767 4.26842 0.314568 0
M  V30 2265 C 195.093 5.16236 1.39302 0
M  V30 2266 C 196.393 5.16243 -0.793095 0
M  V30 2267 H 198.087 2.90427 -0.727481 0
M  V30 2268 H 195.633 1.39649 -0.351287 0
M  V30 2269 H 197.586 3.94747 1.47487 0
M  V30 2270 H 196.31 2.74158 1.77497 0
M  V30 2271 H 194.969 3.663 -0.148199 0
M  V30 2272 H 194.617 4.53891 2.16776 0
M  V30 2273 H 194.317 5.79948 0.945223 0
M  V30 2274 H 195.841 5.81015 1.87759 0
M  V30 2275 H 197.255 5.71958 -0.392039 0
M  V30 2276 H 195.652 5.88676 -1.16536 0
M  V30 2277 H 196.722 4.55927 -1.65103 0
M  V30 2278 N 198.065 0.39524 1.52563 0
M  V30 2279 C 199.312 -0.185044 2.01653 0
M  V30 2280 C 199.64 -1.46317 1.28146 0
M  V30 2281 O 198.895 -1.9213 0.372074 0
M  V30 2282 C 199.194 -0.493444 3.53977 0
M  V30 2283 C 198.86 0.69384 4.4553 0
M  V30 2284 C 197.522 1.01954 4.70275 0
M  V30 2285 C 199.874 1.48785 4.99512 0
M  V30 2286 C 197.202 2.14069 5.46252 0
M  V30 2287 C 199.554 2.59965 5.76716 0
M  V30 2288 C 198.218 2.93037 5.99738 0
M  V30 2289 H 197.488 -0.0677123 0.7379 0
M  V30 2290 H 200.135 0.533807 1.8391 0
M  V30 2291 H 198.44 -1.29369 3.69825 0
M  V30 2292 H 200.137 -0.955163 3.89458 0
M  V30 2293 H 196.727 0.429987 4.26438 0
M  V30 2294 H 200.911 1.24946 4.80315 0
M  V30 2295 H 196.167 2.40056 5.62302 0
M  V30 2296 H 200.341 3.21887 6.17545 0
M  V30 2297 H 197.968 3.8003 6.58393 0
M  V30 2298 N 199.544 -1.57102 0.125237 0
M  V30 2299 C 200.793 -1.94582 -0.531095 0
M  V30 2300 C 201.106 -1.01126 -1.6743 0
M  V30 2301 O 202.312 -1.28097 -2.39381 0
M  V30 2302 C 200.768 -3.45839 -0.996164 0
M  V30 2303 C 200.376 -4.47842 0.118926 0
M  V30 2304 C 202.12 -3.92227 -1.62352 0
M  V30 2305 C 200.027 -5.90284 -0.363192 0
M  V30 2306 H 198.957 -0.726391 -0.20217 0
M  V30 2307 H 201.608 -1.82339 0.206092 0
M  V30 2308 H 199.99 -3.53338 -1.78796 0
M  V30 2309 H 201.164 -4.52018 0.895358 0
M  V30 2310 H 199.479 -4.11243 0.653324 0
M  V30 2311 H 202.076 -4.96069 -1.99548 0
M  V30 2312 H 202.419 -3.32552 -2.50429 0
M  V30 2313 H 202.952 -3.87554 -0.897019 0
M  V30 2314 H 199.691 -6.53728 0.481679 0
M  V30 2315 H 199.211 -5.89515 -1.10597 0
M  V30 2316 H 200.89 -6.41752 -0.822377 0
M  V30 2317 N 201.022 0.148545 -1.56898 0
M  V30 2318 C 202.252 0.875118 -1.8715 0
M  V30 2319 C 202.66 1.75322 -0.711262 0
M  V30 2320 O 202.003 1.80745 0.328151 0
M  V30 2321 C 202.065 1.7844 -3.12089 0
M  V30 2322 C 201.729 1.08361 -4.43967 0
M  V30 2323 C 202.726 0.438247 -5.1805 0
M  V30 2324 C 200.411 1.07358 -4.90693 0
M  V30 2325 C 202.405 -0.20779 -6.37061 0
M  V30 2326 C 200.092 0.42373 -6.09629 0
M  V30 2327 C 201.09 -0.215829 -6.82659 0
M  V30 2328 O 200.778 -0.855378 -7.99336 0
M  V30 2329 H 200.51 0.258504 -0.624621 0
M  V30 2330 H 203.064 0.14652 -2.04877 0
M  V30 2331 H 201.294 2.55389 -2.90367 0
M  V30 2332 H 202.983 2.38279 -3.286 0
M  V30 2333 H 203.749 0.437817 -4.8302 0
M  V30 2334 H 199.628 1.5608 -4.33774 0
M  V30 2335 H 203.172 -0.70758 -6.94002 0
M  V30 2336 H 199.069 0.421822 -6.4412 0
M  V30 2337 H 199.837 -0.756892 -8.14993 0
M  V30 2338 N 202.5 1.5196 0.417844 0
M  V30 2339 C 203.447 1.74678 1.50852 0
M  V30 2340 C 204.417 0.588947 1.55308 0
M  V30 2341 O 205.602 0.825544 1.72016 0
M  V30 2342 C 202.742 1.89544 2.88387 0
M  V30 2343 C 201.855 3.17166 2.93309 0
M  V30 2344 C 200.99 3.22513 4.22088 0
M  V30 2345 C 200.029 4.44372 4.20951 0
M  V30 2346 N 199.166 4.47161 5.41287 0
M  V30 2347 H 204.006 2.67768 1.30783 0
M  V30 2348 H 201.543 1.32689 0.63498 0
M  V30 2349 H 203.501 1.96146 3.68216 0
M  V30 2350 H 202.131 0.998424 3.06971 0
M  V30 2351 H 201.183 3.19778 2.06024 0
M  V30 2352 H 202.495 4.07021 2.88332 0
M  V30 2353 H 201.649 3.28139 5.10303 0
M  V30 2354 H 200.388 2.30581 4.29748 0
M  V30 2355 H 199.393 4.38902 3.31127 0
M  V30 2356 H 200.618 5.3759 4.14938 0
M  V30 2357 H 198.564 3.58108 5.49632 0
M  V30 2358 H 198.481 5.3085 5.3827 0
M  V30 2359 H 199.749 4.57005 6.3148 0
M  V30 2360 N 203.978 -0.674533 1.42435 0
M  V30 2361 C 205.208 -1.46071 1.46105 0
M  V30 2362 C 205.616 -1.89067 0.0709605 0
M  V30 2363 O 204.959 -1.58731 -0.924677 0
M  V30 2364 C 205.021 -2.74145 2.32561 0
M  V30 2365 C 204.685 -2.53224 3.8043 0
M  V30 2366 C 205.682 -2.17809 4.72075 0
M  V30 2367 C 203.367 -2.6821 4.24698 0
M  V30 2368 C 205.361 -1.97648 6.05982 0
M  V30 2369 C 203.048 -2.47665 5.58664 0
M  V30 2370 C 204.046 -2.12437 6.49122 0
M  V30 2371 O 203.734 -1.9209 7.80613 0
M  V30 2372 H 203.466 -0.455959 0.499076 0
M  V30 2373 H 206.02 -0.836193 1.87609 0
M  V30 2374 H 204.25 -3.3908 1.85908 0
M  V30 2375 H 205.939 -3.36028 2.27683 0
M  V30 2376 H 206.705 -2.05826 4.39159 0
M  V30 2377 H 202.584 -2.94609 3.54579 0
M  V30 2378 H 206.128 -1.70075 6.7655 0
M  V30 2379 H 202.025 -2.59244 5.91154 0
M  V30 2380 H 202.793 -2.06686 7.91974 0
M  V30 2381 N 205.456 -1.28612 -0.910864 0
M  V30 2382 C 206.733 -1.06632 -1.63979 0
M  V30 2383 C 207.113 0.393351 -2.07403 0
M  V30 2384 O 206.461 1.37999 -1.82122 0
M  V30 2385 C 206.671 -2.0436 -2.8291 0
M  V30 2386 C 208.019 -2.34666 -3.5386 0
M  V30 2387 O 209.043 -2.02467 -2.93062 0
M  V30 2388 O 207.902 -2.89631 -4.63439 0
M  V30 2389 H 204.996 -0.407737 -0.7195 0
M  V30 2390 H 207.542 -1.39942 -0.959914 0
M  V30 2391 H 206.314 -3.02727 -2.47936 0
M  V30 2392 H 205.937 -1.71714 -3.58609 0
M  V30 2393 N 206.934 1.1197 -1.10907 0
M  V30 2394 C 208.211 1.79959 -0.766432 0
M  V30 2395 C 208.591 1.97466 0.746363 0
M  V30 2396 O 207.939 1.55491 1.67436 0
M  V30 2397 C 208.149 3.14009 -1.52314 0
M  V30 2398 C 209.497 3.89134 -1.69883 0
M  V30 2399 O 210.521 3.2368 -1.48692 0
M  V30 2400 O 209.38 5.06572 -2.05054 0
M  V30 2401 H 206.474 0.779208 -0.277062 0
M  V30 2402 H 209.02 1.18762 -1.21217 0
M  V30 2403 H 207.792 2.96587 -2.55249 0
M  V30 2404 H 207.415 3.82915 -1.07059 0
M  V30 2405 N 208.412 0.89855 1.29475 0
M  V30 2406 C 209.359 0.373819 2.27753 0
M  V30 2407 C 210.329 -0.543444 1.56958 0
M  V30 2408 O 211.514 -0.468934 1.84948 0
M  V30 2409 C 208.654 -0.393648 3.42848 0
M  V30 2410 C 207.767 0.554379 4.28428 0
M  V30 2411 C 206.902 -0.230026 5.30702 0
M  V30 2412 C 205.941 0.712599 6.07938 0
M  V30 2413 N 205.078 -0.0373283 7.0209 0
M  V30 2414 H 209.918 1.21699 2.72017 0
M  V30 2415 H 207.455 0.611456 1.33789 0
M  V30 2416 H 209.413 -0.85466 4.08352 0
M  V30 2417 H 208.043 -1.20128 2.99615 0
M  V30 2418 H 207.095 1.13391 3.63107 0
M  V30 2419 H 208.407 1.27597 4.82204 0
M  V30 2420 H 207.561 -0.752288 6.02018 0
M  V30 2421 H 206.3 -0.984758 4.77654 0
M  V30 2422 H 205.305 1.24637 5.35486 0
M  V30 2423 H 206.53 1.46664 6.63074 0
M  V30 2424 H 204.476 -0.774348 6.51414 0
M  V30 2425 H 204.393 0.624374 7.53417 0
M  V30 2426 H 205.661 -0.539891 7.77628 0
M  V30 2427 N 209.89 -1.43072 0.660911 0
M  V30 2428 C 210.84 -2.27948 -0.04847 0
M  V30 2429 C 211.824 -1.40325 -0.787246 0
M  V30 2430 O 213.016 -1.63893 -0.668446 0
M  V30 2431 C 210.145 -3.28143 -1.00881 0
M  V30 2432 C 209.231 -4.23252 -0.268108 0
M  V30 2433 N 209.622 -5.00656 0.719528 0
M  V30 2434 C 207.92 -4.43092 -0.508493 0
M  V30 2435 C 208.621 -5.70019 1.15988 0
M  V30 2436 N 207.597 -5.41364 0.492584 0
M  V30 2437 H 211.399 -2.85213 0.709279 0
M  V30 2438 H 208.913 -1.54869 0.488822 0
M  V30 2439 H 210.91 -3.87736 -1.53188 0
M  V30 2440 H 209.57 -2.7244 -1.76654 0
M  V30 2441 H 210.581 -5.06115 1.09855 0
M  V30 2442 H 207.258 -3.98449 -1.24679 0
M  V30 2443 H 208.648 -6.4214 1.97751 0
M  V30 2444 N 211.368 -0.403325 -1.52352 0
M  V30 2445 C 212.315 0.425011 -2.26853 0
M  V30 2446 C 213.285 1.04598 -1.29029 0
M  V30 2447 O 214.47 1.07135 -1.57882 0
M  V30 2448 C 211.61 1.53888 -3.08889 0
M  V30 2449 C 210.723 0.939396 -4.21663 0
M  V30 2450 C 209.858 2.02547 -4.91068 0
M  V30 2451 C 208.897 1.40263 -5.95813 0
M  V30 2452 N 208.034 2.4286 -6.58759 0
M  V30 2453 H 212.874 -0.21674 -2.97211 0
M  V30 2454 H 210.411 -0.118722 -1.4662 0
M  V30 2455 H 212.369 2.19558 -3.54753 0
M  V30 2456 H 210.999 2.15074 -2.40714 0
M  V30 2457 H 210.051 0.171898 -3.80011 0
M  V30 2458 H 211.363 0.44436 -4.96817 0
M  V30 2459 H 210.517 2.75958 -5.40308 0
M  V30 2460 H 209.256 2.55415 -4.15469 0
M  V30 2461 H 208.261 0.653833 -5.45898 0
M  V30 2462 H 209.486 0.881719 -6.73352 0
M  V30 2463 H 207.432 2.94871 -5.85992 0
M  V30 2464 H 207.349 1.98152 -7.2957 0
M  V30 2465 H 208.617 3.15858 -7.12639 0
M  V30 2466 N 212.846 1.57033 -0.133567 0
M  V30 2467 C 213.776 2.1909 0.807567 0
M  V30 2468 C 214.757 1.13517 1.26681 0
M  V30 2469 O 215.942 1.41809 1.32679 0
M  V30 2470 C 213.072 2.80188 2.05212 0
M  V30 2471 C 212.026 3.91471 1.73015 0
M  V30 2472 C 211.352 4.39443 3.04622 0
M  V30 2473 C 212.652 5.12886 0.987168 0
M  V30 2474 H 214.346 2.97988 0.290403 0
M  V30 2475 H 211.892 1.43335 0.138239 0
M  V30 2476 H 213.845 3.22264 2.71521 0
M  V30 2477 H 212.569 1.98601 2.59278 0
M  V30 2478 H 211.228 3.49993 1.0909 0
M  V30 2479 H 210.876 3.54695 3.56651 0
M  V30 2480 H 210.576 5.14495 2.83847 0
M  V30 2481 H 212.1 4.8418 3.72024 0
M  V30 2482 H 213.514 5.51891 1.55208 0
M  V30 2483 H 211.911 5.93615 0.87985 0
M  V30 2484 H 212.981 4.84894 -0.0235286 0
M  V30 2485 N 214.325 -0.140222 1.56975 0
M  V30 2486 C 215.555 -0.865181 1.87612 0
M  V30 2487 C 215.963 -1.74942 0.72055 0
M  V30 2488 O 215.306 -1.80917 -0.318561 0
M  V30 2489 C 215.368 -1.76782 3.13031 0
M  V30 2490 C 215.032 -1.06005 4.44536 0
M  V30 2491 C 216.029 -0.410768 5.18275 0
M  V30 2492 C 213.714 -1.04754 4.91255 0
M  V30 2493 C 215.708 0.241572 6.36942 0
M  V30 2494 C 213.395 -0.391394 6.09845 0
M  V30 2495 C 214.393 0.252029 6.82535 0
M  V30 2496 O 214.081 0.897757 7.98871 0
M  V30 2497 H 213.813 -0.255188 0.625983 0
M  V30 2498 H 216.367 -0.135653 2.04952 0
M  V30 2499 H 214.597 -2.53846 2.91718 0
M  V30 2500 H 216.286 -2.36533 3.29859 0
M  V30 2501 H 217.052 -0.412195 4.83245 0
M  V30 2502 H 212.931 -1.53777 4.34596 0
M  V30 2503 H 216.475 0.744375 6.93617 0
M  V30 2504 H 212.372 -0.387656 6.44335 0
M  V30 2505 H 213.14 0.800102 8.1458 0
M  V30 2506 N 215.803 -1.52179 -0.40978 0
M  V30 2507 C 217.051 -1.65878 -1.15451 0
M  V30 2508 C 217.372 -0.390771 -1.91044 0
M  V30 2509 O 216.642 0.594323 -1.86667 0
M  V30 2510 H 215.222 -0.611405 -0.429177 0
M  V30 2511 H 217.884 -1.89219 -0.467134 0
M  V30 2512 H 216.98 -2.49954 -1.86894 0
M  V30 2513 N 217.281 0.66697 -1.42791 0
M  V30 2514 C 218.211 1.79218 -1.49677 0
M  V30 2515 C 219.192 1.66405 -0.352623 0
M  V30 2516 O 220.377 1.85708 -0.567993 0
M  V30 2517 C 217.507 3.17565 -1.40605 0
M  V30 2518 C 216.461 3.45124 -2.53127 0
M  V30 2519 C 215.787 4.83127 -2.29112 0
M  V30 2520 C 217.087 3.41236 -3.95418 0
M  V30 2521 H 218.781 1.73713 -2.43853 0
M  V30 2522 H 216.327 0.83432 -1.17367 0
M  V30 2523 H 218.28 3.96022 -1.44029 0
M  V30 2524 H 217.004 3.23767 -0.429271 0
M  V30 2525 H 215.663 2.69031 -2.49034 0
M  V30 2526 H 215.311 4.85988 -1.29709 0
M  V30 2527 H 215.011 5.02528 -3.04531 0
M  V30 2528 H 216.535 5.63859 -2.34297 0
M  V30 2529 H 217.949 4.09651 -4.01073 0
M  V30 2530 H 216.346 3.72173 -4.70752 0
M  V30 2531 H 217.416 2.39665 -4.21532 0
M  V30 2532 N 218.759 1.29093 0.90403 0
M  V30 2533 C 219.989 1.19516 1.68522 0
M  V30 2534 C 220.397 -0.24738 1.87576 0
M  V30 2535 O 219.74 -1.17798 1.40959 0
M  V30 2536 C 219.802 1.83249 3.0929 0
M  V30 2537 C 219.466 3.32531 3.13484 0
M  V30 2538 C 220.463 4.28821 2.93953 0
M  V30 2539 C 218.148 3.73656 3.35688 0
M  V30 2540 C 220.142 5.64212 2.96553 0
M  V30 2541 C 217.829 5.0917 3.37919 0
M  V30 2542 C 218.827 6.04258 3.18373 0
M  V30 2543 O 218.515 7.37298 3.20385 0
M  V30 2544 H 218.247 0.415467 0.533257 0
M  V30 2545 H 220.801 1.70912 1.13922 0
M  V30 2546 H 219.031 1.26358 3.65473 0
M  V30 2547 H 220.72 1.68054 3.69476 0
M  V30 2548 H 221.486 3.98382 2.76616 0
M  V30 2549 H 217.365 3.00101 3.49943 0
M  V30 2550 H 220.909 6.38407 2.81216 0
M  V30 2551 H 216.806 5.39256 3.54787 0
M  V30 2552 H 217.574 7.46048 3.36681 0
M  V30 2553 N 220.237 -1.11381 1.11499 0
M  V30 2554 C 221.185 -2.19522 0.768956 0
M  V30 2555 C 222.179 -1.67693 -0.239857 0
M  V30 2556 O 223.385 -1.79727 -0.0990755 0
M  V30 2557 H 219.76 -0.715711 0.230786 0
M  V30 2558 H 221.731 -2.45954 1.68964 0
M  V30 2559 C 220.48 -3.46945 0.229073 0
M  V30 2560 H 219.803 -3.8718 0.996596 0
M  V30 2561 H 221.243 -4.23993 0.0251441 0
M  V30 2562 C 219.702 -3.2042 -1.04079 0
M  V30 2563 O 220.232 -3.41178 -2.12038 0
M  V30 2564 N 218.438 -2.74151 -0.963823 0
M  V30 2565 H 217.985 -2.57459 -0.0851722 0
M  V30 2566 H 217.943 -2.56781 -1.81414 0
M  V30 2567 N 221.715 -0.905404 -1.28997 0
M  V30 2568 C 222.964 -0.530191 -1.94607 0
M  V30 2569 C 223.277 0.929185 -1.72121 0
M  V30 2570 O 224.483 1.41218 -2.31883 0
M  V30 2571 C 222.939 -0.897333 -3.48534 0
M  V30 2572 C 222.547 -2.37587 -3.79811 0
M  V30 2573 C 224.291 -0.592304 -4.20347 0
M  V30 2574 C 222.198 -2.68357 -5.27009 0
M  V30 2575 H 221.128 -0.194558 -0.728466 0
M  V30 2576 H 223.779 -1.10318 -1.46636 0
M  V30 2577 H 222.161 -0.253214 -3.9519 0
M  V30 2578 H 223.335 -3.06602 -3.43994 0
M  V30 2579 H 221.65 -2.6505 -3.2115 0
M  V30 2580 H 224.247 -0.798975 -5.28697 0
M  V30 2581 H 224.59 0.469474 -4.13644 0
M  V30 2582 H 225.123 -1.19452 -3.79442 0
M  V30 2583 H 221.862 -3.73355 -5.38782 0
M  V30 2584 H 221.382 -2.03971 -5.64053 0
M  V30 2585 H 223.061 -2.54922 -5.94663 0
M  V30 2586 N 223.193 1.4272 -0.668489 0
M  V30 2587 C 224.44 2.01624 -0.18814 0
M  V30 2588 C 224.768 1.5282 1.20317 0
M  V30 2589 O 224.023 0.718323 1.8204 0
M  V30 2590 C 224.322 3.57021 -0.164499 0
M  V30 2591 C 223.988 4.25232 -1.49962 0
M  V30 2592 C 222.65 4.4358 -1.8652 0
M  V30 2593 C 225.002 4.63727 -2.37921 0
M  V30 2594 C 222.33 4.97694 -3.10674 0
M  V30 2595 C 224.682 5.19218 -3.6138 0
M  V30 2596 C 223.346 5.3578 -3.98115 0
M  V30 2597 H 222.616 0.737795 -0.0688454 0
M  V30 2598 H 225.263 1.70991 -0.862225 0
M  V30 2599 H 223.568 3.87285 0.593079 0
M  V30 2600 H 225.265 4.00372 0.224271 0
M  V30 2601 H 221.855 4.11306 -1.20522 0
M  V30 2602 H 226.039 4.4923 -2.10964 0
M  V30 2603 H 221.295 5.08702 -3.39164 0
M  V30 2604 H 225.469 5.4799 -4.29743 0
M  V30 2605 H 223.096 5.77475 -4.94395 0
M  V30 2606 N 224.671 0.411399 1.52136 0
M  V30 2607 C 225.619 -0.427633 2.28635 0
M  V30 2608 C 226.613 -1.04383 1.33419 0
M  V30 2609 O 227.819 -0.981772 1.50868 0
M  V30 2610 H 224.194 -0.156689 0.735495 0
M  V30 2611 H 226.165 0.238761 2.97443 0
M  V30 2612 C 224.914 -1.53082 3.12188 0
M  V30 2613 H 224.237 -1.06601 3.85326 0
M  V30 2614 H 225.677 -2.09167 3.68816 0
M  V30 2615 C 224.136 -2.49946 2.25895 0
M  V30 2616 O 224.666 -3.53884 1.90076 0
M  V30 2617 N 222.872 -2.2021 1.8962 0
M  V30 2618 H 222.419 -1.35719 2.18948 0
M  V30 2619 H 222.377 -2.85266 1.32176 0
M  V30 2620 N 226.149 -1.5696 0.141893 0
M  V30 2621 C 227.097 -2.17784 -0.816874 0
M  V30 2622 C 228.091 -1.1334 -1.25899 0
M  V30 2623 O 229.297 -1.316 -1.22806 0
M  V30 2624 H 225.672 -0.697278 -0.281615 0
M  V30 2625 H 227.643 -2.97087 -0.279621 0
M  V30 2626 C 226.392 -2.80983 -2.04802 0
M  V30 2627 H 225.715 -3.61062 -1.7168 0
M  V30 2628 H 227.155 -3.2705 -2.69841 0
M  V30 2629 C 225.614 -1.79228 -2.8527 0
M  V30 2630 O 226.144 -1.25962 -3.8144 0
M  V30 2631 N 224.35 -1.48647 -2.49704 0
M  V30 2632 H 223.897 -1.92155 -1.71564 0
M  V30 2633 H 223.855 -0.808115 -3.03837 0
M  V30 2634 N 227.627 0.131896 -1.57047 0
M  V30 2635 C 228.857 0.855219 -1.88068 0
M  V30 2636 C 229.265 1.74557 -0.729817 0
M  V30 2637 O 228.608 1.81083 0.308962 0
M  V30 2638 C 228.67 1.75119 -3.13964 0
M  V30 2639 C 228.334 1.03646 -4.45091 0
M  V30 2640 C 229.331 0.383276 -5.18485 0
M  V30 2641 C 227.016 1.02148 -4.91804 0
M  V30 2642 C 229.01 -0.275347 -6.36805 0
M  V30 2643 C 226.697 0.359047 -6.10044 0
M  V30 2644 C 227.695 -0.288222 -6.82392 0
M  V30 2645 O 227.383 -0.94011 -7.98384 0
M  V30 2646 H 227.115 0.251864 -0.627328 0
M  V30 2647 H 229.669 0.124782 -2.05021 0
M  V30 2648 H 227.899 2.52295 -2.9306 0
M  V30 2649 H 229.588 2.3478 -3.31109 0
M  V30 2650 H 230.354 0.386562 -4.83457 0
M  V30 2651 H 226.233 1.5147 -4.35405 0
M  V30 2652 H 229.777 -0.781148 -6.93213 0
M  V30 2653 H 225.674 0.35348 -6.44531 0
M  V30 2654 H 226.442 -0.84329 -8.14144 0
M  V30 2655 N 229.106 1.52395 0.401703 0
M  V30 2656 C 230.054 1.7689 1.51039 0
M  V30 2657 C 231.048 0.636298 1.56996 0
M  V30 2658 O 232.254 0.818507 1.60314 0
M  V30 2659 H 228.629 0.559502 0.502456 0
M  V30 2660 H 230.6 2.69757 1.27568 0
M  V30 2661 C 229.349 1.94331 2.88324 0
M  V30 2662 H 228.672 2.80905 2.84486 0
M  V30 2663 H 230.112 2.15466 3.65172 0
M  V30 2664 C 228.571 0.712396 3.29282 0
M  V30 2665 O 229.101 -0.116218 4.01532 0
M  V30 2666 N 227.307 0.546154 2.85422 0
M  V30 2667 H 226.854 1.22156 2.26794 0
M  V30 2668 H 226.812 -0.276113 3.13185 0
M  V30 2669 N 230.584 -0.659388 1.43143 0
M  V30 2670 C 231.517 -1.78425 1.42267 0
M  V30 2671 C 232.495 -1.60085 0.284894 0
M  V30 2672 O 233.679 -1.82351 0.477527 0
M  V30 2673 C 230.806 -3.15642 1.22833 0
M  V30 2674 C 229.852 -3.52698 2.39806 0
M  V30 2675 S 230.685 -3.53372 4.02353 0
M  V30 2676 C 231.841 -4.93256 3.85291 0
M  V30 2677 H 232.074 -1.78897 2.37452 0
M  V30 2678 H 229.607 -0.831469 1.301 0
M  V30 2679 H 231.565 -3.94838 1.12308 0
M  V30 2680 H 230.226 -3.12739 0.29207 0
M  V30 2681 H 229.419 -4.52475 2.21996 0
M  V30 2682 H 229.021 -2.80899 2.46925 0
M  V30 2683 H 231.313 -5.81751 3.47235 0
M  V30 2684 H 232.256 -5.16115 4.84799 0
M  V30 2685 H 232.664 -4.665 3.17865 0
M  V30 2686 N 232.062 -1.29571 -0.897171 0
M  V30 2687 C 233.287 -1.20705 -1.68656 0
M  V30 2688 C 233.712 0.228582 -1.86706 0
M  V30 2689 O 233.07 1.16494 -1.3892 0
M  V30 2690 C 233.118 -1.9282 -3.04717 0
M  V30 2691 O 232.222 -1.24697 -3.93096 0
M  V30 2692 H 231.563 -0.418126 -0.515816 0
M  V30 2693 H 234.093 -1.71183 -1.12061 0
M  V30 2694 H 234.103 -2.01372 -3.54843 0
M  V30 2695 H 232.778 -2.97239 -2.90899 0
M  V30 2696 H 231.355 -1.2442 -3.51531 0
M  V30 2697 N 233.54 1.10788 -1.12088 0
M  V30 2698 C 234.488 2.19111 -0.780587 0
M  V30 2699 C 235.482 1.67818 0.230961 0
M  V30 2700 O 236.688 1.79777 0.0895427 0
M  V30 2701 H 233.063 0.714477 -0.234578 0
M  V30 2702 H 235.034 2.45055 -1.70266 0
M  V30 2703 C 233.783 3.46818 -0.24747 0
M  V30 2704 H 233.106 3.86646 -1.01712 0
M  V30 2705 H 234.546 4.23973 -0.0476291 0
M  V30 2706 C 233.005 3.20968 1.02378 0
M  V30 2707 O 233.535 3.42298 2.10226 0
M  V30 2708 N 231.741 2.74658 0.949271 0
M  V30 2709 H 231.288 2.57501 0.0715173 0
M  V30 2710 H 231.246 2.57739 1.80049 0
M  V30 2711 N 235.018 0.912232 1.28515 0
M  V30 2712 C 235.948 0.416403 2.29757 0
M  V30 2713 C 236.929 -0.515194 1.6211 0
M  V30 2714 O 238.114 -0.423253 1.89532 0
M  V30 2715 C 235.244 -0.34572 3.45575 0
M  V30 2716 C 234.198 0.496599 4.25109 0
M  V30 2717 C 233.524 -0.393771 5.33248 0
M  V30 2718 C 234.824 1.75307 4.92001 0
M  V30 2719 H 236.518 1.26249 2.7148 0
M  V30 2720 H 234.064 0.608515 1.30511 0
M  V30 2721 H 236.017 -0.703422 4.15488 0
M  V30 2722 H 234.741 -1.2257 3.02728 0
M  V30 2723 H 233.4 0.8368 3.56922 0
M  V30 2724 H 233.048 -1.27225 4.86644 0
M  V30 2725 H 232.748 0.166209 5.87365 0
M  V30 2726 H 234.272 -0.747389 6.06009 0
M  V30 2727 H 235.686 1.46437 5.54283 0
M  V30 2728 H 234.083 2.25534 5.56106 0
M  V30 2729 H 235.153 2.48176 4.16577 0
M  V30 2730 N 236.496 -1.42363 0.676048 0
M  V30 2731 C 237.742 -2.0182 0.199125 0
M  V30 2732 C 238.075 -1.53339 -1.19168 0
M  V30 2733 O 237.35 -0.736124 -1.80032 0
M  V30 2734 C 237.633 -3.59331 0.235144 0
M  V30 2735 C 237.486 -4.17989 1.66149 0
M  V30 2736 C 238.805 -4.3813 -0.41595 0
M  V30 2737 H 235.924 -0.733293 0.0738311 0
M  V30 2738 H 238.566 -1.69368 0.86107 0
M  V30 2739 H 236.716 -3.87109 -0.328487 0
M  V30 2740 H 238.388 -4.0116 2.27747 0
M  V30 2741 H 236.631 -3.7377 2.20178 0
M  V30 2742 H 237.302 -5.27126 1.63837 0
M  V30 2743 H 239.778 -4.16051 0.0638529 0
M  V30 2744 H 238.654 -5.47717 -0.360115 0
M  V30 2745 H 238.915 -4.16101 -1.49373 0
M  V30 2746 N 237.974 -0.419461 -1.51915 0
M  V30 2747 C 238.922 0.415502 -2.28859 0
M  V30 2748 C 239.916 1.03674 -1.3397 0
M  V30 2749 O 241.122 0.973757 -1.51387 0
M  V30 2750 H 237.497 0.152786 -0.736315 0
M  V30 2751 H 239.468 -0.254531 -2.97312 0
M  V30 2752 C 238.217 1.51425 -3.12995 0
M  V30 2753 H 237.54 1.04556 -3.85886 0
M  V30 2754 H 238.98 2.07208 -3.6992 0
M  V30 2755 C 237.439 2.48745 -2.27217 0
M  V30 2756 O 237.969 3.52871 -1.9195 0
M  V30 2757 N 236.175 2.19202 -1.90785 0
M  V30 2758 H 235.722 1.34556 -2.19664 0
M  V30 2759 H 235.68 2.84561 -1.33687 0
M  V30 2760 N 239.452 1.56882 -0.150215 0
M  V30 2761 C 240.701 1.95403 0.500071 0
M  V30 2762 C 241.014 1.03777 1.658 0
M  V30 2763 O 242.22 1.31889 2.37313 0
M  V30 2764 C 240.676 3.4738 0.941018 0
M  V30 2765 C 240.284 4.47596 -0.190158 0
M  V30 2766 C 242.028 3.9476 1.56091 0
M  V30 2767 C 239.935 5.90787 0.269237 0
M  V30 2768 H 238.865 0.729515 0.190588 0
M  V30 2769 H 241.516 1.81988 -0.235074 0
M  V30 2770 H 239.898 3.56138 1.73152 0
M  V30 2771 H 241.072 4.50536 -0.967157 0
M  V30 2772 H 239.387 4.10151 -0.718666 0
M  V30 2773 H 241.984 4.99181 1.9163 0
M  V30 2774 H 242.327 3.36494 2.45107 0
M  V30 2775 H 242.86 3.88932 0.835249 0
M  V30 2776 H 239.599 6.52879 -0.585621 0
M  V30 2777 H 239.119 5.912 1.01204 0
M  V30 2778 H 240.798 6.42979 0.720176 0
M  V30 2779 N 240.93 -0.123565 1.57115 0
M  V30 2780 C 241.88 -1.1575 1.96433 0
M  V30 2781 C 242.864 -1.37313 0.838686 0
M  V30 2782 O 244.056 -1.38482 1.10235 0
M  V30 2783 C 241.185 -2.48526 2.36833 0
M  V30 2784 C 240.271 -2.30457 3.5602 0
M  V30 2785 N 240.662 -1.8219 4.71848 0
M  V30 2786 C 238.96 -2.61129 3.61563 0
M  V30 2787 C 239.661 -1.77721 5.53886 0
M  V30 2788 N 238.637 -2.21899 4.96248 0
M  V30 2789 H 242.439 -0.776797 2.83449 0
M  V30 2790 H 239.953 -0.331364 1.58983 0
M  V30 2791 H 241.95 -3.233 2.63216 0
M  V30 2792 H 240.61 -2.87358 1.5118 0
M  V30 2793 H 241.621 -1.51805 4.95152 0
M  V30 2794 H 238.298 -3.03678 2.86507 0
M  V30 2795 H 239.688 -1.41697 6.56789 0
M  V30 2796 N 242.408 -1.52605 -0.393616 0
M  V30 2797 C 243.355 -1.77055 -1.48054 0
M  V30 2798 C 244.325 -0.61358 -1.54352 0
M  V30 2799 O 245.51 -0.852806 -1.70681 0
M  V30 2800 C 242.65 -1.94108 -2.85335 0
M  V30 2801 C 241.763 -3.21792 -2.88226 0
M  V30 2802 C 240.898 -3.29188 -4.16904 0
M  V30 2803 C 239.937 -4.51013 -4.13828 0
M  V30 2804 N 239.074 -4.55716 -5.34105 0
M  V30 2805 H 243.914 -2.69815 -1.26506 0
M  V30 2806 H 241.451 -1.33683 -0.61379 0
M  V30 2807 H 243.409 -2.01979 -3.65049 0
M  V30 2808 H 242.039 -1.04713 -3.05344 0
M  V30 2809 H 241.091 -3.23015 -2.00911 0
M  V30 2810 H 242.403 -4.11557 -2.8182 0
M  V30 2811 H 241.557 -3.36216 -5.05018 0
M  V30 2812 H 240.296 -2.37389 -4.26026 0
M  V30 2813 H 239.301 -4.44115 -3.24102 0
M  V30 2814 H 240.526 -5.44123 -4.06333 0
M  V30 2815 H 238.472 -3.66807 -5.43865 0
M  V30 2816 H 238.389 -5.39346 -5.29756 0
M  V30 2817 H 239.657 -4.66993 -6.2413 0
M  V30 2818 N 243.887 0.651787 -1.4349 0
M  V30 2819 C 244.835 1.78586 -1.49029 0
M  V30 2820 C 245.829 1.65448 -0.363767 0
M  V30 2821 O 247.035 1.71777 -0.537821 0
M  V30 2822 H 243.41 0.589236 -0.467231 0
M  V30 2823 H 245.381 1.71035 -2.44519 0
M  V30 2824 C 244.13 3.16851 -1.43181 0
M  V30 2825 H 243.453 3.27598 -2.29171 0
M  V30 2826 H 244.893 3.96156 -1.51118 0
M  V30 2827 C 243.352 3.36568 -0.149616 0
M  V30 2828 O 243.882 3.93885 0.788509 0
M  V30 2829 N 242.088 2.90539 -0.0593484 0
M  V30 2830 H 241.635 2.4408 -0.823575 0
M  V30 2831 H 241.593 3.04108 0.797853 0
M  V30 2832 N 245.365 1.30045 0.890287 0
M  V30 2833 C 246.312 1.15976 1.99545 0
M  V30 2834 C 247.282 0.0506202 1.66023 0
M  V30 2835 O 248.467 0.219847 1.89529 0
M  V30 2836 C 245.607 0.852054 3.34416 0
M  V30 2837 C 244.72 2.04255 3.80662 0
M  V30 2838 C 243.855 1.6734 5.04154 0
M  V30 2839 C 242.894 2.82916 5.42794 0
M  V30 2840 N 242.031 2.46333 6.57468 0
M  V30 2841 H 246.871 2.10524 2.10911 0
M  V30 2842 H 244.408 1.04749 1.03276 0
M  V30 2843 H 246.366 0.654296 4.12037 0
M  V30 2844 H 244.996 -0.0565502 3.2275 0
M  V30 2845 H 244.048 2.35172 2.98995 0
M  V30 2846 H 245.36 2.90826 4.05242 0
M  V30 2847 H 244.514 1.43908 5.89386 0
M  V30 2848 H 243.253 0.779308 4.81433 0
M  V30 2849 H 242.258 3.0702 4.56091 0
M  V30 2850 H 243.483 3.73004 5.6749 0
M  V30 2851 H 241.429 1.59423 6.36334 0
M  V30 2852 H 241.346 3.26436 6.81891 0
M  V30 2853 H 242.614 2.26244 7.45945 0
M  V30 2854 N 246.843 -1.10192 1.12674 0
M  V30 2855 C 248.073 -1.85713 0.905213 0
M  V30 2856 C 248.481 -1.81056 -0.549108 0
M  V30 2857 O 247.824 -1.19927 -1.39151 0
M  V30 2858 C 247.886 -3.34972 1.30516 0
M  V30 2859 C 247.55 -3.63385 2.77129 0
M  V30 2860 C 248.547 -3.59772 3.75313 0
M  V30 2861 C 246.232 -3.91981 3.14096 0
M  V30 2862 C 248.226 -3.84354 5.08479 0
M  V30 2863 C 245.913 -4.16218 4.47443 0
M  V30 2864 C 246.911 -4.12395 5.44444 0
M  V30 2865 O 246.599 -4.36014 6.75387 0
M  V30 2866 H 246.331 -0.593719 0.323223 0
M  V30 2867 H 248.885 -1.40198 1.50112 0
M  V30 2868 H 247.115 -3.81156 0.652463 0
M  V30 2869 H 248.804 -3.91886 1.05736 0
M  V30 2870 H 249.57 -3.37716 3.48099 0
M  V30 2871 H 245.449 -3.94085 2.39202 0
M  V30 2872 H 248.993 -3.81285 5.84181 0
M  V30 2873 H 244.89 -4.37754 4.74386 0
M  V30 2874 H 245.658 -4.53516 6.8137 0
M  V30 2875 N 248.321 -0.919034 -1.28029 0
M  V30 2876 C 249.251 -0.428581 -2.29533 0
M  V30 2877 C 250.232 0.50659 -1.62381 0
M  V30 2878 O 251.417 0.413195 -1.89753 0
M  V30 2879 C 248.547 0.327388 -3.45753 0
M  V30 2880 C 247.501 -0.519137 -4.2484 0
M  V30 2881 C 246.827 0.365486 -5.33449 0
M  V30 2882 C 248.127 -1.77914 -4.91064 0
M  V30 2883 H 249.821 -1.27687 -2.70807 0
M  V30 2884 H 247.367 -0.615428 -1.30186 0
M  V30 2885 H 249.32 0.681378 -4.15855 0
M  V30 2886 H 248.044 1.20963 -3.03374 0
M  V30 2887 H 246.703 -0.855717 -3.56473 0
M  V30 2888 H 246.351 1.24642 -4.87312 0
M  V30 2889 H 246.051 -0.197356 -5.87268 0
M  V30 2890 H 247.575 0.715241 -6.06396 0
M  V30 2891 H 248.989 -1.49374 -5.53498 0
M  V30 2892 H 247.386 -2.2848 -5.54903 0
M  V30 2893 H 248.456 -2.50382 -4.15255 0
M  V30 2894 N 249.799 1.42003 -0.683588 0
M  V30 2895 C 251.027 2.05746 -0.218182 0
M  V30 2896 C 251.442 1.51396 1.12804 0
M  V30 2897 O 250.799 0.657303 1.70252 0
M  V30 2898 C 250.85 3.61171 -0.154131 0
M  V30 2899 O 250.571 4.13508 -1.44716 0
M  V30 2900 C 252.072 4.42042 0.333713 0
M  V30 2901 H 249.292 0.662888 -0.10402 0
M  V30 2902 H 251.836 1.81987 -0.9328 0
M  V30 2903 H 249.991 3.84012 0.511231 0
M  V30 2904 H 250.405 5.07453 -1.32632 0
M  V30 2905 H 251.879 5.51028 0.327423 0
M  V30 2906 H 252.356 4.17269 1.37053 0
M  V30 2907 H 252.962 4.24239 -0.300222 0
M  V30 2908 N 251.277 0.427512 1.51691 0
M  V30 2909 C 252.517 -0.141524 2.03909 0
M  V30 2910 C 252.881 -1.40811 1.30523 0
M  V30 2911 O 254.082 -2.05676 1.73063 0
M  V30 2912 C 252.353 -0.364962 3.55532 0
M  V30 2913 S 253.912 -0.898812 4.29496 0
M  V30 2914 H 250.73 -0.0364542 0.710065 0
M  V30 2915 H 253.332 0.584659 1.86553 0
M  V30 2916 H 252.036 0.56336 4.06515 0
M  V30 2917 H 251.567 -1.1185 3.77164 0
M  V30 2918 H 253.582 -2.17747 4.45871 0
M  V30 2919 N 252.755 -1.56801 0.158532 0
M  V30 2920 C 254.004 -1.95665 -0.489702 0
M  V30 2921 C 254.317 -1.04654 -1.65248 0
M  V30 2922 O 255.523 -1.33146 -2.3661 0
M  V30 2923 C 253.979 -3.47874 -0.922582 0
M  V30 2924 C 253.587 -4.47489 0.213893 0
M  V30 2925 C 255.331 -3.95583 -1.53996 0
M  V30 2926 C 253.238 -5.90921 -0.237903 0
M  V30 2927 H 252.168 -0.730516 -0.186716 0
M  V30 2928 H 254.819 -1.81861 0.244722 0
M  V30 2929 H 253.201 -3.57051 -1.71261 0
M  V30 2930 H 254.375 -4.50017 0.991036 0
M  V30 2931 H 252.69 -4.09764 0.740407 0
M  V30 2932 H 255.287 -5.0019 -1.8898 0
M  V30 2933 H 255.63 -3.37789 -2.43319 0
M  V30 2934 H 256.163 -3.8937 -0.814611 0
M  V30 2935 H 252.902 -6.52559 0.620236 0
M  V30 2936 H 252.422 -5.91729 -0.980676 0
M  V30 2937 H 254.101 -6.43352 -0.686067 0
M  V30 2938 N 254.233 0.115231 -1.57178 0
M  V30 2939 C 255.479 0.82357 -1.85325 0
M  V30 2940 C 255.812 1.79349 -0.744814 0
M  V30 2941 O 255.087 1.92899 0.249024 0
M  V30 2942 C 255.37 1.57014 -3.24066 0
M  V30 2943 C 255.223 0.619565 -4.45513 0
M  V30 2944 C 256.542 2.52545 -3.60429 0
M  V30 2945 H 253.661 0.297948 -0.674089 0
M  V30 2946 H 256.303 0.0877138 -1.89797 0
M  V30 2947 H 254.453 2.19742 -3.20383 0
M  V30 2948 H 256.125 0.000837639 -4.613 0
M  V30 2949 H 254.368 -0.0686174 -4.33746 0
M  V30 2950 H 255.039 1.17866 -5.3927 0
M  V30 2951 H 257.515 1.9992 -3.64926 0
M  V30 2952 H 256.391 3.01811 -4.58477 0
M  V30 2953 H 256.652 3.35383 -2.88047 0
M  V30 2954 N 255.711 1.52812 0.385517 0
M  V30 2955 C 256.659 1.78482 1.49155 0
M  V30 2956 C 257.653 0.652914 1.56312 0
M  V30 2957 O 258.859 0.835464 1.59436 0
M  V30 2958 H 255.234 0.5648 0.496493 0
M  V30 2959 H 257.205 2.71095 1.24699 0
M  V30 2960 C 255.954 1.97378 2.86247 0
M  V30 2961 H 255.277 2.83907 2.81491 0
M  V30 2962 H 256.717 2.19327 3.62866 0
M  V30 2963 C 255.176 0.74728 3.28508 0
M  V30 2964 O 255.706 -0.0736232 4.01633 0
M  V30 2965 N 253.912 0.576396 2.84826 0
M  V30 2966 H 253.459 1.24555 2.25486 0
M  V30 2967 H 253.417 -0.24288 3.1346 0
M  V30 2968 N 257.189 -0.644168 1.43834 0
M  V30 2969 C 258.137 -1.77793 1.49974 0
M  V30 2970 C 259.131 -1.65253 0.372536 0
M  V30 2971 O 260.337 -1.7149 0.546924 0
M  V30 2972 H 256.712 -0.58675 0.47035 0
M  V30 2973 H 258.683 -1.69736 2.45423 0
M  V30 2974 C 257.432 -3.16087 1.4486 0
M  V30 2975 H 256.755 -3.26378 2.30905 0
M  V30 2976 H 258.195 -3.95349 1.53217 0
M  V30 2977 C 256.654 -3.36484 0.167463 0
M  V30 2978 O 257.184 -3.94298 -0.767609 0
M  V30 2979 N 255.39 -2.90504 0.0747556 0
M  V30 2980 H 254.937 -2.4364 0.836507 0
M  V30 2981 H 254.895 -3.04527 -0.781714 0
M  V30 2982 N 258.668 -1.30515 -0.883378 0
M  V30 2983 C 259.615 -1.17032 -1.98927 0
M  V30 2984 C 260.585 -0.0594241 -1.65994 0
M  V30 2985 O 261.77 -0.229895 -1.8941 0
M  V30 2986 C 258.91 -0.869777 -3.33959 0
M  V30 2987 C 258.023 -2.06271 -3.79574 0
M  V30 2988 C 257.158 -1.70011 -5.03259 0
M  V30 2989 C 256.197 -2.8579 -5.41286 0
M  V30 2990 N 255.334 -2.49816 -6.56153 0
M  V30 2991 H 260.174 -2.1164 -2.09792 0
M  V30 2992 H 257.711 -1.05296 -1.02719 0
M  V30 2993 H 259.669 -0.676138 -4.11685 0
M  V30 2994 H 258.299 0.0394332 -3.22776 0
M  V30 2995 H 257.351 -2.36755 -2.97744 0
M  V30 2996 H 258.663 -2.92971 -4.03694 0
M  V30 2997 H 257.817 -1.47032 -5.88614 0
M  V30 2998 H 256.556 -0.804829 -4.81013 0
M  V30 2999 H 255.561 -3.09434 -4.54456 0
M  V30 3000 H 256.786 -3.76008 -5.65504 0
M  V30 3001 H 254.732 -1.62795 -6.35479 0
M  V30 3002 H 254.649 -3.30048 -6.8015 0
M  V30 3003 H 255.917 -2.30197 -7.44735 0
M  V30 3004 N 260.146 1.09593 -1.13257 0
M  V30 3005 C 261.393 1.81734 -0.893257 0
M  V30 3006 C 261.721 1.8563 0.580656 0
M  V30 3007 O 260.976 1.31906 1.44566 0
M  V30 3008 C 261.275 3.27802 -1.42411 0
M  V30 3009 C 260.941 3.44041 -2.91456 0
M  V30 3010 C 259.603 3.48181 -3.3215 0
M  V30 3011 C 261.955 3.48719 -3.87356 0
M  V30 3012 C 259.283 3.54575 -4.67433 0
M  V30 3013 C 261.635 3.56648 -5.2248 0
M  V30 3014 C 260.299 3.59055 -5.62704 0
M  V30 3015 H 259.569 0.665011 -0.326866 0
M  V30 3016 H 262.216 1.2912 -1.41422 0
M  V30 3017 H 260.521 3.83042 -0.823795 0
M  V30 3018 H 262.218 3.82149 -1.21503 0
M  V30 3019 H 258.808 3.41502 -2.58987 0
M  V30 3020 H 262.992 3.44763 -3.57004 0
M  V30 3021 H 258.248 3.54725 -4.97976 0
M  V30 3022 H 262.422 3.59212 -5.96607 0
M  V30 3023 H 260.049 3.63763 -6.67518 0
M  V30 3024 N 261.624 0.925811 1.2754 0
M  V30 3025 C 262.849 0.580924 1.99098 0
M  V30 3026 C 263.274 -0.833555 1.68622 0
M  V30 3027 O 262.632 -1.55903 0.925422 0
M  V30 3028 C 262.68 0.811186 3.51358 0
M  V30 3029 O 261.784 -0.124129 4.12213 0
M  V30 3030 H 261.125 0.223873 0.625122 0
M  V30 3031 H 263.655 1.24455 1.62395 0
M  V30 3032 H 263.665 0.72601 4.01489 0
M  V30 3033 H 262.34 1.84227 3.72872 0
M  V30 3034 H 260.917 0.0108006 3.72898 0
M  V30 3035 N 263.102 -1.41638 0.69111 0
M  V30 3036 C 264.379 -1.95036 0.148421 0
M  V30 3037 C 264.759 -1.63072 -1.34055 0
M  V30 3038 O 264.107 -0.93538 -2.08478 0
M  V30 3039 C 264.317 -3.46279 0.434951 0
M  V30 3040 C 265.665 -4.23069 0.360275 0
M  V30 3041 O 266.689 -3.54277 0.369613 0
M  V30 3042 O 265.548 -5.45583 0.316534 0
M  V30 3043 H 262.642 -0.826908 0.0123654 0
M  V30 3044 H 265.188 -1.5138 0.766963 0
M  V30 3045 H 263.96 -3.6281 1.46576 0
M  V30 3046 H 263.583 -3.97019 -0.214787 0
M  V30 3047 N 264.58 -0.43555 -1.51462 0
M  V30 3048 C 265.81 0.130053 -2.0619 0
M  V30 3049 C 266.218 1.37164 -1.30317 0
M  V30 3050 O 265.561 1.80225 -0.355598 0
M  V30 3051 C 265.623 0.519418 -3.55728 0
M  V30 3052 C 265.287 -0.615119 -4.52841 0
M  V30 3053 C 266.284 -1.48671 -4.9819 0
M  V30 3054 C 263.969 -0.795341 -4.95963 0
M  V30 3055 C 265.963 -2.52324 -5.8533 0
M  V30 3056 C 263.65 -1.83514 -5.82894 0
M  V30 3057 C 264.648 -2.69748 -6.27475 0
M  V30 3058 O 264.336 -3.71944 -7.1268 0
M  V30 3059 H 264.068 0.0121612 -0.675891 0
M  V30 3060 H 266.622 -0.6129 -1.96043 0
M  V30 3061 H 264.852 1.31505 -3.63653 0
M  V30 3062 H 266.541 1.01597 -3.92979 0
M  V30 3063 H 267.307 -1.359 -4.65571 0
M  V30 3064 H 263.186 -0.133713 -4.60806 0
M  V30 3065 H 266.73 -3.19665 -6.20048 0
M  V30 3066 H 262.627 -1.96306 -6.14926 0
M  V30 3067 H 263.395 -3.68503 -7.30854 0
M  V30 3068 N 266.058 1.56714 -0.166846 0
M  V30 3069 C 267.006 2.19056 0.782123 0
M  V30 3070 C 268 1.15328 1.24079 0
M  V30 3071 O 269.206 1.33537 1.20697 0
M  V30 3072 H 265.581 0.70167 0.270486 0
M  V30 3073 H 267.552 2.97494 0.232322 0
M  V30 3074 C 266.301 2.84206 2.00306 0
M  V30 3075 H 265.624 3.63748 1.65914 0
M  V30 3076 H 267.064 3.31302 2.64604 0
M  V30 3077 C 265.523 1.83744 2.82382 0
M  V30 3078 O 266.053 1.32014 3.79388 0
M  V30 3079 N 264.259 1.52601 2.47308 0
M  V30 3080 H 263.806 1.9486 1.68485 0
M  V30 3081 H 263.764 0.856351 3.02513 0
M  V30 3082 N 267.536 -0.106894 1.57237 0
M  V30 3083 C 268.466 -1.13148 2.04254 0
M  V30 3084 C 269.447 -1.42476 0.929224 0
M  V30 3085 O 270.632 -1.52709 1.19973 0
M  V30 3086 C 267.762 -2.4545 2.45706 0
M  V30 3087 C 266.716 -2.30558 3.60592 0
M  V30 3088 C 266.042 -3.67931 3.87983 0
M  V30 3089 C 267.342 -1.75597 4.91897 0
M  V30 3090 H 269.036 -0.740374 2.90101 0
M  V30 3091 H 266.582 -0.354696 1.39563 0
M  V30 3092 H 268.535 -3.17389 2.77205 0
M  V30 3093 H 267.259 -2.86475 1.56843 0
M  V30 3094 H 265.918 -1.61067 3.29322 0
M  V30 3095 H 265.566 -4.06462 2.96306 0
M  V30 3096 H 265.266 -3.58817 4.65322 0
M  V30 3097 H 266.79 -4.41356 4.21945 0
M  V30 3098 H 268.204 -2.37364 5.21854 0
M  V30 3099 H 266.601 -1.77272 5.73319 0
M  V30 3100 H 267.671 -0.714451 4.79608 0
M  V30 3101 N 269.014 -1.53014 -0.377408 0
M  V30 3102 C 270.254 -1.70318 -1.1301 0
M  V30 3103 C 270.618 -0.439538 -1.86901 0
M  V30 3104 O 271.819 -0.489095 -2.64313 0
M  V30 3105 C 270.09 -2.91125 -2.07319 0
M  V30 3106 S 271.649 -3.29075 -2.90268 0
M  V30 3107 H 268.467 -0.599426 -0.382374 0
M  V30 3108 H 271.069 -1.91089 -0.412933 0
M  V30 3109 H 269.773 -3.81303 -1.51777 0
M  V30 3110 H 269.304 -2.7272 -2.83526 0
M  V30 3111 H 271.319 -2.80165 -4.09539 0
M  V30 3112 N 270.492 0.636531 -1.44174 0
M  V30 3113 C 271.741 1.39213 -1.45954 0
M  V30 3114 C 272.054 1.95374 -0.0939119 0
M  V30 3115 O 273.26 2.71498 0.0107767 0
M  V30 3116 C 271.716 2.52025 -2.56927 0
M  V30 3117 C 271.324 2.024 -3.99673 0
M  V30 3118 C 273.068 3.29269 -2.67922 0
M  V30 3119 C 270.975 3.12521 -5.0208 0
M  V30 3120 H 269.905 0.523132 -0.542999 0
M  V30 3121 H 272.556 0.685349 -1.70221 0
M  V30 3122 H 270.938 3.25253 -2.25891 0
M  V30 3123 H 272.112 1.36073 -4.40251 0
M  V30 3124 H 270.427 1.37987 -3.92872 0
M  V30 3125 H 273.024 4.11352 -3.41605 0
M  V30 3126 H 273.367 3.78397 -1.73555 0
M  V30 3127 H 273.9 2.63129 -2.98342 0
M  V30 3128 H 270.639 2.68343 -5.98057 0
M  V30 3129 H 270.159 3.77507 -4.66099 0
M  V30 3130 H 271.838 3.77385 -5.25538 0
M  V30 3131 N 271.97 1.30982 0.876444 0
M  V30 3132 C 273.216 1.20474 1.63138 0
M  V30 3133 C 273.549 -0.238096 1.92735 0
M  V30 3134 O 272.824 -1.1692 1.55435 0
M  V30 3135 C 273.107 2.04244 2.96574 0
M  V30 3136 C 272.96 3.56793 2.73896 0
M  V30 3137 C 274.279 1.88684 3.97601 0
M  V30 3138 H 271.398 0.439001 0.591985 0
M  V30 3139 H 274.04 1.60704 1.01361 0
M  V30 3140 H 272.19 1.70063 3.493 0
M  V30 3141 H 273.862 4.01077 2.27892 0
M  V30 3142 H 272.105 3.80548 2.08245 0
M  V30 3143 H 272.776 4.10706 3.68815 0
M  V30 3144 H 275.252 2.18584 3.54062 0
M  V30 3145 H 274.128 2.4961 4.88862 0
M  V30 3146 H 274.389 0.848343 4.33884 0
M  V30 3147 N 273.449 -1.08991 1.13837 0
M  V30 3148 C 274.397 -2.17841 0.815347 0
M  V30 3149 C 275.391 -1.68164 -0.204233 0
M  V30 3150 O 276.597 -1.79897 -0.0609304 0
M  V30 3151 H 272.972 -0.710654 0.245915 0
M  V30 3152 H 274.943 -2.42315 1.74143 0
M  V30 3153 C 273.692 -3.46381 0.302614 0
M  V30 3154 H 273.015 -3.84979 1.0785 0
M  V30 3155 H 274.455 -4.23844 0.115074 0
M  V30 3156 C 272.914 -3.22556 -0.972591 0
M  V30 3157 O 273.444 -3.45599 -2.04754 0
M  V30 3158 N 271.65 -2.76134 -0.905455 0
M  V30 3159 H 271.197 -2.57582 -0.0305421 0
M  V30 3160 H 271.155 -2.60571 -1.75926 0
M  V30 3161 N 274.927 -0.932562 -1.27047 0
M  V30 3162 C 276.343 -0.633544 -1.46487 0
M  V30 3163 C 276.543 0.815746 -1.84249 0
M  V30 3164 O 275.599 1.59319 -1.95892 0
M  V30 3165 C 276.912 -1.58758 -2.55375 0
M  V30 3166 C 278.46 -1.59634 -2.69232 0
M  V30 3167 C 278.935 -2.53747 -3.81283 0
M  V30 3168 N 280.426 -2.51982 -3.88664 0
M  V30 3169 C 281.161 -3.21491 -4.74796 0
M  V30 3170 N 280.657 -4.00395 -5.65381 0
M  V30 3171 N 282.45 -3.10485 -4.68568 0
M  V30 3172 H 274.601 -1.86946 -1.00821 0
M  V30 3173 H 276.864 -0.802897 -0.504044 0
M  V30 3174 H 276.57 -2.62172 -2.34432 0
M  V30 3175 H 276.444 -1.33301 -3.52861 0
M  V30 3176 H 278.831 -0.569488 -2.89553 0
M  V30 3177 H 278.912 -1.89142 -1.72218 0
M  V30 3178 H 278.556 -3.56545 -3.61715 0
M  V30 3179 H 278.486 -2.21532 -4.77735 0
M  V30 3180 H 280.977 -1.94681 -3.23895 0
M  V30 3181 H 281.29 -4.50406 -6.27976 0
M  V30 3182 H 279.635 -4.04498 -5.65161 0
M  V30 3183 H 282.826 -2.48331 -3.96799 0
M  V30 3184 H 282.999 -3.64925 -5.35475 0
M  V30 3185 N 276.405 1.4127 -0.698611 0
M  V30 3186 C 277.337 2.292 0.00399731 0
M  V30 3187 C 278.35 1.44944 0.741279 0
M  V30 3188 O 279.539 1.68416 0.591477 0
M  V30 3189 C 276.639 3.22875 1.02979 0
M  V30 3190 C 275.812 4.35904 0.36151 0
M  V30 3191 C 274.871 5.10134 1.29033 0
M  V30 3192 O 273.897 5.63809 0.781562 0
M  V30 3193 N 275.099 5.17885 2.6225 0
M  V30 3194 H 277.864 2.9014 -0.750921 0
M  V30 3195 H 275.425 1.52455 -0.544882 0
M  V30 3196 H 277.417 3.69404 1.65296 0
M  V30 3197 H 275.987 2.63221 1.68622 0
M  V30 3198 H 275.207 3.91719 -0.441584 0
M  V30 3199 H 276.495 5.08696 -0.103055 0
M  V30 3200 H 275.893 4.7573 3.061 0
M  V30 3201 H 274.45 5.6798 3.19754 0
M  V30 3202 N 277.883 0.443576 1.51229 0
M  V30 3203 C 279.13 -0.120796 2.02139 0
M  V30 3204 C 279.458 -1.42166 1.32736 0
M  V30 3205 O 278.713 -1.90849 0.43301 0
M  V30 3206 C 279.012 -0.380579 3.55368 0
M  V30 3207 C 278.678 0.83523 4.43097 0
M  V30 3208 C 277.34 1.16864 4.66794 0
M  V30 3209 C 279.692 1.64601 4.94526 0
M  V30 3210 C 277.02 2.31339 5.39165 0
M  V30 3211 C 279.372 2.78181 5.68153 0
M  V30 3212 C 278.036 3.11969 5.90112 0
M  V30 3213 H 277.306 -0.0442023 0.73968 0
M  V30 3214 H 279.953 0.592046 1.82118 0
M  V30 3215 H 278.258 -1.17538 3.73754 0
M  V30 3216 H 279.955 -0.830777 3.923 0
M  V30 3217 H 276.545 0.565437 4.24854 0
M  V30 3218 H 280.729 1.40163 4.76097 0
M  V30 3219 H 275.985 2.57823 5.5438 0
M  V30 3220 H 280.159 3.41371 6.06992 0
M  V30 3221 H 277.786 4.00784 6.45969 0
M  V30 3222 N 279.361 -1.56624 0.175154 0
M  V30 3223 C 280.308 -2.18149 -0.753634 0
M  V30 3224 C 281.278 -1.12265 -1.22417 0
M  V30 3225 O 282.463 -1.40432 -1.29165 0
M  V30 3226 C 279.603 -2.82933 -1.97592 0
M  V30 3227 C 278.716 -4.03289 -1.5486 0
M  V30 3228 C 277.851 -4.55988 -2.72485 0
M  V30 3229 C 276.89 -5.68746 -2.26262 0
M  V30 3230 N 276.027 -6.15938 -3.36994 0
M  V30 3231 H 280.867 -2.9717 -0.222195 0
M  V30 3232 H 278.404 -1.46774 -0.0979422 0
M  V30 3233 H 280.362 -3.18653 -2.69288 0
M  V30 3234 H 278.992 -2.06509 -2.481 0
M  V30 3235 H 278.044 -3.73364 -0.728246 0
M  V30 3236 H 279.356 -4.849 -1.16933 0
M  V30 3237 H 278.51 -4.9391 -3.52332 0
M  V30 3238 H 277.249 -3.73443 -3.13674 0
M  V30 3239 H 276.254 -5.30372 -1.44863 0
M  V30 3240 H 277.479 -6.53095 -1.86127 0
M  V30 3241 H 275.425 -5.36321 -3.77751 0
M  V30 3242 H 275.342 -6.92548 -3.03172 0
M  V30 3243 H 276.61 -6.58511 -4.17114 0
M  V30 3244 N 280.839 0.0985539 -1.57292 0
M  V30 3245 C 281.802 1.10402 -2.00858 0
M  V30 3246 C 282.802 1.33146 -0.901593 0
M  V30 3247 O 283.992 1.29318 -1.16716 0
M  V30 3248 C 281.124 2.45394 -2.36632 0
M  V30 3249 H 282.317 0.729099 -2.90902 0
M  V30 3250 H 279.87 0.343495 -1.52479 0
M  V30 3251 H 280.605 2.87769 -1.49531 0
M  V30 3252 H 280.39 2.30235 -3.17387 0
M  V30 3253 H 281.88 3.17718 -2.71007 0
M  V30 3254 N 282.317 1.53212 0.369288 0
M  V30 3255 C 283.227 1.82342 1.47609 0
M  V30 3256 C 284.243 0.711532 1.58787 0
M  V30 3257 O 285.419 1.0012 1.74751 0
M  V30 3258 C 282.484 2.00393 2.8292 0
M  V30 3259 C 281.545 3.24297 2.81301 0
M  V30 3260 C 280.778 3.41478 4.10157 0
M  V30 3261 O 281.001 2.63033 5.06132 0
M  V30 3262 O 279.935 4.34817 4.16194 0
M  V30 3263 H 283.761 2.76366 1.25918 0
M  V30 3264 H 281.346 1.38547 0.559034 0
M  V30 3265 H 283.228 2.13859 3.63101 0
M  V30 3266 H 281.903 1.09559 3.04596 0
M  V30 3267 H 280.81 3.16257 1.99831 0
M  V30 3268 H 282.143 4.15041 2.64578 0
M  V30 3269 N 283.795 -0.628877 1.44509 0
M  V30 3270 C 285.072 -1.38733 1.37886 0
M  V30 3271 C 285.452 -2.11065 0.0387008 0
M  V30 3272 O 284.8 -2.06476 -0.97878 0
M  V30 3273 C 285.01 -2.35188 2.57852 0
M  V30 3274 C 286.358 -2.9845 3.02014 0
M  V30 3275 O 287.382 -2.45513 2.58073 0
M  V30 3276 O 286.241 -3.94487 3.78209 0
M  V30 3277 H 283.335 -0.621015 0.54614 0
M  V30 3278 H 285.881 -0.653744 1.56602 0
M  V30 3279 H 284.653 -1.80855 3.46998 0
M  V30 3280 H 284.276 -3.1596 2.4136 0
M  V30 3281 N 285.273 -1.31445 -0.869486 0
M  V30 3282 C 286.55 -1.11795 -1.60503 0
M  V30 3283 C 286.93 0.327168 -2.08549 0
M  V30 3284 O 286.278 1.32135 -1.8642 0
M  V30 3285 C 286.488 -2.13258 -2.76265 0
M  V30 3286 C 287.836 -2.45805 -3.46215 0
M  V30 3287 O 288.86 -2.11688 -2.86473 0
M  V30 3288 O 287.719 -3.04228 -4.5399 0
M  V30 3289 H 284.813 -0.430421 -0.706163 0
M  V30 3290 H 287.359 -1.42925 -0.914907 0
M  V30 3291 H 286.131 -3.10461 -2.3818 0
M  V30 3292 H 285.754 -1.83035 -3.52964 0
M  V30 3293 N 286.751 1.08385 -1.14413 0
M  V30 3294 C 287.981 1.8425 -0.934644 0
M  V30 3295 C 288.389 1.81907 0.520234 0
M  V30 3296 O 287.732 1.22126 1.37226 0
M  V30 3297 C 287.794 3.32853 -1.35828 0
M  V30 3298 C 287.458 3.5893 -2.82875 0
M  V30 3299 C 288.455 3.53756 -3.80989 0
M  V30 3300 C 286.14 3.86934 -3.20293 0
M  V30 3301 C 288.134 3.76216 -5.14529 0
M  V30 3302 C 285.821 4.09047 -4.54008 0
M  V30 3303 C 286.819 4.03682 -5.50936 0
M  V30 3304 O 286.507 4.25214 -6.82238 0
M  V30 3305 H 286.239 0.588502 -0.332628 0
M  V30 3306 H 288.793 1.37792 -1.52324 0
M  V30 3307 H 287.023 3.8007 -0.713019 0
M  V30 3308 H 288.712 3.90154 -1.11957 0
M  V30 3309 H 289.478 3.32135 -3.53428 0
M  V30 3310 H 285.357 3.9023 -2.45442 0
M  V30 3311 H 288.901 3.71943 -5.90173 0
M  V30 3312 H 284.798 4.30151 -4.8129 0
M  V30 3313 H 285.566 4.42619 -6.88499 0
M  V30 3314 N 288.23 0.939286 1.26551 0
M  V30 3315 C 289.507 0.5038 1.89001 0
M  V30 3316 C 289.887 -1.01854 1.84903 0
M  V30 3317 O 289.235 -1.87773 1.30206 0
M  V30 3318 C 289.445 1.063 3.32417 0
M  V30 3319 C 290.793 1.13051 4.09273 0
M  V30 3320 O 291.817 1.01345 3.41479 0
M  V30 3321 O 290.676 1.31233 5.30509 0
M  V30 3322 H 287.77 0.163897 0.810597 0
M  V30 3323 H 290.316 1.03173 1.34735 0
M  V30 3324 H 289.088 2.10665 3.29752 0
M  V30 3325 H 288.711 0.517408 3.94219 0
M  V30 3326 N 289.708 -1.40897 0.706093 0
M  V30 3327 C 290.655 -2.30751 0.0474474 0
M  V30 3328 C 291.625 -1.47678 -0.76029 0
M  V30 3329 O 292.81 -1.76441 -0.726177 0
M  V30 3330 C 289.95 -3.33815 -0.875309 0
M  V30 3331 C 289.063 -4.31961 -0.0580623 0
M  V30 3332 C 288.198 -5.22093 -0.979425 0
M  V30 3333 C 287.237 -6.11902 -0.155706 0
M  V30 3334 N 286.374 -6.94482 -1.03144 0
M  V30 3335 H 291.214 -2.86513 0.819413 0
M  V30 3336 H 288.751 -1.41102 0.415783 0
M  V30 3337 H 290.709 -3.92129 -1.42446 0
M  V30 3338 H 289.339 -2.79579 -1.61356 0
M  V30 3339 H 288.391 -3.75507 0.608147 0
M  V30 3340 H 289.703 -4.95415 0.580082 0
M  V30 3341 H 288.857 -5.85292 -1.59744 0
M  V30 3342 H 287.596 -4.5889 -1.65141 0
M  V30 3343 H 286.601 -5.47742 0.475309 0
M  V30 3344 H 287.826 -6.77162 0.512635 0
M  V30 3345 H 285.772 -6.33877 -1.68924 0
M  V30 3346 H 285.689 -7.54665 -0.449108 0
M  V30 3347 H 286.957 -7.6214 -1.63593 0
M  V30 3348 N 291.186 -0.45159 -1.50991 0
M  V30 3349 C 292.096 0.358431 -2.31846 0
M  V30 3350 C 293.112 1.01438 -1.41373 0
M  V30 3351 O 294.288 1.00663 -1.74439 0
M  V30 3352 C 291.353 1.43704 -3.15515 0
M  V30 3353 C 290.414 0.799742 -4.21785 0
M  V30 3354 C 289.647 1.82696 -5.01456 0
M  V30 3355 O 289.87 3.05105 -4.81941 0
M  V30 3356 O 288.804 1.40958 -5.85162 0
M  V30 3357 H 292.63 -0.302032 -3.02194 0
M  V30 3358 H 290.215 -0.213825 -1.47862 0
M  V30 3359 H 292.097 2.06227 -3.67489 0
M  V30 3360 H 290.772 2.08133 -2.47916 0
M  V30 3361 H 289.679 0.136084 -3.73852 0
M  V30 3362 H 291.012 0.198718 -4.91799 0
M  V30 3363 N 292.664 1.56529 -0.183458 0
M  V30 3364 C 293.594 2.21549 0.737456 0
M  V30 3365 C 294.575 1.17489 1.23005 0
M  V30 3366 O 295.76 1.45959 1.281 0
M  V30 3367 C 292.89 2.86575 1.96194 0
M  V30 3368 C 291.844 3.96778 1.60473 0
M  V30 3369 C 291.17 4.48911 2.90487 0
M  V30 3370 C 292.47 5.15767 0.823497 0
M  V30 3371 H 294.164 2.98761 0.195453 0
M  V30 3372 H 291.71 1.43702 0.0925686 0
M  V30 3373 H 293.663 3.30739 2.61131 0
M  V30 3374 H 292.387 2.06749 2.52828 0
M  V30 3375 H 291.046 3.53286 0.978997 0
M  V30 3376 H 290.694 3.65862 3.45186 0
M  V30 3377 H 290.394 5.23265 2.67335 0
M  V30 3378 H 291.918 4.95771 3.56432 0
M  V30 3379 H 293.332 5.56549 1.37571 0
M  V30 3380 H 291.729 5.96114 0.690551 0
M  V30 3381 H 292.799 4.84574 -0.177782 0
M  V30 3382 N 294.142 -0.090211 1.57342 0
M  V30 3383 C 295.391 -0.791531 1.8552 0
M  V30 3384 C 295.704 -1.79659 0.773441 0
M  V30 3385 O 296.91 -2.54616 0.942497 0
M  V30 3386 C 295.366 -1.45856 3.2902 0
M  V30 3387 C 294.974 -0.493017 4.45279 0
M  V30 3388 C 296.718 -2.14332 3.66418 0
M  V30 3389 C 294.625 -1.16491 5.79814 0
M  V30 3390 H 293.555 -0.299356 0.692027 0
M  V30 3391 H 296.206 -0.0445343 1.83446 0
M  V30 3392 H 294.588 -2.25318 3.2565 0
M  V30 3393 H 295.762 0.270464 4.60006 0
M  V30 3394 H 294.077 0.0863061 4.16311 0
M  V30 3395 H 296.674 -2.65344 4.64216 0
M  V30 3396 H 297.017 -2.93447 2.95287 0
M  V30 3397 H 297.55 -1.41724 3.71698 0
M  V30 3398 H 294.289 -0.41447 6.54188 0
M  V30 3399 H 293.809 -1.8997 5.68921 0
M  V30 3400 H 295.488 -1.69001 6.24538 0
M  V30 3401 N 295.62 -1.53406 -0.361157 0
M  V30 3402 C 296.568 -1.80832 -1.46296 0
M  V30 3403 C 297.562 -0.677699 -1.55253 0
M  V30 3404 O 298.768 -0.860723 -1.58087 0
M  V30 3405 H 295.143 -0.572627 -0.487445 0
M  V30 3406 H 297.114 -2.73045 -1.20371 0
M  V30 3407 C 295.863 -2.01907 -2.8307 0
M  V30 3408 H 295.186 -2.88349 -2.76938 0
M  V30 3409 H 296.626 -2.25072 -3.59331 0
M  V30 3410 C 295.085 -0.799449 -3.27277 0
M  V30 3411 O 295.615 0.00971761 -4.01699 0
M  V30 3412 N 293.821 -0.621637 -2.83873 0
M  V30 3413 H 293.368 -1.28126 -2.23476 0
M  V30 3414 H 293.326 0.19298 -3.13807 0
M  V30 3415 N 297.098 0.621204 -1.44841 0
M  V30 3416 C 298.347 1.37658 -1.47422 0
M  V30 3417 C 298.66 1.95264 -0.114629 0
M  V30 3418 O 299.866 2.71494 -0.0180199 0
M  V30 3419 C 298.322 2.49285 -2.59586 0
M  V30 3420 C 297.93 1.98149 -4.01797 0
M  V30 3421 C 299.674 3.26409 -2.71399 0
M  V30 3422 C 297.581 3.07178 -5.05367 0
M  V30 3423 H 296.511 0.517344 -0.548517 0
M  V30 3424 H 299.162 0.667257 -1.70938 0
M  V30 3425 H 297.544 3.22839 -2.29328 0
M  V30 3426 H 298.718 1.31395 -4.41669 0
M  V30 3427 H 297.033 1.33812 -3.94314 0
M  V30 3428 H 299.63 4.07706 -3.45948 0
M  V30 3429 H 299.973 3.76535 -1.77559 0
M  V30 3430 H 300.506 2.5995 -3.01116 0
M  V30 3431 H 297.245 2.61985 -6.00869 0
M  V30 3432 H 296.765 3.72542 -4.70077 0
M  V30 3433 H 298.444 3.71789 -5.29511 0
M  V30 3434 N 298.576 1.31904 0.862503 0
M  V30 3435 C 299.823 1.22017 1.61611 0
M  V30 3436 C 300.151 -0.21991 1.93253 0
M  V30 3437 O 299.406 -1.17076 1.56817 0
M  V30 3438 C 299.705 2.01713 2.95037 0
M  V30 3439 C 299.371 3.51145 2.82857 0
M  V30 3440 C 298.033 3.91889 2.79243 0
M  V30 3441 C 300.385 4.46204 2.69353 0
M  V30 3442 C 297.713 5.25947 2.59993 0
M  V30 3443 C 300.065 5.80397 2.5164 0
M  V30 3444 C 298.729 6.20352 2.46413 0
M  V30 3445 H 297.999 0.44649 0.591378 0
M  V30 3446 H 300.646 1.63248 1.00111 0
M  V30 3447 H 298.951 1.53185 3.60613 0
M  V30 3448 H 300.648 1.91437 3.52353 0
M  V30 3449 H 297.238 3.1878 2.86491 0
M  V30 3450 H 301.422 4.15652 2.71196 0
M  V30 3451 H 296.678 5.5597 2.54376 0
M  V30 3452 H 300.852 6.53676 2.40169 0
M  V30 3453 H 298.479 7.24172 2.31256 0
M  V30 3454 N 300.054 -1.07777 1.14986 0
M  V30 3455 C 301.303 -1.79669 0.916617 0
M  V30 3456 C 301.616 -1.87474 -0.557917 0
M  V30 3457 O 302.822 -2.55845 -0.908617 0
M  V30 3458 C 301.278 -3.22848 1.59051 0
M  V30 3459 C 300.886 -3.23257 3.10176 0
M  V30 3460 C 302.63 -3.99379 1.43864 0
M  V30 3461 C 300.537 -4.61063 3.70372 0
M  V30 3462 H 299.467 -0.673349 0.33929 0
M  V30 3463 H 302.118 -1.21003 1.37951 0
M  V30 3464 H 300.5 -3.8168 1.0553 0
M  V30 3465 H 301.674 -2.74095 3.70417 0
M  V30 3466 H 299.989 -2.60222 3.25074 0
M  V30 3467 H 302.586 -5.0122 1.86232 0
M  V30 3468 H 302.929 -4.14511 0.385564 0
M  V30 3469 H 303.462 -3.47032 1.94457 0
M  V30 3470 H 300.201 -4.51135 4.7556 0
M  V30 3471 H 299.721 -5.1048 3.14913 0
M  V30 3472 H 301.4 -5.30034 3.71043 0
M  V30 3473 N 301.532 -0.945985 -1.26051 0
M  V30 3474 C 302.48 -0.450259 -2.282 0
M  V30 3475 C 303.474 0.47497 -1.62605 0
M  V30 3476 O 304.68 0.352653 -1.76512 0
M  V30 3477 H 301.055 -0.127081 -0.741184 0
M  V30 3478 H 303.026 -1.32422 -2.67408 0
M  V30 3479 C 301.775 0.26467 -3.46691 0
M  V30 3480 H 301.098 -0.438123 -3.97392 0
M  V30 3481 H 302.538 0.575678 -4.20074 0
M  V30 3482 C 300.997 1.48416 -3.02447 0
M  V30 3483 O 301.527 2.58227 -3.07704 0
M  V30 3484 N 299.733 1.34243 -2.57735 0
M  V30 3485 H 299.28 0.448994 -2.53657 0
M  V30 3486 H 299.238 2.15957 -2.28495 0
M  V30 3487 N 303.011 1.40521 -0.713556 0
M  V30 3488 C 303.959 2.32549 -0.0485227 0
M  V30 3489 C 304.953 1.51931 0.74922 0
M  V30 3490 O 306.159 1.67745 0.652816 0
M  V30 3491 H 302.534 0.751994 0.00311138 0
M  V30 3492 H 304.505 2.86291 -0.841443 0
M  V30 3493 C 303.254 3.36879 0.860687 0
M  V30 3494 H 302.577 3.98978 0.256246 0
M  V30 3495 H 304.017 4.03772 1.294 0
M  V30 3496 C 302.476 2.72197 1.9852 0
M  V30 3497 O 303.006 2.5837 3.07584 0
M  V30 3498 N 301.212 2.30612 1.76823 0
M  V30 3499 H 300.759 2.42059 0.881217 0
M  V30 3500 H 300.717 1.87672 2.52243 0
M  V30 3501 N 304.489 0.459591 1.5075 0
M  V30 3502 C 305.437 -0.354678 2.2988 0
M  V30 3503 C 306.431 -1.00086 1.36672 0
M  V30 3504 O 307.637 -0.933277 1.53915 0
M  V30 3505 H 304.012 -0.13321 0.740107 0
M  V30 3506 H 305.983 0.333269 2.96533 0
M  V30 3507 C 304.732 -1.43073 3.169 0
M  V30 3508 H 304.055 -0.942882 3.88523 0
M  V30 3509 H 305.495 -1.97328 3.75284 0
M  V30 3510 C 303.954 -2.42633 2.33732 0
M  V30 3511 O 304.484 -3.47658 2.01238 0
M  V30 3512 N 302.69 -2.14066 1.9653 0
M  V30 3513 H 302.237 -1.28685 2.23155 0
M  V30 3514 H 302.195 -2.80917 1.41185 0
M  V30 3515 N 305.967 -1.56429 0.191757 0
M  V30 3516 C 307.215 -1.97095 -0.447006 0
M  V30 3517 C 307.536 -1.07967 -1.62383 0
M  V30 3518 O 306.806 -0.150248 -1.95323 0
M  V30 3519 H 305.386 -0.727832 -0.168135 0
M  V30 3520 H 308.048 -1.92911 0.27771 0
M  V30 3521 H 307.144 -3.01848 -0.793371 0
M  V30 3522 N 307.445 0.0818655 -1.57387 0
M  V30 3523 C 308.392 1.09834 -2.0299 0
M  V30 3524 C 309.362 1.39043 -0.908639 0
M  V30 3525 O 310.547 1.50282 -1.17559 0
M  V30 3526 C 307.687 2.40971 -2.47037 0
M  V30 3527 C 306.8 2.18379 -3.7274 0
M  V30 3528 C 305.935 3.43008 -4.0561 0
M  V30 3529 C 304.974 3.15736 -5.24383 0
M  V30 3530 N 304.111 4.32667 -5.52941 0
M  V30 3531 H 308.951 0.702472 -2.89602 0
M  V30 3532 H 306.488 0.33531 -1.43227 0
M  V30 3533 H 308.446 3.1752 -2.70623 0
M  V30 3534 H 307.076 2.78379 -1.63417 0
M  V30 3535 H 306.128 1.32569 -3.56552 0
M  V30 3536 H 307.44 1.94227 -4.59431 0
M  V30 3537 H 306.594 4.27958 -4.30043 0
M  V30 3538 H 305.333 3.70225 -3.17466 0
M  V30 3539 H 304.338 2.2918 -4.99757 0
M  V30 3540 H 305.563 2.8985 -6.14136 0
M  V30 3541 H 303.509 4.59935 -4.67756 0
M  V30 3542 H 303.426 4.11753 -6.34031 0
M  V30 3543 H 304.694 5.18644 -5.81918 0
M  V30 3544 N 308.923 1.53595 0.353017 0
M  V30 3545 C 310.153 1.74058 1.11299 0
M  V30 3546 C 310.561 0.475205 1.83135 0
M  V30 3547 O 309.904 -0.562344 1.74881 0
M  V30 3548 C 309.966 2.85994 2.17825 0
M  V30 3549 C 309.63 4.25923 1.65647 0
M  V30 3550 C 310.627 5.07829 1.11383 0
M  V30 3551 C 308.312 4.72377 1.7078 0
M  V30 3552 C 310.306 6.34285 0.629439 0
M  V30 3553 C 307.993 5.98808 1.21953 0
M  V30 3554 C 308.991 6.79594 0.681265 0
M  V30 3555 O 308.679 8.03651 0.200248 0
M  V30 3556 H 308.411 0.585327 0.338183 0
M  V30 3557 H 310.965 2.01186 0.413927 0
M  V30 3558 H 309.195 2.54368 2.91262 0
M  V30 3559 H 310.884 2.94515 2.79313 0
M  V30 3560 H 311.65 4.73107 1.06746 0
M  V30 3561 H 307.529 4.0956 2.11617 0
M  V30 3562 H 311.073 6.97288 0.208636 0
M  V30 3563 H 306.97 6.33026 1.26287 0
M  V30 3564 H 307.738 8.1788 0.318416 0
M  V30 3565 N 310.401 -0.613514 1.45168 0
M  V30 3566 C 311.65 -1.36874 1.4815 0
M  V30 3567 C 311.963 -1.952 0.124982 0
M  V30 3568 O 313.169 -2.71481 0.0324176 0
M  V30 3569 C 311.625 -2.47905 2.60904 0
M  V30 3570 C 311.233 -1.96016 4.02842 0
M  V30 3571 C 312.977 -3.24965 2.73126 0
M  V30 3572 C 310.884 -3.04494 5.06988 0
M  V30 3573 H 309.814 -0.514428 0.551253 0
M  V30 3574 H 312.465 -0.658182 1.7129 0
M  V30 3575 H 310.847 -3.21618 2.31037 0
M  V30 3576 H 312.021 -1.29051 4.4236 0
M  V30 3577 H 310.336 -1.31719 3.95018 0
M  V30 3578 H 312.933 -4.05865 3.48106 0
M  V30 3579 H 313.276 -3.75588 1.79553 0
M  V30 3580 H 313.809 -2.5835 3.0249 0
M  V30 3581 H 310.548 -2.58795 6.0225 0
M  V30 3582 H 310.068 -3.70044 4.72046 0
M  V30 3583 H 311.747 -3.68976 5.31475 0
M  V30 3584 N 311.879 -1.3236 -0.855495 0
M  V30 3585 C 312.826 -1.21225 -1.964 0
M  V30 3586 C 313.796 -0.0946204 -1.6583 0
M  V30 3587 O 314.981 -0.27002 -1.8888 0
M  V30 3588 C 312.121 -0.940419 -3.32039 0
M  V30 3589 C 311.234 -2.14276 -3.75113 0
M  V30 3590 C 310.369 -1.80648 -4.9954 0
M  V30 3591 C 309.408 -2.97208 -5.35102 0
M  V30 3592 N 308.545 -2.63678 -6.50706 0
M  V30 3593 H 313.385 -2.16042 -2.05255 0
M  V30 3594 H 310.922 -1.07451 -1.00463 0
M  V30 3595 H 312.88 -0.763311 -4.10158 0
M  V30 3596 H 311.51 -0.0290413 -3.22787 0
M  V30 3597 H 310.562 -2.43017 -2.92655 0
M  V30 3598 H 311.874 -3.01468 -3.97389 0
M  V30 3599 H 311.028 -1.59484 -5.85363 0
M  V30 3600 H 309.767 -0.906678 -4.79198 0
M  V30 3601 H 308.772 -3.19004 -4.47791 0
M  V30 3602 H 309.997 -3.87918 -5.57401 0
M  V30 3603 H 307.943 -1.76238 -6.31883 0
M  V30 3604 H 307.86 -3.444 -6.72997 0
M  V30 3605 H 309.128 -2.45942 -7.39684 0
M  V30 3606 N 313.357 1.07166 -1.15556 0
M  V30 3607 C 314.304 2.14417 -0.854055 0
M  V30 3608 C 315.274 1.64965 0.193806 0
M  V30 3609 O 316.459 1.90703 0.0609443 0
M  V30 3610 C 313.599 3.43304 -0.351574 0
M  V30 3611 C 312.712 4.06537 -1.46123 0
M  V30 3612 C 311.847 5.23266 -0.914677 0
M  V30 3613 C 310.886 5.78464 -2.00114 0
M  V30 3614 N 310.023 6.86521 -1.47083 0
M  V30 3615 H 314.863 2.39548 -1.77259 0
M  V30 3616 H 312.4 1.17543 -0.884425 0
M  V30 3617 H 314.358 4.17179 -0.0419409 0
M  V30 3618 H 312.988 3.18419 0.530037 0
M  V30 3619 H 312.04 3.30297 -1.88701 0
M  V30 3620 H 313.352 4.43567 -2.28144 0
M  V30 3621 H 312.506 6.04131 -0.557698 0
M  V30 3622 H 311.245 4.87658 -0.0636583 0
M  V30 3623 H 310.25 4.96243 -2.36692 0
M  V30 3624 H 311.475 6.16126 -2.85597 0
M  V30 3625 H 309.421 6.52849 -0.642198 0
M  V30 3626 H 309.338 7.22446 -2.22729 0
M  V30 3627 H 310.606 7.71087 -1.14215 0
M  V30 3628 N 314.835 0.952656 1.25548 0
M  V30 3629 C 316.065 0.622592 1.96996 0
M  V30 3630 C 316.473 -0.809112 1.71026 0
M  V30 3631 O 315.816 -1.55258 0.981861 0
M  V30 3632 C 315.878 0.798946 3.5051 0
M  V30 3633 C 315.542 2.20744 4.00151 0
M  V30 3634 C 316.539 3.18394 4.11001 0
M  V30 3635 C 314.224 2.5311 4.33867 0
M  V30 3636 C 316.218 4.46504 4.54877 0
M  V30 3637 C 313.905 3.8145 4.7743 0
M  V30 3638 C 314.903 4.77959 4.87897 0
M  V30 3639 O 314.591 6.04012 5.30494 0
M  V30 3640 H 314.323 0.232503 0.634758 0
M  V30 3641 H 316.877 1.2789 1.60728 0
M  V30 3642 H 315.107 0.0854903 3.86605 0
M  V30 3643 H 316.796 0.47023 4.03167 0
M  V30 3644 H 317.562 2.94715 3.85186 0
M  V30 3645 H 313.441 1.78719 4.24948 0
M  V30 3646 H 316.985 5.21835 4.62962 0
M  V30 3647 H 312.882 4.04936 5.0269 0
M  V30 3648 H 313.65 6.0736 5.48685 0
M  V30 3649 N 316.313 -1.40141 0.720998 0
M  V30 3650 C 317.261 -2.3252 0.0608547 0
M  V30 3651 C 318.255 -1.52326 -0.741152 0
M  V30 3652 O 319.461 -1.68089 -0.643911 0
M  V30 3653 H 315.836 -0.751999 0.000876664 0
M  V30 3654 H 317.807 -2.8584 0.856614 0
M  V30 3655 C 316.556 -3.37331 -0.842809 0
M  V30 3656 H 315.879 -3.99108 -0.235084 0
M  V30 3657 H 317.319 -4.04452 -1.27257 0
M  V30 3658 C 315.778 -2.73246 -1.97074 0
M  V30 3659 O 316.308 -2.59998 -3.06209 0
M  V30 3660 N 314.514 -2.31547 -1.75597 0
M  V30 3661 H 314.061 -2.42522 -0.868368 0
M  V30 3662 H 314.019 -1.89007 -2.51244 0
M  V30 3663 N 317.792 -0.46758 -1.50504 0
M  V30 3664 C 319.02 0.0864133 -2.06719 0
M  V30 3665 C 319.435 1.33819 -1.33184 0
M  V30 3666 O 318.792 1.78061 -0.400083 0
M  V30 3667 C 318.843 0.378079 -3.59517 0
M  V30 3668 O 318.564 -0.824044 -4.3028 0
M  V30 3669 C 320.065 0.979426 -4.32345 0
M  V30 3670 H 317.285 -0.00551697 -0.670977 0
M  V30 3671 H 319.829 -0.655354 -1.93715 0
M  V30 3672 H 317.984 1.06977 -3.72337 0
M  V30 3673 H 318.398 -0.566518 -5.21432 0
M  V30 3674 H 319.872 1.1333 -5.40241 0
M  V30 3675 H 320.349 1.9686 -3.9261 0
M  V30 3676 H 320.955 0.326216 -4.24047 0
M  V30 3677 N 319.27 1.56325 -0.20005 0
M  V30 3678 C 320.498 2.02105 0.442874 0
M  V30 3679 C 320.913 1.08014 1.5485 0
M  V30 3680 O 320.27 0.0858797 1.82298 0
M  V30 3681 C 320.321 3.47549 0.994583 0
M  V30 3682 O 320.042 4.38049 -0.0669322 0
M  V30 3683 C 321.543 4.0887 1.7129 0
M  V30 3684 H 318.763 0.661807 0.110691 0
M  V30 3685 H 321.307 2.02134 -0.310207 0
M  V30 3686 H 319.462 3.48204 1.69803 0
M  V30 3687 H 319.876 5.23368 0.344462 0
M  V30 3688 H 321.35 5.12475 2.05118 0
M  V30 3689 H 321.827 3.52615 2.61838 0
M  V30 3690 H 322.433 4.12002 1.05518 0
M  V30 3691 N 320.748 -0.0735177 1.57428 0
M  V30 3692 C 321.994 -0.774145 1.87443 0
M  V30 3693 C 322.327 -1.77311 0.792103 0
M  V30 3694 O 321.602 -1.93492 -0.197793 0
M  V30 3695 C 321.885 -1.48367 3.28115 0
M  V30 3696 C 321.738 -0.501227 4.46999 0
M  V30 3697 C 323.057 -2.429 3.66998 0
M  V30 3698 H 320.176 -0.279971 0.681752 0
M  V30 3699 H 322.818 -0.0373616 1.89963 0
M  V30 3700 H 320.968 -2.11171 3.26097 0
M  V30 3701 H 322.64 0.121468 4.6114 0
M  V30 3702 H 320.883 0.183593 4.33411 0
M  V30 3703 H 321.554 -1.03526 5.42205 0
M  V30 3704 H 324.03 -1.90175 3.70098 0
M  V30 3705 H 322.906 -2.89549 4.66318 0
M  V30 3706 H 323.167 -3.27628 2.96837 0
M  V30 3707 N 322.226 -1.5378 -0.344866 0
M  V30 3708 C 323.451 -1.75211 -1.10977 0
M  V30 3709 C 323.876 -0.48936 -1.81623 0
M  V30 3710 O 323.234 0.557925 -1.72502 0
M  V30 3711 C 323.282 -2.93147 -2.09993 0
M  V30 3712 O 322.386 -2.63203 -3.17487 0
M  V30 3713 H 321.727 -0.581241 -0.321021 0
M  V30 3714 H 324.257 -2.00738 -0.395661 0
M  V30 3715 H 324.267 -3.19898 -2.53237 0
M  V30 3716 H 322.942 -3.84731 -1.5797 0
M  V30 3717 H 321.519 -2.47336 -2.79069 0
M  V30 3718 N 323.704 0.605807 -1.45491 0
M  V30 3719 C 324.932 1.39136 -1.5313 0
M  V30 3720 C 325.347 1.88082 -0.164507 0
M  V30 3721 O 324.704 1.62316 0.834247 0
M  V30 3722 C 324.755 2.59463 -2.51716 0
M  V30 3723 O 324.476 2.12551 -3.83084 0
M  V30 3724 C 325.977 3.52301 -2.6907 0
M  V30 3725 H 323.197 0.425849 -0.51855 0
M  V30 3726 H 325.741 0.73865 -1.90694 0
M  V30 3727 H 323.896 3.20772 -2.17219 0
M  V30 3728 H 324.31 2.90744 -4.36541 0
M  V30 3729 H 325.784 4.33271 -3.42024 0
M  V30 3730 H 326.261 4.02757 -1.75167 0
M  V30 3731 H 326.867 2.96845 -3.04571 0
M  V30 3732 N 325.182 1.32811 0.848464 0
M  V30 3733 C 326.13 1.22231 1.97895 0
M  V30 3734 C 327.124 0.125749 1.68933 0
M  V30 3735 O 328.33 0.289083 1.77663 0
M  V30 3736 H 324.705 0.379058 0.649476 0
M  V30 3737 H 326.676 2.17828 2.03945 0
M  V30 3738 C 325.425 0.968572 3.33937 0
M  V30 3739 H 324.748 1.80458 3.56756 0
M  V30 3740 H 326.188 0.934808 4.13567 0
M  V30 3741 C 324.647 -0.328628 3.35293 0
M  V30 3742 O 325.177 -1.33848 3.78745 0
M  V30 3743 N 323.383 -0.352788 2.88451 0
M  V30 3744 H 322.93 0.469541 2.53285 0
M  V30 3745 H 322.888 -1.22057 2.89741 0
M  V30 3746 N 326.66 -1.06551 1.16123 0
M  V30 3747 C 327.885 -1.83544 0.965735 0
M  V30 3748 C 328.31 -1.81843 -0.481102 0
M  V30 3749 O 327.668 -1.21732 -1.34354 0
M  V30 3750 C 327.716 -3.28169 1.49457 0
M  V30 3751 O 326.82 -4.0643 0.699157 0
M  V30 3752 H 326.161 -0.568026 0.343864 0
M  V30 3753 H 328.691 -1.34362 1.54299 0
M  V30 3754 H 328.701 -3.78992 1.51092 0
M  V30 3755 H 327.376 -3.28722 2.54784 0
M  V30 3756 H 325.953 -3.65216 0.7531 0
M  V30 3757 N 328.138 -0.959301 -1.25041 0
M  V30 3758 C 329.085 -0.482057 -2.2571 0
M  V30 3759 C 330.055 0.467939 -1.59372 0
M  V30 3760 O 331.24 0.380159 -1.86974 0
M  V30 3761 C 328.38 0.229623 -3.44335 0
M  V30 3762 C 327.493 -0.758156 -4.25295 0
M  V30 3763 C 326.628 -0.0234403 -5.31195 0
M  V30 3764 C 325.667 -1.00184 -6.03846 0
M  V30 3765 N 324.804 -0.29769 -7.01469 0
M  V30 3766 H 329.644 -1.34538 -2.65901 0
M  V30 3767 H 327.181 -0.674592 -1.3072 0
M  V30 3768 H 329.139 0.658856 -4.11965 0
M  V30 3769 H 327.769 1.05696 -3.05005 0
M  V30 3770 H 326.821 -1.30586 -3.57284 0
M  V30 3771 H 328.133 -1.50458 -4.75567 0
M  V30 3772 H 327.287 0.464201 -6.04922 0
M  V30 3773 H 326.026 0.755741 -4.81809 0
M  V30 3774 H 325.031 -1.50044 -5.2893 0
M  V30 3775 H 326.256 -1.78133 -6.55321 0
M  V30 3776 H 324.202 0.462668 -6.54366 0
M  V30 3777 H 324.119 -0.983128 -7.4958 0
M  V30 3778 H 325.387 0.16826 -7.79318 0
M  V30 3779 N 329.616 1.39756 -0.72842 0
M  V30 3780 C 330.546 2.33289 -0.0991354 0
M  V30 3781 C 331.527 1.53568 0.731489 0
M  V30 3782 O 332.712 1.81987 0.677807 0
M  V30 3783 C 329.842 3.3763 0.813834 0
M  V30 3784 C 328.796 4.2791 0.0878663 0
M  V30 3785 C 328.122 5.22894 1.11741 0
M  V30 3786 C 329.422 5.11314 -1.06563 0
M  V30 3787 H 331.116 2.86163 -0.880408 0
M  V30 3788 H 328.662 1.37591 -0.424819 0
M  V30 3789 H 330.615 4.0201 1.26355 0
M  V30 3790 H 329.339 2.83181 1.62715 0
M  V30 3791 H 327.998 3.65 -0.342159 0
M  V30 3792 H 327.646 4.64744 1.92412 0
M  V30 3793 H 327.346 5.84143 0.636477 0
M  V30 3794 H 328.87 5.90151 1.56697 0
M  V30 3795 H 330.284 5.69076 -0.694671 0
M  V30 3796 H 328.681 5.81671 -1.47577 0
M  V30 3797 H 329.751 4.46534 -1.89038 0
M  V30 3798 N 331.094 0.475555 1.50254 0
M  V30 3799 C 332.044 -0.335025 2.25525 0
M  V30 3800 C 333.028 -0.957625 1.29299 0
M  V30 3801 O 334.22 -0.869436 1.54175 0
M  V30 3802 C 331.349 -1.41385 3.12834 0
M  V30 3803 C 330.435 -0.798762 4.1651 0
M  V30 3804 N 330.826 0.0835815 5.05731 0
M  V30 3805 C 329.124 -1.06221 4.33166 0
M  V30 3806 C 329.825 0.433113 5.80085 0
M  V30 3807 N 328.801 -0.1928 5.43258 0
M  V30 3808 H 332.603 0.344612 2.91873 0
M  V30 3809 H 330.117 0.289986 1.5979 0
M  V30 3810 H 332.114 -2.00777 3.65368 0
M  V30 3811 H 330.774 -2.09543 2.48036 0
M  V30 3812 H 331.785 0.452715 5.15918 0
M  V30 3813 H 328.462 -1.73844 3.79585 0
M  V30 3814 H 329.852 1.15346 6.61925 0
M  V30 3815 N 332.573 -1.56217 0.208337 0
M  V30 3816 C 333.52 -2.19699 -0.707192 0
M  V30 3817 C 334.49 -1.14836 -1.20008 0
M  V30 3818 O 335.675 -1.4314 -1.26157 0
M  V30 3819 C 332.815 -2.87061 -1.91546 0
M  V30 3820 C 331.928 -4.06483 -1.46271 0
M  V30 3821 C 331.063 -4.61665 -2.62752 0
M  V30 3822 C 330.102 -5.73417 -2.14147 0
M  V30 3823 N 329.239 -6.22948 -3.23853 0
M  V30 3824 H 334.079 -2.97575 -0.159111 0
M  V30 3825 H 331.616 -1.46948 -0.0667874 0
M  V30 3826 H 333.574 -3.24294 -2.62468 0
M  V30 3827 H 332.204 -2.11725 -2.43664 0
M  V30 3828 H 331.256 -3.74825 -0.648886 0
M  V30 3829 H 332.568 -4.87271 -1.06622 0
M  V30 3830 H 331.722 -5.01272 -3.41776 0
M  V30 3831 H 330.461 -3.80013 -3.05682 0
M  V30 3832 H 329.466 -5.33326 -1.33581 0
M  V30 3833 H 330.691 -6.56897 -1.72232 0
M  V30 3834 H 328.637 -5.44213 -3.6629 0
M  V30 3835 H 328.554 -6.98823 -2.88414 0
M  V30 3836 H 329.822 -6.6721 -4.03052 0
M  V30 3837 N 334.051 0.0651679 -1.57465 0
M  V30 3838 C 335.328 0.79644 -1.78651 0
M  V30 3839 C 335.708 1.95454 -0.797566 0
M  V30 3840 O 335.056 2.27882 0.167946 0
M  V30 3841 C 335.266 1.26322 -3.25337 0
M  V30 3842 C 336.614 1.6939 -3.89348 0
M  V30 3843 O 337.638 1.35872 -3.29268 0
M  V30 3844 O 336.497 2.31471 -4.95059 0
M  V30 3845 H 333.591 0.382157 -0.733407 0
M  V30 3846 H 336.137 0.0447311 -1.69641 0
M  V30 3847 H 334.909 0.434859 -3.88876 0
M  V30 3848 H 334.532 2.07604 -3.39096 0
M  V30 3849 N 335.529 1.53961 0.336706 0
M  V30 3850 C 336.479 1.7881 1.41461 0
M  V30 3851 C 337.463 0.643561 1.47469 0
M  V30 3852 O 338.655 0.903166 1.52223 0
M  V30 3853 C 335.784 2.00722 2.78506 0
M  V30 3854 C 334.87 3.2126 2.76862 0
M  V30 3855 N 335.261 4.42588 2.44845 0
M  V30 3856 C 333.559 3.22568 3.08004 0
M  V30 3857 C 334.26 5.2447 2.51607 0
M  V30 3858 N 333.236 4.61344 2.87511 0
M  V30 3859 H 337.038 2.70205 1.15615 0
M  V30 3860 H 334.552 1.52978 0.545112 0
M  V30 3861 H 336.549 2.1666 3.5618 0
M  V30 3862 H 335.209 1.10573 3.05293 0
M  V30 3863 H 336.22 4.69819 2.17922 0
M  V30 3864 H 332.897 2.42409 3.39918 0
M  V30 3865 H 334.287 6.31324 2.29955 0
M  V30 3866 N 337.007 -0.598083 1.45811 0
M  V30 3867 C 338.256 -1.35295 1.49594 0
M  V30 3868 C 338.569 -1.95057 0.145679 0
M  V30 3869 O 339.775 -2.71431 0.0612099 0
M  V30 3870 C 338.231 -2.45124 2.63519 0
M  V30 3871 C 337.839 -1.91732 4.04899 0
M  V30 3872 C 339.583 -3.2205 2.76558 0
M  V30 3873 C 337.49 -2.991 5.1019 0
M  V30 3874 H 336.42 -0.508552 0.556679 0
M  V30 3875 H 339.071 -0.639977 1.71978 0
M  V30 3876 H 337.453 -3.19149 2.34435 0
M  V30 3877 H 338.627 -1.24352 4.43704 0
M  V30 3878 H 336.942 -1.27522 3.96393 0
M  V30 3879 H 339.539 -4.0215 3.52391 0
M  V30 3880 H 339.882 -3.73663 1.83526 0
M  V30 3881 H 340.415 -2.55127 3.05213 0
M  V30 3882 H 337.154 -2.52393 6.04961 0
M  V30 3883 H 336.674 -3.65017 4.75944 0
M  V30 3884 H 338.353 -3.63318 5.35359 0
M  V30 3885 N 338.485 -1.33259 -0.841409 0
M  V30 3886 C 339.433 -1.23279 -1.97244 0
M  V30 3887 C 340.427 -0.134706 -1.68864 0
M  V30 3888 O 341.633 -0.298501 -1.77508 0
M  V30 3889 H 338.008 -0.382497 -0.647457 0
M  V30 3890 H 339.979 -2.18906 -2.02787 0
M  V30 3891 C 338.728 -0.986268 -3.33419 0
M  V30 3892 H 338.051 -1.82347 -3.55794 0
M  V30 3893 H 339.491 -0.956728 -4.13065 0
M  V30 3894 C 337.95 0.310842 -3.35463 0
M  V30 3895 O 338.48 1.31838 -3.79449 0
M  V30 3896 N 336.686 0.337485 -2.88634 0
M  V30 3897 H 336.233 -0.482967 -2.53032 0
M  V30 3898 H 336.191 1.20518 -2.90384 0
M  V30 3899 N 339.963 1.05934 -1.16686 0
M  V30 3900 C 340.91 2.13499 -0.876748 0
M  V30 3901 C 341.88 1.65162 0.176299 0
M  V30 3902 O 343.065 1.90757 0.0407143 0
M  V30 3903 C 340.205 3.42912 -0.387967 0
M  V30 3904 C 339.318 4.04964 -1.50426 0
M  V30 3905 C 338.453 5.22266 -0.970125 0
M  V30 3906 C 337.492 5.76309 -2.06238 0
M  V30 3907 N 336.629 6.84922 -1.54356 0
M  V30 3908 H 341.469 2.37654 -1.7979 0
M  V30 3909 H 339.006 1.16598 -0.896843 0
M  V30 3910 H 340.964 4.17111 -0.086186 0
M  V30 3911 H 339.594 3.18963 0.496235 0
M  V30 3912 H 338.646 3.28277 -1.92193 0
M  V30 3913 H 339.958 4.41122 -2.32836 0
M  V30 3914 H 339.112 6.03506 -0.621743 0
M  V30 3915 H 337.851 4.87564 -0.115377 0
M  V30 3916 H 336.856 4.93704 -2.41942 0
M  V30 3917 H 338.081 6.13062 -2.92115 0
M  V30 3918 H 336.027 6.52131 -0.711406 0
M  V30 3919 H 335.944 7.20043 -2.30379 0
M  V30 3920 H 337.212 7.69832 -1.22387 0
M  V30 3921 N 341.441 0.965919 1.2453 0
M  V30 3922 C 342.389 0.486506 2.27455 0
M  V30 3923 C 343.383 -0.449041 1.6334 0
M  V30 3924 O 344.589 -0.324527 1.7705 0
M  V30 3925 H 340.964 0.138857 0.739069 0
M  V30 3926 H 342.935 1.3666 2.65267 0
M  V30 3927 C 341.684 -0.209481 3.47068 0
M  V30 3928 H 341.007 0.50129 3.96645 0
M  V30 3929 H 342.447 -0.508775 4.20936 0
M  V30 3930 C 340.906 -1.43586 3.0477 0
M  V30 3931 O 341.436 -2.53299 3.11773 0
M  V30 3932 N 339.642 -1.30126 2.59838 0
M  V30 3933 H 339.189 -0.408583 2.54339 0
M  V30 3934 H 339.147 -2.12294 2.31902 0
M  V30 3935 N 342.919 -1.39368 0.735821 0
M  V30 3936 C 343.867 -2.32443 0.0855131 0
M  V30 3937 C 344.861 -1.53104 -0.724954 0
M  V30 3938 O 346.067 -1.68762 -0.626047 0
M  V30 3939 H 342.442 -0.751948 0.00885257 0
M  V30 3940 H 344.413 -2.84916 0.886883 0
M  V30 3941 C 343.162 -3.38206 -0.806983 0
M  V30 3942 H 342.485 -3.99335 -0.19274 0
M  V30 3943 H 343.925 -4.05779 -1.2296 0
M  V30 3944 C 342.384 -2.75321 -1.94165 0
M  V30 3945 O 342.914 -2.63231 -3.03435 0
M  V30 3946 N 341.12 -2.33396 -1.73132 0
M  V30 3947 H 340.667 -2.4343 -0.842596 0
M  V30 3948 H 340.625 -1.91661 -2.49225 0
M  V30 3949 N 344.397 -0.483516 -1.5 0
M  V30 3950 C 345.646 0.0689102 -2.01582 0
M  V30 3951 C 345.959 1.39655 -1.36952 0
M  V30 3952 O 347.165 2.03465 -1.79762 0
M  V30 3953 C 345.621 0.173302 -3.59483 0
M  V30 3954 C 345.229 -1.14665 -4.33077 0
M  V30 3955 C 346.973 0.677024 -4.19066 0
M  V30 3956 C 344.88 -1.00537 -5.82792 0
M  V30 3957 H 343.81 0.0295277 -0.753422 0
M  V30 3958 H 346.461 -0.620295 -1.72698 0
M  V30 3959 H 344.843 0.926569 -3.85007 0
M  V30 3960 H 346.017 -1.91184 -4.19268 0
M  V30 3961 H 344.332 -1.58244 -3.85159 0
M  V30 3962 H 346.929 0.799952 -5.28682 0
M  V30 3963 H 347.272 1.67151 -3.81269 0
M  V30 3964 H 347.805 -0.0192083 -3.97795 0
M  V30 3965 H 344.544 -1.9736 -6.25083 0
M  V30 3966 H 344.064 -0.280776 -5.99142 0
M  V30 3967 H 345.743 -0.677 -6.43448 0
M  V30 3968 N 345.875 1.56104 -0.216619 0
M  V30 3969 C 346.823 2.21434 0.712036 0
M  V30 3970 C 347.817 1.19218 1.20348 0
M  V30 3971 O 349.023 1.3731 1.16387 0
M  V30 3972 H 345.398 0.70992 0.248026 0
M  V30 3973 H 347.369 2.98083 0.137558 0
M  V30 3974 C 346.118 2.90434 1.91163 0
M  V30 3975 H 345.441 3.68842 1.54258 0
M  V30 3976 H 346.881 3.39552 2.5393 0
M  V30 3977 C 345.34 1.92635 2.76394 0
M  V30 3978 O 345.87 1.44017 3.74996 0
M  V30 3979 N 344.076 1.60392 2.42328 0
M  V30 3980 H 343.623 2.00122 1.622 0
M  V30 3981 H 343.581 0.952159 2.99635 0
M  V30 3982 N 347.353 -0.0568162 1.57498 0
M  V30 3983 C 348.301 -1.08452 2.05769 0
M  V30 3984 C 349.295 -1.39164 0.965903 0
M  V30 3985 O 350.501 -1.38395 1.15095 0
M  V30 3986 H 346.876 -0.367148 0.656282 0
M  V30 3987 H 348.847 -0.651368 2.91204 0
M  V30 3988 C 347.596 -2.38543 2.52968 0
M  V30 3989 H 346.919 -2.15765 3.36579 0
M  V30 3990 H 348.359 -3.08863 2.90481 0
M  V30 3991 C 346.818 -3.05562 1.41893 0
M  V30 3992 O 347.348 -3.94262 0.769442 0
M  V30 3993 N 345.554 -2.6643 1.16032 0
M  V30 3994 H 345.101 -1.94387 1.6903 0
M  V30 3995 H 345.059 -3.11593 0.419219 0
M  V30 3996 N 348.832 -1.54138 -0.328536 0
M  V30 3997 C 350.109 -1.62749 -1.08499 0
M  V30 3998 C 350.489 -0.458198 -2.06067 0
M  V30 3999 O 349.837 0.548046 -2.2183 0
M  V30 4000 C 350.047 -2.99519 -1.79135 0
M  V30 4001 C 351.395 -3.55394 -2.32337 0
M  V30 4002 O 352.419 -3.01792 -1.89209 0
M  V30 4003 O 351.278 -4.49186 -3.11279 0
M  V30 4004 H 348.372 -0.65886 -0.499832 0
M  V30 4005 H 350.918 -1.66484 -0.328826 0
M  V30 4006 H 349.69 -3.76061 -1.08139 0
M  V30 4007 H 349.313 -2.99441 -2.61574 0
M  V30 4008 N 350.31 0.590341 -1.46126 0
M  V30 4009 C 351.258 1.72105 -1.5647 0
M  V30 4010 C 352.252 1.63756 -0.433612 0
M  V30 4011 O 353.458 1.69342 -0.610194 0
M  V30 4012 H 349.833 0.568889 -0.491802 0
M  V30 4013 H 351.804 1.6051 -2.51553 0
M  V30 4014 C 350.553 3.10493 -1.56491 0
M  V30 4015 H 349.876 3.17583 -2.4286 0
M  V30 4016 H 351.316 3.8939 -1.67785 0
M  V30 4017 C 349.775 3.3563 -0.292231 0
M  V30 4018 O 350.305 3.96875 0.620739 0
M  V30 4019 N 348.511 2.90026 -0.182523 0
M  V30 4020 H 348.058 2.40367 -0.926356 0
M  V30 4021 H 348.016 3.07218 0.668152 0
M  V30 4022 N 351.788 1.33704 0.83433 0
M  V30 4023 C 352.736 1.24323 1.96587 0
M  V30 4024 C 353.73 0.143659 1.6879 0
M  V30 4025 O 354.936 0.30791 1.77347 0
M  V30 4026 H 351.311 0.385925 0.645419 0
M  V30 4027 H 353.282 2.19978 2.01624 0
M  V30 4028 C 352.031 1.00394 3.32891 0
M  V30 4029 H 351.354 1.84231 3.54822 0
M  V30 4030 H 352.794 0.97862 4.12552 0
M  V30 4031 C 351.253 -0.293047 3.35623 0
M  V30 4032 O 351.783 -1.29823 3.80143 0
M  V30 4033 N 349.989 -0.322174 2.88809 0
M  V30 4034 H 349.536 0.496379 2.52772 0
M  V30 4035 H 349.494 -1.18977 2.91019 0
M  V30 4036 N 353.266 -1.05314 1.17247 0
M  V30 4037 C 354.214 -2.15137 0.884238 0
M  V30 4038 C 355.208 -1.68729 -0.15063 0
M  V30 4039 O 356.414 -1.8 -0.00366673 0
M  V30 4040 H 352.789 -0.702471 0.2684 0
M  V30 4041 H 354.76 -2.36652 1.81764 0
M  V30 4042 C 353.509 -3.45243 0.412659 0
M  V30 4043 H 352.832 -3.81352 1.20043 0
M  V30 4044 H 354.272 -4.23263 0.249858 0
M  V30 4045 C 352.731 -3.25487 -0.86948 0
M  V30 4046 O 353.261 -3.51938 -1.93655 0
M  V30 4047 N 351.467 -2.78875 -0.817147 0
M  V30 4048 H 351.014 -2.57549 0.0514211 0
M  V30 4049 H 350.972 -2.66036 -1.67547 0
M  V30 4050 N 354.744 -0.972509 -1.24016 0
M  V30 4051 C 355.692 -0.498562 -2.27194 0
M  V30 4052 C 356.686 0.440372 -1.63576 0
M  V30 4053 O 357.892 0.315133 -1.7722 0
M  V30 4054 H 354.267 -0.142775 -0.738322 0
M  V30 4055 H 356.238 -1.38065 -2.64539 0
M  V30 4056 C 354.987 0.191072 -3.47175 0
M  V30 4057 H 354.31 -0.522318 -3.96373 0
M  V30 4058 H 355.75 0.486445 -4.212 0
M  V30 4059 C 354.209 1.41967 -3.05527 0
M  V30 4060 O 354.739 2.51642 -3.13112 0
M  V30 4061 N 352.945 1.28746 -2.60524 0
M  V30 4062 H 352.492 0.395089 -2.54552 0
M  V30 4063 H 352.45 2.11061 -2.33025 0
M  V30 4064 N 356.222 1.38976 -0.743202 0
M  V30 4065 C 357.17 2.32394 -0.0978389 0
M  V30 4066 C 358.164 1.53486 0.716824 0
M  V30 4067 O 359.37 1.69092 0.617088 0
M  V30 4068 H 355.745 0.75189 -0.0128402 0
M  V30 4069 H 357.716 2.84441 -0.901981 0
M  V30 4070 C 356.465 3.38629 0.789036 0
M  V30 4071 H 355.788 3.99432 0.171559 0
M  V30 4072 H 357.228 4.06426 1.20807 0
M  V30 4073 C 355.687 2.76347 1.92702 0
M  V30 4074 O 356.217 2.64836 3.02034 0
M  V30 4075 N 354.423 2.34311 1.71891 0
M  V30 4076 H 353.97 2.43873 0.829675 0
M  V30 4077 H 353.928 1.9298 2.48205 0
M  V30 4078 N 357.7 0.491464 1.49741 0
M  V30 4079 C 358.949 -0.0582189 2.01616 0
M  V30 4080 C 359.262 -1.38927 1.3769 0
M  V30 4081 O 360.468 -2.02509 1.80838 0
M  V30 4082 C 358.924 -0.154235 3.59569 0
M  V30 4083 C 358.532 1.1696 4.32463 0
M  V30 4084 C 360.276 -0.65479 4.1942 0
M  V30 4085 C 358.183 1.03627 5.8225 0
M  V30 4086 H 357.113 -0.0255317 0.753568 0
M  V30 4087 H 359.764 0.629445 1.72367 0
M  V30 4088 H 358.146 -0.906138 3.85493 0
M  V30 4089 H 359.32 1.93405 4.18248 0
M  V30 4090 H 357.635 1.60285 3.84315 0
M  V30 4091 H 360.232 -0.771903 5.29099 0
M  V30 4092 H 360.575 -1.65127 3.8215 0
M  V30 4093 H 361.108 0.040304 3.9778 0
M  V30 4094 H 357.847 2.00672 6.24028 0
M  V30 4095 H 357.367 0.312546 5.98985 0
M  V30 4096 H 359.046 0.711114 6.4308 0
M  V30 4097 N 359.178 -1.55987 0.224894 0
M  V30 4098 C 360.126 -2.21808 -0.700283 0
M  V30 4099 C 361.12 -1.19854 -1.19714 0
M  V30 4100 O 362.326 -1.37925 -1.15658 0
M  V30 4101 H 358.701 -0.711226 -0.244258 0
M  V30 4102 H 360.672 -2.98152 -0.121749 0
M  V30 4103 C 359.421 -2.91444 -1.8962 0
M  V30 4104 H 358.744 -3.69655 -1.52299 0
M  V30 4105 H 360.184 -3.40894 -2.52125 0
M  V30 4106 C 358.643 -1.94098 -2.75368 0
M  V30 4107 O 359.173 -1.46004 -3.74227 0
M  V30 4108 N 357.379 -1.61675 -2.41474 0
M  V30 4109 H 356.926 -2.00979 -1.61137 0
M  V30 4110 H 356.884 -0.968036 -2.99126 0
M  V30 4111 N 360.656 0.0484629 -1.57525 0
M  V30 4112 C 361.604 1.07359 -2.06341 0
M  V30 4113 C 362.598 1.3865 -0.973269 0
M  V30 4114 O 363.804 1.37783 -1.15827 0
M  V30 4115 H 360.179 0.363662 -0.65822 0
M  V30 4116 H 362.15 0.635916 -2.91545 0
M  V30 4117 C 360.899 2.37198 -2.54229 0
M  V30 4118 H 360.222 2.13977 -3.37719 0
M  V30 4119 H 361.662 3.07319 -2.92115 0
M  V30 4120 C 360.121 3.04805 -1.43511 0
M  V30 4121 O 360.651 3.93848 -0.79034 0
M  V30 4122 N 358.857 2.65811 -1.17444 0
M  V30 4123 H 358.404 1.93488 -1.70059 0
M  V30 4124 H 358.362 3.11366 -0.435737 0
M  V30 4125 N 362.134 1.5431 0.320358 0
M  V30 4126 C 363.082 1.84647 1.4145 0
M  V30 4127 C 364.076 0.718624 1.53402 0
M  V30 4128 O 365.282 0.902335 1.5575 0
M  V30 4129 H 361.657 0.585349 0.472091 0
M  V30 4130 H 363.628 2.7614 1.13089 0
M  V30 4131 C 362.377 2.09341 2.77617 0
M  V30 4132 H 361.7 2.9559 2.69196 0
M  V30 4133 H 363.14 2.3452 3.53237 0
M  V30 4134 C 361.599 0.885939 3.25043 0
M  V30 4135 O 362.129 0.0967891 4.01583 0
M  V30 4136 N 360.335 0.696682 2.82125 0
M  V30 4137 H 359.882 1.34006 2.2 0
M  V30 4138 H 359.84 -0.109712 3.14209 0
M  V30 4139 N 363.613 -0.582584 1.46437 0
M  V30 4140 C 364.862 -1.337 1.5102 0
M  V30 4141 C 365.175 -1.94891 0.166359 0
M  V30 4142 O 366.381 -2.71351 0.0899954 0
M  V30 4143 C 364.837 -2.42315 2.66104 0
M  V30 4144 C 364.445 -1.87427 4.06909 0
M  V30 4145 C 366.189 -3.19099 2.79958 0
M  V30 4146 C 364.096 -2.93672 5.13333 0
M  V30 4147 H 363.026 -0.502619 0.562041 0
M  V30 4148 H 365.677 -0.621701 1.72647 0
M  V30 4149 H 364.059 -3.16645 2.37807 0
M  V30 4150 H 365.233 -1.19639 4.44998 0
M  V30 4151 H 363.548 -1.2331 3.97723 0
M  V30 4152 H 366.145 -3.9839 3.56636 0
M  V30 4153 H 366.488 -3.71695 1.87479 0
M  V30 4154 H 367.021 -2.51875 3.07902 0
M  V30 4155 H 363.76 -2.45962 6.07604 0
M  V30 4156 H 363.28 -3.59948 4.79789 0
M  V30 4157 H 364.959 -3.5762 5.39182 0
M  V30 4158 N 365.091 -1.34144 -0.827227 0
M  V30 4159 C 366.039 -1.25364 -1.95925 0
M  V30 4160 C 367.033 -0.152608 -1.68711 0
M  V30 4161 O 368.239 -0.317311 -1.77181 0
M  V30 4162 H 364.614 -0.389342 -0.643364 0
M  V30 4163 H 366.585 -2.21045 -2.00454 0
M  V30 4164 C 365.334 -1.02158 -3.32354 0
M  V30 4165 H 364.657 -1.86111 -3.5384 0
M  V30 4166 H 366.097 -1.00048 -4.12027 0
M  V30 4167 C 364.556 0.275244 -3.35774 0
M  V30 4168 O 365.086 1.27806 -3.80826 0
M  V30 4169 N 363.292 0.306853 -2.88975 0
M  V30 4170 H 362.839 -0.509777 -2.52506 0
M  V30 4171 H 362.797 1.17432 -2.91646 0
M  V30 4172 N 366.569 1.04691 -1.17803 0
M  V30 4173 C 367.517 2.14665 -0.895635 0
M  V30 4174 C 368.511 1.68806 0.141679 0
M  V30 4175 O 369.717 1.79999 -0.00587914 0
M  V30 4176 H 366.092 0.701038 -0.272121 0
M  V30 4177 H 368.063 2.35685 -1.83017 0
M  V30 4178 C 366.812 3.45019 -0.430962 0
M  V30 4179 H 366.135 3.8071 -1.22064 0
M  V30 4180 H 367.575 4.23125 -0.272301 0
M  V30 4181 C 366.034 3.25943 0.852207 0
M  V30 4182 O 366.564 3.5296 1.91786 0
M  V30 4183 N 364.77 2.79304 0.802346 0
M  V30 4184 H 364.317 2.57518 -0.0650788 0
M  V30 4185 H 364.275 2.66921 1.66134 0
M  V30 4186 N 368.047 0.979072 1.23499 0
M  V30 4187 C 369.324 0.563674 1.87302 0
M  V30 4188 C 369.704 -0.959199 1.88049 0
M  V30 4189 O 369.052 -1.83535 1.36114 0
M  V30 4190 C 369.262 1.16822 3.28867 0
M  V30 4191 C 370.61 1.26014 4.0547 0
M  V30 4192 O 371.634 1.12158 3.38082 0
M  V30 4193 O 370.493 1.48044 5.26066 0
M  V30 4194 H 367.587 0.189602 0.804972 0
M  V30 4195 H 370.133 1.07407 1.31384 0
M  V30 4196 H 368.905 2.21049 3.22883 0
M  V30 4197 H 368.528 0.642564 3.92373 0
M  V30 4198 N 369.525 -1.3858 0.750561 0
M  V30 4199 C 370.473 -2.32339 0.110162 0
M  V30 4200 C 371.467 -1.53864 -0.708674 0
M  V30 4201 O 372.673 -1.69417 -0.608112 0
M  V30 4202 H 369.048 -0.751812 0.0168275 0
M  V30 4203 H 371.019 -2.83959 0.917053 0
M  V30 4204 C 369.768 -3.39043 -0.771067 0
M  V30 4205 H 369.091 -3.99517 -0.150374 0
M  V30 4206 H 370.531 -4.07061 -1.1865 0
M  V30 4207 C 368.99 -2.77365 -1.91234 0
M  V30 4208 O 369.52 -2.66434 -3.00626 0
M  V30 4209 N 367.726 -2.35219 -1.70646 0
M  V30 4210 H 367.273 -2.4431 -0.81673 0
M  V30 4211 H 367.231 -1.94294 -2.47178 0
M  V30 4212 N 371.003 -0.499398 -1.49478 0
M  V30 4213 C 371.951 0.293604 -2.3074 0
M  V30 4214 C 372.945 0.96427 -1.39277 0
M  V30 4215 O 374.151 0.892141 -1.56336 0
M  V30 4216 H 370.526 0.113541 -0.743379 0
M  V30 4217 H 372.497 -0.411772 -2.95545 0
M  V30 4218 C 371.246 1.3462 -3.20582 0
M  V30 4219 H 370.569 0.83954 -3.90886 0
M  V30 4220 H 372.009 1.87308 -3.80384 0
M  V30 4221 C 370.468 2.36351 -2.40083 0
M  V30 4222 O 370.998 3.422 -2.10385 0
M  V30 4223 N 369.204 2.0878 -2.02137 0
M  V30 4224 H 368.751 1.22723 -2.26488 0
M  V30 4225 H 368.709 2.77075 -1.48583 0
M  V30 4226 N 372.481 1.55866 -0.233164 0
M  V30 4227 C 373.429 2.22176 0.68851 0
M  V30 4228 C 374.423 1.20487 1.19076 0
M  V30 4229 O 375.629 1.38536 1.14925 0
M  V30 4230 H 372.004 0.712511 0.240483 0
M  V30 4231 H 373.975 2.98212 0.105935 0
M  V30 4232 C 372.724 2.92446 1.88071 0
M  V30 4233 H 372.047 3.70458 1.50337 0
M  V30 4234 H 373.487 3.42226 2.50314 0
M  V30 4235 C 371.946 1.95555 2.74335 0
M  V30 4236 O 372.476 1.47986 3.73447 0
M  V30 4237 N 370.682 1.62953 2.40613 0
M  V30 4238 H 370.229 2.01831 1.60069 0
M  V30 4239 H 370.187 0.983886 2.98609 0
M  V30 4240 N 373.959 -0.0401083 1.57549 0
M  V30 4241 C 374.907 -1.06264 2.06908 0
M  V30 4242 C 375.901 -1.38132 0.980608 0
M  V30 4243 O 377.107 -1.37167 1.16556 0
M  V30 4244 H 373.482 -0.360166 0.660139 0
M  V30 4245 H 375.453 -0.620445 2.91878 0
M  V30 4246 C 374.202 -2.35846 2.55483 0
M  V30 4247 H 373.525 -2.12183 3.38849 0
M  V30 4248 H 374.965 -3.05765 2.93741 0
M  V30 4249 C 373.424 -3.0404 1.45126 0
M  V30 4250 O 373.954 -3.93424 0.811216 0
M  V30 4251 N 372.16 -2.65184 1.18852 0
M  V30 4252 H 371.707 -1.92584 1.71083 0
M  V30 4253 H 371.665 -3.1113 0.452244 0
M  V30 4254 N 375.437 -1.54477 -0.31217 0
M  V30 4255 C 376.385 -1.85395 -1.40469 0
M  V30 4256 C 377.379 -0.726749 -1.53019 0
M  V30 4257 O 378.585 -0.910582 -1.55269 0
M  V30 4258 H 374.96 -0.587845 -0.46898 0
M  V30 4259 H 376.931 -2.76736 -1.11623 0
M  V30 4260 C 375.68 -2.10811 -2.76503 0
M  V30 4261 H 375.003 -2.97014 -2.67625 0
M  V30 4262 H 376.443 -2.3639 -3.51988 0
M  V30 4263 C 374.902 -0.903165 -3.24568 0
M  V30 4264 O 375.432 -0.118085 -4.01526 0
M  V30 4265 N 373.638 -0.711634 -2.81752 0
M  V30 4266 H 373.185 -1.35171 -2.19286 0
M  V30 4267 H 373.143 0.0930473 -3.14262 0
M  V30 4268 N 376.915 0.57481 -1.46744 0
M  V30 4269 C 378.164 1.32898 -1.51727 0
M  V30 4270 C 378.477 1.948 -0.176692 0
M  V30 4271 O 379.683 2.71299 -0.104385 0
M  V30 4272 C 378.139 2.40901 -2.67385 0
M  V30 4273 C 377.747 1.85266 -4.07898 0
M  V30 4274 C 379.491 3.17609 -2.81646 0
M  V30 4275 C 377.398 2.90945 -5.14883 0
M  V30 4276 H 376.328 0.499631 -0.564699 0
M  V30 4277 H 378.979 0.612536 -1.72975 0
M  V30 4278 H 377.361 3.15379 -2.39483 0
M  V30 4279 H 378.535 1.17278 -4.45626 0
M  V30 4280 H 376.85 1.21199 -3.98371 0
M  V30 4281 H 379.447 3.96493 -3.58744 0
M  V30 4282 H 379.79 3.70696 -1.89448 0
M  V30 4283 H 380.323 2.50239 -3.09233 0
M  V30 4284 H 377.062 2.42736 -6.089 0
M  V30 4285 H 376.582 3.57398 -4.81691 0
M  V30 4286 H 378.261 3.54755 -5.41071 0
M  V30 4287 N 378.394 1.34581 0.820102 0
M  V30 4288 C 379.342 1.26401 1.95258 0
M  V30 4289 C 380.336 0.161553 1.68628 0
M  V30 4290 O 381.542 0.326703 1.7701 0
M  V30 4291 H 377.917 0.392749 0.64129 0
M  V30 4292 H 379.888 2.22105 1.99279 0
M  V30 4293 C 378.637 1.03919 3.31807 0
M  V30 4294 H 377.96 1.87984 3.52848 0
M  V30 4295 H 379.4 1.02232 4.11491 0
M  V30 4296 C 377.859 -0.257433 3.35915 0
M  V30 4297 O 378.389 -1.25784 3.81499 0
M  V30 4298 N 376.595 -0.291524 2.89134 0
M  V30 4299 H 376.142 0.523161 2.52232 0
M  V30 4300 H 376.1 -1.15883 2.92264 0
M  V30 4301 N 379.872 -1.04064 1.18357 0
M  V30 4302 C 380.82 -2.14187 0.907007 0
M  V30 4303 C 381.814 -1.68879 -0.132725 0
M  V30 4304 O 383.02 -1.79993 0.0154248 0
M  V30 4305 H 379.395 -0.699585 0.275835 0
M  V30 4306 H 381.366 -2.34711 1.84264 0
M  V30 4307 C 380.115 -3.44785 0.449254 0
M  V30 4308 H 379.438 -3.80058 1.24081 0
M  V30 4309 H 380.878 -4.22974 0.294737 0
M  V30 4310 C 379.337 -3.26391 -0.834909 0
M  V30 4311 O 379.867 -3.53973 -1.89911 0
M  V30 4312 N 378.073 -2.79726 -0.787523 0
M  V30 4313 H 377.62 -2.5748 0.0787347 0
M  V30 4314 H 377.578 -2.67798 -1.64716 0
M  V30 4315 N 381.35 -0.985608 -1.22978 0
M  V30 4316 C 382.298 -0.522631 -2.26652 0
M  V30 4317 C 383.292 0.422998 -1.64034 0
M  V30 4318 O 384.498 0.296319 -1.77544 0
M  V30 4319 H 380.873 -0.150597 -0.736766 0
M  V30 4320 H 382.844 -1.40863 -2.63059 0
M  V30 4321 C 381.593 0.154238 -3.47358 0
M  V30 4322 H 380.916 -0.564329 -3.95797 0
M  V30 4323 H 382.356 0.441744 -4.21693 0
M  V30 4324 C 380.815 1.38719 -3.07016 0
M  V30 4325 O 381.345 2.48307 -3.15764 0
M  V30 4326 N 379.551 1.25975 -2.61875 0
M  V30 4327 H 379.098 0.368068 -2.54957 0
M  V30 4328 H 379.056 2.08578 -2.3525 0
M  V30 4329 N 382.828 1.3818 -0.7579 0
M  V30 4330 C 384.077 1.99261 -0.312744 0
M  V30 4331 C 384.39 1.60846 1.11301 0
M  V30 4332 O 385.596 2.14929 1.65885 0
M  V30 4333 C 384.052 3.56294 -0.50821 0
M  V30 4334 C 383.66 4.03657 -1.94333 0
M  V30 4335 C 385.404 4.24313 -0.125982 0
M  V30 4336 C 383.311 5.53347 -2.08712 0
M  V30 4337 H 382.241 0.745456 -0.113185 0
M  V30 4338 H 384.892 1.57889 -0.935056 0
M  V30 4339 H 383.274 3.95575 0.183353 0
M  V30 4340 H 384.448 3.75655 -2.66871 0
M  V30 4341 H 382.763 3.48376 -2.28086 0
M  V30 4342 H 385.36 5.34279 -0.212125 0
M  V30 4343 H 385.703 4.05962 0.921964 0
M  V30 4344 H 386.236 3.90285 -0.769563 0
M  V30 4345 H 382.975 5.76607 -3.11777 0
M  V30 4346 H 382.495 5.83078 -1.4064 0
M  V30 4347 H 384.174 6.19111 -1.87912 0
M  V30 4348 N 384.306 0.507319 1.49211 0
M  V30 4349 C 385.254 -0.281364 2.30892 0
M  V30 4350 C 386.248 -0.95687 1.39787 0
M  V30 4351 O 387.454 -0.883838 1.56807 0
M  V30 4352 H 383.829 -0.109597 0.743971 0
M  V30 4353 H 385.8 0.42744 2.95323 0
M  V30 4354 C 384.549 -1.32918 3.21291 0
M  V30 4355 H 383.872 -0.818799 3.91326 0
M  V30 4356 H 385.312 -1.85288 3.81372 0
M  V30 4357 C 383.771 -2.35074 2.41333 0
M  V30 4358 O 384.301 -3.4108 2.12197 0
M  V30 4359 N 382.507 -2.07705 2.03241 0
M  V30 4360 H 382.054 -1.2152 2.27136 0
M  V30 4361 H 382.012 -2.76283 1.50051 0
M  V30 4362 N 385.784 -1.5574 0.241426 0
M  V30 4363 C 386.732 -2.22538 -0.676718 0
M  V30 4364 C 387.726 -1.21117 -1.18436 0
M  V30 4365 O 388.932 -1.39144 -1.14188 0
M  V30 4366 H 385.307 -0.713776 -0.236701 0
M  V30 4367 H 387.278 -2.98264 -0.0901187 0
M  V30 4368 C 386.027 -2.93439 -1.86518 0
M  V30 4369 H 385.35 -3.7125 -1.4837 0
M  V30 4370 H 386.79 -3.43549 -2.48495 0
M  V30 4371 C 385.249 -1.97008 -2.73294 0
M  V30 4372 O 385.779 -1.49965 -3.72657 0
M  V30 4373 N 383.985 -1.64227 -2.39745 0
M  V30 4374 H 383.532 -2.02677 -1.58996 0
M  V30 4375 H 383.49 -0.999708 -2.98083 0
M  V30 4376 N 387.262 0.0317525 -1.57568 0
M  V30 4377 C 388.539 0.758366 -1.803 0
M  V30 4378 C 388.919 1.93718 -0.838845 0
M  V30 4379 O 388.267 2.28187 0.119571 0
M  V30 4380 C 388.477 1.19392 -3.27943 0
M  V30 4381 C 389.825 1.61094 -3.92854 0
M  V30 4382 O 390.849 1.28857 -3.32076 0
M  V30 4383 O 389.708 2.20918 -4.99858 0
M  V30 4384 H 386.802 0.366514 -0.741348 0
M  V30 4385 H 389.348 0.00873765 -1.69698 0
M  V30 4386 H 388.12 0.352275 -3.89711 0
M  V30 4387 H 387.743 2.00365 -3.43424 0
M  V30 4388 N 388.74 1.54641 0.303973 0
M  V30 4389 C 389.688 1.86137 1.39484 0
M  V30 4390 C 390.682 0.734854 1.52631 0
M  V30 4391 O 391.888 0.918803 1.54784 0
M  V30 4392 H 388.263 0.590324 0.465856 0
M  V30 4393 H 390.234 2.77324 1.10154 0
M  V30 4394 C 388.983 2.12274 2.75382 0
M  V30 4395 H 388.306 2.98429 2.66046 0
M  V30 4396 H 389.746 2.38254 3.5073 0
M  V30 4397 C 388.205 0.920365 3.24085 0
M  V30 4398 O 388.735 0.139377 4.01458 0
M  V30 4399 N 386.941 0.726566 2.81371 0
M  V30 4400 H 386.488 1.36332 2.18567 0
M  V30 4401 H 386.446 -0.0763799 3.14307 0
M  V30 4402 N 390.218 -0.567019 1.47046 0
M  V30 4403 C 391.467 -1.32091 1.5243 0
M  V30 4404 C 391.78 -1.94704 0.187021 0
M  V30 4405 O 392.986 -2.7124 0.118771 0
M  V30 4406 C 391.442 -2.39479 2.68659 0
M  V30 4407 C 391.05 -1.831 4.08874 0
M  V30 4408 C 392.794 -3.16111 2.83327 0
M  V30 4409 C 390.701 -2.8821 5.16419 0
M  V30 4410 H 389.631 -0.496629 0.56734 0
M  V30 4411 H 392.282 -0.603354 1.73297 0
M  V30 4412 H 390.664 -3.14105 2.41152 0
M  V30 4413 H 391.838 -1.14913 4.46242 0
M  V30 4414 H 390.153 -1.19085 3.99008 0
M  V30 4415 H 392.75 -3.94585 3.60842 0
M  V30 4416 H 393.093 -3.69686 1.91411 0
M  V30 4417 H 393.626 -2.48595 3.10556 0
M  V30 4418 H 390.365 -2.39504 6.10179 0
M  V30 4419 H 389.885 -3.54839 4.8358 0
M  V30 4420 H 391.564 -3.51881 5.42945 0
M  V30 4421 N 391.696 -1.35014 -0.812953 0
M  V30 4422 C 392.926 -1.30841 -1.59888 0
M  V30 4423 C 393.334 0.117576 -1.88834 0
M  V30 4424 O 392.677 1.07807 -1.48739 0
M  V30 4425 C 392.739 -2.0412 -2.95931 0
M  V30 4426 C 392.403 -3.53336 -2.89832 0
M  V30 4427 C 393.4 -4.48052 -2.63714 0
M  V30 4428 C 391.085 -3.95894 -3.0915 0
M  V30 4429 C 393.079 -5.833 -2.56982 0
M  V30 4430 C 390.766 -5.31239 -3.0204 0
M  V30 4431 C 391.764 -6.24754 -2.75991 0
M  V30 4432 O 391.452 -7.57617 -2.68833 0
M  V30 4433 H 391.184 -0.451215 -0.50337 0
M  V30 4434 H 393.738 -1.78354 -1.01877 0
M  V30 4435 H 391.968 -1.51235 -3.559 0
M  V30 4436 H 393.657 -1.93107 -3.57022 0
M  V30 4437 H 394.423 -4.16492 -2.48515 0
M  V30 4438 H 390.302 -3.23495 -3.28438 0
M  V30 4439 H 393.846 -6.56263 -2.36569 0
M  V30 4440 H 389.743 -5.62415 -3.16796 0
M  V30 4441 H 390.511 -7.67469 -2.84487 0
M  V30 4442 N 393.175 1.03435 -1.18907 0
M  V30 4443 C 394.403 1.80381 -1.01342 0
M  V30 4444 C 394.818 1.83649 0.438005 0
M  V30 4445 O 394.175 1.27655 1.30424 0
M  V30 4446 C 394.226 3.25689 -1.56873 0
M  V30 4447 O 393.947 3.22673 -2.96334 0
M  V30 4448 C 395.448 4.19255 -1.44014 0
M  V30 4449 H 392.668 0.56784 -0.35749 0
M  V30 4450 H 395.212 1.30317 -1.576 0
M  V30 4451 H 393.367 3.72962 -1.04777 0
M  V30 4452 H 393.781 4.13748 -3.22355 0
M  V30 4453 H 395.255 5.19123 -1.87657 0
M  V30 4454 H 395.732 4.37467 -0.389815 0
M  V30 4455 H 396.338 3.77851 -1.95214 0
M  V30 4456 N 394.653 0.992116 1.22453 0
M  V30 4457 C 395.878 0.685644 1.95739 0
M  V30 4458 C 396.303 -0.743 1.72804 0
M  V30 4459 O 395.661 -1.50778 1.00676 0
M  V30 4460 C 395.709 0.996293 3.46564 0
M  V30 4461 O 394.813 0.0945512 4.12292 0
M  V30 4462 H 394.154 0.256694 0.612376 0
M  V30 4463 H 396.684 1.32888 1.5557 0
M  V30 4464 H 396.694 0.93781 3.97076 0
M  V30 4465 H 395.369 2.03733 3.62582 0
M  V30 4466 H 393.946 0.208451 3.72317 0
M  V30 4467 N 396.131 -1.37776 0.765217 0
M  V30 4468 C 397.361 -2.03828 0.337277 0
M  V30 4469 C 397.769 -1.57841 -1.04321 0
M  V30 4470 O 397.112 -0.752043 -1.67601 0
M  V30 4471 C 397.174 -3.58292 0.294407 0
M  V30 4472 C 396.838 -4.27384 1.61838 0
M  V30 4473 C 397.835 -4.51956 2.56967 0
M  V30 4474 C 395.52 -4.65345 1.89102 0
M  V30 4475 C 397.514 -5.13536 3.77571 0
M  V30 4476 C 395.201 -5.26647 3.09978 0
M  V30 4477 C 396.199 -5.50679 4.04032 0
M  V30 4478 O 395.887 -6.10702 5.2278 0
M  V30 4479 H 395.619 -0.661292 0.140248 0
M  V30 4480 H 398.173 -1.77222 1.03834 0
M  V30 4481 H 396.403 -3.83918 -0.462983 0
M  V30 4482 H 398.092 -4.05763 -0.105581 0
M  V30 4483 H 398.858 -4.23048 2.37183 0
M  V30 4484 H 394.737 -4.45978 1.16725 0
M  V30 4485 H 398.281 -5.3221 4.50997 0
M  V30 4486 H 394.178 -5.54979 3.29649 0
M  V30 4487 H 394.946 -6.29183 5.23517 0
M  V30 4488 N 397.609 -0.515225 -1.4894 0
M  V30 4489 C 398.556 0.255567 -2.29381 0
M  V30 4490 C 399.526 0.947387 -1.36432 0
M  V30 4491 O 400.711 0.951288 -1.65394 0
M  V30 4492 C 397.851 1.30551 -3.19453 0
M  V30 4493 C 396.964 0.624029 -4.27469 0
M  V30 4494 C 396.099 1.65563 -5.0474 0
M  V30 4495 C 395.138 0.956802 -6.04576 0
M  V30 4496 N 394.275 1.93326 -6.74959 0
M  V30 4497 H 399.115 -0.436607 -2.94784 0
M  V30 4498 H 396.652 -0.227154 -1.45336 0
M  V30 4499 H 398.61 1.92639 -3.70062 0
M  V30 4500 H 397.24 1.96626 -2.56004 0
M  V30 4501 H 396.292 -0.110459 -3.8024 0
M  V30 4502 H 397.604 0.0746092 -4.98744 0
M  V30 4503 H 396.758 2.35119 -5.59289 0
M  V30 4504 H 395.497 2.23893 -4.3327 0
M  V30 4505 H 394.502 0.247097 -5.49244 0
M  V30 4506 H 395.727 0.379814 -6.78037 0
M  V30 4507 H 393.673 2.50591 -6.06251 0
M  V30 4508 H 393.59 1.43489 -7.42258 0
M  V30 4509 H 394.858 2.62126 -7.34105 0
M  V30 4510 N 399.087 1.5561 -0.249682 0
M  V30 4511 C 400.364 1.90932 0.424761 0
M  V30 4512 C 400.744 1.17078 1.75658 0
M  V30 4513 O 400.092 0.289176 2.26663 0
M  V30 4514 C 400.302 3.43975 0.590109 0
M  V30 4515 C 401.65 4.15281 0.884714 0
M  V30 4516 O 402.674 3.49729 0.67587 0
M  V30 4517 O 401.533 5.31236 1.28259 0
M  V30 4518 H 398.627 0.794815 0.228468 0
M  V30 4519 H 401.173 1.67135 -0.293954 0
M  V30 4520 H 399.945 3.89748 -0.34818 0
M  V30 4521 H 399.568 3.73644 1.35926 0
M  V30 4522 N 400.565 -0.0233959 1.57583 0
M  V30 4523 C 401.513 -1.04063 2.08023 0
M  V30 4524 C 402.507 -1.37084 0.995204 0
M  V30 4525 O 403.713 -1.35923 1.18004 0
M  V30 4526 H 400.088 -0.353144 0.663922 0
M  V30 4527 H 402.059 -0.589453 2.9252 0
M  V30 4528 C 400.808 -2.33123 2.57971 0
M  V30 4529 H 400.131 -2.08577 3.4108 0
M  V30 4530 H 401.571 -3.02632 2.96967 0
M  V30 4531 C 400.03 -3.02483 1.48342 0
M  V30 4532 O 400.56 -3.92541 0.852898 0
M  V30 4533 N 398.766 -2.63909 1.21658 0
M  V30 4534 H 398.313 -1.90758 1.73116 0
M  V30 4535 H 398.271 -3.10633 0.485218 0
M  V30 4536 N 402.043 -1.548 -0.295768 0
M  V30 4537 C 403.459 -1.4613 -0.641722 0
M  V30 4538 C 403.659 -0.656771 -1.90496 0
M  V30 4539 O 402.715 -0.166547 -2.5195 0
M  V30 4540 C 404.028 -2.90141 -0.789852 0
M  V30 4541 C 405.576 -3.00216 -0.885396 0
M  V30 4542 C 406.051 -4.45434 -1.06548 0
M  V30 4543 N 407.542 -4.49166 -1.13156 0
M  V30 4544 C 408.277 -5.58717 -1.28929 0
M  V30 4545 N 407.773 -6.78182 -1.41567 0
M  V30 4546 N 409.566 -5.46415 -1.31859 0
M  V30 4547 H 401.717 -2.05574 0.534147 0
M  V30 4548 H 403.98 -0.931259 0.177372 0
M  V30 4549 H 403.686 -3.51635 0.0675598 0
M  V30 4550 H 403.56 -3.37859 -1.67724 0
M  V30 4551 H 405.947 -2.38833 -1.73329 0
M  V30 4552 H 406.028 -2.55787 0.0261185 0
M  V30 4553 H 405.672 -5.07413 -0.222335 0
M  V30 4554 H 405.602 -4.87499 -1.9913 0
M  V30 4555 H 408.093 -3.631 -1.04721 0
M  V30 4556 H 408.406 -7.57428 -1.53372 0
M  V30 4557 H 406.751 -6.81037 -1.38613 0
M  V30 4558 H 409.942 -4.5203 -1.21601 0
M  V30 4559 H 410.115 -6.31841 -1.43808 0
M  V30 4560 N 403.521 0.559213 -1.47345 0
M  V30 4561 C 404.469 1.68747 -1.60085 0
M  V30 4562 C 405.463 1.628 -0.46825 0
M  V30 4563 O 406.669 1.68009 -0.645977 0
M  V30 4564 H 403.044 0.558329 -0.503759 0
M  V30 4565 H 405.015 1.55138 -2.54902 0
M  V30 4566 C 403.764 3.07103 -1.63042 0
M  V30 4567 H 403.087 3.12361 -2.49541 0
M  V30 4568 H 404.527 3.85743 -1.76006 0
M  V30 4569 C 402.986 3.34935 -0.363357 0
M  V30 4570 O 403.516 3.98102 0.536416 0
M  V30 4571 N 401.722 2.89574 -0.244 0
M  V30 4572 H 401.269 2.38348 -0.977133 0
M  V30 4573 H 401.227 3.08566 0.602836 0
M  V30 4574 N 404.999 1.35443 0.805782 0
M  V30 4575 C 405.947 1.28465 1.93906 0
M  V30 4576 C 406.941 0.17943 1.68447 0
M  V30 4577 O 408.147 0.345459 1.76654 0
M  V30 4578 H 404.522 0.399528 0.637088 0
M  V30 4579 H 406.493 2.24206 1.96912 0
M  V30 4580 C 405.242 1.07432 3.30687 0
M  V30 4581 H 404.565 1.91716 3.50835 0
M  V30 4582 H 406.005 1.06591 4.10383 0
M  V30 4583 C 404.464 -0.22179 3.36169 0
M  V30 4584 O 404.994 -1.21731 3.82811 0
M  V30 4585 N 403.2 -0.260841 2.89427 0
M  V30 4586 H 402.747 0.549884 2.51663 0
M  V30 4587 H 402.705 -1.12777 2.93477 0
M  V30 4588 N 406.477 -1.02803 1.19454 0
M  V30 4589 C 407.424 -2.11099 0.933046 0
M  V30 4590 C 408.394 -1.65571 -0.132447 0
M  V30 4591 O 409.579 -1.90797 0.00987576 0
M  V30 4592 C 406.719 -3.41763 0.478747 0
M  V30 4593 C 405.832 -4.00833 1.6111 0
M  V30 4594 C 404.967 -5.19511 1.10825 0
M  V30 4595 C 404.006 -5.70639 2.21445 0
M  V30 4596 N 403.143 -6.80589 1.72461 0
M  V30 4597 H 407.983 -2.32804 1.86028 0
M  V30 4598 H 405.52 -1.14179 0.927441 0
M  V30 4599 H 407.478 -4.16736 0.196745 0
M  V30 4600 H 406.108 -3.20166 -0.411493 0
M  V30 4601 H 405.16 -3.23066 2.00829 0
M  V30 4602 H 406.472 -4.34794 2.4445 0
M  V30 4603 H 405.626 -6.01645 0.781533 0
M  V30 4604 H 404.365 -4.87086 0.244606 0
M  V30 4605 H 403.37 -4.87116 2.54947 0
M  V30 4606 H 404.595 -6.05102 3.08267 0
M  V30 4607 H 402.541 -6.50016 0.884056 0
M  V30 4608 H 402.458 -7.13681 2.49389 0
M  V30 4609 H 403.726 -7.66317 1.42755 0
M  V30 4610 N 407.956 -0.998596 -1.21925 0
M  V30 4611 C 408.904 -0.546641 -2.26085 0
M  V30 4612 C 409.898 0.405576 -1.64473 0
M  V30 4613 O 411.104 0.277471 -1.77849 0
M  V30 4614 H 407.479 -0.158403 -0.735127 0
M  V30 4615 H 409.45 -1.43645 -2.61551 0
M  V30 4616 C 408.199 0.117388 -3.47502 0
M  V30 4617 H 407.522 -0.606277 -3.95176 0
M  V30 4618 H 408.962 0.396993 -4.22137 0
M  V30 4619 C 407.421 1.35455 -3.0847 0
M  V30 4620 O 407.951 2.44944 -3.18379 0
M  V30 4621 N 406.157 1.23191 -2.63196 0
M  V30 4622 H 405.704 0.341006 -2.55333 0
M  V30 4623 H 405.662 2.06071 -2.37449 0
M  V30 4624 N 409.434 1.37368 -0.772513 0
M  V30 4625 C 410.683 1.98918 -0.333861 0
M  V30 4626 C 410.996 1.62017 1.09589 0
M  V30 4627 O 412.202 2.16676 1.63596 0
M  V30 4628 C 410.658 3.55735 -0.545971 0
M  V30 4629 C 410.266 4.01573 -1.98603 0
M  V30 4630 C 412.01 4.24156 -0.170979 0
M  V30 4631 C 409.917 5.51102 -2.1457 0
M  V30 4632 H 408.847 0.744214 -0.121085 0
M  V30 4633 H 411.498 1.56888 -0.95175 0
M  V30 4634 H 409.88 3.95748 0.141387 0
M  V30 4635 H 411.054 3.72803 -2.7084 0
M  V30 4636 H 409.369 3.45937 -2.31769 0
M  V30 4637 H 411.966 5.34024 -0.26878 0
M  V30 4638 H 412.309 4.06917 0.878855 0
M  V30 4639 H 412.842 3.89447 -0.810914 0
M  V30 4640 H 409.581 5.73268 -3.17875 0
M  V30 4641 H 409.101 5.81554 -1.46817 0
M  V30 4642 H 410.78 6.17083 -1.94468 0
M  V30 4643 N 410.912 0.523116 1.48665 0
M  V30 4644 C 412.158 -0.00540031 2.03399 0
M  V30 4645 C 412.513 -1.3264 1.39372 0
M  V30 4646 O 411.806 -1.84184 0.527916 0
M  V30 4647 C 412 -0.191671 3.56886 0
M  V30 4648 C 411.829 1.10972 4.35793 0
M  V30 4649 C 410.599 1.66769 4.76987 0
M  V30 4650 C 412.797 2.01861 4.73029 0
M  V30 4651 N 410.779 2.91268 5.40404 0
M  V30 4652 C 412.15 3.10937 5.36394 0
M  V30 4653 C 414.205 2.02271 4.54962 0
M  V30 4654 C 412.908 4.20478 5.83601 0
M  V30 4655 C 414.934 3.10802 5.03146 0
M  V30 4656 C 414.296 4.18597 5.6653 0
M  V30 4657 H 410.395 0.0393531 0.781009 0
M  V30 4658 H 412.979 0.702876 1.8157 0
M  V30 4659 H 411.15 -0.869025 3.78553 0
M  V30 4660 H 412.882 -0.719177 3.98259 0
M  V30 4661 H 409.637 1.20996 4.57883 0
M  V30 4662 H 410.061 3.54635 5.76683 0
M  V30 4663 H 414.703 1.2023 4.05345 0
M  V30 4664 H 412.421 5.03303 6.32228 0
M  V30 4665 H 416.007 3.12166 4.90962 0
M  V30 4666 H 414.887 5.01193 6.03138 0
M  V30 4667 N 412.39 -1.55475 0.257931 0
M  V30 4668 C 413.62 -2.03314 -0.367026 0
M  V30 4669 C 414.028 -1.13625 -1.51281 0
M  V30 4670 O 413.371 -0.145334 -1.83124 0
M  V30 4671 C 413.433 -3.47362 -0.926284 0
M  V30 4672 C 413.097 -4.56914 0.0886584 0
M  V30 4673 C 414.094 -5.12013 0.902123 0
M  V30 4674 C 411.779 -5.01827 0.217936 0
M  V30 4675 C 413.773 -6.10529 1.83122 0
M  V30 4676 C 411.46 -6.00172 1.15052 0
M  V30 4677 C 412.458 -6.54402 1.95568 0
M  V30 4678 O 412.146 -7.50827 2.87253 0
M  V30 4679 H 411.878 -0.669976 -0.0900443 0
M  V30 4680 H 414.432 -2.01804 0.382673 0
M  V30 4681 H 412.662 -3.46056 -1.72575 0
M  V30 4682 H 414.351 -3.78637 -1.46249 0
M  V30 4683 H 415.117 -4.78139 0.812891 0
M  V30 4684 H 410.996 -4.59272 -0.398721 0
M  V30 4685 H 414.54 -6.52783 2.46008 0
M  V30 4686 H 410.437 -6.33465 1.24064 0
M  V30 4687 H 411.205 -7.68483 2.81739 0
M  V30 4688 N 413.868 0.0150385 -1.57593 0
M  V30 4689 C 414.778 1.02791 -2.10882 0
M  V30 4690 C 415.794 1.38702 -1.0506 0
M  V30 4691 O 416.97 1.47739 -1.36877 0
M  V30 4692 C 414.035 2.30568 -2.58919 0
M  V30 4693 C 413.096 2.01108 -3.79281 0
M  V30 4694 C 412.329 3.22794 -4.25018 0
M  V30 4695 O 412.552 4.33959 -3.70183 0
M  V30 4696 O 411.486 3.07672 -5.17322 0
M  V30 4697 H 415.312 0.604973 -2.97613 0
M  V30 4698 H 412.897 0.23292 -1.47573 0
M  V30 4699 H 414.779 3.05662 -2.90084 0
M  V30 4700 H 413.454 2.72129 -1.75293 0
M  V30 4701 H 412.361 1.23537 -3.53114 0
M  V30 4702 H 413.694 1.64394 -4.63935 0
M  V30 4703 N 415.346 1.54954 0.287554 0
M  V30 4704 C 416.574 1.78881 1.03967 0
M  V30 4705 C 416.989 0.554894 1.80462 0
M  V30 4706 O 416.346 -0.475676 1.76192 0
M  V30 4707 C 416.397 3.00488 2.0097 0
M  V30 4708 O 416.118 4.19113 1.27577 0
M  V30 4709 C 417.619 3.36907 2.88112 0
M  V30 4710 H 414.839 0.596259 0.307761 0
M  V30 4711 H 417.383 2.01937 0.322749 0
M  V30 4712 H 415.538 2.79601 2.68145 0
M  V30 4713 H 415.952 4.87765 1.92835 0
M  V30 4714 H 417.426 4.25205 3.52001 0
M  V30 4715 H 417.903 2.55659 3.57121 0
M  V30 4716 H 418.509 3.60001 2.26449 0
M  V30 4717 N 416.824 -0.551391 1.4764 0
M  V30 4718 C 417.772 -1.67896 1.60978 0
M  V30 4719 C 418.766 -1.62549 0.476877 0
M  V30 4720 O 419.972 -1.67664 0.654878 0
M  V30 4721 H 416.347 -0.555649 0.506713 0
M  V30 4722 H 418.318 -1.53784 2.55721 0
M  V30 4723 C 417.067 -3.06234 1.64669 0
M  V30 4724 H 416.39 -3.11033 2.51194 0
M  V30 4725 H 417.83 -3.84804 1.7805 0
M  V30 4726 C 416.289 -3.34737 0.381115 0
M  V30 4727 O 416.819 -3.98381 -0.515297 0
M  V30 4728 N 415.025 -2.8944 0.259354 0
M  V30 4729 H 414.572 -2.37827 0.98976 0
M  V30 4730 H 414.53 -3.08882 -0.586464 0
M  V30 4731 N 418.302 -1.35869 -0.798587 0
M  V30 4732 C 419.549 -1.29588 -1.55606 0
M  V30 4733 C 419.877 0.127456 -1.94082 0
M  V30 4734 O 419.132 1.09461 -1.62225 0
M  V30 4735 C 419.431 -2.1556 -2.85077 0
M  V30 4736 C 419.097 -3.6424 -2.65781 0
M  V30 4737 C 417.759 -4.04766 -2.60227 0
M  V30 4738 C 420.111 -4.58547 -2.47758 0
M  V30 4739 C 417.439 -5.37753 -2.34603 0
M  V30 4740 C 419.791 -5.91742 -2.23662 0
M  V30 4741 C 418.455 -6.31402 -2.16534 0
M  V30 4742 H 417.725 -0.474197 -0.569402 0
M  V30 4743 H 420.372 -1.67839 -0.922086 0
M  V30 4744 H 418.677 -1.70216 -3.52893 0
M  V30 4745 H 420.374 -2.08031 -3.42818 0
M  V30 4746 H 416.964 -3.32086 -2.70956 0
M  V30 4747 H 421.148 -4.28117 -2.51056 0
M  V30 4748 H 416.404 -5.67474 -2.2756 0
M  V30 4749 H 420.578 -6.6439 -2.08708 0
M  V30 4750 H 418.205 -7.34381 -1.96441 0
M  V30 4751 N 419.78 1.02168 -1.19998 0
M  V30 4752 C 421.027 1.75685 -1.00702 0
M  V30 4753 C 421.355 1.88947 0.461426 0
M  V30 4754 O 420.61 1.40832 1.35885 0
M  V30 4755 C 420.909 3.18081 -1.62969 0
M  V30 4756 C 420.575 3.24809 -3.12746 0
M  V30 4757 C 419.237 3.26352 -3.53621 0
M  V30 4758 C 421.589 3.23379 -4.08749 0
M  V30 4759 C 418.917 3.2413 -4.89036 0
M  V30 4760 C 421.269 3.22698 -5.44104 0
M  V30 4761 C 419.933 3.22542 -5.84399 0
M  V30 4762 H 419.203 0.642877 -0.368496 0
M  V30 4763 H 421.85 1.19865 -1.49348 0
M  V30 4764 H 420.155 3.77027 -1.06573 0
M  V30 4765 H 421.852 3.73648 -1.45561 0
M  V30 4766 H 418.442 3.2434 -2.80181 0
M  V30 4767 H 422.626 3.21361 -3.78207 0
M  V30 4768 H 417.882 3.22338 -5.19527 0
M  V30 4769 H 422.056 3.20543 -6.18244 0
M  V30 4770 H 419.683 3.20575 -6.89301 0
M  V30 4771 N 421.258 1.00505 1.21394 0
M  V30 4772 C 422.205 0.565496 2.23765 0
M  V30 4773 C 423.175 -0.408466 1.60999 0
M  V30 4774 O 424.36 -0.310503 1.88257 0
M  V30 4775 C 421.5 -0.101667 3.4495 0
M  V30 4776 C 420.613 0.915479 4.22188 0
M  V30 4777 C 419.748 0.220574 5.30742 0
M  V30 4778 C 418.787 1.22527 5.99711 0
M  V30 4779 N 417.924 0.557831 6.9988 0
M  V30 4780 H 422.764 1.44314 2.60725 0
M  V30 4781 H 420.301 0.722643 1.28126 0
M  V30 4782 H 422.259 -0.505504 4.14126 0
M  V30 4783 H 420.889 -0.94303 3.08718 0
M  V30 4784 H 419.941 1.43756 3.52191 0
M  V30 4785 H 421.253 1.68005 4.69655 0
M  V30 4786 H 420.407 -0.239368 6.06228 0
M  V30 4787 H 419.146 -0.576401 4.84282 0
M  V30 4788 H 418.151 1.69571 5.22997 0
M  V30 4789 H 419.376 2.02332 6.48258 0
M  V30 4790 H 417.322 -0.219486 6.55633 0
M  V30 4791 H 417.239 1.26065 7.45415 0
M  V30 4792 H 418.507 0.121095 7.79406 0
M  V30 4793 N 422.737 -1.36956 0.779787 0
M  V30 4794 C 423.684 -2.30175 0.169697 0
M  V30 4795 C 424.654 -1.51501 -0.68094 0
M  V30 4796 O 425.839 -1.80042 -0.631629 0
M  V30 4797 C 422.979 -3.37985 -0.697131 0
M  V30 4798 C 422.092 -4.31661 0.170992 0
M  V30 4799 C 421.227 -5.2655 -0.701298 0
M  V30 4800 C 420.266 -6.11867 0.168869 0
M  V30 4801 N 419.403 -6.98973 -0.661855 0
M  V30 4802 H 424.243 -2.81767 0.970135 0
M  V30 4803 H 421.78 -1.38699 0.489994 0
M  V30 4804 H 423.738 -3.99128 -1.2146 0
M  V30 4805 H 422.368 -2.87739 -1.46309 0
M  V30 4806 H 421.42 -3.71756 0.80634 0
M  V30 4807 H 422.732 -4.91644 0.841875 0
M  V30 4808 H 421.886 -5.92937 -1.28494 0
M  V30 4809 H 420.625 -4.66998 -1.40584 0
M  V30 4810 H 419.63 -5.44452 0.764986 0
M  V30 4811 H 420.855 -6.73493 0.870863 0
M  V30 4812 H 418.801 -6.41941 -1.35086 0
M  V30 4813 H 418.718 -7.55984 -0.0484447 0
M  V30 4814 H 419.986 -7.6974 -1.22963 0
M  V30 4815 N 424.215 -0.530993 -1.48385 0
M  V30 4816 C 425.464 0.00474348 -2.01699 0
M  V30 4817 C 425.777 1.35227 -1.41325 0
M  V30 4818 O 426.983 1.97643 -1.86144 0
M  V30 4819 C 425.439 0.0588473 -3.59852 0
M  V30 4820 C 425.047 -1.28385 -4.2921 0
M  V30 4821 C 426.791 0.543358 -4.21008 0
M  V30 4822 C 424.698 -1.19028 -5.79298 0
M  V30 4823 H 423.628 0.00554317 -0.75398 0
M  V30 4824 H 426.279 -0.674924 -1.70637 0
M  V30 4825 H 424.661 0.803612 -3.8776 0
M  V30 4826 H 425.835 -2.04426 -4.12973 0
M  V30 4827 H 424.15 -1.70418 -3.7993 0
M  V30 4828 H 426.747 0.631351 -5.3096 0
M  V30 4829 H 427.09 1.54937 -3.86394 0
M  V30 4830 H 427.623 -0.145754 -3.97533 0
M  V30 4831 H 424.362 -2.17147 -6.18488 0
M  V30 4832 H 423.882 -0.471246 -5.97946 0
M  V30 4833 H 425.561 -0.881365 -6.40969 0
M  V30 4834 N 425.693 1.55336 -0.266172 0
M  V30 4835 C 426.918 2.04258 0.359661 0
M  V30 4836 C 427.343 1.14359 1.49344 0
M  V30 4837 O 426.701 0.140369 1.80756 0
M  V30 4838 C 426.749 3.50997 0.826635 0
M  V30 4839 O 425.853 3.64204 1.93466 0
M  V30 4840 H 425.194 0.659668 0.075727 0
M  V30 4841 H 427.724 2.00694 -0.39786 0
M  V30 4842 H 427.734 3.9219 1.12477 0
M  V30 4843 H 426.409 4.159 -0.00293032 0
M  V30 4844 H 424.986 3.34913 1.63974 0
M  V30 4845 N 427.171 -0.0066808 1.57599 0
M  V30 4846 C 428.419 -0.691552 1.899 0
M  V30 4847 C 428.74 -1.74682 0.866672 0
M  V30 4848 O 428.01 -1.95661 -0.0968189 0
M  V30 4849 H 426.59 -0.258416 0.700878 0
M  V30 4850 H 429.252 0.0326655 1.94873 0
M  V30 4851 H 428.348 -1.16702 2.8946 0
M  V30 4852 N 428.649 -1.55105 -0.279332 0
M  V30 4853 C 429.874 -1.7976 -1.03446 0
M  V30 4854 C 430.299 -0.565952 -1.79384 0
M  V30 4855 O 429.657 0.484259 -1.74713 0
M  V30 4856 C 429.705 -3.0179 -1.97371 0
M  V30 4857 O 428.809 -2.76432 -3.06038 0
M  V30 4858 H 428.15 -0.594334 -0.29608 0
M  V30 4859 H 430.68 -2.02235 -0.310165 0
M  V30 4860 H 430.69 -3.30351 -2.39441 0
M  V30 4861 H 429.365 -3.91085 -1.4151 0
M  V30 4862 H 427.942 -2.58949 -2.68328 0
M  V30 4863 N 430.127 0.543554 -1.4793 0
M  V30 4864 C 431.059 1.665 -1.57513 0
M  V30 4865 C 432.072 1.56156 -0.460333 0
M  V30 4866 O 433.261 1.62865 -0.730573 0
M  V30 4867 C 430.361 3.05063 -1.47614 0
M  V30 4868 C 429.534 3.41024 -2.739 0
M  V30 4869 C 428.593 4.58809 -2.57645 0
M  V30 4870 O 427.619 4.62707 -3.31498 0
M  V30 4871 N 428.821 5.56149 -1.66368 0
M  V30 4872 H 431.586 1.5872 -2.5422 0
M  V30 4873 H 429.147 0.730517 -1.44482 0
M  V30 4874 H 431.139 3.81712 -1.34455 0
M  V30 4875 H 429.709 3.06994 -0.589359 0
M  V30 4876 H 428.929 2.53687 -3.01723 0
M  V30 4877 H 430.217 3.61831 -3.57709 0
M  V30 4878 H 429.615 5.55767 -1.05543 0
M  V30 4879 H 428.172 6.32071 -1.59154 0
M  V30 4880 N 431.605 1.3629 0.791371 0
M  V30 4881 C 432.854 1.29742 1.54434 0
M  V30 4882 C 433.167 -0.121729 1.95221 0
M  V30 4883 O 434.373 -0.309579 2.69729 0
M  V30 4884 C 432.829 2.27623 2.78776 0
M  V30 4885 C 432.437 3.74963 2.45166 0
M  V30 4886 C 434.181 2.30047 3.56761 0
M  V30 4887 C 432.088 4.64626 3.65891 0
M  V30 4888 H 431.018 0.482113 0.579727 0
M  V30 4889 H 433.669 1.61642 0.868565 0
M  V30 4890 H 432.051 1.88714 3.48142 0
M  V30 4891 H 433.225 4.22596 1.83709 0
M  V30 4892 H 431.54 3.75295 1.80396 0
M  V30 4893 H 434.137 2.94247 4.46456 0
M  V30 4894 H 434.48 1.30846 3.95203 0
M  V30 4895 H 435.013 2.67563 2.94372 0
M  V30 4896 H 431.752 5.64883 3.32547 0
M  V30 4897 H 431.272 4.2171 4.26521 0
M  V30 4898 H 432.951 4.80801 4.32943 0
M  V30 4899 N 433.083 -1.0153 1.20538 0
M  V30 4900 C 434.013 -2.11972 0.979295 0
M  V30 4901 C 434.994 -1.6985 -0.0921787 0
M  V30 4902 O 436.179 -1.94089 0.0655932 0
M  V30 4903 C 433.309 -3.43201 0.531984 0
M  V30 4904 C 432.263 -3.9907 1.54685 0
M  V30 4905 C 431.589 -5.26082 0.956127 0
M  V30 4906 C 432.889 -4.32313 2.93092 0
M  V30 4907 H 434.583 -2.31143 1.90298 0
M  V30 4908 H 432.129 -1.11079 0.916372 0
M  V30 4909 H 434.082 -4.1985 0.361044 0
M  V30 4910 H 432.806 -3.23792 -0.427327 0
M  V30 4911 H 431.465 -3.2453 1.70517 0
M  V30 4912 H 431.113 -5.02999 -0.0111538 0
M  V30 4913 H 430.813 -5.64426 1.63393 0
M  V30 4914 H 432.337 -6.05386 0.796284 0
M  V30 4915 H 433.751 -4.99845 2.80763 0
M  V30 4916 H 432.148 -4.81774 3.57791 0
M  V30 4917 H 433.218 -3.41025 3.44717 0
M  V30 4918 N 434.561 -1.01147 -1.20859 0
M  V30 4919 C 435.791 -0.715872 -1.93801 0
M  V30 4920 C 436.199 0.726592 -1.74692 0
M  V30 4921 O 435.542 1.50397 -1.05482 0
M  V30 4922 C 435.604 -0.965269 -3.46299 0
M  V30 4923 C 435.268 -2.39584 -3.89164 0
M  V30 4924 C 436.265 -3.3764 -3.95342 0
M  V30 4925 C 433.95 -2.73522 -4.21297 0
M  V30 4926 C 435.944 -4.67698 -4.33056 0
M  V30 4927 C 433.631 -4.03794 -4.58687 0
M  V30 4928 C 434.629 -5.00693 -4.64538 0
M  V30 4929 O 434.317 -6.28635 -5.01072 0
M  V30 4930 H 434.049 -0.262524 -0.622942 0
M  V30 4931 H 436.603 -1.35413 -1.54443 0
M  V30 4932 H 434.833 -0.269847 -3.85757 0
M  V30 4933 H 436.522 -0.662051 -4.00464 0
M  V30 4934 H 437.288 -3.12757 -3.70686 0
M  V30 4935 H 433.167 -1.9879 -4.15937 0
M  V30 4936 H 436.711 -5.4333 -4.37537 0
M  V30 4937 H 432.608 -4.28459 -4.82797 0
M  V30 4938 H 433.376 -6.32847 -5.19083 0
M  V30 4939 N 436.039 1.36541 -0.78704 0
M  V30 4940 C 437.269 2.03266 -0.369662 0
M  V30 4941 C 437.677 1.59481 1.01796 0
M  V30 4942 O 437.02 0.778612 1.66383 0
M  V30 4943 C 437.082 3.57779 -0.351371 0
M  V30 4944 C 436.746 4.24756 -1.68617 0
M  V30 4945 C 437.743 4.47811 -2.64124 0
M  V30 4946 C 435.428 4.62277 -1.96481 0
M  V30 4947 C 437.422 5.07464 -3.85693 0
M  V30 4948 C 435.109 5.21649 -3.18317 0
M  V30 4949 C 436.107 5.44182 -4.12741 0
M  V30 4950 O 435.795 6.02307 -5.32429 0
M  V30 4951 H 435.527 0.658977 -0.150751 0
M  V30 4952 H 438.081 1.75548 -1.0664 0
M  V30 4953 H 436.311 3.84606 0.401847 0
M  V30 4954 H 438 4.05879 0.0410147 0
M  V30 4955 H 438.766 4.19221 -2.43883 0
M  V30 4956 H 434.645 4.44065 -1.23805 0
M  V30 4957 H 438.189 5.24968 -4.59407 0
M  V30 4958 H 434.086 5.49664 -3.38437 0
M  V30 4959 H 434.854 6.20775 -5.33461 0
M  V30 4960 N 437.518 0.538854 1.48102 0
M  V30 4961 C 438.767 0.0059532 2.01699 0
M  V30 4962 C 439.08 -1.34476 1.42041 0
M  V30 4963 O 440.286 -1.96653 1.87189 0
M  V30 4964 C 438.742 -0.0397627 3.59878 0
M  V30 4965 C 438.35 1.30659 4.28523 0
M  V30 4966 C 440.094 -0.521024 4.2129 0
M  V30 4967 C 438.001 1.22098 5.78659 0
M  V30 4968 H 436.931 -0.00154456 0.753998 0
M  V30 4969 H 439.582 0.683963 1.70277 0
M  V30 4970 H 437.964 -0.783037 3.88181 0
M  V30 4971 H 439.138 2.06613 4.11883 0
M  V30 4972 H 437.453 1.7243 3.79021 0
M  V30 4973 H 440.05 -0.603184 5.31287 0
M  V30 4974 H 440.393 -1.52885 3.8721 0
M  V30 4975 H 440.926 0.166834 3.9745 0
M  V30 4976 H 437.665 2.20424 6.17328 0
M  V30 4977 H 437.185 0.50295 5.97688 0
M  V30 4978 H 438.864 0.915345 6.40492 0
M  V30 4979 N 438.996 -1.55193 0.274407 0
M  V30 4980 C 439.926 -2.25471 -0.607032 0
M  V30 4981 C 440.907 -1.24461 -1.15946 0
M  V30 4982 O 442.092 -1.53179 -1.19373 0
M  V30 4983 C 439.222 -2.97526 -1.79153 0
M  V30 4984 C 438.176 -4.05459 -1.37067 0
M  V30 4985 C 437.502 -4.65084 -2.6382 0
M  V30 4986 C 438.802 -5.19691 -0.521389 0
M  V30 4987 H 440.496 -2.99393 -0.0209343 0
M  V30 4988 H 438.042 -1.43997 -0.00862866 0
M  V30 4989 H 439.995 -3.45402 -2.41404 0
M  V30 4990 H 438.719 -2.21138 -2.40344 0
M  V30 4991 H 437.378 -3.58393 -0.771355 0
M  V30 4992 H 437.026 -3.85365 -3.23268 0
M  V30 4993 H 436.726 -5.37961 -2.36372 0
M  V30 4994 H 438.25 -5.15708 -3.26921 0
M  V30 4995 H 439.664 -5.63623 -1.04889 0
M  V30 4996 H 438.061 -5.99126 -0.341825 0
M  V30 4997 H 439.131 -4.82713 0.46 0
M  V30 4998 N 440.474 -0.00167713 -1.576 0
M  V30 4999 C 441.424 0.997744 -2.0501 0
M  V30 5000 C 442.408 1.30214 -0.94515 0
M  V30 5001 O 443.6 1.29284 -1.20891 0
M  V30 5002 C 440.729 2.2892 -2.55833 0
M  V30 5003 C 439.815 2.01437 -3.73208 0
M  V30 5004 N 440.206 1.44119 -4.84833 0
M  V30 5005 C 438.504 2.31571 -3.8117 0
M  V30 5006 C 439.205 1.33145 -5.66257 0
M  V30 5007 N 438.181 1.81763 -5.12312 0
M  V30 5008 H 441.983 0.549098 -2.88725 0
M  V30 5009 H 439.497 0.20398 -1.61114 0
M  V30 5010 H 441.494 3.01361 -2.88075 0
M  V30 5011 H 440.154 2.74436 -1.73537 0
M  V30 5012 H 441.165 1.11978 -5.0565 0
M  V30 5013 H 437.842 2.7995 -3.09732 0
M  V30 5014 H 439.232 0.890567 -6.65972 0
M  V30 5015 N 441.952 1.55251 0.271103 0
M  V30 5016 C 443.199 1.75946 1.00245 0
M  V30 5017 C 443.527 0.561611 1.86215 0
M  V30 5018 O 442.782 -0.455832 1.90317 0
M  V30 5019 C 443.081 3.01879 1.91321 0
M  V30 5020 C 442.747 4.34337 1.21086 0
M  V30 5021 C 441.409 4.70338 1.01666 0
M  V30 5022 C 443.761 5.16325 0.71119 0
M  V30 5023 C 441.089 5.8588 0.310099 0
M  V30 5024 C 443.441 6.32597 0.0182157 0
M  V30 5025 C 442.105 6.67236 -0.18768 0
M  V30 5026 H 441.375 0.643833 0.366824 0
M  V30 5027 H 444.022 1.89521 0.27458 0
M  V30 5028 H 442.327 2.83212 2.70736 0
M  V30 5029 H 444.024 3.15088 2.48033 0
M  V30 5030 H 440.614 4.06043 1.37213 0
M  V30 5031 H 444.798 4.88987 0.848844 0
M  V30 5032 H 440.054 6.1124 0.139873 0
M  V30 5033 H 444.228 6.9538 -0.376711 0
M  V30 5034 H 441.855 7.56618 -0.73715 0
M  V30 5035 N 443.43 -0.535701 1.48216 0
M  V30 5036 C 444.679 -1.28828 1.55197 0
M  V30 5037 C 444.992 -1.94263 0.228278 0
M  V30 5038 O 446.198 -2.70927 0.176278 0
M  V30 5039 C 444.654 -2.33727 2.73678 0
M  V30 5040 C 444.262 -1.74386 4.12666 0
M  V30 5041 C 446.006 -3.1003 2.89968 0
M  V30 5042 C 443.913 -2.77192 5.22416 0
M  V30 5043 H 442.843 -0.484484 0.577747 0
M  V30 5044 H 445.494 -0.56646 1.74538 0
M  V30 5045 H 443.876 -3.08919 2.4776 0
M  V30 5046 H 445.05 -1.05421 4.48579 0
M  V30 5047 H 443.365 -1.10595 4.01445 0
M  V30 5048 H 445.962 -3.86842 3.6913 0
M  V30 5049 H 446.305 -3.65542 1.9921 0
M  V30 5050 H 446.838 -2.41952 3.15759 0
M  V30 5051 H 443.577 -2.26507 6.15122 0
M  V30 5052 H 443.097 -3.44502 4.90998 0
M  V30 5053 H 444.776 -3.40285 5.50286 0
M  V30 5054 N 444.908 -1.36708 -0.784132 0
M  V30 5055 C 445.856 -1.31533 -1.91838 0
M  V30 5056 C 446.85 -0.206205 -1.6814 0
M  V30 5057 O 448.056 -0.373519 -1.76082 0
M  V30 5058 H 444.431 -0.409613 -0.630651 0
M  V30 5059 H 446.402 -2.2731 -1.9332 0
M  V30 5060 C 445.151 -1.12679 -3.28936 0
M  V30 5061 H 444.474 -1.97274 -3.4774 0
M  V30 5062 H 445.914 -1.13106 -4.08636 0
M  V30 5063 C 444.373 0.168281 -3.36479 0
M  V30 5064 O 444.903 1.15625 -3.84699 0
M  V30 5065 N 443.109 0.214762 -2.89805 0
M  V30 5066 H 442.656 -0.589852 -2.50756 0
M  V30 5067 H 442.614 1.08094 -2.95234 0
M  V30 5068 N 446.386 1.0089 -1.21074 0
M  V30 5069 C 447.333 2.09588 -0.966512 0
M  V30 5070 C 448.303 1.65761 0.106089 0
M  V30 5071 O 449.488 1.90758 -0.0402287 0
M  V30 5072 C 446.628 3.40958 -0.533058 0
M  V30 5073 C 445.741 3.9822 -1.67467 0
M  V30 5074 C 444.876 5.17682 -1.19076 0
M  V30 5075 C 443.915 5.67043 -2.30496 0
M  V30 5076 N 443.052 6.77759 -1.83267 0
M  V30 5077 H 447.892 2.29815 -1.89708 0
M  V30 5078 H 445.429 1.12689 -0.945489 0
M  V30 5079 H 447.387 4.1637 -0.263019 0
M  V30 5080 H 446.017 3.20781 0.360505 0
M  V30 5081 H 445.069 3.1983 -2.05944 0
M  V30 5082 H 446.381 4.3085 -2.51336 0
M  V30 5083 H 445.535 6.00326 -0.877151 0
M  V30 5084 H 444.274 4.86635 -0.322066 0
M  V30 5085 H 443.279 4.82999 -2.62664 0
M  V30 5086 H 444.504 6.00121 -3.17855 0
M  V30 5087 H 442.45 6.48527 -0.987356 0
M  V30 5088 H 442.367 7.09624 -2.60711 0
M  V30 5089 H 443.635 7.63949 -1.54928 0
M  V30 5090 N 447.864 1.01787 1.20321 0
M  V30 5091 C 449.089 0.727009 1.9424 0
M  V30 5092 C 449.514 -0.706179 1.74341 0
M  V30 5093 O 448.872 -1.48609 1.03852 0
M  V30 5094 C 448.92 1.06958 3.44372 0
M  V30 5095 O 448.024 0.181983 4.11998 0
M  V30 5096 H 447.365 0.269626 0.606793 0
M  V30 5097 H 449.895 1.36158 1.52716 0
M  V30 5098 H 449.905 1.02182 3.94997 0
M  V30 5099 H 448.58 2.11378 3.58179 0
M  V30 5100 H 447.157 0.287378 3.71791 0
M  V30 5101 N 449.342 -1.36122 0.79427 0
M  V30 5102 C 450.591 -1.98361 0.365464 0
M  V30 5103 C 450.904 -1.6374 -1.06997 0
M  V30 5104 O 452.11 -2.19251 -1.60129 0
M  V30 5105 C 450.566 -3.54821 0.602496 0
M  V30 5106 C 450.174 -3.98362 2.04967 0
M  V30 5107 C 451.918 -4.2383 0.238437 0
M  V30 5108 C 449.825 -5.47619 2.2331 0
M  V30 5109 H 448.755 -0.742193 0.13291 0
M  V30 5110 H 451.406 -1.55354 0.976589 0
M  V30 5111 H 449.788 -3.95922 -0.078409 0
M  V30 5112 H 450.962 -3.68447 2.76737 0
M  V30 5113 H 449.277 -3.42206 2.37243 0
M  V30 5114 H 451.874 -5.33529 0.353705 0
M  V30 5115 H 452.217 -4.08264 -0.814006 0
M  V30 5116 H 452.75 -3.88108 0.872769 0
M  V30 5117 H 449.489 -5.68138 3.26955 0
M  V30 5118 H 449.009 -5.79145 1.5605 0
M  V30 5119 H 450.688 -6.13911 2.0426 0
M  V30 5120 N 450.82 -0.546701 -1.47814 0
M  V30 5121 C 452.045 -0.021268 -2.07389 0
M  V30 5122 C 452.47 1.25822 -1.39822 0
M  V30 5123 O 451.828 1.75111 -0.46968 0
M  V30 5124 C 451.876 0.168502 -3.60206 0
M  V30 5125 O 450.98 1.23347 -3.93522 0
M  V30 5126 H 450.321 -0.0466108 -0.662362 0
M  V30 5127 H 452.851 -0.759387 -1.89985 0
M  V30 5128 H 452.861 0.385982 -4.0617 0
M  V30 5129 H 451.536 -0.766075 -4.08784 0
M  V30 5130 H 450.113 0.997319 -3.59316 0
M  V30 5131 N 452.299 1.55045 -0.282633 0
M  V30 5132 C 453.246 2.22822 0.601566 0
M  V30 5133 C 454.216 1.20431 1.14392 0
M  V30 5134 O 455.401 1.48996 1.19184 0
M  V30 5135 C 452.541 2.95873 1.77632 0
M  V30 5136 C 451.654 4.12999 1.26711 0
M  V30 5137 C 450.789 4.73676 2.40426 0
M  V30 5138 C 449.828 5.82981 1.86545 0
M  V30 5139 N 448.965 6.3769 2.93762 0
M  V30 5140 H 453.805 2.97995 0.0169528 0
M  V30 5141 H 451.342 1.471 -0.00339964 0
M  V30 5142 H 453.3 3.36447 2.46697 0
M  V30 5143 H 451.93 2.2311 2.33285 0
M  V30 5144 H 450.982 3.77494 0.469314 0
M  V30 5145 H 452.294 4.91803 0.832518 0
M  V30 5146 H 451.448 5.17008 3.17471 0
M  V30 5147 H 450.187 3.94164 2.87203 0
M  V30 5148 H 449.192 5.39092 1.07983 0
M  V30 5149 H 450.417 6.64366 1.40694 0
M  V30 5150 H 448.363 5.61069 3.39908 0
M  V30 5151 H 448.28 7.11788 2.54744 0
M  V30 5152 H 449.548 6.8568 3.7076 0
M  V30 5153 N 453.777 0.010035 1.57597 0
M  V30 5154 C 455.026 -0.671945 1.90178 0
M  V30 5155 C 455.339 -1.74376 0.886131 0
M  V30 5156 O 456.545 -2.48107 1.10252 0
M  V30 5157 C 455.001 -1.24636 3.3763 0
M  V30 5158 C 454.609 -0.208838 4.47513 0
M  V30 5159 C 456.353 -1.90595 3.79307 0
M  V30 5160 C 454.26 -0.793814 5.86048 0
M  V30 5161 H 453.19 -0.25474 0.709665 0
M  V30 5162 H 455.841 0.0722206 1.83358 0
M  V30 5163 H 454.223 -2.04152 3.3932 0
M  V30 5164 H 455.397 0.562463 4.57354 0
M  V30 5165 H 453.712 0.350889 4.14919 0
M  V30 5166 H 456.309 -2.35284 4.80151 0
M  V30 5167 H 456.652 -2.74074 3.13352 0
M  V30 5168 H 457.185 -1.17798 3.79958 0
M  V30 5169 H 453.924 0.00240855 6.555 0
M  V30 5170 H 453.444 -1.53404 5.79851 0
M  V30 5171 H 455.123 -1.2894 6.34022 0
M  V30 5172 N 455.255 -1.55392 -0.262866 0
M  V30 5173 C 456.202 -1.88966 -1.32516 0
M  V30 5174 C 457.172 -0.742187 -1.48596 0
M  V30 5175 O 458.357 -0.99439 -1.62839 0
M  V30 5176 C 455.497 -2.17592 -2.67858 0
M  V30 5177 C 454.61 -3.45061 -2.59917 0
M  V30 5178 C 453.745 -3.63336 -3.87505 0
M  V30 5179 C 452.784 -4.84462 -3.74116 0
M  V30 5180 N 451.921 -4.99342 -4.93561 0
M  V30 5181 H 456.761 -2.79566 -1.03184 0
M  V30 5182 H 454.298 -1.38404 -0.498285 0
M  V30 5183 H 456.256 -2.3219 -3.46617 0
M  V30 5184 H 454.886 -1.30215 -2.95371 0
M  V30 5185 H 453.938 -3.38881 -1.72812 0
M  V30 5186 H 455.25 -4.3396 -2.45926 0
M  V30 5187 H 454.404 -3.77807 -4.74707 0
M  V30 5188 H 453.143 -2.72641 -4.04374 0
M  V30 5189 H 452.148 -4.69985 -2.85297 0
M  V30 5190 H 453.373 -5.76603 -3.58757 0
M  V30 5191 H 451.319 -4.1158 -5.10821 0
M  V30 5192 H 451.236 -5.82303 -4.82141 0
M  V30 5193 H 452.504 -5.18208 -5.82306 0
M  V30 5194 N 456.733 0.527833 -1.48498 0
M  V30 5195 C 457.963 1.30633 -1.60058 0
M  V30 5196 C 458.371 1.87394 -0.260786 0
M  V30 5197 O 457.714 1.67227 0.760317 0
M  V30 5198 C 457.776 2.49361 -2.58958 0
M  V30 5199 C 457.44 2.13671 -4.03972 0
M  V30 5200 C 458.437 1.69217 -4.91591 0
M  V30 5201 C 456.122 2.24129 -4.49524 0
M  V30 5202 C 458.116 1.35689 -6.2279 0
M  V30 5203 C 455.803 1.90212 -5.80743 0
M  V30 5204 C 456.801 1.46063 -6.67199 0
M  V30 5205 O 456.489 1.12593 -7.95976 0
M  V30 5206 H 456.221 0.403444 -0.54241 0
M  V30 5207 H 458.775 0.643233 -1.95068 0
M  V30 5208 H 457.005 3.18659 -2.19073 0
M  V30 5209 H 458.694 3.11421 -2.6033 0
M  V30 5210 H 459.46 1.60607 -4.57636 0
M  V30 5211 H 455.339 2.57447 -3.82416 0
M  V30 5212 H 458.883 1.01157 -6.90227 0
M  V30 5213 H 454.78 1.98464 -6.14233 0
M  V30 5214 H 455.548 1.25972 -8.08748 0
M  V30 5215 N 458.211 1.37122 0.776871 0
M  V30 5216 C 459.46 1.31373 1.53049 0
M  V30 5217 C 459.773 -0.101016 1.95339 0
M  V30 5218 O 460.979 -0.280953 2.70042 0
M  V30 5219 C 459.435 2.30567 2.76346 0
M  V30 5220 C 459.043 3.77543 2.41175 0
M  V30 5221 C 460.787 2.33818 3.54301 0
M  V30 5222 C 458.694 4.68481 3.60943 0
M  V30 5223 H 457.624 0.488234 0.574581 0
M  V30 5224 H 460.275 1.62554 0.851372 0
M  V30 5225 H 458.657 1.92396 3.46121 0
M  V30 5226 H 459.831 4.24521 1.79216 0
M  V30 5227 H 458.146 3.77187 1.76405 0
M  V30 5228 H 460.743 2.98965 4.4331 0
M  V30 5229 H 461.086 1.3503 3.93793 0
M  V30 5230 H 461.619 2.7067 2.91518 0
M  V30 5231 H 458.358 5.68378 3.26537 0
M  V30 5232 H 457.878 4.2621 4.22025 0
M  V30 5233 H 459.557 4.85366 4.27819 0
M  V30 5234 N 459.689 -1.00246 1.21608 0
M  V30 5235 C 460.619 -2.10921 1.00172 0
M  V30 5236 C 461.6 -1.69938 -0.0741587 0
M  V30 5237 O 462.785 -1.94009 0.0861753 0
M  V30 5238 C 459.915 -3.42618 0.568355 0
M  V30 5239 C 458.869 -3.97407 1.58909 0
M  V30 5240 C 458.195 -5.25038 1.01187 0
M  V30 5241 C 459.495 -4.2918 2.97661 0
M  V30 5242 H 461.189 -2.29112 1.92739 0
M  V30 5243 H 458.735 -1.10101 0.928102 0
M  V30 5244 H 460.688 -4.19444 0.405555 0
M  V30 5245 H 459.412 -3.24227 -0.392961 0
M  V30 5246 H 458.071 -3.22703 1.73949 0
M  V30 5247 H 457.719 -5.02982 0.0421965 0
M  V30 5248 H 457.419 -5.62661 1.6937 0
M  V30 5249 H 458.943 -6.04507 0.860448 0
M  V30 5250 H 460.357 -4.96839 2.86049 0
M  V30 5251 H 458.754 -4.77952 3.6288 0
M  V30 5252 H 459.824 -3.3735 3.48315 0
M  V30 5253 N 461.167 -1.02423 -1.1978 0
M  V30 5254 C 462.114 -0.601023 -2.22837 0
M  V30 5255 C 463.084 0.382801 -1.61629 0
M  V30 5256 O 464.269 0.280514 -1.88727 0
M  V30 5257 C 461.409 0.0467755 -3.45068 0
M  V30 5258 C 460.522 -0.98253 -4.20678 0
M  V30 5259 C 459.657 -0.304982 -5.30324 0
M  V30 5260 C 458.696 -1.32052 -5.97686 0
M  V30 5261 N 457.833 -0.669105 -6.98904 0
M  V30 5262 H 462.673 -1.48444 -2.58396 0
M  V30 5263 H 460.21 -0.742936 -1.2696 0
M  V30 5264 H 462.168 0.439556 -4.14878 0
M  V30 5265 H 460.798 0.893796 -3.10179 0
M  V30 5266 H 459.85 -1.49341 -3.49859 0
M  V30 5267 H 461.162 -1.75455 -4.66923 0
M  V30 5268 H 460.316 0.142893 -6.06532 0
M  V30 5269 H 459.055 0.499283 -4.85138 0
M  V30 5270 H 458.06 -1.7787 -5.20233 0
M  V30 5271 H 459.285 -2.1262 -6.44957 0
M  V30 5272 H 457.231 0.115152 -6.55899 0
M  V30 5273 H 457.148 -1.37908 -7.43315 0
M  V30 5274 H 458.416 -0.245076 -7.79115 0
M  V30 5275 N 462.645 1.35699 -0.801477 0
M  V30 5276 C 463.875 2.02862 -0.3912 0
M  V30 5277 C 464.283 1.60552 1.00099 0
M  V30 5278 O 463.626 0.796215 1.65548 0
M  V30 5279 C 463.688 3.57386 -0.389299 0
M  V30 5280 C 463.352 4.22943 -1.73113 0
M  V30 5281 C 464.349 4.44984 -2.68859 0
M  V30 5282 C 462.034 4.60167 -2.01373 0
M  V30 5283 C 464.028 5.03345 -3.91053 0
M  V30 5284 C 461.715 5.18243 -3.23832 0
M  V30 5285 C 462.713 5.39773 -4.1849 0
M  V30 5286 O 462.401 5.96626 -5.38788 0
M  V30 5287 H 462.133 0.657341 -0.157732 0
M  V30 5288 H 464.687 1.74407 -1.08496 0
M  V30 5289 H 462.917 3.85011 0.361031 0
M  V30 5290 H 464.606 4.059 -0.0020365 0
M  V30 5291 H 465.372 4.1661 -2.48316 0
M  V30 5292 H 461.251 4.42726 -1.28508 0
M  V30 5293 H 464.795 5.20065 -4.64949 0
M  V30 5294 H 460.692 5.46044 -3.44248 0
M  V30 5295 H 461.46 6.15082 -5.40015 0
M  V30 5296 N 464.123 0.554532 1.47522 0
M  V30 5297 C 465.4 -0.0360704 1.95567 0
M  V30 5298 C 465.78 -1.48828 1.49711 0
M  V30 5299 O 465.128 -2.16366 0.734717 0
M  V30 5300 C 465.338 0.106631 3.48837 0
M  V30 5301 C 466.686 -0.0400899 4.24581 0
M  V30 5302 O 467.71 0.0340453 3.56184 0
M  V30 5303 O 466.569 -0.199111 5.46137 0
M  V30 5304 H 463.663 -0.0656294 0.824392 0
M  V30 5305 H 466.209 0.620867 1.57935 0
M  V30 5306 H 464.981 1.11727 3.7501 0
M  V30 5307 H 464.604 -0.58804 3.93227 0
M  V30 5308 N 465.601 -1.54893 0.290851 0
M  V30 5309 C 466.826 -2.04804 -0.32712 0
M  V30 5310 C 467.251 -1.16721 -1.47506 0
M  V30 5311 O 466.609 -0.169107 -1.8051 0
M  V30 5312 C 466.657 -3.52268 -0.770689 0
M  V30 5313 O 465.761 -3.67236 -1.87647 0
M  V30 5314 H 465.102 -0.660789 -0.0652227 0
M  V30 5315 H 467.632 -2.00036 0.429739 0
M  V30 5316 H 467.642 -3.9393 -1.06223 0
M  V30 5317 H 466.317 -4.15843 0.069096 0
M  V30 5318 H 464.894 -3.37479 -1.58626 0
M  V30 5319 N 467.08 -0.0183926 -1.57589 0
M  V30 5320 C 468.329 0.66185 -1.90532 0
M  V30 5321 C 468.642 1.73904 -0.895366 0
M  V30 5322 O 469.848 2.47518 -1.11566 0
M  V30 5323 C 468.304 1.22844 -3.38286 0
M  V30 5324 C 467.912 0.185103 -4.47617 0
M  V30 5325 C 469.656 1.88581 -3.80312 0
M  V30 5326 C 467.563 0.762723 -5.86461 0
M  V30 5327 H 466.493 0.250972 -0.711006 0
M  V30 5328 H 469.144 -0.0819435 -1.83317 0
M  V30 5329 H 467.526 2.0235 -3.40398 0
M  V30 5330 H 468.7 -0.58671 -4.5705 0
M  V30 5331 H 467.015 -0.372889 -4.14727 0
M  V30 5332 H 469.612 2.32735 -4.81392 0
M  V30 5333 H 469.955 2.72408 -3.14801 0
M  V30 5334 H 470.488 1.15782 -3.80578 0
M  V30 5335 H 467.227 -0.0371713 -6.55489 0
M  V30 5336 H 466.747 1.50327 -5.80656 0
M  V30 5337 H 468.426 1.25576 -6.34697 0
M  V30 5338 N 468.558 1.5553 0.254621 0
M  V30 5339 C 469.805 1.77 0.983736 0
M  V30 5340 C 470.133 0.58133 1.85609 0
M  V30 5341 O 469.388 -0.435621 1.9079 0
M  V30 5342 C 469.687 3.03891 1.88109 0
M  V30 5343 C 469.353 4.35597 1.16472 0
M  V30 5344 C 468.015 4.7139 0.966714 0
M  V30 5345 C 470.367 5.1705 0.656387 0
M  V30 5346 C 467.695 5.86176 0.247942 0
M  V30 5347 C 470.047 6.32581 -0.0488807 0
M  V30 5348 C 468.711 6.67 -0.258438 0
M  V30 5349 H 467.981 0.647688 0.359974 0
M  V30 5350 H 470.628 1.89802 0.254463 0
M  V30 5351 H 468.933 2.86068 2.67717 0
M  V30 5352 H 470.63 3.17701 2.44677 0
M  V30 5353 H 467.22 4.07475 1.32899 0
M  V30 5354 H 471.404 4.8986 0.796933 0
M  V30 5355 H 466.66 6.11354 0.075035 0
M  V30 5356 H 470.834 6.94942 -0.450444 0
M  V30 5357 H 468.461 7.55793 -0.817358 0
M  V30 5358 N 470.036 -0.519951 1.48776 0
M  V30 5359 C 471.266 -1.29783 1.60748 0
M  V30 5360 C 471.674 -1.87253 0.27072 0
M  V30 5361 O 471.017 -1.67628 -0.751438 0
M  V30 5362 C 471.079 -2.47984 2.60277 0
M  V30 5363 C 470.743 -2.11526 4.051 0
M  V30 5364 C 471.74 -1.66608 4.92481 0
M  V30 5365 C 469.425 -2.21742 4.50706 0
M  V30 5366 C 471.419 -1.32384 6.23501 0
M  V30 5367 C 469.106 -1.87129 5.81744 0
M  V30 5368 C 470.104 -1.42523 6.67964 0
M  V30 5369 O 469.792 -1.0837 7.96562 0
M  V30 5370 H 469.524 -0.400562 0.544542 0
M  V30 5371 H 472.078 -0.632879 1.95407 0
M  V30 5372 H 470.308 -3.17493 2.2076 0
M  V30 5373 H 471.997 -3.10036 2.61978 0
M  V30 5374 H 472.763 -1.58178 4.58481 0
M  V30 5375 H 468.642 -2.55415 3.83776 0
M  V30 5376 H 472.186 -0.974949 6.90754 0
M  V30 5377 H 468.083 -1.95204 6.15277 0
M  V30 5378 H 468.851 -1.21681 8.09405 0
M  V30 5379 N 471.514 -1.37532 -0.769588 0
M  V30 5380 C 472.761 -1.3286 -1.52822 0
M  V30 5381 C 473.089 0.0862597 -1.94309 0
M  V30 5382 O 472.344 1.05995 -1.6451 0
M  V30 5383 C 472.643 -2.21558 -2.8044 0
M  V30 5384 C 472.309 -3.69796 -2.57996 0
M  V30 5385 C 470.971 -4.10194 -2.51583 0
M  V30 5386 C 473.323 -4.63699 -2.37976 0
M  V30 5387 C 470.651 -5.42608 -2.23144 0
M  V30 5388 C 473.003 -5.96353 -2.1106 0
M  V30 5389 C 471.667 -6.35853 -2.03093 0
M  V30 5390 H 470.937 -0.486168 -0.559215 0
M  V30 5391 H 473.584 -1.69757 -0.886277 0
M  V30 5392 H 471.889 -1.77663 -3.49204 0
M  V30 5393 H 473.586 -2.15256 -3.38328 0
M  V30 5394 H 470.176 -3.37759 -2.63851 0
M  V30 5395 H 474.36 -4.33346 -2.41919 0
M  V30 5396 H 469.616 -5.72173 -2.15472 0
M  V30 5397 H 473.79 -6.68667 -1.94568 0
M  V30 5398 H 471.417 -7.38382 -1.8082 0
M  V30 5399 N 472.992 0.995999 -1.22138 0
M  V30 5400 C 473.939 2.08551 -0.988687 0
M  V30 5401 C 474.909 1.65864 0.0885021 0
M  V30 5402 O 476.094 1.90704 -0.0604589 0
M  V30 5403 C 473.234 3.40374 -0.569191 0
M  V30 5404 C 472.347 3.96421 -1.71681 0
M  V30 5405 C 471.482 5.1639 -1.2456 0
M  V30 5406 C 470.521 5.64567 -2.36497 0
M  V30 5407 N 469.658 6.75777 -1.90445 0
M  V30 5408 H 474.498 2.2779 -1.92135 0
M  V30 5409 H 472.035 1.1168 -0.957388 0
M  V30 5410 H 473.993 4.16068 -0.307166 0
M  V30 5411 H 472.623 3.21145 0.326462 0
M  V30 5412 H 471.675 3.17628 -2.09324 0
M  V30 5413 H 472.987 4.2816 -2.55891 0
M  V30 5414 H 472.141 5.99362 -0.940774 0
M  V30 5415 H 470.88 4.86266 -0.373662 0
M  V30 5416 H 469.885 4.80185 -2.67772 0
M  V30 5417 H 471.11 5.96716 -3.24202 0
M  V30 5418 H 469.056 6.47443 -1.05609 0
M  V30 5419 H 468.973 7.06818 -2.68223 0
M  V30 5420 H 470.241 7.62262 -1.63022 0
M  V30 5421 N 474.47 1.03057 1.19235 0
M  V30 5422 C 475.417 0.612832 2.22515 0
M  V30 5423 C 476.387 -0.374224 1.61829 0
M  V30 5424 O 477.572 -0.270501 1.88873 0
M  V30 5425 C 474.712 -0.028475 3.45088 0
M  V30 5426 C 473.825 1.00483 4.20151 0
M  V30 5427 C 472.96 0.333102 5.30155 0
M  V30 5428 C 471.999 1.3522 5.96977 0
M  V30 5429 N 471.136 0.70616 6.9854 0
M  V30 5430 H 475.976 1.49812 2.57605 0
M  V30 5431 H 473.513 0.749658 1.26564 0
M  V30 5432 H 475.471 -0.417548 4.15105 0
M  V30 5433 H 474.101 -0.877334 3.10649 0
M  V30 5434 H 473.153 1.51194 3.49062 0
M  V30 5435 H 474.465 1.77929 4.65986 0
M  V30 5436 H 473.619 -0.110725 6.06599 0
M  V30 5437 H 472.358 -0.473547 4.85396 0
M  V30 5438 H 471.363 1.80627 5.19282 0
M  V30 5439 H 472.588 2.16037 6.4382 0
M  V30 5440 H 470.534 -0.0803667 6.55951 0
M  V30 5441 H 470.451 1.41848 7.42573 0
M  V30 5442 H 471.719 0.286391 7.78974 0
M  V30 5443 N 475.948 -1.35272 0.808662 0
M  V30 5444 C 476.896 -2.31663 0.208606 0
M  V30 5445 C 477.89 -1.56731 -0.642778 0
M  V30 5446 O 479.096 -1.71843 -0.53571 0
M  V30 5447 H 475.471 -0.750421 0.0486993 0
M  V30 5448 H 477.442 -2.79814 1.03666 0
M  V30 5449 C 476.191 -3.42008 -0.626573 0
M  V30 5450 H 475.514 -3.99795 0.0192103 0
M  V30 5451 H 476.954 -4.11727 -1.01278 0
M  V30 5452 C 475.413 -2.85226 -1.79298 0
M  V30 5453 O 475.943 -2.78945 -2.89055 0
M  V30 5454 N 474.149 -2.42245 -1.60516 0
M  V30 5455 H 473.696 -2.47554 -0.712375 0
M  V30 5456 H 473.654 -2.04603 -2.38715 0
M  V30 5457 N 477.426 -0.562348 -1.47226 0
M  V30 5458 C 478.374 0.195476 -2.31777 0
M  V30 5459 C 479.368 0.90433 -1.43242 0
M  V30 5460 O 480.574 0.825031 -1.59979 0
M  V30 5461 H 476.949 0.0819095 -0.747526 0
M  V30 5462 H 478.92 -0.536753 -2.93533 0
M  V30 5463 C 477.669 1.20902 -3.26003 0
M  V30 5464 H 476.992 0.672997 -3.94095 0
M  V30 5465 H 478.432 1.71006 -3.87986 0
M  V30 5466 C 476.891 2.25955 -2.49891 0
M  V30 5467 O 477.421 3.32969 -2.2471 0
M  V30 5468 N 475.627 2.00019 -2.1081 0
M  V30 5469 H 475.174 1.13006 -2.31489 0
M  V30 5470 H 475.132 2.70523 -1.60201 0
M  V30 5471 N 478.904 1.54736 -0.299062 0
M  V30 5472 C 480.132 2.04512 0.313447 0
M  V30 5473 C 480.547 1.17643 1.47667 0
M  V30 5474 O 479.904 0.20164 1.81383 0
M  V30 5475 C 479.955 3.53171 0.771542 0
M  V30 5476 O 479.676 4.36736 -0.345379 0
M  V30 5477 C 481.177 4.18936 1.4494 0
M  V30 5478 H 478.397 0.667507 0.0683784 0
M  V30 5479 H 480.941 1.99752 -0.438129 0
M  V30 5480 H 479.096 3.58298 1.47314 0
M  V30 5481 H 479.51 5.24499 0.0109219 0
M  V30 5482 H 480.984 5.24482 1.72111 0
M  V30 5483 H 481.461 3.68554 2.38883 0
M  V30 5484 H 482.067 4.17879 0.791028 0
M  V30 5485 N 480.382 0.0267497 1.57577 0
M  V30 5486 C 481.312 -0.954308 2.13108 0
M  V30 5487 C 482.293 -1.34088 1.04663 0
M  V30 5488 O 483.478 -1.41992 1.32484 0
M  V30 5489 C 480.608 -2.23744 2.65624 0
M  V30 5490 C 479.562 -1.99168 3.78835 0
M  V30 5491 C 478.888 -3.33726 4.17769 0
M  V30 5492 C 480.188 -1.33277 5.0501 0
M  V30 5493 H 481.882 -0.491848 2.95332 0
M  V30 5494 H 479.428 -0.23514 1.42067 0
M  V30 5495 H 481.381 -2.92754 3.03106 0
M  V30 5496 H 480.105 -2.72151 1.80558 0
M  V30 5497 H 478.764 -1.32577 3.41788 0
M  V30 5498 H 478.412 -3.79888 3.29688 0
M  V30 5499 H 478.112 -3.18089 4.94058 0
M  V30 5500 H 479.636 -4.04008 4.57832 0
M  V30 5501 H 481.05 -1.92283 5.40093 0
M  V30 5502 H 479.447 -1.28045 5.8628 0
M  V30 5503 H 480.517 -0.305411 4.83937 0
M  V30 5504 N 481.861 -1.55662 -0.24637 0
M  V30 5505 C 482.791 -1.93377 -1.30873 0
M  V30 5506 C 483.772 -0.798773 -1.50179 0
M  V30 5507 O 484.957 -1.0591 -1.62778 0
M  V30 5508 C 482.087 -2.22893 -2.66338 0
M  V30 5509 C 481.041 -3.38649 -2.61727 0
M  V30 5510 C 480.367 -3.53708 -4.00992 0
M  V30 5511 C 481.667 -4.74323 -2.18666 0
M  V30 5512 H 483.361 -2.82363 -0.995552 0
M  V30 5513 H 480.907 -1.35854 -0.477464 0
M  V30 5514 H 482.86 -2.47866 -3.40794 0
M  V30 5515 H 481.584 -1.30733 -2.99293 0
M  V30 5516 H 480.243 -3.13685 -1.89729 0
M  V30 5517 H 479.891 -2.58967 -4.31214 0
M  V30 5518 H 479.591 -4.31551 -3.98795 0
M  V30 5519 H 481.115 -3.81003 -4.77147 0
M  V30 5520 H 482.529 -4.98665 -2.82854 0
M  V30 5521 H 480.926 -5.55273 -2.27579 0
M  V30 5522 H 481.996 -4.71349 -1.13834 0
M  V30 5523 N 483.339 0.512053 -1.4905 0
M  V30 5524 C 484.286 1.6148 -1.64902 0
M  V30 5525 C 485.256 1.58687 -0.490673 0
M  V30 5526 O 486.441 1.76842 -0.71636 0
M  V30 5527 C 483.581 2.99676 -1.71139 0
M  V30 5528 C 482.694 3.12568 -2.98203 0
M  V30 5529 C 481.829 4.4143 -2.95487 0
M  V30 5530 C 480.868 4.47916 -4.17179 0
M  V30 5531 N 480.005 5.68191 -4.12437 0
M  V30 5532 H 484.845 1.47271 -2.59066 0
M  V30 5533 H 482.382 0.716713 -1.28459 0
M  V30 5534 H 484.34 3.79761 -1.72736 0
M  V30 5535 H 482.97 3.12614 -0.804508 0
M  V30 5536 H 482.022 2.25618 -3.06269 0
M  V30 5537 H 483.334 3.1322 -3.88194 0
M  V30 5538 H 482.488 5.29825 -2.95585 0
M  V30 5539 H 481.227 4.43326 -2.03256 0
M  V30 5540 H 480.232 3.57925 -4.17337 0
M  V30 5541 H 481.457 4.47744 -5.1059 0
M  V30 5542 H 479.403 5.7095 -3.23036 0
M  V30 5543 H 479.32 5.70413 -4.96151 0
M  V30 5544 H 480.588 6.58823 -4.16621 0
M  V30 5545 N 484.817 1.37938 0.762283 0
M  V30 5546 C 485.765 1.34569 1.89721 0
M  V30 5547 C 486.759 0.232929 1.67791 0
M  V30 5548 O 487.965 0.401485 1.75465 0
M  V30 5549 H 484.34 0.419594 0.624055 0
M  V30 5550 H 486.311 2.30357 1.8968 0
M  V30 5551 C 485.06 1.17898 3.27101 0
M  V30 5552 H 484.383 2.02781 3.44558 0
M  V30 5553 H 485.823 1.19593 4.06784 0
M  V30 5554 C 484.282 -0.114728 3.36705 0
M  V30 5555 O 484.812 -1.0949 3.8649 0
M  V30 5556 N 483.018 -0.16863 2.9011 0
M  V30 5557 H 482.565 0.62967 2.49786 0
M  V30 5558 H 482.523 -1.03383 2.96916 0
M  V30 5559 N 486.295 -0.989507 1.22664 0
M  V30 5560 C 487.243 -2.10148 0.997035 0
M  V30 5561 C 488.237 -1.6929 -0.0609783 0
M  V30 5562 O 489.443 -1.79766 0.0917523 0
M  V30 5563 H 485.818 -0.687256 0.305259 0
M  V30 5564 H 487.789 -2.26685 1.94053 0
M  V30 5565 C 486.538 -3.4257 0.595085 0
M  V30 5566 H 485.861 -3.74453 1.40089 0
M  V30 5567 H 487.301 -4.21344 0.473869 0
M  V30 5568 C 485.76 -3.29638 -0.695725 0
M  V30 5569 O 486.29 -3.61709 -1.74727 0
M  V30 5570 N 484.496 -2.82814 -0.668173 0
M  V30 5571 H 484.043 -2.56914 0.18787 0
M  V30 5572 H 484.001 -2.74544 -1.5321 0
M  V30 5573 N 487.773 -1.03688 -1.18687 0
M  V30 5574 C 489.022 -0.733235 -1.879 0
M  V30 5575 C 489.335 0.741745 -1.8099 0
M  V30 5576 O 490.541 1.15875 -2.4553 0
M  V30 5577 C 488.997 -1.26127 -3.37076 0
M  V30 5578 C 488.605 -2.76461 -3.52524 0
M  V30 5579 C 490.349 -1.03398 -4.11715 0
M  V30 5580 C 488.256 -3.22642 -4.95637 0
M  V30 5581 H 487.186 -0.270584 -0.703776 0
M  V30 5582 H 489.837 -1.25222 -1.34133 0
M  V30 5583 H 488.219 -0.670165 -3.90288 0
M  V30 5584 H 489.393 -3.41296 -3.09602 0
M  V30 5585 H 487.708 -2.97559 -2.91286 0
M  V30 5586 H 490.305 -1.3542 -5.17267 0
M  V30 5587 H 490.648 0.0289246 -4.1629 0
M  V30 5588 H 491.181 -1.5895 -3.64664 0
M  V30 5589 H 487.92 -4.28296 -4.96228 0
M  V30 5590 H 487.44 -2.62539 -5.39289 0
M  V30 5591 H 489.119 -3.16444 -5.64333 0
M  V30 5592 N 489.251 1.34841 -0.815825 0
M  V30 5593 C 490.5 1.97755 -0.396976 0
M  V30 5594 C 490.813 1.65422 1.04379 0
M  V30 5595 O 492.019 2.21771 1.5662 0
M  V30 5596 C 490.475 3.53818 -0.658869 0
M  V30 5597 C 490.083 3.95051 -2.11278 0
M  V30 5598 C 491.827 4.23397 -0.305834 0
M  V30 5599 C 489.734 5.43997 -2.31994 0
M  V30 5600 H 488.664 0.739985 -0.1447 0
M  V30 5601 H 491.315 1.53781 -1.00118 0
M  V30 5602 H 489.697 3.95997 0.0154112 0
M  V30 5603 H 490.871 3.63998 -2.82564 0
M  V30 5604 H 489.186 3.38388 -2.42657 0
M  V30 5605 H 491.783 5.32899 -0.43854 0
M  V30 5606 H 492.126 4.09508 0.748952 0
M  V30 5607 H 492.659 3.8667 -0.934403 0
M  V30 5608 H 489.398 5.62865 -3.35952 0
M  V30 5609 H 488.918 5.76589 -1.65244 0
M  V30 5610 H 490.597 6.10584 -2.14001 0
M  V30 5611 N 490.729 0.570148 1.46925 0
M  V30 5612 C 491.677 -0.183181 2.31878 0
M  V30 5613 C 492.671 -0.896721 1.43719 0
M  V30 5614 O 493.877 -0.816536 1.60414 0
M  V30 5615 H 490.252 -0.077944 0.74795 0
M  V30 5616 H 492.223 0.552312 2.93244 0
M  V30 5617 C 490.972 -1.19172 3.2664 0
M  V30 5618 H 490.295 -0.652088 3.94446 0
M  V30 5619 H 491.735 -1.68946 3.88887 0
M  V30 5620 C 490.194 -2.24627 2.51086 0
M  V30 5621 O 490.724 -3.31773 2.26472 0
M  V30 5622 N 488.93 -1.98898 2.11867 0
M  V30 5623 H 488.477 -1.11777 2.32086 0
M  V30 5624 H 488.435 -2.6967 1.61634 0
M  V30 5625 N 492.207 -1.54576 0.307264 0
M  V30 5626 C 493.137 -2.26708 -0.55907 0
M  V30 5627 C 494.118 -1.26893 -1.1328 0
M  V30 5628 O 495.303 -1.55677 -1.16097 0
M  V30 5629 C 492.433 -3.01259 -1.72801 0
M  V30 5630 C 491.387 -4.08275 -1.28435 0
M  V30 5631 C 490.713 -4.70575 -2.53895 0
M  V30 5632 C 492.013 -5.2068 -0.411038 0
M  V30 5633 H 493.707 -2.9937 0.042576 0
M  V30 5634 H 491.253 -1.43983 0.0219173 0
M  V30 5635 H 493.206 -3.50444 -2.34023 0
M  V30 5636 H 491.93 -2.26187 -2.356 0
M  V30 5637 H 490.589 -3.59949 -0.695161 0
M  V30 5638 H 490.237 -3.92136 -3.15021 0
M  V30 5639 H 489.937 -5.42854 -2.24908 0
M  V30 5640 H 491.461 -5.22527 -3.15908 0
M  V30 5641 H 492.875 -5.65721 -0.929097 0
M  V30 5642 H 491.272 -5.99716 -0.214664 0
M  V30 5643 H 492.342 -4.81629 0.562287 0
M  V30 5644 N 493.685 -0.035106 -1.57561 0
M  V30 5645 C 494.632 0.94474 -2.10578 0
M  V30 5646 C 495.602 1.3192 -1.00927 0
M  V30 5647 O 496.787 1.41147 -1.28382 0
M  V30 5648 C 493.927 2.21982 -2.64231 0
M  V30 5649 C 493.04 1.90128 -3.87911 0
M  V30 5650 C 492.175 3.11975 -4.29936 0
M  V30 5651 C 491.214 2.75968 -5.46359 0
M  V30 5652 N 490.351 3.90459 -5.83512 0
M  V30 5653 H 495.191 0.485717 -2.94015 0
M  V30 5654 H 492.728 0.228143 -1.4532 0
M  V30 5655 H 494.686 2.96572 -2.9343 0
M  V30 5656 H 493.316 2.6549 -1.83616 0
M  V30 5657 H 492.368 1.05755 -3.65404 0
M  V30 5658 H 493.68 1.59613 -4.72573 0
M  V30 5659 H 492.834 3.9488 -4.60603 0
M  V30 5660 H 491.573 3.45657 -3.44053 0
M  V30 5661 H 490.578 1.91478 -5.1538 0
M  V30 5662 H 491.803 2.43497 -6.33945 0
M  V30 5663 H 489.749 4.23971 -5.00584 0
M  V30 5664 H 489.666 3.63588 -6.62827 0
M  V30 5665 H 490.934 4.7405 -6.18787 0
M  V30 5666 N 495.163 1.55791 0.238111 0
M  V30 5667 C 496.111 1.91885 1.31464 0
M  V30 5668 C 497.105 0.798929 1.49377 0
M  V30 5669 O 498.311 0.983626 1.50747 0
M  V30 5670 H 494.686 0.609551 0.440399 0
M  V30 5671 H 496.657 2.81747 0.982925 0
M  V30 5672 C 495.406 2.23763 2.6613 0
M  V30 5673 H 494.729 3.09444 2.53149 0
M  V30 5674 H 496.169 2.52915 3.40309 0
M  V30 5675 C 494.628 1.05699 3.1989 0
M  V30 5676 O 495.158 0.309524 4.00506 0
M  V30 5677 N 493.364 0.845251 2.78036 0
M  V30 5678 H 492.911 1.4548 2.12588 0
M  V30 5679 H 492.869 0.0569973 3.14348 0
M  V30 5680 N 496.642 -0.504142 1.49319 0
M  V30 5681 C 498.053 -1.08572 1.51885 0
M  V30 5682 C 498.404 -1.93842 0.303255 0
M  V30 5683 O 497.529 -2.0828 -0.58724 0
M  V30 5684 C 498.124 -1.97574 2.75227 0
M  V30 5685 C 496.683 -2.509 2.80581 0
M  V30 5686 C 495.83 -1.28447 2.45757 0
M  V30 5687 H 498.781 -0.288194 1.56061 0
M  V30 5688 H 498.802 -2.82219 2.55211 0
M  V30 5689 H 498.314 -1.35486 3.63683 0
M  V30 5690 H 496.415 -3.16636 1.96398 0
M  V30 5691 H 496.528 -2.88268 3.82673 0
M  V30 5692 H 494.892 -1.60868 1.97468 0
M  V30 5693 H 495.675 -0.68072 3.36483 0
M  V30 5694 N 498.12 -1.38341 -0.754957 0
M  V30 5695 C 499.03 -1.3769 -1.89944 0
M  V30 5696 C 500.046 -0.274194 -1.71826 0
M  V30 5697 O 501.222 -0.512391 -1.94773 0
M  V30 5698 C 498.287 -1.19938 -3.25293 0
M  V30 5699 C 497.348 -2.40001 -3.55946 0
M  V30 5700 C 496.581 -2.23087 -4.84838 0
M  V30 5701 O 496.804 -1.22386 -5.57116 0
M  V30 5702 O 495.738 -3.11646 -5.14937 0
M  V30 5703 H 499.564 -2.3412 -1.93446 0
M  V30 5704 H 497.149 -1.19246 -0.900044 0
M  V30 5705 H 499.031 -1.12093 -4.06218 0
M  V30 5706 H 497.706 -0.265919 -3.22606 0
M  V30 5707 H 496.613 -2.53421 -2.75188 0
M  V30 5708 H 497.946 -3.31973 -3.63394 0
M  V30 5709 N 499.598 0.982988 -1.23187 0
M  V30 5710 C 500.508 2.10907 -1.02739 0
M  V30 5711 C 501.524 1.73979 0.0273188 0
M  V30 5712 O 502.7 2.00702 -0.16757 0
M  V30 5713 C 499.765 3.41142 -0.618304 0
M  V30 5714 C 498.826 3.92112 -1.74777 0
M  V30 5715 C 498.059 5.16131 -1.3581 0
M  V30 5716 O 498.282 5.6989 -0.241201 0
M  V30 5717 O 497.216 5.61103 -2.17824 0
M  V30 5718 H 501.042 2.31046 -1.97108 0
M  V30 5719 H 498.627 1.09284 -1.01869 0
M  V30 5720 H 500.509 4.19488 -0.400982 0
M  V30 5721 H 499.184 3.2234 0.296421 0
M  V30 5722 H 498.091 3.14895 -2.0197 0
M  V30 5723 H 499.424 4.15364 -2.64071 0
M  V30 5724 N 501.076 1.04316 1.18135 0
M  V30 5725 C 502.306 0.767003 1.91835 0
M  V30 5726 C 502.714 -0.68002 1.76557 0
M  V30 5727 O 502.057 -1.47548 1.09432 0
M  V30 5728 C 502.119 1.05674 3.43618 0
M  V30 5729 C 501.783 2.49818 3.82675 0
M  V30 5730 C 502.78 3.48003 3.86251 0
M  V30 5731 C 500.465 2.84596 4.13897 0
M  V30 5732 C 502.459 4.79016 4.20503 0
M  V30 5733 C 500.146 4.15813 4.4782 0
M  V30 5734 C 501.144 5.12834 4.51099 0
M  V30 5735 O 500.832 6.41699 4.84229 0
M  V30 5736 H 500.564 0.278948 0.615763 0
M  V30 5737 H 503.118 1.3946 1.50798 0
M  V30 5738 H 501.348 0.372029 3.84906 0
M  V30 5739 H 503.037 0.767994 3.98568 0
M  V30 5740 H 503.803 3.22475 3.62264 0
M  V30 5741 H 499.682 2.09748 4.1052 0
M  V30 5742 H 503.226 5.54739 4.22978 0
M  V30 5743 H 499.123 4.41109 4.71268 0
M  V30 5744 H 499.891 6.46387 5.02121 0
M  V30 5745 N 502.554 -1.34406 0.822964 0
M  V30 5746 C 503.502 -2.31428 0.233165 0
M  V30 5747 C 504.496 -1.57404 -0.626118 0
M  V30 5748 O 505.702 -1.72402 -0.517453 0
M  V30 5749 H 502.077 -0.749863 0.0566557 0
M  V30 5750 H 504.048 -2.78699 1.06628 0
M  V30 5751 C 502.797 -3.42653 -0.590264 0
M  V30 5752 H 502.12 -3.99753 0.0616129 0
M  V30 5753 H 503.56 -4.12778 -0.969054 0
M  V30 5754 C 502.019 -2.87112 -1.76262 0
M  V30 5755 O 502.549 -2.81995 -2.8608 0
M  V30 5756 N 500.755 -2.43934 -1.57938 0
M  V30 5757 H 500.302 -2.48296 -0.686078 0
M  V30 5758 H 500.26 -2.07123 -2.36532 0
M  V30 5759 N 504.032 -0.577932 -1.46621 0
M  V30 5760 C 505.309 0.00495287 -1.95599 0
M  V30 5761 C 505.689 1.46428 -1.5206 0
M  V30 5762 O 505.037 2.1517 -0.769046 0
M  V30 5763 C 505.247 -0.162114 -3.48623 0
M  V30 5764 C 506.595 -0.0274623 -4.24591 0
M  V30 5765 O 507.619 -0.0907067 -3.56084 0
M  V30 5766 O 506.478 0.1122 -5.46385 0
M  V30 5767 H 503.572 0.0525057 -0.825332 0
M  V30 5768 H 506.118 -0.645914 -1.56927 0
M  V30 5769 H 504.89 -1.17679 -3.73185 0
M  V30 5770 H 504.513 0.525407 -3.94113 0
M  V30 5771 N 505.51 1.54411 -0.315457 0
M  V30 5772 C 506.44 2.27002 0.547039 0
M  V30 5773 C 507.421 1.27492 1.12605 0
M  V30 5774 O 508.606 1.5629 1.15269 0
M  V30 5775 C 505.736 3.02171 1.71201 0
M  V30 5776 C 504.69 4.0895 1.26268 0
M  V30 5777 C 504.016 4.71915 2.51396 0
M  V30 5778 C 505.316 5.20891 0.383419 0
M  V30 5779 H 507.01 2.99343 -0.0584517 0
M  V30 5780 H 504.556 1.4397 -0.0295527 0
M  V30 5781 H 506.509 3.51681 2.32161 0
M  V30 5782 H 505.233 2.27433 2.34397 0
M  V30 5783 H 503.892 3.60312 0.676062 0
M  V30 5784 H 503.54 3.93801 3.12937 0
M  V30 5785 H 503.24 5.44039 2.22026 0
M  V30 5786 H 504.764 5.24195 3.13133 0
M  V30 5787 H 506.178 5.66206 0.899082 0
M  V30 5788 H 504.575 5.99821 0.182857 0
M  V30 5789 H 505.645 4.81324 -0.587821 0
M  V30 5790 N 506.988 0.0434614 1.5754 0
M  V30 5791 C 508.235 -0.632035 1.92384 0
M  V30 5792 C 508.563 -1.71304 0.921157 0
M  V30 5793 O 507.818 -1.95583 -0.067744 0
M  V30 5794 C 508.117 -1.2738 3.3393 0
M  V30 5795 C 507.783 -0.321757 4.49751 0
M  V30 5796 C 506.445 -0.0597611 4.81163 0
M  V30 5797 C 508.797 0.331158 5.20147 0
M  V30 5798 C 506.125 0.862715 5.80322 0
M  V30 5799 C 508.477 1.24178 6.20292 0
M  V30 5800 C 507.141 1.51252 6.50138 0
M  V30 5801 H 506.411 -0.231278 0.703983 0
M  V30 5802 H 509.058 0.108294 1.91194 0
M  V30 5803 H 507.363 -2.08921 3.3145 0
M  V30 5804 H 509.06 -1.80326 3.58167 0
M  V30 5805 H 505.65 -0.53614 4.25233 0
M  V30 5806 H 509.834 0.141826 4.96097 0
M  V30 5807 H 505.09 1.08003 6.01785 0
M  V30 5808 H 509.264 1.75381 6.73954 0
M  V30 5809 H 506.891 2.22897 7.26788 0
M  V30 5810 N 508.466 -1.55915 -0.229846 0
M  V30 5811 C 509.398 -1.88209 -1.30805 0
M  V30 5812 C 510.411 -0.769672 -1.43457 0
M  V30 5813 O 511.6 -1.04792 -1.44502 0
M  V30 5814 C 508.7 -2.06829 -2.68468 0
M  V30 5815 C 507.873 -3.37798 -2.77869 0
M  V30 5816 C 506.932 -3.45952 -3.96489 0
M  V30 5817 O 505.958 -4.19043 -3.85216 0
M  V30 5818 N 507.16 -2.76488 -5.10426 0
M  V30 5819 H 509.925 -2.81286 -1.03431 0
M  V30 5820 H 507.486 -1.5636 -0.41991 0
M  V30 5821 H 509.478 -2.09608 -3.46189 0
M  V30 5822 H 508.048 -1.20416 -2.88477 0
M  V30 5823 H 507.268 -3.4719 -1.86689 0
M  V30 5824 H 508.556 -4.24091 -2.81113 0
M  V30 5825 H 507.954 -2.16868 -5.2248 0
M  V30 5826 H 506.511 -2.84938 -5.8622 0
M  V30 5827 N 509.944 0.496216 -1.49584 0
M  V30 5828 C 511.193 1.24668 -1.58558 0
M  V30 5829 C 511.506 1.9359 -0.279703 0
M  V30 5830 O 512.712 2.70365 -0.248048 0
M  V30 5831 C 511.168 2.26388 -2.79779 0
M  V30 5832 C 510.776 1.63384 -4.17145 0
M  V30 5833 C 512.52 3.02233 -2.98086 0
M  V30 5834 C 510.427 2.63243 -5.29582 0
M  V30 5835 H 509.357 0.468995 -0.590389 0
M  V30 5836 H 512.008 0.519985 -1.75978 0
M  V30 5837 H 510.39 3.02241 -2.55863 0
M  V30 5838 H 511.564 0.93491 -4.51216 0
M  V30 5839 H 509.879 0.999121 -4.04236 0
M  V30 5840 H 512.476 3.76919 -3.79257 0
M  V30 5841 H 512.819 3.60132 -2.08831 0
M  V30 5842 H 513.352 2.33495 -3.22063 0
M  V30 5843 H 510.091 2.10119 -6.20911 0
M  V30 5844 H 509.611 3.31363 -4.99959 0
M  V30 5845 H 511.29 3.25575 -5.59115 0
M  V30 5846 N 511.423 1.38739 0.74761 0
M  V30 5847 C 512.672 1.3459 1.50228 0
M  V30 5848 C 512.985 -0.0595592 1.95509 0
M  V30 5849 O 514.191 -0.22361 2.70578 0
M  V30 5850 C 512.647 2.36377 2.71393 0
M  V30 5851 C 512.255 3.82573 2.33113 0
M  V30 5852 C 513.999 2.41281 3.49262 0
M  V30 5853 C 511.906 4.76032 3.50924 0
M  V30 5854 H 510.836 0.500312 0.564096 0
M  V30 5855 H 513.487 1.64324 0.8167 0
M  V30 5856 H 511.869 1.99694 3.41962 0
M  V30 5857 H 513.043 4.28227 1.70171 0
M  V30 5858 H 511.358 3.80844 1.68365 0
M  V30 5859 H 513.955 3.08301 4.36869 0
M  V30 5860 H 514.298 1.43353 3.9084 0
M  V30 5861 H 514.831 2.76793 2.85711 0
M  V30 5862 H 511.57 5.75177 3.14408 0
M  V30 5863 H 511.09 4.35066 4.12889 0
M  V30 5864 H 512.769 4.94331 4.17427 0
M  V30 5865 N 512.901 -0.976442 1.23707 0
M  V30 5866 C 513.849 -2.09078 1.01927 0
M  V30 5867 C 514.843 -1.69345 -0.0430193 0
M  V30 5868 O 516.049 -1.79659 0.110814 0
M  V30 5869 H 512.424 -0.68398 0.312531 0
M  V30 5870 H 514.395 -2.24614 1.96447 0
M  V30 5871 C 513.144 -3.41919 0.631385 0
M  V30 5872 H 512.467 -3.72946 1.44053 0
M  V30 5873 H 513.907 -4.20817 0.518532 0
M  V30 5874 C 512.366 -3.30357 -0.660723 0
M  V30 5875 O 512.896 -3.63542 -1.70881 0
M  V30 5876 N 511.102 -2.83507 -0.638139 0
M  V30 5877 H 510.649 -2.567 0.215108 0
M  V30 5878 H 510.607 -2.76153 -1.50289 0
M  V30 5879 N 514.379 -1.04941 -1.1758 0
M  V30 5880 C 515.628 -0.753124 -1.87112 0
M  V30 5881 C 515.941 0.722507 -1.81767 0
M  V30 5882 O 517.147 1.13265 -2.46746 0
M  V30 5883 C 515.603 -1.29695 -3.35719 0
M  V30 5884 C 515.211 -2.80184 -3.49572 0
M  V30 5885 C 516.955 -1.07759 -4.10595 0
M  V30 5886 C 514.862 -3.2788 -4.92187 0
M  V30 5887 H 513.792 -0.278034 -0.700866 0
M  V30 5888 H 516.443 -1.26637 -1.32798 0
M  V30 5889 H 514.825 -0.711522 -3.89555 0
M  V30 5890 H 515.999 -3.44561 -3.05965 0
M  V30 5891 H 514.314 -3.00632 -2.88113 0
M  V30 5892 H 516.911 -1.40899 -5.15802 0
M  V30 5893 H 517.254 -0.0152302 -4.16297 0
M  V30 5894 H 517.787 -1.62809 -3.62957 0
M  V30 5895 H 514.526 -4.33535 -4.91658 0
M  V30 5896 H 514.046 -2.68245 -5.36475 0
M  V30 5897 H 515.725 -3.22412 -5.60945 0
M  V30 5898 N 515.857 1.33968 -0.830081 0
M  V30 5899 C 516.787 2.31911 -0.271911 0
M  V30 5900 C 517.768 1.58571 0.61556 0
M  V30 5901 O 518.953 1.86514 0.540946 0
M  V30 5902 C 516.083 3.42737 0.561146 0
M  V30 5903 C 515.037 4.27383 -0.229789 0
M  V30 5904 C 514.363 5.29742 0.726463 0
M  V30 5905 C 515.663 5.02 -1.44197 0
M  V30 5906 H 517.357 2.78844 -1.09025 0
M  V30 5907 H 514.903 1.34061 -0.52571 0
M  V30 5908 H 516.856 4.10276 0.961867 0
M  V30 5909 H 515.58 2.94471 1.41261 0
M  V30 5910 H 514.239 3.61456 -0.611964 0
M  V30 5911 H 513.887 4.77736 1.57408 0
M  V30 5912 H 513.587 5.87255 0.20142 0
M  V30 5913 H 515.111 6.00149 1.12489 0
M  V30 5914 H 516.525 5.62355 -1.11488 0
M  V30 5915 H 514.922 5.69122 -1.90317 0
M  V30 5916 H 515.992 4.31281 -2.2164 0
M  V30 5917 N 517.335 0.585699 1.46312 0
M  V30 5918 C 518.581 0.0725284 2.0267 0
M  V30 5919 C 518.914 -1.28523 1.45586 0
M  V30 5920 O 518.189 -1.84283 0.622101 0
M  V30 5921 C 518.472 0.0099788 3.60099 0
M  V30 5922 C 518.325 1.39685 4.27561 0
M  V30 5923 C 519.644 -0.689117 4.34671 0
M  V30 5924 H 516.763 0.0278307 0.736474 0
M  V30 5925 H 519.405 0.753472 1.74421 0
M  V30 5926 H 517.555 -0.56992 3.84297 0
M  V30 5927 H 519.227 2.02215 4.14617 0
M  V30 5928 H 517.47 1.96374 3.86807 0
M  V30 5929 H 518.141 1.30553 5.36339 0
M  V30 5930 H 520.617 -0.196446 4.15636 0
M  V30 5931 H 519.493 -0.701921 5.44393 0
M  V30 5932 H 519.754 -1.75101 4.05946 0
M  V30 5933 N 518.813 -1.54241 0.323641 0
M  V30 5934 C 520.043 -2.04687 -0.280464 0
M  V30 5935 C 520.451 -1.19939 -1.46326 0
M  V30 5936 O 519.794 -0.222872 -1.82343 0
M  V30 5937 C 519.856 -3.50978 -0.778123 0
M  V30 5938 C 519.52 -4.56127 0.282371 0
M  V30 5939 C 520.517 -5.07726 1.11847 0
M  V30 5940 C 518.202 -5.00451 0.430582 0
M  V30 5941 C 520.196 -6.02212 2.08851 0
M  V30 5942 C 517.883 -5.94752 1.40404 0
M  V30 5943 C 518.881 -6.45519 2.23147 0
M  V30 5944 O 518.569 -7.37968 3.1884 0
M  V30 5945 H 518.301 -0.673192 -0.0615473 0
M  V30 5946 H 520.855 -1.99999 0.467921 0
M  V30 5947 H 519.085 -3.53064 -1.57742 0
M  V30 5948 H 520.774 -3.84499 -1.30058 0
M  V30 5949 H 521.54 -4.74261 1.01496 0
M  V30 5950 H 517.419 -4.6055 -0.203569 0
M  V30 5951 H 520.963 -6.41761 2.73474 0
M  V30 5952 H 516.86 -6.27633 1.5082 0
M  V30 5953 H 517.628 -7.55841 3.14079 0
M  V30 5954 N 520.291 -0.0518155 -1.57515 0
M  V30 5955 C 521.521 0.63048 -1.96745 0
M  V30 5956 C 521.929 1.64875 -0.928054 0
M  V30 5957 O 521.272 1.83449 0.0960678 0
M  V30 5958 C 521.334 1.37381 -3.32215 0
M  V30 5959 C 520.998 0.511298 -4.54131 0
M  V30 5960 C 521.995 -0.222884 -5.19422 0
M  V30 5961 C 519.68 0.442035 -5.00351 0
M  V30 5962 C 521.674 -1.01476 -6.2927 0
M  V30 5963 C 519.361 -0.35353 -6.10077 0
M  V30 5964 C 520.359 -1.08062 -6.74397 0
M  V30 5965 O 520.047 -1.8631 -7.82013 0
M  V30 5966 H 519.779 0.177126 -0.652382 0
M  V30 5967 H 522.333 -0.114726 -2.05079 0
M  V30 5968 H 520.563 2.16466 -3.20436 0
M  V30 5969 H 522.252 1.9464 -3.56188 0
M  V30 5970 H 523.018 -0.178846 -4.8467 0
M  V30 5971 H 518.897 0.997562 -4.50077 0
M  V30 5972 H 522.441 -1.58279 -6.79407 0
M  V30 5973 H 518.338 -0.399205 -6.44264 0
M  V30 5974 H 519.106 -1.78528 -7.98793 0
M  V30 5975 N 521.769 1.56035 0.221574 0
M  V30 5976 C 522.717 1.93269 1.29421 0
M  V30 5977 C 523.711 0.814727 1.48521 0
M  V30 5978 O 524.917 0.999559 1.49696 0
M  V30 5979 H 521.292 0.614188 0.43391 0
M  V30 5980 H 523.263 2.82773 0.952987 0
M  V30 5981 C 522.012 2.26573 2.63742 0
M  V30 5982 H 521.335 3.12112 2.49853 0
M  V30 5983 H 522.775 2.5651 3.37607 0
M  V30 5984 C 521.234 1.09086 3.1875 0
M  V30 5985 O 521.764 0.351985 4.00155 0
M  V30 5986 N 519.97 0.874693 2.77124 0
M  V30 5987 H 519.517 1.47726 2.11033 0
M  V30 5988 H 519.475 0.0903349 3.1427 0
M  V30 5989 N 523.247 -0.488276 1.49845 0
M  V30 5990 C 524.496 -1.23826 1.59217 0
M  V30 5991 C 524.809 -1.93439 0.289966 0
M  V30 5992 O 526.015 -2.70229 0.262382 0
M  V30 5993 C 524.471 -2.24902 2.80976 0
M  V30 5994 C 524.079 -1.6117 4.18005 0
M  V30 5995 C 525.823 -3.00648 2.99685 0
M  V30 5996 C 523.73 -2.60431 5.3097 0
M  V30 5997 H 522.66 -0.465858 0.592868 0
M  V30 5998 H 525.311 -0.510645 1.76252 0
M  V30 5999 H 523.693 -3.0088 2.57463 0
M  V30 6000 H 524.867 -0.910968 4.51706 0
M  V30 6001 H 523.182 -0.97767 4.0476 0
M  V30 6002 H 525.779 -3.74903 3.81251 0
M  V30 6003 H 526.122 -3.5902 2.10738 0
M  V30 6004 H 526.655 -2.31784 3.23297 0
M  V30 6005 H 523.394 -2.06823 6.22017 0
M  V30 6006 H 522.914 -3.28707 5.01709 0
M  V30 6007 H 524.593 -3.22606 5.60834 0
M  V30 6008 N 524.725 -1.39134 -0.740242 0
M  V30 6009 C 525.675 -1.33928 -1.84519 0
M  V30 6010 C 526.659 -0.221097 -1.59374 0
M  V30 6011 O 527.851 -0.458195 -1.70967 0
M  V30 6012 C 524.98 -1.17991 -3.22387 0
M  V30 6013 C 524.066 -2.34488 -3.53378 0
M  V30 6014 N 524.457 -3.59954 -3.5534 0
M  V30 6015 C 522.755 -2.27331 -3.83714 0
M  V30 6016 C 523.456 -4.36962 -3.83978 0
M  V30 6017 N 522.432 -3.66482 -4.01487 0
M  V30 6018 H 526.234 -2.28907 -1.84333 0
M  V30 6019 H 523.748 -1.32555 -0.938237 0
M  V30 6020 H 525.745 -1.12345 -4.01478 0
M  V30 6021 H 524.405 -0.23957 -3.23815 0
M  V30 6022 H 525.416 -3.93448 -3.36778 0
M  V30 6023 H 522.093 -1.41531 -3.92779 0
M  V30 6024 H 523.483 -5.45692 -3.92008 0
M  V30 6025 N 526.204 0.969867 -1.24223 0
M  V30 6026 C 527.152 2.08535 -1.03034 0
M  V30 6027 C 528.146 1.69366 0.0340379 0
M  V30 6028 O 529.352 1.79597 -0.12034 0
M  V30 6029 H 525.727 0.682313 -0.316154 0
M  V30 6030 H 527.698 2.23569 -1.97635 0
M  V30 6031 C 526.447 3.4158 -0.649509 0
M  V30 6032 H 525.77 3.72177 -1.46028 0
M  V30 6033 H 527.21 4.20536 -0.540841 0
M  V30 6034 C 525.669 3.30703 0.643194 0
M  V30 6035 O 526.199 3.64443 1.68951 0
M  V30 6036 N 524.405 2.83841 0.623095 0
M  V30 6037 H 523.952 2.56583 -0.228719 0
M  V30 6038 H 523.91 2.76946 1.48823 0
M  V30 6039 N 527.682 1.05563 1.17022 0
M  V30 6040 C 528.912 0.787307 1.91011 0
M  V30 6041 C 529.32 -0.661256 1.77268 0
M  V30 6042 O 528.663 -1.46379 1.10991 0
M  V30 6043 C 528.725 1.09313 3.42478 0
M  V30 6044 C 528.389 2.53863 3.80004 0
M  V30 6045 C 529.386 3.52081 3.82538 0
M  V30 6046 C 527.071 2.88969 4.10855 0
M  V30 6047 C 529.065 4.83449 4.15399 0
M  V30 6048 C 526.752 4.2054 4.43384 0
M  V30 6049 C 527.75 5.17589 4.45635 0
M  V30 6050 O 527.438 6.46799 4.77395 0
M  V30 6051 H 527.17 0.285463 0.61277 0
M  V30 6052 H 529.724 1.41051 1.49311 0
M  V30 6053 H 527.954 0.412833 3.8449 0
M  V30 6054 H 529.643 0.810224 3.97731 0
M  V30 6055 H 530.409 3.26299 3.58823 0
M  V30 6056 H 526.288 2.1409 4.08272 0
M  V30 6057 H 529.832 5.59194 4.1707 0
M  V30 6058 H 525.729 4.46083 4.66563 0
M  V30 6059 H 526.497 6.51677 4.95237 0
M  V30 6060 N 529.16 -1.33526 0.837174 0
M  V30 6061 C 530.107 -2.29248 0.267169 0
M  V30 6062 C 531.077 -1.54252 -0.616071 0
M  V30 6063 O 532.262 -1.82559 -0.554699 0
M  V30 6064 C 529.402 -3.40638 -0.553152 0
M  V30 6065 C 528.515 -4.30548 0.353921 0
M  V30 6066 C 527.65 -5.29051 -0.477339 0
M  V30 6067 C 526.689 -6.106 0.42823 0
M  V30 6068 N 525.826 -7.01152 -0.364801 0
M  V30 6069 H 530.666 -2.77398 1.08877 0
M  V30 6070 H 528.203 -1.36496 0.54838 0
M  V30 6071 H 530.161 -4.03921 -1.04422 0
M  V30 6072 H 528.791 -2.93685 -1.33973 0
M  V30 6073 H 527.843 -3.68001 0.963289 0
M  V30 6074 H 529.155 -4.87631 1.04964 0
M  V30 6075 H 528.309 -5.97853 -1.0323 0
M  V30 6076 H 527.048 -4.72541 -1.2065 0
M  V30 6077 H 526.053 -5.40718 0.995219 0
M  V30 6078 H 527.278 -6.69193 1.15573 0
M  V30 6079 H 525.224 -6.47092 -1.07738 0
M  V30 6080 H 525.141 -7.5551 0.272238 0
M  V30 6081 H 526.409 -7.74263 -0.902054 0
M  V30 6082 N 530.638 -0.59345 -1.46 0
M  V30 6083 C 531.887 -0.0808084 -2.01538 0
M  V30 6084 C 532.2 1.29112 -1.46934 0
M  V30 6085 O 533.406 1.8957 -1.94359 0
M  V30 6086 C 531.862 -0.0938311 -3.59778 0
M  V30 6087 C 531.47 -1.46474 -4.23379 0
M  V30 6088 C 533.214 0.364306 -4.22934 0
M  V30 6089 C 531.121 -1.4349 -5.73729 0
M  V30 6090 H 530.051 -0.0264407 -0.753536 0
M  V30 6091 H 532.702 -0.746689 -1.67621 0
M  V30 6092 H 531.084 0.638427 -3.9082 0
M  V30 6093 H 532.258 -2.21758 -4.03931 0
M  V30 6094 H 530.573 -1.86379 -3.7236 0
M  V30 6095 H 533.17 0.405584 -5.3316 0
M  V30 6096 H 533.513 1.38409 -3.92618 0
M  V30 6097 H 534.046 -0.31423 -3.96557 0
M  V30 6098 H 530.785 -2.43184 -6.08722 0
M  V30 6099 H 530.305 -0.724431 -5.95409 0
M  V30 6100 H 531.984 -1.15243 -6.36654 0
M  V30 6101 N 532.116 1.54067 -0.331816 0
M  V30 6102 C 533.362 2.01012 0.268667 0
M  V30 6103 C 533.695 1.2195 1.51136 0
M  V30 6104 O 532.97 0.303972 1.9211 0
M  V30 6105 C 533.253 3.55158 0.59456 0
M  V30 6106 C 533.106 4.4494 -0.659409 0
M  V30 6107 C 534.425 4.16939 1.4089 0
M  V30 6108 H 531.544 0.730698 0.0961756 0
M  V30 6109 H 534.186 1.84593 -0.450031 0
M  V30 6110 H 532.336 3.6928 1.20685 0
M  V30 6111 H 534.008 4.42675 -1.29756 0
M  V30 6112 H 532.251 4.1428 -1.28665 0
M  V30 6113 H 532.922 5.50643 -0.386804 0
M  V30 6114 H 535.398 4.06443 0.891272 0
M  V30 6115 H 534.274 5.24889 1.60569 0
M  V30 6116 H 534.535 3.70798 2.40752 0
M  V30 6117 N 533.594 0.0601682 1.57485 0
M  V30 6118 C 534.524 -0.90889 2.15085 0
M  V30 6119 C 535.505 -1.31838 1.07484 0
M  V30 6120 O 536.69 -1.3915 1.35466 0
M  V30 6121 C 533.82 -2.18059 2.7031 0
M  V30 6122 C 532.774 -1.91088 3.82974 0
M  V30 6123 C 532.1 -3.24789 4.24754 0
M  V30 6124 C 533.4 -1.22535 5.07723 0
M  V30 6125 H 535.094 -0.429093 2.96309 0
M  V30 6126 H 532.64 -0.204952 1.42534 0
M  V30 6127 H 534.593 -2.86258 3.09248 0
M  V30 6128 H 533.317 -2.6826 1.8629 0
M  V30 6129 H 531.976 -1.25297 3.44523 0
M  V30 6130 H 531.624 -3.72809 3.37672 0
M  V30 6131 H 531.324 -3.07538 5.00694 0
M  V30 6132 H 532.848 -3.94205 4.66299 0
M  V30 6133 H 534.262 -1.80783 5.4405 0
M  V30 6134 H 532.659 -1.1558 5.88864 0
M  V30 6135 H 533.729 -0.202692 4.84476 0
M  V30 6136 N 535.072 -1.5615 -0.213296 0
M  V30 6137 C 535.982 -1.96265 -1.28519 0
M  V30 6138 C 536.998 -0.86765 -1.50824 0
M  V30 6139 O 538.174 -1.17191 -1.63793 0
M  V30 6140 C 535.239 -2.27836 -2.61327 0
M  V30 6141 C 534.3 -3.50949 -2.47252 0
M  V30 6142 C 533.533 -3.81004 -3.73727 0
M  V30 6143 O 533.756 -3.12612 -4.77106 0
M  V30 6144 O 532.69 -4.74477 -3.70344 0
M  V30 6145 H 536.516 -2.87631 -0.974795 0
M  V30 6146 H 534.101 -1.43467 -0.416832 0
M  V30 6147 H 535.983 -2.49299 -3.39747 0
M  V30 6148 H 534.658 -1.39643 -2.9203 0
M  V30 6149 H 533.565 -3.34754 -1.67004 0
M  V30 6150 H 534.898 -4.39551 -2.21486 0
M  V30 6151 N 536.55 0.480323 -1.50102 0
M  V30 6152 C 537.961 1.06142 -1.53593 0
M  V30 6153 C 538.312 1.93335 -0.334055 0
M  V30 6154 O 537.437 2.09188 0.55403 0
M  V30 6155 C 538.032 1.9317 -2.78336 0
M  V30 6156 C 536.591 2.46405 -2.84538 0
M  V30 6157 C 535.738 1.24521 -2.4777 0
M  V30 6158 H 538.689 0.26333 -1.565 0
M  V30 6159 H 538.71 2.78123 -2.59669 0
M  V30 6160 H 538.222 1.29683 -3.65792 0
M  V30 6161 H 536.323 3.13472 -2.01411 0
M  V30 6162 H 536.436 2.82143 -3.87211 0
M  V30 6163 H 534.8 1.57706 -2.00003 0
M  V30 6164 H 535.583 0.627102 -3.37524 0
M  V30 6165 N 538.028 1.39524 0.732853 0
M  V30 6166 C 538.975 1.38416 1.84688 0
M  V30 6167 C 539.945 0.243539 1.64305 0
M  V30 6168 O 541.13 0.438979 1.85681 0
M  V30 6169 C 538.27 1.23555 3.22224 0
M  V30 6170 C 537.383 2.47179 3.54298 0
M  V30 6171 C 536.518 2.2489 4.81246 0
M  V30 6172 C 535.557 3.44178 5.0617 0
M  V30 6173 N 534.694 3.21192 6.24323 0
M  V30 6174 H 539.534 2.33645 1.84971 0
M  V30 6175 H 537.071 1.16059 0.903804 0
M  V30 6176 H 539.029 1.12949 4.0162 0
M  V30 6177 H 537.659 0.31954 3.21215 0
M  V30 6178 H 536.711 2.68379 2.69587 0
M  V30 6179 H 538.023 3.36022 3.68633 0
M  V30 6180 H 537.177 2.11538 5.68627 0
M  V30 6181 H 535.916 1.33443 4.69089 0
M  V30 6182 H 534.921 3.58025 4.17251 0
M  V30 6183 H 536.146 4.36528 5.20212 0
M  V30 6184 H 534.092 2.32413 6.1345 0
M  V30 6185 H 534.009 4.03594 6.39256 0
M  V30 6186 H 535.277 3.1154 7.14537 0
M  V30 6187 N 539.506 -0.963266 1.24736 0
M  V30 6188 C 540.416 -2.09246 1.06082 0
M  V30 6189 C 541.432 -1.74 0.000363101 0
M  V30 6190 O 542.608 -2.0041 0.199479 0
M  V30 6191 C 539.673 -3.40115 0.672498 0
M  V30 6192 C 538.734 -3.89282 1.80993 0
M  V30 6193 C 537.967 -5.13905 1.44004 0
M  V30 6194 O 538.19 -5.69434 0.331835 0
M  V30 6195 O 537.124 -5.57566 2.26723 0
M  V30 6196 H 540.95 -2.27881 2.00759 0
M  V30 6197 H 538.535 -1.07649 1.03595 0
M  V30 6198 H 540.417 -4.18797 0.467668 0
M  V30 6199 H 539.092 -3.22771 -0.245102 0
M  V30 6200 H 537.999 -3.11642 2.06955 0
M  V30 6201 H 539.332 -4.1111 2.70646 0
M  V30 6202 N 540.985 -1.06182 -1.16461 0
M  V30 6203 C 541.932 -0.671613 -2.20812 0
M  V30 6204 C 542.902 0.331186 -1.62765 0
M  V30 6205 O 544.087 0.22033 -1.89524 0
M  V30 6206 C 541.227 -0.063029 -3.45042 0
M  V30 6207 C 540.34 -1.11587 -4.1734 0
M  V30 6208 C 539.475 -0.473546 -5.29085 0
M  V30 6209 C 538.514 -1.51 -5.93182 0
M  V30 6210 N 537.651 -0.891118 -6.96422 0
M  V30 6211 H 542.491 -1.56589 -2.53542 0
M  V30 6212 H 540.028 -0.782951 -1.24532 0
M  V30 6213 H 541.986 0.307344 -4.16066 0
M  V30 6214 H 540.616 0.794663 -3.12866 0
M  V30 6215 H 539.668 -1.60396 -3.44931 0
M  V30 6216 H 540.98 -1.90221 -4.61104 0
M  V30 6217 H 540.134 -0.0501432 -6.06679 0
M  V30 6218 H 538.873 0.344687 -4.8648 0
M  V30 6219 H 537.878 -1.94331 -5.14311 0
M  V30 6220 H 539.103 -2.33031 -6.37866 0
M  V30 6221 H 537.049 -0.0935753 -6.55933 0
M  V30 6222 H 536.966 -1.61486 -7.38551 0
M  V30 6223 H 538.234 -0.492822 -7.77941 0
M  V30 6224 N 542.463 1.3308 -0.844243 0
M  V30 6225 C 543.373 2.32876 -0.283922 0
M  V30 6226 C 544.389 1.63589 0.592846 0
M  V30 6227 O 545.565 1.95205 0.495693 0
M  V30 6228 C 542.63 3.42667 0.527283 0
M  V30 6229 C 541.691 4.27664 -0.374394 0
M  V30 6230 C 540.924 5.32212 0.39819 0
M  V30 6231 O 541.147 5.46635 1.62932 0
M  V30 6232 O 540.081 6.01458 -0.2306 0
M  V30 6233 H 543.907 2.82671 -1.11045 0
M  V30 6234 H 541.492 1.36518 -0.606903 0
M  V30 6235 H 543.374 4.09652 0.988078 0
M  V30 6236 H 542.049 2.95079 1.33078 0
M  V30 6237 H 540.956 3.63526 -0.883144 0
M  V30 6238 H 542.289 4.78749 -1.1428 0
M  V30 6239 N 543.941 0.601185 1.45683 0
M  V30 6240 C 544.889 -0.133955 2.32214 0
M  V30 6241 C 545.883 -0.866034 1.45589 0
M  V30 6242 O 547.089 -0.782326 1.6211 0
M  V30 6243 H 543.464 -0.0620613 0.749435 0
M  V30 6244 H 545.435 0.614389 2.92007 0
M  V30 6245 C 544.184 -1.12216 3.29094 0
M  V30 6246 H 543.507 -0.568273 3.95741 0
M  V30 6247 H 544.947 -1.60659 3.92383 0
M  V30 6248 C 543.406 -2.19251 2.55794 0
M  V30 6249 O 543.936 -3.26894 2.33459 0
M  V30 6250 N 542.142 -1.9436 2.16039 0
M  V30 6251 H 541.689 -1.06829 2.34404 0
M  V30 6252 H 541.647 -2.66181 1.67318 0
M  V30 6253 N 545.419 -1.53889 0.339982 0
M  V30 6254 C 546.349 -2.27843 -0.510856 0
M  V30 6255 C 547.33 -1.29267 -1.10563 0
M  V30 6256 O 548.515 -1.58104 -1.12768 0
M  V30 6257 C 545.645 -3.04857 -1.66372 0
M  V30 6258 C 544.599 -4.10907 -1.19746 0
M  V30 6259 C 543.925 -4.75855 -2.43857 0
M  V30 6260 C 545.225 -5.21435 -0.300501 0
M  V30 6261 H 546.919 -2.99212 0.106067 0
M  V30 6262 H 544.465 -1.43904 0.0524533 0
M  V30 6263 H 546.418 -3.5533 -2.26537 0
M  V30 6264 H 545.142 -2.31133 -2.30749 0
M  V30 6265 H 543.801 -3.61342 -0.618654 0
M  V30 6266 H 543.449 -3.9873 -3.06633 0
M  V30 6267 H 543.149 -5.47502 -2.13343 0
M  V30 6268 H 544.673 -5.2911 -3.04754 0
M  V30 6269 H 546.087 -5.67565 -0.80889 0
M  V30 6270 H 544.484 -6.00036 -0.0874076 0
M  V30 6271 H 545.554 -4.80328 0.664321 0
M  V30 6272 N 546.897 -0.0685191 -1.57451 0
M  V30 6273 C 547.845 0.917577 -2.13736 0
M  V30 6274 C 548.839 1.31049 -1.07344 0
M  V30 6275 O 550.045 1.28811 -1.25728 0
M  V30 6276 H 546.42 0.313835 -0.683382 0
M  V30 6277 H 548.391 0.417903 -2.95459 0
M  V30 6278 C 547.14 2.17686 -2.71123 0
M  V30 6279 H 546.463 1.88336 -3.52661 0
M  V30 6280 H 547.903 2.84803 -3.14107 0
M  V30 6281 C 546.362 2.9332 -1.65726 0
M  V30 6282 O 546.892 3.86901 -1.08031 0
M  V30 6283 N 545.098 2.56367 -1.36837 0
M  V30 6284 H 544.645 1.80341 -1.83943 0
M  V30 6285 H 544.603 3.07276 -0.665501 0
M  V30 6286 N 548.375 1.56261 0.205012 0
M  V30 6287 C 549.624 1.79236 0.925058 0
M  V30 6288 C 549.937 0.640011 1.84833 0
M  V30 6289 O 551.143 0.753809 2.60826 0
M  V30 6290 C 549.599 3.17475 1.69522 0
M  V30 6291 C 549.207 4.40482 0.817269 0
M  V30 6292 C 550.951 3.49766 2.4055 0
M  V30 6293 C 548.858 5.69744 1.58573 0
M  V30 6294 H 547.788 0.668287 0.349153 0
M  V30 6295 H 550.439 1.82629 0.178544 0
M  V30 6296 H 548.821 3.08304 2.48526 0
M  V30 6297 H 549.995 4.60752 0.0665988 0
M  V30 6298 H 548.31 4.15827 0.218316 0
M  V30 6299 H 550.907 4.43573 2.98575 0
M  V30 6300 H 551.25 2.73041 3.14252 0
M  V30 6301 H 551.783 3.60341 1.68522 0
M  V30 6302 H 548.522 6.49407 0.891679 0
M  V30 6303 H 548.042 5.53509 2.31059 0
M  V30 6304 H 549.721 6.1051 2.14212 0
M  V30 6305 N 549.853 -0.472356 1.50355 0
M  V30 6306 C 551.13 -1.23356 1.51798 0
M  V30 6307 C 551.51 -2.09469 0.26193 0
M  V30 6308 O 550.858 -2.15677 -0.754691 0
M  V30 6309 C 551.068 -2.06568 2.81302 0
M  V30 6310 C 552.416 -2.648 3.31913 0
M  V30 6311 O 553.44 -2.16812 2.82614 0
M  V30 6312 O 552.299 -3.52231 4.17846 0
M  V30 6313 H 549.393 -0.559707 0.608816 0
M  V30 6314 H 551.939 -0.48428 1.62643 0
M  V30 6315 H 550.711 -1.43103 3.64194 0
M  V30 6316 H 550.334 -2.88633 2.73454 0
M  V30 6317 N 551.331 -1.39911 -0.725443 0
M  V30 6318 C 552.578 -1.37654 -1.48518 0
M  V30 6319 C 552.906 0.0243982 -1.94485 0
M  V30 6320 O 552.161 1.00708 -1.67799 0
M  V30 6321 C 552.46 -2.30368 -2.7325 0
M  V30 6322 C 552.126 -3.77817 -2.461 0
M  V30 6323 C 550.788 -4.17991 -2.38405 0
M  V30 6324 C 553.14 -4.71036 -2.23103 0
M  V30 6325 C 550.468 -5.49433 -2.05768 0
M  V30 6326 C 552.82 -6.02766 -1.9198 0
M  V30 6327 C 551.484 -6.41993 -1.82761 0
M  V30 6328 H 550.754 -0.503713 -0.543465 0
M  V30 6329 H 553.401 -1.7249 -0.831822 0
M  V30 6330 H 551.706 -1.88683 -3.43375 0
M  V30 6331 H 553.403 -2.2591 -3.31309 0
M  V30 6332 H 549.993 -3.45982 -2.52972 0
M  V30 6333 H 554.177 -4.40823 -2.2801 0
M  V30 6334 H 549.433 -5.78738 -1.9716 0
M  V30 6335 H 553.607 -6.74519 -1.73197 0
M  V30 6336 H 551.234 -7.43761 -1.57237 0
M  V30 6337 N 552.809 0.956637 -1.25245 0
M  V30 6338 C 554.058 1.69537 -1.0927 0
M  V30 6339 C 554.371 1.92136 0.366503 0
M  V30 6340 O 555.577 2.63687 0.64665 0
M  V30 6341 C 554.033 3.05211 -1.9072 0
M  V30 6342 C 553.641 2.90416 -3.41119 0
M  V30 6343 C 555.385 3.82882 -1.83308 0
M  V30 6344 C 553.292 4.21468 -4.14872 0
M  V30 6345 H 552.222 0.635804 -0.405302 0
M  V30 6346 H 554.873 1.06513 -1.49423 0
M  V30 6347 H 553.255 3.69128 -1.43389 0
M  V30 6348 H 554.429 2.35444 -3.9611 0
M  V30 6349 H 552.744 2.26203 -3.49602 0
M  V30 6350 H 555.341 4.79944 -2.35706 0
M  V30 6351 H 555.684 4.0853 -0.800572 0
M  V30 6352 H 556.217 3.25711 -2.28379 0
M  V30 6353 H 552.956 4.01009 -5.18529 0
M  V30 6354 H 552.476 4.76213 -3.64665 0
M  V30 6355 H 554.155 4.90022 -4.22478 0
M  V30 6356 N 554.287 1.06798 1.15896 0
M  V30 6357 C 555.534 0.787767 1.86549 0
M  V30 6358 C 555.862 -0.685959 1.82002 0
M  V30 6359 O 555.117 -1.5188 1.23414 0
M  V30 6360 C 555.416 1.23414 3.35416 0
M  V30 6361 C 555.082 2.71285 3.6016 0
M  V30 6362 C 553.744 3.11676 3.66622 0
M  V30 6363 C 556.096 3.6676 3.7032 0
M  V30 6364 C 553.424 4.4637 3.8075 0
M  V30 6365 C 555.776 5.01209 3.8597 0
M  V30 6366 C 554.44 5.41229 3.90676 0
M  V30 6367 H 553.71 0.288264 0.682631 0
M  V30 6368 H 556.357 1.338 1.37003 0
M  V30 6369 H 554.662 0.60319 3.87129 0
M  V30 6370 H 556.359 0.994298 3.88477 0
M  V30 6371 H 552.949 2.39015 3.55767 0
M  V30 6372 H 557.133 3.36685 3.64633 0
M  V30 6373 H 552.389 4.76855 3.82648 0
M  V30 6374 H 556.563 5.75067 3.92773 0
M  V30 6375 H 554.19 6.45602 4.01375 0
M  V30 6376 N 555.766 -1.3263 0.851289 0
M  V30 6377 C 556.713 -2.28952 0.291469 0
M  V30 6378 C 557.683 -1.54897 -0.599676 0
M  V30 6379 O 558.868 -1.83137 -0.535305 0
M  V30 6380 C 556.008 -3.41206 -0.516992 0
M  V30 6381 C 555.121 -4.30148 0.399566 0
M  V30 6382 C 554.256 -5.29527 -0.4212 0
M  V30 6383 C 553.295 -6.10112 0.492969 0
M  V30 6384 N 552.432 -7.01499 -0.290414 0
M  V30 6385 H 557.272 -2.76228 1.11813 0
M  V30 6386 H 554.809 -1.35907 0.562826 0
M  V30 6387 H 556.767 -4.05005 -1.00132 0
M  V30 6388 H 555.397 -2.9509 -1.30851 0
M  V30 6389 H 554.449 -3.66959 1.00227 0
M  V30 6390 H 555.761 -4.8649 1.1013 0
M  V30 6391 H 554.915 -5.98914 -0.968832 0
M  V30 6392 H 553.654 -4.73794 -1.15632 0
M  V30 6393 H 552.659 -5.39632 1.05251 0
M  V30 6394 H 553.884 -6.6793 1.22664 0
M  V30 6395 H 551.83 -6.48199 -1.00868 0
M  V30 6396 H 551.747 -7.55178 0.352354 0
M  V30 6397 H 553.015 -7.75176 -0.819882 0
M  V30 6398 N 557.244 -0.608902 -1.45362 0
M  V30 6399 C 558.491 -0.104607 -2.0223 0
M  V30 6400 C 558.819 1.26534 -1.47714 0
M  V30 6401 O 558.074 1.84855 -0.642435 0
M  V30 6402 C 558.373 -0.0167296 -3.57396 0
M  V30 6403 C 558.039 -1.32251 -4.31069 0
M  V30 6404 C 556.701 -1.68019 -4.50914 0
M  V30 6405 C 559.053 -2.18542 -4.73169 0
M  V30 6406 C 556.381 -2.89828 -5.10114 0
M  V30 6407 C 558.733 -3.39602 -5.33717 0
M  V30 6408 C 557.397 -3.7562 -5.51784 0
M  V30 6409 H 556.667 -0.0382785 -0.740011 0
M  V30 6410 H 559.314 -0.790782 -1.7441 0
M  V30 6411 H 557.619 0.752715 -3.84502 0
M  V30 6412 H 559.316 0.389634 -3.99103 0
M  V30 6413 H 555.906 -1.03411 -4.15938 0
M  V30 6414 H 560.09 -1.92208 -4.5757 0
M  V30 6415 H 555.346 -3.17839 -5.22291 0
M  V30 6416 H 559.52 -4.06716 -5.65292 0
M  V30 6417 H 557.147 -4.70093 -5.97425 0
M  V30 6418 N 558.722 1.53707 -0.348139 0
M  V30 6419 C 559.971 2.0017 0.247992 0
M  V30 6420 C 560.284 1.23983 1.51286 0
M  V30 6421 O 561.49 1.60946 2.18652 0
M  V30 6422 C 559.946 3.56515 0.492459 0
M  V30 6423 C 559.554 4.41562 -0.756777 0
M  V30 6424 C 561.298 4.11381 1.0472 0
M  V30 6425 C 559.205 5.89426 -0.482856 0
M  V30 6426 H 558.135 0.747806 0.0964452 0
M  V30 6427 H 560.786 1.77532 -0.464179 0
M  V30 6428 H 559.168 3.75236 1.26545 0
M  V30 6429 H 560.342 4.34615 -1.53122 0
M  V30 6430 H 558.657 3.97711 -1.23348 0
M  V30 6431 H 561.254 5.19468 1.26717 0
M  V30 6432 H 561.597 3.64885 2.00411 0
M  V30 6433 H 562.13 3.96389 0.334801 0
M  V30 6434 H 558.869 6.40164 -1.40962 0
M  V30 6435 H 558.389 5.99264 0.253416 0
M  V30 6436 H 560.068 6.4692 -0.101816 0
M  V30 6437 N 560.2 0.0768682 1.57412 0
M  V30 6438 C 561.147 -0.888577 2.13009 0
M  V30 6439 C 562.117 -1.29198 1.0439 0
M  V30 6440 O 563.302 -1.37694 1.3208 0
M  V30 6441 C 560.442 -2.14899 2.70023 0
M  V30 6442 C 559.555 -1.79777 3.92816 0
M  V30 6443 C 558.69 -3.00467 4.38056 0
M  V30 6444 C 557.729 -2.61385 5.53484 0
M  V30 6445 N 556.866 -3.74851 5.93659 0
M  V30 6446 H 561.706 -0.407593 2.95199 0
M  V30 6447 H 559.243 -0.189534 1.45874 0
M  V30 6448 H 561.201 -2.88688 3.0119 0
M  V30 6449 H 559.831 -2.60529 1.9059 0
M  V30 6450 H 558.883 -0.960301 3.68079 0
M  V30 6451 H 560.195 -1.47027 4.76639 0
M  V30 6452 H 559.349 -3.82529 4.7091 0
M  V30 6453 H 558.088 -3.36413 3.53097 0
M  V30 6454 H 557.093 -1.77746 5.20275 0
M  V30 6455 H 558.318 -2.26603 6.40178 0
M  V30 6456 H 556.264 -4.1055 5.11649 0
M  V30 6457 H 556.181 -3.45887 6.72234 0
M  V30 6458 H 557.449 -4.57477 6.31138 0
M  V30 6459 N 561.678 -1.56367 -0.196722 0
M  V30 6460 C 562.626 -1.95304 -1.2633 0
M  V30 6461 C 563.62 -0.838252 -1.47206 0
M  V30 6462 O 564.826 -1.02325 -1.48087 0
M  V30 6463 H 561.201 -0.621013 -0.424083 0
M  V30 6464 H 563.172 -2.84254 -0.907879 0
M  V30 6465 C 561.921 -2.3074 -2.60104 0
M  V30 6466 H 561.244 -3.16047 -2.44856 0
M  V30 6467 H 562.684 -2.61849 -3.33484 0
M  V30 6468 C 561.143 -1.14143 -3.16975 0
M  V30 6469 O 561.673 -0.415602 -3.99544 0
M  V30 6470 N 559.879 -0.91867 -2.75697 0
M  V30 6471 H 559.426 -1.51065 -2.08656 0
M  V30 6472 H 559.384 -0.140321 -3.14087 0
M  V30 6473 N 563.156 0.464375 -1.50603 0
M  V30 6474 C 564.405 1.21277 -1.61167 0
M  V30 6475 C 564.718 1.92953 -0.320704 0
M  V30 6476 O 565.924 2.69778 -0.30534 0
M  V30 6477 C 564.38 2.20403 -2.84518 0
M  V30 6478 C 563.988 1.54499 -4.20516 0
M  V30 6479 C 565.732 2.95843 -3.0443 0
M  V30 6480 C 563.639 2.51951 -5.35047 0
M  V30 6481 H 562.569 0.456367 -0.600204 0
M  V30 6482 H 565.22 0.48254 -1.77042 0
M  V30 6483 H 563.602 2.96746 -2.62217 0
M  V30 6484 H 564.776 0.83899 -4.53098 0
M  V30 6485 H 563.091 0.913152 -4.06264 0
M  V30 6486 H 565.688 3.6879 -3.87167 0
M  V30 6487 H 566.031 3.55622 -2.16423 0
M  V30 6488 H 566.564 2.26611 -3.26944 0
M  V30 6489 H 563.303 1.96901 -6.25228 0
M  V30 6490 H 562.823 3.20683 -5.06875 0
M  V30 6491 H 564.502 3.13643 -5.65895 0
M  V30 6492 N 564.634 1.40294 0.718013 0
M  V30 6493 C 565.881 1.3844 1.47786 0
M  V30 6494 C 566.209 -0.0140838 1.94495 0
M  V30 6495 O 565.464 -0.998165 1.68331 0
M  V30 6496 C 565.763 2.31814 2.72024 0
M  V30 6497 C 565.429 3.79117 2.44093 0
M  V30 6498 C 564.091 4.19249 2.36185 0
M  V30 6499 C 566.443 4.72212 2.20602 0
M  V30 6500 C 563.771 5.50516 2.02851 0
M  V30 6501 C 566.123 6.03775 1.88781 0
M  V30 6502 C 564.787 6.42953 1.79354 0
M  V30 6503 H 564.057 0.506588 0.540786 0
M  V30 6504 H 566.704 1.72929 0.822663 0
M  V30 6505 H 565.009 1.90501 3.42369 0
M  V30 6506 H 566.706 2.27664 3.30106 0
M  V30 6507 H 563.296 3.47318 2.51133 0
M  V30 6508 H 567.48 4.42026 2.25669 0
M  V30 6509 H 562.736 5.79776 1.94088 0
M  V30 6510 H 566.91 6.75428 1.69617 0
M  V30 6511 H 564.537 7.44584 1.53291 0
M  V30 6512 N 566.112 -0.949982 1.2575 0
M  V30 6513 C 567.359 -1.69515 1.10774 0
M  V30 6514 C 567.687 -1.91316 -0.350479 0
M  V30 6515 O 566.942 -1.48515 -1.27443 0
M  V30 6516 C 567.241 -3.08039 1.81237 0
M  V30 6517 C 566.907 -3.06023 3.31151 0
M  V30 6518 C 565.569 -3.0518 3.72047 0
M  V30 6519 C 567.921 -2.98998 4.26907 0
M  V30 6520 C 565.249 -2.95067 5.07102 0
M  V30 6521 C 567.601 -2.90426 5.61992 0
M  V30 6522 C 566.265 -2.87922 6.0221 0
M  V30 6523 H 565.535 -0.6203 0.405351 0
M  V30 6524 H 568.182 -1.10953 1.56082 0
M  V30 6525 H 566.487 -3.70172 1.28373 0
M  V30 6526 H 568.184 -3.64526 1.67098 0
M  V30 6527 H 564.774 -3.07453 2.98614 0
M  V30 6528 H 568.958 -2.98764 3.963 0
M  V30 6529 H 564.214 -2.915 5.37436 0
M  V30 6530 H 568.388 -2.83952 6.35881 0
M  V30 6531 H 566.015 -2.79841 7.06819 0
M  V30 6532 N 567.59 -1.07411 -1.15328 0
M  V30 6533 C 568.82 -0.817595 -1.89734 0
M  V30 6534 C 569.228 0.63297 -1.78298 0
M  V30 6535 O 568.571 1.44594 -1.13306 0
M  V30 6536 C 568.633 -1.14748 -3.40695 0
M  V30 6537 C 568.297 -2.59876 -3.75917 0
M  V30 6538 C 569.294 -3.58122 -3.76888 0
M  V30 6539 C 566.979 -2.95469 -4.06206 0
M  V30 6540 C 568.973 -4.89996 -4.07655 0
M  V30 6541 C 566.66 -4.2754 -4.36638 0
M  V30 6542 C 567.658 -5.24614 -4.37344 0
M  V30 6543 O 567.346 -6.54312 -4.67045 0
M  V30 6544 H 567.078 -0.295175 -0.608151 0
M  V30 6545 H 569.632 -1.43409 -1.47048 0
M  V30 6546 H 567.862 -0.47395 -3.83785 0
M  V30 6547 H 569.551 -0.873397 -3.96392 0
M  V30 6548 H 570.317 -3.31966 -3.53587 0
M  V30 6549 H 566.196 -2.20558 -4.04815 0
M  V30 6550 H 569.74 -5.65759 -4.08121 0
M  V30 6551 H 565.637 -4.53449 -4.59407 0
M  V30 6552 H 566.405 -6.59473 -4.84807 0
M  V30 6553 N 569.068 1.32177 -0.85831 0
M  V30 6554 C 570.016 2.30729 -0.294442 0
M  V30 6555 C 571.01 1.59009 0.584165 0
M  V30 6556 O 572.216 1.73713 0.471562 0
M  V30 6557 H 568.591 0.748097 -0.0765171 0
M  V30 6558 H 570.562 2.75774 -1.1398 0
M  V30 6559 C 569.311 3.44098 0.499208 0
M  V30 6560 H 568.634 3.99449 -0.167579 0
M  V30 6561 H 570.074 4.15202 0.859273 0
M  V30 6562 C 568.533 2.91684 1.68588 0
M  V30 6563 O 569.063 2.89481 2.78503 0
M  V30 6564 N 567.269 2.48036 1.51415 0
M  V30 6565 H 566.816 2.50027 0.620006 0
M  V30 6566 H 566.774 2.13322 2.30957 0
M  V30 6567 N 570.547 0.616602 1.45037 0
M  V30 6568 C 571.479 -0.135186 2.28801 0
M  V30 6569 C 572.492 -0.82303 1.40464 0
M  V30 6570 O 573.681 -0.686909 1.64754 0
M  V30 6571 C 570.781 -1.21292 3.16451 0
M  V30 6572 C 569.954 -0.61043 4.3312 0
M  V30 6573 C 569.013 -1.58022 5.01912 0
M  V30 6574 O 568.039 -1.10301 5.58411 0
M  V30 6575 N 569.241 -2.91464 5.02025 0
M  V30 6576 H 572.006 0.583612 2.93963 0
M  V30 6577 H 569.567 0.456723 1.55324 0
M  V30 6578 H 571.559 -1.86169 3.59337 0
M  V30 6579 H 570.129 -1.83412 2.53138 0
M  V30 6580 H 569.349 0.216638 3.93604 0
M  V30 6581 H 570.637 -0.188293 5.08451 0
M  V30 6582 H 570.035 -3.32829 4.57429 0
M  V30 6583 H 568.592 -3.51741 5.48745 0
M  V30 6584 N 572.025 -1.5352 0.356285 0
M  V30 6585 C 573.272 -2.01117 -0.236303 0
M  V30 6586 C 573.6 -1.24381 -1.49531 0
M  V30 6587 O 572.855 -0.323057 -1.93015 0
M  V30 6588 C 573.154 -3.52607 -0.583369 0
M  V30 6589 C 572.82 -4.47151 0.58023 0
M  V30 6590 C 571.482 -4.72718 0.899528 0
M  V30 6591 C 573.834 -5.03137 1.36024 0
M  V30 6592 C 571.162 -5.51523 2.00098 0
M  V30 6593 C 573.514 -5.83145 2.45204 0
M  V30 6594 C 572.178 -6.07001 2.77679 0
M  V30 6595 H 571.448 -0.735938 -0.0864695 0
M  V30 6596 H 574.095 -1.85209 0.48683 0
M  V30 6597 H 572.4 -3.66413 -1.38739 0
M  V30 6598 H 574.097 -3.86901 -1.05397 0
M  V30 6599 H 570.687 -4.27394 0.321322 0
M  V30 6600 H 574.871 -4.83339 1.12682 0
M  V30 6601 H 570.127 -5.68229 2.25668 0
M  V30 6602 H 574.301 -6.25537 3.06067 0
M  V30 6603 H 571.928 -6.67851 3.63151 0
M  V30 6604 N 573.503 -0.0852151 -1.57369 0
M  V30 6605 C 574.752 0.580443 -1.93168 0
M  V30 6606 C 575.065 1.6995 -0.968319 0
M  V30 6607 O 576.271 2.42564 -1.21963 0
M  V30 6608 C 574.727 1.08386 -3.43192 0
M  V30 6609 C 574.335 -0.00491388 -4.48 0
M  V30 6610 C 576.079 1.72281 -3.87968 0
M  V30 6611 C 573.986 0.513299 -5.89168 0
M  V30 6612 H 572.916 0.22059 -0.72101 0
M  V30 6613 H 575.567 -0.159621 -1.82804 0
M  V30 6614 H 573.949 1.8773 -3.48674 0
M  V30 6615 H 575.123 -0.780032 -4.5415 0
M  V30 6616 H 573.438 -0.548453 -4.12772 0
M  V30 6617 H 576.035 2.12108 -4.9083 0
M  V30 6618 H 576.378 2.58811 -3.26071 0
M  V30 6619 H 576.911 0.995359 -3.85146 0
M  V30 6620 H 573.65 -0.315153 -6.54742 0
M  V30 6621 H 573.17 1.25564 -5.8651 0
M  V30 6622 H 574.849 0.985433 -6.39451 0
M  V30 6623 N 574.981 1.5647 0.188427 0
M  V30 6624 C 575.913 1.91611 1.25769 0
M  V30 6625 C 576.926 0.807436 1.41366 0
M  V30 6626 O 578.115 1.08586 1.41673 0
M  V30 6627 C 575.215 2.13874 2.6289 0
M  V30 6628 C 574.388 3.45047 2.68815 0
M  V30 6629 C 573.447 3.56342 3.87178 0
M  V30 6630 O 572.473 4.29109 3.73971 0
M  V30 6631 N 573.675 2.89924 5.02916 0
M  V30 6632 H 576.44 2.8393 0.959373 0
M  V30 6633 H 574.001 1.57418 0.378306 0
M  V30 6634 H 575.993 2.18713 3.4051 0
M  V30 6635 H 574.563 1.28022 2.85183 0
M  V30 6636 H 573.783 3.52017 1.77419 0
M  V30 6637 H 575.071 4.31395 2.6977 0
M  V30 6638 H 574.469 2.30644 5.16546 0
M  V30 6639 H 573.026 3.0038 5.78459 0
M  V30 6640 N 576.459 -0.456382 1.50847 0
M  V30 6641 C 577.406 -1.55249 1.70782 0
M  V30 6642 C 578.376 -1.56757 0.549231 0
M  V30 6643 O 579.561 -1.74061 0.7815 0
M  V30 6644 C 576.701 -2.93118 1.82143 0
M  V30 6645 C 575.814 -3.01285 3.09598 0
M  V30 6646 C 574.949 -4.30159 3.11667 0
M  V30 6647 C 573.988 -4.32124 4.33515 0
M  V30 6648 N 573.125 -5.52492 4.3324 0
M  V30 6649 H 577.965 -1.37555 2.64353 0
M  V30 6650 H 575.502 -0.668543 1.3103 0
M  V30 6651 H 577.46 -3.73088 1.86711 0
M  V30 6652 H 576.09 -3.09413 0.919978 0
M  V30 6653 H 575.142 -2.14096 3.14431 0
M  V30 6654 H 576.454 -2.98597 3.99551 0
M  V30 6655 H 575.608 -5.18489 3.15046 0
M  V30 6656 H 574.347 -4.35477 2.1957 0
M  V30 6657 H 573.352 -3.42189 4.30333 0
M  V30 6658 H 574.577 -4.28485 5.26856 0
M  V30 6659 H 572.523 -5.58567 3.44004 0
M  V30 6660 H 572.44 -5.51605 5.16979 0
M  V30 6661 H 573.708 -6.42906 4.40786 0
M  V30 6662 N 577.937 -1.40673 -0.710563 0
M  V30 6663 C 578.884 -1.41336 -1.82463 0
M  V30 6664 C 579.854 -0.269648 -1.63897 0
M  V30 6665 O 581.039 -0.468463 -1.8496 0
M  V30 6666 C 578.179 -1.28665 -3.20218 0
M  V30 6667 C 577.292 -2.52784 -3.5032 0
M  V30 6668 C 576.427 -2.32517 -4.77608 0
M  V30 6669 C 575.466 -3.52187 -5.0063 0
M  V30 6670 N 574.603 -3.31084 -6.19135 0
M  V30 6671 H 579.443 -2.36558 -1.8123 0
M  V30 6672 H 576.98 -1.17483 -0.885226 0
M  V30 6673 H 578.938 -1.19324 -3.99772 0
M  V30 6674 H 577.568 -0.370602 -3.20666 0
M  V30 6675 H 576.62 -2.72634 -2.65283 0
M  V30 6676 H 577.932 -3.41845 -3.63241 0
M  V30 6677 H 577.086 -2.20558 -5.65189 0
M  V30 6678 H 575.825 -1.40889 -4.66906 0
M  V30 6679 H 574.83 -3.64617 -4.11502 0
M  V30 6680 H 576.055 -4.44749 -5.13201 0
M  V30 6681 H 574.001 -2.42143 -6.09674 0
M  V30 6682 H 573.918 -4.13713 -6.32754 0
M  V30 6683 H 575.186 -3.22868 -7.0949 0
M  V30 6684 N 579.415 0.9433 -1.26252 0
M  V30 6685 C 580.363 2.06302 -1.07434 0
M  V30 6686 C 581.357 1.694 -0.00189471 0
M  V30 6687 O 582.563 1.79302 -0.158408 0
M  V30 6688 H 578.938 0.675453 -0.330556 0
M  V30 6689 H 580.909 2.19326 -2.02333 0
M  V30 6690 C 579.658 3.40125 -0.721817 0
M  V30 6691 H 578.981 3.68996 -1.5389 0
M  V30 6692 H 580.421 4.19295 -0.629922 0
M  V30 6693 C 578.88 3.31993 0.572902 0
M  V30 6694 O 579.41 3.67945 1.61182 0
M  V30 6695 N 577.616 2.85099 0.562748 0
M  V30 6696 H 577.163 2.5604 -0.283092 0
M  V30 6697 H 577.121 2.80041 1.42915 0
M  V30 6698 N 580.893 1.08022 1.14757 0
M  V30 6699 C 582.123 0.827646 1.89298 0
M  V30 6700 C 582.531 -0.623506 1.78631 0
M  V30 6701 O 581.874 -1.43991 1.14071 0
M  V30 6702 C 581.936 1.16553 3.40082 0
M  V30 6703 C 581.6 2.61866 3.74533 0
M  V30 6704 C 582.597 3.60116 3.74984 0
M  V30 6705 C 580.282 2.97619 4.04633 0
M  V30 6706 C 582.276 4.92151 4.05051 0
M  V30 6707 C 579.963 4.2985 4.34364 0
M  V30 6708 C 580.961 5.26926 4.34555 0
M  V30 6709 O 580.649 6.5678 4.63568 0
M  V30 6710 H 580.381 0.298396 0.606577 0
M  V30 6711 H 582.935 1.44187 1.46285 0
M  V30 6712 H 581.165 0.494296 3.83528 0
M  V30 6713 H 582.854 0.894407 3.95923 0
M  V30 6714 H 583.62 3.33837 3.51821 0
M  V30 6715 H 579.499 2.22702 4.03639 0
M  V30 6716 H 583.043 5.67915 4.05115 0
M  V30 6717 H 578.94 4.55879 4.56995 0
M  V30 6718 H 579.708 6.62035 4.81303 0
M  V30 6719 N 582.371 -1.3172 0.865308 0
M  V30 6720 C 583.62 -1.96145 0.470098 0
M  V30 6721 C 583.933 -1.69182 -0.981674 0
M  V30 6722 O 585.139 -2.27431 -1.48281 0
M  V30 6723 C 583.595 -3.51129 0.789732 0
M  V30 6724 C 583.203 -3.86938 2.25795 0
M  V30 6725 C 584.947 -4.2197 0.462765 0
M  V30 6726 C 582.854 -5.35012 2.52024 0
M  V30 6727 H 581.784 -0.734105 0.172065 0
M  V30 6728 H 584.435 -1.49959 1.05757 0
M  V30 6729 H 582.817 -3.95781 0.131571 0
M  V30 6730 H 583.991 -3.5326 2.95879 0
M  V30 6731 H 582.306 -3.29149 2.55049 0
M  V30 6732 H 584.903 -5.30904 0.636019 0
M  V30 6733 H 585.246 -4.12005 -0.59645 0
M  V30 6734 H 585.779 -3.82936 1.07727 0
M  V30 6735 H 582.518 -5.50008 3.56611 0
M  V30 6736 H 582.038 -5.70058 1.8653 0
M  V30 6737 H 583.717 -6.0222 2.36515 0
M  V30 6738 N 583.85 -0.624285 -1.44708 0
M  V30 6739 C 584.782 0.12305 -2.28869 0
M  V30 6740 C 585.795 0.81557 -1.40898 0
M  V30 6741 O 586.984 0.678162 -1.65116 0
M  V30 6742 C 584.084 1.19612 -3.1709 0
M  V30 6743 C 583.257 0.587452 -4.33437 0
M  V30 6744 C 582.316 1.55358 -5.02743 0
M  V30 6745 O 581.341 1.07338 -5.58988 0
M  V30 6746 N 582.543 2.88798 -5.03563 0
M  V30 6747 H 585.308 -0.599193 -2.93649 0
M  V30 6748 H 582.87 -0.464954 -1.5508 0
M  V30 6749 H 584.861 1.84261 -3.60319 0
M  V30 6750 H 583.432 1.82067 -2.54107 0
M  V30 6751 H 582.652 -0.237509 -3.93484 0
M  V30 6752 H 583.94 0.161326 -5.08544 0
M  V30 6753 H 583.338 3.30399 -4.59188 0
M  V30 6754 H 581.894 3.48826 -5.50603 0
M  V30 6755 N 585.328 1.53329 -0.364422 0
M  V30 6756 C 586.553 2.06132 0.229033 0
M  V30 6757 C 586.978 1.23625 1.41769 0
M  V30 6758 O 586.336 0.255038 1.79497 0
M  V30 6759 C 586.384 3.55544 0.60174 0
M  V30 6760 O 585.488 3.75771 1.69912 0
M  V30 6761 H 584.829 0.663148 0.0336213 0
M  V30 6762 H 587.359 1.97758 -0.524689 0
M  V30 6763 H 587.369 3.98549 0.873073 0
M  V30 6764 H 586.044 4.15039 -0.267421 0
M  V30 6765 H 584.621 3.44663 1.42343 0
M  V30 6766 N 586.806 0.0935595 1.57322 0
M  V30 6767 C 587.738 -0.895923 2.10964 0
M  V30 6768 C 588.751 -1.24705 1.04654 0
M  V30 6769 O 589.94 -1.20044 1.32105 0
M  V30 6770 C 587.04 -2.20546 2.57318 0
M  V30 6771 C 586.213 -2.0299 3.87445 0
M  V30 6772 C 585.272 -3.17443 4.19662 0
M  V30 6773 O 584.298 -2.91474 4.88909 0
M  V30 6774 N 585.5 -4.43168 3.74943 0
M  V30 6775 H 588.265 -0.437788 2.96485 0
M  V30 6776 H 585.826 -0.0915863 1.61641 0
M  V30 6777 H 587.818 -2.9606 2.75917 0
M  V30 6778 H 586.388 -2.57789 1.76816 0
M  V30 6779 H 585.608 -1.11815 3.78009 0
M  V30 6780 H 586.896 -1.88535 4.7258 0
M  V30 6781 H 586.294 -4.67149 3.19043 0
M  V30 6782 H 584.851 -5.15637 3.987 0
M  V30 6783 N 588.284 -1.56567 -0.180126 0
M  V30 6784 C 589.512 -1.85618 -0.913972 0
M  V30 6785 C 589.927 -0.677892 -1.7621 0
M  V30 6786 O 589.284 0.353171 -1.7905 0
M  V30 6787 C 589.335 -3.13619 -1.79793 0
M  V30 6788 O 589.056 -4.26906 -0.98402 0
M  V30 6789 C 590.557 -3.55954 -2.64219 0
M  V30 6790 H 587.777 -0.616043 -0.265954 0
M  V30 6791 H 590.321 -2.03681 -0.182872 0
M  V30 6792 H 588.476 -2.97409 -2.48247 0
M  V30 6793 H 588.89 -4.9989 -1.58776 0
M  V30 6794 H 590.364 -4.48444 -3.21873 0
M  V30 6795 H 590.841 -2.79653 -3.38661 0
M  V30 6796 H 591.447 -3.74746 -2.01111 0
M  V30 6797 N 589.762 0.448376 -1.51087 0
M  V30 6798 C 590.71 1.56407 -1.72161 0
M  V30 6799 C 591.704 1.58878 -0.587721 0
M  V30 6800 O 592.91 1.62755 -0.768822 0
M  V30 6801 H 589.285 0.519423 -0.543786 0
M  V30 6802 H 591.256 1.35803 -2.65707 0
M  V30 6803 C 590.005 2.94163 -1.85373 0
M  V30 6804 H 589.328 2.9299 -2.72024 0
M  V30 6805 H 590.768 3.71625 -2.04135 0
M  V30 6806 C 589.227 3.31317 -0.610803 0
M  V30 6807 O 589.757 4.00985 0.239636 0
M  V30 6808 N 587.963 2.86966 -0.458127 0
M  V30 6809 H 587.51 2.30443 -1.15124 0
M  V30 6810 H 587.468 3.12188 0.372289 0
M  V30 6811 N 591.24 1.41047 0.703093 0
M  V30 6812 C 592.468 1.4334 1.49202 0
M  V30 6813 C 592.883 0.0365596 1.88765 0
M  V30 6814 O 592.24 -0.942419 1.56284 0
M  V30 6815 C 592.291 2.33538 2.75939 0
M  V30 6816 O 592.012 3.67786 2.38045 0
M  V30 6817 C 593.513 2.44555 3.6974 0
M  V30 6818 H 590.733 0.488472 0.460039 0
M  V30 6819 H 593.277 1.85245 0.86629 0
M  V30 6820 H 591.432 1.94962 3.34766 0
M  V30 6821 H 591.846 4.15816 3.19683 0
M  V30 6822 H 593.32 3.11849 4.55471 0
M  V30 6823 H 593.797 1.47447 4.1371 0
M  V30 6824 H 594.403 2.83735 3.16819 0
M  V30 6825 N 592.718 -0.936591 1.26751 0
M  V30 6826 C 593.948 -1.71509 1.15188 0
M  V30 6827 C 594.356 -1.86885 -0.295037 0
M  V30 6828 O 593.699 -1.37915 -1.21347 0
M  V30 6829 C 593.761 -3.13853 1.75318 0
M  V30 6830 C 593.425 -3.21845 3.24445 0
M  V30 6831 C 594.422 -3.04771 4.21201 0
M  V30 6832 C 592.107 -3.45088 3.64992 0
M  V30 6833 C 594.101 -3.10816 5.56482 0
M  V30 6834 C 591.788 -3.50767 5.00405 0
M  V30 6835 C 592.786 -3.33648 5.9596 0
M  V30 6836 O 592.474 -3.39045 7.28906 0
M  V30 6837 H 592.206 -0.543658 0.401761 0
M  V30 6838 H 594.76 -1.18234 1.67958 0
M  V30 6839 H 592.99 -3.6857 1.17016 0
M  V30 6840 H 594.679 -3.73634 1.58596 0
M  V30 6841 H 595.445 -2.86665 3.91214 0
M  V30 6842 H 591.324 -3.57467 2.91098 0
M  V30 6843 H 594.868 -2.97372 6.31043 0
M  V30 6844 H 590.765 -3.68396 5.30052 0
M  V30 6845 H 591.533 -3.55558 7.37238 0
M  V30 6846 N 594.196 -1.08629 -1.14182 0
M  V30 6847 C 595.129 -0.662329 -2.18377 0
M  V30 6848 C 596.107 0.327054 -1.59277 0
M  V30 6849 O 597.291 0.230376 -1.87087 0
M  V30 6850 C 594.418 0.0254765 -3.3869 0
M  V30 6851 C 593.464 -0.924414 -4.16361 0
M  V30 6852 S 594.297 -2.43226 -4.77076 0
M  V30 6853 C 595.453 -1.75663 -6.00744 0
M  V30 6854 H 595.686 -1.54501 -2.54001 0
M  V30 6855 H 593.219 -0.901484 -1.2535 0
M  V30 6856 H 595.177 0.416032 -4.08386 0
M  V30 6857 H 593.838 0.884689 -3.01384 0
M  V30 6858 H 593.031 -0.390099 -5.02488 0
M  V30 6859 H 592.633 -1.25598 -3.5228 0
M  V30 6860 H 594.925 -1.07589 -6.68903 0
M  V30 6861 H 595.868 -2.59673 -6.58768 0
M  V30 6862 H 596.276 -1.22903 -5.50958 0
M  V30 6863 N 595.674 1.31259 -0.872281 0
M  V30 6864 C 596.622 2.30404 -0.318897 0
M  V30 6865 C 597.616 1.5962 0.567267 0
M  V30 6866 O 598.822 1.74204 0.453111 0
M  V30 6867 H 595.197 0.747243 -0.0844474 0
M  V30 6868 H 597.168 2.74549 -1.16899 0
M  V30 6869 C 595.917 3.44608 0.462683 0
M  V30 6870 H 595.24 3.99248 -0.209936 0
M  V30 6871 H 596.68 4.1609 0.815187 0
M  V30 6872 C 595.139 2.93456 1.65485 0
M  V30 6873 O 595.669 2.92418 2.75417 0
M  V30 6874 N 593.875 2.49628 1.48776 0
M  V30 6875 H 593.422 2.50671 0.593452 0
M  V30 6876 H 593.38 2.15759 2.28682 0
M  V30 6877 N 597.152 0.631951 1.44375 0
M  V30 6878 C 598.429 0.067646 1.95483 0
M  V30 6879 C 598.809 -1.40683 1.57389 0
M  V30 6880 O 598.157 -2.12167 0.848375 0
M  V30 6881 C 598.367 0.291392 3.47781 0
M  V30 6882 C 599.715 0.185028 4.24197 0
M  V30 6883 O 600.739 0.222803 3.55503 0
M  V30 6884 O 599.598 0.0906642 5.46425 0
M  V30 6885 H 596.692 -0.0218379 0.826712 0
M  V30 6886 H 599.238 0.703711 1.54421 0
M  V30 6887 H 598.01 1.31449 3.68561 0
M  V30 6888 H 597.633 -0.378772 3.95792 0
M  V30 6889 N 598.631 -1.53133 0.372548 0
M  V30 6890 C 600.042 -1.86404 -0.105155 0
M  V30 6891 C 600.393 -1.29289 -1.47576 0
M  V30 6892 O 599.518 -0.617646 -2.07398 0
M  V30 6893 C 600.113 -3.38223 -0.197588 0
M  V30 6894 C 598.672 -3.71266 -0.619556 0
M  V30 6895 C 597.819 -2.76353 0.228919 0
M  V30 6896 H 600.77 -1.47282 0.591077 0
M  V30 6897 H 600.791 -3.66577 -1.01987 0
M  V30 6898 H 600.303 -3.79763 0.800099 0
M  V30 6899 H 598.404 -3.35287 -1.62522 0
M  V30 6900 H 598.517 -4.77515 -0.389332 0
M  V30 6901 H 596.881 -2.52888 -0.303271 0
M  V30 6902 H 597.664 -3.20728 1.22428 0
M  V30 6903 N 600.109 -0.101901 -1.5727 0
M  V30 6904 C 601.056 0.854577 -2.14396 0
M  V30 6905 C 602.026 1.27521 -1.06432 0
M  V30 6906 O 603.211 1.35575 -1.34253 0
M  V30 6907 C 600.351 2.10576 -2.73408 0
M  V30 6908 C 599.464 1.73504 -3.95626 0
M  V30 6909 C 598.599 2.9346 -4.42781 0
M  V30 6910 C 597.638 2.52547 -5.57572 0
M  V30 6911 N 596.775 3.65359 -5.99547 0
M  V30 6912 H 601.615 0.360578 -2.9581 0
M  V30 6913 H 599.152 0.166303 -1.46157 0
M  V30 6914 H 601.11 2.83859 -3.05745 0
M  V30 6915 H 599.74 2.57463 -1.94711 0
M  V30 6916 H 598.792 0.901622 -3.6956 0
M  V30 6917 H 600.104 1.39426 -4.78917 0
M  V30 6918 H 599.258 3.74988 -4.76937 0
M  V30 6919 H 597.997 3.30753 -3.58404 0
M  V30 6920 H 597.002 1.69446 -5.23037 0
M  V30 6921 H 598.227 2.1639 -6.43702 0
M  V30 6922 H 596.173 4.02358 -5.18116 0
M  V30 6923 H 596.09 3.35148 -6.77652 0
M  V30 6924 H 597.358 4.47378 -6.38336 0
M  V30 6925 N 601.587 1.56661 0.17182 0
M  V30 6926 C 602.534 1.96371 1.21273 0
M  V30 6927 C 603.504 0.82756 1.44016 0
M  V30 6928 O 604.689 1.08764 1.56764 0
M  V30 6929 C 601.829 2.32838 2.54716 0
M  V30 6930 C 600.942 3.59628 2.39356 0
M  V30 6931 C 600.077 3.85311 3.65662 0
M  V30 6932 C 599.116 5.0545 3.45234 0
M  V30 6933 N 598.253 5.27268 4.63608 0
M  V30 6934 H 603.093 2.85106 0.86709 0
M  V30 6935 H 600.63 1.41073 0.416744 0
M  V30 6936 H 602.588 2.52004 3.3249 0
M  V30 6937 H 601.218 1.47214 2.87277 0
M  V30 6938 H 600.27 3.4838 1.52761 0
M  V30 6939 H 601.582 4.4756 2.20207 0
M  V30 6940 H 600.736 4.04841 4.51872 0
M  V30 6941 H 599.475 2.95753 3.8779 0
M  V30 6942 H 598.48 4.85819 2.5741 0
M  V30 6943 H 599.705 5.96538 3.24529 0
M  V30 6944 H 597.651 4.40662 4.85956 0
M  V30 6945 H 597.568 6.09422 4.4737 0
M  V30 6946 H 598.836 5.51277 5.51103 0
M  V30 6947 N 603.065 -0.440357 1.51323 0
M  V30 6948 C 604.012 -1.53429 1.72419 0
M  V30 6949 C 604.982 -1.56165 0.565826 0
M  V30 6950 O 606.167 -1.73222 0.799917 0
M  V30 6951 C 603.307 -2.91169 1.85242 0
M  V30 6952 C 602.42 -2.97985 3.12777 0
M  V30 6953 C 601.555 -4.26829 3.16212 0
M  V30 6954 C 600.594 -4.27501 4.38074 0
M  V30 6955 N 599.731 -5.47866 4.39076 0
M  V30 6956 H 604.571 -1.34743 2.65797 0
M  V30 6957 H 602.108 -0.654608 1.31732 0
M  V30 6958 H 604.066 -3.71087 1.90658 0
M  V30 6959 H 602.696 -3.0842 0.952744 0
M  V30 6960 H 601.748 -2.10749 3.16685 0
M  V30 6961 H 603.06 -2.94342 4.02696 0
M  V30 6962 H 602.214 -5.15118 3.20527 0
M  V30 6963 H 600.953 -4.33124 2.24176 0
M  V30 6964 H 599.958 -3.37606 4.33938 0
M  V30 6965 H 601.183 -4.22873 5.31371 0
M  V30 6966 H 599.129 -5.54887 3.49909 0
M  V30 6967 H 599.046 -5.46091 5.22801 0
M  V30 6968 H 600.314 -6.38195 4.4758 0
M  V30 6969 N 604.543 -1.41418 -0.695603 0
M  V30 6970 C 605.491 -1.43467 -1.83084 0
M  V30 6971 C 606.485 -0.312719 -1.66489 0
M  V30 6972 O 607.691 -0.484744 -1.7335 0
M  V30 6973 H 604.066 -0.448891 -0.603325 0
M  V30 6974 H 606.037 -2.39144 -1.78473 0
M  V30 6975 C 604.786 -1.3337 -3.21104 0
M  V30 6976 H 604.109 -2.18989 -3.3449 0
M  V30 6977 H 605.549 -1.38865 -4.00615 0
M  V30 6978 C 604.008 -0.0460484 -3.36869 0
M  V30 6979 O 604.538 0.909258 -3.91274 0
M  V30 6980 N 602.744 0.0300222 -2.90584 0
M  V30 6981 H 602.291 -0.748129 -2.46497 0
M  V30 6982 H 602.249 0.890991 -3.01511 0
M  V30 6983 N 606.021 0.929856 -1.27246 0
M  V30 6984 C 607.298 1.65544 -1.04186 0
M  V30 6985 C 607.678 2.06796 0.424097 0
M  V30 6986 O 607.026 1.80053 1.40688 0
M  V30 6987 C 607.236 2.85912 -2.00138 0
M  V30 6988 C 608.584 3.57305 -2.29387 0
M  V30 6989 O 609.608 2.96036 -1.98094 0
M  V30 6990 O 608.467 4.67688 -2.82719 0
M  V30 6991 H 605.561 0.725473 -0.397011 0
M  V30 6992 H 608.107 0.980583 -1.38501 0
M  V30 6993 H 606.879 2.52403 -2.99013 0
M  V30 6994 H 606.502 3.61118 -1.66371 0
M  V30 6995 N 607.499 1.09233 1.13605 0
M  V30 6996 C 608.429 0.751738 2.21068 0
M  V30 6997 C 609.41 -0.269688 1.67948 0
M  V30 6998 O 610.595 -0.13819 1.93708 0
M  V30 6999 C 607.725 0.16935 3.46887 0
M  V30 7000 C 606.679 1.12007 4.13084 0
M  V30 7001 C 606.005 0.399483 5.33206 0
M  V30 7002 C 607.305 2.46168 4.6065 0
M  V30 7003 H 608.999 1.65024 2.49815 0
M  V30 7004 H 606.545 0.794905 1.20072 0
M  V30 7005 H 608.498 -0.0809824 4.21322 0
M  V30 7006 H 607.222 -0.764335 3.1753 0
M  V30 7007 H 605.881 1.35564 3.40614 0
M  V30 7008 H 605.529 -0.538277 5.00112 0
M  V30 7009 H 605.229 1.03337 5.78442 0
M  V30 7010 H 606.753 0.157403 6.10397 0
M  V30 7011 H 608.167 2.26829 5.26518 0
M  V30 7012 H 606.564 3.05326 5.1662 0
M  V30 7013 H 607.634 3.07076 3.75276 0
M  V30 7014 N 608.977 -1.30795 0.87923 0
M  V30 7015 C 609.909 -2.27241 0.299025 0
M  V30 7016 C 610.922 -1.53472 -0.543166 0
M  V30 7017 O 612.111 -1.74756 -0.363651 0
M  V30 7018 C 609.211 -3.33655 -0.593931 0
M  V30 7019 C 608.384 -4.36857 0.2179 0
M  V30 7020 C 607.443 -5.22715 -0.604646 0
M  V30 7021 O 606.469 -5.69192 -0.0293838 0
M  V30 7022 N 607.671 -5.48008 -1.91488 0
M  V30 7023 H 610.436 -2.77667 1.12788 0
M  V30 7024 H 607.997 -1.43914 0.741637 0
M  V30 7025 H 609.989 -3.88013 -1.15012 0
M  V30 7026 H 608.559 -2.83202 -1.32346 0
M  V30 7027 H 607.779 -3.82444 0.955536 0
M  V30 7028 H 609.067 -5.02869 0.774614 0
M  V30 7029 H 608.465 -5.1202 -2.40525 0
M  V30 7030 H 607.022 -6.05264 -2.41864 0
M  V30 7031 N 610.455 -0.639598 -1.44038 0
M  V30 7032 C 611.403 0.0723409 -2.32487 0
M  V30 7033 C 612.397 0.827129 -1.47834 0
M  V30 7034 O 613.603 0.73907 -1.64127 0
M  V30 7035 H 609.978 0.0421696 -0.750817 0
M  V30 7036 H 611.949 -0.691593 -2.90275 0
M  V30 7037 C 610.698 1.03452 -3.31953 0
M  V30 7038 H 610.021 0.46315 -3.97108 0
M  V30 7039 H 611.461 1.502 -3.96505 0
M  V30 7040 C 609.92 2.12392 -2.61518 0
M  V30 7041 O 610.45 3.2059 -2.42044 0
M  V30 7042 N 608.656 1.88563 -2.21116 0
M  V30 7043 H 608.203 1.00577 -2.37154 0
M  V30 7044 H 608.161 2.61651 -1.74316 0
M  V30 7045 N 611.933 1.52934 -0.380664 0
M  V30 7046 C 612.881 2.27727 0.47361 0
M  V30 7047 C 613.875 1.31288 1.0705 0
M  V30 7048 O 615.081 1.4886 1.01197 0
M  V30 7049 H 611.456 0.732189 0.171475 0
M  V30 7050 H 613.427 2.97864 -0.178785 0
M  V30 7051 C 612.176 3.0904 1.59341 0
M  V30 7052 H 611.499 3.831 1.14343 0
M  V30 7053 H 612.939 3.64527 2.16555 0
M  V30 7054 C 611.398 2.20813 2.54447 0
M  V30 7055 O 611.928 1.82907 3.57642 0
M  V30 7056 N 610.134 1.85145 2.23986 0
M  V30 7057 H 609.681 2.16169 1.40103 0
M  V30 7058 H 609.639 1.26402 2.87871 0
M  V30 7059 N 613.412 0.11024 1.57214 0
M  V30 7060 C 614.652 -0.553061 1.96775 0
M  V30 7061 C 615.016 -1.64403 0.991753 0
M  V30 7062 O 616.217 -2.36561 1.27642 0
M  V30 7063 C 614.488 -1.08004 3.4069 0
M  V30 7064 S 616.047 -1.75309 4.02259 0
M  V30 7065 H 612.865 -0.18003 0.68783 0
M  V30 7066 H 615.467 0.193242 1.94543 0
M  V30 7067 H 614.171 -0.274735 4.09479 0
M  V30 7068 H 613.702 -1.86182 3.46554 0
M  V30 7069 H 615.717 -3.03834 3.923 0
M  V30 7070 N 614.89 -1.56749 -0.16351 0
M  V30 7071 C 616.136 -1.82704 -0.880168 0
M  V30 7072 C 616.469 -0.689311 -1.81555 0
M  V30 7073 O 615.744 0.308224 -1.92042 0
M  V30 7074 C 616.027 -3.19084 -1.66905 0
M  V30 7075 C 615.88 -4.43397 -0.756269 0
M  V30 7076 C 617.199 -3.52493 -2.63509 0
M  V30 7077 H 614.318 -0.664608 -0.318535 0
M  V30 7078 H 616.96 -1.89438 -0.146036 0
M  V30 7079 H 615.11 -3.13475 -2.2949 0
M  V30 7080 H 616.782 -4.61079 -0.14269 0
M  V30 7081 H 615.025 -4.33752 -0.0647944 0
M  V30 7082 H 615.696 -5.3539 -1.34393 0
M  V30 7083 H 618.172 -3.58606 -2.11047 0
M  V30 7084 H 617.048 -4.48979 -3.15767 0
M  V30 7085 H 617.309 -2.77597 -3.44082 0
M  V30 7086 N 616.368 0.432326 -1.51554 0
M  V30 7087 C 617.318 1.52366 -1.69614 0
M  V30 7088 C 618.302 1.51205 -0.550083 0
M  V30 7089 O 619.494 1.57573 -0.806206 0
M  V30 7090 C 616.623 2.90513 -1.82913 0
M  V30 7091 C 615.709 2.9641 -3.03318 0
M  V30 7092 N 616.1 2.72043 -4.26411 0
M  V30 7093 C 614.398 3.27572 -3.02675 0
M  V30 7094 C 615.099 2.83912 -5.07709 0
M  V30 7095 N 614.075 3.15798 -4.42462 0
M  V30 7096 H 617.877 1.32285 -2.62446 0
M  V30 7097 H 615.391 0.639708 -1.4927 0
M  V30 7098 H 617.388 3.69032 -1.93962 0
M  V30 7099 H 616.048 3.1161 -0.912655 0
M  V30 7100 H 617.059 2.46876 -4.55272 0
M  V30 7101 H 613.736 3.54411 -2.20678 0
M  V30 7102 H 615.126 2.68984 -6.15709 0
M  V30 7103 N 617.846 1.41785 0.688094 0
M  V30 7104 C 618.778 1.40159 1.81351 0
M  V30 7105 C 619.791 0.30262 1.59963 0
M  V30 7106 O 620.98 0.564841 1.69327 0
M  V30 7107 C 618.08 1.16517 3.1824 0
M  V30 7108 C 617.253 2.38597 3.66593 0
M  V30 7109 C 616.312 2.10699 4.82174 0
M  V30 7110 O 615.338 2.83798 4.93404 0
M  V30 7111 N 616.54 1.10187 5.69947 0
M  V30 7112 H 619.305 2.3716 1.83236 0
M  V30 7113 H 616.866 1.36494 0.870697 0
M  V30 7114 H 618.858 0.957941 3.93199 0
M  V30 7115 H 617.428 0.280873 3.11336 0
M  V30 7116 H 616.648 2.74974 2.82459 0
M  V30 7117 H 617.936 3.19919 3.95638 0
M  V30 7118 H 617.334 0.497016 5.63512 0
M  V30 7119 H 615.891 0.954518 6.44773 0
M  V30 7120 N 619.324 -0.923095 1.27737 0
M  V30 7121 C 620.549 -1.71054 1.17283 0
M  V30 7122 C 620.974 -1.86208 -0.266153 0
M  V30 7123 O 620.332 -1.36545 -1.1927 0
M  V30 7124 C 620.38 -3.0854 1.86642 0
M  V30 7125 O 619.484 -3.95528 1.16752 0
M  V30 7126 H 618.825 -0.524136 0.407649 0
M  V30 7127 H 621.355 -1.15487 1.6889 0
M  V30 7128 H 621.365 -3.58828 1.94182 0
M  V30 7129 H 620.04 -2.96828 2.91317 0
M  V30 7130 H 618.617 -3.53967 1.17312 0
M  V30 7131 N 620.802 -1.09834 -1.13024 0
M  V30 7132 C 621.712 -0.753731 -2.22162 0
M  V30 7133 C 622.728 0.246105 -1.72251 0
M  V30 7134 O 623.904 0.0864051 -2.01215 0
M  V30 7135 C 620.969 -0.183958 -3.46212 0
M  V30 7136 C 620.03 -1.24028 -4.10993 0
M  V30 7137 C 619.263 -0.697597 -5.29121 0
M  V30 7138 O 619.486 0.478092 -5.68393 0
M  V30 7139 O 618.42 -1.4546 -5.84059 0
M  V30 7140 H 622.246 -1.66456 -2.5402 0
M  V30 7141 H 619.831 -0.873026 -1.21238 0
M  V30 7142 H 621.713 0.130257 -4.21199 0
M  V30 7143 H 620.388 0.699823 -3.16045 0
M  V30 7144 H 619.295 -1.60725 -3.37814 0
M  V30 7145 H 620.628 -2.09685 -4.45301 0
M  V30 7146 N 622.28 1.30327 -0.886154 0
M  V30 7147 C 623.529 1.95373 -0.501243 0
M  V30 7148 C 623.842 1.70722 0.954634 0
M  V30 7149 O 625.048 2.29761 1.44644 0
M  V30 7150 C 623.504 3.49828 -0.845493 0
M  V30 7151 C 623.112 3.83296 -2.31922 0
M  V30 7152 C 624.856 4.2118 -0.529838 0
M  V30 7153 C 622.763 5.30935 -2.60504 0
M  V30 7154 H 621.693 0.731274 -0.183722 0
M  V30 7155 H 624.344 1.48258 -1.08129 0
M  V30 7156 H 622.726 3.95522 -0.19452 0
M  V30 7157 H 623.9 3.48508 -3.01461 0
M  V30 7158 H 622.215 3.2505 -2.60253 0
M  V30 7159 H 624.812 5.29825 -0.720401 0
M  V30 7160 H 625.155 4.12902 0.530828 0
M  V30 7161 H 625.688 3.81173 -1.13806 0
M  V30 7162 H 622.427 5.44265 -3.65316 0
M  V30 7163 H 621.947 5.67019 -1.95575 0
M  V30 7164 H 623.626 5.98381 -2.46066 0
M  V30 7165 N 623.758 0.647228 1.43697 0
M  V30 7166 C 624.983 0.164083 2.0675 0
M  V30 7167 C 625.408 -1.15892 1.48158 0
M  V30 7168 O 624.766 -1.71459 0.589194 0
M  V30 7169 C 624.814 0.0800368 3.60511 0
M  V30 7170 O 623.918 -0.959453 4.01084 0
M  V30 7171 H 623.259 0.0921288 0.657578 0
M  V30 7172 H 625.789 0.88846 1.84303 0
M  V30 7173 H 625.799 -0.105263 4.07864 0
M  V30 7174 H 624.474 1.04586 4.02535 0
M  V30 7175 H 623.051 -0.747425 3.65333 0
M  V30 7176 N 625.236 -1.5273 0.388769 0
M  V30 7177 C 626.464 -2.05992 -0.193677 0
M  V30 7178 C 626.879 -1.26053 -1.40557 0
M  V30 7179 O 626.236 -0.307049 -1.79898 0
M  V30 7180 C 626.287 -3.57068 -0.564321 0
M  V30 7181 O 626.008 -4.3398 0.599422 0
M  V30 7182 C 627.509 -4.26674 -1.20269 0
M  V30 7183 H 624.729 -0.670358 -0.0293445 0
M  V30 7184 H 627.273 -1.96857 0.553844 0
M  V30 7185 H 625.428 -3.66277 -1.26174 0
M  V30 7186 H 625.842 -5.2367 0.294895 0
M  V30 7187 H 627.316 -5.33625 -1.4124 0
M  V30 7188 H 627.793 -3.81854 -2.16989 0
M  V30 7189 H 628.399 -4.2178 -0.546047 0
M  V30 7190 N 626.714 -0.118576 -1.57153 0
M  V30 7191 C 627.961 0.539526 -1.9518 0
M  V30 7192 C 628.289 1.66714 -1.00184 0
M  V30 7193 O 627.544 1.95683 -0.0256482 0
M  V30 7194 C 627.843 1.11303 -3.39627 0
M  V30 7195 C 627.509 0.106809 -4.50773 0
M  V30 7196 C 626.171 -0.169876 -4.809 0
M  V30 7197 C 628.523 -0.57895 -5.17975 0
M  V30 7198 C 625.851 -1.13861 -5.75545 0
M  V30 7199 C 628.203 -1.53631 -6.13661 0
M  V30 7200 C 626.867 -1.82099 -6.42181 0
M  V30 7201 H 626.137 0.197427 -0.714215 0
M  V30 7202 H 628.784 -0.199391 -1.90459 0
M  V30 7203 H 627.089 1.92869 -3.4104 0
M  V30 7204 H 628.786 1.63032 -3.66363 0
M  V30 7205 H 625.376 0.332645 -4.27307 0
M  V30 7206 H 629.56 -0.378359 -4.94856 0
M  V30 7207 H 624.816 -1.36592 -5.95947 0
M  V30 7208 H 628.99 -2.07337 -6.64819 0
M  V30 7209 H 626.617 -2.57319 -7.15326 0
M  V30 7210 N 628.193 1.56834 0.155195 0
M  V30 7211 C 629.141 1.98584 1.21107 0
M  V30 7212 C 630.135 0.876987 1.44932 0
M  V30 7213 O 631.341 1.06215 1.45322 0
M  V30 7214 H 627.716 0.632039 0.407469 0
M  V30 7215 H 629.687 2.86561 0.832195 0
M  V30 7216 C 628.436 2.37555 2.53895 0
M  V30 7217 H 627.759 3.22428 2.3639 0
M  V30 7218 H 629.199 2.70598 3.26424 0
M  V30 7219 C 627.658 1.22507 3.13837 0
M  V30 7220 O 628.188 0.521388 3.98302 0
M  V30 7221 N 626.394 0.991444 2.73164 0
M  V30 7222 H 625.941 1.56544 2.04577 0
M  V30 7223 H 625.899 0.223546 3.13604 0
M  V30 7224 N 629.671 -0.424282 1.51781 0
M  V30 7225 C 630.619 -1.53649 1.74628 0
M  V30 7226 C 631.613 -1.57923 0.612922 0
M  V30 7227 O 632.819 -1.61511 0.794618 0
M  V30 7228 H 629.194 -0.510706 0.551981 0
M  V30 7229 H 631.165 -1.31558 2.67834 0
M  V30 7230 C 629.914 -2.91177 1.9003 0
M  V30 7231 H 629.237 -2.88625 2.76651 0
M  V30 7232 H 630.677 -3.6833 2.10021 0
M  V30 7233 C 629.136 -3.30303 0.663435 0
M  V30 7234 O 629.666 -4.01315 -0.175812 0
M  V30 7235 N 627.872 -2.86201 0.503723 0
M  V30 7236 H 627.419 -2.28583 1.18776 0
M  V30 7237 H 627.377 -3.12741 -0.322575 0
M  V30 7238 N 631.149 -1.42148 -0.680565 0
M  V30 7239 C 632.396 -1.4231 -1.44063 0
M  V30 7240 C 632.724 -0.037488 -1.94464 0
M  V30 7241 O 631.979 0.953184 -1.70918 0
M  V30 7242 C 632.278 -2.38945 -2.65782 0
M  V30 7243 C 631.944 -3.85455 -2.33956 0
M  V30 7244 C 630.606 -4.25364 -2.24987 0
M  V30 7245 C 632.958 -4.77895 -2.08004 0
M  V30 7246 C 630.286 -5.55701 -1.88184 0
M  V30 7247 C 632.638 -6.08568 -1.72706 0
M  V30 7248 C 631.302 -6.47482 -1.62244 0
M  V30 7249 H 630.572 -0.520748 -0.527164 0
M  V30 7250 H 633.219 -1.7505 -0.776524 0
M  V30 7251 H 631.524 -1.99511 -3.37198 0
M  V30 7252 H 633.221 -2.36336 -3.23954 0
M  V30 7253 H 629.811 -3.53855 -2.41836 0
M  V30 7254 H 633.995 -4.47854 -2.1387 0
M  V30 7255 H 629.251 -5.84718 -1.78648 0
M  V30 7256 H 633.425 -6.79688 -1.5165 0
M  V30 7257 H 631.052 -7.48387 -1.33496 0
M  V30 7258 N 632.627 0.916307 -1.28225 0
M  V30 7259 C 633.855 1.69901 -1.18073 0
M  V30 7260 C 634.27 1.86988 0.260968 0
M  V30 7261 O 633.627 1.39505 1.17663 0
M  V30 7262 C 633.678 3.09254 -1.87201 0
M  V30 7263 O 633.399 2.92959 -3.2574 0
M  V30 7264 C 634.9 4.0362 -1.83319 0
M  V30 7265 H 632.12 0.531181 -0.409985 0
M  V30 7266 H 634.664 1.14703 -1.69303 0
M  V30 7267 H 632.819 3.61277 -1.39848 0
M  V30 7268 H 633.233 3.81139 -3.60324 0
M  V30 7269 H 634.707 4.98873 -2.36282 0
M  V30 7270 H 635.184 4.3176 -0.805007 0
M  V30 7271 H 635.79 3.57524 -2.3034 0
M  V30 7272 N 634.105 1.10431 1.1244 0
M  V30 7273 C 635.33 0.869089 1.88313 0
M  V30 7274 C 635.755 -0.574912 1.79099 0
M  V30 7275 O 635.113 -1.40496 1.14589 0
M  V30 7276 C 635.161 1.32208 3.3549 0
M  V30 7277 O 634.265 0.487092 4.09513 0
M  V30 7278 H 633.606 0.313894 0.585121 0
M  V30 7279 H 636.136 1.47111 1.42195 0
M  V30 7280 H 636.146 1.31201 3.86329 0
M  V30 7281 H 634.821 2.37364 3.41513 0
M  V30 7282 H 633.398 0.562372 3.68635 0
M  V30 7283 N 635.583 -1.29855 0.893053 0
M  V30 7284 C 636.811 -1.99976 0.530788 0
M  V30 7285 C 637.226 -1.66889 -0.882799 0
M  V30 7286 O 636.583 -0.910352 -1.58173 0
M  V30 7287 C 636.634 -3.54547 0.705587 0
M  V30 7288 O 636.355 -3.86458 2.06353 0
M  V30 7289 C 637.856 -4.41937 0.347387 0
M  V30 7290 H 635.076 -0.639129 0.204339 0
M  V30 7291 H 637.62 -1.65549 1.20057 0
M  V30 7292 H 635.775 -3.87311 0.0830685 0
M  V30 7293 H 636.189 -4.81146 2.08803 0
M  V30 7294 H 637.663 -5.4954 0.520557 0
M  V30 7295 H 638.14 -4.33339 -0.715139 0
M  V30 7296 H 638.746 -4.14633 0.946567 0
M  V30 7297 N 637.061 -0.65484 -1.43351 0
M  V30 7298 C 638.009 0.0476784 -2.32551 0
M  V30 7299 C 639.003 0.811403 -1.48703 0
M  V30 7300 O 640.209 0.721621 -1.64902 0
M  V30 7301 H 636.584 0.0342038 -0.751222 0
M  V30 7302 H 638.555 -0.722342 -2.89525 0
M  V30 7303 C 637.304 0.999251 -3.33032 0
M  V30 7304 H 636.627 0.421005 -3.97577 0
M  V30 7305 H 638.067 1.45986 -3.98076 0
M  V30 7306 C 636.526 2.09606 -2.63756 0
M  V30 7307 O 637.056 3.18004 -2.4543 0
M  V30 7308 N 635.262 1.86207 -2.23103 0
M  V30 7309 H 634.809 0.980555 -2.38208 0
M  V30 7310 H 634.767 2.59787 -1.77081 0
M  V30 7311 N 638.539 1.52521 -0.396863 0
M  V30 7312 C 639.487 2.28217 0.44943 0
M  V30 7313 C 640.481 1.32416 1.05652 0
M  V30 7314 O 641.687 1.49925 0.996124 0
M  V30 7315 H 638.062 0.733966 0.1637 0
M  V30 7316 H 640.033 2.97658 -0.210367 0
M  V30 7317 C 638.782 3.10713 1.56054 0
M  V30 7318 H 638.105 3.84291 1.10273 0
M  V30 7319 H 639.545 3.66803 2.12677 0
M  V30 7320 C 638.004 2.23499 2.52091 0
M  V30 7321 O 638.534 1.8669 3.55682 0
M  V30 7322 N 636.74 1.8751 2.2201 0
M  V30 7323 H 636.287 2.17643 1.37802 0
M  V30 7324 H 636.245 1.29448 2.86514 0
M  V30 7325 N 640.017 0.126909 1.57088 0
M  V30 7326 C 640.967 -0.831678 2.1229 0
M  V30 7327 C 641.951 -1.22292 1.04564 0
M  V30 7328 O 643.143 -1.19269 1.30782 0
M  V30 7329 C 640.272 -2.07866 2.73215 0
M  V30 7330 C 639.358 -1.71143 3.88035 0
M  V30 7331 N 639.749 -1.05136 4.94753 0
M  V30 7332 C 638.047 -2.00549 3.98367 0
M  V30 7333 C 638.748 -0.877257 5.75047 0
M  V30 7334 N 637.724 -1.40477 5.25135 0
M  V30 7335 H 641.526 -0.317926 2.92175 0
M  V30 7336 H 639.04 -0.0753052 1.62225 0
M  V30 7337 H 641.037 -2.77516 3.11111 0
M  V30 7338 H 639.697 -2.59778 1.94796 0
M  V30 7339 H 640.708 -0.71442 5.12949 0
M  V30 7340 H 637.385 -2.54452 3.30999 0
M  V30 7341 H 638.775 -0.358536 6.70943 0
M  V30 7342 N 641.495 -1.56914 -0.146875 0
M  V30 7343 C 642.744 -1.82546 -0.857898 0
M  V30 7344 C 643.057 -0.708169 -1.8233 0
M  V30 7345 O 644.263 -0.850093 -2.57848 0
M  V30 7346 C 642.719 -3.23548 -1.57623 0
M  V30 7347 C 642.327 -4.43212 -0.653224 0
M  V30 7348 C 644.071 -3.58453 -2.27402 0
M  V30 7349 C 641.978 -5.75237 -1.37318 0
M  V30 7350 H 640.908 -0.680786 -0.32411 0
M  V30 7351 H 643.559 -1.83166 -0.110639 0
M  V30 7352 H 641.941 -3.17315 -2.36912 0
M  V30 7353 H 643.115 -4.60682 0.104452 0
M  V30 7354 H 641.43 -4.16351 -0.0638336 0
M  V30 7355 H 644.027 -4.54349 -2.81907 0
M  V30 7356 H 644.37 -2.84516 -3.03901 0
M  V30 7357 H 644.903 -3.66347 -1.55032 0
M  V30 7358 H 641.642 -6.52269 -0.650041 0
M  V30 7359 H 641.162 -5.61703 -2.10357 0
M  V30 7360 H 642.841 -6.18039 -1.91406 0
M  V30 7361 N 642.974 0.416227 -1.52004 0
M  V30 7362 C 643.921 1.50666 -1.74838 0
M  V30 7363 C 644.891 1.55245 -0.590599 0
M  V30 7364 O 646.076 1.71928 -0.827374 0
M  V30 7365 C 643.216 2.88185 -1.89851 0
M  V30 7366 C 642.329 2.92971 -3.17478 0
M  V30 7367 C 641.464 4.21745 -3.22962 0
M  V30 7368 C 640.503 4.20478 -4.4482 0
M  V30 7369 N 639.64 5.40811 -4.47736 0
M  V30 7370 H 644.48 1.30498 -2.67907 0
M  V30 7371 H 642.017 0.633568 -1.32757 0
M  V30 7372 H 643.975 3.68007 -1.96537 0
M  V30 7373 H 642.605 3.06865 -1.00169 0
M  V30 7374 H 641.657 2.05684 -3.19997 0
M  V30 7375 H 642.969 2.87899 -4.07328 0
M  V30 7376 H 642.123 5.09954 -3.28682 0
M  V30 7377 H 640.862 4.29503 -2.31038 0
M  V30 7378 H 639.867 3.30659 -4.39254 0
M  V30 7379 H 641.092 4.14366 -5.38031 0
M  V30 7380 H 639.038 5.4925 -3.58692 0
M  V30 7381 H 638.955 5.37705 -5.31422 0
M  V30 7382 H 640.223 6.30993 -4.57676 0
M  V30 7383 N 644.452 1.42507 0.673017 0
M  V30 7384 C 645.4 1.46362 1.80779 0
M  V30 7385 C 646.394 0.339166 1.6597 0
M  V30 7386 O 647.6 0.512262 1.72557 0
M  V30 7387 H 643.975 0.458433 0.596107 0
M  V30 7388 H 645.946 2.41953 1.74646 0
M  V30 7389 C 644.695 1.38462 3.18941 0
M  V30 7390 H 644.018 2.24283 3.30964 0
M  V30 7391 H 645.458 1.45221 3.98355 0
M  V30 7392 C 643.917 0.0996354 3.36753 0
M  V30 7393 O 644.447 -0.846894 3.92671 0
M  V30 7394 N 642.653 0.016211 2.90595 0
M  V30 7395 H 642.2 0.78725 2.45276 0
M  V30 7396 H 642.158 -0.84291 3.0289 0
M  V30 7397 N 645.93 -0.909495 1.28709 0
M  V30 7398 C 646.862 -2.01729 1.08804 0
M  V30 7399 C 647.875 -1.62755 0.0384739 0
M  V30 7400 O 649.064 -1.76259 0.281977 0
M  V30 7401 C 646.164 -3.32952 0.63217 0
M  V30 7402 C 645.337 -4.00512 1.75809 0
M  V30 7403 C 644.396 -5.10019 1.29488 0
M  V30 7404 O 643.422 -5.32986 1.99787 0
M  V30 7405 N 644.624 -5.80278 0.1604 0
M  V30 7406 H 647.389 -2.19362 2.04207 0
M  V30 7407 H 644.95 -1.08106 1.20518 0
M  V30 7408 H 646.942 -4.03543 0.305802 0
M  V30 7409 H 645.512 -3.11759 -0.229134 0
M  V30 7410 H 644.732 -3.23413 2.25383 0
M  V30 7411 H 646.02 -4.42395 2.51325 0
M  V30 7412 H 645.418 -5.64094 -0.425937 0
M  V30 7413 H 643.975 -6.51713 -0.106663 0
M  V30 7414 N 647.408 -1.11026 -1.11852 0
M  V30 7415 C 648.685 -0.768347 -1.79877 0
M  V30 7416 C 649.065 0.744261 -1.97545 0
M  V30 7417 O 648.413 1.67271 -1.55669 0
M  V30 7418 C 648.623 -1.52648 -3.13846 0
M  V30 7419 C 649.971 -1.70297 -3.88953 0
M  V30 7420 O 650.995 -1.49037 -3.23522 0
M  V30 7421 O 649.854 -2.05593 -5.06353 0
M  V30 7422 H 646.948 -0.277891 -0.778913 0
M  V30 7423 H 649.494 -1.21343 -1.18633 0
M  V30 7424 H 648.266 -2.55564 -2.96315 0
M  V30 7425 H 647.889 -1.07466 -3.82801 0
M  V30 7426 N 648.886 1.2938 -0.899927 0
M  V30 7427 C 649.834 2.29675 -0.367698 0
M  V30 7428 C 650.828 1.60787 0.533282 0
M  V30 7429 O 652.034 1.75126 0.416058 0
M  V30 7430 H 648.409 0.745284 -0.100279 0
M  V30 7431 H 650.38 2.72008 -1.22696 0
M  V30 7432 C 649.129 3.45512 0.389483 0
M  V30 7433 H 648.452 3.98713 -0.294575 0
M  V30 7434 H 649.892 4.17725 0.726744 0
M  V30 7435 C 648.351 2.969 1.59223 0
M  V30 7436 O 648.881 2.98195 2.69152 0
M  V30 7437 N 647.087 2.52728 1.43447 0
M  V30 7438 H 646.634 2.51873 0.540148 0
M  V30 7439 H 646.592 2.20561 2.24054 0
M  V30 7440 N 650.364 0.662433 1.43002 0
M  V30 7441 C 651.312 -0.035345 2.32573 0
M  V30 7442 C 652.306 -0.803505 1.49131 0
M  V30 7443 O 653.512 -0.712865 1.65282 0
M  V30 7444 H 649.887 -0.0302194 0.751393 0
M  V30 7445 H 651.858 0.737686 2.89138 0
M  V30 7446 C 650.607 -0.981575 3.33557 0
M  V30 7447 H 649.93 -0.399914 3.97795 0
M  V30 7448 H 651.37 -1.43873 3.98844 0
M  V30 7449 C 649.829 -2.08204 2.64863 0
M  V30 7450 O 650.359 -3.16698 2.47113 0
M  V30 7451 N 648.565 -1.85022 2.24088 0
M  V30 7452 H 648.112 -0.967909 2.38724 0
M  V30 7453 H 648.07 -2.58845 1.78457 0
M  V30 7454 N 651.842 -1.52309 0.404946 0
M  V30 7455 C 652.789 -2.26898 -0.422597 0
M  V30 7456 C 653.759 -1.2914 -1.04461 0
M  V30 7457 O 654.944 -1.57996 -1.06967 0
M  V30 7458 C 652.084 -3.09053 -1.53559 0
M  V30 7459 C 651.197 -4.21762 -0.934908 0
M  V30 7460 C 650.332 -4.91283 -2.02025 0
M  V30 7461 C 649.371 -5.95962 -1.39628 0
M  V30 7462 N 648.508 -6.59017 -2.42159 0
M  V30 7463 H 653.348 -2.97188 0.219903 0
M  V30 7464 H 650.885 -1.46607 0.120282 0
M  V30 7465 H 652.843 -3.54987 -2.19181 0
M  V30 7466 H 651.473 -2.40942 -2.14818 0
M  V30 7467 H 650.525 -3.80029 -0.167854 0
M  V30 7468 H 651.837 -4.96864 -0.439073 0
M  V30 7469 H 650.991 -5.40601 -2.75383 0
M  V30 7470 H 649.73 -4.15741 -2.54973 0
M  V30 7471 H 648.735 -5.45968 -0.648023 0
M  V30 7472 H 649.96 -6.73445 -0.874553 0
M  V30 7473 H 647.906 -5.86306 -2.94247 0
M  V30 7474 H 647.823 -7.2978 -1.97376 0
M  V30 7475 H 649.091 -7.12974 -3.15099 0
M  V30 7476 N 653.32 -0.135238 -1.57019 0
M  V30 7477 C 654.267 0.808908 -2.1616 0
M  V30 7478 C 655.237 1.25234 -1.09113 0
M  V30 7479 O 656.422 1.32697 -1.37099 0
M  V30 7480 C 653.562 2.04729 -2.77813 0
M  V30 7481 C 652.675 1.65074 -3.99218 0
M  V30 7482 C 651.81 2.84002 -4.48906 0
M  V30 7483 C 650.849 2.40663 -5.62803 0
M  V30 7484 N 649.986 3.5256 -6.07162 0
M  V30 7485 H 654.826 0.297751 -2.96509 0
M  V30 7486 H 652.363 0.135264 -1.46477 0
M  V30 7487 H 654.321 2.7731 -3.11697 0
M  V30 7488 H 652.951 2.53275 -2.00128 0
M  V30 7489 H 652.003 0.823029 -3.7139 0
M  V30 7490 H 653.315 1.29236 -4.81767 0
M  V30 7491 H 652.469 3.64788 -4.84783 0
M  V30 7492 H 651.208 3.23076 -3.65339 0
M  V30 7493 H 650.213 1.58314 -5.26514 0
M  V30 7494 H 651.438 2.02687 -6.48147 0
M  V30 7495 H 649.384 3.91278 -5.26534 0
M  V30 7496 H 649.301 3.20699 -6.84608 0
M  V30 7497 H 650.569 4.33738 -6.47682 0
M  V30 7498 N 654.798 1.5699 0.138552 0
M  V30 7499 C 655.731 1.94064 1.2006 0
M  V30 7500 C 656.709 0.807601 1.41126 0
M  V30 7501 O 657.893 1.06399 1.556 0
M  V30 7502 C 655.02 2.21999 2.55801 0
M  V30 7503 C 654.066 3.44617 2.5128 0
M  V30 7504 S 654.899 4.97888 1.97149 0
M  V30 7505 C 656.055 5.28954 3.34602 0
M  V30 7506 H 656.288 2.83843 0.884337 0
M  V30 7507 H 653.821 1.50507 0.344517 0
M  V30 7508 H 655.779 2.38772 3.33914 0
M  V30 7509 H 654.44 1.32869 2.84613 0
M  V30 7510 H 653.633 3.61466 3.51224 0
M  V30 7511 H 653.235 3.27129 1.8128 0
M  V30 7512 H 655.527 5.22938 4.30745 0
M  V30 7513 H 656.47 6.30346 3.22598 0
M  V30 7514 H 656.878 4.56455 3.32128 0
M  V30 7515 N 656.276 -0.40816 1.52223 0
M  V30 7516 C 657.516 -1.16418 1.68006 0
M  V30 7517 C 657.88 -1.87749 0.401793 0
M  V30 7518 O 659.081 -2.65245 0.435743 0
M  V30 7519 C 657.352 -2.13143 2.86889 0
M  V30 7520 S 658.911 -2.96839 3.2316 0
M  V30 7521 H 655.729 -0.394373 0.5916 0
M  V30 7522 H 658.331 -0.451349 1.90219 0
M  V30 7523 H 657.035 -1.59428 3.78168 0
M  V30 7524 H 656.566 -2.88963 2.66953 0
M  V30 7525 H 658.581 -4.151 2.71857 0
M  V30 7526 N 657.755 -1.42862 -0.66545 0
M  V30 7527 C 658.705 -1.43521 -1.7716 0
M  V30 7528 C 659.689 -0.305267 -1.57978 0
M  V30 7529 O 660.881 -0.548176 -1.68297 0
M  V30 7530 C 658.01 -1.34914 -3.15679 0
M  V30 7531 C 657.096 -2.5289 -3.40452 0
M  V30 7532 N 657.487 -3.78284 -3.3576 0
M  V30 7533 C 655.785 -2.47351 -3.71124 0
M  V30 7534 C 656.486 -4.56701 -3.60276 0
M  V30 7535 N 655.462 -3.87249 -3.81496 0
M  V30 7536 H 659.264 -2.38357 -1.7194 0
M  V30 7537 H 656.778 -1.37342 -0.866653 0
M  V30 7538 H 658.775 -1.33468 -3.94958 0
M  V30 7539 H 657.435 -0.410881 -3.2209 0
M  V30 7540 H 658.446 -4.10746 -3.15448 0
M  V30 7541 H 655.123 -1.62152 -3.84725 0
M  V30 7542 H 656.513 -5.65704 -3.6253 0
M  V30 7543 N 659.233 0.902656 -1.29189 0
M  V30 7544 C 660.181 2.0278 -1.13943 0
M  V30 7545 C 661.175 1.69308 -0.055787 0
M  V30 7546 O 662.381 1.78707 -0.215371 0
M  V30 7547 H 658.756 0.664595 -0.351877 0
M  V30 7548 H 660.727 2.12778 -2.09208 0
M  V30 7549 C 659.476 3.37657 -0.82966 0
M  V30 7550 H 658.799 3.63913 -1.65551 0
M  V30 7551 H 660.239 4.17078 -0.762998 0
M  V30 7552 C 658.698 3.33648 0.466991 0
M  V30 7553 O 659.228 3.72886 1.49395 0
M  V30 7554 N 657.434 2.86745 0.471761 0
M  V30 7555 H 656.981 2.55009 -0.364406 0
M  V30 7556 H 656.939 2.84446 1.33933 0
M  V30 7557 N 660.711 1.11618 1.11262 0
M  V30 7558 C 661.659 0.771291 2.1944 0
M  V30 7559 C 662.653 -0.238073 1.67719 0
M  V30 7560 O 663.859 -0.0971628 1.79738 0
M  V30 7561 H 660.234 0.231548 0.715465 0
M  V30 7562 H 662.205 1.69226 2.45775 0
M  V30 7563 C 660.954 0.232765 3.4692 0
M  V30 7564 H 660.277 1.00072 3.87073 0
M  V30 7565 H 661.717 0.0296561 4.2399 0
M  V30 7566 C 660.176 -1.03738 3.20531 0
M  V30 7567 O 660.706 -2.11675 3.41404 0
M  V30 7568 N 658.912 -0.960906 2.74253 0
M  V30 7569 H 658.459 -0.0824323 2.57468 0
M  V30 7570 H 658.417 -1.8114 2.56974 0
M  V30 7571 N 662.189 -1.289 0.906776 0
M  V30 7572 C 663.137 -2.29477 0.379873 0
M  V30 7573 C 664.131 -1.61068 -0.524747 0
M  V30 7574 O 665.337 -1.75344 -0.406765 0
M  V30 7575 H 661.712 -0.744742 0.10423 0
M  V30 7576 H 663.683 -2.71353 1.24137 0
M  V30 7577 C 662.432 -3.45713 -0.371154 0
M  V30 7578 H 661.755 -3.98551 0.315716 0
M  V30 7579 H 663.195 -4.18105 -0.704581 0
M  V30 7580 C 661.654 -2.9774 -1.57646 0
M  V30 7581 O 662.184 -2.99618 -2.67567 0
M  V30 7582 N 660.39 -2.53485 -1.42105 0
M  V30 7583 H 659.937 -2.52156 -0.526783 0
M  V30 7584 H 659.895 -2.21747 -2.22881 0
M  V30 7585 N 663.667 -0.670007 -1.42649 0
M  V30 7586 C 664.944 -0.119451 -1.95235 0
M  V30 7587 C 665.324 1.36461 -1.61064 0
M  V30 7588 O 664.672 2.09843 -0.904329 0
M  V30 7589 C 664.882 -0.383498 -3.46887 0
M  V30 7590 C 666.23 -0.297431 -4.23557 0
M  V30 7591 O 667.254 -0.31698 -3.54787 0
M  V30 7592 O 666.113 -0.235507 -5.45992 0
M  V30 7593 H 663.207 -8.85474e-05 -0.827 0
M  V30 7594 H 665.753 -0.744406 -1.52501 0
M  V30 7595 H 664.525 -1.41174 -3.64946 0
M  V30 7596 H 664.148 0.273702 -3.96657 0
M  V30 7597 N 665.145 1.52092 -0.413018 0
M  V30 7598 C 666.093 2.28681 0.425199 0
M  V30 7599 C 667.087 1.3353 1.04241 0
M  V30 7600 O 668.293 1.50973 0.980166 0
M  V30 7601 H 664.668 0.735661 0.155906 0
M  V30 7602 H 666.639 2.97418 -0.241926 0
M  V30 7603 C 665.388 3.1235 1.5275 0
M  V30 7604 H 664.711 3.85439 1.06191 0
M  V30 7605 H 666.151 3.69038 2.08774 0
M  V30 7606 C 664.61 2.26161 2.49706 0
M  V30 7607 O 665.14 1.90452 3.53682 0
M  V30 7608 N 663.346 1.89854 2.20008 0
M  V30 7609 H 662.893 2.19092 1.35486 0
M  V30 7610 H 662.851 1.3248 2.85125 0
M  V30 7611 N 666.623 0.143563 1.56945 0
M  V30 7612 C 667.553 -0.7936 2.196 0
M  V30 7613 C 668.534 -1.25955 1.14321 0
M  V30 7614 O 669.719 -1.31773 1.42651 0
M  V30 7615 C 666.849 -2.03424 2.81489 0
M  V30 7616 C 665.803 -1.70519 3.92565 0
M  V30 7617 C 665.129 -3.01817 4.41373 0
M  V30 7618 C 666.429 -0.95449 5.13504 0
M  V30 7619 H 668.123 -0.271423 2.98167 0
M  V30 7620 H 665.669 -0.12911 1.4342 0
M  V30 7621 H 667.622 -2.69463 3.23987 0
M  V30 7622 H 666.346 -2.58008 2.00248 0
M  V30 7623 H 665.005 -1.06859 3.5068 0
M  V30 7624 H 664.653 -3.54386 3.56959 0
M  V30 7625 H 664.353 -2.80565 5.16292 0
M  V30 7626 H 665.877 -3.68934 4.86539 0
M  V30 7627 H 667.291 -1.5169 5.52868 0
M  V30 7628 H 665.688 -0.842035 5.94163 0
M  V30 7629 H 666.758 0.0544033 4.84869 0
M  V30 7630 N 668.101 -1.57061 -0.130224 0
M  V30 7631 C 669.051 -1.95941 -1.16582 0
M  V30 7632 C 670.035 -0.832858 -1.37667 0
M  V30 7633 O 671.227 -1.09647 -1.38948 0
M  V30 7634 C 668.356 -2.35777 -2.49528 0
M  V30 7635 C 667.442 -3.5504 -2.31964 0
M  V30 7636 N 667.833 -4.71071 -1.84189 0
M  V30 7637 C 666.131 -3.60453 -2.62659 0
M  V30 7638 C 666.832 -5.53128 -1.80068 0
M  V30 7639 N 665.808 -4.95303 -2.24001 0
M  V30 7640 H 669.61 -2.83117 -0.788806 0
M  V30 7641 H 667.124 -1.58842 -0.3381 0
M  V30 7642 H 669.121 -2.61843 -3.24413 0
M  V30 7643 H 667.781 -1.49961 -2.87996 0
M  V30 7644 H 668.792 -4.94504 -1.53903 0
M  V30 7645 H 665.469 -2.85217 -3.0489 0
M  V30 7646 H 666.859 -6.56182 -1.4448 0
M  V30 7647 N 669.579 0.400081 -1.52437 0
M  V30 7648 C 670.527 1.50851 -1.7705 0
M  V30 7649 C 671.521 1.56928 -0.637969 0
M  V30 7650 O 672.727 1.60226 -0.820212 0
M  V30 7651 H 669.102 0.50186 -0.560036 0
M  V30 7652 H 671.073 1.27281 -2.69893 0
M  V30 7653 C 669.822 2.88117 -1.94638 0
M  V30 7654 H 669.145 2.84187 -2.81208 0
M  V30 7655 H 670.585 3.64942 -2.15855 0
M  V30 7656 C 669.044 3.29206 -0.715899 0
M  V30 7657 O 669.574 4.01544 0.111944 0
M  V30 7658 N 667.78 2.85363 -0.549191 0
M  V30 7659 H 667.327 2.26664 -1.22397 0
M  V30 7660 H 667.285 3.13214 0.27278 0
M  V30 7661 N 671.057 1.43213 0.657864 0
M  V30 7662 C 672.306 1.43871 1.41365 0
M  V30 7663 C 672.619 0.064898 1.95492 0
M  V30 7664 O 673.825 -0.0510796 2.71452 0
M  V30 7665 C 672.281 2.53158 2.55811 0
M  V30 7666 C 671.889 3.96624 2.08311 0
M  V30 7667 C 673.633 2.63004 3.3321 0
M  V30 7668 C 671.54 4.97385 3.1994 0
M  V30 7669 H 670.47 0.535174 0.531136 0
M  V30 7670 H 673.121 1.69185 0.710543 0
M  V30 7671 H 671.503 2.21037 3.2857 0
M  V30 7672 H 672.677 4.38182 1.42593 0
M  V30 7673 H 670.992 3.90781 1.43804 0
M  V30 7674 H 673.589 3.3546 4.16378 0
M  V30 7675 H 673.932 1.67918 3.80932 0
M  V30 7676 H 674.465 2.94403 2.67529 0
M  V30 7677 H 671.204 5.94007 2.77192 0
M  V30 7678 H 670.724 4.60444 3.84385 0
M  V30 7679 H 672.403 5.19877 3.85145 0
M  V30 7680 N 672.536 -0.895792 1.29666 0
M  V30 7681 C 673.766 -1.67757 1.20586 0
M  V30 7682 C 674.174 -1.87729 -0.235432 0
M  V30 7683 O 673.517 -1.41706 -1.16898 0
M  V30 7684 C 673.579 -3.08117 1.85215 0
M  V30 7685 C 673.243 -3.1136 3.3452 0
M  V30 7686 C 674.24 -2.91217 4.30684 0
M  V30 7687 C 671.925 -3.33302 3.75786 0
M  V30 7688 C 673.919 -2.92955 5.66089 0
M  V30 7689 C 671.606 -3.3467 5.11311 0
M  V30 7690 C 672.604 -3.14519 6.06273 0
M  V30 7691 O 672.292 -3.15684 7.39323 0
M  V30 7692 H 672.024 -0.530601 0.418854 0
M  V30 7693 H 674.578 -1.12831 1.71634 0
M  V30 7694 H 672.808 -3.64661 1.28683 0
M  V30 7695 H 674.497 -3.68399 1.70403 0
M  V30 7696 H 675.263 -2.74074 4.00136 0
M  V30 7697 H 671.142 -3.48025 3.02324 0
M  V30 7698 H 674.686 -2.77145 6.40185 0
M  V30 7699 H 670.583 -3.51346 5.41504 0
M  V30 7700 H 671.351 -3.31924 7.48177 0
M  V30 7701 N 674.014 -1.12206 -1.10668 0
M  V30 7702 C 675.425 -0.890657 -1.64086 0
M  V30 7703 C 675.776 0.575502 -1.8757 0
M  V30 7704 O 674.901 1.4394 -1.61587 0
M  V30 7705 C 675.496 -1.61029 -2.98085 0
M  V30 7706 C 674.055 -1.4251 -3.48379 0
M  V30 7707 C 673.202 -1.64778 -2.23033 0
M  V30 7708 H 676.153 -1.27718 -0.94201 0
M  V30 7709 H 676.174 -1.05993 -3.65439 0
M  V30 7710 H 675.686 -2.67735 -2.80962 0
M  V30 7711 H 673.787 -0.380497 -3.70652 0
M  V30 7712 H 673.9 -2.17959 -4.26651 0
M  V30 7713 H 672.264 -1.07171 -2.31055 0
M  V30 7714 H 673.047 -2.72776 -2.08443 0
M  V30 7715 N 675.492 1.28418 -0.913599 0
M  V30 7716 C 676.739 1.94981 -0.546674 0
M  V30 7717 C 677.067 1.7192 0.909606 0
M  V30 7718 O 676.322 1.03314 1.66207 0
M  V30 7719 C 676.621 3.48283 -0.802099 0
M  V30 7720 C 676.287 3.91444 -2.2379 0
M  V30 7721 C 674.949 4.02939 -2.63046 0
M  V30 7722 C 677.301 4.13542 -3.17227 0
M  V30 7723 C 674.629 4.3391 -3.94891 0
M  V30 7724 C 676.981 4.45992 -4.48636 0
M  V30 7725 C 675.645 4.55698 -4.87746 0
M  V30 7726 H 674.915 0.713487 -0.200042 0
M  V30 7727 H 677.562 1.52756 -1.15489 0
M  V30 7728 H 675.867 3.91643 -0.111076 0
M  V30 7729 H 677.564 3.97903 -0.497375 0
M  V30 7730 H 674.154 3.83024 -1.9233 0
M  V30 7731 H 678.338 4.04114 -2.88107 0
M  V30 7732 H 673.594 4.39631 -4.24894 0
M  V30 7733 H 677.768 4.62038 -5.21051 0
M  V30 7734 H 675.395 4.79451 -5.89942 0
M  V30 7735 N 676.97 0.677563 1.42291 0
M  V30 7736 C 678.247 0.129803 1.95169 0
M  V30 7737 C 678.627 -1.35605 1.61786 0
M  V30 7738 O 677.975 -2.09361 0.915444 0
M  V30 7739 C 678.185 0.401889 3.46678 0
M  V30 7740 C 679.533 0.319889 4.23393 0
M  V30 7741 O 680.557 0.33579 3.54614 0
M  V30 7742 O 679.416 0.264459 5.4586 0
M  V30 7743 H 676.51 0.00447433 0.826988 0
M  V30 7744 H 679.056 0.752483 1.52105 0
M  V30 7745 H 677.828 1.43108 3.64192 0
M  V30 7746 H 677.451 -0.252662 3.96796 0
M  V30 7747 N 678.448 -1.51871 0.421078 0
M  V30 7748 C 679.725 -1.9447 -0.20993 0
M  V30 7749 C 680.105 -1.35875 -1.61558 0
M  V30 7750 O 679.453 -0.539294 -2.22045 0
M  V30 7751 C 679.663 -3.48402 -0.204165 0
M  V30 7752 C 681.011 -4.2254 -0.417696 0
M  V30 7753 O 682.035 -3.55074 -0.282999 0
M  V30 7754 O 680.894 -5.422 -0.684239 0
M  V30 7755 H 677.988 -0.815283 -0.138718 0
M  V30 7756 H 680.534 -1.62832 0.477884 0
M  V30 7757 H 679.306 -3.83464 0.779183 0
M  V30 7758 H 678.929 -3.86436 -0.935576 0
M  V30 7759 N 679.926 -0.151884 -1.56866 0
M  V30 7760 C 680.856 0.781943 -2.20018 0
M  V30 7761 C 681.837 1.25347 -1.14987 0
M  V30 7762 O 683.022 1.31015 -1.43348 0
M  V30 7763 C 680.152 2.01928 -2.82564 0
M  V30 7764 C 679.106 1.68434 -3.93464 0
M  V30 7765 C 678.432 2.99472 -4.42968 0
M  V30 7766 C 679.732 0.927244 -5.14003 0
M  V30 7767 H 681.426 0.255607 -2.98307 0
M  V30 7768 H 678.972 0.121502 -1.43486 0
M  V30 7769 H 680.925 2.67741 -3.25411 0
M  V30 7770 H 679.649 2.56943 -2.01614 0
M  V30 7771 H 678.308 1.04998 -3.51242 0
M  V30 7772 H 677.956 3.52488 -3.58834 0
M  V30 7773 H 677.656 2.77823 -5.17772 0
M  V30 7774 H 679.18 3.66348 -4.88489 0
M  V30 7775 H 680.594 1.48756 -5.53665 0
M  V30 7776 H 678.991 0.810513 -5.94601 0
M  V30 7777 H 680.061 -0.0801163 -4.84834 0
M  V30 7778 N 681.404 1.57128 0.121893 0
M  V30 7779 C 682.644 1.86517 0.836113 0
M  V30 7780 C 683.008 0.739497 1.77188 0
M  V30 7781 O 684.209 0.91508 2.52744 0
M  V30 7782 C 682.48 3.21129 1.56878 0
M  V30 7783 S 684.039 3.72143 2.32497 0
M  V30 7784 H 680.857 0.653923 0.279115 0
M  V30 7785 H 683.459 1.95271 0.0946254 0
M  V30 7786 H 682.163 4.01002 0.873255 0
M  V30 7787 H 681.694 3.15446 2.35069 0
M  V30 7788 H 683.709 3.43413 3.58164 0
M  V30 7789 N 682.882 -0.391992 1.52647 0
M  V30 7790 C 683.83 -1.4991 1.77848 0
M  V30 7791 C 684.824 -1.56587 0.646282 0
M  V30 7792 O 686.03 -1.59789 0.828698 0
M  V30 7793 H 682.405 -0.498883 0.56269 0
M  V30 7794 H 684.376 -1.25847 2.70564 0
M  V30 7795 C 683.125 -2.87081 1.96163 0
M  V30 7796 H 682.448 -2.82692 2.82711 0
M  V30 7797 H 683.888 -3.63792 2.17787 0
M  V30 7798 C 682.347 -3.28822 0.733348 0
M  V30 7799 O 682.877 -4.01598 -0.0906481 0
M  V30 7800 N 681.083 -2.85068 0.564317 0
M  V30 7801 H 680.63 -2.26012 1.23598 0
M  V30 7802 H 680.588 -3.13355 -0.256166 0
M  V30 7803 N 684.36 -1.4356 -0.65026 0
M  V30 7804 C 685.27 -1.514 -1.79207 0
M  V30 7805 C 686.286 -0.400895 -1.69319 0
M  V30 7806 O 687.462 -0.655458 -1.90436 0
M  V30 7807 C 684.527 -1.43737 -3.155 0
M  V30 7808 C 683.588 -2.65743 -3.37163 0
M  V30 7809 C 682.821 -2.58436 -4.66954 0
M  V30 7810 O 683.044 -1.63374 -5.46503 0
M  V30 7811 O 681.978 -3.48984 -4.90402 0
M  V30 7812 H 685.804 -2.47825 -1.75547 0
M  V30 7813 H 683.389 -1.25594 -0.809111 0
M  V30 7814 H 685.271 -1.41916 -3.96784 0
M  V30 7815 H 683.946 -0.504488 -3.19745 0
M  V30 7816 H 682.853 -2.73136 -2.55632 0
M  V30 7817 H 684.186 -3.58014 -3.37768 0
M  V30 7818 N 685.838 0.888903 -1.30139 0
M  V30 7819 C 687.085 1.64037 -1.18736 0
M  V30 7820 C 687.413 1.92771 0.258801 0
M  V30 7821 O 686.668 1.54427 1.20212 0
M  V30 7822 C 686.967 2.99041 -1.95728 0
M  V30 7823 C 686.633 2.89874 -3.45375 0
M  V30 7824 C 685.295 2.87082 -3.86183 0
M  V30 7825 C 687.647 2.78289 -4.40687 0
M  V30 7826 C 684.975 2.70536 -5.20603 0
M  V30 7827 C 687.327 2.63282 -5.75209 0
M  V30 7828 C 685.991 2.58861 -6.15262 0
M  V30 7829 H 685.261 0.600253 -0.434485 0
M  V30 7830 H 687.908 1.0338 -1.61198 0
M  V30 7831 H 686.213 3.63626 -1.45888 0
M  V30 7832 H 687.91 3.56139 -1.843 0
M  V30 7833 H 684.5 2.92856 -3.12943 0
M  V30 7834 H 688.684 2.79516 -4.10103 0
M  V30 7835 H 683.94 2.65526 -5.50732 0
M  V30 7836 H 688.114 2.5329 -6.48704 0
M  V30 7837 H 685.741 2.45799 -7.19366 0
M  V30 7838 N 687.317 1.12792 1.10072 0
M  V30 7839 C 688.247 0.821688 2.18565 0
M  V30 7840 C 689.228 -0.21612 1.68721 0
M  V30 7841 O 690.413 -0.0764932 1.94049 0
M  V30 7842 C 687.543 0.279624 3.46172 0
M  V30 7843 C 686.497 1.25092 4.09312 0
M  V30 7844 C 685.823 0.568916 5.31665 0
M  V30 7845 C 687.123 2.60699 4.52585 0
M  V30 7846 H 688.817 1.72888 2.44438 0
M  V30 7847 H 686.363 0.832702 1.17482 0
M  V30 7848 H 688.316 0.053099 4.21367 0
M  V30 7849 H 687.04 -0.662929 3.19801 0
M  V30 7850 H 685.699 1.46332 3.36129 0
M  V30 7851 H 685.347 -0.378898 5.01571 0
M  V30 7852 H 685.047 1.21687 5.74862 0
M  V30 7853 H 686.571 0.351517 6.09587 0
M  V30 7854 H 687.985 2.43465 5.19035 0
M  V30 7855 H 686.382 3.21608 5.06644 0
M  V30 7856 H 687.452 3.1886 3.65317 0
M  V30 7857 N 688.795 -1.27931 0.920396 0
M  V30 7858 C 689.742 -2.27085 0.412422 0
M  V30 7859 C 690.712 -1.57858 -0.516725 0
M  V30 7860 O 691.897 -1.85717 -0.437475 0
M  V30 7861 C 689.037 -3.43466 -0.335399 0
M  V30 7862 C 688.15 -4.27425 0.627017 0
M  V30 7863 C 687.285 -5.31016 -0.139916 0
M  V30 7864 C 686.324 -6.06641 0.815683 0
M  V30 7865 N 685.461 -7.02052 0.0818439 0
M  V30 7866 H 690.301 -2.69913 1.26298 0
M  V30 7867 H 687.838 -1.32732 0.634076 0
M  V30 7868 H 689.796 -4.09744 -0.785226 0
M  V30 7869 H 688.426 -3.01611 -1.15025 0
M  V30 7870 H 687.478 -3.6113 1.19537 0
M  V30 7871 H 688.79 -4.79969 1.35763 0
M  V30 7872 H 687.944 -6.03208 -0.649998 0
M  V30 7873 H 686.683 -4.79257 -0.903543 0
M  V30 7874 H 685.688 -5.33294 1.33708 0
M  V30 7875 H 686.913 -6.60489 1.57897 0
M  V30 7876 H 684.859 -6.52634 -0.663671 0
M  V30 7877 H 684.776 -7.52249 0.752163 0
M  V30 7878 H 686.044 -7.78432 -0.407825 0
M  V30 7879 N 690.273 -0.685099 -1.4193 0
M  V30 7880 C 691.221 -0.00165985 -2.326 0
M  V30 7881 C 692.215 0.779678 -1.50391 0
M  V30 7882 O 693.421 0.68648 -1.66395 0
M  V30 7883 H 689.796 0.0182616 -0.751778 0
M  V30 7884 H 691.767 -0.783592 -2.87928 0
M  V30 7885 C 690.516 0.928385 -3.35077 0
M  V30 7886 H 689.839 0.336578 -3.98381 0
M  V30 7887 H 691.279 1.37509 -4.01083 0
M  V30 7888 C 689.738 2.03964 -2.68142 0
M  V30 7889 O 690.268 3.12727 -2.5212 0
M  V30 7890 N 688.474 1.81433 -2.27003 0
M  V30 7891 H 688.021 0.929807 -2.40234 0
M  V30 7892 H 687.979 2.55973 -1.82552 0
M  V30 7893 N 691.751 1.51645 -0.429126 0
M  V30 7894 C 693 2.01203 0.141538 0
M  V30 7895 C 693.313 1.31828 1.44502 0
M  V30 7896 O 694.519 1.7231 2.09813 0
M  V30 7897 C 692.975 3.58624 0.302786 0
M  V30 7898 C 692.583 4.3693 -0.989775 0
M  V30 7899 C 694.327 4.16353 0.827661 0
M  V30 7900 C 692.234 5.86037 -0.794619 0
M  V30 7901 H 691.164 0.751867 0.05667 0
M  V30 7902 H 693.815 1.74822 -0.557633 0
M  V30 7903 H 692.197 3.81417 1.06476 0
M  V30 7904 H 693.371 4.25887 -1.75945 0
M  V30 7905 H 691.686 3.90614 -1.44256 0
M  V30 7906 H 694.283 5.25455 0.990026 0
M  V30 7907 H 694.626 3.74995 1.80787 0
M  V30 7908 H 695.159 3.97606 0.124213 0
M  V30 7909 H 691.898 6.31792 -1.74697 0
M  V30 7910 H 691.418 5.99765 -0.0645968 0
M  V30 7911 H 693.097 6.45471 -0.444591 0
M  V30 7912 N 693.229 0.160201 1.56784 0
M  V30 7913 C 694.177 -0.791402 2.18723 0
M  V30 7914 C 695.171 -1.24567 1.14801 0
M  V30 7915 O 696.377 -1.21262 1.33025 0
M  V30 7916 H 692.752 -0.273458 0.700517 0
M  V30 7917 H 694.723 -0.244931 2.97393 0
M  V30 7918 C 693.472 -2.01509 2.83354 0
M  V30 7919 H 692.795 -1.67454 3.63041 0
M  V30 7920 H 694.235 -2.66006 3.30177 0
M  V30 7921 C 692.694 -2.83159 1.82545 0
M  V30 7922 O 693.224 -3.79944 1.30405 0
M  V30 7923 N 691.43 -2.47953 1.51552 0
M  V30 7924 H 690.977 -1.69309 1.94144 0
M  V30 7925 H 690.935 -3.02873 0.843519 0
M  V30 7926 N 694.707 -1.5719 -0.113559 0
M  V30 7927 C 695.932 -1.89702 -0.838336 0
M  V30 7928 C 696.357 -0.752679 -1.72384 0
M  V30 7929 O 695.715 0.296575 -1.78858 0
M  V30 7930 C 695.763 -3.20989 -1.64312 0
M  V30 7931 O 694.867 -3.07278 -2.75053 0
M  V30 7932 H 694.208 -0.622339 -0.231496 0
M  V30 7933 H 696.738 -2.04382 -0.0943228 0
M  V30 7934 H 696.748 -3.53843 -2.03123 0
M  V30 7935 H 695.423 -4.03869 -0.993119 0
M  V30 7936 H 694 -2.85901 -2.39406 0
M  V30 7937 N 696.185 0.383891 -1.52853 0
M  V30 7938 C 697.413 1.1495 -1.7203 0
M  V30 7939 C 697.828 1.83578 -0.440957 0
M  V30 7940 O 697.185 1.72872 0.584925 0
M  V30 7941 C 697.236 2.19368 -2.87333 0
M  V30 7942 O 696.957 1.53536 -4.10315 0
M  V30 7943 C 698.458 3.08616 -3.18231 0
M  V30 7944 H 695.678 0.344445 -0.575846 0
M  V30 7945 H 698.222 0.448397 -1.99524 0
M  V30 7946 H 696.377 2.85105 -2.62286 0
M  V30 7947 H 696.791 2.2296 -4.74752 0
M  V30 7948 H 698.265 3.77902 -4.02361 0
M  V30 7949 H 698.742 3.72409 -2.32826 0
M  V30 7950 H 699.348 2.48518 -3.45136 0
M  V30 7951 N 697.663 1.43903 0.642637 0
M  V30 7952 C 698.593 1.52697 1.76652 0
M  V30 7953 C 699.574 0.380816 1.65782 0
M  V30 7954 O 700.759 0.599432 1.84717 0
M  V30 7955 C 697.889 1.45975 3.15133 0
M  V30 7956 C 696.843 2.58949 3.40778 0
M  V30 7957 C 696.169 2.37279 4.79169 0
M  V30 7958 C 697.469 4.01153 3.34475 0
M  V30 7959 H 699.163 2.46766 1.69549 0
M  V30 7960 H 696.709 1.18767 0.814279 0
M  V30 7961 H 698.662 1.5073 3.93521 0
M  V30 7962 H 697.386 0.484162 3.22991 0
M  V30 7963 H 696.045 2.53564 2.64765 0
M  V30 7964 H 695.693 1.37939 4.83717 0
M  V30 7965 H 695.393 3.13016 4.97287 0
M  V30 7966 H 696.917 2.43834 5.59801 0
M  V30 7967 H 698.331 4.07968 4.02784 0
M  V30 7968 H 696.728 4.77001 3.64129 0
M  V30 7969 H 697.798 4.25539 2.32475 0
M  V30 7970 N 699.141 -0.881989 1.30609 0
M  V30 7971 C 700.089 -2.00942 1.17155 0
M  V30 7972 C 701.083 -1.69198 0.0827154 0
M  V30 7973 O 702.289 -1.78342 0.243775 0
M  V30 7974 H 698.664 -0.658913 0.362406 0
M  V30 7975 H 700.635 -2.09423 2.12567 0
M  V30 7976 C 699.384 -3.36294 0.883273 0
M  V30 7977 H 698.707 -3.61233 1.7132 0
M  V30 7978 H 700.147 -4.15812 0.829255 0
M  V30 7979 C 698.606 -3.34348 -0.413851 0
M  V30 7980 O 699.136 -3.75216 -1.43444 0
M  V30 7981 N 697.342 -2.87459 -0.426082 0
M  V30 7982 H 696.889 -2.54397 0.40493 0
M  V30 7983 H 696.847 -2.8654 -1.29391 0
M  V30 7984 N 700.619 -1.13374 -1.09472 0
M  V30 7985 C 701.566 -0.810682 -2.16094 0
M  V30 7986 C 702.536 0.227003 -1.64541 0
M  V30 7987 O 703.721 0.0993538 -1.90541 0
M  V30 7988 C 700.861 -0.282336 -3.43943 0
M  V30 7989 C 699.974 -1.37902 -4.09398 0
M  V30 7990 C 699.109 -0.809066 -5.25002 0
M  V30 7991 C 698.148 -1.88419 -5.82379 0
M  V30 7992 N 697.285 -1.33221 -6.89345 0
M  V30 7993 H 702.125 -1.72397 -2.43071 0
M  V30 7994 H 699.662 -0.860564 -1.19301 0
M  V30 7995 H 701.62 0.0421189 -4.17179 0
M  V30 7996 H 700.25 0.594083 -3.17286 0
M  V30 7997 H 699.302 -1.82008 -3.34032 0
M  V30 7998 H 700.614 -2.19161 -4.48074 0
M  V30 7999 H 699.768 -0.435867 -6.05132 0
M  V30 8000 H 698.507 0.0346058 -4.87688 0
M  V30 8001 H 697.512 -2.26646 -5.00911 0
M  V30 8002 H 698.737 -2.73125 -6.21755 0
M  V30 8003 H 696.683 -0.510535 -6.5401 0
M  V30 8004 H 696.6 -2.08129 -7.26786 0
M  V30 8005 H 697.868 -0.986565 -7.73232 0
M  V30 8006 N 702.098 1.27442 -0.927168 0
M  V30 8007 C 703.045 2.26863 -0.424459 0
M  V30 8008 C 704.015 1.5813 0.508346 0
M  V30 8009 O 705.2 1.85946 0.42762 0
M  V30 8010 C 702.34 3.43639 0.31718 0
M  V30 8011 C 701.453 4.27087 -0.649675 0
M  V30 8012 C 700.588 5.31082 0.111753 0
M  V30 8013 C 699.627 6.062 -0.847843 0
M  V30 8014 N 698.764 7.01999 -0.119074 0
M  V30 8015 H 703.604 2.69239 -1.27728 0
M  V30 8016 H 701.141 1.32394 -0.641106 0
M  V30 8017 H 703.099 4.10155 0.763486 0
M  V30 8018 H 701.729 3.02217 1.13424 0
M  V30 8019 H 700.781 3.60491 -1.21451 0
M  V30 8020 H 702.093 4.79242 -1.38307 0
M  V30 8021 H 701.247 6.03544 0.618 0
M  V30 8022 H 699.986 4.7973 0.878114 0
M  V30 8023 H 698.991 5.32577 -1.36534 0
M  V30 8024 H 700.216 6.59642 -1.61398 0
M  V30 8025 H 698.162 6.52977 0.629051 0
M  V30 8026 H 698.079 7.5184 -0.792046 0
M  V30 8027 H 699.347 7.78638 0.366537 0
M  V30 8028 N 703.576 0.692616 1.41565 0
M  V30 8029 C 704.509 -0.025063 2.28186 0
M  V30 8030 C 705.487 -0.790912 1.42068 0
M  V30 8031 O 706.671 -0.782344 1.71498 0
M  V30 8032 C 703.798 -1.04285 3.22246 0
M  V30 8033 C 702.844 -0.370515 4.24888 0
M  V30 8034 S 703.677 0.884942 5.28137 0
M  V30 8035 C 704.833 -0.131324 6.25762 0
M  V30 8036 H 705.066 0.709626 2.88707 0
M  V30 8037 H 702.599 0.482783 1.46658 0
M  V30 8038 H 704.557 -1.62493 3.7697 0
M  V30 8039 H 703.218 -1.7501 2.60827 0
M  V30 8040 H 702.411 -1.13911 4.90959 0
M  V30 8041 H 702.013 0.138411 3.73744 0
M  V30 8042 H 704.305 -0.985527 6.70294 0
M  V30 8043 H 705.248 0.495384 7.06365 0
M  V30 8044 H 705.656 -0.484777 5.62415 0
M  V30 8045 N 705.054 -1.51416 0.437162 0
M  V30 8046 C 706.017 -2.26312 -0.362729 0
M  V30 8047 C 707.017 -1.29748 -0.949847 0
M  V30 8048 O 708.207 -1.53462 -0.824325 0
M  V30 8049 C 705.339 -3.05475 -1.5132 0
M  V30 8050 H 706.532 -2.98459 0.29365 0
M  V30 8051 H 704.085 -1.55137 0.190327 0
M  V30 8052 H 704.82 -2.37744 -2.20563 0
M  V30 8053 H 704.605 -3.76401 -1.09838 0
M  V30 8054 H 706.095 -3.62209 -2.07833 0
M  V30 8055 N 706.532 -0.168513 -1.56696 0
M  V30 8056 C 707.442 0.775435 -2.21414 0
M  V30 8057 C 708.458 1.25529 -1.20492 0
M  V30 8058 O 709.634 1.30801 -1.53144 0
M  V30 8059 C 706.699 1.9886 -2.83999 0
M  V30 8060 C 705.76 1.5559 -4.00113 0
M  V30 8061 C 704.993 2.71124 -4.59704 0
M  V30 8062 O 705.216 3.87917 -4.18182 0
M  V30 8063 O 704.15 2.4536 -5.4962 0
M  V30 8064 H 707.976 0.254416 -3.02632 0
M  V30 8065 H 705.561 0.0595507 -1.49281 0
M  V30 8066 H 707.443 2.69816 -3.23693 0
M  V30 8067 H 706.118 2.49874 -2.05779 0
M  V30 8068 H 705.025 0.815924 -3.65094 0
M  V30 8069 H 706.358 1.09271 -4.79917 0
M  V30 8070 N 708.01 1.57248 0.105221 0
M  V30 8071 C 709.259 1.84756 0.809198 0
M  V30 8072 C 709.572 0.756262 1.80389 0
M  V30 8073 O 710.778 0.918158 2.55504 0
M  V30 8074 C 709.234 3.27613 1.48989 0
M  V30 8075 C 708.842 4.44788 0.535484 0
M  V30 8076 C 710.586 3.64356 2.17819 0
M  V30 8077 C 708.493 5.78676 1.22019 0
M  V30 8078 H 707.423 0.689139 0.305946 0
M  V30 8079 H 710.074 1.83395 0.0620371 0
M  V30 8080 H 708.456 3.23485 2.28415 0
M  V30 8081 H 709.63 4.60243 -0.226557 0
M  V30 8082 H 707.945 4.16374 -0.0465769 0
M  V30 8083 H 710.542 4.61663 2.69761 0
M  V30 8084 H 710.885 2.92474 2.96251 0
M  V30 8085 H 711.418 3.70328 1.45264 0
M  V30 8086 H 708.157 6.53763 0.476875 0
M  V30 8087 H 707.677 5.67083 1.9539 0
M  V30 8088 H 709.356 6.22897 1.74952 0
M  V30 8089 N 709.488 -0.375779 1.53054 0
M  V30 8090 C 710.716 -1.14036 1.72637 0
M  V30 8091 C 711.131 -1.83342 0.450687 0
M  V30 8092 O 710.488 -1.7318 -0.575749 0
M  V30 8093 C 710.539 -2.17841 2.88492 0
M  V30 8094 O 710.26 -1.51358 4.11123 0
M  V30 8095 C 711.761 -3.06924 3.19863 0
M  V30 8096 H 708.981 -0.341386 0.577665 0
M  V30 8097 H 711.525 -0.437809 1.99759 0
M  V30 8098 H 709.68 -2.8371 2.63794 0
M  V30 8099 H 710.094 -2.20439 4.75928 0
M  V30 8100 H 711.568 -3.75763 4.04359 0
M  V30 8101 H 712.045 -3.71169 2.34798 0
M  V30 8102 H 712.651 -2.46684 3.46449 0
M  V30 8103 N 710.966 -1.44241 -0.634997 0
M  V30 8104 C 711.913 -1.5081 -1.74714 0
M  V30 8105 C 712.883 -0.356147 -1.62237 0
M  V30 8106 O 714.068 -0.565848 -1.82216 0
M  V30 8107 C 711.208 -1.45458 -3.12947 0
M  V30 8108 C 710.321 -2.70998 -3.36428 0
M  V30 8109 C 709.456 -2.57507 -4.64611 0
M  V30 8110 C 708.495 -3.78229 -4.81258 0
M  V30 8111 N 707.632 -3.63438 -6.00714 0
M  V30 8112 H 712.472 -2.45832 -1.68436 0
M  V30 8113 H 710.009 -1.2201 -0.821706 0
M  V30 8114 H 711.967 -1.40347 -3.92885 0
M  V30 8115 H 710.597 -0.540058 -3.1825 0
M  V30 8116 H 709.649 -2.86312 -2.50458 0
M  V30 8117 H 710.961 -3.60619 -3.44609 0
M  V30 8118 H 710.115 -2.50207 -5.52703 0
M  V30 8119 H 708.854 -1.65441 -4.58782 0
M  V30 8120 H 707.859 -3.85918 -3.91596 0
M  V30 8121 H 709.084 -4.71327 -4.88904 0
M  V30 8122 H 707.03 -2.7412 -5.95982 0
M  V30 8123 H 706.947 -4.46672 -6.09934 0
M  V30 8124 H 708.215 -3.60022 -6.91378 0
M  V30 8125 N 712.444 0.87505 -1.31075 0
M  V30 8126 C 713.391 1.98178 -1.18296 0
M  V30 8127 C 714.361 1.65952 -0.0699923 0
M  V30 8128 O 715.546 1.8926 -0.241951 0
M  V30 8129 C 712.686 3.33399 -0.891024 0
M  V30 8130 C 711.799 3.78253 -2.08684 0
M  V30 8131 C 710.934 5.02166 -1.73212 0
M  V30 8132 C 709.973 5.39455 -2.89231 0
M  V30 8133 N 709.11 6.54549 -2.53989 0
M  V30 8134 H 713.95 2.0844 -2.12971 0
M  V30 8135 H 711.487 1.02047 -1.05948 0
M  V30 8136 H 713.445 4.11246 -0.702338 0
M  V30 8137 H 712.075 3.22794 0.0188799 0
M  V30 8138 H 711.127 2.9623 -2.38646 0
M  V30 8139 H 712.439 4.01821 -2.95536 0
M  V30 8140 H 711.593 5.87666 -1.50777 0
M  V30 8141 H 710.332 4.80491 -0.83544 0
M  V30 8142 H 709.337 4.52477 -3.12321 0
M  V30 8143 H 710.562 5.63098 -3.79601 0
M  V30 8144 H 708.508 6.3443 -1.66838 0
M  V30 8145 H 708.425 6.78035 -3.34372 0
M  V30 8146 H 709.693 7.43254 -2.34934 0
M  V30 8147 N 713.922 1.13953 1.08869 0
M  V30 8148 C 714.854 0.779906 2.15523 0
M  V30 8149 C 715.867 -0.20102 1.61554 0
M  V30 8150 O 717.056 0.0200049 1.78489 0
M  V30 8151 C 714.156 0.136226 3.38626 0
M  V30 8152 C 713.329 1.15069 4.21993 0
M  V30 8153 C 712.388 0.531645 5.23507 0
M  V30 8154 O 711.414 1.19327 5.56552 0
M  V30 8155 N 712.616 -0.693734 5.7634 0
M  V30 8156 H 715.381 1.69769 2.46979 0
M  V30 8157 H 712.942 1.03331 1.24637 0
M  V30 8158 H 714.934 -0.290295 4.03658 0
M  V30 8159 H 713.504 -0.684603 3.05011 0
M  V30 8160 H 712.724 1.75431 3.53012 0
M  V30 8161 H 714.012 1.83614 4.74514 0
M  V30 8162 H 713.41 -1.24994 5.51718 0
M  V30 8163 H 711.967 -1.06283 6.43076 0
M  V30 8164 N 715.4 -1.26948 0.933913 0
M  V30 8165 C 716.348 -2.2862 0.428463 0
M  V30 8166 C 717.342 -1.62144 -0.490464 0
M  V30 8167 O 718.548 -1.76167 -0.36948 0
M  V30 8168 H 714.923 -0.742363 0.120003 0
M  V30 8169 H 716.894 -2.68659 1.29865 0
M  V30 8170 C 715.643 -3.46423 -0.29774 0
M  V30 8171 H 714.966 -3.97792 0.400183 0
M  V30 8172 H 716.406 -4.19505 -0.615736 0
M  V30 8173 C 714.865 -3.01017 -1.51295 0
M  V30 8174 O 715.395 -3.05226 -2.61151 0
M  V30 8175 N 713.601 -2.56442 -1.36696 0
M  V30 8176 H 713.148 -2.53217 -0.473178 0
M  V30 8177 H 713.106 -2.26424 -2.18127 0
M  V30 8178 N 716.879 -0.700114 -1.41195 0
M  V30 8179 C 717.826 -0.0376652 -2.30769 0
M  V30 8180 C 718.796 0.766544 -1.47354 0
M  V30 8181 O 719.981 0.73365 -1.76131 0
M  V30 8182 C 717.121 0.889452 -3.33441 0
M  V30 8183 C 716.234 0.076373 -4.31932 0
M  V30 8184 C 715.369 1.00155 -5.21673 0
M  V30 8185 C 714.408 0.181644 -6.1183 0
M  V30 8186 N 713.545 1.06087 -6.94039 0
M  V30 8187 H 718.385 -0.80726 -2.86858 0
M  V30 8188 H 715.922 -0.409798 -1.41277 0
M  V30 8189 H 717.88 1.44107 -3.91522 0
M  V30 8190 H 716.51 1.6254 -2.78892 0
M  V30 8191 H 715.562 -0.592223 -3.75762 0
M  V30 8192 H 716.874 -0.559076 -4.95657 0
M  V30 8193 H 716.028 1.62223 -5.8461 0
M  V30 8194 H 714.767 1.67085 -4.58186 0
M  V30 8195 H 713.772 -0.452085 -5.47938 0
M  V30 8196 H 714.997 -0.483925 -6.77374 0
M  V30 8197 H 712.943 1.7161 -6.33156 0
M  V30 8198 H 712.86 0.481094 -7.54468 0
M  V30 8199 H 714.128 1.66822 -7.6144 0
M  V30 8200 N 718.357 1.51182 -0.445186 0
M  V30 8201 C 719.606 2.01342 0.120189 0
M  V30 8202 C 719.919 1.33353 1.43095 0
M  V30 8203 O 721.125 1.74525 2.07974 0
M  V30 8204 C 719.581 3.58925 0.264732 0
M  V30 8205 C 719.189 4.35855 -1.03606 0
M  V30 8206 C 720.933 4.17208 0.783455 0
M  V30 8207 C 718.84 5.85162 -0.856731 0
M  V30 8208 H 717.77 0.752426 0.0486922 0
M  V30 8209 H 720.421 1.74221 -0.576143 0
M  V30 8210 H 718.803 3.82525 1.02425 0
M  V30 8211 H 719.977 4.23997 -1.80452 0
M  V30 8212 H 718.292 3.89062 -1.48391 0
M  V30 8213 H 720.889 5.26475 0.934239 0
M  V30 8214 H 721.232 3.76892 1.768 0
M  V30 8215 H 721.765 3.97715 0.0820346 0
M  V30 8216 H 718.504 6.29904 -1.81388 0
M  V30 8217 H 718.024 5.99663 -0.128206 0
M  V30 8218 H 719.703 6.44963 -0.513027 0
M  V30 8219 N 719.835 0.176821 1.56605 0
M  V30 8220 C 720.767 -0.782836 2.15417 0
M  V30 8221 C 721.78 -1.18982 1.11117 0
M  V30 8222 O 722.969 -1.12872 1.38283 0
M  V30 8223 C 720.069 -2.06596 2.68647 0
M  V30 8224 C 719.242 -1.82167 3.9766 0
M  V30 8225 C 718.301 -2.94751 4.35899 0
M  V30 8226 O 717.327 -2.65148 5.03672 0
M  V30 8227 N 718.529 -4.2267 3.97907 0
M  V30 8228 H 721.294 -0.280012 2.98389 0
M  V30 8229 H 718.855 -0.00577529 1.61899 0
M  V30 8230 H 720.847 -2.81018 2.91223 0
M  V30 8231 H 719.417 -2.48054 1.90232 0
M  V30 8232 H 718.637 -0.916208 3.83405 0
M  V30 8233 H 719.925 -1.6322 4.81909 0
M  V30 8234 H 719.323 -4.4958 3.43357 0
M  V30 8235 H 717.88 -4.93778 4.25472 0
M  V30 8236 N 721.313 -1.57302 -0.09688 0
M  V30 8237 C 722.59 -1.7701 -0.832272 0
M  V30 8238 C 722.97 -0.758025 -1.97021 0
M  V30 8239 O 722.318 0.213824 -2.27497 0
M  V30 8240 C 722.528 -3.22725 -1.32851 0
M  V30 8241 C 723.876 -3.85856 -1.772 0
M  V30 8242 O 724.9 -3.26464 -1.42478 0
M  V30 8243 O 723.759 -4.90295 -2.41398 0
M  V30 8244 H 720.853 -0.725558 -0.396856 0
M  V30 8245 H 723.399 -1.69516 -0.0789005 0
M  V30 8246 H 722.171 -3.87921 -0.51312 0
M  V30 8247 H 721.794 -3.34845 -2.14394 0
M  V30 8248 N 722.791 0.367657 -1.53252 0
M  V30 8249 C 724.019 1.13119 -1.73239 0
M  V30 8250 C 724.434 1.831 -0.460404 0
M  V30 8251 O 723.791 1.73483 0.566557 0
M  V30 8252 C 723.842 2.16308 -2.89643 0
M  V30 8253 O 723.563 1.49175 -4.1192 0
M  V30 8254 C 725.064 3.05224 -3.21486 0
M  V30 8255 H 722.284 0.338318 -0.579467 0
M  V30 8256 H 724.828 0.42721 -1.99988 0
M  V30 8257 H 722.983 2.82307 -2.65295 0
M  V30 8258 H 723.397 2.17912 -4.7709 0
M  V30 8259 H 724.871 3.73613 -4.06346 0
M  V30 8260 H 725.348 3.69919 -2.36763 0
M  V30 8261 H 725.954 2.44843 -3.47753 0
M  V30 8262 N 724.269 1.44576 0.627338 0
M  V30 8263 C 725.516 1.47558 1.38682 0
M  V30 8264 C 725.844 0.109636 1.94191 0
M  V30 8265 O 725.099 -0.889092 1.74338 0
M  V30 8266 C 725.398 2.48644 2.56731 0
M  V30 8267 C 725.064 3.93873 2.19489 0
M  V30 8268 C 723.726 4.33421 2.09045 0
M  V30 8269 C 726.078 4.85286 1.90124 0
M  V30 8270 C 723.406 5.62303 1.6743 0
M  V30 8271 C 725.758 6.14559 1.50001 0
M  V30 8272 C 724.422 6.53058 1.38101 0
M  V30 8273 H 723.692 0.539955 0.507474 0
M  V30 8274 H 726.339 1.77811 0.711021 0
M  V30 8275 H 724.644 2.11889 3.29561 0
M  V30 8276 H 726.341 2.48197 3.14959 0
M  V30 8277 H 722.931 3.62587 2.28537 0
M  V30 8278 H 727.115 4.55483 1.971 0
M  V30 8279 H 722.371 5.90945 1.56823 0
M  V30 8280 H 726.545 6.84848 1.26319 0
M  V30 8281 H 724.172 7.52826 1.05628 0
M  V30 8282 N 725.747 -0.868086 1.31537 0
M  V30 8283 C 726.679 -1.98165 1.15166 0
M  V30 8284 C 727.692 -1.6255 0.0902335 0
M  V30 8285 O 728.881 -1.75272 0.33791 0
M  V30 8286 C 725.981 -3.30772 0.737776 0
M  V30 8287 C 725.154 -3.94716 1.88462 0
M  V30 8288 C 724.213 -5.05641 1.45648 0
M  V30 8289 O 723.239 -5.2636 2.16642 0
M  V30 8290 N 724.441 -5.79474 0.34493 0
M  V30 8291 H 727.206 -2.12754 2.11083 0
M  V30 8292 H 724.767 -1.04217 1.23897 0
M  V30 8293 H 726.759 -4.02366 0.434032 0
M  V30 8294 H 725.329 -3.1233 -0.129834 0
M  V30 8295 H 724.549 -3.16079 2.35558 0
M  V30 8296 H 725.837 -4.34175 2.65273 0
M  V30 8297 H 725.235 -5.65164 -0.246259 0
M  V30 8298 H 723.792 -6.51722 0.100728 0
M  V30 8299 N 727.225 -1.14528 -1.08264 0
M  V30 8300 C 728.474 -0.908992 -1.80056 0
M  V30 8301 C 728.787 0.565859 -1.87236 0
M  V30 8302 O 729.993 0.919454 -2.55457 0
M  V30 8303 C 728.449 -1.57681 -3.23519 0
M  V30 8304 C 728.057 -3.08803 -3.24569 0
M  V30 8305 C 729.801 -1.4217 -3.99985 0
M  V30 8306 C 727.708 -3.68414 -4.62629 0
M  V30 8307 H 726.638 -0.336432 -0.674781 0
M  V30 8308 H 729.289 -1.37437 -1.21587 0
M  V30 8309 H 727.671 -1.03911 -3.82124 0
M  V30 8310 H 728.845 -3.69252 -2.75663 0
M  V30 8311 H 727.16 -3.23968 -2.61598 0
M  V30 8312 H 729.757 -1.84106 -5.02005 0
M  V30 8313 H 730.1 -0.367989 -4.1467 0
M  V30 8314 H 730.633 -1.92984 -3.47853 0
M  V30 8315 H 727.372 -4.73644 -4.53147 0
M  V30 8316 H 726.892 -3.12746 -5.11811 0
M  V30 8317 H 728.571 -3.68793 -5.31602 0
M  V30 8318 N 728.703 1.26451 -0.940633 0
M  V30 8319 C 729.65 2.264 -0.448497 0
M  V30 8320 C 730.62 1.5866 0.491546 0
M  V30 8321 O 731.805 1.86389 0.407874 0
M  V30 8322 C 728.945 3.43956 0.280715 0
M  V30 8323 C 728.058 4.26374 -0.694937 0
M  V30 8324 C 727.193 5.31171 0.0554186 0
M  V30 8325 C 726.232 6.05266 -0.912091 0
M  V30 8326 N 725.369 7.01833 -0.193524 0
M  V30 8327 H 730.209 2.67869 -1.30576 0
M  V30 8328 H 727.746 1.31707 -0.655112 0
M  V30 8329 H 729.704 4.10941 0.71994 0
M  V30 8330 H 728.334 3.03403 1.10212 0
M  V30 8331 H 727.386 3.59183 -1.25267 0
M  V30 8332 H 728.698 4.77748 -1.43382 0
M  V30 8333 H 727.852 6.04166 0.553951 0
M  V30 8334 H 726.591 4.80634 0.827183 0
M  V30 8335 H 725.596 5.31099 -1.42175 0
M  V30 8336 H 726.821 6.57893 -1.68385 0
M  V30 8337 H 724.767 6.53607 0.559758 0
M  V30 8338 H 724.684 7.50957 -0.871744 0
M  V30 8339 H 725.952 7.78983 0.283932 0
M  V30 8340 N 730.181 0.707592 1.40822 0
M  V30 8341 C 731.113 0.0105968 2.29198 0
M  V30 8342 C 732.126 -0.732035 1.45414 0
M  V30 8343 O 733.315 -0.580741 1.68789 0
M  V30 8344 C 730.415 -1.00921 3.23525 0
M  V30 8345 C 729.588 -0.333747 4.36125 0
M  V30 8346 C 728.647 -1.25783 5.10945 0
M  V30 8347 O 727.673 -0.745646 5.64295 0
M  V30 8348 N 728.875 -2.58947 5.19545 0
M  V30 8349 H 731.64 0.76938 2.89656 0
M  V30 8350 H 729.201 0.554579 1.52105 0
M  V30 8351 H 731.193 -1.6294 3.70449 0
M  V30 8352 H 729.763 -1.66942 2.6429 0
M  V30 8353 H 728.983 0.466518 3.9143 0
M  V30 8354 H 730.271 0.135444 5.0862 0
M  V30 8355 H 729.669 -3.03065 4.7767 0
M  V30 8356 H 728.226 -3.16131 5.70004 0
M  V30 8357 N 731.66 -1.50943 0.453197 0
M  V30 8358 C 732.909 -2.01402 -0.10951 0
M  V30 8359 C 733.222 -1.3411 -1.42386 0
M  V30 8360 O 734.428 -1.75626 -2.07045 0
M  V30 8361 C 732.884 -3.5906 -0.245693 0
M  V30 8362 C 732.492 -4.353 1.05916 0
M  V30 8363 C 734.236 -4.17617 -0.761318 0
M  V30 8364 C 732.143 -5.84699 0.887752 0
M  V30 8365 H 731.073 -0.752674 -0.0447013 0
M  V30 8366 H 733.724 -1.73913 0.585375 0
M  V30 8367 H 732.106 -3.83062 -1.00395 0
M  V30 8368 H 733.28 -4.23034 1.82698 0
M  V30 8369 H 731.595 -3.88269 1.50452 0
M  V30 8370 H 734.192 -5.26963 -0.906306 0
M  V30 8371 H 734.535 -3.77824 -1.74799 0
M  V30 8372 H 735.068 -3.97753 -0.0609416 0
M  V30 8373 H 731.807 -6.28933 1.84726 0
M  V30 8374 H 731.327 -5.99587 0.160006 0
M  V30 8375 H 733.006 -6.44682 0.547223 0
M  V30 8376 N 733.138 -0.185124 -1.56509 0
M  V30 8377 C 734.363 0.465278 -2.02114 0
M  V30 8378 C 734.788 1.55083 -1.06447 0
M  V30 8379 O 734.146 1.81241 -0.0462852 0
M  V30 8380 C 734.194 1.00784 -3.46229 0
M  V30 8381 O 733.298 2.12123 -3.53663 0
M  V30 8382 H 732.639 0.109891 -0.654843 0
M  V30 8383 H 735.169 -0.293072 -2.0249 0
M  V30 8384 H 735.179 1.32697 -3.85818 0
M  V30 8385 H 733.854 0.213113 -4.15354 0
M  V30 8386 H 732.431 1.8115 -3.25943 0
M  V30 8387 N 734.616 1.57351 0.0885366 0
M  V30 8388 C 735.549 1.97786 1.13825 0
M  V30 8389 C 736.527 0.852091 1.38485 0
M  V30 8390 O 737.711 1.11296 1.52137 0
M  V30 8391 C 734.838 2.30024 2.48609 0
M  V30 8392 C 733.884 3.52437 2.40189 0
M  V30 8393 S 734.717 5.03908 1.81209 0
M  V30 8394 C 735.873 5.39331 3.17605 0
M  V30 8395 H 736.106 2.86513 0.793587 0
M  V30 8396 H 733.639 1.51527 0.29646 0
M  V30 8397 H 735.597 2.49274 3.26148 0
M  V30 8398 H 734.258 1.41856 2.80242 0
M  V30 8399 H 733.451 3.72457 3.39546 0
M  V30 8400 H 733.053 3.32731 1.70781 0
M  V30 8401 H 735.345 5.36378 4.13891 0
M  V30 8402 H 736.288 6.4029 3.02381 0
M  V30 8403 H 736.696 4.6679 3.17438 0
M  V30 8404 N 736.094 -0.359525 1.53444 0
M  V30 8405 C 737.324 -1.12036 1.73585 0
M  V30 8406 C 737.732 -1.83335 0.467438 0
M  V30 8407 O 737.075 -1.74641 -0.569753 0
M  V30 8408 C 737.137 -2.19036 2.85068 0
M  V30 8409 C 736.801 -1.67451 4.25217 0
M  V30 8410 C 737.798 -1.13534 5.07352 0
M  V30 8411 C 735.483 -1.72781 4.71648 0
M  V30 8412 C 737.477 -0.656321 6.34012 0
M  V30 8413 C 735.164 -1.2449 5.98285 0
M  V30 8414 C 736.162 -0.710068 6.79299 0
M  V30 8415 O 735.85 -0.234314 8.03558 0
M  V30 8416 H 735.582 -0.340662 0.583888 0
M  V30 8417 H 738.136 -0.422452 2.01009 0
M  V30 8418 H 736.366 -2.92338 2.53131 0
M  V30 8419 H 738.055 -2.80559 2.93328 0
M  V30 8420 H 738.821 -1.08751 4.7265 0
M  V30 8421 H 734.7 -2.13351 4.08659 0
M  V30 8422 H 738.244 -0.238193 6.97193 0
M  V30 8423 H 734.141 -1.28969 6.32485 0
M  V30 8424 H 734.909 -0.353084 8.17738 0
M  V30 8425 N 737.572 -1.44907 -0.619662 0
M  V30 8426 C 738.797 -1.52021 -1.41083 0
M  V30 8427 C 739.222 -0.14976 -1.87503 0
M  V30 8428 O 738.58 0.863303 -1.59426 0
M  V30 8429 C 738.628 -2.49911 -2.59955 0
M  V30 8430 O 737.732 -2.00857 -3.60181 0
M  V30 8431 H 737.073 -0.512912 -0.421684 0
M  V30 8432 H 739.603 -1.90149 -0.755282 0
M  V30 8433 H 739.613 -2.68323 -3.07354 0
M  V30 8434 H 738.288 -3.4945 -2.25516 0
M  V30 8435 H 736.865 -1.92265 -3.19513 0
M  V30 8436 N 739.05 0.861098 -1.31996 0
M  V30 8437 C 739.997 1.96912 -1.20392 0
M  V30 8438 C 740.967 1.65869 -0.0875899 0
M  V30 8439 O 742.152 1.88992 -0.262011 0
M  V30 8440 C 739.292 3.32435 -0.926335 0
M  V30 8441 C 738.405 3.76018 -2.12684 0
M  V30 8442 C 737.54 5.00301 -1.78529 0
M  V30 8443 C 736.579 5.36357 -2.94937 0
M  V30 8444 N 735.716 6.51818 -2.60917 0
M  V30 8445 H 740.556 2.06169 -2.1517 0
M  V30 8446 H 738.093 1.00917 -1.07024 0
M  V30 8447 H 740.051 4.10478 -0.745917 0
M  V30 8448 H 738.681 3.22796 -0.0153578 0
M  V30 8449 H 737.733 2.93683 -2.41774 0
M  V30 8450 H 739.045 3.98664 -2.99781 0
M  V30 8451 H 738.199 5.86034 -1.57001 0
M  V30 8452 H 736.938 4.79578 -0.886356 0
M  V30 8453 H 735.943 4.49139 -3.17103 0
M  V30 8454 H 737.168 5.59041 -3.85552 0
M  V30 8455 H 735.114 6.32624 -1.73558 0
M  V30 8456 H 735.031 6.7445 -3.41544 0
M  V30 8457 H 736.299 7.4072 -2.42804 0
M  V30 8458 N 740.528 1.15101 1.07655 0
M  V30 8459 C 741.458 0.867864 2.16773 0
M  V30 8460 C 742.439 -0.180283 1.69142 0
M  V30 8461 O 743.624 -0.0353152 1.94168 0
M  V30 8462 C 740.754 0.35299 3.45501 0
M  V30 8463 C 739.708 1.33746 4.06566 0
M  V30 8464 C 739.034 0.681562 5.30338 0
M  V30 8465 C 740.334 2.7024 4.46954 0
M  V30 8466 H 742.028 1.78034 2.40716 0
M  V30 8467 H 739.574 0.857435 1.15689 0
M  V30 8468 H 741.527 0.142465 4.21159 0
M  V30 8469 H 740.251 -0.594945 3.21135 0
M  V30 8470 H 738.91 1.53429 3.32949 0
M  V30 8471 H 738.558 -0.272422 5.02262 0
M  V30 8472 H 738.258 1.33853 5.72151 0
M  V30 8473 H 739.782 0.48074 6.08705 0
M  V30 8474 H 741.196 2.5442 5.13754 0
M  V30 8475 H 739.593 3.32282 4.99709 0
M  V30 8476 H 740.663 3.26537 3.58471 0
M  V30 8477 N 742.006 -1.2595 0.947325 0
M  V30 8478 C 742.936 -2.28521 0.479604 0
M  V30 8479 C 743.917 -1.63469 -0.470293 0
M  V30 8480 O 745.102 -1.90627 -0.370824 0
M  V30 8481 C 742.232 -3.46397 -0.250289 0
M  V30 8482 C 741.186 -4.23578 0.613643 0
M  V30 8483 C 740.512 -5.34131 -0.246568 0
M  V30 8484 C 741.812 -4.86979 1.88809 0
M  V30 8485 H 743.506 -2.67895 1.33688 0
M  V30 8486 H 741.052 -1.28783 0.644274 0
M  V30 8487 H 743.005 -4.17269 -0.588576 0
M  V30 8488 H 741.729 -3.05993 -1.14175 0
M  V30 8489 H 740.388 -3.54478 0.93491 0
M  V30 8490 H 740.036 -4.89968 -1.13756 0
M  V30 8491 H 739.736 -5.86683 0.328123 0
M  V30 8492 H 741.26 -6.07839 -0.579986 0
M  V30 8493 H 742.674 -5.50034 1.61666 0
M  V30 8494 H 741.071 -5.49675 2.40784 0
M  V30 8495 H 742.141 -4.09575 2.5957 0
M  V30 8496 N 743.484 -0.715051 -1.40445 0
M  V30 8497 C 744.731 -0.254328 -2.00897 0
M  V30 8498 C 745.059 1.15228 -1.56693 0
M  V30 8499 O 744.314 1.7958 -0.777786 0
M  V30 8500 C 744.613 -0.281791 -3.56287 0
M  V30 8501 C 744.279 -1.63862 -4.20071 0
M  V30 8502 C 742.941 -2.01003 -4.37208 0
M  V30 8503 C 745.293 -2.53039 -4.55654 0
M  V30 8504 C 742.621 -3.26869 -4.8721 0
M  V30 8505 C 744.973 -3.78256 -5.07055 0
M  V30 8506 C 743.637 -4.15515 -5.22401 0
M  V30 8507 H 742.907 -0.0930652 -0.735133 0
M  V30 8508 H 745.554 -0.917977 -1.68064 0
M  V30 8509 H 743.859 0.465428 -3.89026 0
M  V30 8510 H 745.556 0.0925158 -4.00893 0
M  V30 8511 H 742.146 -1.33979 -4.07121 0
M  V30 8512 H 746.33 -2.2562 -4.42051 0
M  V30 8513 H 741.586 -3.55706 -4.97276 0
M  V30 8514 H 745.76 -4.47528 -5.33565 0
M  V30 8515 H 743.387 -5.13114 -5.60909 0
M  V30 8516 N 744.962 1.50701 -0.461195 0
M  V30 8517 C 746.187 2.07171 0.0974773 0
M  V30 8518 C 746.612 1.32391 1.3362 0
M  V30 8519 O 745.97 0.368676 1.77512 0
M  V30 8520 C 746.018 3.58651 0.374409 0
M  V30 8521 O 745.122 3.85816 1.4567 0
M  V30 8522 H 744.463 0.663944 -0.00862047 0
M  V30 8523 H 746.993 1.94021 -0.649394 0
M  V30 8524 H 747.003 4.03295 0.617843 0
M  V30 8525 H 745.678 4.12498 -0.530829 0
M  V30 8526 H 744.255 3.53018 1.20136 0
M  V30 8527 N 746.441 0.193421 1.56409 0
M  V30 8528 C 747.351 -0.740112 2.2262 0
M  V30 8529 C 748.367 -1.23597 1.22474 0
M  V30 8530 O 749.543 -1.28348 1.55206 0
M  V30 8531 C 746.608 -1.94317 2.87127 0
M  V30 8532 C 745.669 -1.49205 4.02538 0
M  V30 8533 C 744.902 -2.63776 4.63959 0
M  V30 8534 O 745.125 -3.81215 4.24301 0
M  V30 8535 O 744.059 -2.36585 5.53454 0
M  V30 8536 H 747.885 -0.206238 3.02999 0
M  V30 8537 H 745.47 -0.0357938 1.49357 0
M  V30 8538 H 747.352 -2.64633 3.27944 0
M  V30 8539 H 746.027 -2.46568 2.09728 0
M  V30 8540 H 744.934 -0.757738 3.66346 0
M  V30 8541 H 746.267 -1.01622 4.81595 0
M  V30 8542 N 747.919 -1.57396 -0.0801906 0
M  V30 8543 C 748.849 -2.06145 -1.09665 0
M  V30 8544 C 749.83 -0.953273 -1.40878 0
M  V30 8545 O 751.015 -1.22548 -1.50651 0
M  V30 8546 C 748.145 -2.49836 -2.41245 0
M  V30 8547 C 747.099 -3.64454 -2.24405 0
M  V30 8548 C 746.425 -3.94172 -3.61293 0
M  V30 8549 C 747.725 -4.94807 -1.67223 0
M  V30 8550 H 749.419 -2.91316 -0.691028 0
M  V30 8551 H 746.965 -1.40145 -0.330957 0
M  V30 8552 H 748.918 -2.82552 -3.12638 0
M  V30 8553 H 747.642 -1.61683 -2.83771 0
M  V30 8554 H 746.301 -3.32008 -1.55454 0
M  V30 8555 H 745.949 -3.03163 -4.01374 0
M  V30 8556 H 745.649 -4.71345 -3.50867 0
M  V30 8557 H 747.173 -4.29376 -4.3413 0
M  V30 8558 H 748.587 -5.25807 -2.28472 0
M  V30 8559 H 746.984 -5.76245 -1.67515 0
M  V30 8560 H 748.054 -4.80751 -0.632944 0
M  V30 8561 N 749.397 0.351382 -1.53633 0
M  V30 8562 C 750.674 1.10903 -1.6112 0
M  V30 8563 C 751.054 2.06725 -0.427556 0
M  V30 8564 O 750.402 2.20992 0.580916 0
M  V30 8565 C 750.612 1.83561 -2.96827 0
M  V30 8566 C 751.96 2.37587 -3.51906 0
M  V30 8567 O 752.984 1.93669 -2.9895 0
M  V30 8568 O 751.843 3.17913 -4.44515 0
M  V30 8569 H 748.937 0.509558 -0.651368 0
M  V30 8570 H 751.483 0.353504 -1.65977 0
M  V30 8571 H 750.255 1.1371 -3.74414 0
M  V30 8572 H 749.878 2.6599 -2.95525 0
M  V30 8573 N 750.875 1.45233 0.611969 0
M  V30 8574 C 751.823 1.53898 1.74408 0
M  V30 8575 C 752.817 0.409254 1.64382 0
M  V30 8576 O 754.023 0.584988 1.70229 0
M  V30 8577 H 750.398 0.483303 0.576127 0
M  V30 8578 H 752.369 2.49143 1.64227 0
M  V30 8579 C 751.118 1.51865 3.12782 0
M  V30 8580 H 750.441 2.38118 3.21154 0
M  V30 8581 H 751.881 1.61986 3.91838 0
M  V30 8582 C 750.34 0.242374 3.36027 0
M  V30 8583 O 750.87 -0.679587 3.9591 0
M  V30 8584 N 749.076 0.139448 2.90265 0
M  V30 8585 H 748.623 0.890571 2.41716 0
M  V30 8586 H 748.581 -0.713686 3.06193 0
M  V30 8587 N 752.353 -0.854086 1.3245 0
M  V30 8588 C 753.263 -1.99503 1.23434 0
M  V30 8589 C 754.279 -1.73371 0.147828 0
M  V30 8590 O 755.455 -1.97998 0.368609 0
M  V30 8591 C 752.52 -3.33192 0.958328 0
M  V30 8592 C 751.581 -3.72542 2.13333 0
M  V30 8593 C 750.814 -4.99852 1.8704 0
M  V30 8594 O 751.037 -5.64573 0.813239 0
M  V30 8595 O 749.971 -5.36345 2.73161 0
M  V30 8596 H 753.797 -2.10046 2.1935 0
M  V30 8597 H 751.382 -0.984823 1.12346 0
M  V30 8598 H 753.264 -4.13327 0.820918 0
M  V30 8599 H 751.939 -3.23687 0.0293299 0
M  V30 8600 H 750.846 -2.92981 2.32622 0
M  V30 8601 H 752.179 -3.86694 3.04514 0
M  V30 8602 N 753.831 -1.1567 -1.07043 0
M  V30 8603 C 754.778 -0.856336 -2.14326 0
M  V30 8604 C 755.748 0.192051 -1.64986 0
M  V30 8605 O 756.933 0.0589148 -1.90709 0
M  V30 8606 C 754.073 -0.355227 -3.43267 0
M  V30 8607 C 753.186 -1.46555 -4.06381 0
M  V30 8608 C 752.321 -0.920245 -5.23168 0
M  V30 8609 C 751.36 -2.00729 -5.78251 0
M  V30 8610 N 750.497 -1.47813 -6.86364 0
M  V30 8611 H 755.337 -1.77514 -2.39359 0
M  V30 8612 H 752.874 -0.885676 -1.17449 0
M  V30 8613 H 754.832 -0.0463804 -4.17174 0
M  V30 8614 H 753.462 0.526649 -3.18475 0
M  V30 8615 H 752.514 -1.89052 -3.30096 0
M  V30 8616 H 753.826 -2.28616 -4.43324 0
M  V30 8617 H 752.98 -0.564127 -6.04072 0
M  V30 8618 H 751.719 -0.0688477 -4.87651 0
M  V30 8619 H 750.724 -2.3722 -4.95991 0
M  V30 8620 H 751.949 -2.86252 -6.15822 0
M  V30 8621 H 749.895 -0.649145 -6.5278 0
M  V30 8622 H 749.812 -2.23498 -7.22208 0
M  V30 8623 H 751.08 -1.15036 -7.70965 0
M  V30 8624 N 755.309 1.25446 -0.953992 0
M  V30 8625 C 756.539 1.96929 -0.624688 0
M  V30 8626 C 756.947 1.71112 0.807292 0
M  V30 8627 O 756.29 0.983512 1.55154 0
M  V30 8628 C 756.352 3.50425 -0.802676 0
M  V30 8629 C 756.016 3.99916 -2.21169 0
M  V30 8630 C 757.013 4.10662 -3.18831 0
M  V30 8631 C 754.698 4.33598 -2.53571 0
M  V30 8632 C 756.692 4.54401 -4.46988 0
M  V30 8633 C 754.379 4.77024 -3.81958 0
M  V30 8634 C 755.377 4.87388 -4.78478 0
M  V30 8635 O 755.065 5.29851 -6.04577 0
M  V30 8636 H 754.797 0.634511 -0.233179 0
M  V30 8637 H 757.351 1.60591 -1.28061 0
M  V30 8638 H 755.581 3.86596 -0.0896044 0
M  V30 8639 H 757.27 4.03117 -0.47452 0
M  V30 8640 H 758.036 3.84872 -2.95124 0
M  V30 8641 H 753.915 4.24757 -1.79171 0
M  V30 8642 H 757.459 4.62406 -5.22328 0
M  V30 8643 H 753.356 5.02258 -4.05471 0
M  V30 8644 H 754.124 5.48039 -6.07944 0
M  V30 8645 N 756.787 0.722489 1.40064 0
M  V30 8646 C 758.036 0.261932 1.99992 0
M  V30 8647 C 758.349 -1.15358 1.57961 0
M  V30 8648 O 759.555 -1.71301 2.10637 0
M  V30 8649 C 758.011 0.41737 3.57472 0
M  V30 8650 C 757.619 1.83997 4.08472 0
M  V30 8651 C 759.363 0.0179561 4.24496 0
M  V30 8652 C 757.27 1.94563 5.5848 0
M  V30 8653 H 756.2 0.0941768 0.748095 0
M  V30 8654 H 758.851 0.894572 1.60218 0
M  V30 8655 H 757.233 -0.283965 3.94981 0
M  V30 8656 H 758.407 2.57224 3.82325 0
M  V30 8657 H 756.722 2.19147 3.54067 0
M  V30 8658 H 759.319 0.076085 5.34646 0
M  V30 8659 H 759.662 -1.02498 4.03485 0
M  V30 8660 H 760.195 0.669988 3.92117 0
M  V30 8661 H 756.934 2.97001 5.84355 0
M  V30 8662 H 756.454 1.25756 5.86469 0
M  V30 8663 H 758.133 1.72095 6.23692 0
M  V30 8664 N 758.265 -1.50454 0.469181 0
M  V30 8665 C 759.195 -2.31353 -0.31592 0
M  V30 8666 C 760.176 -1.38172 -0.992094 0
M  V30 8667 O 761.361 -1.67093 -0.989633 0
M  V30 8668 C 758.491 -3.1786 -1.39937 0
M  V30 8669 C 757.445 -4.19578 -0.844909 0
M  V30 8670 C 756.771 -4.9481 -2.0265 0
M  V30 8671 C 758.071 -5.22106 0.142499 0
M  V30 8672 H 759.765 -2.97237 0.359269 0
M  V30 8673 H 757.311 -1.42942 0.174224 0
M  V30 8674 H 759.264 -3.7325 -1.95607 0
M  V30 8675 H 757.988 -2.49858 -2.1033 0
M  V30 8676 H 756.647 -3.65285 -0.310189 0
M  V30 8677 H 756.295 -4.23282 -2.71737 0
M  V30 8678 H 755.995 -5.63613 -1.66174 0
M  V30 8679 H 757.519 -5.53035 -2.58815 0
M  V30 8680 H 758.933 -5.72378 -0.324966 0
M  V30 8681 H 757.33 -5.98618 0.421441 0
M  V30 8682 H 758.4 -4.7297 1.06901 0
M  V30 8683 N 759.743 -0.201713 -1.56304 0
M  V30 8684 C 760.69 0.716499 -2.19397 0
M  V30 8685 C 761.66 1.20494 -1.14326 0
M  V30 8686 O 762.845 1.26763 -1.42604 0
M  V30 8687 C 759.985 1.92762 -2.86246 0
M  V30 8688 C 759.098 1.47993 -4.0586 0
M  V30 8689 C 758.233 2.64706 -4.60547 0
M  V30 8690 C 757.272 2.16576 -5.72504 0
M  V30 8691 N 756.409 3.26491 -6.21569 0
M  V30 8692 H 761.249 0.171724 -2.97505 0
M  V30 8693 H 758.786 0.073016 -1.46919 0
M  V30 8694 H 760.744 2.6384 -3.23178 0
M  V30 8695 H 759.374 2.44559 -2.10691 0
M  V30 8696 H 758.426 0.66477 -3.74546 0
M  V30 8697 H 759.738 1.08686 -4.86815 0
M  V30 8698 H 758.892 3.43898 -4.99819 0
M  V30 8699 H 757.631 3.0729 -3.78713 0
M  V30 8700 H 756.636 1.3584 -5.32755 0
M  V30 8701 H 757.861 1.75015 -6.56161 0
M  V30 8702 H 755.807 3.68594 -5.42655 0
M  V30 8703 H 755.724 2.91374 -6.97594 0
M  V30 8704 H 756.992 4.05877 -6.65495 0
M  V30 8705 N 761.222 1.57436 0.0718424 0
M  V30 8706 C 762.471 1.86431 0.769826 0
M  V30 8707 C 762.784 0.794355 1.78744 0
M  V30 8708 O 763.99 0.972148 2.53499 0
M  V30 8709 C 762.446 3.307 1.42006 0
M  V30 8710 C 762.054 4.45824 0.441017 0
M  V30 8711 C 763.798 3.68894 2.10041 0
M  V30 8712 C 761.705 5.81134 1.09717 0
M  V30 8713 H 760.635 0.695474 0.291259 0
M  V30 8714 H 763.286 1.83485 0.0231224 0
M  V30 8715 H 761.668 3.28257 2.21502 0
M  V30 8716 H 762.842 4.59659 -0.32413 0
M  V30 8717 H 761.157 4.16181 -0.134886 0
M  V30 8718 H 763.754 4.67281 2.59908 0
M  V30 8719 H 764.097 2.98692 2.89981 0
M  V30 8720 H 764.63 3.73326 1.37376 0
M  V30 8721 H 761.369 6.54628 0.338095 0
M  V30 8722 H 760.889 5.711 1.83317 0
M  V30 8723 H 762.568 6.26468 1.617 0
M  V30 8724 N 762.7 -0.34323 1.53817 0
M  V30 8725 C 763.94 -1.09188 1.72793 0
M  V30 8726 C 764.304 -1.85876 0.481062 0
M  V30 8727 O 765.505 -2.63158 0.547851 0
M  V30 8728 C 763.776 -2.00783 2.9567 0
M  V30 8729 S 765.335 -2.82866 3.35459 0
M  V30 8730 H 762.153 -0.368926 0.607795 0
M  V30 8731 H 764.755 -0.370265 1.91962 0
M  V30 8732 H 763.459 -1.43245 3.84589 0
M  V30 8733 H 762.99 -2.77381 2.78968 0
M  V30 8734 H 765.005 -4.03196 2.89218 0
M  V30 8735 N 764.178 -1.45556 -0.604258 0
M  V30 8736 C 765.126 -1.5482 -1.7359 0
M  V30 8737 C 766.12 -0.417966 -1.64163 0
M  V30 8738 O 767.326 -0.594007 -1.69916 0
M  V30 8739 H 763.701 -0.486352 -0.573556 0
M  V30 8740 H 765.672 -2.5001 -1.62903 0
M  V30 8741 C 764.421 -1.53521 -3.11972 0
M  V30 8742 H 763.744 -2.39818 -3.19886 0
M  V30 8743 H 765.184 -1.64061 -3.90973 0
M  V30 8744 C 763.643 -0.260191 -3.35894 0
M  V30 8745 O 764.173 0.658582 -3.96265 0
M  V30 8746 N 762.379 -0.154839 -2.90187 0
M  V30 8747 H 761.926 -0.903378 -2.4124 0
M  V30 8748 H 761.884 0.697437 -3.06567 0
M  V30 8749 N 765.656 0.84705 -1.32902 0
M  V30 8750 C 766.881 1.63925 -1.27056 0
M  V30 8751 C 767.306 1.87443 0.157136 0
M  V30 8752 O 766.664 1.43266 1.11106 0
M  V30 8753 C 766.712 2.97134 -2.04313 0
M  V30 8754 O 765.816 3.88049 -1.39614 0
M  V30 8755 H 765.157 0.499477 -0.437514 0
M  V30 8756 H 767.687 1.05443 -1.75336 0
M  V30 8757 H 767.697 3.46896 -2.14772 0
M  V30 8758 H 766.372 2.79339 -3.08128 0
M  V30 8759 H 764.949 3.46525 -1.3775 0
M  V30 8760 N 767.134 1.16236 1.06428 0
M  V30 8761 C 768.362 0.967184 1.82902 0
M  V30 8762 C 768.777 -0.484601 1.82475 0
M  V30 8763 O 768.134 -1.33631 1.24294 0
M  V30 8764 C 768.185 1.48534 3.29576 0
M  V30 8765 O 767.906 2.88026 3.3011 0
M  V30 8766 C 769.407 1.33298 4.22784 0
M  V30 8767 H 766.627 0.342923 0.576754 0
M  V30 8768 H 769.171 1.54232 1.34286 0
M  V30 8769 H 767.326 0.952513 3.75508 0
M  V30 8770 H 767.74 3.11721 4.21818 0
M  V30 8771 H 769.214 1.74385 5.23731 0
M  V30 8772 H 769.691 0.278356 4.38317 0
M  V30 8773 H 770.297 1.85535 3.82697 0
M  V30 8774 N 768.612 -1.24939 0.960631 0
M  V30 8775 C 769.859 -1.92818 0.618663 0
M  V30 8776 C 770.187 -1.75177 -0.845173 0
M  V30 8777 O 769.442 -1.09412 -1.62258 0
M  V30 8778 C 769.741 -3.45066 0.930809 0
M  V30 8779 C 769.407 -3.82869 2.38164 0
M  V30 8780 C 768.069 -3.92899 2.7782 0
M  V30 8781 C 770.421 -4.01483 3.32356 0
M  V30 8782 C 767.749 -4.18955 4.10723 0
M  V30 8783 C 770.101 -4.29033 4.6488 0
M  V30 8784 C 768.765 -4.37282 5.04322 0
M  V30 8785 H 768.035 -0.705571 0.226385 0
M  V30 8786 H 770.682 -1.48365 1.21079 0
M  V30 8787 H 768.987 -3.9096 0.256355 0
M  V30 8788 H 770.684 -3.95783 0.644712 0
M  V30 8789 H 767.274 -3.75622 2.06413 0
M  V30 8790 H 771.458 -3.93143 3.02907 0
M  V30 8791 H 766.714 -4.23558 4.40918 0
M  V30 8792 H 770.888 -4.42381 5.3784 0
M  V30 8793 H 768.515 -4.57225 6.0733 0
M  V30 8794 N 770.09 -0.729906 -1.39679 0
M  V30 8795 C 771.315 -0.284345 -2.05442 0
M  V30 8796 C 771.74 1.07056 -1.54663 0
M  V30 8797 O 771.098 1.67732 -0.688157 0
M  V30 8798 C 771.146 -0.290089 -3.59431 0
M  V30 8799 O 770.25 0.723978 -4.05995 0
M  V30 8800 H 769.591 -0.130311 -0.651088 0
M  V30 8801 H 772.121 -0.994403 -1.78809 0
M  V30 8802 H 772.131 -0.132712 -4.07784 0
M  V30 8803 H 770.806 -1.27877 -3.95753 0
M  V30 8804 H 769.383 0.533154 -3.69069 0
M  V30 8805 N 771.568 1.50203 -0.477153 0
M  V30 8806 C 772.815 2.02358 0.0757385 0
M  V30 8807 C 773.143 1.3587 1.39174 0
M  V30 8808 O 772.398 0.475415 1.89838 0
M  V30 8809 C 772.697 3.56127 0.301325 0
M  V30 8810 C 772.363 4.41126 -0.933725 0
M  V30 8811 C 771.025 4.64075 -1.27233 0
M  V30 8812 C 773.377 4.90737 -1.75576 0
M  V30 8813 C 770.705 5.33878 -2.43292 0
M  V30 8814 C 773.057 5.61816 -2.90768 0
M  V30 8815 C 771.721 5.83016 -3.25036 0
M  V30 8816 H 770.991 0.740482 0.0277147 0
M  V30 8817 H 773.638 1.80754 -0.632467 0
M  V30 8818 H 771.943 3.76279 1.09183 0
M  V30 8819 H 773.64 3.94053 0.743184 0
M  V30 8820 H 770.23 4.23489 -0.659935 0
M  V30 8821 H 774.414 4.72856 -1.50734 0
M  V30 8822 H 769.67 5.48499 -2.70109 0
M  V30 8823 H 773.844 5.99237 -3.54807 0
M  V30 8824 H 771.471 6.36881 -4.15074 0
M  V30 8825 N 773.046 0.209999 1.56195 0
M  V30 8826 C 773.993 -0.704854 2.19774 0
M  V30 8827 C 774.963 -1.19886 1.14964 0
M  V30 8828 O 776.148 -1.26005 1.43274 0
M  V30 8829 C 773.288 -1.91241 2.87265 0
M  V30 8830 C 772.401 -1.45838 4.06639 0
M  V30 8831 C 771.536 -2.6226 4.61945 0
M  V30 8832 C 770.575 -2.13537 5.73645 0
M  V30 8833 N 769.712 -3.2319 6.23292 0
M  V30 8834 H 774.552 -0.155944 2.97592 0
M  V30 8835 H 772.089 -0.0652235 1.46955 0
M  V30 8836 H 774.047 -2.62123 3.24573 0
M  V30 8837 H 772.677 -2.43439 2.11985 0
M  V30 8838 H 771.729 -0.644897 3.74894 0
M  V30 8839 H 773.041 -1.06103 4.87384 0
M  V30 8840 H 772.195 -3.41243 5.01636 0
M  V30 8841 H 770.934 -3.05278 3.80338 0
M  V30 8842 H 769.939 -1.33013 5.33468 0
M  V30 8843 H 771.164 -1.71533 6.57079 0
M  V30 8844 H 769.11 -3.65711 5.44602 0
M  V30 8845 H 769.027 -2.8767 6.99129 0
M  V30 8846 H 770.295 -4.02342 6.67639 0
M  V30 8847 N 774.524 -1.57472 -0.0634922 0
M  V30 8848 C 775.471 -2.04258 -1.07457 0
M  V30 8849 C 776.441 -0.924804 -1.37973 0
M  V30 8850 O 777.626 -1.19305 -1.48899 0
M  V30 8851 C 774.766 -2.49832 -2.38071 0
M  V30 8852 C 773.879 -3.75263 -2.14014 0
M  V30 8853 C 773.014 -4.09585 -3.38251 0
M  V30 8854 C 772.053 -5.28032 -3.09594 0
M  V30 8855 N 771.19 -5.57953 -4.26185 0
M  V30 8856 H 776.03 -2.90402 -0.668626 0
M  V30 8857 H 773.567 -1.43609 -0.318572 0
M  V30 8858 H 775.525 -2.7431 -3.14341 0
M  V30 8859 H 774.155 -1.66654 -2.76453 0
M  V30 8860 H 773.207 -3.58075 -1.28399 0
M  V30 8861 H 774.519 -4.61667 -1.88852 0
M  V30 8862 H 773.673 -4.35008 -4.2291 0
M  V30 8863 H 772.412 -3.21765 -3.66495 0
M  V30 8864 H 771.417 -5.02397 -2.23332 0
M  V30 8865 H 772.642 -6.17477 -2.82663 0
M  V30 8866 H 770.588 -4.73092 -4.54445 0
M  V30 8867 H 770.505 -6.38793 -4.04326 0
M  V30 8868 H 771.773 -5.87931 -5.11817 0
M  V30 8869 N 776.003 0.335068 -1.53997 0
M  V30 8870 C 777.25 1.07435 -1.71651 0
M  V30 8871 C 777.578 1.88378 -0.48413 0
M  V30 8872 O 776.833 1.8827 0.534139 0
M  V30 8873 C 777.132 2.0364 -2.9371 0
M  V30 8874 C 776.798 1.38942 -4.28959 0
M  V30 8875 C 775.46 1.21027 -4.65732 0
M  V30 8876 C 777.812 0.924083 -5.12943 0
M  V30 8877 C 775.14 0.552097 -5.84097 0
M  V30 8878 C 777.492 0.27978 -6.31981 0
M  V30 8879 C 776.156 0.0883843 -6.67441 0
M  V30 8880 H 775.426 0.393133 -0.628114 0
M  V30 8881 H 778.073 0.352712 -1.88224 0
M  V30 8882 H 776.378 2.82215 -2.71775 0
M  V30 8883 H 778.075 2.6085 -3.04562 0
M  V30 8884 H 774.665 1.53885 -4.00022 0
M  V30 8885 H 778.849 1.05032 -4.85059 0
M  V30 8886 H 774.105 0.392502 -6.10139 0
M  V30 8887 H 778.279 -0.0888479 -6.96343 0
M  V30 8888 H 775.906 -0.423657 -7.59019 0
M  V30 8889 N 777.481 1.45874 0.596531 0
M  V30 8890 C 778.428 1.55389 1.70655 0
M  V30 8891 C 779.398 0.399036 1.61236 0
M  V30 8892 O 780.583 0.61396 1.80652 0
M  V30 8893 C 777.723 1.53705 3.0898 0
M  V30 8894 C 776.836 2.79823 3.29125 0
M  V30 8895 C 775.971 2.69735 4.5762 0
M  V30 8896 C 775.01 3.90856 4.71061 0
M  V30 8897 N 774.147 3.79237 5.90867 0
M  V30 8898 H 778.987 2.50211 1.61859 0
M  V30 8899 H 776.524 1.24146 0.789069 0
M  V30 8900 H 778.482 1.50715 3.89026 0
M  V30 8901 H 777.112 0.624247 3.16706 0
M  V30 8902 H 776.164 2.92852 2.42779 0
M  V30 8903 H 777.476 3.69628 3.34927 0
M  V30 8904 H 776.63 2.64773 5.45875 0
M  V30 8905 H 775.369 1.77547 4.54234 0
M  V30 8906 H 774.374 3.96164 3.81227 0
M  V30 8907 H 775.599 4.84124 4.76236 0
M  V30 8908 H 773.545 2.89825 5.88504 0
M  V30 8909 H 773.462 4.62686 5.97877 0
M  V30 8910 H 774.73 3.78227 6.8159 0
M  V30 8911 N 778.959 -0.83999 1.33349 0
M  V30 8912 C 780.187 -1.62728 1.27778 0
M  V30 8913 C 780.602 -1.88191 -0.151505 0
M  V30 8914 O 779.959 -1.46128 -1.09329 0
M  V30 8915 C 780.01 -2.97813 2.04913 0
M  V30 8916 O 779.731 -2.73469 3.42266 0
M  V30 8917 C 781.232 -3.92245 2.0654 0
M  V30 8918 H 778.452 -0.506374 0.440257 0
M  V30 8919 H 780.996 -1.04637 1.75703 0
M  V30 8920 H 779.151 -3.52509 1.60674 0
M  V30 8921 H 779.565 -3.59483 3.81932 0
M  V30 8922 H 781.039 -4.84249 2.64966 0
M  V30 8923 H 781.516 -4.26332 1.05537 0
M  V30 8924 H 782.122 -3.43487 2.50793 0
M  V30 8925 N 780.437 -1.16799 -1.0581 0
M  V30 8926 C 781.683 -0.953935 -1.78963 0
M  V30 8927 C 782.016 0.516638 -1.87202 0
M  V30 8928 O 781.291 1.38338 -1.36721 0
M  V30 8929 C 781.574 -1.58808 -3.23191 0
M  V30 8930 C 781.427 -3.13032 -3.23003 0
M  V30 8931 C 782.746 -1.2868 -4.20867 0
M  V30 8932 H 779.865 -0.347972 -0.64968 0
M  V30 8933 H 782.507 -1.44204 -1.23715 0
M  V30 8934 H 780.657 -1.17303 -3.70368 0
M  V30 8935 H 782.329 -3.63553 -2.83949 0
M  V30 8936 H 780.572 -3.46108 -2.61518 0
M  V30 8937 H 781.243 -3.52527 -4.24769 0
M  V30 8938 H 783.719 -1.6461 -3.82155 0
M  V30 8939 H 782.595 -1.75645 -5.20038 0
M  V30 8940 H 782.856 -0.206491 -4.41618 0
M  V30 8941 N 781.915 1.24427 -0.967243 0
M  V30 8942 C 783.164 1.91789 -0.624478 0
M  V30 8943 C 783.477 1.76448 0.844129 0
M  V30 8944 O 784.683 2.38495 1.2974 0
M  V30 8945 C 783.139 3.43743 -1.06626 0
M  V30 8946 C 782.747 3.67771 -2.55829 0
M  V30 8947 C 784.491 4.16958 -0.79662 0
M  V30 8948 C 782.398 5.13293 -2.93742 0
M  V30 8949 H 781.328 0.71811 -0.229856 0
M  V30 8950 H 783.979 1.41081 -1.17339 0
M  V30 8951 H 782.361 3.93484 -0.445663 0
M  V30 8952 H 783.535 3.28631 -3.23015 0
M  V30 8953 H 781.85 3.07841 -2.80398 0
M  V30 8954 H 784.447 5.24171 -1.05589 0
M  V30 8955 H 784.79 4.15442 0.267163 0
M  V30 8956 H 785.323 3.73164 -1.37816 0
M  V30 8957 H 782.062 5.19931 -3.9919 0
M  V30 8958 H 781.582 5.53433 -2.3124 0
M  V30 8959 H 783.261 5.81521 -2.83623 0
M  V30 8960 N 783.393 0.737304 1.3929 0
M  V30 8961 C 784.642 0.283129 1.99703 0
M  V30 8962 C 784.955 -1.13677 1.59176 0
M  V30 8963 O 786.161 -1.69058 2.12442 0
M  V30 8964 C 784.617 0.455262 3.57009 0
M  V30 8965 C 784.225 1.88319 4.06497 0
M  V30 8966 C 785.969 0.0629786 4.24453 0
M  V30 8967 C 783.876 2.00475 5.56385 0
M  V30 8968 H 782.806 0.102106 0.747054 0
M  V30 8969 H 785.457 0.911515 1.5926 0
M  V30 8970 H 783.839 -0.242057 3.9526 0
M  V30 8971 H 785.013 2.61265 3.79575 0
M  V30 8972 H 783.328 2.2289 3.51723 0
M  V30 8973 H 785.925 0.132787 5.34535 0
M  V30 8974 H 786.268 -0.982128 4.04549 0
M  V30 8975 H 786.801 0.71154 3.91385 0
M  V30 8976 H 783.54 3.03182 5.81172 0
M  V30 8977 H 783.06 1.31969 5.85102 0
M  V30 8978 H 784.739 1.787 6.21832 0
M  V30 8979 N 784.871 -1.49948 0.485112 0
M  V30 8980 C 786.096 -2.073 -0.0645059 0
M  V30 8981 C 786.521 -1.345 -1.31497 0
M  V30 8982 O 785.879 -0.39687 -1.76903 0
M  V30 8983 C 785.927 -3.59201 -0.317304 0
M  V30 8984 O 785.031 -3.88085 -1.39514 0
M  V30 8985 H 784.372 -0.663723 0.0191822 0
M  V30 8986 H 786.902 -1.92963 0.680179 0
M  V30 8987 H 786.912 -4.04227 -0.553604 0
M  V30 8988 H 785.587 -4.11602 0.596387 0
M  V30 8989 H 784.164 -3.54885 -1.14504 0
M  V30 8990 N 786.349 -0.21828 -1.56081 0
M  V30 8991 C 787.579 0.41865 -2.02314 0
M  V30 8992 C 787.987 1.54124 -1.09739 0
M  V30 8993 O 787.33 1.83435 -0.0986829 0
M  V30 8994 C 787.392 1.01439 -3.44892 0
M  V30 8995 C 787.056 0.0276523 -4.56992 0
M  V30 8996 C 788.053 -0.771526 -5.14143 0
M  V30 8997 C 785.738 -0.0901537 -5.02219 0
M  V30 8998 C 787.732 -1.67525 -6.14991 0
M  V30 8999 C 785.419 -0.997411 -6.02905 0
M  V30 9000 C 786.417 -1.78851 -6.59167 0
M  V30 9001 O 786.105 -2.68052 -7.57894 0
M  V30 9002 H 785.837 0.107066 -0.667468 0
M  V30 9003 H 788.391 -0.331191 -2.02712 0
M  V30 9004 H 786.621 1.81326 -3.41552 0
M  V30 9005 H 788.31 1.55838 -3.74792 0
M  V30 9006 H 789.076 -0.690945 -4.80053 0
M  V30 9007 H 784.955 0.515474 -4.58109 0
M  V30 9008 H 788.499 -2.29316 -6.58832 0
M  V30 9009 H 784.396 -1.07902 -6.36418 0
M  V30 9010 H 785.164 -2.6209 -7.75404 0
M  V30 9011 N 787.827 1.57504 0.0551401 0
M  V30 9012 C 789.076 1.87237 0.750009 0
M  V30 9013 C 789.389 0.813268 1.77891 0
M  V30 9014 O 790.595 0.99898 2.52453 0
M  V30 9015 C 789.051 3.32187 1.38491 0
M  V30 9016 C 788.659 4.46267 0.393707 0
M  V30 9017 C 790.403 3.71101 2.06117 0
M  V30 9018 C 788.31 5.82265 1.03547 0
M  V30 9019 H 787.24 0.698524 0.283866 0
M  V30 9020 H 789.891 1.835 0.00365997 0
M  V30 9021 H 788.273 3.30588 2.18008 0
M  V30 9022 H 789.447 4.59289 -0.372865 0
M  V30 9023 H 787.762 4.16015 -0.17902 0
M  V30 9024 H 790.359 4.70012 2.54937 0
M  V30 9025 H 790.702 3.01751 2.86796 0
M  V30 9026 H 791.235 3.74762 1.33409 0
M  V30 9027 H 787.974 6.54949 0.268644 0
M  V30 9028 H 787.494 5.73012 1.7725 0
M  V30 9029 H 789.173 6.28148 1.55047 0
M  V30 9030 N 789.305 -0.326896 1.54172 0
M  V30 9031 C 790.533 -1.08486 1.76177 0
M  V30 9032 C 790.948 -1.81815 0.508788 0
M  V30 9033 O 790.305 -1.74924 -0.520362 0
M  V30 9034 C 790.356 -2.08552 2.95276 0
M  V30 9035 O 790.077 -1.38202 4.15731 0
M  V30 9036 C 791.578 -2.96593 3.29466 0
M  V30 9037 H 788.798 -0.322835 0.588233 0
M  V30 9038 H 791.342 -0.374036 2.0105 0
M  V30 9039 H 789.497 -2.75174 2.72687 0
M  V30 9040 H 789.911 -2.05186 4.827 0
M  V30 9041 H 791.385 -3.62708 4.16109 0
M  V30 9042 H 791.862 -3.63511 2.46487 0
M  V30 9043 H 792.468 -2.35537 3.54122 0
M  V30 9044 N 790.784 -1.46188 -0.588786 0
M  V30 9045 C 792.014 -1.54519 -1.3714 0
M  V30 9046 C 792.422 -0.183075 -1.88312 0
M  V30 9047 O 791.765 0.828815 -1.6394 0
M  V30 9048 C 791.827 -2.48426 -2.59856 0
M  V30 9049 C 791.491 -3.94791 -2.30193 0
M  V30 9050 C 792.488 -4.84173 -1.894 0
M  V30 9051 C 790.173 -4.39872 -2.42525 0
M  V30 9052 C 792.167 -6.16647 -1.61325 0
M  V30 9053 C 789.854 -5.72381 -2.14063 0
M  V30 9054 C 790.852 -6.60589 -1.73527 0
M  V30 9055 O 790.54 -7.9064 -1.4541 0
M  V30 9056 H 790.272 -0.525264 -0.425527 0
M  V30 9057 H 792.826 -1.92242 -0.723344 0
M  V30 9058 H 791.056 -2.05709 -3.27446 0
M  V30 9059 H 792.745 -2.4723 -3.21919 0
M  V30 9060 H 793.511 -4.50603 -1.79393 0
M  V30 9061 H 789.39 -3.71444 -2.7304 0
M  V30 9062 H 792.934 -6.85454 -1.29611 0
M  V30 9063 H 788.831 -6.05501 -2.23693 0
M  V30 9064 H 789.599 -8.02847 -1.59306 0
M  V30 9065 N 792.262 0.832906 -1.33792 0
M  V30 9066 C 793.509 1.58853 -1.25586 0
M  V30 9067 C 793.837 1.93695 0.176807 0
M  V30 9068 O 793.092 1.59386 1.13554 0
M  V30 9069 C 793.391 2.9047 -2.08235 0
M  V30 9070 C 793.057 2.74965 -3.57358 0
M  V30 9071 C 791.719 2.70444 -3.98012 0
M  V30 9072 C 794.071 2.59347 -4.52093 0
M  V30 9073 C 791.399 2.48212 -5.31608 0
M  V30 9074 C 793.751 2.38649 -5.85858 0
M  V30 9075 C 792.415 2.32533 -6.25687 0
M  V30 9076 H 791.685 0.581285 -0.459553 0
M  V30 9077 H 794.332 0.964501 -1.65438 0
M  V30 9078 H 792.637 3.57111 -1.6118 0
M  V30 9079 H 794.334 3.48001 -1.99239 0
M  V30 9080 H 790.924 2.79319 -3.25083 0
M  V30 9081 H 795.108 2.6187 -4.2159 0
M  V30 9082 H 790.364 2.41929 -5.61498 0
M  V30 9083 H 794.538 2.25549 -6.58863 0
M  V30 9084 H 792.165 2.15067 -7.29143 0
M  V30 9085 N 793.74 1.17359 1.05189 0
M  V30 9086 C 794.67 0.91365 2.14883 0
M  V30 9087 C 795.651 -0.144365 1.69486 0
M  V30 9088 O 796.836 0.00587861 1.94199 0
M  V30 9089 C 793.966 0.426196 3.44675 0
M  V30 9090 C 792.92 1.4234 4.03638 0
M  V30 9091 C 792.246 0.793902 5.28773 0
M  V30 9092 C 793.546 2.7966 4.41121 0
M  V30 9093 H 795.24 1.831 2.36885 0
M  V30 9094 H 792.786 0.881781 1.13845 0
M  V30 9095 H 794.739 0.231767 4.20762 0
M  V30 9096 H 793.463 -0.526693 3.22325 0
M  V30 9097 H 792.122 1.60457 3.2962 0
M  V30 9098 H 791.77 -0.165824 5.02727 0
M  V30 9099 H 791.47 1.45959 5.69183 0
M  V30 9100 H 792.994 0.609747 6.07548 0
M  V30 9101 H 794.408 2.6526 5.08242 0
M  V30 9102 H 792.805 3.42807 4.92548 0
M  V30 9103 H 793.875 3.34068 3.51464 0
M  V30 9104 N 795.218 -1.23913 0.973828 0
M  V30 9105 C 796.465 -1.92151 0.639079 0
M  V30 9106 C 796.793 -1.76064 -0.826545 0
M  V30 9107 O 796.048 -1.11126 -1.61088 0
M  V30 9108 C 796.347 -3.4406 0.967356 0
M  V30 9109 C 796.013 -3.80321 2.42212 0
M  V30 9110 C 794.675 -3.8993 2.81971 0
M  V30 9111 C 797.027 -3.97935 3.36596 0
M  V30 9112 C 794.355 -4.14575 4.15144 0
M  V30 9113 C 796.707 -4.24079 4.69404 0
M  V30 9114 C 795.371 -4.31908 5.08932 0
M  V30 9115 H 794.641 -0.70313 0.233856 0
M  V30 9116 H 797.288 -1.47072 1.22646 0
M  V30 9117 H 795.593 -3.90667 0.297807 0
M  V30 9118 H 797.29 -3.95077 0.686654 0
M  V30 9119 H 793.88 -3.73411 2.10385 0
M  V30 9120 H 798.064 -3.89908 3.07059 0
M  V30 9121 H 793.32 -4.18858 4.45385 0
M  V30 9122 H 797.494 -4.36652 5.42502 0
M  V30 9123 H 795.121 -4.50758 6.12145 0
M  V30 9124 N 796.696 -0.74468 -1.38897 0
M  V30 9125 C 797.626 -0.126355 -2.33158 0
M  V30 9126 C 798.607 0.713517 -1.54412 0
M  V30 9127 O 799.792 0.656523 -1.82766 0
M  V30 9128 C 796.922 0.774375 -3.38557 0
M  V30 9129 C 795.876 0.0379214 -4.27983 0
M  V30 9130 C 795.202 1.05631 -5.24162 0
M  V30 9131 C 796.502 -1.12523 -5.10035 0
M  V30 9132 H 798.196 -0.913744 -2.85116 0
M  V30 9133 H 795.742 -0.440847 -1.37086 0
M  V30 9134 H 797.695 1.21655 -4.03458 0
M  V30 9135 H 796.419 1.59399 -2.85061 0
M  V30 9136 H 795.078 -0.384733 -3.64576 0
M  V30 9137 H 794.726 1.86975 -4.66958 0
M  V30 9138 H 794.426 0.568261 -5.84846 0
M  V30 9139 H 795.95 1.49799 -5.9194 0
M  V30 9140 H 797.364 -0.761037 -5.68226 0
M  V30 9141 H 795.761 -1.54355 -5.79909 0
M  V30 9142 H 796.831 -1.94237 -4.44297 0
M  V30 9143 N 798.174 1.49689 -0.493057 0
M  V30 9144 C 799.414 2.04332 0.0527374 0
M  V30 9145 C 799.778 1.36522 1.35003 0
M  V30 9146 O 800.979 1.81842 1.97957 0
M  V30 9147 C 799.25 3.56782 0.210044 0
M  V30 9148 S 800.809 4.32998 0.711232 0
M  V30 9149 H 797.627 0.710978 0.00554853 0
M  V30 9150 H 800.229 1.83835 -0.665213 0
M  V30 9151 H 798.933 4.03681 -0.739566 0
M  V30 9152 H 798.464 3.81671 0.953468 0
M  V30 9153 H 800.479 4.54916 1.98156 0
M  V30 9154 N 799.652 0.226554 1.55963 0
M  V30 9155 C 800.901 -0.40417 1.97609 0
M  V30 9156 C 801.214 -1.60541 1.1174 0
M  V30 9157 O 802.42 -2.30598 1.43307 0
M  V30 9158 C 800.876 -0.770466 3.51556 0
M  V30 9159 C 800.484 0.408244 4.46136 0
M  V30 9160 C 802.228 -1.36651 4.01904 0
M  V30 9161 C 800.135 0.0192347 5.91397 0
M  V30 9162 H 799.065 -0.15478 0.737943 0
M  V30 9163 H 801.716 0.323558 1.80625 0
M  V30 9164 H 800.098 -1.55575 3.6416 0
M  V30 9165 H 801.272 1.18575 4.45283 0
M  V30 9166 H 799.587 0.917859 4.06158 0
M  V30 9167 H 802.184 -1.67055 5.07934 0
M  V30 9168 H 802.527 -2.28403 3.48049 0
M  V30 9169 H 803.06 -0.644556 3.92543 0
M  V30 9170 H 799.799 0.90336 6.49245 0
M  V30 9171 H 799.319 -0.722485 5.95433 0
M  V30 9172 H 800.998 -0.405711 6.45727 0
M  V30 9173 N 801.13 -1.57531 -0.0467866 0
M  V30 9174 C 802.377 -1.88451 -0.74112 0
M  V30 9175 C 802.705 -0.821592 -1.76296 0
M  V30 9176 O 801.96 0.179585 -1.94874 0
M  V30 9177 C 802.259 -3.26091 -1.46285 0
M  V30 9178 C 801.925 -4.47171 -0.578669 0
M  V30 9179 C 800.587 -4.80032 -0.335083 0
M  V30 9180 C 802.939 -5.2119 0.0328809 0
M  V30 9181 C 800.267 -5.84309 0.529121 0
M  V30 9182 C 802.619 -6.26383 0.884684 0
M  V30 9183 C 801.283 -6.57729 1.1379 0
M  V30 9184 H 800.553 -0.68959 -0.271195 0
M  V30 9185 H 803.2 -1.915 -0.00132378 0
M  V30 9186 H 801.505 -3.18948 -2.27551 0
M  V30 9187 H 803.202 -3.47258 -2.00532 0
M  V30 9188 H 799.792 -4.21467 -0.778666 0
M  V30 9189 H 803.976 -4.96096 -0.142375 0
M  V30 9190 H 799.232 -6.06981 0.733794 0
M  V30 9191 H 803.406 -6.82888 1.36516 0
M  V30 9192 H 801.033 -7.38355 1.80929 0
M  V30 9193 N 802.608 0.318715 -1.54344 0
M  V30 9194 C 803.836 1.0755 -1.7675 0
M  V30 9195 C 804.251 1.81543 -0.518422 0
M  V30 9196 O 803.608 1.75198 0.511078 0
M  V30 9197 C 803.659 2.06983 -2.96378 0
M  V30 9198 O 803.38 1.35995 -4.16458 0
M  V30 9199 C 804.881 2.94841 -3.31034 0
M  V30 9200 H 802.101 0.319711 -0.589937 0
M  V30 9201 H 804.645 0.363369 -2.01246 0
M  V30 9202 H 802.8 2.73724 -2.74142 0
M  V30 9203 H 803.214 2.02623 -4.83781 0
M  V30 9204 H 804.688 3.60496 -4.18027 0
M  V30 9205 H 805.165 3.62199 -2.48412 0
M  V30 9206 H 805.771 2.33656 -3.55366 0
M  V30 9207 N 804.086 1.46499 0.581025 0
M  V30 9208 C 805.316 1.55244 1.36319 0
M  V30 9209 C 805.724 0.193059 1.88212 0
M  V30 9210 O 805.067 -0.820109 1.64377 0
M  V30 9211 C 805.129 2.498 2.58535 0
M  V30 9212 C 804.793 3.96007 2.28096 0
M  V30 9213 C 805.79 4.85171 1.8683 0
M  V30 9214 C 803.475 4.41152 2.40189 0
M  V30 9215 C 805.469 6.17493 1.58053 0
M  V30 9216 C 803.156 5.73508 2.11024 0
M  V30 9217 C 804.154 6.615 1.70021 0
M  V30 9218 O 803.842 7.914 1.41215 0
M  V30 9219 H 803.574 0.527513 0.422736 0
M  V30 9220 H 806.128 1.92623 0.713139 0
M  V30 9221 H 804.358 2.07443 3.2635 0
M  V30 9222 H 806.047 2.48934 3.20604 0
M  V30 9223 H 806.813 4.51548 1.77001 0
M  V30 9224 H 802.692 3.72886 2.71066 0
M  V30 9225 H 806.236 6.86131 1.25974 0
M  V30 9226 H 802.133 6.06679 2.20478 0
M  V30 9227 H 802.901 8.03681 1.55046 0
M  V30 9228 N 805.565 -0.825799 1.34232 0
M  V30 9229 C 806.812 -1.58185 1.26427 0
M  V30 9230 C 807.14 -1.93786 -0.166533 0
M  V30 9231 O 806.395 -1.59986 -1.12707 0
M  V30 9232 C 806.694 -2.89362 2.09772 0
M  V30 9233 C 806.36 -2.73066 3.58812 0
M  V30 9234 C 805.022 -2.68329 3.99441 0
M  V30 9235 C 807.374 -2.56946 4.53462 0
M  V30 9236 C 804.702 -2.4539 5.32917 0
M  V30 9237 C 807.054 -2.35538 5.87115 0
M  V30 9238 C 805.718 -2.29212 6.26912 0
M  V30 9239 H 804.988 -0.57884 0.462629 0
M  V30 9240 H 807.635 -0.955714 1.65947 0
M  V30 9241 H 805.94 -3.56251 1.63071 0
M  V30 9242 H 807.637 -3.4694 2.01081 0
M  V30 9243 H 804.227 -2.77591 3.26559 0
M  V30 9244 H 808.411 -2.59631 4.22972 0
M  V30 9245 H 803.667 -2.38947 5.62774 0
M  V30 9246 H 807.841 -2.22051 6.6005 0
M  V30 9247 H 805.468 -2.11197 7.30274 0
M  V30 9248 N 807.043 -1.17915 -1.04565 0
M  V30 9249 C 808.29 -0.971424 -1.77678 0
M  V30 9250 C 808.618 0.499401 -1.87979 0
M  V30 9251 O 807.873 1.38695 -1.38066 0
M  V30 9252 C 808.172 -1.56528 -3.213 0
M  V30 9253 C 807.838 -3.06138 -3.31044 0
M  V30 9254 C 806.5 -3.46974 -3.33411 0
M  V30 9255 C 808.852 -4.02151 -3.31548 0
M  V30 9256 C 806.18 -4.82406 -3.33918 0
M  V30 9257 C 808.532 -5.37492 -3.33595 0
M  V30 9258 C 807.196 -5.77782 -3.34251 0
M  V30 9259 H 806.466 -0.355469 -0.650171 0
M  V30 9260 H 809.113 -1.46902 -1.22849 0
M  V30 9261 H 807.418 -0.98955 -3.79098 0
M  V30 9262 H 809.115 -1.38003 -3.76505 0
M  V30 9263 H 805.705 -2.73589 -3.29919 0
M  V30 9264 H 809.889 -3.71656 -3.28916 0
M  V30 9265 H 805.145 -5.12927 -3.3274 0
M  V30 9266 H 809.319 -6.1166 -3.32934 0
M  V30 9267 H 806.946 -6.82702 -3.34397 0
M  V30 9268 N 808.521 1.23394 -0.980386 0
M  V30 9269 C 809.468 2.24859 -0.520298 0
M  V30 9270 C 810.438 1.60144 0.440821 0
M  V30 9271 O 811.623 1.87593 0.348369 0
M  V30 9272 C 808.763 3.44675 0.171145 0
M  V30 9273 C 807.876 4.23947 -0.830233 0
M  V30 9274 C 807.011 5.31079 -0.113597 0
M  V30 9275 C 806.05 6.02058 -1.10419 0
M  V30 9276 N 805.187 7.00862 -0.416709 0
M  V30 9277 H 810.027 2.63579 -1.39032 0
M  V30 9278 H 807.564 1.29556 -0.696682 0
M  V30 9279 H 809.522 4.13024 0.588838 0
M  V30 9280 H 808.152 3.06755 1.00504 0
M  V30 9281 H 807.204 3.55016 -1.36631 0
M  V30 9282 H 808.516 4.72945 -1.58508 0
M  V30 9283 H 807.67 6.05622 0.36146 0
M  V30 9284 H 806.409 4.83022 0.673854 0
M  V30 9285 H 805.414 5.26307 -1.59 0
M  V30 9286 H 806.639 6.52203 -1.8923 0
M  V30 9287 H 804.585 6.55057 0.351535 0
M  V30 9288 H 804.502 7.47804 -1.11021 0
M  V30 9289 H 805.77 7.79492 0.0359606 0
M  V30 9290 N 809.999 0.752036 1.385 0
M  V30 9291 C 810.929 0.138718 2.33088 0
M  V30 9292 C 811.91 -0.705318 1.54788 0
M  V30 9293 O 813.095 -0.646821 1.83112 0
M  V30 9294 C 810.225 -0.75641 3.38963 0
M  V30 9295 C 809.179 -0.0152239 4.27997 0
M  V30 9296 C 808.505 -1.0285 5.24715 0
M  V30 9297 C 809.805 1.15226 5.09431 0
M  V30 9298 H 811.499 0.928852 2.84627 0
M  V30 9299 H 809.045 0.448111 1.3685 0
M  V30 9300 H 810.998 -1.19513 4.04097 0
M  V30 9301 H 809.722 -1.57885 2.85902 0
M  V30 9302 H 808.381 0.404061 3.64366 0
M  V30 9303 H 808.029 -1.84496 4.67943 0
M  V30 9304 H 807.729 -0.537238 5.85139 0
M  V30 9305 H 809.253 -1.46657 5.92726 0
M  V30 9306 H 810.667 0.791161 5.67815 0
M  V30 9307 H 809.064 1.57428 5.79082 0
M  V30 9308 H 810.134 1.9659 4.43261 0
M  V30 9309 N 811.477 -1.49425 0.500989 0
M  V30 9310 C 812.707 -2.06561 -0.0402858 0
M  V30 9311 C 813.115 -1.36157 -1.31369 0
M  V30 9312 O 812.458 -0.433618 -1.78509 0
M  V30 9313 C 812.52 -3.5765 -0.364269 0
M  V30 9314 C 812.184 -4.49739 0.811417 0
M  V30 9315 C 813.181 -4.91255 1.7019 0
M  V30 9316 C 810.866 -4.92036 1.01022 0
M  V30 9317 C 812.86 -5.73806 2.77534 0
M  V30 9318 C 810.547 -5.74364 2.08683 0
M  V30 9319 C 811.545 -6.15154 2.96774 0
M  V30 9320 O 811.233 -6.95836 4.02577 0
M  V30 9321 H 810.965 -0.67578 0.0172357 0
M  V30 9322 H 813.519 -1.93193 0.697553 0
M  V30 9323 H 811.749 -3.69026 -1.1557 0
M  V30 9324 H 813.438 -3.97025 -0.844156 0
M  V30 9325 H 814.204 -4.59222 1.56013 0
M  V30 9326 H 810.083 -4.59789 0.333929 0
M  V30 9327 H 813.627 -6.05564 3.4632 0
M  V30 9328 H 809.524 -6.0581 2.22855 0
M  V30 9329 H 810.292 -7.14142 3.9993 0
M  V30 9330 N 812.955 -0.234822 -1.55841 0
M  V30 9331 C 813.887 0.702346 -2.18174 0
M  V30 9332 C 814.9 1.14776 -1.15457 0
M  V30 9333 O 816.089 1.07662 -1.42377 0
M  V30 9334 C 813.189 1.96483 -2.76129 0
M  V30 9335 C 812.362 1.67283 -4.04148 0
M  V30 9336 C 811.421 2.7837 -4.46539 0
M  V30 9337 O 810.447 2.46272 -5.13166 0
M  V30 9338 N 811.649 4.07611 -4.1332 0
M  V30 9339 H 814.414 0.169074 -2.99223 0
M  V30 9340 H 811.975 -0.0543164 -1.61809 0
M  V30 9341 H 813.967 2.70016 -3.01452 0
M  V30 9342 H 812.537 2.40822 -1.99307 0
M  V30 9343 H 811.757 0.773278 -3.86541 0
M  V30 9344 H 813.045 1.45222 -4.87635 0
M  V30 9345 H 812.443 4.36527 -3.59806 0
M  V30 9346 H 811 4.77646 -4.43506 0
M  V30 9347 N 814.433 1.57553 0.0384317 0
M  V30 9348 C 815.365 2.02726 1.06934 0
M  V30 9349 C 816.378 0.938502 1.33026 0
M  V30 9350 O 817.567 1.21595 1.30678 0
M  V30 9351 C 814.667 2.37958 2.41308 0
M  V30 9352 C 813.84 3.69098 2.34703 0
M  V30 9353 C 812.899 3.91623 3.51451 0
M  V30 9354 O 811.925 4.628 3.31368 0
M  V30 9355 N 813.127 3.36538 4.72993 0
M  V30 9356 H 815.892 2.91781 0.684381 0
M  V30 9357 H 813.453 1.60307 0.226542 0
M  V30 9358 H 815.445 2.50172 3.18113 0
M  V30 9359 H 814.015 1.54621 2.71682 0
M  V30 9360 H 813.235 3.67325 1.43059 0
M  V30 9361 H 814.523 4.55144 2.27424 0
M  V30 9362 H 813.921 2.78828 4.92211 0
M  V30 9363 H 812.478 3.54148 5.47195 0
M  V30 9364 N 815.911 -0.310526 1.54511 0
M  V30 9365 C 816.861 -1.38405 1.81185 0
M  V30 9366 C 817.845 -1.46355 0.668499 0
M  V30 9367 O 819.037 -1.50668 0.928873 0
M  V30 9368 C 816.166 -2.75059 2.0542 0
M  V30 9369 C 815.252 -2.7137 3.25913 0
M  V30 9370 N 815.643 -2.37298 4.4668 0
M  V30 9371 C 813.941 -3.02484 3.27749 0
M  V30 9372 C 814.642 -2.42669 5.28665 0
M  V30 9373 N 813.618 -2.79639 4.66158 0
M  V30 9374 H 817.42 -1.11012 2.72128 0
M  V30 9375 H 814.934 -0.519068 1.53881 0
M  V30 9376 H 816.931 -3.52451 2.22674 0
M  V30 9377 H 815.591 -3.03372 1.15739 0
M  V30 9378 H 816.602 -2.09917 4.73451 0
M  V30 9379 H 813.279 -3.35754 2.48144 0
M  V30 9380 H 814.669 -2.19206 6.35136 0
M  V30 9381 N 817.389 -1.46805 -0.573248 0
M  V30 9382 C 818.336 -1.58084 -1.68161 0
M  V30 9383 C 819.306 -0.424636 -1.6058 0
M  V30 9384 O 820.491 -0.642623 -1.79652 0
M  V30 9385 C 817.631 -1.58601 -3.06496 0
M  V30 9386 C 816.744 -2.85023 -3.24632 0
M  V30 9387 C 815.879 -2.76981 -4.53271 0
M  V30 9388 C 814.918 -3.983 -4.64783 0
M  V30 9389 N 814.055 -3.88589 -5.84759 0
M  V30 9390 H 818.895 -2.52755 -1.57858 0
M  V30 9391 H 816.432 -1.25385 -0.769218 0
M  V30 9392 H 818.39 -1.56885 -3.86579 0
M  V30 9393 H 817.02 -0.674553 -3.15673 0
M  V30 9394 H 816.072 -2.96678 -2.38089 0
M  V30 9395 H 817.384 -3.7491 -3.29004 0
M  V30 9396 H 816.538 -2.73424 -5.41594 0
M  V30 9397 H 815.277 -1.84751 -4.51352 0
M  V30 9398 H 814.282 -4.02179 -3.74876 0
M  V30 9399 H 815.507 -4.91639 -4.68474 0
M  V30 9400 H 813.453 -2.99151 -5.83819 0
M  V30 9401 H 813.37 -4.7214 -5.90441 0
M  V30 9402 H 814.638 -3.89022 -6.75486 0
M  V30 9403 N 818.867 0.818669 -1.34668 0
M  V30 9404 C 820.097 1.60441 -1.30162 0
M  V30 9405 C 820.505 1.88783 0.125579 0
M  V30 9406 O 819.848 1.48281 1.08437 0
M  V30 9407 C 819.91 2.96794 -2.02864 0
M  V30 9408 C 819.574 2.91327 -3.52105 0
M  V30 9409 C 820.571 2.65611 -4.4693 0
M  V30 9410 C 818.256 3.10825 -3.9458 0
M  V30 9411 C 820.25 2.59452 -5.82206 0
M  V30 9412 C 817.937 3.0429 -5.29954 0
M  V30 9413 C 818.935 2.78637 -6.23579 0
M  V30 9414 O 818.623 2.72042 -7.56471 0
M  V30 9415 H 818.355 0.505278 -0.449077 0
M  V30 9416 H 820.909 1.02632 -1.77921 0
M  V30 9417 H 819.139 3.56538 -1.49725 0
M  V30 9418 H 820.828 3.57837 -1.91592 0
M  V30 9419 H 821.594 2.50278 -4.15434 0
M  V30 9420 H 817.473 3.29807 -3.221 0
M  V30 9421 H 821.017 2.39349 -6.55254 0
M  V30 9422 H 816.914 3.19177 -5.61067 0
M  V30 9423 H 817.682 2.87738 -7.66257 0
M  V30 9424 N 820.346 1.18468 1.03938 0
M  V30 9425 C 821.294 0.909286 2.14091 0
M  V30 9426 C 822.288 -0.130928 1.68893 0
M  V30 9427 O 823.494 0.0173403 1.79992 0
M  V30 9428 H 819.869 0.27658 0.699291 0
M  V30 9429 H 821.84 1.84514 2.34515 0
M  V30 9430 C 820.589 0.452922 3.44737 0
M  V30 9431 H 819.912 1.24485 3.79926 0
M  V30 9432 H 821.352 0.299238 4.22943 0
M  V30 9433 C 819.811 -0.831435 3.26479 0
M  V30 9434 O 820.341 -1.89535 3.54174 0
M  V30 9435 N 818.547 -0.784545 2.79809 0
M  V30 9436 H 818.094 0.0814746 2.57471 0
M  V30 9437 H 818.052 -1.64431 2.67973 0
M  V30 9438 N 821.824 -1.22873 0.986916 0
M  V30 9439 C 823.073 -1.90772 0.654911 0
M  V30 9440 C 823.386 -1.77768 -0.81595 0
M  V30 9441 O 824.592 -2.40529 -1.25929 0
M  V30 9442 C 823.048 -3.42003 1.12081 0
M  V30 9443 C 822.656 -3.63655 2.61647 0
M  V30 9444 C 824.4 -4.15638 0.862854 0
M  V30 9445 C 822.307 -5.08555 3.01871 0
M  V30 9446 H 821.237 -0.714362 0.241252 0
M  V30 9447 H 823.888 -1.39196 1.19568 0
M  V30 9448 H 822.27 -3.92725 0.508207 0
M  V30 9449 H 823.444 -3.2345 3.28202 0
M  V30 9450 H 821.759 -3.03341 2.8526 0
M  V30 9451 H 824.356 -5.22425 1.13915 0
M  V30 9452 H 824.699 -4.15814 -0.201036 0
M  V30 9453 H 825.232 -3.70924 1.43736 0
M  V30 9454 H 821.971 -5.13514 4.07411 0
M  V30 9455 H 821.491 -5.49684 2.40015 0
M  V30 9456 H 823.17 -5.76936 2.92839 0
M  V30 9457 N 823.302 -0.75937 -1.38099 0
M  V30 9458 C 824.249 -0.135508 -2.30402 0
M  V30 9459 C 825.219 0.703356 -1.50473 0
M  V30 9460 O 826.404 0.658287 -1.79084 0
M  V30 9461 C 823.544 0.747228 -3.36913 0
M  V30 9462 C 822.657 -0.106893 -4.31868 0
M  V30 9463 C 821.792 0.779388 -5.25451 0
M  V30 9464 C 820.831 -0.0780179 -6.1205 0
M  V30 9465 N 819.968 0.765545 -6.97914 0
M  V30 9466 H 824.808 -0.9282 -2.83176 0
M  V30 9467 H 822.345 -0.46935 -1.39411 0
M  V30 9468 H 824.303 1.27371 -3.97281 0
M  V30 9469 H 822.933 1.50565 -2.85535 0
M  V30 9470 H 821.985 -0.751063 -3.72912 0
M  V30 9471 H 823.297 -0.768798 -4.9284 0
M  V30 9472 H 822.451 1.37282 -5.90964 0
M  V30 9473 H 821.19 1.47501 -4.6486 0
M  V30 9474 H 820.195 -0.684078 -5.45528 0
M  V30 9475 H 821.42 -0.770786 -6.74712 0
M  V30 9476 H 819.366 1.44601 -6.39864 0
M  V30 9477 H 819.283 0.160666 -7.55829 0
M  V30 9478 H 820.551 1.34377 -7.6783 0
M  V30 9479 N 824.78 1.49157 -0.508906 0
M  V30 9480 C 826.029 2.0167 0.0346854 0
M  V30 9481 C 826.342 1.39302 1.37311 0
M  V30 9482 O 827.548 1.83189 2.00385 0
M  V30 9483 C 826.004 3.59725 0.112261 0
M  V30 9484 C 825.612 4.31069 -1.21999 0
M  V30 9485 C 827.356 4.20155 0.605798 0
M  V30 9486 C 825.263 5.81001 -1.10415 0
M  V30 9487 H 824.193 0.753814 0.0167355 0
M  V30 9488 H 826.844 1.7162 -0.649518 0
M  V30 9489 H 825.226 3.86525 0.861087 0
M  V30 9490 H 826.4 4.15962 -1.98273 0
M  V30 9491 H 824.715 3.82418 -1.64759 0
M  V30 9492 H 827.312 5.29964 0.710102 0
M  V30 9493 H 827.655 3.84051 1.60656 0
M  V30 9494 H 828.188 3.97705 -0.0867239 0
M  V30 9495 H 824.927 6.21643 -2.07941 0
M  V30 9496 H 824.447 5.9858 -0.382428 0
M  V30 9497 H 826.126 6.42207 -0.786116 0
M  V30 9498 N 826.258 0.243083 1.55714 0
M  V30 9499 C 827.486 -0.386971 2.03249 0
M  V30 9500 C 827.901 -1.51812 1.12243 0
M  V30 9501 O 827.258 -1.81992 0.136119 0
M  V30 9502 C 827.309 -0.898361 3.5016 0
M  V30 9503 O 827.03 0.187708 4.37698 0
M  V30 9504 C 828.531 -1.59949 4.13438 0
M  V30 9505 H 825.751 -0.0923981 0.664608 0
M  V30 9506 H 828.295 0.365832 2.01201 0
M  V30 9507 H 826.45 -1.60136 3.52754 0
M  V30 9508 H 826.864 -0.200001 5.24119 0
M  V30 9509 H 828.338 -1.90907 5.17937 0
M  V30 9510 H 828.815 -2.52014 3.59702 0
M  V30 9511 H 829.421 -0.941163 4.14756 0
M  V30 9512 N 827.736 -1.57571 -0.0300757 0
M  V30 9513 C 828.669 -2.01874 -1.06406 0
M  V30 9514 C 829.647 -0.902901 -1.35227 0
M  V30 9515 O 830.831 -1.16865 -1.47901 0
M  V30 9516 C 827.958 -2.39093 -2.39901 0
M  V30 9517 C 827.004 -3.61108 -2.26943 0
M  V30 9518 S 827.837 -5.10287 -1.62382 0
M  V30 9519 C 828.993 -5.50747 -2.97369 0
M  V30 9520 H 829.226 -2.89261 -0.686703 0
M  V30 9521 H 826.759 -1.52523 -0.240017 0
M  V30 9522 H 828.717 -2.61207 -3.16672 0
M  V30 9523 H 827.378 -1.52159 -2.74784 0
M  V30 9524 H 826.571 -3.84803 -3.25489 0
M  V30 9525 H 826.173 -3.3884 -1.58314 0
M  V30 9526 H 828.465 -5.51369 -3.93698 0
M  V30 9527 H 829.408 -6.51071 -2.78409 0
M  V30 9528 H 829.816 -4.7825 -2.99895 0
M  V30 9529 N 829.214 0.302327 -1.54673 0
M  V30 9530 C 830.46 1.03924 -1.74149 0
M  V30 9531 C 830.793 1.86968 -0.525041 0
M  V30 9532 O 830.068 1.88538 0.477868 0
M  V30 9533 C 830.351 1.94633 -3.02969 0
M  V30 9534 C 830.204 1.14778 -4.34909 0
M  V30 9535 C 831.523 2.93826 -3.27649 0
M  V30 9536 H 828.642 0.376405 -0.633631 0
M  V30 9537 H 831.284 0.314007 -1.87387 0
M  V30 9538 H 829.434 2.56471 -2.91813 0
M  V30 9539 H 831.106 0.552363 -4.57981 0
M  V30 9540 H 829.349 0.450462 -4.31455 0
M  V30 9541 H 830.02 1.81495 -5.21309 0
M  V30 9542 H 832.496 2.42117 -3.38406 0
M  V30 9543 H 831.372 3.54462 -4.19104 0
M  V30 9544 H 831.633 3.67416 -2.45882 0
M  V30 9545 N 830.692 1.47107 0.565454 0
M  V30 9546 C 831.639 1.58974 1.6732 0
M  V30 9547 C 832.609 0.433146 1.60353 0
M  V30 9548 O 833.794 0.652141 1.79309 0
M  V30 9549 C 830.934 1.60224 3.05651 0
M  V30 9550 C 830.047 2.86741 3.23116 0
M  V30 9551 C 829.182 2.79381 4.51796 0
M  V30 9552 C 828.221 4.0076 4.62664 0
M  V30 9553 N 827.358 3.91685 5.8269 0
M  V30 9554 H 832.198 2.53588 1.56515 0
M  V30 9555 H 829.735 1.25791 0.762558 0
M  V30 9556 H 831.693 1.58933 3.85741 0
M  V30 9557 H 830.323 0.691285 3.15311 0
M  V30 9558 H 829.375 2.97936 2.36513 0
M  V30 9559 H 830.687 3.7665 3.27011 0
M  V30 9560 H 829.841 2.76293 5.40136 0
M  V30 9561 H 828.58 1.87142 4.50366 0
M  V30 9562 H 827.585 4.04162 3.72738 0
M  V30 9563 H 828.81 4.94117 4.6586 0
M  V30 9564 H 826.756 3.02243 5.82224 0
M  V30 9565 H 826.673 4.75264 5.87929 0
M  V30 9566 H 827.941 3.92599 6.73414 0
M  V30 9567 N 832.17 -0.811516 1.35101 0
M  V30 9568 C 833.4 -1.59749 1.31011 0
M  V30 9569 C 833.808 -1.88847 -0.115566 0
M  V30 9570 O 833.151 -1.48854 -1.07649 0
M  V30 9571 C 833.213 -2.95714 2.04435 0
M  V30 9572 C 832.877 -2.89456 3.53645 0
M  V30 9573 C 833.874 -2.63237 4.48333 0
M  V30 9574 C 831.559 -3.08728 3.96222 0
M  V30 9575 C 833.553 -2.56361 5.83573 0
M  V30 9576 C 831.24 -3.01475 5.3156 0
M  V30 9577 C 832.238 -2.75326 6.25048 0
M  V30 9578 O 831.926 -2.68026 7.57903 0
M  V30 9579 H 831.658 -0.502889 0.45175 0
M  V30 9580 H 834.212 -1.01687 1.78462 0
M  V30 9581 H 832.442 -3.55739 1.51613 0
M  V30 9582 H 834.131 -3.56816 1.93487 0
M  V30 9583 H 834.897 -2.48072 4.16756 0
M  V30 9584 H 830.776 -3.28094 3.23845 0
M  V30 9585 H 834.32 -2.35871 6.56514 0
M  V30 9586 H 830.217 -3.16197 5.62752 0
M  V30 9587 H 830.985 -2.8367 7.67772 0
M  V30 9588 N 833.648 -1.19017 -1.03309 0
M  V30 9589 C 834.596 -0.920627 -2.13605 0
M  V30 9590 C 835.59 0.121969 -1.6896 0
M  V30 9591 O 836.796 -0.0268854 -1.7998 0
M  V30 9592 H 833.171 -0.280284 -0.697814 0
M  V30 9593 H 835.142 -1.85755 -2.33533 0
M  V30 9594 C 833.891 -0.471198 -3.44492 0
M  V30 9595 H 833.214 -1.26499 -3.7926 0
M  V30 9596 H 834.654 -0.321663 -4.22778 0
M  V30 9597 C 833.113 0.81411 -3.26916 0
M  V30 9598 O 833.643 1.87654 -3.55175 0
M  V30 9599 N 831.849 0.769695 -2.80221 0
M  V30 9600 H 831.396 -0.0951278 -2.57424 0
M  V30 9601 H 831.354 1.63008 -2.68842 0
M  V30 9602 N 835.127 1.22348 -0.993418 0
M  V30 9603 C 836.357 1.94842 -0.687023 0
M  V30 9604 C 836.765 1.73594 0.752445 0
M  V30 9605 O 836.108 1.03238 1.51946 0
M  V30 9606 C 836.17 3.47694 -0.913754 0
M  V30 9607 C 835.834 3.92678 -2.33781 0
M  V30 9608 C 836.831 4.0031 -3.31734 0
M  V30 9609 C 834.516 4.25311 -2.67237 0
M  V30 9610 C 836.51 4.39951 -4.61218 0
M  V30 9611 C 834.197 4.64631 -3.9694 0
M  V30 9612 C 835.195 4.71919 -4.93742 0
M  V30 9613 O 834.883 5.10349 -6.21127 0
M  V30 9614 H 834.615 0.626771 -0.253247 0
M  V30 9615 H 837.169 1.56436 -1.33105 0
M  V30 9616 H 835.399 3.86115 -0.212552 0
M  V30 9617 H 837.088 4.01403 -0.602528 0
M  V30 9618 H 837.854 3.75288 -3.07219 0
M  V30 9619 H 833.733 4.18842 -1.92594 0
M  V30 9620 H 837.277 4.45555 -5.36774 0
M  V30 9621 H 833.174 4.89104 -4.21245 0
M  V30 9622 H 833.942 5.2842 -6.25072 0
M  V30 9623 N 836.605 0.766683 1.37694 0
M  V30 9624 C 837.535 0.163432 2.32927 0
M  V30 9625 C 838.516 -0.688861 1.55527 0
M  V30 9626 O 839.701 -0.627363 1.83787 0
M  V30 9627 C 836.831 -0.720416 3.39746 0
M  V30 9628 C 835.785 0.0301718 4.27989 0
M  V30 9629 C 835.111 -0.972788 5.25776 0
M  V30 9630 C 836.411 1.20623 5.0818 0
M  V30 9631 H 838.105 0.958988 2.83626 0
M  V30 9632 H 835.651 0.462601 1.36367 0
M  V30 9633 H 837.604 -1.15221 4.05342 0
M  V30 9634 H 836.328 -1.54844 2.8756 0
M  V30 9635 H 834.987 0.442685 3.63917 0
M  V30 9636 H 834.635 -1.79522 4.69873 0
M  V30 9637 H 834.335 -0.475145 5.85676 0
M  V30 9638 H 835.859 -1.40362 5.94248 0
M  V30 9639 H 837.273 0.851341 5.66944 0
M  V30 9640 H 835.67 1.63561 5.7738 0
M  V30 9641 H 836.74 2.01281 4.41151 0
M  V30 9642 N 838.083 -1.48885 0.516809 0
M  V30 9643 C 839.33 -2.02488 -0.0220602 0
M  V30 9644 C 839.658 -1.39513 -1.35523 0
M  V30 9645 O 838.913 -0.52558 -1.8851 0
M  V30 9646 C 839.212 -3.56801 -0.206798 0
M  V30 9647 C 838.878 -4.38496 1.05035 0
M  V30 9648 C 837.54 -4.60538 1.39492 0
M  V30 9649 C 839.892 -4.85909 1.88525 0
M  V30 9650 C 837.22 -5.2724 2.57361 0
M  V30 9651 C 839.572 -5.53909 3.05561 0
M  V30 9652 C 838.236 -5.74193 3.4038 0
M  V30 9653 H 837.506 -0.740956 -0.00807238 0
M  V30 9654 H 840.153 -1.79014 0.680168 0
M  V30 9655 H 838.458 -3.79042 -0.991687 0
M  V30 9656 H 840.155 -3.95885 -0.638447 0
M  V30 9657 H 836.745 -4.2159 0.771984 0
M  V30 9658 H 840.929 -4.68694 1.63218 0
M  V30 9659 H 836.185 -5.41145 2.84556 0
M  V30 9660 H 840.359 -5.89619 3.7057 0
M  V30 9661 H 837.986 -6.25652 4.31814 0
M  V30 9662 N 839.561 -0.251338 -1.55583 0
M  V30 9663 C 840.494 0.687092 -2.1761 0
M  V30 9664 C 841.472 1.16963 -1.12953 0
M  V30 9665 O 842.656 1.24696 -1.41362 0
M  V30 9666 C 839.783 1.93429 -2.78034 0
M  V30 9667 C 838.829 1.58925 -3.95784 0
M  V30 9668 S 839.662 0.688019 -5.31062 0
M  V30 9669 C 840.818 1.94413 -5.94941 0
M  V30 9670 H 841.051 0.159982 -2.96869 0
M  V30 9671 H 838.584 -0.0357593 -1.54359 0
M  V30 9672 H 840.542 2.65028 -3.13481 0
M  V30 9673 H 839.203 2.43253 -1.98713 0
M  V30 9674 H 838.396 2.51668 -4.36668 0
M  V30 9675 H 837.998 0.953664 -3.61637 0
M  V30 9676 H 840.29 2.89087 -6.12727 0
M  V30 9677 H 841.233 1.5787 -6.90277 0
M  V30 9678 H 841.641 2.09824 -5.24056 0
M  V30 9679 N 841.039 1.57585 0.0217189 0
M  V30 9680 C 841.969 2.10073 1.01939 0
M  V30 9681 C 842.95 1.0049 1.37243 0
M  V30 9682 O 844.135 1.28055 1.45999 0
M  V30 9683 C 841.265 2.58618 2.31806 0
M  V30 9684 C 840.219 3.72531 2.10724 0
M  V30 9685 C 839.545 4.07309 3.46415 0
M  V30 9686 C 840.845 5.00672 1.48743 0
M  V30 9687 H 842.539 2.9368 0.582432 0
M  V30 9688 H 840.085 1.41277 0.278715 0
M  V30 9689 H 842.038 2.9396 3.01936 0
M  V30 9690 H 840.762 1.72104 2.77575 0
M  V30 9691 H 839.421 3.37549 1.43025 0
M  V30 9692 H 839.069 3.17851 3.89846 0
M  V30 9693 H 838.769 4.84042 3.33132 0
M  V30 9694 H 840.293 4.45192 4.17895 0
M  V30 9695 H 841.707 5.33925 2.088 0
M  V30 9696 H 840.104 5.82065 1.46013 0
M  V30 9697 H 841.174 4.82769 0.45408 0
M  V30 9698 N 842.517 -0.29412 1.54831 0
M  V30 9699 C 843.764 -1.02846 1.74439 0
M  V30 9700 C 844.092 -1.87029 0.533905 0
M  V30 9701 O 843.347 -1.8962 -0.484035 0
M  V30 9702 C 843.646 -1.95782 2.99006 0
M  V30 9703 C 843.312 -1.2752 4.32492 0
M  V30 9704 C 841.974 -1.08637 4.68777 0
M  V30 9705 C 844.326 -0.787761 5.15212 0
M  V30 9706 C 841.654 -0.39704 5.85355 0
M  V30 9707 C 844.006 -0.112123 6.32501 0
M  V30 9708 C 842.67 0.0886071 6.67441 0
M  V30 9709 H 841.94 -0.376341 0.638317 0
M  V30 9710 H 844.587 -0.302684 1.89093 0
M  V30 9711 H 842.892 -2.74911 2.79162 0
M  V30 9712 H 844.589 -2.52684 3.11371 0
M  V30 9713 H 841.179 -1.43226 4.03961 0
M  V30 9714 H 845.363 -0.921341 4.87673 0
M  V30 9715 H 840.619 -0.230597 6.10965 0
M  V30 9716 H 844.793 0.27344 6.95863 0
M  V30 9717 H 842.42 0.624748 7.57628 0
M  V30 9718 N 843.995 -1.47404 -0.557645 0
M  V30 9719 C 845.241 -1.54235 -1.31679 0
M  V30 9720 C 845.574 -0.203782 -1.93128 0
M  V30 9721 O 844.849 0.787536 -1.77843 0
M  V30 9722 C 845.132 -2.66003 -2.42723 0
M  V30 9723 C 844.985 -4.09475 -1.86145 0
M  V30 9724 C 846.304 -2.73685 -3.44652 0
M  V30 9725 H 843.423 -0.561466 -0.477415 0
M  V30 9726 H 846.065 -1.79459 -0.624067 0
M  V30 9727 H 844.215 -2.44627 -3.01811 0
M  V30 9728 H 845.887 -4.42213 -1.31321 0
M  V30 9729 H 844.13 -4.17774 -1.16823 0
M  V30 9730 H 844.801 -4.83451 -2.66418 0
M  V30 9731 H 847.277 -2.92968 -2.95481 0
M  V30 9732 H 846.153 -3.53665 -4.19777 0
M  V30 9733 H 846.414 -1.80726 -4.03473 0
M  V30 9734 N 845.473 0.80434 -1.35529 0
M  V30 9735 C 846.403 1.93086 -1.31301 0
M  V30 9736 C 847.384 1.69068 -0.187044 0
M  V30 9737 O 848.569 1.90399 -0.382359 0
M  V30 9738 C 845.699 3.29867 -1.0865 0
M  V30 9739 C 844.653 3.68373 -2.17911 0
M  V30 9740 C 843.979 5.0334 -1.80423 0
M  V30 9741 C 845.279 3.78516 -3.59893 0
M  V30 9742 H 846.973 1.96882 -2.25561 0
M  V30 9743 H 844.519 0.945841 -1.08581 0
M  V30 9744 H 846.472 4.08281 -1.04331 0
M  V30 9745 H 845.196 3.2642 -0.108359 0
M  V30 9746 H 843.855 2.92247 -2.21331 0
M  V30 9747 H 843.503 4.96399 -0.812213 0
M  V30 9748 H 843.203 5.30074 -2.53565 0
M  V30 9749 H 844.727 5.84191 -1.77633 0
M  V30 9750 H 846.141 4.47155 -3.58783 0
M  V30 9751 H 844.538 4.16721 -4.31814 0
M  V30 9752 H 845.608 2.8001 -3.95882 0
M  V30 9753 N 846.951 1.19563 1.02676 0
M  V30 9754 C 848.176 1.02556 1.80269 0
M  V30 9755 C 848.601 -0.421056 1.83327 0
M  V30 9756 O 847.959 -1.30279 1.26084 0
M  V30 9757 C 848.007 1.60165 3.23078 0
M  V30 9758 O 847.111 0.832404 4.03912 0
M  V30 9759 H 846.452 0.362354 0.556413 0
M  V30 9760 H 848.982 1.58633 1.29216 0
M  V30 9761 H 848.992 1.6347 3.7382 0
M  V30 9762 H 847.667 2.65454 3.20167 0
M  V30 9763 H 846.244 0.872768 3.62543 0
M  V30 9764 N 848.429 -1.21819 0.999893 0
M  V30 9765 C 849.377 -2.26027 0.549047 0
M  V30 9766 C 850.371 -1.64516 -0.403826 0
M  V30 9767 O 851.577 -1.77878 -0.275578 0
M  V30 9768 H 847.952 -0.734958 0.159185 0
M  V30 9769 H 849.923 -2.61398 1.43923 0
M  V30 9770 C 848.672 -3.47514 -0.11369 0
M  V30 9771 H 847.995 -3.95112 0.610482 0
M  V30 9772 H 849.435 -4.22179 -0.3925 0
M  V30 9773 C 847.894 -3.08614 -1.35126 0
M  V30 9774 O 848.424 -3.1864 -2.44605 0
M  V30 9775 N 846.63 -2.63327 -1.22911 0
M  V30 9776 H 846.177 -2.55369 -0.338288 0
M  V30 9777 H 846.135 -2.37668 -2.05818 0
M  V30 9778 N 849.908 -0.773975 -1.37286 0
M  V30 9779 C 851.138 -0.350249 -2.03609 0
M  V30 9780 C 851.546 1.03313 -1.58502 0
M  V30 9781 O 850.889 1.67118 -0.7627 0
M  V30 9782 C 850.951 -0.317215 -3.58098 0
M  V30 9783 C 850.615 -1.64556 -4.26345 0
M  V30 9784 C 851.612 -2.59839 -4.50311 0
M  V30 9785 C 849.297 -1.92061 -4.64131 0
M  V30 9786 C 851.291 -3.80833 -5.11122 0
M  V30 9787 C 848.978 -3.13325 -5.24663 0
M  V30 9788 C 849.976 -4.0753 -5.48095 0
M  V30 9789 O 849.664 -5.26658 -6.0736 0
M  V30 9790 H 849.396 -0.144456 -0.660385 0
M  V30 9791 H 851.95 -1.0496 -1.76557 0
M  V30 9792 H 850.18 0.438528 -3.84205 0
M  V30 9793 H 851.869 0.0797428 -4.05822 0
M  V30 9794 H 852.635 -2.39872 -4.21529 0
M  V30 9795 H 848.514 -1.19562 -4.45226 0
M  V30 9796 H 852.058 -4.54377 -5.29327 0
M  V30 9797 H 847.955 -3.33177 -5.52869 0
M  V30 9798 H 848.723 -5.27513 -6.25837 0
M  V30 9799 N 851.386 1.48609 -0.524698 0
M  V30 9800 C 852.797 1.86516 -0.0828846 0
M  V30 9801 C 853.148 1.43478 1.33822 0
M  V30 9802 O 852.273 0.823139 2.00133 0
M  V30 9803 C 852.868 3.38495 -0.143639 0
M  V30 9804 C 851.427 3.75615 0.242951 0
M  V30 9805 C 850.574 2.72649 -0.505747 0
M  V30 9806 H 853.525 1.40589 -0.736233 0
M  V30 9807 H 853.546 3.74977 0.645955 0
M  V30 9808 H 853.058 3.69789 -1.17805 0
M  V30 9809 H 851.159 3.49935 1.27971 0
M  V30 9810 H 851.272 4.7901 -0.0929834 0
M  V30 9811 H 849.636 2.54656 0.0473482 0
M  V30 9812 H 850.419 3.06786 -1.54069 0
M  V30 9813 N 852.864 0.259585 1.55447 0
M  V30 9814 C 853.794 -0.62852 2.24882 0
M  V30 9815 C 854.775 -1.17128 1.23349 0
M  V30 9816 O 855.96 -1.20829 1.52033 0
M  V30 9817 C 853.09 -1.81983 2.95803 0
M  V30 9818 C 852.044 -1.40929 4.04132 0
M  V30 9819 C 851.37 -2.68246 4.62545 0
M  V30 9820 C 852.67 -0.570956 5.1917 0
M  V30 9821 H 854.364 -0.0495021 2.99359 0
M  V30 9822 H 851.91 -0.0223688 1.43983 0
M  V30 9823 H 853.863 -2.44689 3.43082 0
M  V30 9824 H 852.587 -2.42444 2.18835 0
M  V30 9825 H 851.246 -0.805519 3.57641 0
M  V30 9826 H 850.894 -3.26931 3.82263 0
M  V30 9827 H 850.594 -2.41495 5.35681 0
M  V30 9828 H 852.118 -3.31827 5.12565 0
M  V30 9829 H 853.532 -1.10262 5.62597 0
M  V30 9830 H 851.929 -0.398979 5.98772 0
M  V30 9831 H 852.999 0.413918 4.8313 0
M  V30 9832 N 854.342 -1.57594 -0.0133615 0
M  V30 9833 C 855.588 -1.90262 -0.702019 0
M  V30 9834 C 855.921 -0.859219 -1.74158 0
M  V30 9835 O 855.196 0.123778 -1.94106 0
M  V30 9836 C 855.479 -3.3354 -1.35732 0
M  V30 9837 C 855.332 -4.48586 -0.330208 0
M  V30 9838 C 856.651 -3.76004 -2.28712 0
M  V30 9839 H 853.77 -0.691943 -0.253739 0
M  V30 9840 H 856.412 -1.89967 0.0351894 0
M  V30 9841 H 854.562 -3.33921 -1.98567 0
M  V30 9842 H 856.234 -4.6034 0.297433 0
M  V30 9843 H 854.477 -4.32394 0.348926 0
M  V30 9844 H 855.148 -5.45762 -0.827508 0
M  V30 9845 H 857.624 -3.77089 -1.75906 0
M  V30 9846 H 856.5 -4.77032 -2.71535 0
M  V30 9847 H 856.761 -3.09129 -3.16056 0
M  V30 9848 N 855.82 0.285905 -1.54985 0
M  V30 9849 C 857.069 1.01691 -1.74189 0
M  V30 9850 C 857.382 1.87908 -0.543135 0
M  V30 9851 O 858.588 2.64389 -0.617305 0
M  V30 9852 C 857.044 1.85785 -3.0824 0
M  V30 9853 C 856.652 1.04497 -4.35642 0
M  V30 9854 C 858.396 2.58393 -3.36798 0
M  V30 9855 C 856.303 1.87955 -5.60738 0
M  V30 9856 H 855.233 0.383396 -0.649248 0
M  V30 9857 H 857.884 0.27317 -1.81455 0
M  V30 9858 H 856.266 2.64205 -2.94978 0
M  V30 9859 H 857.44 0.305847 -4.59784 0
M  V30 9860 H 855.755 0.434023 -4.14132 0
M  V30 9861 H 858.352 3.21214 -4.27464 0
M  V30 9862 H 858.695 3.28011 -2.56349 0
M  V30 9863 H 859.228 1.87012 -3.511 0
M  V30 9864 H 855.967 1.22781 -6.43898 0
M  V30 9865 H 855.487 2.59499 -5.40759 0
M  V30 9866 H 857.166 2.45636 -5.98558 0
M  V30 9867 N 857.298 1.47698 0.54982 0
M  V30 9868 C 858.528 1.58101 1.32995 0
M  V30 9869 C 858.936 0.232939 1.87761 0
M  V30 9870 O 858.279 -0.785058 1.6608 0
M  V30 9871 C 858.341 2.55228 2.53178 0
M  V30 9872 C 858.005 4.00756 2.19645 0
M  V30 9873 C 859.002 4.89025 1.76496 0
M  V30 9874 C 856.687 4.46147 2.30777 0
M  V30 9875 C 858.681 6.20707 1.44919 0
M  V30 9876 C 856.368 5.77856 1.98812 0
M  V30 9877 C 857.366 6.64957 1.55952 0
M  V30 9878 O 857.054 7.94217 1.24396 0
M  V30 9879 H 856.786 0.536362 0.411451 0
M  V30 9880 H 859.34 1.94092 0.67212 0
M  V30 9881 H 857.57 2.14319 3.21876 0
M  V30 9882 H 859.259 2.55678 3.15251 0
M  V30 9883 H 860.025 4.55201 1.67383 0
M  V30 9884 H 855.904 3.78552 2.63096 0
M  V30 9885 H 859.448 6.88649 1.11392 0
M  V30 9886 H 855.345 6.11219 2.0756 0
M  V30 9887 H 856.113 8.06789 1.37964 0
M  V30 9888 N 858.776 -0.797141 1.35954 0
M  V30 9889 C 860.023 -1.55468 1.29754 0
M  V30 9890 C 860.351 -1.94095 -0.125391 0
M  V30 9891 O 859.606 -1.62341 -1.09288 0
M  V30 9892 C 859.905 -2.84847 2.15863 0
M  V30 9893 C 859.571 -2.65394 3.64523 0
M  V30 9894 C 858.233 -2.59796 4.05042 0
M  V30 9895 C 860.585 -2.4727 4.58811 0
M  V30 9896 C 857.913 -2.3403 5.38002 0
M  V30 9897 C 860.265 -2.23032 5.91979 0
M  V30 9898 C 858.929 -2.15862 6.31633 0
M  V30 9899 H 858.199 -0.568897 0.474803 0
M  V30 9900 H 860.846 -0.920299 1.67937 0
M  V30 9901 H 859.151 -3.52712 1.70591 0
M  V30 9902 H 860.848 -3.42597 2.08395 0
M  V30 9903 H 857.438 -2.70602 3.32374 0
M  V30 9904 H 861.622 -2.506 4.28384 0
M  V30 9905 H 856.878 -2.26956 5.67715 0
M  V30 9906 H 861.052 -2.08001 6.64612 0
M  V30 9907 H 858.679 -1.9566 7.34589 0
M  V30 9908 N 860.254 -1.20106 -1.0204 0
M  V30 9909 C 861.503 -1.00316 -1.74985 0
M  V30 9910 C 861.816 0.465814 -1.89972 0
M  V30 9911 O 863.022 0.782749 -2.59972 0
M  V30 9912 C 861.478 -1.74608 -3.14706 0
M  V30 9913 C 861.086 -3.25573 -3.07744 0
M  V30 9914 C 862.83 -1.63172 -3.91887 0
M  V30 9915 C 860.737 -3.92419 -4.42449 0
M  V30 9916 H 859.667 -0.371728 -0.655999 0
M  V30 9917 H 862.318 -1.43688 -1.14131 0
M  V30 9918 H 860.7 -1.24021 -3.76078 0
M  V30 9919 H 861.874 -3.83345 -2.55702 0
M  V30 9920 H 860.189 -3.3738 -2.44057 0
M  V30 9921 H 862.786 -2.10457 -4.9154 0
M  V30 9922 H 863.129 -0.58728 -4.12137 0
M  V30 9923 H 863.662 -2.11152 -3.37135 0
M  V30 9924 H 860.401 -4.96998 -4.27403 0
M  V30 9925 H 859.921 -3.39436 -4.94513 0
M  V30 9926 H 861.6 -3.96453 -5.11306 0
M  V30 9927 N 861.732 1.21287 -1.00634 0
M  V30 9928 C 862.662 2.25973 -0.588089 0
M  V30 9929 C 863.643 1.65527 0.391764 0
M  V30 9930 O 864.828 1.92179 0.279452 0
M  V30 9931 C 861.958 3.47197 0.0847336 0
M  V30 9932 C 860.912 4.20168 -0.815039 0
M  V30 9933 C 860.238 5.34699 -0.00855393 0
M  V30 9934 C 861.538 4.77416 -2.11828 0
M  V30 9935 H 863.232 2.61212 -1.46317 0
M  V30 9936 H 860.778 1.25563 -0.704985 0
M  V30 9937 H 862.731 4.19602 0.388821 0
M  V30 9938 H 861.455 3.11092 0.994456 0
M  V30 9939 H 860.114 3.49614 -1.10297 0
M  V30 9940 H 859.762 4.94837 0.902499 0
M  V30 9941 H 859.462 5.84449 -0.607664 0
M  V30 9942 H 860.986 6.09914 0.289317 0
M  V30 9943 H 862.4 5.41694 -1.87725 0
M  V30 9944 H 860.797 5.37561 -2.66736 0
M  V30 9945 H 861.867 3.96724 -2.78816 0
M  V30 9946 N 863.21 0.781244 1.36873 0
M  V30 9947 C 864.157 0.172146 2.30157 0
M  V30 9948 C 865.127 -0.679328 1.51573 0
M  V30 9949 O 866.312 -0.629713 1.80109 0
M  V30 9950 C 863.452 -0.693534 3.38059 0
M  V30 9951 C 862.565 0.175586 4.31643 0
M  V30 9952 C 861.7 -0.695695 5.26625 0
M  V30 9953 C 860.739 0.17538 6.11849 0
M  V30 9954 N 859.876 -0.654416 6.99043 0
M  V30 9955 H 864.716 0.973133 2.81663 0
M  V30 9956 H 862.253 0.491469 1.38647 0
M  V30 9957 H 864.211 -1.21035 3.99257 0
M  V30 9958 H 862.841 -1.46003 2.87894 0
M  V30 9959 H 861.893 0.810295 3.7167 0
M  V30 9960 H 863.205 0.847107 4.91554 0
M  V30 9961 H 862.359 -1.27863 5.93073 0
M  V30 9962 H 861.098 -1.40087 4.67148 0
M  V30 9963 H 860.103 0.77078 5.4437 0
M  V30 9964 H 861.328 0.87803 6.734 0
M  V30 9965 H 859.274 -1.34403 6.42084 0
M  V30 9966 H 859.191 -0.0403998 7.55989 0
M  V30 9967 H 860.459 -1.22144 7.69871 0
M  V30 9968 N 864.689 -1.48329 0.532571 0
M  V30 9969 C 865.938 -2.017 -0.00259705 0
M  V30 9970 C 866.251 -1.41469 -1.35077 0
M  V30 9971 O 867.457 -1.86354 -1.97445 0
M  V30 9972 C 865.913 -3.59858 -0.0550179 0
M  V30 9973 C 865.521 -4.29073 1.28842 0
M  V30 9974 C 867.265 -4.21066 -0.538878 0
M  V30 9975 C 865.172 -5.79171 1.19644 0
M  V30 9976 H 864.102 -0.753985 -0.00474081 0
M  V30 9977 H 866.753 -1.70565 0.676739 0
M  V30 9978 H 865.135 -3.87846 -0.799486 0
M  V30 9979 H 866.309 -4.12755 2.04865 0
M  V30 9980 H 864.624 -3.79748 1.70822 0
M  V30 9981 H 867.221 -5.31026 -0.6257 0
M  V30 9982 H 867.564 -3.86559 -1.54525 0
M  V30 9983 H 868.097 -3.97517 0.149984 0
M  V30 9984 H 864.836 -6.18257 2.17805 0
M  V30 9985 H 864.356 -5.97895 0.477609 0
M  V30 9986 H 866.035 -6.40875 0.888186 0
M  V30 9987 N 866.167 -0.267825 -1.55308 0
M  V30 9988 C 867.414 0.351036 -1.99434 0
M  V30 9989 C 867.742 1.56406 -1.15618 0
M  V30 9990 O 866.997 1.94548 -0.212045 0
M  V30 9991 C 867.296 0.784247 -3.48689 0
M  V30 9992 C 866.962 -0.323328 -4.49739 0
M  V30 9993 C 865.624 -0.627467 -4.77091 0
M  V30 9994 C 867.976 -1.07002 -5.10098 0
M  V30 9995 C 865.304 -1.682 -5.62073 0
M  V30 9996 C 867.656 -2.11422 -5.96224 0
M  V30 9997 C 866.32 -2.42479 -6.21901 0
M  V30 9998 H 865.59 0.128453 -0.729781 0
M  V30 9999 H 868.237 -0.380018 -1.87692 0
M  V30 10000 H 866.542 1.59485 -3.57871 0
M  V30 10001 H 868.239 1.2737 -3.80234 0
M  V30 10002 H 864.829 -0.0761528 -4.28532 0
M  V30 10003 H 869.013 -0.848302 -4.88996 0
M  V30 10004 H 864.269 -1.92772 -5.80215 0
M  V30 10005 H 868.443 -2.69759 -6.4203 0
M  V30 10006 H 866.07 -3.24328 -6.87543 0
M  V30 10007 N 867.645 1.57599 0.00500368 0
M  V30 10008 C 868.593 2.09223 1.01628 0
M  V30 10009 C 869.587 1.01113 1.35913 0
M  V30 10010 O 870.793 1.19583 1.34536 0
M  V30 10011 H 867.168 0.667999 0.345372 0
M  V30 10012 H 869.139 2.93188 0.555274 0
M  V30 10013 C 867.888 2.60674 2.30097 0
M  V30 10014 H 867.211 3.43491 2.04582 0
M  V30 10015 H 868.651 3.00479 2.99146 0
M  V30 10016 C 867.11 1.51862 3.00731 0
M  V30 10017 O 867.64 0.898651 3.91519 0
M  V30 10018 N 865.846 1.24729 2.62471 0
M  V30 10019 H 865.393 1.7533 1.88725 0
M  V30 10020 H 865.351 0.521437 3.10046 0
M  V30 10021 N 869.123 -0.277682 1.55134 0
M  V30 10022 C 870.353 -1.02677 1.79279 0
M  V30 10023 C 870.761 -1.80599 0.563962 0
M  V30 10024 O 870.104 -1.77416 -0.476378 0
M  V30 10025 C 870.166 -2.03617 2.96277 0
M  V30 10026 C 869.83 -1.44676 4.33495 0
M  V30 10027 C 870.827 -0.864811 5.12657 0
M  V30 10028 C 868.512 -1.47537 4.80144 0
M  V30 10029 C 870.506 -0.319322 6.366 0
M  V30 10030 C 868.193 -0.926016 6.04043 0
M  V30 10031 C 869.191 -0.348988 6.82108 0
M  V30 10032 O 868.879 0.191964 8.03671 0
M  V30 10033 H 868.611 -0.309232 0.601125 0
M  V30 10034 H 871.165 -0.315308 2.02965 0
M  V30 10035 H 869.395 -2.78509 2.68272 0
M  V30 10036 H 871.084 -2.64616 3.07788 0
M  V30 10037 H 871.85 -0.835438 4.7775 0
M  V30 10038 H 867.729 -1.91389 4.19394 0
M  V30 10039 H 871.273 0.131709 6.97476 0
M  V30 10040 H 867.17 -0.952613 6.38432 0
M  V30 10041 H 867.938 0.0808779 8.1846 0
M  V30 10042 N 870.601 -1.47988 -0.541979 0
M  V30 10043 C 871.549 -1.62044 -1.66867 0
M  V30 10044 C 872.543 -0.487217 -1.62242 0
M  V30 10045 O 873.749 -0.66554 -1.67244 0
M  V30 10046 H 870.124 -0.51024 -0.552412 0
M  V30 10047 H 872.095 -2.56695 -1.52153 0
M  V30 10048 C 870.844 -1.66615 -3.0518 0
M  V30 10049 H 870.167 -2.5317 -3.09427 0
M  V30 10050 H 871.607 -1.80496 -3.83663 0
M  V30 10051 C 870.066 -0.402421 -3.34488 0
M  V30 10052 O 870.596 0.48992 -3.98701 0
M  V30 10053 N 868.802 -0.277778 -2.89269 0
M  V30 10054 H 868.349 -1.00488 -2.37192 0
M  V30 10055 H 868.307 0.566784 -3.09249 0
M  V30 10056 N 872.079 0.78992 -1.36375 0
M  V30 10057 C 873.309 1.57644 -1.33536 0
M  V30 10058 C 873.717 1.89007 0.0855075 0
M  V30 10059 O 873.06 1.50547 1.05267 0
M  V30 10060 C 873.122 2.92424 -2.09113 0
M  V30 10061 C 872.786 2.83793 -3.58205 0
M  V30 10062 C 873.783 2.56072 -4.52464 0
M  V30 10063 C 871.468 3.02386 -4.01084 0
M  V30 10064 C 873.462 2.47044 -5.87578 0
M  V30 10065 C 871.149 2.9298 -5.36289 0
M  V30 10066 C 872.147 2.65347 -6.29349 0
M  V30 10067 O 871.835 2.55935 -7.62071 0
M  V30 10068 H 871.567 0.495639 -0.459694 0
M  V30 10069 H 874.121 0.988354 -1.80058 0
M  V30 10070 H 872.351 3.53282 -1.57254 0
M  V30 10071 H 874.04 3.53693 -1.99139 0
M  V30 10072 H 874.806 2.4141 -4.2065 0
M  V30 10073 H 870.685 3.229 -3.29023 0
M  V30 10074 H 874.229 2.25396 -6.60184 0
M  V30 10075 H 870.126 3.07204 -5.67711 0
M  V30 10076 H 870.894 2.7142 -7.72187 0
M  V30 10077 N 873.557 1.20646 1.01402 0
M  V30 10078 C 874.806 1.01242 1.7445 0
M  V30 10079 C 875.119 -0.455732 1.90217 0
M  V30 10080 O 876.325 -0.768951 2.60383 0
M  V30 10081 C 874.781 1.76275 3.13776 0
M  V30 10082 C 874.389 3.27201 3.06013 0
M  V30 10083 C 876.133 1.65248 3.91016 0
M  V30 10084 C 874.04 3.9476 4.40362 0
M  V30 10085 H 872.97 0.375202 0.654018 0
M  V30 10086 H 875.621 1.44292 1.13367 0
M  V30 10087 H 874.003 1.26013 3.75415 0
M  V30 10088 H 875.177 3.84695 2.53665 0
M  V30 10089 H 873.492 3.38669 2.42265 0
M  V30 10090 H 876.089 2.13061 4.90417 0
M  V30 10091 H 876.432 0.609128 4.1182 0
M  V30 10092 H 876.965 2.12937 3.3601 0
M  V30 10093 H 873.704 4.99258 4.24761 0
M  V30 10094 H 873.224 3.42054 4.92706 0
M  V30 10095 H 874.903 3.99159 5.09196 0
M  V30 10096 N 875.035 -1.20752 1.01276 0
M  V30 10097 C 875.983 -2.25432 0.572989 0
M  V30 10098 C 876.977 -1.64935 -0.386354 0
M  V30 10099 O 878.183 -1.7816 -0.256696 0
M  V30 10100 H 874.558 -0.733229 0.166972 0
M  V30 10101 H 876.529 -2.59856 1.46687 0
M  V30 10102 C 875.278 -3.47615 -0.0768249 0
M  V30 10103 H 874.601 -3.94442 0.652354 0
M  V30 10104 H 876.041 -4.22572 -0.3477 0
M  V30 10105 C 874.5 -3.1003 -1.31845 0
M  V30 10106 O 875.03 -3.21216 -2.41211 0
M  V30 10107 N 873.236 -2.64616 -1.20111 0
M  V30 10108 H 872.783 -2.55714 -0.311184 0
M  V30 10109 H 872.741 -2.39838 -2.03286 0
M  V30 10110 N 876.513 -0.788492 -1.36457 0
M  V30 10111 C 877.762 -0.357052 -1.98515 0
M  V30 10112 C 878.075 1.0769 -1.63285 0
M  V30 10113 O 879.281 1.61057 -2.1857 0
M  V30 10114 C 877.737 -0.587449 -3.55073 0
M  V30 10115 C 877.345 -2.03276 -3.99228 0
M  V30 10116 C 879.089 -0.220468 -4.23927 0
M  V30 10117 C 876.996 -2.20987 -5.48561 0
M  V30 10118 H 875.926 -0.129762 -0.74275 0
M  V30 10119 H 878.577 -0.969995 -1.55767 0
M  V30 10120 H 876.959 0.0951918 -3.95886 0
M  V30 10121 H 878.133 -2.75173 -3.69617 0
M  V30 10122 H 876.448 -2.3579 -3.43208 0
M  V30 10123 H 879.045 -0.331085 -5.33674 0
M  V30 10124 H 879.388 0.831306 -4.07915 0
M  V30 10125 H 879.921 -0.856309 -3.88474 0
M  V30 10126 H 876.66 -3.24543 -5.69519 0
M  V30 10127 H 876.18 -1.53594 -5.79801 0
M  V30 10128 H 877.859 -2.01656 -6.14771 0
M  V30 10129 N 877.991 1.48044 -0.54043 0
M  V30 10130 C 879.221 2.06595 -0.0144943 0
M  V30 10131 C 879.629 1.39593 1.27713 0
M  V30 10132 O 878.972 0.480794 1.77297 0
M  V30 10133 C 879.034 3.5849 0.269316 0
M  V30 10134 C 878.698 4.47429 -0.930372 0
M  V30 10135 C 879.695 4.8657 -1.83155 0
M  V30 10136 C 877.38 4.89185 -1.14032 0
M  V30 10137 C 879.374 5.66246 -2.92649 0
M  V30 10138 C 877.061 5.6863 -2.23838 0
M  V30 10139 C 878.059 6.07069 -3.12979 0
M  V30 10140 O 877.747 6.84917 -4.20884 0
M  V30 10141 H 877.479 0.675086 -0.0351467 0
M  V30 10142 H 880.033 1.91275 -0.74853 0
M  V30 10143 H 878.263 3.71961 1.05745 0
M  V30 10144 H 879.952 3.99124 0.738595 0
M  V30 10145 H 880.718 4.54924 -1.68134 0
M  V30 10146 H 876.597 4.58742 -0.455717 0
M  V30 10147 H 880.141 5.96169 -3.62254 0
M  V30 10148 H 876.038 5.99688 -2.38839 0
M  V30 10149 H 876.806 7.03287 -4.18723 0
M  V30 10150 N 879.47 0.276058 1.55163 0
M  V30 10151 C 880.4 -0.604633 2.25536 0
M  V30 10152 C 881.381 -1.15813 1.24585 0
M  V30 10153 O 882.566 -1.1921 1.53306 0
M  V30 10154 C 879.696 -1.78836 2.97716 0
M  V30 10155 C 878.65 -1.36635 4.05604 0
M  V30 10156 C 877.976 -2.63325 4.65364 0
M  V30 10157 C 879.276 -0.515858 5.19746 0
M  V30 10158 H 880.97 -0.0177483 2.99395 0
M  V30 10159 H 878.516 -0.00709627 1.43998 0
M  V30 10160 H 880.469 -2.41036 3.45658 0
M  V30 10161 H 879.193 -2.40109 2.21394 0
M  V30 10162 H 877.852 -0.767541 3.58475 0
M  V30 10163 H 877.5 -3.22858 3.85709 0
M  V30 10164 H 877.2 -2.358 5.38212 0
M  V30 10165 H 878.724 -3.26372 5.16056 0
M  V30 10166 H 880.138 -1.04289 5.63735 0
M  V30 10167 H 878.535 -0.335449 5.99162 0
M  V30 10168 H 879.605 0.465137 4.82664 0
M  V30 10169 N 880.948 -1.576 0.00335426 0
M  V30 10170 C 881.896 -2.09759 -1.00517 0
M  V30 10171 C 882.89 -1.01833 -1.35375 0
M  V30 10172 O 884.096 -1.20294 -1.339 0
M  V30 10173 H 880.471 -0.669821 -0.341825 0
M  V30 10174 H 882.442 -2.93478 -0.539718 0
M  V30 10175 C 881.191 -2.6189 -2.28711 0
M  V30 10176 H 880.514 -3.44571 -2.02758 0
M  V30 10177 H 881.954 -3.02061 -2.97548 0
M  V30 10178 C 880.413 -1.53455 -2.99922 0
M  V30 10179 O 880.943 -0.919402 -3.91037 0
M  V30 10180 N 879.149 -1.2612 -2.61806 0
M  V30 10181 H 878.696 -1.76329 -1.87792 0
M  V30 10182 H 878.654 -0.537872 -3.09765 0
M  V30 10183 N 882.426 0.269451 -1.5528 0
M  V30 10184 C 883.675 0.998381 -1.75258 0
M  V30 10185 C 883.988 1.87321 -0.563034 0
M  V30 10186 O 885.194 2.63719 -0.645313 0
M  V30 10187 C 883.65 1.82505 -3.10193 0
M  V30 10188 C 883.258 0.99871 -4.36726 0
M  V30 10189 C 885.002 2.54807 -3.3952 0
M  V30 10190 C 882.909 1.81997 -5.627 0
M  V30 10191 H 881.839 0.376488 -0.653278 0
M  V30 10192 H 884.49 0.253909 -1.81735 0
M  V30 10193 H 882.872 2.61061 -2.97763 0
M  V30 10194 H 884.046 0.257064 -4.60082 0
M  V30 10195 H 882.361 0.390074 -4.14569 0
M  V30 10196 H 884.958 3.16662 -4.30847 0
M  V30 10197 H 885.301 3.25273 -2.59813 0
M  V30 10198 H 885.834 1.83278 -3.53064 0
M  V30 10199 H 882.573 1.15945 -6.45164 0
M  V30 10200 H 882.093 2.53749 -5.43481 0
M  V30 10201 H 883.772 2.39274 -6.0113 0
M  V30 10202 N 883.904 1.48273 0.534124 0
M  V30 10203 C 885.134 1.59503 1.31311 0
M  V30 10204 C 885.542 0.25284 1.87503 0
M  V30 10205 O 884.885 -0.767399 1.66903 0
M  V30 10206 C 884.947 2.57899 2.50456 0
M  V30 10207 C 884.611 4.03063 2.15382 0
M  V30 10208 C 885.608 4.90869 1.713 0
M  V30 10209 C 883.293 4.4857 2.26032 0
M  V30 10210 C 885.287 6.22209 1.38328 0
M  V30 10211 C 882.974 5.79932 1.92672 0
M  V30 10212 C 883.972 6.66574 1.4889 0
M  V30 10213 O 883.66 7.95492 1.15966 0
M  V30 10214 H 883.392 0.540695 0.405739 0
M  V30 10215 H 885.946 1.94794 0.651497 0
M  V30 10216 H 884.176 2.1772 3.19585 0
M  V30 10217 H 885.865 2.59008 3.12522 0
M  V30 10218 H 886.631 4.56951 1.62545 0
M  V30 10219 H 882.51 3.81321 2.59066 0
M  V30 10220 H 886.054 6.89792 1.04082 0
M  V30 10221 H 881.951 6.13386 2.01066 0
M  V30 10222 H 882.719 8.08207 1.29399 0
M  V30 10223 N 885.382 -0.782676 1.36792 0
M  V30 10224 C 886.61 -1.57162 1.34565 0
M  V30 10225 C 887.025 -1.88664 -0.0715501 0
M  V30 10226 O 886.382 -1.50633 -1.03033 0
M  V30 10227 C 886.433 -2.88854 2.1736 0
M  V30 10228 O 886.154 -2.58707 3.53557 0
M  V30 10229 C 887.655 -3.83132 2.2299 0
M  V30 10230 H 884.875 -0.487245 0.461338 0
M  V30 10231 H 887.419 -0.970905 1.79982 0
M  V30 10232 H 885.574 -3.45377 1.7548 0
M  V30 10233 H 885.988 -3.42961 3.96835 0
M  V30 10234 H 887.462 -4.72575 2.85266 0
M  V30 10235 H 887.939 -4.21472 1.23524 0
M  V30 10236 H 888.545 -3.32541 2.65135 0
M  V30 10237 N 886.86 -1.21182 -1.00761 0
M  V30 10238 C 888.109 -1.02166 -1.73911 0
M  V30 10239 C 888.422 0.445638 -1.90456 0
M  V30 10240 O 889.628 0.755132 -2.60787 0
M  V30 10241 C 888.084 -1.77936 -3.12837 0
M  V30 10242 C 887.692 -3.28819 -3.04273 0
M  V30 10243 C 889.436 -1.67319 -3.90134 0
M  V30 10244 C 887.343 -3.97089 -4.38262 0
M  V30 10245 H 886.273 -0.378665 -0.652019 0
M  V30 10246 H 888.924 -1.44891 -1.12601 0
M  V30 10247 H 887.306 -1.28003 -3.74742 0
M  V30 10248 H 888.48 -3.86035 -2.51622 0
M  V30 10249 H 886.795 -3.39949 -2.40465 0
M  V30 10250 H 889.392 -2.15659 -4.8928 0
M  V30 10251 H 889.735 -0.630959 -4.11491 0
M  V30 10252 H 890.268 -2.14716 -3.34876 0
M  V30 10253 H 887.007 -5.01503 -4.22107 0
M  V30 10254 H 886.527 -3.44662 -4.90885 0
M  V30 10255 H 888.206 -4.01854 -5.07072 0
M  V30 10256 N 888.338 1.20213 -1.01915 0
M  V30 10257 C 889.584 1.89928 -0.711007 0
M  V30 10258 C 889.917 1.7881 0.75767 0
M  V30 10259 O 889.192 1.17399 1.55073 0
M  V30 10260 C 889.475 3.41225 -1.15053 0
M  V30 10261 C 889.328 3.61264 -2.67971 0
M  V30 10262 C 890.647 4.34108 -0.72377 0
M  V30 10263 H 887.766 0.689702 -0.259768 0
M  V30 10264 H 890.408 1.41557 -1.26734 0
M  V30 10265 H 888.558 3.82552 -0.677199 0
M  V30 10266 H 890.23 3.29173 -3.23176 0
M  V30 10267 H 888.473 3.04647 -3.08824 0
M  V30 10268 H 889.144 4.67331 -2.93779 0
M  V30 10269 H 891.62 4.00442 -1.13073 0
M  V30 10270 H 890.496 5.38581 -1.05931 0
M  V30 10271 H 890.757 4.40512 0.374424 0
M  V30 10272 N 889.816 0.795718 1.36037 0
M  V30 10273 C 891.056 0.376514 2.00902 0
M  V30 10274 C 891.42 -1.03405 1.61776 0
M  V30 10275 O 892.621 -1.55468 2.19279 0
M  V30 10276 C 890.892 0.542086 3.53265 0
M  V30 10277 S 892.451 0.211694 4.38289 0
M  V30 10278 H 889.269 0.143527 0.696363 0
M  V30 10279 H 891.871 1.03559 1.65819 0
M  V30 10280 H 890.575 1.56888 3.79229 0
M  V30 10281 H 890.106 -0.132698 3.93176 0
M  V30 10282 H 892.121 -0.98452 4.86335 0
M  V30 10283 N 891.294 -1.47756 0.548274 0
M  V30 10284 C 892.242 -2.3158 -0.217584 0
M  V30 10285 C 893.236 -1.42372 -0.917957 0
M  V30 10286 O 894.442 -1.59184 -0.840259 0
M  V30 10287 H 890.817 -0.74671 -0.0890388 0
M  V30 10288 H 892.788 -2.94032 0.508719 0
M  V30 10289 C 891.537 -3.24834 -1.24008 0
M  V30 10290 H 890.86 -3.93435 -0.710572 0
M  V30 10291 H 892.3 -3.86336 -1.74701 0
M  V30 10292 C 890.759 -2.47724 -2.2833 0
M  V30 10293 O 891.289 -2.21522 -3.35098 0
M  V30 10294 N 889.495 -2.08891 -2.02022 0
M  V30 10295 H 889.042 -2.30401 -1.1521 0
M  V30 10296 H 889 -1.57613 -2.7204 0
M  V30 10297 N 892.772 -0.284283 -1.55015 0
M  V30 10298 C 894.021 0.33055 -1.98973 0
M  V30 10299 C 894.334 1.56284 -1.17621 0
M  V30 10300 O 895.54 2.2512 -1.51767 0
M  V30 10301 C 893.996 0.639457 -3.54174 0
M  V30 10302 C 893.604 -0.573543 -4.44313 0
M  V30 10303 C 895.348 1.21641 -4.06699 0
M  V30 10304 C 893.255 -0.238715 -5.90918 0
M  V30 10305 H 892.185 0.127285 -0.743179 0
M  V30 10306 H 894.836 -0.390372 -1.793 0
M  V30 10307 H 893.218 1.41953 -3.69683 0
M  V30 10308 H 894.392 -1.3502 -4.40575 0
M  V30 10309 H 892.707 -1.06797 -4.02472 0
M  V30 10310 H 895.304 1.48088 -5.13784 0
M  V30 10311 H 895.647 2.15328 -3.56286 0
M  V30 10312 H 896.18 0.498422 -3.94665 0
M  V30 10313 H 892.919 -1.1437 -6.45445 0
M  V30 10314 H 892.439 0.500997 -5.97704 0
M  V30 10315 H 894.118 0.165774 -6.46788 0
M  V30 10316 N 894.251 1.57596 -0.0117121 0
M  V30 10317 C 895.5 1.9025 0.669921 0
M  V30 10318 C 895.813 0.887986 1.74282 0
M  V30 10319 O 897.019 1.10516 2.47989 0
M  V30 10320 C 895.475 3.37762 1.24277 0
M  V30 10321 C 895.083 4.47535 0.204076 0
M  V30 10322 C 896.827 3.79509 1.90192 0
M  V30 10323 C 894.734 5.86132 0.787577 0
M  V30 10324 H 893.664 0.709935 0.253984 0
M  V30 10325 H 896.315 1.8335 -0.0741718 0
M  V30 10326 H 894.697 3.39537 2.03791 0
M  V30 10327 H 895.871 4.57294 -0.56733 0
M  V30 10328 H 894.186 4.14881 -0.355305 0
M  V30 10329 H 896.783 4.80402 2.34773 0
M  V30 10330 H 897.126 3.13643 2.7374 0
M  V30 10331 H 897.659 3.80084 1.17394 0
M  V30 10332 H 894.398 6.55499 -0.00938418 0
M  V30 10333 H 893.918 5.80014 1.52787 0
M  V30 10334 H 895.597 6.34158 1.28265 0
M  V30 10335 N 895.729 -0.261212 1.5542 0
M  V30 10336 C 896.692 -1.30645 1.8832 0
M  V30 10337 C 897.692 -1.41782 0.758588 0
M  V30 10338 O 898.882 -1.40729 1.02669 0
M  V30 10339 C 896.014 -2.6862 2.09895 0
M  V30 10340 H 897.207 -1.02698 2.81768 0
M  V30 10341 H 894.76 -0.499838 1.48092 0
M  V30 10342 H 895.495 -3.0173 1.18868 0
M  V30 10343 H 895.28 -2.61921 2.91787 0
M  V30 10344 H 896.77 -3.44121 2.36581 0
M  V30 10345 N 897.207 -1.48554 -0.526253 0
M  V30 10346 C 898.437 -1.60197 -1.30463 0
M  V30 10347 C 898.845 -0.26278 -1.87366 0
M  V30 10348 O 898.188 0.758537 -1.67308 0
M  V30 10349 C 898.25 -2.59223 -2.49085 0
M  V30 10350 C 897.914 -4.04199 -2.13241 0
M  V30 10351 C 898.911 -4.91771 -1.68694 0
M  V30 10352 C 896.596 -4.49762 -2.2365 0
M  V30 10353 C 898.59 -6.22934 -1.35026 0
M  V30 10354 C 896.277 -5.80945 -1.89594 0
M  V30 10355 C 897.275 -6.67354 -1.45353 0
M  V30 10356 O 896.963 -7.96096 -1.11745 0
M  V30 10357 H 896.695 -0.54284 -0.402866 0
M  V30 10358 H 899.249 -1.95137 -0.641157 0
M  V30 10359 H 897.479 -2.19412 -3.18426 0
M  V30 10360 H 899.168 -2.60661 -3.11144 0
M  V30 10361 H 899.934 -4.57806 -1.6012 0
M  V30 10362 H 895.813 -3.8269 -2.5704 0
M  V30 10363 H 899.357 -6.90334 -1.00422 0
M  V30 10364 H 895.254 -6.14444 -1.9781 0
M  V30 10365 H 896.022 -8.08882 -1.25111 0
M  V30 10366 N 898.685 0.775411 -1.37205 0
M  V30 10367 C 899.635 1.87867 -1.29189 0
M  V30 10368 C 900.619 1.59885 -0.180466 0
M  V30 10369 O 901.811 1.72077 -0.414536 0
M  V30 10370 C 898.94 3.25285 -1.09748 0
M  V30 10371 C 898.026 3.59231 -2.25419 0
M  V30 10372 N 898.417 3.64386 -3.50795 0
M  V30 10373 C 896.715 3.89375 -2.17492 0
M  V30 10374 C 897.416 3.94974 -4.27048 0
M  V30 10375 N 896.392 4.10684 -3.56146 0
M  V30 10376 H 900.194 1.90099 -2.24142 0
M  V30 10377 H 897.708 0.971667 -1.30125 0
M  V30 10378 H 899.705 4.04207 -1.02091 0
M  V30 10379 H 898.365 3.2432 -0.157083 0
M  V30 10380 H 899.376 3.46682 -3.8475 0
M  V30 10381 H 896.053 3.96254 -1.31489 0
M  V30 10382 H 897.443 4.05768 -5.35539 0
M  V30 10383 N 900.163 1.21714 1.00117 0
M  V30 10384 C 901.412 1.03087 1.73367 0
M  V30 10385 C 901.725 -0.435532 1.90689 0
M  V30 10386 O 902.931 -0.741291 2.61184 0
M  V30 10387 C 901.387 1.79593 3.11888 0
M  V30 10388 C 900.995 3.30428 3.02525 0
M  V30 10389 C 902.739 1.69386 3.89241 0
M  V30 10390 C 900.646 3.99408 4.3615 0
M  V30 10391 H 899.576 0.382117 0.650002 0
M  V30 10392 H 902.227 1.45486 1.11831 0
M  V30 10393 H 900.609 1.29988 3.74058 0
M  V30 10394 H 901.783 3.87364 2.49571 0
M  V30 10395 H 900.098 3.4122 2.38659 0
M  V30 10396 H 902.695 2.18251 4.8813 0
M  V30 10397 H 903.038 0.652773 4.1115 0
M  V30 10398 H 903.571 2.16489 3.33733 0
M  V30 10399 H 900.31 5.03735 4.19442 0
M  V30 10400 H 899.83 3.47261 4.8905 0
M  V30 10401 H 901.509 4.04537 5.04934 0
M  V30 10402 N 901.641 -1.19671 1.02551 0
M  V30 10403 C 902.888 -1.89268 0.720002 0
M  V30 10404 C 903.216 -1.79411 -0.751127 0
M  V30 10405 O 902.471 -1.17859 -1.5623 0
M  V30 10406 C 902.77 -3.39647 1.11241 0
M  V30 10407 C 902.436 -3.69706 2.58125 0
M  V30 10408 C 901.098 -3.7762 2.98256 0
M  V30 10409 C 903.45 -3.83301 3.53171 0
M  V30 10410 C 900.778 -3.96594 4.32354 0
M  V30 10411 C 903.13 -4.03788 4.86968 0
M  V30 10412 C 901.794 -4.09934 5.26793 0
M  V30 10413 H 901.064 -0.692579 0.263467 0
M  V30 10414 H 903.711 -1.41738 1.28774 0
M  V30 10415 H 902.016 -3.89052 0.463234 0
M  V30 10416 H 903.713 -3.91809 0.853602 0
M  V30 10417 H 900.303 -3.64152 2.26033 0
M  V30 10418 H 904.487 -3.76534 3.2332 0
M  V30 10419 H 899.743 -3.9959 4.6275 0
M  V30 10420 H 903.917 -4.1325 5.60533 0
M  V30 10421 H 901.544 -4.24389 6.30712 0
M  V30 10422 N 903.119 -0.802921 -1.35613 0
M  V30 10423 C 904.368 -0.378087 -1.98125 0
M  V30 10424 C 904.681 1.05953 -1.64418 0
M  V30 10425 O 905.887 1.58729 -2.20266 0
M  V30 10426 C 904.343 -0.625077 -3.5443 0
M  V30 10427 C 903.951 -2.07499 -3.97049 0
M  V30 10428 C 905.695 -0.265419 -4.23669 0
M  V30 10429 C 903.602 -2.26793 -5.46186 0
M  V30 10430 H 902.532 -0.137633 -0.741332 0
M  V30 10431 H 905.183 -0.986461 -1.54729 0
M  V30 10432 H 903.565 0.0531975 -3.95964 0
M  V30 10433 H 904.739 -2.79077 -3.66678 0
M  V30 10434 H 903.054 -2.39417 -3.40688 0
M  V30 10435 H 905.651 -0.387669 -5.33293 0
M  V30 10436 H 905.994 0.787994 -4.08774 0
M  V30 10437 H 906.527 -0.897464 -3.87544 0
M  V30 10438 H 903.266 -3.30566 -5.66045 0
M  V30 10439 H 902.786 -1.59735 -5.78139 0
M  V30 10440 H 904.465 -2.08165 -6.12598 0
M  V30 10441 N 904.597 1.47463 -0.556102 0
M  V30 10442 C 905.822 2.07371 -0.0344729 0
M  V30 10443 C 906.247 1.40621 1.2493 0
M  V30 10444 O 905.605 0.48082 1.74808 0
M  V30 10445 C 905.653 3.60306 0.145563 0
M  V30 10446 O 904.757 3.94299 1.20839 0
M  V30 10447 H 904.098 0.662052 -0.0508274 0
M  V30 10448 H 906.628 1.89498 -0.771469 0
M  V30 10449 H 906.638 4.06408 0.360112 0
M  V30 10450 H 905.313 4.08288 -0.792089 0
M  V30 10451 H 903.89 3.59944 0.97442 0
M  V30 10452 N 906.075 0.2925 1.54862 0
M  V30 10453 C 907.303 -0.322113 2.04377 0
M  V30 10454 C 907.718 -1.48164 1.17016 0
M  V30 10455 O 907.075 -1.81466 0.19395 0
M  V30 10456 C 907.126 -0.786506 3.5284 0
M  V30 10457 O 906.847 0.326863 4.36879 0
M  V30 10458 C 908.348 -1.46715 4.18318 0
M  V30 10459 H 905.568 -0.0712074 0.667211 0
M  V30 10460 H 908.112 0.429657 1.99935 0
M  V30 10461 H 906.267 -1.48832 3.5767 0
M  V30 10462 H 906.681 -0.0331558 5.2449 0
M  V30 10463 H 908.155 -1.74333 5.23748 0
M  V30 10464 H 908.632 -2.40443 3.67538 0
M  V30 10465 H 909.238 -0.808735 4.1754 0
M  V30 10466 N 907.553 -1.57587 0.0200696 0
M  V30 10467 C 908.83 -1.82696 -0.698677 0
M  V30 10468 C 909.21 -0.902082 -1.90855 0
M  V30 10469 O 908.558 0.0444834 -2.28457 0
M  V30 10470 C 908.768 -3.31691 -1.08546 0
M  V30 10471 C 910.116 -3.97938 -1.4809 0
M  V30 10472 O 911.14 -3.36133 -1.17869 0
M  V30 10473 O 909.999 -5.06851 -2.04364 0
M  V30 10474 H 907.093 -0.752997 -0.341942 0
M  V30 10475 H 909.639 -1.69635 0.04706 0
M  V30 10476 H 908.411 -3.90659 -0.223956 0
M  V30 10477 H 908.034 -3.49825 -1.88965 0
M  V30 10478 N 909.032 0.252966 -1.55557 0
M  V30 10479 C 909.964 1.33585 -1.86246 0
M  V30 10480 C 910.977 1.44584 -0.748291 0
M  V30 10481 O 912.166 1.46042 -1.02635 0
M  V30 10482 C 909.266 2.71509 -2.02821 0
M  V30 10483 C 908.439 2.82853 -3.33636 0
M  V30 10484 C 907.498 4.01581 -3.40028 0
M  V30 10485 O 906.524 3.91394 -4.13278 0
M  V30 10486 N 907.726 5.14474 -2.6888 0
M  V30 10487 H 910.491 1.07596 -2.7972 0
M  V30 10488 H 908.052 0.443075 -1.55719 0
M  V30 10489 H 910.044 3.49262 -2.04445 0
M  V30 10490 H 908.614 2.90232 -1.1612 0
M  V30 10491 H 907.834 1.91823 -3.4438 0
M  V30 10492 H 909.122 2.87378 -4.19871 0
M  V30 10493 H 908.52 5.25641 -2.09087 0
M  V30 10494 H 907.077 5.90385 -2.76204 0
M  V30 10495 N 910.51 1.48831 0.518367 0
M  V30 10496 C 911.458 1.64678 1.64268 0
M  V30 10497 C 912.452 0.512967 1.61447 0
M  V30 10498 O 913.658 0.692063 1.66164 0
M  V30 10499 H 910.033 0.518964 0.544224 0
M  V30 10500 H 912.004 2.59083 1.4805 0
M  V30 10501 C 910.753 1.71449 3.0249 0
M  V30 10502 H 910.076 2.58061 3.0536 0
M  V30 10503 H 911.516 1.86577 3.80743 0
M  V30 10504 C 909.975 0.455584 3.33805 0
M  V30 10505 O 910.505 -0.426428 3.9943 0
M  V30 10506 N 908.711 0.323763 2.88791 0
M  V30 10507 H 908.258 1.04249 2.35563 0
M  V30 10508 H 908.216 -0.517514 3.10112 0
M  V30 10509 N 911.988 -0.768124 1.37614 0
M  V30 10510 C 913.218 -1.555 1.36027 0
M  V30 10511 C 913.626 -1.89119 -0.0554273 0
M  V30 10512 O 912.969 -1.52203 -1.02859 0
M  V30 10513 C 913.031 -2.8906 2.13739 0
M  V30 10514 C 912.695 -2.78058 3.62674 0
M  V30 10515 C 913.692 -2.48841 4.5648 0
M  V30 10516 C 911.377 -2.95966 4.05844 0
M  V30 10517 C 913.371 -2.37665 5.91434 0
M  V30 10518 C 911.058 -2.84411 5.40882 0
M  V30 10519 C 912.056 -2.55301 6.33491 0
M  V30 10520 O 911.744 -2.43779 7.66046 0
M  V30 10521 H 911.476 -0.488263 0.467521 0
M  V30 10522 H 914.03 -0.959583 1.81607 0
M  V30 10523 H 912.26 -3.50735 1.62854 0
M  V30 10524 H 913.949 -3.5048 2.04741 0
M  V30 10525 H 914.715 -2.34687 4.24437 0
M  V30 10526 H 910.594 -3.17625 3.34119 0
M  V30 10527 H 914.138 -2.14865 6.63686 0
M  V30 10528 H 910.035 -2.98134 5.72527 0
M  V30 10529 H 910.803 -2.59101 7.76408 0
M  V30 10530 N 913.466 -1.22244 -0.994698 0
M  V30 10531 C 914.715 -1.04005 -1.72817 0
M  V30 10532 C 915.028 0.425413 -1.90918 0
M  V30 10533 O 916.234 0.727429 -2.61574 0
M  V30 10534 C 914.69 -1.81244 -3.10932 0
M  V30 10535 C 914.298 -3.32028 -3.00768 0
M  V30 10536 C 916.042 -1.71448 -3.88337 0
M  V30 10537 C 913.949 -4.01716 -4.34026 0
M  V30 10538 H 912.879 -0.385559 -0.647966 0
M  V30 10539 H 915.53 -1.46077 -1.11058 0
M  V30 10540 H 913.912 -1.3197 -3.73363 0
M  V30 10541 H 915.086 -3.88682 -2.47513 0
M  V30 10542 H 913.401 -3.4248 -2.36846 0
M  V30 10543 H 915.998 -2.20836 -4.86965 0
M  V30 10544 H 916.341 -0.674568 -4.10798 0
M  V30 10545 H 916.874 -2.18256 -3.3258 0
M  V30 10546 H 913.613 -5.05952 -4.16765 0
M  V30 10547 H 913.133 -3.49849 -4.87202 0
M  V30 10548 H 914.812 -4.0721 -5.02782 0
M  V30 10549 N 914.944 1.19125 -1.03184 0
M  V30 10550 C 916.184 1.90582 -0.738785 0
M  V30 10551 C 916.548 1.78004 0.719627 0
M  V30 10552 O 917.749 2.44084 1.12589 0
M  V30 10553 C 916.02 3.37319 -1.18114 0
M  V30 10554 S 917.579 4.26962 -1.01238 0
M  V30 10555 H 914.397 0.6582 -0.268875 0
M  V30 10556 H 916.999 1.43999 -1.32229 0
M  V30 10557 H 915.703 3.43999 -2.23814 0
M  V30 10558 H 915.234 3.88935 -0.591051 0
M  V30 10559 H 917.249 4.96143 0.0753558 0
M  V30 10560 N 916.422 0.810101 1.35185 0
M  V30 10561 C 917.652 0.404109 2.02609 0
M  V30 10562 C 918.06 -0.990748 1.61186 0
M  V30 10563 O 917.403 -1.65038 0.80674 0
M  V30 10564 C 917.465 0.412047 3.57131 0
M  V30 10565 C 917.129 1.75802 4.21832 0
M  V30 10566 C 918.126 2.71687 4.43263 0
M  V30 10567 C 915.811 2.04299 4.58876 0
M  V30 10568 C 917.805 3.9425 5.00845 0
M  V30 10569 C 915.492 3.27125 5.16171 0
M  V30 10570 C 916.49 4.21918 5.37098 0
M  V30 10571 O 916.178 5.42576 5.93184 0
M  V30 10572 H 915.91 0.161914 0.656323 0
M  V30 10573 H 918.464 1.09605 1.73712 0
M  V30 10574 H 916.694 -0.336509 3.85233 0
M  V30 10575 H 918.383 0.0278817 4.0589 0
M  V30 10576 H 919.149 2.50964 4.15021 0
M  V30 10577 H 915.028 1.31324 4.41899 0
M  V30 10578 H 918.572 4.68251 5.17094 0
M  V30 10579 H 914.469 3.47718 5.43841 0
M  V30 10580 H 915.237 5.43921 6.11631 0
M  V30 10581 N 917.9 -1.47166 0.563914 0
M  V30 10582 C 919.125 -2.0735 0.0454698 0
M  V30 10583 C 919.55 -1.41281 -1.24182 0
M  V30 10584 O 918.908 -0.490084 -1.7455 0
M  V30 10585 C 918.956 -3.60378 -0.126453 0
M  V30 10586 O 918.06 -3.94934 -1.18746 0
M  V30 10587 H 917.401 -0.661773 0.0543377 0
M  V30 10588 H 919.931 -1.89086 0.781508 0
M  V30 10589 H 919.941 -4.06593 -0.338554 0
M  V30 10590 H 918.616 -4.07862 0.81373 0
M  V30 10591 H 917.193 -3.60455 -0.955318 0
M  V30 10592 N 919.378 -0.300708 -1.54705 0
M  V30 10593 C 920.627 0.309428 -1.99312 0
M  V30 10594 C 920.94 1.55027 -1.19272 0
M  V30 10595 O 922.146 2.23498 -1.54146 0
M  V30 10596 C 920.602 0.601856 -3.54832 0
M  V30 10597 C 920.21 -0.620636 -4.4368 0
M  V30 10598 C 921.954 1.1732 -4.07966 0
M  V30 10599 C 919.861 -0.301376 -5.90632 0
M  V30 10600 H 918.791 0.119395 -0.744487 0
M  V30 10601 H 921.442 -0.409368 -1.78875 0
M  V30 10602 H 919.824 1.38024 -3.71168 0
M  V30 10603 H 920.998 -1.39685 -4.39118 0
M  V30 10604 H 919.313 -1.1106 -4.01316 0
M  V30 10605 H 921.91 1.42631 -5.15326 0
M  V30 10606 H 922.253 2.11537 -3.5855 0
M  V30 10607 H 922.786 0.456534 -3.95172 0
M  V30 10608 H 919.525 -1.21209 -6.44196 0
M  V30 10609 H 919.045 0.437574 -5.98202 0
M  V30 10610 H 920.724 0.097164 -6.46927 0
M  V30 10611 N 920.856 1.57574 -0.0284266 0
M  V30 10612 C 922.103 1.91772 0.650364 0
M  V30 10613 C 922.431 0.904769 1.72175 0
M  V30 10614 O 921.686 -0.0864038 1.95509 0
M  V30 10615 C 921.985 3.32699 1.3056 0
M  V30 10616 C 921.651 4.49423 0.364658 0
M  V30 10617 C 920.313 4.81084 0.105672 0
M  V30 10618 C 922.665 5.20439 -0.28151 0
M  V30 10619 C 919.993 5.81119 -0.8073 0
M  V30 10620 C 922.345 6.21449 -1.18253 0
M  V30 10621 C 921.009 6.51551 -1.45042 0
M  V30 10622 H 920.279 0.701744 0.237985 0
M  V30 10623 H 922.926 1.91288 -0.0900448 0
M  V30 10624 H 921.231 3.29441 2.12075 0
M  V30 10625 H 922.928 3.5643 1.83736 0
M  V30 10626 H 919.518 4.24703 0.576692 0
M  V30 10627 H 923.702 4.9621 -0.0944806 0
M  V30 10628 H 918.958 6.02788 -1.02256 0
M  V30 10629 H 923.132 6.75597 -1.68942 0
M  V30 10630 H 920.759 7.28882 -2.15951 0
M  V30 10631 N 922.334 -0.244713 1.55689 0
M  V30 10632 C 923.559 -0.994157 1.8202 0
M  V30 10633 C 923.984 -1.78079 0.60577 0
M  V30 10634 O 923.342 -1.75748 -0.445221 0
M  V30 10635 C 923.39 -1.90599 3.06111 0
M  V30 10636 O 922.494 -2.99804 2.8318 0
M  V30 10637 H 921.835 -0.282767 0.600782 0
M  V30 10638 H 924.365 -0.26504 2.02876 0
M  V30 10639 H 924.375 -2.32023 3.35603 0
M  V30 10640 H 923.05 -1.32763 3.9414 0
M  V30 10641 H 921.627 -2.62493 2.64862 0
M  V30 10642 N 923.813 -1.49104 -0.510467 0
M  V30 10643 C 925.059 -1.58346 -1.26705 0
M  V30 10644 C 925.392 -0.265121 -1.92382 0
M  V30 10645 O 924.667 0.730558 -1.80258 0
M  V30 10646 C 924.95 -2.7359 -2.34137 0
M  V30 10647 C 924.803 -4.1519 -1.73024 0
M  V30 10648 C 926.122 -2.84511 -3.3577 0
M  V30 10649 H 923.241 -0.57637 -0.459311 0
M  V30 10650 H 925.883 -1.81353 -0.566658 0
M  V30 10651 H 924.033 -2.54105 -2.93876 0
M  V30 10652 H 925.705 -4.46167 -1.17186 0
M  V30 10653 H 923.948 -4.21279 -1.03473 0
M  V30 10654 H 924.619 -4.91683 -2.50903 0
M  V30 10655 H 927.095 -3.0222 -2.86011 0
M  V30 10656 H 925.971 -3.6684 -4.08313 0
M  V30 10657 H 926.232 -1.93471 -3.97519 0
M  V30 10658 N 925.291 0.760815 -1.38019 0
M  V30 10659 C 926.221 1.88811 -1.37377 0
M  V30 10660 C 927.202 1.68388 -0.240737 0
M  V30 10661 O 928.387 1.89086 -0.442739 0
M  V30 10662 C 925.517 3.26244 -1.1909 0
M  V30 10663 C 924.471 3.61254 -2.29521 0
M  V30 10664 C 923.797 4.97346 -1.96345 0
M  V30 10665 C 925.097 3.66874 -3.71753 0
M  V30 10666 H 926.791 1.89606 -2.31711 0
M  V30 10667 H 924.337 0.910818 -1.11535 0
M  V30 10668 H 926.29 4.04755 -1.17267 0
M  V30 10669 H 925.014 3.2591 -0.212152 0
M  V30 10670 H 923.673 2.85057 -2.30517 0
M  V30 10671 H 923.321 4.93564 -0.969728 0
M  V30 10672 H 923.021 5.21739 -2.703 0
M  V30 10673 H 924.545 5.78244 -1.96129 0
M  V30 10674 H 925.959 4.35514 -3.72828 0
M  V30 10675 H 924.356 4.02772 -4.44853 0
M  V30 10676 H 925.426 2.67273 -4.0459 0
M  V30 10677 N 926.769 1.22769 0.988202 0
M  V30 10678 C 927.997 1.08155 1.76381 0
M  V30 10679 C 928.412 -0.367573 1.85187 0
M  V30 10680 O 927.769 -1.25455 1.32541 0
M  V30 10681 C 927.82 1.69193 3.19462 0
M  V30 10682 O 927.541 3.08437 3.11125 0
M  V30 10683 C 929.042 1.59915 4.13451 0
M  V30 10684 H 926.262 0.378908 0.553778 0
M  V30 10685 H 928.806 1.6246 1.24206 0
M  V30 10686 H 926.961 1.18939 3.6869 0
M  V30 10687 H 927.375 3.37916 4.0114 0
M  V30 10688 H 928.849 2.07339 5.1158 0
M  V30 10689 H 929.326 0.556546 4.3566 0
M  V30 10690 H 929.932 2.09497 3.70123 0
M  V30 10691 N 928.247 -1.18576 1.03814 0
M  V30 10692 C 929.472 -1.92978 0.759873 0
M  V30 10693 C 929.897 -1.75514 -0.676486 0
M  V30 10694 O 929.255 -1.06359 -1.46824 0
M  V30 10695 C 929.303 -3.42507 1.12788 0
M  V30 10696 O 928.407 -4.1163 0.251886 0
M  V30 10697 H 927.748 -0.602129 0.279886 0
M  V30 10698 H 930.278 -1.50383 1.3873 0
M  V30 10699 H 930.288 -3.93206 1.08872 0
M  V30 10700 H 928.963 -3.5454 2.17427 0
M  V30 10701 H 927.54 -3.7125 0.350441 0
M  V30 10702 N 929.725 -0.817259 -1.34754 0
M  V30 10703 C 930.955 -0.414849 -2.02392 0
M  V30 10704 C 931.363 0.982186 -1.61709 0
M  V30 10705 O 930.706 1.64607 -0.815481 0
M  V30 10706 C 930.768 -0.430981 -3.56907 0
M  V30 10707 C 930.432 -1.78037 -4.20894 0
M  V30 10708 C 931.429 -2.74034 -4.41816 0
M  V30 10709 C 929.114 -2.0673 -4.57786 0
M  V30 10710 C 931.108 -3.96901 -4.98747 0
M  V30 10711 C 928.795 -3.29858 -5.14429 0
M  V30 10712 C 929.793 -4.24761 -5.34853 0
M  V30 10713 O 929.481 -5.45714 -5.90298 0
M  V30 10714 H 929.213 -0.165392 -0.655455 0
M  V30 10715 H 931.767 -1.10524 -1.73129 0
M  V30 10716 H 929.997 0.316074 -3.85406 0
M  V30 10717 H 931.686 -0.0494067 -4.0587 0
M  V30 10718 H 932.452 -2.53161 -4.13684 0
M  V30 10719 H 928.331 -1.33666 -4.41197 0
M  V30 10720 H 931.875 -4.70987 -5.14604 0
M  V30 10721 H 927.772 -3.50597 -5.41989 0
M  V30 10722 H 928.54 -5.47157 -6.08738 0
M  V30 10723 N 931.203 1.46865 -0.571711 0
M  V30 10724 C 932.133 2.3298 0.155795 0
M  V30 10725 C 933.114 1.44678 0.894553 0
M  V30 10726 O 934.299 1.73513 0.872176 0
M  V30 10727 C 931.429 3.26745 1.17708 0
M  V30 10728 C 930.383 4.24401 0.553863 0
M  V30 10729 C 929.709 5.07595 1.68083 0
M  V30 10730 C 931.009 5.19884 -0.501827 0
M  V30 10731 H 932.703 2.94056 -0.563176 0
M  V30 10732 H 930.249 1.41402 -0.27228 0
M  V30 10733 H 932.202 3.85838 1.6943 0
M  V30 10734 H 930.926 2.63753 1.92618 0
M  V30 10735 H 929.585 3.66554 0.057815 0
M  V30 10736 H 929.233 4.40996 2.41933 0
M  V30 10737 H 928.933 5.73722 1.26953 0
M  V30 10738 H 930.457 5.6955 2.20103 0
M  V30 10739 H 931.871 5.73257 -0.0701057 0
M  V30 10740 H 930.268 5.94293 -0.832815 0
M  V30 10741 H 931.338 4.64482 -1.39229 0
M  V30 10742 N 932.681 0.308908 1.54543 0
M  V30 10743 C 933.611 -0.556657 2.26768 0
M  V30 10744 C 934.592 -1.13145 1.27013 0
M  V30 10745 O 935.777 -1.15931 1.558 0
M  V30 10746 C 932.907 -1.72481 3.01443 0
M  V30 10747 C 931.861 -1.28001 4.08411 0
M  V30 10748 C 931.187 -2.53395 4.70845 0
M  V30 10749 C 932.487 -0.405497 5.20724 0
M  V30 10750 H 934.181 0.0457618 2.99365 0
M  V30 10751 H 931.727 0.0234495 1.43981 0
M  V30 10752 H 933.68 -2.3365 3.50693 0
M  V30 10753 H 932.404 -2.35359 2.26437 0
M  V30 10754 H 931.063 -0.69133 3.60022 0
M  V30 10755 H 930.711 -3.14604 3.92471 0
M  V30 10756 H 930.411 -2.2433 5.43093 0
M  V30 10757 H 931.935 -3.15352 5.22863 0
M  V30 10758 H 933.349 -0.923076 5.6582 0
M  V30 10759 H 931.746 -0.208282 5.99738 0
M  V30 10760 H 932.816 0.567412 4.81569 0
M  V30 10761 N 934.159 -1.57557 0.0367827 0
M  V30 10762 C 935.106 -2.10679 -0.942499 0
M  V30 10763 C 936.076 -1.01068 -1.31812 0
M  V30 10764 O 937.261 -1.28533 -1.41011 0
M  V30 10765 C 934.401 -2.64467 -2.21701 0
M  V30 10766 C 933.514 -3.88114 -1.89715 0
M  V30 10767 C 932.649 -4.30268 -3.11518 0
M  V30 10768 C 931.688 -5.46652 -2.75387 0
M  V30 10769 N 930.825 -5.83927 -3.89838 0
M  V30 10770 H 935.665 -2.94066 -0.482588 0
M  V30 10771 H 933.202 -1.45344 -0.226597 0
M  V30 10772 H 935.16 -2.93745 -2.96259 0
M  V30 10773 H 933.79 -1.83898 -2.65295 0
M  V30 10774 H 932.842 -3.65516 -1.05366 0
M  V30 10775 H 934.154 -4.72743 -1.5911 0
M  V30 10776 H 933.308 -4.61023 -3.94389 0
M  V30 10777 H 932.047 -3.44421 -3.4529 0
M  V30 10778 H 931.052 -5.15583 -1.90929 0
M  V30 10779 H 932.277 -6.34204 -2.42822 0
M  V30 10780 H 930.223 -5.01035 -4.23438 0
M  V30 10781 H 930.14 -6.63214 -3.62883 0
M  V30 10782 H 931.408 -6.19291 -4.73391 0
M  V30 10783 N 935.637 0.236453 -1.55816 0
M  V30 10784 C 936.867 0.978873 -1.81939 0
M  V30 10785 C 937.275 1.79041 -0.611647 0
M  V30 10786 O 936.618 1.78616 0.429172 0
M  V30 10787 C 936.68 1.9569 -3.01572 0
M  V30 10788 C 936.344 1.33131 -4.37178 0
M  V30 10789 C 937.341 0.728585 -5.1477 0
M  V30 10790 C 935.026 1.34755 -4.83887 0
M  V30 10791 C 937.02 0.150427 -6.37222 0
M  V30 10792 C 934.707 0.765539 -6.06286 0
M  V30 10793 C 935.705 0.168017 -6.82793 0
M  V30 10794 O 935.393 -0.404976 -8.02879 0
M  V30 10795 H 935.125 0.293186 -0.609113 0
M  V30 10796 H 937.679 0.261384 -2.0373 0
M  V30 10797 H 935.909 2.71298 -2.75562 0
M  V30 10798 H 937.598 2.56362 -3.14695 0
M  V30 10799 H 938.364 0.708477 -4.79797 0
M  V30 10800 H 934.243 1.80202 -4.24321 0
M  V30 10801 H 937.787 -0.316586 -6.96881 0
M  V30 10802 H 933.684 0.78301 -6.40733 0
M  V30 10803 H 934.452 -0.29785 -8.17958 0
M  V30 10804 N 937.115 1.49373 0.502552 0
M  V30 10805 C 938.045 1.68839 1.61294 0
M  V30 10806 C 939.026 0.537096 1.61398 0
M  V30 10807 O 940.211 0.772764 1.78163 0
M  V30 10808 C 937.341 1.75347 2.99784 0
M  V30 10809 C 936.295 2.90251 3.14545 0
M  V30 10810 C 935.621 2.8187 4.54371 0
M  V30 10811 C 936.921 4.31207 2.94717 0
M  V30 10812 H 938.615 2.61803 1.45257 0
M  V30 10813 H 936.161 1.25987 0.697371 0
M  V30 10814 H 938.114 1.87552 3.77362 0
M  V30 10815 H 936.838 0.789814 3.16906 0
M  V30 10816 H 935.497 2.77646 2.39392 0
M  V30 10817 H 935.145 1.83416 4.68367 0
M  V30 10818 H 934.845 3.5899 4.65188 0
M  V30 10819 H 936.369 2.96081 5.34012 0
M  V30 10820 H 937.783 4.44501 3.62065 0
M  V30 10821 H 936.18 5.09536 3.17007 0
M  V30 10822 H 937.25 4.45759 1.90857 0
M  V30 10823 N 938.594 -0.753485 1.38421 0
M  V30 10824 C 939.84 -1.51485 1.34834 0
M  V30 10825 C 940.173 -1.94102 -0.0615381 0
M  V30 10826 O 939.448 -1.65439 -1.02274 0
M  V30 10827 C 939.731 -2.76736 2.30411 0
M  V30 10828 C 939.584 -2.40256 3.80259 0
M  V30 10829 C 940.903 -3.7876 2.24119 0
M  V30 10830 H 938.022 -0.549534 0.491102 0
M  V30 10831 H 940.664 -0.863006 1.6927 0
M  V30 10832 H 938.814 -3.32357 2.01175 0
M  V30 10833 H 940.486 -1.90409 4.20169 0
M  V30 10834 H 938.729 -1.72714 3.97935 0
M  V30 10835 H 939.4 -3.29869 4.42595 0
M  V30 10836 H 941.876 -3.32679 2.49928 0
M  V30 10837 H 940.752 -4.64092 2.93104 0
M  V30 10838 H 941.013 -4.24352 1.24006 0
M  V30 10839 N 940.072 -1.23292 -0.981677 0
M  V30 10840 C 941.005 -0.956198 -2.07201 0
M  V30 10841 C 941.983 0.105027 -1.6226 0
M  V30 10842 O 943.167 -0.0289582 -1.88478 0
M  V30 10843 C 940.294 -0.44029 -3.35826 0
M  V30 10844 C 939.34 -1.48792 -3.99704 0
M  V30 10845 S 940.173 -3.06491 -4.39117 0
M  V30 10846 C 941.329 -2.56567 -5.70898 0
M  V30 10847 H 941.562 -1.87947 -2.30355 0
M  V30 10848 H 939.095 -1.06522 -1.1177 0
M  V30 10849 H 941.053 -0.149237 -4.10229 0
M  V30 10850 H 939.714 0.462045 -3.10683 0
M  V30 10851 H 938.907 -1.07706 -4.92357 0
M  V30 10852 H 938.509 -1.72826 -3.31673 0
M  V30 10853 H 940.801 -1.98508 -6.47766 0
M  V30 10854 H 941.744 -3.47755 -6.16824 0
M  V30 10855 H 942.152 -1.97465 -5.28836 0
M  V30 10856 N 941.55 1.18024 -1.04442 0
M  V30 10857 C 942.48 2.23988 -0.659683 0
M  V30 10858 C 943.461 1.6669 0.338904 0
M  V30 10859 O 944.646 1.92971 0.21817 0
M  V30 10860 C 941.776 3.4729 -0.0257672 0
M  V30 10861 C 940.73 4.17362 -0.948299 0
M  V30 10862 C 940.056 5.34401 -0.17866 0
M  V30 10863 C 941.356 4.70435 -2.26909 0
M  V30 10864 H 943.05 2.56425 -1.54553 0
M  V30 10865 H 940.596 1.23256 -0.744575 0
M  V30 10866 H 942.549 4.20627 0.255131 0
M  V30 10867 H 941.273 3.14098 0.894981 0
M  V30 10868 H 939.932 3.45928 -1.21364 0
M  V30 10869 H 939.58 4.97458 0.744614 0
M  V30 10870 H 939.28 5.8222 -0.793294 0
M  V30 10871 H 940.804 6.10526 0.0951315 0
M  V30 10872 H 942.218 5.35447 -2.04864 0
M  V30 10873 H 940.615 5.28803 -2.83703 0
M  V30 10874 H 941.685 3.87653 -2.91296 0
M  V30 10875 N 943.028 0.824394 1.34319 0
M  V30 10876 C 943.975 0.245282 2.29493 0
M  V30 10877 C 944.945 -0.630762 1.53657 0
M  V30 10878 O 946.13 -0.572094 1.82021 0
M  V30 10879 C 943.27 -0.585631 3.40095 0
M  V30 10880 C 942.383 0.312821 4.30866 0
M  V30 10881 C 941.518 -0.527801 5.28571 0
M  V30 10882 C 940.557 0.369946 6.10981 0
M  V30 10883 N 939.694 -0.43169 7.00772 0
M  V30 10884 H 944.534 1.06225 2.78425 0
M  V30 10885 H 942.071 0.53533 1.37013 0
M  V30 10886 H 944.029 -1.08271 4.02906 0
M  V30 10887 H 942.659 -1.3677 2.92393 0
M  V30 10888 H 941.711 0.928129 3.68904 0
M  V30 10889 H 943.023 1.00306 4.8861 0
M  V30 10890 H 942.177 -1.0893 5.96841 0
M  V30 10891 H 940.916 -1.25154 4.71368 0
M  V30 10892 H 939.921 0.943577 5.41643 0
M  V30 10893 H 941.146 1.09182 6.70266 0
M  V30 10894 H 939.092 -1.13908 6.46035 0
M  V30 10895 H 939.009 0.200133 7.55735 0
M  V30 10896 H 940.277 -0.975894 7.73367 0
M  V30 10897 N 944.506 -1.46559 0.579492 0
M  V30 10898 C 945.755 -2.01606 0.0615735 0
M  V30 10899 C 946.068 -1.45695 -1.30508 0
M  V30 10900 O 947.274 -1.92541 -1.91416 0
M  V30 10901 C 945.73 -3.59851 0.059496 0
M  V30 10902 C 945.338 -4.24757 1.42427 0
M  V30 10903 C 947.082 -4.22567 -0.404646 0
M  V30 10904 C 944.989 -5.75072 1.38009 0
M  V30 10905 H 943.919 -0.753754 0.0192491 0
M  V30 10906 H 946.57 -1.68326 0.73066 0
M  V30 10907 H 944.952 -3.90193 -0.675691 0
M  V30 10908 H 946.126 -4.06029 2.17893 0
M  V30 10909 H 944.441 -3.74121 1.82817 0
M  V30 10910 H 947.038 -5.32748 -0.456441 0
M  V30 10911 H 947.381 -3.91279 -1.42149 0
M  V30 10912 H 947.914 -3.96839 0.276376 0
M  V30 10913 H 944.653 -6.11014 2.37364 0
M  V30 10914 H 944.173 -5.96073 0.667583 0
M  V30 10915 H 945.852 -6.37724 1.09163 0
M  V30 10916 N 945.984 -0.3171 -1.54377 0
M  V30 10917 C 947.233 0.288271 -1.99629 0
M  V30 10918 C 947.546 1.53754 -1.2091 0
M  V30 10919 O 948.752 2.2185 -1.56508 0
M  V30 10920 C 947.208 0.564188 -3.5545 0
M  V30 10921 C 946.816 -0.667659 -4.42997 0
M  V30 10922 C 948.56 1.12987 -4.09187 0
M  V30 10923 C 946.467 -0.364003 -5.90279 0
M  V30 10924 H 945.397 0.111492 -0.745711 0
M  V30 10925 H 948.048 -0.428317 -1.78431 0
M  V30 10926 H 946.43 1.34079 -3.72611 0
M  V30 10927 H 947.604 -1.44335 -4.37612 0
M  V30 10928 H 945.919 -1.1531 -4.00116 0
M  V30 10929 H 948.516 1.37157 -5.1681 0
M  V30 10930 H 948.859 2.07722 -3.60773 0
M  V30 10931 H 949.392 0.414595 -3.95634 0
M  V30 10932 H 946.131 -1.28035 -6.42874 0
M  V30 10933 H 945.651 0.374102 -5.98632 0
M  V30 10934 H 947.33 0.0285433 -6.46994 0
M  V30 10935 N 947.462 1.57535 -0.0451378 0
M  V30 10936 C 948.41 2.12351 0.949205 0
M  V30 10937 C 949.404 1.05386 1.32628 0
M  V30 10938 O 950.61 1.23802 1.30664 0
M  V30 10939 H 946.985 0.678648 0.323945 0
M  V30 10940 H 948.956 2.94806 0.461718 0
M  V30 10941 C 947.705 2.67862 2.21687 0
M  V30 10942 H 947.028 3.49826 1.93551 0
M  V30 10943 H 948.468 3.09844 2.89435 0
M  V30 10944 C 946.927 1.61353 2.95748 0
M  V30 10945 O 947.457 1.02276 3.88462 0
M  V30 10946 N 945.663 1.33017 2.5837 0
M  V30 10947 H 945.21 1.81246 1.83051 0
M  V30 10948 H 945.168 0.619812 3.0823 0
M  V30 10949 N 948.94 -0.228186 1.55939 0
M  V30 10950 C 950.17 -0.969211 1.82455 0
M  V30 10951 C 950.578 -1.78714 0.621133 0
M  V30 10952 O 949.921 -1.78841 -0.419694 0
M  V30 10953 C 949.983 -1.94088 3.02605 0
M  V30 10954 C 949.647 -1.30811 4.37878 0
M  V30 10955 C 950.644 -0.701275 5.15149 0
M  V30 10956 C 948.329 -1.32187 4.84595 0
M  V30 10957 C 950.323 -0.116631 6.37293 0
M  V30 10958 C 948.01 -0.733375 6.06683 0
M  V30 10959 C 949.008 -0.131804 6.82873 0
M  V30 10960 O 948.696 0.447549 8.02653 0
M  V30 10961 H 948.428 -0.289951 0.610659 0
M  V30 10962 H 950.982 -0.250576 2.03866 0
M  V30 10963 H 949.212 -2.69833 2.76996 0
M  V30 10964 H 950.901 -2.5469 3.1605 0
M  V30 10965 H 951.667 -0.683022 4.80166 0
M  V30 10966 H 947.546 -1.77949 4.25271 0
M  V30 10967 H 951.09 0.353539 6.96704 0
M  V30 10968 H 946.987 -0.749019 6.4114 0
M  V30 10969 H 947.755 0.341224 8.17788 0
M  V30 10970 N 950.418 -1.49637 -0.494624 0
M  V30 10971 C 951.667 -1.58691 -1.24499 0
M  V30 10972 C 951.98 -0.281763 -1.9356 0
M  V30 10973 O 953.186 -0.250925 -2.70338 0
M  V30 10974 C 951.642 -2.8002 -2.26091 0
M  V30 10975 C 951.25 -4.17318 -1.6294 0
M  V30 10976 C 952.994 -2.98407 -3.01916 0
M  V30 10977 C 950.901 -5.29862 -2.62679 0
M  V30 10978 H 949.831 -0.590888 -0.468367 0
M  V30 10979 H 952.482 -1.76034 -0.518112 0
M  V30 10980 H 950.864 -2.56185 -3.01969 0
M  V30 10981 H 952.038 -4.51315 -0.930108 0
M  V30 10982 H 950.353 -4.04342 -0.994819 0
M  V30 10983 H 952.95 -3.79658 -3.76516 0
M  V30 10984 H 953.293 -2.09214 -3.5991 0
M  V30 10985 H 953.826 -3.22312 -2.33152 0
M  V30 10986 H 950.565 -6.21134 -2.09458 0
M  V30 10987 H 950.085 -5.00311 -3.3083 0
M  V30 10988 H 951.764 -5.59461 -3.2498 0
M  V30 10989 O 951.935 0.63997 -1.48279 0
M  V30 10990 H 952.626 1.29381 -1.44153 0
M  V30 END ATOM
M  V30 BEGIN BOND
M  V30 END BOND
M  V30 END CTAB
M  END
$$$$
