drugbank_target|O34928 Peptidoglycan-N-acetylmuramic acid deacetylase PdaA (DB03740)
 OpenBabel12092120033D

  0  0  0     0  0            999 V3000
M  V30 BEGIN CTAB
M  V30 COUNTS 4211 4264 0 0 0
M  V30 BEGIN ATOM
M  V30 1 H -0.908 1.98254 -0.117106 0
M  V30 2 N 0 1.576 0 0
M  V30 3 C 0.933 2.03868 1.02534 0
M  V30 4 C 1.911 0.928543 1.3348 0
M  V30 5 O 3.095 1.19667 1.45644 0
M  V30 6 C 0.222 2.43627 2.35294 0
M  V30 7 C -0.732 3.65373 2.2001 0
M  V30 8 S 0.101 5.13292 1.52614 0
M  V30 9 C 1.257 5.56322 2.86805 0
M  V30 10 H 1.49 2.90518 0.631377 0
M  V30 11 H -0.977 1.52953 0.210867 0
M  V30 12 H 0.981 2.67203 3.11629 0
M  V30 13 H -0.358 1.57376 2.7183 0
M  V30 14 H -1.165 3.90944 3.18086 0
M  V30 15 H -1.563 3.418 1.51819 0
M  V30 16 H 0.729 5.58782 3.83104 0
M  V30 17 H 1.672 6.56266 2.65933 0
M  V30 18 H 2.08 4.83886 2.90714 0
M  V30 19 N 1.4781 -0.272755 1.55222 0
M  V30 20 C 2.4251 -1.33716 1.88119 0
M  V30 21 C 3.3951 -1.49066 0.73271 0
M  V30 22 O 4.5801 -1.63469 0.984002 0
M  V30 23 C 1.7201 -2.69238 2.15882 0
M  V30 24 C 0.8331 -2.62108 3.43399 0
M  V30 25 C -0.0319 -3.89811 3.60861 0
M  V30 26 C -0.9929 -3.77193 4.8207 0
M  V30 27 N -1.8559 -4.9673 4.96189 0
M  V30 28 H 2.9841 -1.04962 2.78903 0
M  V30 29 H 0.5211 -0.507088 1.38083 0
M  V30 30 H 2.4791 -3.48089 2.29978 0
M  V30 31 H 1.1091 -2.96194 1.28331 0
M  V30 32 H 0.1611 -1.74967 3.37773 0
M  V30 33 H 1.4731 -2.48685 4.32386 0
M  V30 34 H 0.6271 -4.77103 3.74777 0
M  V30 35 H -0.6339 -4.06102 2.7006 0
M  V30 36 H -1.6289 -2.88284 4.68159 0
M  V30 37 H -0.4039 -3.62421 5.74307 0
M  V30 38 H -2.4579 -5.13431 4.08319 0
M  V30 39 H -2.5409 -4.85839 5.79221 0
M  V30 40 H -1.2729 -5.85594 5.1449 0
M  V30 41 N 2.9562 -1.48159 -0.537278 0
M  V30 42 C 4.2022 -1.57015 -1.29297 0
M  V30 43 C 4.5572 -0.237791 -1.90925 0
M  V30 44 O 3.8502 0.758621 -1.75942 0
M  V30 45 C 4.0442 -2.63956 -2.40961 0
M  V30 46 C 3.8732 -4.07461 -1.90278 0
M  V30 47 C 2.6432 -4.74685 -1.73213 0
M  V30 48 C 4.8412 -4.93858 -1.43556 0
M  V30 49 N 2.8232 -6.02633 -1.17078 0
M  V30 50 C 4.1942 -6.11993 -0.993204 0
M  V30 51 C 6.2492 -4.80141 -1.31792 0
M  V30 52 C 4.9522 -7.17923 -0.444872 0
M  V30 53 C 6.9782 -5.86186 -0.783585 0
M  V30 54 C 6.3402 -7.03524 -0.351261 0
M  V30 55 H 2.4392 -0.629154 -0.464423 0
M  V30 56 H 5.0232 -1.85006 -0.606705 0
M  V30 57 H 3.1942 -2.378 -3.07093 0
M  V30 58 H 4.9262 -2.62539 -3.07986 0
M  V30 59 H 1.6812 -4.30902 -1.9652 0
M  V30 60 H 2.1052 -6.7085 -0.910421 0
M  V30 61 H 6.7472 -3.89772 -1.63823 0
M  V30 62 H 4.4652 -8.08022 -0.11222 0
M  V30 63 H 8.0512 -5.77624 -0.695835 0
M  V30 64 H 6.9312 -7.8418 0.055777 0
M  V30 65 N 4.4343 0.785586 -1.36625 0
M  V30 66 C 5.3673 1.90509 -1.25625 0
M  V30 67 C 6.3453 1.62 -0.139607 0
M  V30 68 O 7.5293 1.8591 -0.31141 0
M  V30 69 C 4.6563 3.25419 -0.939158 0
M  V30 70 C 3.7023 3.72856 -2.07077 0
M  V30 71 S 4.5353 3.88162 -3.68904 0
M  V30 72 C 5.6913 5.25942 -3.39317 0
M  V30 73 H 5.9243 1.99549 -2.20381 0
M  V30 74 H 3.4573 0.945226 -1.22085 0
M  V30 75 H 5.4153 4.03346 -0.763029 0
M  V30 76 H 4.0763 3.14099 -0.00931402 0
M  V30 77 H 3.2693 4.70624 -1.80357 0
M  V30 78 H 2.8713 3.01989 -2.20632 0
M  V30 79 H 5.1633 6.10651 -2.93447 0
M  V30 80 H 6.1063 5.57668 -4.36363 0
M  V30 81 H 6.5143 4.93224 -2.74573 0
M  V30 82 N 5.9124 1.20967 1.01018 0
M  V30 83 C 7.1524 1.03511 1.76252 0
M  V30 84 C 7.5164 -0.42458 1.87247 0
M  V30 85 O 8.7174 -0.719508 2.58991 0
M  V30 86 C 6.9884 1.70726 3.13986 0
M  V30 87 S 8.5474 1.68458 4.05176 0
M  V30 88 H 5.3654 0.371037 0.606508 0
M  V30 89 H 7.9674 1.53628 1.20908 0
M  V30 90 H 6.6714 2.76128 3.03614 0
M  V30 91 H 6.2024 1.20767 3.74405 0
M  V30 92 H 8.2174 0.721987 4.90919 0
M  V30 93 N 7.3905 -1.2043 1.01659 0
M  V30 94 C 8.6155 -1.94318 0.724942 0
M  V30 95 C 9.0405 -1.74266 -0.708034 0
M  V30 96 O 8.3985 -1.03694 -1.48719 0
M  V30 97 C 8.4465 -3.44486 1.06591 0
M  V30 98 O 7.5505 -4.12017 0.177599 0
M  V30 99 H 6.8915 -0.60708 0.26898 0
M  V30 100 H 9.4215 -1.52861 1.35995 0
M  V30 101 H 9.4315 -3.95106 1.01762 0
M  V30 102 H 8.1065 -3.58404 2.10997 0
M  V30 103 H 6.6835 -3.71821 0.283421 0
M  V30 104 N 8.8686 -0.792821 -1.36206 0
M  V30 105 C 10.1176 -0.363353 -1.984 0
M  V30 106 C 10.4306 1.07172 -1.63626 0
M  V30 107 O 11.6366 1.60362 -2.19081 0
M  V30 108 C 10.0926 -0.59872 -3.54885 0
M  V30 109 C 9.7006 -2.04543 -3.9858 0
M  V30 110 C 11.4446 -0.233926 -4.23855 0
M  V30 111 C 9.3516 -2.22727 -5.47856 0
M  V30 112 H 8.2816 -0.13212 -0.742334 0
M  V30 113 H 10.9326 -0.974935 -1.55458 0
M  V30 114 H 9.3146 0.0826222 -3.95914 0
M  V30 115 H 10.4886 -2.76345 -3.68741 0
M  V30 116 H 8.8036 -2.36879 -3.42458 0
M  V30 117 H 11.4006 -0.348027 -5.33566 0
M  V30 118 H 11.7436 0.818351 -4.08177 0
M  V30 119 H 12.2766 -0.868639 -3.882 0
M  V30 120 H 9.0156 -3.2635 -5.68486 0
M  V30 121 H 8.5356 -1.55434 -5.7931 0
M  V30 122 H 10.2146 -2.03607 -6.14128 0
M  V30 123 N 10.3467 1.47872 -0.545128 0
M  V30 124 C 11.5867 2.04391 -0.0187854 0
M  V30 125 C 11.9507 1.41162 1.30144 0
M  V30 126 O 13.1517 1.88656 1.91474 0
M  V30 127 C 11.4227 3.57299 0.0850867 0
M  V30 128 S 12.9817 4.35221 0.559302 0
M  V30 129 H 9.7997 0.710737 -0.0193301 0
M  V30 130 H 12.4017 1.81395 -0.729125 0
M  V30 131 H 11.1057 4.00847 -0.880351 0
M  V30 132 H 10.6367 3.84773 0.819348 0
M  V30 133 H 12.6517 4.61571 1.82118 0
M  V30 134 N 11.8248 0.280983 1.55075 0
M  V30 135 C 13.0648 -0.335234 2.01632 0
M  V30 136 C 13.4288 -1.5261 1.16508 0
M  V30 137 O 14.6298 -2.21235 1.52672 0
M  V30 138 C 12.9008 -0.702172 3.50434 0
M  V30 139 S 14.4598 -1.30409 4.18974 0
M  V30 140 H 11.2778 -0.103967 0.703358 0
M  V30 141 H 13.8798 0.404187 1.91276 0
M  V30 142 H 12.5838 0.17333 4.10034 0
M  V30 143 H 12.1148 -1.4729 3.64786 0
M  V30 144 H 14.1298 -2.59253 4.23087 0
M  V30 145 N 13.3029 -1.57598 0.00835791 0
M  V30 146 C 14.2659 -2.07884 -0.965242 0
M  V30 147 C 15.2659 -0.989825 -1.26725 0
M  V30 148 O 16.4559 -1.25218 -1.21104 0
M  V30 149 C 13.5879 -2.52731 -2.28779 0
M  V30 150 H 14.7809 -2.95178 -0.530112 0
M  V30 151 H 12.3339 -1.54458 -0.239283 0
M  V30 152 H 13.0689 -1.68705 -2.76964 0
M  V30 153 H 12.8539 -3.32272 -2.08177 0
M  V30 154 H 14.3439 -2.91933 -2.98605 0
M  V30 155 N 14.781 0.264519 -1.55364 0
M  V30 156 C 15.744 1.31046 -1.88042 0
M  V30 157 C 16.744 1.41943 -0.755569 0
M  V30 158 O 17.934 1.40947 -1.02369 0
M  V30 159 C 15.066 2.69067 -2.09323 0
M  V30 160 H 16.259 1.03297 -2.81549 0
M  V30 161 H 13.812 0.502989 -1.47986 0
M  V30 162 H 14.547 3.01982 -1.18226 0
M  V30 163 H 14.332 2.62542 -2.91229 0
M  V30 164 H 15.822 3.44623 -2.35848 0
M  V30 165 N 16.2591 1.48442 0.529413 0
M  V30 166 C 17.5051 1.5672 1.28711 0
M  V30 167 C 17.8381 0.2406 1.92704 0
M  V30 168 O 17.1131 -0.753454 1.79313 0
M  V30 169 C 17.3961 2.70587 2.37603 0
M  V30 170 C 17.2491 4.12953 1.78297 0
M  V30 171 C 18.5681 2.80212 3.39366 0
M  V30 172 H 15.6871 0.570474 0.466613 0
M  V30 173 H 18.3291 1.80617 0.589706 0
M  V30 174 H 16.4791 2.50342 2.97088 0
M  V30 175 H 18.1511 4.44639 1.22858 0
M  V30 176 H 16.3941 4.19927 1.0883 0
M  V30 177 H 17.0651 4.88448 2.57144 0
M  V30 178 H 19.5411 2.98553 2.89836 0
M  V30 179 H 18.4171 3.61611 4.12951 0
M  V30 180 H 18.6781 1.88393 3.99951 0
M  V30 181 N 17.7372 -0.778329 1.37039 0
M  V30 182 C 18.6672 -1.90546 1.34962 0
M  V30 183 C 19.6482 -1.68681 0.219274 0
M  V30 184 O 20.8332 -1.89634 0.418624 0
M  V30 185 C 17.9632 -3.27734 1.14925 0
M  V30 186 C 16.9172 -3.64147 2.24902 0
M  V30 187 C 16.2432 -4.99806 1.89996 0
M  V30 188 C 17.5432 -3.71579 3.67051 0
M  V30 189 H 19.2372 -1.92541 2.29277 0
M  V30 190 H 16.7832 -0.924948 1.10366 0
M  V30 191 H 18.7362 -4.06215 1.12104 0
M  V30 192 H 17.4602 -3.26154 0.170631 0
M  V30 193 H 16.1192 -2.8797 2.26868 0
M  V30 194 H 15.7672 -4.94759 0.906796 0
M  V30 195 H 15.4672 -5.25139 2.63634 0
M  V30 196 H 16.9912 -5.80694 1.88749 0
M  V30 197 H 18.4052 -4.40227 3.67251 0
M  V30 198 H 16.8022 -4.08405 4.39688 0
M  V30 199 H 17.8722 -2.72404 4.01154 0
M  V30 200 N 19.2153 -1.21501 -1.00376 0
M  V30 201 C 20.1453 -0.999478 -2.11028 0
M  V30 202 C 21.1263 0.0759671 -1.6993 0
M  V30 203 O 22.3113 -0.0841106 -1.94018 0
M  V30 204 C 19.4413 -0.564709 -3.42678 0
M  V30 205 C 18.3953 -1.58486 -3.97576 0
M  V30 206 C 17.7213 -1.00628 -5.25146 0
M  V30 207 C 19.0213 -2.97204 -4.29496 0
M  V30 208 H 20.7153 -1.92495 -2.29317 0
M  V30 209 H 18.2613 -0.92693 -1.102 0
M  V30 210 H 20.2143 -0.401091 -4.19487 0
M  V30 211 H 18.9383 0.396411 -3.24185 0
M  V30 212 H 17.5973 -1.73606 -3.22888 0
M  V30 213 H 17.2453 -0.0368439 -5.02987 0
M  V30 214 H 16.9453 -1.68771 -5.62841 0
M  V30 215 H 18.4693 -0.854015 -6.04598 0
M  V30 216 H 19.8833 -2.8552 -4.97143 0
M  V30 217 H 18.2803 -3.62372 -4.78338 0
M  V30 218 H 19.3503 -3.47956 -3.3772 0
M  V30 219 N 20.6934 1.19889 -1.02296 0
M  V30 220 C 21.6564 2.21116 -0.603351 0
M  V30 221 C 22.6564 1.5738 0.329884 0
M  V30 222 O 23.8464 1.73802 0.117702 0
M  V30 223 C 20.9784 3.40696 0.117992 0
M  V30 224 H 22.1714 2.59754 -1.49893 0
M  V30 225 H 19.7244 1.33463 -0.813468 0
M  V30 226 H 20.4594 3.07569 1.0282 0
M  V30 227 H 20.2444 3.88188 -0.552511 0
M  V30 228 H 21.7344 4.15692 0.398696 0
M  V30 229 N 22.1715 0.800033 1.35784 0
M  V30 230 C 23.4195 0.376597 1.9856 0
M  V30 231 C 23.7405 -1.05812 1.63795 0
M  V30 232 O 23.0105 -1.73103 0.917171 0
M  V30 233 H 21.5905 0.136261 0.734467 0
M  V30 234 H 24.2525 1.02442 1.65806 0
M  V30 235 H 23.3485 0.477002 3.08433 0
M  V30 236 N 23.6496 -1.47581 0.552962 0
M  V30 237 C 24.8976 -2.02082 0.0272703 0
M  V30 238 C 25.2186 -1.4301 -1.32563 0
M  V30 239 O 24.4886 -0.603745 -1.86365 0
M  V30 240 H 23.0686 -0.746966 0.00709182 0
M  V30 241 H 25.7306 -1.81033 0.722008 0
M  V30 242 H 24.8266 -3.12034 -0.0639951 0
M  V30 243 N 25.1277 -0.289203 -1.54924 0
M  V30 244 C 26.0907 0.579144 -2.21762 0
M  V30 245 C 27.0907 1.07047 -1.1999 0
M  V30 246 O 28.2807 0.968384 -1.44803 0
M  V30 247 C 25.4127 1.80055 -2.8947 0
M  V30 248 H 26.6057 -0.00464908 -2.999 0
M  V30 249 H 24.1587 -0.0399306 -1.56249 0
M  V30 250 H 24.8937 2.42449 -2.15381 0
M  V30 251 H 24.6787 1.45602 -3.64064 0
M  V30 252 H 26.1687 2.41773 -3.40493 0
M  V30 253 N 26.6058 1.57591 -0.0167156 0
M  V30 254 C 27.5688 2.08393 0.954204 0
M  V30 255 C 28.5688 0.996531 1.26198 0
M  V30 256 O 29.7588 1.25858 1.20438 0
M  V30 257 C 26.8908 2.5394 2.27436 0
M  V30 258 H 28.0838 2.95455 0.514451 0
M  V30 259 H 25.6368 1.54582 0.231089 0
M  V30 260 H 26.3718 1.70171 2.76066 0
M  V30 261 H 26.1568 3.33371 2.06412 0
M  V30 262 H 27.6468 2.93512 2.97053 0
M  V30 263 N 28.0839 -0.256276 1.55502 0
M  V30 264 C 29.0159 -1.33981 1.85962 0
M  V30 265 C 30.0289 -1.44743 0.745212 0
M  V30 266 O 31.2179 -1.4626 1.02324 0
M  V30 267 C 28.3179 -2.7194 2.02242 0
M  V30 268 C 27.4909 -2.83562 3.33033 0
M  V30 269 C 26.5499 -4.02304 3.39172 0
M  V30 270 O 25.5759 -3.92273 4.12444 0
M  V30 271 N 26.7779 -5.15045 2.67784 0
M  V30 272 H 29.5429 -1.08191 2.7949 0
M  V30 273 H 27.1039 -0.446388 1.55624 0
M  V30 274 H 29.0959 -3.49697 2.03701 0
M  V30 275 H 27.6659 -2.90479 1.15502 0
M  V30 276 H 26.8859 -1.92555 3.43971 0
M  V30 277 H 28.1739 -2.88271 4.19258 0
M  V30 278 H 27.5719 -5.26085 2.07968 0
M  V30 279 H 26.1289 -5.90972 2.74947 0
M  V30 280 N 29.562 -1.4872 -0.521534 0
M  V30 281 C 30.525 -1.63379 -1.60748 0
M  V30 282 C 31.525 -0.50661 -1.52611 0
M  V30 283 O 32.715 -0.772601 -1.5613 0
M  V30 284 C 29.847 -1.61192 -3.00383 0
M  V30 285 H 31.04 -2.60217 -1.49087 0
M  V30 286 H 28.593 -1.37444 -0.744235 0
M  V30 287 H 29.328 -0.65863 -3.17541 0
M  V30 288 H 29.113 -2.43032 -3.07698 0
M  V30 289 H 30.603 -1.7466 -3.7932 0
M  V30 290 N 31.0401 0.771051 -1.3745 0
M  V30 291 C 31.9501 1.91538 -1.35464 0
M  V30 292 C 32.9661 1.72134 -0.254123 0
M  V30 293 O 34.1421 1.95358 -0.489626 0
M  V30 294 C 31.2071 3.26671 -1.16134 0
M  V30 295 C 30.2681 3.58723 -2.35831 0
M  V30 296 C 29.5011 4.87409 -2.17413 0
M  V30 297 O 29.7241 5.58506 -1.15876 0
M  V30 298 O 28.6581 5.18539 -3.05615 0
M  V30 299 H 32.4841 1.96165 -2.31847 0
M  V30 300 H 30.0691 0.9139 -1.18187 0
M  V30 301 H 31.9511 4.07499 -1.07345 0
M  V30 302 H 30.6261 3.22894 -0.228251 0
M  V30 303 H 29.5331 2.78127 -2.50192 0
M  V30 304 H 30.8661 3.67243 -3.27709 0
M  V30 305 N 32.5182 1.22032 0.997298 0
M  V30 306 C 33.4812 0.987909 2.06816 0
M  V30 307 C 34.4812 -0.0440084 1.6074 0
M  V30 308 O 35.6712 0.194053 1.73116 0
M  V30 309 C 32.8032 0.49132 3.37341 0
M  V30 310 H 33.9962 1.93803 2.28868 0
M  V30 311 H 31.5492 1.03838 1.16822 0
M  V30 312 H 32.2842 -0.463364 3.20973 0
M  V30 313 H 32.0692 1.23575 3.72118 0
M  V30 314 H 33.5592 0.348824 4.16141 0
M  V30 315 N 33.9963 -1.19345 1.0293 0
M  V30 316 C 35.2423 -1.89318 0.727083 0
M  V30 317 C 35.5753 -1.79446 -0.742483 0
M  V30 318 O 34.8503 -1.1871 -1.54072 0
M  V30 319 C 35.1333 -3.40238 1.17942 0
M  V30 320 C 34.9863 -3.58979 2.71024 0
M  V30 321 C 36.3053 -4.33479 0.760548 0
M  V30 322 H 33.4243 -0.687475 0.265606 0
M  V30 323 H 36.0663 -1.40477 1.2793 0
M  V30 324 H 34.2163 -3.81964 0.709608 0
M  V30 325 H 35.8883 -3.26421 3.25955 0
M  V30 326 H 34.1313 -3.02018 3.11396 0
M  V30 327 H 34.8023 -4.64823 2.9773 0
M  V30 328 H 37.2783 -3.99469 1.16464 0
M  V30 329 H 36.1543 -5.37664 1.10493 0
M  V30 330 H 36.4153 -4.40813 -0.337063 0
M  V30 331 N 35.4744 -0.807222 -1.35358 0
M  V30 332 C 36.8854 -0.44876 -1.81226 0
M  V30 333 C 37.2364 1.02929 -1.67033 0
M  V30 334 O 36.3614 1.79991 -1.20133 0
M  V30 335 C 36.9564 -0.807774 -3.2903 0
M  V30 336 C 35.5154 -0.501901 -3.73039 0
M  V30 337 C 34.6624 -1.03304 -2.57339 0
M  V30 338 H 37.6134 -0.998808 -1.23327 0
M  V30 339 H 37.6344 -0.10554 -3.80354 0
M  V30 340 H 37.1464 -1.88357 -3.39328 0
M  V30 341 H 35.2474 0.565128 -3.68289 0
M  V30 342 H 35.3604 -1.03497 -4.67787 0
M  V30 343 H 33.7244 -0.455339 -2.50597 0
M  V30 344 H 34.5074 -2.11496 -2.70415 0
M  V30 345 N 36.9525 1.47285 -0.560781 0
M  V30 346 C 37.9005 2.31756 0.197942 0
M  V30 347 C 38.8945 1.43146 0.905854 0
M  V30 348 O 40.1005 1.59891 0.826733 0
M  V30 349 H 36.4755 0.747438 0.0827049 0
M  V30 350 H 38.4465 2.9359 -0.533629 0
M  V30 351 C 37.1955 3.25874 1.21249 0
M  V30 352 H 36.5185 3.94023 0.67719 0
M  V30 353 H 37.9585 3.87803 1.71419 0
M  V30 354 C 36.4175 2.49651 2.26221 0
M  V30 355 O 36.9475 2.24355 3.33208 0
M  V30 356 N 35.1535 2.10597 2.00243 0
M  V30 357 H 34.7005 2.31369 1.13252 0
M  V30 358 H 34.6585 1.59913 2.70694 0
M  V30 359 N 38.4306 0.297415 1.54768 0
M  V30 360 C 39.3406 -0.58983 2.27064 0
M  V30 361 C 40.3566 -1.15144 1.30453 0
M  V30 362 O 41.5326 -1.17699 1.63428 0
M  V30 363 C 38.5976 -1.74714 2.9946 0
M  V30 364 C 37.6586 -1.21997 4.11601 0
M  V30 365 C 36.8916 -2.32212 4.80535 0
M  V30 366 O 37.1146 -3.52036 4.48806 0
M  V30 367 O 36.0486 -1.99106 5.68014 0
M  V30 368 H 39.8746 -0.00348199 3.037 0
M  V30 369 H 37.4596 0.0640035 1.49263 0
M  V30 370 H 39.3416 -2.42147 3.44881 0
M  V30 371 H 38.0166 -2.32016 2.25722 0
M  V30 372 H 36.9236 -0.511458 3.70587 0
M  V30 373 H 38.2566 -0.692419 4.87305 0
M  V30 374 N 39.9087 -1.5758 0.0250728 0
M  V30 375 C 41.3197 -1.79476 -0.514323 0
M  V30 376 C 41.6707 -0.934956 -1.72491 0
M  V30 377 O 40.7957 -0.144245 -2.15919 0
M  V30 378 C 41.3907 -3.25503 -0.939842 0
M  V30 379 C 39.9497 -3.48408 -1.42438 0
M  V30 380 C 39.0967 -2.74583 -0.387201 0
M  V30 381 H 42.0477 -1.567 0.25113 0
M  V30 382 H 42.0687 -3.34992 -1.80445 0
M  V30 383 H 41.5807 -3.88056 -0.0585628 0
M  V30 384 H 39.6817 -2.91103 -2.32572 0
M  V30 385 H 39.7947 -4.57119 -1.43455 0
M  V30 386 H 38.1587 -2.39942 -0.854409 0
M  V30 387 H 38.9417 -3.39849 0.485543 0
M  V30 388 N 41.3868 0.248026 -1.55636 0
M  V30 389 C 42.6358 0.974134 -1.76617 0
M  V30 390 C 42.9488 1.86528 -0.588796 0
M  V30 391 O 44.1548 2.62805 -0.681594 0
M  V30 392 C 42.6108 1.78213 -3.12679 0
M  V30 393 C 42.2188 0.93843 -4.38061 0
M  V30 394 C 43.9628 2.50104 -3.42999 0
M  V30 395 C 41.8698 1.74225 -5.65155 0
M  V30 396 H 40.7998 0.36745 -0.658405 0
M  V30 397 H 43.4508 0.22884 -1.82067 0
M  V30 398 H 41.8328 2.56933 -3.01333 0
M  V30 399 H 43.0068 0.193635 -4.60393 0
M  V30 400 H 41.3218 0.332905 -4.15067 0
M  V30 401 H 43.9188 3.10694 -4.3517 0
M  V30 402 H 44.2618 3.21662 -2.64271 0
M  V30 403 H 44.7948 1.78395 -3.55556 0
M  V30 404 H 41.5338 1.07043 -6.46701 0
M  V30 405 H 41.0538 2.46235 -5.46926 0
M  V30 406 H 42.7328 2.30967 -6.0437 0
M  V30 407 N 42.8649 1.48995 0.513639 0
M  V30 408 C 43.8129 1.65199 1.63744 0
M  V30 409 C 44.8069 0.51809 1.61283 0
M  V30 410 O 46.0129 0.697335 1.65943 0
M  V30 411 H 42.3879 0.52069 0.542574 0
M  V30 412 H 44.3589 2.59552 1.47226 0
M  V30 413 C 43.1079 1.72409 3.01945 0
M  V30 414 H 42.4309 2.59029 3.04539 0
M  V30 415 H 43.8709 1.87785 3.80148 0
M  V30 416 C 42.3299 0.46618 3.33659 0
M  V30 417 O 42.8599 -0.413744 3.99564 0
M  V30 418 N 41.0659 0.332931 2.88687 0
M  V30 419 H 40.6129 1.04996 2.35231 0
M  V30 420 H 40.5709 -0.507665 3.10274 0
M  V30 421 N 44.343 -0.763751 1.37857 0
M  V30 422 C 45.589 -1.52396 1.3471 0
M  V30 423 C 45.944 -1.92288 -0.0656435 0
M  V30 424 O 45.237 -1.6181 -1.02606 0
M  V30 425 C 45.431 -2.79499 2.22745 0
M  V30 426 C 45.26 -2.52031 3.72438 0
M  V30 427 C 44.03 -2.45759 4.4151 0
M  V30 428 C 46.228 -2.19489 4.65112 0
M  V30 429 N 44.21 -2.1046 5.76697 0
M  V30 430 C 45.581 -1.94396 5.88736 0
M  V30 431 C 47.636 -2.05712 4.53417 0
M  V30 432 C 46.339 -1.56917 7.01975 0
M  V30 433 C 48.365 -1.69634 5.66549 0
M  V30 434 C 47.727 -1.45407 6.89229 0
M  V30 435 H 43.826 -0.55765 0.548225 0
M  V30 436 H 46.41 -0.890302 1.73152 0
M  V30 437 H 44.581 -3.4069 1.86507 0
M  V30 438 H 46.313 -3.45465 2.10798 0
M  V30 439 H 43.068 -2.61885 3.94605 0
M  V30 440 H 43.492 -1.95484 6.48163 0
M  V30 441 H 48.134 -2.23123 3.59133 0
M  V30 442 H 45.852 -1.38246 7.96187 0
M  V30 443 H 49.438 -1.59621 5.59475 0
M  V30 444 H 48.318 -1.17904 7.75286 0
M  V30 445 N 45.8211 -1.22559 -0.990812 0
M  V30 446 C 47.0691 -1.04933 -1.72724 0
M  V30 447 C 47.3901 0.416158 -1.90508 0
M  V30 448 O 46.6601 1.29918 -1.46622 0
M  V30 449 H 45.2401 -0.385296 -0.639965 0
M  V30 450 H 47.9021 -1.54105 -1.19322 0
M  V30 451 H 46.9981 -1.52886 -2.72089 0
M  V30 452 N 47.2992 1.18797 -1.03562 0
M  V30 453 C 48.5462 1.8865 -0.736023 0
M  V30 454 C 48.8742 1.80041 0.735889 0
M  V30 455 O 48.1292 1.19179 1.55225 0
M  V30 456 C 48.4282 3.38692 -1.14117 0
M  V30 457 C 48.0942 3.67504 -2.6125 0
M  V30 458 C 46.7562 3.75078 -3.01447 0
M  V30 459 C 49.1082 3.80293 -3.56408 0
M  V30 460 C 46.4362 3.92915 -4.35701 0
M  V30 461 C 48.7882 3.99645 -4.90374 0
M  V30 462 C 47.4522 4.05453 -5.30249 0
M  V30 463 H 46.7222 0.690321 -0.26933 0
M  V30 464 H 49.3692 1.40641 -1.29971 0
M  V30 465 H 47.6742 3.88645 -0.496202 0
M  V30 466 H 49.3712 3.91072 -0.886789 0
M  V30 467 H 45.9612 3.62223 -2.29113 0
M  V30 468 H 50.1452 3.73779 -3.26501 0
M  V30 469 H 45.4012 3.95653 -4.66121 0
M  V30 470 H 49.5752 4.08482 -5.64017 0
M  V30 471 H 47.2022 4.19027 -6.34288 0
M  V30 472 N 48.7773 0.814389 1.34928 0
M  V30 473 C 49.7243 0.22822 2.29669 0
M  V30 474 C 50.6943 -0.642164 1.53184 0
M  V30 475 O 51.8793 -0.585605 1.81591 0
M  V30 476 C 49.0193 -0.61089 3.3965 0
M  V30 477 C 48.1323 0.280792 4.31086 0
M  V30 478 C 47.2673 -0.567067 5.28165 0
M  V30 479 C 46.3063 0.324531 6.11239 0
M  V30 480 N 45.4433 -0.483756 7.00431 0
M  V30 481 H 50.2833 1.04153 2.79206 0
M  V30 482 H 47.8203 0.525133 1.37407 0
M  V30 483 H 49.7783 -1.11263 4.0209 0
M  V30 484 H 48.4083 -1.38939 2.91369 0
M  V30 485 H 47.4603 0.900688 3.69583 0
M  V30 486 H 48.7723 0.966723 4.89342 0
M  V30 487 H 47.9263 -1.13363 5.96015 0
M  V30 488 H 46.6653 -1.28654 4.70425 0
M  V30 489 H 45.6703 0.903298 5.42329 0
M  V30 490 H 46.8953 1.04198 6.71059 0
M  V30 491 H 44.8413 -1.18706 6.45171 0
M  V30 492 H 44.7583 0.143965 7.55863 0
M  V30 493 H 46.0263 -1.03334 7.7262 0
M  V30 494 N 50.2554 -1.46986 0.568584 0
M  V30 495 C 51.6714 -1.57946 0.229189 0
M  V30 496 C 51.8714 -1.56567 -1.26843 0
M  V30 497 O 50.9274 -1.47511 -2.04931 0
M  V30 498 C 52.2404 -2.87963 0.865909 0
M  V30 499 C 53.7884 -3.01568 0.838188 0
M  V30 500 C 54.2634 -4.34301 1.45419 0
M  V30 501 N 55.7544 -4.40965 1.41788 0
M  V30 502 C 56.4894 -5.42256 1.86403 0
M  V30 503 N 55.9854 -6.50297 2.38926 0
M  V30 504 N 57.7784 -5.3337 1.77405 0
M  V30 505 H 49.9294 -1.46126 1.54146 0
M  V30 506 H 52.1924 -0.696156 0.643484 0
M  V30 507 H 51.8984 -2.94742 1.91886 0
M  V30 508 H 51.7724 -3.75423 0.365687 0
M  V30 509 H 54.1594 -2.94379 -0.206106 0
M  V30 510 H 54.2404 -2.1562 1.37629 0
M  V30 511 H 53.8844 -4.42247 2.49761 0
M  V30 512 H 53.8144 -5.19 0.891435 0
M  V30 513 H 56.3054 -3.63484 1.03381 0
M  V30 514 H 56.6184 -7.23777 2.70863 0
M  V30 515 H 54.9634 -6.51155 2.42944 0
M  V30 516 H 58.1544 -4.47865 1.3614 0
M  V30 517 H 58.3274 -6.12169 2.12492 0
M  V30 518 N 51.7335 -0.305618 -1.54608 0
M  V30 519 C 52.9585 0.307562 -2.05107 0
M  V30 520 C 53.3835 1.46385 -1.18123 0
M  V30 521 O 52.7415 1.8034 -0.186324 0
M  V30 522 C 52.7895 0.73704 -3.52987 0
M  V30 523 O 51.8935 1.84134 -3.6901 0
M  V30 524 H 51.2345 0.0589143 -0.661381 0
M  V30 525 H 53.7645 -0.448807 -1.99617 0
M  V30 526 H 53.7745 1.02459 -3.94925 0
M  V30 527 H 52.4495 -0.108773 -4.15758 0
M  V30 528 H 51.0265 1.55398 -3.38978 0
M  V30 529 N 53.2116 1.57565 -0.0334293 0
M  V30 530 C 54.4576 1.92262 0.645226 0
M  V30 531 C 54.7906 0.910543 1.71531 0
M  V30 532 O 54.0656 -0.066099 1.94388 0
M  V30 533 C 54.3486 3.37422 1.2577 0
M  V30 534 C 54.2016 4.49369 0.196891 0
M  V30 535 C 55.5206 3.82628 2.17449 0
M  V30 536 H 52.6396 0.699171 0.233085 0
M  V30 537 H 55.2816 1.89779 -0.0915694 0
M  V30 538 H 53.4316 3.39669 1.88566 0
M  V30 539 H 55.1036 4.59254 -0.433962 0
M  V30 540 H 53.3466 4.31168 -0.477137 0
M  V30 541 H 54.0176 5.47978 0.665124 0
M  V30 542 H 56.4936 3.82145 1.64634 0
M  V30 543 H 55.3696 4.84883 2.57254 0
M  V30 544 H 55.6306 3.18376 3.0674 0
M  V30 545 N 54.6897 -0.239769 1.55765 0
M  V30 546 C 55.6377 -1.31668 1.91745 0
M  V30 547 C 56.6317 -1.49462 0.797338 0
M  V30 548 O 57.8377 -1.50852 0.982021 0
M  V30 549 H 54.2127 -0.441048 0.609082 0
M  V30 550 H 56.1837 -0.985923 2.81642 0
M  V30 551 C 54.9327 -2.66368 2.2348 0
M  V30 552 H 54.2557 -2.53478 3.09175 0
M  V30 553 H 55.6957 -3.40578 2.52553 0
M  V30 554 C 54.1547 -3.20002 1.05359 0
M  V30 555 O 54.6847 -4.00538 0.305261 0
M  V30 556 N 52.8907 -2.78126 0.842292 0
M  V30 557 H 52.4377 -2.12742 1.45253 0
M  V30 558 H 52.3957 -3.14354 0.053652 0
M  V30 559 N 56.1678 -1.49265 -0.50573 0
M  V30 560 C 57.1178 -1.6198 -1.60457 0
M  V30 561 C 58.1018 -0.47568 -1.53708 0
M  V30 562 O 59.2938 -0.728392 -1.61318 0
M  V30 563 C 56.4228 -1.68526 -2.99089 0
M  V30 564 C 55.5088 -2.885 -3.10852 0
M  V30 565 N 55.8998 -4.12635 -2.92517 0
M  V30 566 C 54.1978 -2.86338 -3.41945 0
M  V30 567 C 54.8988 -4.93258 -3.08337 0
M  V30 568 N 53.8748 -4.26533 -3.37003 0
M  V30 569 H 57.6768 -2.55681 -1.44928 0
M  V30 570 H 55.1908 -1.45972 -0.711752 0
M  V30 571 H 57.1878 -1.75732 -3.78053 0
M  V30 572 H 55.8478 -0.759584 -3.1569 0
M  V30 573 H 56.8588 -4.42689 -2.68787 0
M  V30 574 H 53.5358 -2.03129 -3.64753 0
M  V30 575 H 54.9258 -6.01856 -2.98695 0
M  V30 576 N 57.6459 0.756429 -1.3826 0
M  V30 577 C 58.5779 1.87971 -1.31147 0
M  V30 578 C 59.5909 1.61248 -0.224239 0
M  V30 579 O 60.7799 1.71881 -0.481581 0
M  V30 580 C 57.8799 3.23545 -1.00857 0
M  V30 581 C 57.0529 3.77794 -2.20432 0
M  V30 582 C 56.1119 4.91877 -1.86931 0
M  V30 583 O 55.1379 5.06659 -2.59395 0
M  V30 584 N 56.3399 5.74643 -0.822568 0
M  V30 585 H 59.1049 1.94585 -2.2794 0
M  V30 586 H 56.6659 0.936234 -1.32084 0
M  V30 587 H 58.6579 3.97403 -0.765021 0
M  V30 588 H 57.2279 3.12335 -0.128687 0
M  V30 589 H 56.4479 2.95534 -2.6087 0
M  V30 590 H 57.7359 4.10771 -3.00241 0
M  V30 591 H 57.1339 5.65266 -0.221575 0
M  V30 592 H 55.6909 6.48661 -0.638899 0
M  V30 593 N 59.124 1.23083 0.984299 0
M  V30 594 C 60.535 1.05609 1.5396 0
M  V30 595 C 60.886 -0.377793 1.92528 0
M  V30 596 O 60.011 -1.26398 1.75649 0
M  V30 597 C 60.606 1.91087 2.7977 0
M  V30 598 C 59.165 1.77885 3.31713 0
M  V30 599 C 58.312 1.87028 2.04733 0
M  V30 600 H 61.263 1.36802 0.804419 0
M  V30 601 H 61.284 1.43336 3.5247 0
M  V30 602 H 60.796 2.9544 2.51668 0
M  V30 603 H 58.897 0.762995 3.64704 0
M  V30 604 H 59.01 2.61047 4.01735 0
M  V30 605 H 57.374 1.30565 2.18689 0
M  V30 606 H 58.157 2.92929 1.79017 0
M  V30 607 N 60.6021 -1.18246 1.0419 0
M  V30 608 C 62.0131 -1.69914 0.773698 0
M  V30 609 C 62.3641 -1.83085 -0.705297 0
M  V30 610 O 61.4891 -1.51123 -1.5489 0
M  V30 611 C 62.0841 -3.08619 1.39784 0
M  V30 612 C 60.6431 -3.57494 1.17792 0
M  V30 613 C 59.7901 -2.34013 1.48773 0
M  V30 614 H 62.7411 -1.02904 1.20816 0
M  V30 615 H 62.7621 -3.71958 0.801714 0
M  V30 616 H 62.2741 -2.99001 2.47426 0
M  V30 617 H 60.3751 -3.72406 0.120295 0
M  V30 618 H 60.4881 -4.40852 1.87581 0
M  V30 619 H 58.8521 -2.37986 0.907463 0
M  V30 620 H 59.6351 -2.27013 2.57527 0
M  V30 621 N 62.0802 -0.821533 -1.34494 0
M  V30 622 C 63.3572 -0.33159 -1.92769 0
M  V30 623 C 63.7372 1.18088 -1.74981 0
M  V30 624 O 63.0852 1.98733 -1.12772 0
M  V30 625 C 63.2952 -0.759398 -3.40638 0
M  V30 626 C 64.6432 -0.757433 -4.1779 0
M  V30 627 O 65.6672 -0.70189 -3.49216 0
M  V30 628 O 64.5262 -0.829361 -5.4017 0
M  V30 629 H 61.6202 -0.0902502 -0.822061 0
M  V30 630 H 64.1662 -0.906231 -1.43477 0
M  V30 631 H 62.9382 -1.8012 -3.47379 0
M  V30 632 H 62.5612 -0.160378 -3.97276 0
M  V30 633 N 63.5583 1.46682 -0.576371 0
M  V30 634 C 64.5213 2.28707 0.150239 0
M  V30 635 C 65.5213 1.38035 0.824794 0
M  V30 636 O 66.7113 1.60476 0.677719 0
M  V30 637 C 63.8433 3.18248 1.22192 0
M  V30 638 H 65.0363 2.94423 -0.570521 0
M  V30 639 H 62.5893 1.52688 -0.334078 0
M  V30 640 H 63.3243 2.57265 1.97447 0
M  V30 641 H 63.1093 3.85 0.742812 0
M  V30 642 H 64.5993 3.80001 1.73172 0
M  V30 643 N 65.0364 0.313813 1.54444 0
M  V30 644 C 66.2844 -0.291099 1.99993 0
M  V30 645 C 66.6054 -1.53418 1.20366 0
M  V30 646 O 65.8754 -1.93544 0.302927 0
M  V30 647 H 64.4554 -0.110552 0.738774 0
M  V30 648 H 67.1174 0.428106 1.9014 0
M  V30 649 H 66.2134 -0.554268 3.07139 0
M  V30 650 N 66.5145 -1.57545 0.0417849 0
M  V30 651 C 67.4615 -2.10977 -0.935805 0
M  V30 652 C 68.4315 -1.01486 -1.31491 0
M  V30 653 O 69.6165 -1.2898 -1.40602 0
M  V30 654 C 66.7565 -2.65169 -2.2086 0
M  V30 655 C 65.8695 -3.88714 -1.88482 0
M  V30 656 C 65.0045 -4.31254 -3.1015 0
M  V30 657 C 64.0435 -5.47524 -2.7365 0
M  V30 658 N 63.1805 -5.85162 -3.87982 0
M  V30 659 H 68.0205 -2.94218 -0.473249 0
M  V30 660 H 65.5575 -1.45415 -0.221981 0
M  V30 661 H 67.5155 -2.94685 -2.95325 0
M  V30 662 H 66.1455 -1.8474 -2.64709 0
M  V30 663 H 65.1975 -3.65849 -1.04205 0
M  V30 664 H 66.5095 -4.73245 -1.57608 0
M  V30 665 H 65.6635 -4.62273 -3.92923 0
M  V30 666 H 64.4025 -3.45516 -3.44195 0
M  V30 667 H 63.4075 -5.16187 -1.89291 0
M  V30 668 H 64.6325 -6.34971 -2.40807 0
M  V30 669 H 62.5785 -5.02377 -4.21846 0
M  V30 670 H 62.4955 -6.64362 -3.60775 0
M  V30 671 H 63.7635 -6.20791 -4.71422 0
M  V30 672 N 67.9926 0.231505 -1.5589 0
M  V30 673 C 68.9246 1.31006 -1.8807 0
M  V30 674 C 69.9376 1.43539 -0.768145 0
M  V30 675 O 71.1266 1.44614 -1.04638 0
M  V30 676 C 68.2266 2.68688 -2.06543 0
M  V30 677 C 67.3996 2.78228 -3.37502 0
M  V30 678 C 66.4586 3.96857 -3.4553 0
M  V30 679 O 65.4846 3.85662 -4.18633 0
M  V30 680 N 66.6866 5.1072 -2.75944 0
M  V30 681 H 69.4516 1.03731 -2.81176 0
M  V30 682 H 67.0126 0.421573 -1.56315 0
M  V30 683 H 69.0046 3.46412 -2.09239 0
M  V30 684 H 67.5746 2.88605 -1.20109 0
M  V30 685 H 66.7946 1.87059 -3.46991 0
M  V30 686 H 68.0826 2.81564 -4.23791 0
M  V30 687 H 67.4806 5.2271 -2.16311 0
M  V30 688 H 66.0376 5.86523 -2.84314 0
M  V30 689 N 69.4707 1.49531 0.497807 0
M  V30 690 C 70.4007 1.6935 1.60757 0
M  V30 691 C 71.3817 0.542218 1.61227 0
M  V30 692 O 72.5667 0.778417 1.77917 0
M  V30 693 C 69.6967 1.76298 2.99226 0
M  V30 694 C 68.6507 2.91248 3.13622 0
M  V30 695 C 67.9767 2.83312 4.53474 0
M  V30 696 C 69.2767 4.3214 2.93346 0
M  V30 697 H 70.9707 2.62263 1.44425 0
M  V30 698 H 68.5167 1.26208 0.693367 0
M  V30 699 H 70.4697 1.88749 3.76765 0
M  V30 700 H 69.1937 0.799871 3.16654 0
M  V30 701 H 67.8527 2.78404 2.38509 0
M  V30 702 H 67.5007 1.84902 4.67782 0
M  V30 703 H 67.2007 3.60465 4.64046 0
M  V30 704 H 68.7247 2.97775 5.33069 0
M  V30 705 H 70.1387 4.45649 3.60652 0
M  V30 706 H 68.5357 5.1054 3.15387 0
M  V30 707 H 69.6057 4.46363 1.89441 0
M  V30 708 N 70.9488 -0.749086 1.3866 0
M  V30 709 C 71.8968 -1.88428 1.36373 0
M  V30 710 C 72.8908 -1.67561 0.248929 0
M  V30 711 O 74.0968 -1.75074 0.41821 0
M  V30 712 H 70.4718 -0.620023 0.42553 0
M  V30 713 H 72.4428 -1.87473 2.32156 0
M  V30 714 C 71.1918 -3.25961 1.21014 0
M  V30 715 H 70.5148 -3.42607 2.06059 0
M  V30 716 H 71.9548 -4.05625 1.23469 0
M  V30 717 C 70.4138 -3.36799 -0.0825941 0
M  V30 718 O 70.9438 -3.87517 -1.05797 0
M  V30 719 N 69.1498 -2.90258 -0.140939 0
M  V30 720 H 68.6968 -2.49174 0.653477 0
M  V30 721 H 68.6548 -2.97889 -1.00545 0
M  V30 722 N 72.4269 -1.23603 -0.977757 0
M  V30 723 C 73.6519 -1.09735 -1.75991 0
M  V30 724 C 74.0769 0.346858 -1.84874 0
M  V30 725 O 73.4349 1.25093 -1.3123 0
M  V30 726 C 73.4829 -1.73051 -3.16363 0
M  V30 727 O 72.5869 -0.994452 -4.0023 0
M  V30 728 H 71.9279 -0.384476 -0.541364 0
M  V30 729 H 74.4579 -1.6371 -1.2272 0
M  V30 730 H 74.4679 -1.78398 -3.66931 0
M  V30 731 H 73.1429 -2.78137 -3.09213 0
M  V30 732 H 71.7199 -1.01812 -3.58732 0
M  V30 733 N 73.905 1.17692 -1.04816 0
M  V30 734 C 74.835 2.23777 -0.666791 0
M  V30 735 C 75.816 1.66796 0.33361 0
M  V30 736 O 77.001 1.93039 0.212042 0
M  V30 737 C 74.131 3.47281 -0.0367933 0
M  V30 738 C 73.085 4.17059 -0.961546 0
M  V30 739 C 72.411 5.34342 -0.195626 0
M  V30 740 C 73.711 4.69713 -2.28402 0
M  V30 741 H 75.405 2.55933 -1.55367 0
M  V30 742 H 72.951 1.23019 -0.748484 0
M  V30 743 H 74.904 4.20706 0.241775 0
M  V30 744 H 73.628 3.14381 0.885004 0
M  V30 745 H 72.287 3.45541 -1.22462 0
M  V30 746 H 71.935 4.97692 0.728816 0
M  V30 747 H 71.635 5.81966 -0.811775 0
M  V30 748 H 73.159 6.10553 0.0757473 0
M  V30 749 H 74.573 5.34794 -2.06563 0
M  V30 750 H 72.97 5.279 -2.8538 0
M  V30 751 H 74.04 3.86726 -2.92525 0
M  V30 752 N 75.3831 0.828654 1.34056 0
M  V30 753 C 76.6321 0.415828 1.97367 0
M  V30 754 C 76.9451 -1.02796 1.6641 0
M  V30 755 O 78.1511 -1.54497 2.23255 0
M  V30 756 C 76.6071 0.692601 3.53173 0
M  V30 757 C 76.2151 2.15038 3.93017 0
M  V30 758 C 77.9591 0.346222 4.23086 0
M  V30 759 C 75.8661 2.37174 5.41758 0
M  V30 760 H 74.7961 0.151755 0.738571 0
M  V30 761 H 77.4471 1.01581 1.52819 0
M  V30 762 H 75.8291 0.0223764 3.95994 0
M  V30 763 H 77.0031 2.86024 3.61285 0
M  V30 764 H 75.3181 2.45875 3.36057 0
M  V30 765 H 77.9151 0.48937 5.32456 0
M  V30 766 H 78.2581 -0.709842 4.10204 0
M  V30 767 H 78.7911 0.971258 3.85761 0
M  V30 768 H 75.5301 3.41308 5.59633 0
M  V30 769 H 75.0501 1.70738 5.74986 0
M  V30 770 H 76.7291 2.19818 6.08514 0
M  V30 771 N 76.8612 -1.46375 0.584142 0
M  V30 772 C 77.7712 -2.34115 -0.150728 0
M  V30 773 C 78.7872 -1.49838 -0.884567 0
M  V30 774 O 79.9632 -1.82704 -0.847429 0
M  V30 775 C 77.0282 -3.2705 -1.15062 0
M  V30 776 C 76.0892 -4.27228 -0.421293 0
M  V30 777 C 75.3222 -5.15722 -1.37355 0
M  V30 778 O 75.5452 -5.07176 -2.61014 0
M  V30 779 O 74.4792 -5.95383 -0.883355 0
M  V30 780 H 78.3052 -2.98309 0.569708 0
M  V30 781 H 75.8902 -1.45373 0.344535 0
M  V30 782 H 77.7722 -3.84381 -1.72712 0
M  V30 783 H 76.4472 -2.65451 -1.8525 0
M  V30 784 H 75.3542 -3.7358 0.197085 0
M  V30 785 H 76.6872 -4.91616 0.239641 0
M  V30 786 N 78.3393 -0.321999 -1.54275 0
M  V30 787 C 79.2863 0.544664 -2.24281 0
M  V30 788 C 80.2563 1.1129 -1.23303 0
M  V30 789 O 81.4413 1.15354 -1.51981 0
M  V30 790 C 78.5813 1.70045 -3.00298 0
M  V30 791 C 77.6943 1.16159 -4.1609 0
M  V30 792 C 76.8293 2.28293 -4.79641 0
M  V30 793 C 75.8683 1.71648 -5.8754 0
M  V30 794 N 75.0053 2.77438 -6.44959 0
M  V30 795 H 79.8453 -0.0588907 -2.97942 0
M  V30 796 H 77.3823 -0.0408345 -1.47043 0
M  V30 797 H 79.3403 2.38054 -3.42616 0
M  V30 798 H 77.9703 2.27531 -2.28975 0
M  V30 799 H 77.0223 0.373092 -3.78566 0
M  V30 800 H 78.3343 0.707087 -4.93763 0
M  V30 801 H 77.4883 3.0421 -5.2492 0
M  V30 802 H 76.2273 2.77079 -4.01346 0
M  V30 803 H 75.2323 0.942282 -5.41665 0
M  V30 804 H 76.4573 1.23741 -6.67731 0
M  V30 805 H 74.4033 3.25519 -5.69538 0
M  V30 806 H 74.3203 2.36547 -7.1804 0
M  V30 807 H 75.5883 3.53189 -6.94894 0
M  V30 808 N 79.8174 1.5752 -0.0501392 0
M  V30 809 C 81.0474 1.96678 0.632573 0
M  V30 810 C 81.4554 0.926298 1.64974 0
M  V30 811 O 80.7984 -0.09802 1.83438 0
M  V30 812 C 80.8604 3.32068 1.37735 0
M  V30 813 C 80.5244 4.54076 0.516131 0
M  V30 814 C 81.5214 5.19445 -0.217357 0
M  V30 815 C 79.2064 5.00304 0.44736 0
M  V30 816 C 81.2004 6.29378 -1.00807 0
M  V30 817 C 78.8874 6.10114 -0.347038 0
M  V30 818 C 79.8854 6.74512 -1.07344 0
M  V30 819 O 79.5734 7.82211 -1.85477 0
M  V30 820 H 79.3054 0.652193 0.177821 0
M  V30 821 H 81.8594 2.05091 -0.112543 0
M  V30 822 H 80.0894 3.20206 2.16807 0
M  V30 823 H 81.7784 3.55981 1.95019 0
M  V30 824 H 82.5444 4.84689 -0.173688 0
M  V30 825 H 78.4234 4.49971 1.00235 0
M  V30 826 H 81.9674 6.79575 -1.57556 0
M  V30 827 H 77.8644 6.44307 -0.392349 0
M  V30 828 H 78.6324 7.98982 -1.77678 0
M  V30 829 N 81.2955 -0.223234 1.56011 0
M  V30 830 C 82.5725 -0.972108 1.69733 0
M  V30 831 C 82.9525 -2.02485 0.59691 0
M  V30 832 O 82.3005 -2.25037 -0.396324 0
M  V30 833 C 82.5105 -1.58407 3.10979 0
M  V30 834 C 83.8585 -2.07696 3.70334 0
M  V30 835 O 84.8825 -1.68304 3.1393 0
M  V30 836 O 83.7415 -2.80096 4.69264 0
M  V30 837 H 80.8355 -0.453993 0.691245 0
M  V30 838 H 83.3815 -0.215149 1.68331 0
M  V30 839 H 82.1535 -0.823831 3.82529 0
M  V30 840 H 81.7765 -2.40661 3.16493 0
M  V30 841 N 82.7736 -1.49793 -0.48987 0
M  V30 842 C 83.7366 -1.66752 -1.57246 0
M  V30 843 C 84.7366 -0.538867 -1.51502 0
M  V30 844 O 85.9266 -0.805545 -1.54456 0
M  V30 845 C 83.0586 -1.67528 -2.96896 0
M  V30 846 H 84.2516 -2.63321 -1.43534 0
M  V30 847 H 81.8046 -1.38992 -0.714914 0
M  V30 848 H 82.5396 -0.725837 -3.16073 0
M  V30 849 H 82.3246 -2.49504 -3.02473 0
M  V30 850 H 83.8146 -1.82667 -3.7553 0
M  V30 851 N 84.2517 0.741722 -1.39055 0
M  V30 852 C 85.4987 1.50114 -1.35912 0
M  V30 853 C 85.8267 1.94443 0.0470937 0
M  V30 854 O 85.0817 1.66612 1.02659 0
M  V30 855 C 85.3807 2.7592 -2.27163 0
M  V30 856 C 85.0467 2.50493 -3.74919 0
M  V30 857 C 83.7087 2.43267 -4.1518 0
M  V30 858 C 86.0607 2.28585 -4.684 0
M  V30 859 C 83.3887 2.12166 -5.46994 0
M  V30 860 C 85.7407 1.99002 -6.00484 0
M  V30 861 C 84.4047 1.90241 -6.39816 0
M  V30 862 H 83.6747 0.549306 -0.497336 0
M  V30 863 H 86.3217 0.851896 -1.71508 0
M  V30 864 H 84.6267 3.45553 -1.84663 0
M  V30 865 H 86.3237 3.33923 -2.22028 0
M  V30 866 H 82.9137 2.56992 -3.43006 0
M  V30 867 H 87.0977 2.33139 -4.38132 0
M  V30 868 H 82.3537 2.03901 -5.76398 0
M  V30 869 H 86.5277 1.81057 -6.72452 0
M  V30 870 H 84.1547 1.65907 -7.41875 0
M  V30 871 N 85.7298 1.2412 0.971189 0
M  V30 872 C 86.9598 1.10415 1.7462 0
M  V30 873 C 87.3678 -0.346462 1.86001 0
M  V30 874 O 86.7108 -1.25104 1.34517 0
M  V30 875 C 86.7728 1.66596 3.18568 0
M  V30 876 C 86.4368 3.15446 3.3067 0
M  V30 877 C 87.4338 4.12636 3.16271 0
M  V30 878 C 85.1188 3.55337 3.55022 0
M  V30 879 C 87.1128 5.47699 3.26044 0
M  V30 880 C 84.7998 4.90542 3.64434 0
M  V30 881 C 85.7978 5.86532 3.49956 0
M  V30 882 O 85.4858 7.19279 3.59017 0
M  V30 883 H 85.2178 0.386616 0.55453 0
M  V30 884 H 87.7718 1.64633 1.22821 0
M  V30 885 H 86.0018 1.06808 3.71657 0
M  V30 886 H 87.6908 1.48232 3.77865 0
M  V30 887 H 88.4568 3.8316 2.97344 0
M  V30 888 H 84.3358 2.8113 3.65359 0
M  V30 889 H 87.8798 6.22603 3.14661 0
M  V30 890 H 83.7768 5.19691 3.82873 0
M  V30 891 H 84.5448 7.27153 3.75754 0
M  V30 892 N 87.2079 -1.17134 1.05439 0
M  V30 893 C 88.1379 -2.2342 0.678649 0
M  V30 894 C 89.1189 -1.66971 -0.32476 0
M  V30 895 O 90.3039 -1.93149 -0.201802 0
M  V30 896 C 87.4339 -3.47256 0.0552099 0
M  V30 897 C 86.3879 -4.16543 0.98365 0
M  V30 898 C 85.7139 -5.34231 0.223961 0
M  V30 899 C 87.0139 -4.68495 2.3089 0
M  V30 900 H 88.7079 -2.55105 1.56722 0
M  V30 901 H 86.2539 -1.2262 0.754998 0
M  V30 902 H 88.2069 -4.20828 -0.21946 0
M  V30 903 H 86.9309 -3.14846 -0.868319 0
M  V30 904 H 85.5899 -3.44887 1.24293 0
M  V30 905 H 85.2379 -4.98071 -0.702412 0
M  V30 906 H 84.9379 -5.81527 0.842627 0
M  V30 907 H 86.4619 -6.10585 -0.0433671 0
M  V30 908 H 87.8759 -5.33691 2.09396 0
M  V30 909 H 86.2729 -5.26379 2.88176 0
M  V30 910 H 87.3429 -3.85169 2.94572 0
M  V30 911 N 88.686 -0.835752 -1.33615 0
M  V30 912 C 89.934 -0.429109 -1.97492 0
M  V30 913 C 90.255 1.01433 -1.66543 0
M  V30 914 O 89.525 1.70611 -0.962744 0
M  V30 915 H 88.105 -0.155686 -0.730596 0
M  V30 916 H 90.767 -1.06802 -1.63031 0
M  V30 917 H 89.863 -0.55861 -3.0706 0
M  V30 918 N 90.1641 1.46063 -0.591896 0
M  V30 919 C 91.1121 2.32124 0.148739 0
M  V30 920 C 92.1061 1.45035 0.875286 0
M  V30 921 O 93.3121 1.61609 0.792632 0
M  V30 922 H 89.6871 0.749024 0.066832 0
M  V30 923 H 91.6581 2.92392 -0.595783 0
M  V30 924 C 90.4071 3.28373 1.1431 0
M  V30 925 H 89.7301 3.95371 0.59346 0
M  V30 926 H 91.1701 3.91352 1.63155 0
M  V30 927 C 89.6291 2.54393 2.20875 0
M  V30 928 O 90.1591 2.31373 3.28374 0
M  V30 929 N 88.3651 2.14797 1.95731 0
M  V30 930 H 87.9121 2.33719 1.08319 0
M  V30 931 H 87.8701 1.65619 2.67241 0
M  V30 932 N 91.6422 0.330177 1.54103 0
M  V30 933 C 92.8702 -0.272179 2.05102 0
M  V30 934 C 93.2852 -1.45267 1.20595 0
M  V30 935 O 92.6422 -1.8094 0.238144 0
M  V30 936 C 92.6932 -0.70023 3.54653 0
M  V30 937 O 92.4142 0.433301 4.35952 0
M  V30 938 C 93.9152 -1.3647 4.21771 0
M  V30 939 H 91.1352 -0.0549159 0.668749 0
M  V30 940 H 93.6792 0.478285 1.98828 0
M  V30 941 H 91.8342 -1.40066 3.61193 0
M  V30 942 H 92.2482 0.0947539 5.24414 0
M  V30 943 H 93.7222 -1.61509 5.27843 0
M  V30 944 H 94.1992 -2.31409 3.73292 0
M  V30 945 H 94.8052 -0.706675 4.19388 0
M  V30 946 N 93.1203 -1.57491 0.0584922 0
M  V30 947 C 94.0673 -2.11958 -0.913376 0
M  V30 948 C 95.0373 -1.02875 -1.30407 0
M  V30 949 O 96.2223 -1.30464 -1.39226 0
M  V30 950 C 93.3623 -2.67497 -2.18035 0
M  V30 951 C 92.4753 -3.90691 -1.84349 0
M  V30 952 C 91.6103 -4.3452 -3.05559 0
M  V30 953 C 90.6493 -5.50395 -2.67827 0
M  V30 954 N 89.7863 -5.89244 -3.81754 0
M  V30 955 H 94.6263 -2.94704 -0.442017 0
M  V30 956 H 92.1633 -1.45643 -0.206545 0
M  V30 957 H 94.1213 -2.978 -2.92183 0
M  V30 958 H 92.7513 -1.87537 -2.62735 0
M  V30 959 H 91.8033 -3.66934 -1.00319 0
M  V30 960 H 93.1153 -4.7489 -1.5258 0
M  V30 961 H 92.2693 -4.66414 -3.87998 0
M  V30 962 H 91.0083 -3.49147 -3.40511 0
M  V30 963 H 90.0133 -5.18165 -1.83806 0
M  V30 964 H 91.2383 -6.3749 -2.34059 0
M  V30 965 H 89.1843 -5.06823 -4.16493 0
M  V30 966 H 89.1013 -6.68151 -3.53708 0
M  V30 967 H 90.3693 -6.25756 -4.64811 0
M  V30 968 N 94.5984 0.214957 -1.56127 0
M  V30 969 C 95.5084 1.28727 -1.96129 0
M  V30 970 C 96.5244 1.50916 -0.866044 0
M  V30 971 O 97.7004 1.63918 -1.17016 0
M  V30 972 C 94.7654 2.61569 -2.27558 0
M  V30 973 C 93.8264 2.47625 -3.50685 0
M  V30 974 C 93.0594 3.74132 -3.80606 0
M  V30 975 O 93.2824 4.77438 -3.12104 0
M  V30 976 O 92.2164 3.70849 -4.74083 0
M  V30 977 H 96.0424 0.977855 -2.87527 0
M  V30 978 H 93.6274 0.418358 -1.43423 0
M  V30 979 H 95.5094 3.40012 -2.48938 0
M  V30 980 H 94.1844 2.92178 -1.39332 0
M  V30 981 H 93.0914 1.67361 -3.34576 0
M  V30 982 H 94.4244 2.21954 -4.39315 0
M  V30 983 N 96.0765 1.50051 0.48192 0
M  V30 984 C 97.0235 1.68122 1.58125 0
M  V30 985 C 97.9935 0.522545 1.57666 0
M  V30 986 O 99.1785 0.751844 1.75362 0
M  V30 987 C 96.3185 1.77142 2.96167 0
M  V30 988 C 95.4315 3.0444 3.06497 0
M  V30 989 C 94.5665 3.04321 4.35387 0
M  V30 990 C 93.6055 4.26118 4.3942 0
M  V30 991 N 92.7425 4.238 5.59766 0
M  V30 992 H 97.5825 2.6198 1.42022 0
M  V30 993 H 95.1195 1.29877 0.690687 0
M  V30 994 H 97.0775 1.80352 3.76203 0
M  V30 995 H 95.7075 0.867329 3.1093 0
M  V30 996 H 94.7595 3.10752 2.19402 0
M  V30 997 H 96.0715 3.94426 3.05336 0
M  V30 998 H 95.2255 3.062 5.23762 0
M  V30 999 H 93.9645 2.12147 4.39141 0
M  V30 1000 H 92.9695 4.24463 3.49444 0
M  V30 1001 H 94.1945 5.19507 4.37366 0
M  V30 1002 H 92.1405 3.34474 5.64326 0
M  V30 1003 H 92.0575 5.07542 5.60301 0
M  V30 1004 H 93.3255 4.2981 6.50295 0
M  V30 1005 N 97.5546 -0.734337 1.39446 0
M  V30 1006 C 98.7826 -1.52358 1.39981 0
M  V30 1007 C 99.1976 -1.88799 -0.0054975 0
M  V30 1008 O 98.5546 -1.54146 -0.976998 0
M  V30 1009 C 98.6056 -2.81072 2.27333 0
M  V30 1010 O 98.3266 -2.46178 3.62392 0
M  V30 1011 C 99.8276 -3.75096 2.36259 0
M  V30 1012 H 97.0476 -0.470806 0.478103 0
M  V30 1013 H 99.5916 -0.907339 1.83269 0
M  V30 1014 H 97.7466 -3.39026 1.87457 0
M  V30 1015 H 98.1606 -3.28866 4.08592 0
M  V30 1016 H 99.6346 -4.62305 3.01626 0
M  V30 1017 H 100.112 -4.16892 1.38194 0
M  V30 1018 H 100.718 -3.23061 2.76608 0
M  V30 1019 N 99.0327 -1.24633 -0.964593 0
M  V30 1020 C 100.282 -1.08188 -1.7023 0
M  V30 1021 C 100.595 0.37873 -1.91898 0
M  V30 1022 O 101.801 0.663427 -2.6327 0
M  V30 1023 C 100.257 -1.88773 -3.06419 0
M  V30 1024 C 99.8647 -3.39263 -2.92582 0
M  V30 1025 C 101.609 -1.80867 -3.84041 0
M  V30 1026 C 99.5157 -4.1218 -4.24101 0
M  V30 1027 H 98.4457 -0.401245 -0.638372 0
M  V30 1028 H 101.097 -1.48742 -1.07462 0
M  V30 1029 H 99.4787 -1.41035 -3.70034 0
M  V30 1030 H 100.653 -3.94603 -2.37961 0
M  V30 1031 H 98.9677 -3.48154 -2.28424 0
M  V30 1032 H 101.565 -2.32646 -4.81435 0
M  V30 1033 H 101.908 -0.774543 -4.09031 0
M  V30 1034 H 102.441 -2.26301 -3.27159 0
M  V30 1035 H 99.1797 -5.15965 -4.04303 0
M  V30 1036 H 98.6997 -3.61626 -4.78526 0
M  V30 1037 H 100.379 -4.19349 -4.92702 0
M  V30 1038 N 100.511 1.16574 -1.06058 0
M  V30 1039 C 101.741 1.90675 -0.795397 0
M  V30 1040 C 102.149 1.77547 0.653735 0
M  V30 1041 O 101.492 1.11611 1.45907 0
M  V30 1042 C 101.554 3.42011 -1.10764 0
M  V30 1043 C 101.218 3.78924 -2.55471 0
M  V30 1044 C 102.215 3.81042 -3.53699 0
M  V30 1045 C 99.8998 4.09626 -2.90708 0
M  V30 1046 C 101.894 4.13346 -4.85205 0
M  V30 1047 C 99.5808 4.41597 -4.22416 0
M  V30 1048 C 100.579 4.43436 -5.19474 0
M  V30 1049 O 100.267 4.74649 -6.48817 0
M  V30 1050 H 99.9988 0.611554 -0.288058 0
M  V30 1051 H 102.553 1.48711 -1.41683 0
M  V30 1052 H 100.783 3.84312 -0.429128 0
M  V30 1053 H 102.472 3.97384 -0.827077 0
M  V30 1054 H 103.238 3.57437 -3.27817 0
M  V30 1055 H 99.1168 4.07361 -2.15819 0
M  V30 1056 H 102.661 4.14696 -5.60957 0
M  V30 1057 H 98.5578 4.64667 -4.48056 0
M  V30 1058 H 99.3258 4.9247 -6.5377 0
M  V30 1059 N 101.989 0.842826 1.3317 0
M  V30 1060 C 102.919 0.294028 2.31641 0
M  V30 1061 C 103.9 -0.600401 1.59151 0
M  V30 1062 O 105.085 -0.523124 1.87022 0
M  V30 1063 C 102.215 -0.528416 3.43257 0
M  V30 1064 C 101.169 0.27056 4.27144 0
M  V30 1065 C 100.495 -0.675881 5.30411 0
M  V30 1066 C 101.795 1.48981 5.00602 0
M  V30 1067 H 103.489 1.11681 2.77791 0
M  V30 1068 H 101.035 0.538478 1.33553 0
M  V30 1069 H 102.988 -0.922674 4.11175 0
M  V30 1070 H 101.712 -1.38445 2.95805 0
M  V30 1071 H 100.371 0.646427 3.60856 0
M  V30 1072 H 100.019 -1.52842 4.79216 0
M  V30 1073 H 99.7189 -0.145374 5.8742 0
M  V30 1074 H 101.243 -1.06757 6.01195 0
M  V30 1075 H 102.657 1.16849 5.61266 0
M  V30 1076 H 101.054 1.95739 5.6728 0
M  V30 1077 H 102.124 2.25746 4.29147 0
M  V30 1078 N 103.467 -1.45747 0.599634 0
M  V30 1079 C 104.695 -2.06668 0.0978551 0
M  V30 1080 C 105.11 -1.44562 -1.21439 0
M  V30 1081 O 104.467 -0.556923 -1.73795 0
M  V30 1082 C 104.518 -3.61456 -0.0567044 0
M  V30 1083 O 104.239 -4.21242 1.20361 0
M  V30 1084 C 105.74 -4.39345 -0.590869 0
M  V30 1085 H 102.96 -0.667825 0.0651943 0
M  V30 1086 H 105.504 -1.87115 0.82511 0
M  V30 1087 H 103.659 -3.80378 -0.734251 0
M  V30 1088 H 104.073 -5.14323 1.02821 0
M  V30 1089 H 105.547 -5.48182 -0.648131 0
M  V30 1090 H 106.024 -4.08568 -1.61147 0
M  V30 1091 H 106.63 -4.25268 0.0523679 0
M  V30 1092 N 104.945 -0.338344 -1.53925 0
M  V30 1093 C 106.192 0.259758 -2.00827 0
M  V30 1094 C 106.52 1.50973 -1.22628 0
M  V30 1095 O 105.775 1.93379 -0.300509 0
M  V30 1096 C 106.074 0.62448 -3.51902 0
M  V30 1097 C 105.74 -0.528006 -4.47798 0
M  V30 1098 C 104.402 -0.844298 -4.73735 0
M  V30 1099 C 106.754 -1.30143 -5.0469 0
M  V30 1100 C 104.082 -1.93648 -5.53821 0
M  V30 1101 C 106.434 -2.38382 -5.85967 0
M  V30 1102 C 105.098 -2.70576 -6.10201 0
M  V30 1103 H 104.368 0.0950523 -0.734878 0
M  V30 1104 H 107.015 -0.465182 -1.85764 0
M  V30 1105 H 105.32 1.43006 -3.64769 0
M  V30 1106 H 107.017 1.09905 -3.85645 0
M  V30 1107 H 103.607 -0.271421 -4.2774 0
M  V30 1108 H 107.791 -1.07033 -4.84621 0
M  V30 1109 H 103.047 -2.19021 -5.70824 0
M  V30 1110 H 107.221 -2.98746 -6.29066 0
M  V30 1111 H 104.848 -3.55333 -6.72044 0
M  V30 1112 N 106.423 1.57458 -0.0668435 0
M  V30 1113 C 107.7 1.8469 0.644132 0
M  V30 1114 C 108.08 0.958343 1.88093 0
M  V30 1115 O 107.428 0.0233579 2.28488 0
M  V30 1116 C 107.638 3.34767 0.986509 0
M  V30 1117 C 108.986 4.02159 1.36212 0
M  V30 1118 O 110.01 3.39484 1.07839 0
M  V30 1119 O 108.869 5.12694 1.89227 0
M  V30 1120 H 105.963 0.762816 0.319437 0
M  V30 1121 H 108.509 1.6942 -0.0973986 0
M  V30 1122 H 107.281 3.91151 0.107883 0
M  V30 1123 H 106.904 3.55281 1.78497 0
M  V30 1124 N 107.901 -0.206675 1.56239 0
M  V30 1125 C 108.849 -1.27571 1.94495 0
M  V30 1126 C 109.843 -1.47737 0.828862 0
M  V30 1127 O 111.049 -1.48735 1.0138 0
M  V30 1128 H 107.424 -0.428029 0.6183 0
M  V30 1129 H 109.395 -0.925961 2.8367 0
M  V30 1130 C 108.144 -2.61568 2.29079 0
M  V30 1131 H 107.467 -2.46863 3.14482 0
M  V30 1132 H 108.907 -3.35144 2.5972 0
M  V30 1133 C 107.366 -3.17695 1.12123 0
M  V30 1134 O 107.896 -3.99801 0.390153 0
M  V30 1135 N 106.102 -2.76276 0.901097 0
M  V30 1136 H 105.649 -2.09613 1.49733 0
M  V30 1137 H 105.607 -3.1417 0.120319 0
M  V30 1138 N 109.379 -1.50304 -0.473955 0
M  V30 1139 C 110.627 -1.60832 -1.22382 0
M  V30 1140 C 110.948 -0.30939 -1.9253 0
M  V30 1141 O 110.218 0.67296 -1.83978 0
M  V30 1142 H 108.798 -0.592652 -0.454723 0
M  V30 1143 H 111.46 -1.87068 -0.546968 0
M  V30 1144 H 110.556 -2.41803 -1.97327 0
M  V30 1145 N 110.857 0.726932 -1.39834 0
M  V30 1146 C 112.087 1.51393 -1.40583 0
M  V30 1147 C 112.495 1.892 -0.000740625 0
M  V30 1148 O 111.838 1.55189 0.982951 0
M  V30 1149 C 111.9 2.82588 -2.22226 0
M  V30 1150 C 111.564 2.67169 -3.70769 0
M  V30 1151 C 112.561 2.3518 -4.63666 0
M  V30 1152 C 110.246 2.83788 -4.14451 0
M  V30 1153 C 112.24 2.20002 -5.98229 0
M  V30 1154 C 109.927 2.68229 -5.49087 0
M  V30 1155 C 110.925 2.36382 -6.4079 0
M  V30 1156 O 110.613 2.2093 -7.72946 0
M  V30 1157 H 110.345 0.474168 -0.48181 0
M  V30 1158 H 112.899 0.905247 -1.84376 0
M  V30 1159 H 111.129 3.45746 -1.73195 0
M  V30 1160 H 112.818 3.44247 -2.15055 0
M  V30 1161 H 113.584 2.21984 -4.31217 0
M  V30 1162 H 109.463 3.07566 -3.43401 0
M  V30 1163 H 113.007 1.95067 -6.69772 0
M  V30 1164 H 108.904 2.81006 -5.81125 0
M  V30 1165 H 109.672 2.35937 -7.83757 0
M  V30 1166 N 112.336 1.25143 0.95797 0
M  V30 1167 C 113.246 1.06968 2.08794 0
M  V30 1168 C 114.262 0.00773911 1.73998 0
M  V30 1169 O 115.438 0.207972 2.00323 0
M  V30 1170 C 112.503 0.68691 3.39827 0
M  V30 1171 C 111.564 1.82641 3.88511 0
M  V30 1172 C 110.797 1.46181 5.1329 0
M  V30 1173 O 111.02 0.355971 5.69288 0
M  V30 1174 O 109.954 2.29085 5.566 0
M  V30 1175 H 113.78 2.01723 2.27027 0
M  V30 1176 H 111.365 1.04051 1.07209 0
M  V30 1177 H 113.247 0.485417 4.18595 0
M  V30 1178 H 111.922 -0.231417 3.22872 0
M  V30 1179 H 110.829 2.08274 3.10762 0
M  V30 1180 H 112.162 2.72386 4.09959 0
M  V30 1181 N 113.814 -1.1601 1.06675 0
M  V30 1182 C 114.762 -2.22586 0.675157 0
M  V30 1183 C 115.756 -1.66525 -0.310766 0
M  V30 1184 O 116.962 -1.79145 -0.175215 0
M  V30 1185 H 113.337 -0.724855 0.200223 0
M  V30 1186 H 115.308 -2.52899 1.58381 0
M  V30 1187 C 114.057 -3.47604 0.0817162 0
M  V30 1188 H 113.38 -3.91058 0.831484 0
M  V30 1189 H 114.82 -4.23718 -0.154708 0
M  V30 1190 C 113.279 -3.15718 -1.17576 0
M  V30 1191 O 113.809 -3.31878 -2.26318 0
M  V30 1192 N 112.015 -2.69816 -1.07923 0
M  V30 1193 H 111.562 -2.56866 -0.194293 0
M  V30 1194 H 111.52 -2.48855 -1.92141 0
M  V30 1195 N 115.292 -0.849877 -1.32721 0
M  V30 1196 C 116.54 -0.450032 -1.97026 0
M  V30 1197 C 116.861 0.996604 -1.67609 0
M  V30 1198 O 116.131 1.6958 -0.980786 0
M  V30 1199 H 114.711 -0.163426 -0.728904 0
M  V30 1200 H 117.373 -1.08526 -1.6189 0
M  V30 1201 H 116.469 -0.591146 -3.0645 0
M  V30 1202 N 116.77 1.45427 -0.607355 0
M  V30 1203 C 118 2.06314 -0.108656 0
M  V30 1204 C 118.408 1.45269 1.21217 0
M  V30 1205 O 117.751 0.561115 1.74921 0
M  V30 1206 C 117.813 3.59345 0.105618 0
M  V30 1207 C 117.477 4.42723 -1.13337 0
M  V30 1208 C 118.474 4.77715 -2.05145 0
M  V30 1209 C 116.159 4.83478 -1.36213 0
M  V30 1210 C 118.153 5.52317 -3.18158 0
M  V30 1211 C 115.84 5.57835 -2.49527 0
M  V30 1212 C 116.838 5.92171 -3.40327 0
M  V30 1213 O 116.526 6.65019 -4.51669 0
M  V30 1214 H 116.258 0.672782 -0.0658842 0
M  V30 1215 H 118.812 1.87664 -0.834945 0
M  V30 1216 H 117.042 3.76394 0.886796 0
M  V30 1217 H 118.731 4.02076 0.555886 0
M  V30 1218 H 119.497 4.46787 -1.88697 0
M  V30 1219 H 115.376 4.56188 -0.664362 0
M  V30 1220 H 118.92 5.79036 -3.89054 0
M  V30 1221 H 114.817 5.88177 -2.65928 0
M  V30 1222 H 115.585 6.83469 -4.50348 0
M  V30 1223 N 118.248 0.346503 1.53744 0
M  V30 1224 C 119.476 -0.25041 2.05379 0
M  V30 1225 C 119.891 -1.43979 1.22129 0
M  V30 1226 O 119.248 -1.80677 0.257321 0
M  V30 1227 C 119.299 -0.662575 3.55376 0
M  V30 1228 O 119.02 0.479515 4.35468 0
M  V30 1229 C 120.521 -1.31989 4.23195 0
M  V30 1230 H 117.741 -0.0478198 0.669294 0
M  V30 1231 H 120.285 0.499346 1.9831 0
M  V30 1232 H 118.44 -1.36227 3.62658 0
M  V30 1233 H 118.854 0.15037 5.24284 0
M  V30 1234 H 120.328 -1.55902 5.29527 0
M  V30 1235 H 120.805 -2.27436 3.75725 0
M  V30 1236 H 121.411 -0.662154 4.20114 0
M  V30 1237 N 119.726 -1.57421 0.075193 0
M  V30 1238 C 121.137 -1.81021 -0.456964 0
M  V30 1239 C 121.488 -0.98936 -1.69429 0
M  V30 1240 O 120.613 -0.212865 -2.15351 0
M  V30 1241 C 121.208 -3.28329 -0.83581 0
M  V30 1242 C 119.767 -3.52764 -1.31281 0
M  V30 1243 C 118.914 -2.75676 -0.299648 0
M  V30 1244 H 121.865 -1.55822 0.300856 0
M  V30 1245 H 121.886 -3.40564 -1.69696 0
M  V30 1246 H 121.398 -3.88046 0.0649238 0
M  V30 1247 H 119.499 -2.98355 -2.23193 0
M  V30 1248 H 119.612 -4.61451 -1.28839 0
M  V30 1249 H 117.976 -2.42538 -0.777641 0
M  V30 1250 H 118.759 -3.38132 0.593417 0
M  V30 1251 N 121.204 0.198386 -1.56346 0
M  V30 1252 C 122.151 1.24589 -1.94284 0
M  V30 1253 C 123.121 1.454 -0.802997 0
M  V30 1254 O 124.306 1.58588 -1.06087 0
M  V30 1255 C 121.446 2.58631 -2.28482 0
M  V30 1256 C 120.559 2.45426 -3.55514 0
M  V30 1257 C 119.694 3.7215 -3.79049 0
M  V30 1258 C 118.733 3.53763 -4.99518 0
M  V30 1259 N 117.87 4.72491 -5.19323 0
M  V30 1260 H 122.71 0.915356 -2.83593 0
M  V30 1261 H 120.247 0.440629 -1.40346 0
M  V30 1262 H 122.205 3.3672 -2.46324 0
M  V30 1263 H 120.835 2.89734 -1.42317 0
M  V30 1264 H 119.887 1.58652 -3.45737 0
M  V30 1265 H 121.199 2.27772 -4.43758 0
M  V30 1266 H 120.353 4.58679 -3.97113 0
M  V30 1267 H 119.092 3.92754 -2.89129 0
M  V30 1268 H 118.097 2.65619 -4.8138 0
M  V30 1269 H 119.322 3.34607 -5.90944 0
M  V30 1270 H 117.268 4.93365 -4.3235 0
M  V30 1271 H 117.185 4.5765 -6.01741 0
M  V30 1272 H 118.453 5.6038 -5.41843 0
M  V30 1273 N 122.682 1.50554 0.465978 0
M  V30 1274 C 123.928 1.62038 1.21949 0
M  V30 1275 C 124.261 0.322116 1.9151 0
M  V30 1276 O 123.536 -0.676723 1.82348 0
M  V30 1277 C 123.819 2.80421 2.25912 0
M  V30 1278 C 123.672 4.20144 1.60622 0
M  V30 1279 C 124.991 2.94354 3.27176 0
M  V30 1280 H 122.11 0.589752 0.441998 0
M  V30 1281 H 124.752 1.82956 0.51257 0
M  V30 1282 H 122.902 2.62717 2.86203 0
M  V30 1283 H 124.574 4.49449 1.03889 0
M  V30 1284 H 122.817 4.24165 0.909211 0
M  V30 1285 H 123.488 4.98914 2.36196 0
M  V30 1286 H 125.964 3.10578 2.76913 0
M  V30 1287 H 124.84 3.788 3.97242 0
M  V30 1288 H 125.101 2.05186 3.916 0
M  V30 1289 N 124.16 -0.719506 1.40217 0
M  V30 1290 C 125.09 -1.8465 1.42922 0
M  V30 1291 C 126.071 -1.67599 0.29062 0
M  V30 1292 O 127.256 -1.87688 0.498677 0
M  V30 1293 C 124.386 -3.22565 1.28722 0
M  V30 1294 C 123.34 -3.54281 2.40144 0
M  V30 1295 C 122.666 -4.91298 2.11023 0
M  V30 1296 C 123.966 -3.55676 3.82481 0
M  V30 1297 H 125.66 -1.82644 2.37237 0
M  V30 1298 H 123.206 -0.877305 1.1419 0
M  V30 1299 H 125.159 -4.01095 1.29232 0
M  V30 1300 H 123.883 -3.25137 0.308811 0
M  V30 1301 H 122.542 -2.78088 2.38877 0
M  V30 1302 H 122.19 -4.90468 1.11582 0
M  V30 1303 H 121.89 -5.13485 2.8567 0
M  V30 1304 H 123.414 -5.72166 2.13209 0
M  V30 1305 H 124.828 -4.24254 3.85592 0
M  V30 1306 H 123.225 -3.89388 4.56614 0
M  V30 1307 H 124.295 -2.55144 4.12346 0
M  V30 1308 N 125.638 -1.25649 -0.95132 0
M  V30 1309 C 126.915 -1.01361 -1.67288 0
M  V30 1310 C 127.295 0.459135 -2.06046 0
M  V30 1311 O 126.643 1.43723 -1.7764 0
M  V30 1312 C 126.853 -1.95256 -2.89268 0
M  V30 1313 C 128.201 -2.23289 -3.61147 0
M  V30 1314 O 129.225 -1.93041 -2.99355 0
M  V30 1315 O 128.084 -2.74741 -4.72419 0
M  V30 1316 H 125.178 -0.38464 -0.732107 0
M  V30 1317 H 127.724 -1.36817 -1.00395 0
M  V30 1318 H 126.496 -2.94685 -2.57442 0
M  V30 1319 H 126.119 -1.60218 -3.6389 0
M  V30 1320 N 127.117 1.15442 -1.07289 0
M  V30 1321 C 128.363 1.86489 -0.796846 0
M  V30 1322 C 128.696 1.82078 0.675371 0
M  V30 1323 O 127.971 1.24346 1.4956 0
M  V30 1324 C 128.254 3.35626 -1.30489 0
M  V30 1325 C 128.107 3.48673 -2.84161 0
M  V30 1326 C 129.426 4.30357 -0.920907 0
M  V30 1327 H 126.545 0.677144 -0.290939 0
M  V30 1328 H 129.187 1.35633 -1.33056 0
M  V30 1329 H 127.337 3.79068 -0.850883 0
M  V30 1330 H 129.009 3.14099 -3.37846 0
M  V30 1331 H 127.252 2.90253 -3.22391 0
M  V30 1332 H 127.923 4.53453 -3.14777 0
M  V30 1333 H 130.399 3.94871 -1.3121 0
M  V30 1334 H 129.275 5.33193 -1.30372 0
M  V30 1335 H 129.536 4.4176 0.173226 0
M  V30 1336 N 128.595 0.856903 1.32268 0
M  V30 1337 C 129.525 0.31858 2.31316 0
M  V30 1338 C 130.506 -0.583487 1.59779 0
M  V30 1339 O 131.691 -0.503259 1.87566 0
M  V30 1340 C 128.821 -0.491979 3.43798 0
M  V30 1341 C 127.775 0.315849 4.26833 0
M  V30 1342 C 127.101 -0.619586 5.31098 0
M  V30 1343 C 128.401 1.54282 4.98993 0
M  V30 1344 H 130.095 1.14621 2.76591 0
M  V30 1345 H 127.641 0.552613 1.32974 0
M  V30 1346 H 129.594 -0.879012 4.1213 0
M  V30 1347 H 128.318 -1.35299 2.97257 0
M  V30 1348 H 126.977 0.684664 3.6015 0
M  V30 1349 H 126.625 -1.47751 4.8081 0
M  V30 1350 H 126.325 -0.0830621 5.87541 0
M  V30 1351 H 127.849 -1.00375 6.02293 0
M  V30 1352 H 129.263 1.22796 5.59995 0
M  V30 1353 H 127.66 2.01745 5.65172 0
M  V30 1354 H 128.73 2.30285 4.26728 0
M  V30 1355 N 130.073 -1.45103 0.615059 0
M  V30 1356 C 131.02 -2.30586 -0.0993978 0
M  V30 1357 C 131.99 -1.42544 -0.852669 0
M  V30 1358 O 133.175 -1.71465 -0.836917 0
M  V30 1359 C 130.315 -3.27572 -1.08583 0
M  V30 1360 C 129.428 -4.30717 -0.332656 0
M  V30 1361 C 128.563 -5.14807 -1.30947 0
M  V30 1362 C 127.602 -6.09673 -0.544538 0
M  V30 1363 N 126.739 -6.86517 -1.47101 0
M  V30 1364 H 131.579 -2.91144 0.635542 0
M  V30 1365 H 129.116 -1.4346 0.325206 0
M  V30 1366 H 131.074 -3.82276 -1.67095 0
M  V30 1367 H 129.704 -2.68751 -1.78809 0
M  V30 1368 H 128.756 -3.78615 0.368107 0
M  V30 1369 H 130.068 -4.98102 0.263842 0
M  V30 1370 H 129.222 -5.73948 -1.96643 0
M  V30 1371 H 127.961 -4.47458 -1.9399 0
M  V30 1372 H 126.966 -5.49656 0.126003 0
M  V30 1373 H 128.191 -6.79052 0.080947 0
M  V30 1374 H 126.137 -6.21851 -2.08895 0
M  V30 1375 H 126.054 -7.50281 -0.928137 0
M  V30 1376 H 127.322 -7.50194 -2.11731 0
M  V30 1377 N 131.551 -0.354651 -1.53558 0
M  V30 1378 C 132.498 0.496968 -2.25386 0
M  V30 1379 C 133.468 1.0865 -1.25636 0
M  V30 1380 O 134.653 1.12104 -1.54394 0
M  V30 1381 C 131.793 1.63637 -3.03837 0
M  V30 1382 C 130.906 1.07307 -4.18461 0
M  V30 1383 C 130.041 2.18068 -4.84376 0
M  V30 1384 C 129.08 1.59147 -5.91049 0
M  V30 1385 N 128.217 2.63695 -6.50699 0
M  V30 1386 H 133.057 -0.122075 -2.9775 0
M  V30 1387 H 130.594 -0.0720154 -1.46924 0
M  V30 1388 H 132.552 2.30734 -3.47589 0
M  V30 1389 H 131.182 2.22623 -2.33749 0
M  V30 1390 H 130.234 0.292708 -3.79272 0
M  V30 1391 H 131.546 0.602193 -4.95152 0
M  V30 1392 H 130.7 2.93007 -5.31255 0
M  V30 1393 H 129.439 2.68504 -4.07133 0
M  V30 1394 H 128.444 0.827175 -5.43542 0
M  V30 1395 H 129.669 1.09549 -6.70206 0
M  V30 1396 H 127.615 3.13365 -5.76315 0
M  V30 1397 H 127.532 2.21263 -7.22896 0
M  V30 1398 H 128.8 3.3837 -7.02229 0
M  V30 1399 N 133.029 1.57378 -0.0835403 0
M  V30 1400 C 133.979 2.09916 0.889905 0
M  V30 1401 C 134.963 1.01151 1.25129 0
M  V30 1402 O 136.155 1.27443 1.2283 0
M  V30 1403 C 133.284 2.67379 2.15322 0
M  V30 1404 C 132.37 3.83167 1.81779 0
M  V30 1405 N 132.761 4.91665 1.18739 0
M  V30 1406 C 131.059 3.92685 2.11459 0
M  V30 1407 C 131.76 5.72409 1.0355 0
M  V30 1408 N 130.736 5.21062 1.54906 0
M  V30 1409 H 134.538 2.91188 0.398378 0
M  V30 1410 H 132.052 1.61956 0.120013 0
M  V30 1411 H 134.049 3.0334 2.8599 0
M  V30 1412 H 132.709 1.87558 2.65051 0
M  V30 1413 H 133.72 5.10784 0.855604 0
M  V30 1414 H 130.397 3.23856 2.63483 0
M  V30 1415 H 131.787 6.69699 0.543425 0
M  V30 1416 N 134.507 -0.190092 1.56449 0
M  V30 1417 C 135.923 -0.54113 1.50146 0
M  V30 1418 C 136.123 -1.85603 0.784465 0
M  V30 1419 O 135.179 -2.5024 0.337051 0
M  V30 1420 C 136.492 -0.591241 2.9483 0
M  V30 1421 C 138.04 -0.679732 3.0553 0
M  V30 1422 C 138.515 -0.760908 4.51635 0
M  V30 1423 N 140.006 -0.824302 4.55806 0
M  V30 1424 C 140.741 -0.907365 5.66175 0
M  V30 1425 N 140.237 -0.952422 6.86222 0
M  V30 1426 N 142.03 -0.94494 5.541 0
M  V30 1427 H 134.181 0.67235 2.01478 0
M  V30 1428 H 136.444 0.240127 0.917084 0
M  V30 1429 H 136.15 0.305905 3.50367 0
M  V30 1430 H 136.024 -1.44422 3.48457 0
M  V30 1431 H 138.411 -1.56731 2.50039 0
M  V30 1432 H 138.492 0.199549 2.5502 0
M  V30 1433 H 138.136 0.122336 5.07753 0
M  V30 1434 H 138.066 -1.65606 4.99882 0
M  V30 1435 H 140.557 -0.798526 3.69367 0
M  V30 1436 H 140.87 -1.01645 7.66086 0
M  V30 1437 H 139.215 -0.921014 6.8887 0
M  V30 1438 H 142.406 -0.906612 4.59236 0
M  V30 1439 H 142.579 -1.00622 6.4014 0
M  V30 1440 N 135.985 -1.50799 -0.457987 0
M  V30 1441 C 137.231 -1.62683 -1.21088 0
M  V30 1442 C 137.564 -0.332268 -1.91336 0
M  V30 1443 O 136.839 0.667043 -1.82704 0
M  V30 1444 C 137.122 -2.81615 -2.24422 0
M  V30 1445 C 136.975 -4.20989 -1.58392 0
M  V30 1446 C 138.294 -2.96085 -3.2561 0
M  V30 1447 H 135.413 -0.592087 -0.438864 0
M  V30 1448 H 138.055 -1.83225 -0.50286 0
M  V30 1449 H 136.205 -2.64231 -2.84806 0
M  V30 1450 H 137.877 -4.49994 -1.01504 0
M  V30 1451 H 136.12 -4.24641 -0.886704 0
M  V30 1452 H 136.791 -5.0016 -2.33547 0
M  V30 1453 H 139.267 -3.12042 -2.75262 0
M  V30 1454 H 138.143 -3.80902 -3.95228 0
M  V30 1455 H 138.404 -2.0726 -3.90507 0
M  V30 1456 N 137.463 0.71206 -1.40597 0
M  V30 1457 C 138.691 1.50111 -1.42388 0
M  V30 1458 C 139.106 1.88784 -0.0245395 0
M  V30 1459 O 138.463 1.55681 0.952351 0
M  V30 1460 C 138.514 2.7742 -2.31776 0
M  V30 1461 O 138.235 2.40382 -3.66262 0
M  V30 1462 C 139.736 3.7129 -2.42196 0
M  V30 1463 H 136.956 0.46314 -0.485533 0
M  V30 1464 H 139.5 0.878068 -1.8469 0
M  V30 1465 H 137.655 3.36001 -1.92827 0
M  V30 1466 H 138.069 3.22324 -4.13772 0
M  V30 1467 H 139.543 4.57448 -3.08943 0
M  V30 1468 H 140.02 4.14641 -1.44809 0
M  V30 1469 H 140.626 3.18619 -2.81712 0
M  V30 1470 N 138.941 1.26152 0.944643 0
M  V30 1471 C 140.189 1.11271 1.6871 0
M  V30 1472 C 140.51 -0.345166 1.91921 0
M  V30 1473 O 139.78 -1.24387 1.51343 0
M  V30 1474 H 138.36 0.408783 0.625224 0
M  V30 1475 H 141.022 1.58427 1.1352 0
M  V30 1476 H 140.118 1.62879 2.66227 0
M  V30 1477 N 140.419 -1.14872 1.07899 0
M  V30 1478 C 141.647 -1.89661 0.82683 0
M  V30 1479 C 142.062 -1.78312 -0.620519 0
M  V30 1480 O 141.419 -1.13888 -1.42604 0
M  V30 1481 C 141.47 -3.39817 1.23316 0
M  V30 1482 O 141.191 -3.50845 2.62372 0
M  V30 1483 C 142.692 -4.31615 1.0111 0
M  V30 1484 H 139.912 -0.60092 0.298557 0
M  V30 1485 H 142.456 -1.4551 1.43691 0
M  V30 1486 H 140.611 -3.8161 0.667286 0
M  V30 1487 H 141.025 -4.44076 2.79101 0
M  V30 1488 H 142.499 -5.35367 1.34486 0
M  V30 1489 H 142.976 -4.39169 -0.0522168 0
M  V30 1490 H 143.582 -3.95572 1.56215 0
M  V30 1491 N 141.898 -0.863906 -1.31812 0
M  V30 1492 C 143.145 -0.471836 -1.96926 0
M  V30 1493 C 143.473 0.974578 -1.68322 0
M  V30 1494 O 142.728 1.7003 -0.968933 0
M  V30 1495 C 143.027 -0.668547 -3.51091 0
M  V30 1496 C 142.693 -2.08683 -3.99703 0
M  V30 1497 C 141.355 -2.47471 -4.12688 0
M  V30 1498 C 143.707 -3.01207 -4.25351 0
M  V30 1499 C 141.035 -3.78037 -4.4867 0
M  V30 1500 C 143.387 -4.31282 -4.62794 0
M  V30 1501 C 142.051 -4.69992 -4.73987 0
M  V30 1502 H 141.321 -0.172657 -0.720604 0
M  V30 1503 H 143.968 -1.09573 -1.57054 0
M  V30 1504 H 142.273 0.0385252 -3.91781 0
M  V30 1505 H 143.97 -0.345102 -3.99512 0
M  V30 1506 H 140.56 -1.77566 -3.90087 0
M  V30 1507 H 144.744 -2.72469 -4.14819 0
M  V30 1508 H 140 -4.078 -4.55532 0
M  V30 1509 H 144.174 -5.03031 -4.81594 0
M  V30 1510 H 141.801 -5.71207 -5.01624 0
M  V30 1511 N 143.376 1.44774 -0.622745 0
M  V30 1512 C 144.623 2.02121 -0.1239 0
M  V30 1513 C 144.951 1.48915 1.25118 0
M  V30 1514 O 144.206 0.660045 1.84233 0
M  V30 1515 C 144.505 3.57364 -0.0508323 0
M  V30 1516 C 144.171 4.29787 -1.36358 0
M  V30 1517 C 142.833 4.4929 -1.72314 0
M  V30 1518 C 145.185 4.71062 -2.23048 0
M  V30 1519 C 142.513 5.07325 -2.94682 0
M  V30 1520 C 144.865 5.30452 -3.44679 0
M  V30 1521 C 143.529 5.48175 -3.80868 0
M  V30 1522 H 142.799 0.739612 -0.0453381 0
M  V30 1523 H 145.446 1.73648 -0.807389 0
M  V30 1524 H 143.751 3.85202 0.715991 0
M  V30 1525 H 145.448 3.99456 0.351533 0
M  V30 1526 H 142.038 4.14932 -1.07375 0
M  V30 1527 H 146.222 4.55715 -1.96565 0
M  V30 1528 H 141.478 5.19235 -3.22809 0
M  V30 1529 H 145.652 5.61385 -4.12092 0
M  V30 1530 H 143.279 5.92912 -4.75773 0
M  V30 1531 N 144.854 0.36279 1.53368 0
M  V30 1532 C 146.1 -0.228113 2.01513 0
M  V30 1533 C 146.433 -1.48648 1.2497 0
M  V30 1534 O 145.708 -1.91459 0.342616 0
M  V30 1535 C 145.991 -0.522884 3.56284 0
M  V30 1536 C 145.844 0.74892 4.43521 0
M  V30 1537 C 147.163 -1.32461 4.19693 0
M  V30 1538 H 144.282 -0.0814343 0.732487 0
M  V30 1539 H 146.924 0.48713 1.83649 0
M  V30 1540 H 145.074 -1.1322 3.71636 0
M  V30 1541 H 146.746 1.38648 4.39971 0
M  V30 1542 H 144.989 1.36986 4.11603 0
M  V30 1543 H 145.66 0.497667 5.49752 0
M  V30 1544 H 148.136 -0.809203 4.08156 0
M  V30 1545 H 147.012 -1.49961 5.28018 0
M  V30 1546 H 147.273 -2.33232 3.75573 0
M  V30 1547 N 146.332 -1.57332 0.0918853 0
M  V30 1548 C 147.56 -1.98574 -0.581048 0
M  V30 1549 C 147.975 -0.970903 -1.61923 0
M  V30 1550 O 147.332 0.0399054 -1.82456 0
M  V30 1551 C 147.383 -3.39872 -1.23164 0
M  V30 1552 O 147.104 -4.37469 -0.234989 0
M  V30 1553 C 148.605 -3.96099 -1.99049 0
M  V30 1554 H 145.825 -0.65261 -0.156018 0
M  V30 1555 H 148.369 -2.0379 0.170225 0
M  V30 1556 H 146.524 -3.35679 -1.93386 0
M  V30 1557 H 146.938 -5.19751 -0.70418 0
M  V30 1558 H 148.412 -4.97127 -2.39934 0
M  V30 1559 H 148.889 -3.3374 -2.85507 0
M  V30 1560 H 149.495 -4.03755 -1.3365 0
M  V30 1561 N 147.81 0.181792 -1.56548 0
M  V30 1562 C 149.058 0.89832 -1.81038 0
M  V30 1563 C 149.379 1.83232 -0.667164 0
M  V30 1564 O 148.649 1.93372 0.313673 0
M  V30 1565 H 147.229 0.33471 -0.667816 0
M  V30 1566 H 149.891 0.184116 -1.94028 0
M  V30 1567 H 148.987 1.4815 -2.74696 0
M  V30 1568 N 149.288 1.51039 0.449983 0
M  V30 1569 C 150.238 1.67824 1.54335 0
M  V30 1570 C 151.222 0.5324 1.51836 0
M  V30 1571 O 152.414 0.787762 1.58503 0
M  V30 1572 C 149.543 1.7951 2.92628 0
M  V30 1573 C 148.629 2.99838 2.9993 0
M  V30 1574 N 149.02 4.23207 2.77001 0
M  V30 1575 C 147.318 2.98832 3.31082 0
M  V30 1576 C 148.019 5.04361 2.89818 0
M  V30 1577 N 146.995 4.38746 3.2094 0
M  V30 1578 H 150.797 2.60884 1.35339 0
M  V30 1579 H 148.311 1.48513 0.657085 0
M  V30 1580 H 150.308 1.89642 3.7127 0
M  V30 1581 H 148.968 0.876227 3.12654 0
M  V30 1582 H 149.979 4.5236 2.52172 0
M  V30 1583 H 146.656 2.16527 3.56963 0
M  V30 1584 H 148.046 6.12528 2.76151 0
M  V30 1585 N 150.766 -0.704594 1.40972 0
M  V30 1586 C 152.013 -1.46458 1.39844 0
M  V30 1587 C 152.341 -1.94499 0.00447594 0
M  V30 1588 O 151.596 -1.69275 -0.982057 0
M  V30 1589 C 151.895 -2.698 2.34399 0
M  V30 1590 C 151.561 -2.40464 3.81429 0
M  V30 1591 C 150.223 -2.32174 4.21484 0
M  V30 1592 C 152.575 -2.16086 4.74296 0
M  V30 1593 C 149.903 -1.97589 5.52427 0
M  V30 1594 C 152.255 -1.83011 6.05549 0
M  V30 1595 C 150.919 -1.7321 6.44635 0
M  V30 1596 H 150.189 -0.535927 0.511725 0
M  V30 1597 H 152.836 -0.806124 1.73706 0
M  V30 1598 H 151.141 -3.40536 1.93759 0
M  V30 1599 H 152.838 -3.27919 2.30804 0
M  V30 1600 H 149.428 -2.47808 3.49699 0
M  V30 1601 H 153.612 -2.2144 4.4416 0
M  V30 1602 H 148.868 -1.88547 5.81601 0
M  V30 1603 H 153.042 -1.63164 6.77016 0
M  V30 1604 H 150.669 -1.46179 7.46013 0
M  V30 1605 N 152.244 -1.26651 -0.937939 0
M  V30 1606 C 153.49 -1.12553 -1.687 0
M  V30 1607 C 153.823 0.329782 -1.91379 0
M  V30 1608 O 153.098 1.24202 -1.4968 0
M  V30 1609 C 153.381 -1.89862 -3.05981 0
M  V30 1610 C 153.234 -3.43318 -2.90607 0
M  V30 1611 C 154.553 -1.69499 -4.0615 0
M  V30 1612 H 151.672 -0.410257 -0.612257 0
M  V30 1613 H 154.314 -1.55685 -1.08913 0
M  V30 1614 H 152.464 -1.53204 -3.57017 0
M  V30 1615 H 154.136 -3.89747 -2.46769 0
M  V30 1616 H 152.379 -3.70179 -2.26164 0
M  V30 1617 H 153.05 -3.92642 -3.8799 0
M  V30 1618 H 155.526 -2.01442 -3.64088 0
M  V30 1619 H 154.402 -2.26002 -5.00214 0
M  V30 1620 H 154.663 -0.640365 -4.37438 0
M  V30 1621 N 153.722 1.14298 -1.08507 0
M  V30 1622 C 154.669 2.19414 -0.715965 0
M  V30 1623 C 155.639 1.63399 0.298326 0
M  V30 1624 O 156.824 1.89929 0.182101 0
M  V30 1625 C 153.964 3.44845 -0.132534 0
M  V30 1626 C 153.077 4.15007 -1.19973 0
M  V30 1627 C 152.212 5.28024 -0.580048 0
M  V30 1628 C 151.251 5.9002 -1.62921 0
M  V30 1629 N 150.388 6.94485 -1.03125 0
M  V30 1630 H 155.228 2.50336 -1.61666 0
M  V30 1631 H 152.765 1.2293 -0.807882 0
M  V30 1632 H 154.723 4.16601 0.223454 0
M  V30 1633 H 153.353 3.14403 0.731467 0
M  V30 1634 H 152.405 3.41629 -1.67313 0
M  V30 1635 H 153.717 4.57178 -1.99473 0
M  V30 1636 H 152.871 6.06455 -0.172364 0
M  V30 1637 H 151.61 4.87076 0.246603 0
M  V30 1638 H 150.615 5.10291 -2.04654 0
M  V30 1639 H 151.84 6.33042 -2.45835 0
M  V30 1640 H 149.786 6.55612 -0.225711 0
M  V30 1641 H 149.703 7.35148 -1.76334 0
M  V30 1642 H 150.971 7.7679 -0.649458 0
M  V30 1643 N 155.201 0.870884 1.31352 0
M  V30 1644 C 156.478 0.402907 1.91405 0
M  V30 1645 C 156.858 -1.11512 1.79244 0
M  V30 1646 O 156.206 -1.94411 1.2007 0
M  V30 1647 C 156.416 0.885301 3.37585 0
M  V30 1648 C 157.764 0.911971 4.14691 0
M  V30 1649 O 158.788 0.831016 3.46371 0
M  V30 1650 O 157.647 1.02927 5.3672 0
M  V30 1651 H 154.741 0.120698 0.818145 0
M  V30 1652 H 157.287 0.958857 1.40014 0
M  V30 1653 H 156.059 1.92889 3.40455 0
M  V30 1654 H 155.682 0.307714 3.96407 0
M  V30 1655 N 156.679 -1.44442 0.630414 0
M  V30 1656 C 157.611 -2.2892 -0.113347 0
M  V30 1657 C 158.624 -1.41243 -0.80959 0
M  V30 1658 O 159.813 -1.65402 -0.671156 0
M  V30 1659 C 156.913 -3.17594 -1.18266 0
M  V30 1660 C 156.086 -4.33682 -0.569073 0
M  V30 1661 C 155.145 -5.03397 -1.53226 0
M  V30 1662 O 154.171 -5.59438 -1.04967 0
M  V30 1663 N 155.373 -5.04783 -2.86661 0
M  V30 1664 H 158.138 -2.93392 0.611636 0
M  V30 1665 H 155.699 -1.54881 0.471523 0
M  V30 1666 H 157.691 -3.61097 -1.82732 0
M  V30 1667 H 156.261 -2.54876 -1.80988 0
M  V30 1668 H 155.481 -3.9338 0.254187 0
M  V30 1669 H 156.769 -5.08608 -0.139767 0
M  V30 1670 H 156.167 -4.60584 -3.28449 0
M  V30 1671 H 154.724 -5.52077 -3.46489 0
M  V30 1672 N 158.157 -0.370918 -1.53173 0
M  V30 1673 C 159.568 0.107139 -1.86392 0
M  V30 1674 C 159.919 1.47714 -1.29132 0
M  V30 1675 O 159.044 2.07464 -0.615439 0
M  V30 1676 C 159.639 0.201187 -3.38202 0
M  V30 1677 C 158.198 0.623507 -3.712 0
M  V30 1678 C 157.345 -0.225978 -2.76378 0
M  V30 1679 H 160.296 -0.58951 -1.47345 0
M  V30 1680 H 160.317 1.02377 -3.66468 0
M  V30 1681 H 159.829 -0.796058 -3.79848 0
M  V30 1682 H 157.93 1.62879 -3.35114 0
M  V30 1683 H 158.043 0.394414 -4.77474 0
M  V30 1684 H 156.407 0.305962 -2.52856 0
M  V30 1685 H 157.19 -1.22086 -3.20858 0
M  V30 1686 N 159.635 1.57281 -0.100228 0
M  V30 1687 C 160.567 2.11342 0.886972 0
M  V30 1688 C 161.58 1.05182 1.24261 0
M  V30 1689 O 162.769 1.32613 1.19483 0
M  V30 1690 C 159.869 2.5825 2.19454 0
M  V30 1691 C 159.042 3.88302 2.01346 0
M  V30 1692 C 158.101 4.21004 3.15661 0
M  V30 1693 O 157.127 4.9014 2.89398 0
M  V30 1694 N 158.329 3.76818 4.41575 0
M  V30 1695 H 161.094 2.96668 0.425216 0
M  V30 1696 H 158.655 1.61678 0.0847334 0
M  V30 1697 H 160.647 2.7717 2.94888 0
M  V30 1698 H 159.217 1.77907 2.57037 0
M  V30 1699 H 158.437 3.7848 1.10212 0
M  V30 1700 H 159.725 4.73375 1.8653 0
M  V30 1701 H 159.123 3.2102 4.65792 0
M  V30 1702 H 157.68 4.00882 5.13942 0
M  V30 1703 N 161.113 -0.173488 1.56642 0
M  V30 1704 C 162.043 -1.2171 1.99271 0
M  V30 1705 C 163.024 -1.46289 0.867959 0
M  V30 1706 O 164.209 -1.5766 1.13388 0
M  V30 1707 C 161.339 -2.55651 2.35074 0
M  V30 1708 C 160.293 -2.45645 3.50489 0
M  V30 1709 C 159.619 -3.84056 3.72028 0
M  V30 1710 C 160.919 -1.96302 4.84007 0
M  V30 1711 H 162.613 -0.86275 2.867 0
M  V30 1712 H 160.159 -0.413571 1.37933 0
M  V30 1713 H 162.112 -3.2886 2.63494 0
M  V30 1714 H 160.836 -2.92869 1.44552 0
M  V30 1715 H 159.495 -1.7489 3.22194 0
M  V30 1716 H 159.143 -4.18664 2.788 0
M  V30 1717 H 158.843 -3.7823 4.49684 0
M  V30 1718 H 160.367 -4.58854 4.02846 0
M  V30 1719 H 161.781 -2.59284 5.11317 0
M  V30 1720 H 160.178 -2.01429 5.65284 0
M  V30 1721 H 161.248 -0.917226 4.76146 0
M  V30 1722 N 162.591 -1.51276 -0.441967 0
M  V30 1723 C 163.84 -1.6295 -1.18871 0
M  V30 1724 C 164.153 -0.349312 -1.92456 0
M  V30 1725 O 165.359 -0.345355 -2.69295 0
M  V30 1726 C 163.815 -2.87759 -2.16155 0
M  V30 1727 C 163.423 -4.22764 -1.48239 0
M  V30 1728 C 165.167 -3.08788 -2.91291 0
M  V30 1729 C 163.074 -5.38728 -2.4398 0
M  V30 1730 H 162.004 -0.606913 -0.447406 0
M  V30 1731 H 164.655 -1.77739 -0.456205 0
M  V30 1732 H 163.037 -2.66593 -2.92821 0
M  V30 1733 H 164.211 -4.54293 -0.771635 0
M  V30 1734 H 162.526 -4.07575 -0.852741 0
M  V30 1735 H 165.123 -3.92599 -3.63002 0
M  V30 1736 H 165.466 -2.21679 -3.5237 0
M  V30 1737 H 165.999 -3.30272 -2.21733 0
M  V30 1738 H 162.738 -6.28082 -1.87598 0
M  V30 1739 H 162.258 -5.1158 -3.13123 0
M  V30 1740 H 163.937 -5.70489 -3.05207 0
M  V30 1741 N 164.069 0.697108 -1.41344 0
M  V30 1742 C 165.016 1.81106 -1.43071 0
M  V30 1743 C 165.986 1.63632 -0.285275 0
M  V30 1744 O 167.171 1.84504 -0.486091 0
M  V30 1745 C 164.311 3.18975 -1.31715 0
M  V30 1746 C 163.424 3.47892 -2.56115 0
M  V30 1747 C 162.559 4.75367 -2.37064 0
M  V30 1748 C 161.598 4.97247 -3.56948 0
M  V30 1749 N 160.735 6.15947 -3.36977 0
M  V30 1750 H 165.575 1.78965 -2.38276 0
M  V30 1751 H 163.112 0.873975 -1.18322 0
M  V30 1752 H 165.07 3.98615 -1.23133 0
M  V30 1753 H 163.7 3.20297 -0.401183 0
M  V30 1754 H 162.752 2.62669 -2.75153 0
M  V30 1755 H 164.064 3.59962 -3.45295 0
M  V30 1756 H 163.218 5.63059 -2.25941 0
M  V30 1757 H 161.957 4.65541 -1.45338 0
M  V30 1758 H 160.962 4.08004 -3.68527 0
M  V30 1759 H 162.187 5.08934 -4.49626 0
M  V30 1760 H 160.133 6.07336 -2.47949 0
M  V30 1761 H 160.05 6.28777 -4.19732 0
M  V30 1762 H 161.318 7.06377 -3.29623 0
M  V30 1763 N 165.547 1.27147 0.931209 0
M  V30 1764 C 166.963 1.04475 1.20653 0
M  V30 1765 C 167.163 -0.223885 2.00252 0
M  V30 1766 O 166.219 -0.930332 2.34736 0
M  V30 1767 C 167.532 2.28209 1.95809 0
M  V30 1768 C 169.08 2.33211 2.08762 0
M  V30 1769 C 169.555 3.56665 2.87323 0
M  V30 1770 N 171.046 3.57201 2.94892 0
M  V30 1771 C 171.781 4.49395 3.56134 0
M  V30 1772 N 171.277 5.51889 4.18796 0
M  V30 1773 N 173.07 4.37026 3.53504 0
M  V30 1774 H 165.221 2.08612 0.399333 0
M  V30 1775 H 167.484 0.917312 0.239253 0
M  V30 1776 H 167.19 3.20538 1.44736 0
M  V30 1777 H 167.064 2.33247 2.96438 0
M  V30 1778 H 169.451 1.41391 2.59023 0
M  V30 1779 H 169.532 2.32178 1.07364 0
M  V30 1780 H 169.176 4.4882 2.37746 0
M  V30 1781 H 169.106 3.54948 3.88998 0
M  V30 1782 H 171.597 2.83074 2.50354 0
M  V30 1783 H 171.91 6.18409 4.63454 0
M  V30 1784 H 170.255 5.55735 4.17353 0
M  V30 1785 H 173.446 3.56166 3.03749 0
M  V30 1786 H 173.619 5.09067 4.00942 0
M  V30 1787 N 167.025 -1.13721 1.09112 0
M  V30 1788 C 167.958 -2.18094 0.67158 0
M  V30 1789 C 168.936 -1.59414 -0.320299 0
M  V30 1790 O 170.12 -1.87183 -0.222444 0
M  V30 1791 C 167.247 -3.38698 -0.0111189 0
M  V30 1792 C 166.293 -4.15966 0.942055 0
M  V30 1793 S 167.126 -4.7604 2.45246 0
M  V30 1794 C 168.282 -5.99994 1.78208 0
M  V30 1795 H 168.515 -2.53344 1.55577 0
M  V30 1796 H 166.048 -1.24967 0.906789 0
M  V30 1797 H 168.006 -4.08559 -0.398716 0
M  V30 1798 H 166.667 -3.01756 -0.871905 0
M  V30 1799 H 165.86 -5.02318 0.411396 0
M  V30 1800 H 165.462 -3.51745 1.2709 0
M  V30 1801 H 167.754 -6.68441 1.10424 0
M  V30 1802 H 168.697 -6.57662 2.62463 0
M  V30 1803 H 169.105 -5.50432 1.25238 0
M  V30 1804 N 168.503 -0.877838 -1.30888 0
M  V30 1805 C 169.728 -0.506629 -2.01117 0
M  V30 1806 C 170.153 0.895564 -1.65412 0
M  V30 1807 O 169.511 1.5923 -0.866922 0
M  V30 1808 C 169.559 -0.680223 -3.54126 0
M  V30 1809 O 168.663 0.277033 -4.11468 0
M  V30 1810 H 168.004 -0.200518 -0.633 0
M  V30 1811 H 170.534 -1.18342 -1.66902 0
M  V30 1812 H 170.544 -0.5765 -4.03907 0
M  V30 1813 H 169.219 -1.70261 -3.79452 0
M  V30 1814 H 167.796 0.127606 -3.72682 0
M  V30 1815 N 169.982 1.44106 -0.638065 0
M  V30 1816 C 171.259 1.95453 -0.0759321 0
M  V30 1817 C 171.639 1.57984 1.40015 0
M  V30 1818 O 170.987 0.857361 2.11806 0
M  V30 1819 C 171.197 3.47655 -0.306132 0
M  V30 1820 C 172.545 4.24114 -0.203008 0
M  V30 1821 O 173.569 3.55405 -0.237871 0
M  V30 1822 O 172.428 5.46381 -0.113827 0
M  V30 1823 H 169.522 0.826797 0.0183332 0
M  V30 1824 H 172.068 1.54122 -0.710251 0
M  V30 1825 H 170.84 3.68 -1.3301 0
M  V30 1826 H 170.463 3.95949 0.361991 0
M  V30 1827 N 171.46 0.379036 1.52974 0
M  V30 1828 C 172.37 -0.468639 2.29872 0
M  V30 1829 C 173.386 -1.08067 1.36373 0
M  V30 1830 O 174.562 -1.08871 1.69438 0
M  V30 1831 C 171.627 -1.58594 3.083 0
M  V30 1832 C 170.688 -1.00007 4.17489 0
M  V30 1833 C 169.921 -2.06413 4.92168 0
M  V30 1834 O 170.144 -3.27751 4.66835 0
M  V30 1835 O 169.078 -1.68717 5.7777 0
M  V30 1836 H 172.904 0.157508 3.03291 0
M  V30 1837 H 170.489 0.143035 1.48714 0
M  V30 1838 H 172.371 -2.23525 3.57232 0
M  V30 1839 H 171.046 -2.19724 2.37703 0
M  V30 1840 H 169.953 -0.314299 3.72777 0
M  V30 1841 H 171.286 -0.433135 4.90291 0
M  V30 1842 N 172.938 -1.57226 0.108567 0
M  V30 1843 C 174.186 -1.94448 -0.550853 0
M  V30 1844 C 174.507 -0.992074 -1.67878 0
M  V30 1845 O 173.777 -0.0465 -1.95845 0
M  V30 1846 H 172.357 -0.717897 -0.206479 0
M  V30 1847 H 175.019 -1.94112 0.175062 0
M  V30 1848 H 174.115 -2.97218 -0.952259 0
M  V30 1849 N 174.416 0.165178 -1.56732 0
M  V30 1850 C 175.366 1.20917 -1.93295 0
M  V30 1851 C 176.35 1.39488 -0.801985 0
M  V30 1852 O 177.542 1.41356 -1.06525 0
M  V30 1853 C 174.671 2.54718 -2.3016 0
M  V30 1854 C 173.757 2.39815 -3.49785 0
M  V30 1855 N 174.148 1.94637 -4.66851 0
M  V30 1856 C 172.446 2.70623 -3.54513 0
M  V30 1857 C 173.147 1.92344 -5.4898 0
M  V30 1858 N 172.123 2.34978 -4.9019 0
M  V30 1859 H 175.925 0.851675 -2.81289 0
M  V30 1860 H 173.439 0.373399 -1.58049 0
M  V30 1861 H 175.436 3.30165 -2.54552 0
M  V30 1862 H 174.096 2.91265 -1.43508 0
M  V30 1863 H 175.107 1.6488 -4.90953 0
M  V30 1864 H 171.784 3.11167 -2.78354 0
M  V30 1865 H 173.174 1.5906 -6.52801 0
M  V30 1866 N 175.894 1.51508 0.433938 0
M  V30 1867 C 177.143 1.63578 1.18005 0
M  V30 1868 C 177.456 0.359514 1.92268 0
M  V30 1869 O 178.662 0.359632 2.69108 0
M  V30 1870 C 177.118 2.88901 2.14626 0
M  V30 1871 C 176.726 4.23544 1.45995 0
M  V30 1872 C 178.47 3.10328 2.89649 0
M  V30 1873 C 176.377 5.40014 2.4112 0
M  V30 1874 H 175.307 0.609277 0.444182 0
M  V30 1875 H 177.958 1.77978 0.446773 0
M  V30 1876 H 176.34 2.68142 2.91403 0
M  V30 1877 H 177.514 4.54696 0.747532 0
M  V30 1878 H 175.829 4.08021 0.831115 0
M  V30 1879 H 178.426 3.94518 3.60915 0
M  V30 1880 H 178.769 2.23544 3.51189 0
M  V30 1881 H 179.302 3.31443 2.19978 0
M  V30 1882 H 176.041 6.29068 1.84264 0
M  V30 1883 H 175.561 5.13233 3.10406 0
M  V30 1884 H 177.24 5.72099 3.02177 0
M  V30 1885 N 177.372 -0.689602 1.41712 0
M  V30 1886 C 178.621 -1.44534 1.40686 0
M  V30 1887 C 178.934 -1.95588 0.0213352 0
M  V30 1888 O 180.14 -2.71271 -0.111534 0
M  V30 1889 C 178.596 -2.61387 2.47396 0
M  V30 1890 C 178.204 -2.17094 3.91885 0
M  V30 1891 C 179.948 -3.38986 2.55517 0
M  V30 1892 C 177.855 -3.3094 4.90135 0
M  V30 1893 H 176.785 -0.542925 0.52321 0
M  V30 1894 H 179.436 -0.748054 1.6756 0
M  V30 1895 H 177.818 -3.33412 2.13664 0
M  V30 1896 H 178.992 -1.52318 4.34897 0
M  V30 1897 H 177.307 -1.52473 3.8748 0
M  V30 1898 H 179.904 -4.23747 3.26102 0
M  V30 1899 H 180.247 -3.84578 1.59391 0
M  V30 1900 H 180.78 -2.74021 2.8837 0
M  V30 1901 H 177.519 -2.90355 5.87685 0
M  V30 1902 H 177.039 -3.94546 4.51767 0
M  V30 1903 H 178.718 -3.9663 5.11169 0
M  V30 1904 N 178.85 -1.27639 -0.924453 0
M  V30 1905 C 180.098 -1.13941 -1.66918 0
M  V30 1906 C 180.419 0.314589 -1.92446 0
M  V30 1907 O 179.689 1.21964 -1.53303 0
M  V30 1908 H 178.269 -0.418678 -0.618642 0
M  V30 1909 H 180.931 -1.60213 -1.10985 0
M  V30 1910 H 180.027 -1.67094 -2.63602 0
M  V30 1911 N 180.328 1.1314 -1.09713 0
M  V30 1912 C 181.276 2.20717 -0.733934 0
M  V30 1913 C 182.27 1.6729 0.266506 0
M  V30 1914 O 183.476 1.79547 0.127656 0
M  V30 1915 H 179.851 0.719292 -0.21937 0
M  V30 1916 H 181.822 2.48611 -1.6503 0
M  V30 1917 C 180.571 3.47265 -0.173849 0
M  V30 1918 H 179.894 3.88716 -0.934873 0
M  V30 1919 H 181.334 4.23979 0.0423126 0
M  V30 1920 C 179.793 3.18724 1.09164 0
M  V30 1921 O 180.323 3.37762 2.17439 0
M  V30 1922 N 178.529 2.72583 1.00732 0
M  V30 1923 H 178.076 2.57291 0.126121 0
M  V30 1924 H 178.034 2.53862 1.85476 0
M  V30 1925 N 181.806 0.884767 1.30421 0
M  V30 1926 C 182.756 0.322846 2.25703 0
M  V30 1927 C 183.74 -0.548582 1.51259 0
M  V30 1928 O 184.932 -0.39304 1.72581 0
M  V30 1929 C 182.061 -0.461787 3.4018 0
M  V30 1930 C 181.147 0.423717 4.21978 0
M  V30 1931 N 181.538 1.52408 4.82292 0
M  V30 1932 C 179.836 0.218795 4.45463 0
M  V30 1933 C 180.537 2.07136 5.43571 0
M  V30 1934 N 179.513 1.36635 5.26148 0
M  V30 1935 H 183.315 1.16363 2.69883 0
M  V30 1936 H 180.829 0.73415 1.44859 0
M  V30 1937 H 182.826 -0.880985 4.07485 0
M  V30 1938 H 181.486 -1.30001 2.9754 0
M  V30 1939 H 182.497 1.90693 4.81515 0
M  V30 1940 H 179.174 -0.582275 4.1342 0
M  V30 1941 H 180.564 2.99538 6.01437 0
M  V30 1942 N 183.284 -1.43765 0.645699 0
M  V30 1943 C 184.509 -2.06767 0.161883 0
M  V30 1944 C 184.934 -1.48034 -1.16049 0
M  V30 1945 O 184.292 -0.587369 -1.71522 0
M  V30 1946 C 184.34 -3.60519 0.0762003 0
M  V30 1947 O 183.444 -4.00982 -0.963721 0
M  V30 1948 H 182.785 -0.657675 0.091429 0
M  V30 1949 H 185.315 -1.84397 0.886499 0
M  V30 1950 H 185.325 -4.07853 -0.109604 0
M  V30 1951 H 184 -4.02646 1.04157 0
M  V30 1952 H 182.577 -3.65253 -0.751312 0
M  V30 1953 N 184.763 -0.387143 -1.52771 0
M  V30 1954 C 186.01 0.195735 -2.01552 0
M  V30 1955 C 186.338 1.46995 -1.27369 0
M  V30 1956 O 185.593 1.92325 -0.361879 0
M  V30 1957 C 185.892 0.512209 -3.53711 0
M  V30 1958 C 185.558 -0.670202 -4.45891 0
M  V30 1959 C 184.22 -0.994586 -4.70809 0
M  V30 1960 C 186.572 -1.46134 -5.00294 0
M  V30 1961 C 183.9 -2.11169 -5.4738 0
M  V30 1962 C 186.252 -2.56903 -5.78086 0
M  V30 1963 C 184.916 -2.89852 -6.01284 0
M  V30 1964 H 184.186 0.0716246 -0.73753 0
M  V30 1965 H 186.833 -0.524046 -1.8419 0
M  V30 1966 H 185.138 1.31329 -3.69134 0
M  V30 1967 H 186.835 0.975804 -3.88946 0
M  V30 1968 H 183.425 -0.407366 -4.2666 0
M  V30 1969 H 187.609 -1.22397 -4.80971 0
M  V30 1970 H 182.865 -2.3707 -5.63567 0
M  V30 1971 H 187.039 -3.18608 -6.19243 0
M  V30 1972 H 184.666 -3.76533 -6.60399 0
M  V30 1973 N 186.241 1.57166 -0.116904 0
M  V30 1974 C 187.191 2.11756 0.845178 0
M  V30 1975 C 188.175 1.03783 1.22955 0
M  V30 1976 O 189.367 1.3002 1.20099 0
M  V30 1977 C 186.496 2.71886 2.09602 0
M  V30 1978 C 185.582 3.86937 1.7361 0
M  V30 1979 N 185.973 4.94073 1.08284 0
M  V30 1980 C 184.271 3.97082 2.03082 0
M  V30 1981 C 184.972 5.74477 0.913855 0
M  V30 1982 N 183.948 5.2423 1.43818 0
M  V30 1983 H 187.75 2.91967 0.336523 0
M  V30 1984 H 185.264 1.62174 0.0856332 0
M  V30 1985 H 187.261 3.09338 2.79492 0
M  V30 1986 H 185.921 1.93138 2.61013 0
M  V30 1987 H 186.932 5.12483 0.747067 0
M  V30 1988 H 183.609 3.29372 2.56554 0
M  V30 1989 H 184.999 6.70701 0.40125 0
M  V30 1990 N 187.719 -0.156864 1.56817 0
M  V30 1991 C 188.669 -1.19891 1.93934 0
M  V30 1992 C 189.653 -1.39061 0.809372 0
M  V30 1993 O 190.845 -1.40789 1.07273 0
M  V30 1994 C 187.974 -2.53493 2.31508 0
M  V30 1995 C 187.06 -2.37957 3.51052 0
M  V30 1996 N 187.451 -1.92158 4.67877 0
M  V30 1997 C 185.749 -2.68739 3.55943 0
M  V30 1998 C 186.45 -1.8943 5.49992 0
M  V30 1999 N 185.426 -2.32375 4.91429 0
M  V30 2000 H 189.228 -0.836746 2.81737 0
M  V30 2001 H 186.742 -0.365012 1.58245 0
M  V30 2002 H 188.739 -3.28811 2.56299 0
M  V30 2003 H 187.399 -2.905 1.45051 0
M  V30 2004 H 188.41 -1.62274 4.91821 0
M  V30 2005 H 185.087 -3.09687 2.80001 0
M  V30 2006 H 186.477 -1.55596 6.53636 0
M  V30 2007 N 189.197 -1.51736 -0.425897 0
M  V30 2008 C 190.608 -1.5732 -1.00536 0
M  V30 2009 C 190.959 -0.403537 -1.92005 0
M  V30 2010 O 190.084 0.478256 -2.11049 0
M  V30 2011 C 190.679 -2.85119 -1.8301 0
M  V30 2012 C 189.238 -2.93236 -2.35987 0
M  V30 2013 C 188.385 -2.52098 -1.15508 0
M  V30 2014 H 191.336 -1.57348 -0.206739 0
M  V30 2015 H 191.357 -2.69526 -2.68581 0
M  V30 2016 H 190.869 -3.7023 -1.16411 0
M  V30 2017 H 188.97 -2.12581 -3.06007 0
M  V30 2018 H 189.083 -3.9713 -2.68001 0
M  V30 2019 H 187.447 -2.05558 -1.50393 0
M  V30 2020 H 188.23 -3.39565 -0.505014 0
M  V30 2021 N 190.675 0.682077 -1.42076 0
M  V30 2022 C 191.952 1.43755 -1.32642 0
M  V30 2023 C 192.332 2.11063 0.0396611 0
M  V30 2024 O 191.68 2.02701 1.05474 0
M  V30 2025 C 191.89 2.44596 -2.48946 0
M  V30 2026 C 193.238 3.09454 -2.9073 0
M  V30 2027 O 194.262 2.54922 -2.48783 0
M  V30 2028 O 193.121 4.08253 -3.63307 0
M  V30 2029 H 190.215 0.640857 -0.522715 0
M  V30 2030 H 192.761 0.711415 -1.54068 0
M  V30 2031 H 191.533 1.93609 -3.40046 0
M  V30 2032 H 191.156 3.24701 -2.29467 0
M  V30 2033 N 192.153 1.28127 0.917671 0
M  V30 2034 C 193.083 1.14248 2.03641 0
M  V30 2035 C 194.064 0.0412748 1.7005 0
M  V30 2036 O 195.249 0.217566 1.92977 0
M  V30 2037 C 192.379 0.799431 3.37974 0
M  V30 2038 C 191.333 1.85497 3.85713 0
M  V30 2039 C 190.659 1.36565 5.16966 0
M  V30 2040 C 191.959 3.26085 4.08002 0
M  V30 2041 H 193.653 2.07835 2.15511 0
M  V30 2042 H 191.199 1.00064 1.03553 0
M  V30 2043 H 193.152 0.689114 4.15727 0
M  V30 2044 H 191.876 -0.172145 3.26146 0
M  V30 2045 H 190.535 1.95437 3.10161 0
M  V30 2046 H 190.183 0.383253 5.01538 0
M  V30 2047 H 189.883 2.07143 5.49878 0
M  V30 2048 H 191.407 1.26848 5.97279 0
M  V30 2049 H 192.821 3.19089 4.76293 0
M  V30 2050 H 191.218 3.94462 4.52238 0
M  V30 2051 H 192.288 3.70394 3.12948 0
M  V30 2052 N 193.631 -1.12557 1.10312 0
M  V30 2053 C 194.859 -1.87864 0.866873 0
M  V30 2054 C 195.274 -1.79588 -0.582557 0
M  V30 2055 O 194.631 -1.16887 -1.40156 0
M  V30 2056 C 194.682 -3.37125 1.30496 0
M  V30 2057 O 194.403 -3.45201 2.69755 0
M  V30 2058 C 195.904 -4.29373 1.10243 0
M  V30 2059 H 193.124 -0.594452 0.311236 0
M  V30 2060 H 195.668 -1.42429 1.46745 0
M  V30 2061 H 193.823 -3.80109 0.748081 0
M  V30 2062 H 194.237 -4.38056 2.88457 0
M  V30 2063 H 195.711 -5.32394 1.45811 0
M  V30 2064 H 196.188 -4.39181 0.0409492 0
M  V30 2065 H 196.794 -3.92169 1.64571 0
M  V30 2066 N 195.109 -0.891671 -1.2995 0
M  V30 2067 C 196.337 -0.52866 -2.00032 0
M  V30 2068 C 196.752 0.884574 -1.66795 0
M  V30 2069 O 196.109 1.5827 -0.908669 0
M  V30 2070 C 196.16 -0.701814 -3.54622 0
M  V30 2071 O 195.881 -2.05942 -3.86678 0
M  V30 2072 C 197.382 -0.342683 -4.41973 0
M  V30 2073 H 194.602 -0.203659 -0.639347 0
M  V30 2074 H 197.146 -1.19881 -1.65677 0
M  V30 2075 H 195.301 -0.0789468 -3.8732 0
M  V30 2076 H 195.715 -2.08291 -4.81368 0
M  V30 2077 H 197.189 -0.514709 -5.49595 0
M  V30 2078 H 197.666 0.71975 -4.33262 0
M  V30 2079 H 198.272 -0.942154 -4.14733 0
M  V30 2080 N 196.587 1.43421 -0.653314 0
M  V30 2081 C 197.534 2.30768 0.0382271 0
M  V30 2082 C 198.504 1.44755 0.814576 0
M  V30 2083 O 199.689 1.73624 0.791162 0
M  V30 2084 C 196.829 3.30336 0.998599 0
M  V30 2085 C 195.942 4.31448 0.218342 0
M  V30 2086 C 195.077 5.18098 1.17252 0
M  V30 2087 C 194.116 6.10902 0.382702 0
M  V30 2088 N 193.253 6.90176 1.28848 0
M  V30 2089 H 198.093 2.89357 -0.712511 0
M  V30 2090 H 195.63 1.42548 -0.363128 0
M  V30 2091 H 197.588 3.86572 1.56901 0
M  V30 2092 H 196.218 2.73397 1.71621 0
M  V30 2093 H 195.27 3.77506 -0.46836 0
M  V30 2094 H 196.582 4.97227 -0.395812 0
M  V30 2095 H 195.736 5.7896 1.81356 0
M  V30 2096 H 194.475 4.52444 1.82058 0
M  V30 2097 H 193.48 5.49128 -0.27169 0
M  V30 2098 H 194.705 6.78598 -0.260957 0
M  V30 2099 H 192.651 6.27171 1.92334 0
M  V30 2100 H 192.568 7.52478 0.728887 0
M  V30 2101 H 193.836 7.55543 1.91766 0
M  V30 2102 N 198.065 0.39524 1.52563 0
M  V30 2103 C 199.293 -0.184943 2.06072 0
M  V30 2104 C 199.708 -1.40021 1.26647 0
M  V30 2105 O 199.065 -1.79767 0.314672 0
M  V30 2106 C 199.116 -0.549179 3.57304 0
M  V30 2107 O 198.837 0.617813 4.33722 0
M  V30 2108 C 200.338 -1.18459 4.2718 0
M  V30 2109 H 197.558 -0.0265025 0.670476 0
M  V30 2110 H 200.102 0.562184 1.96621 0
M  V30 2111 H 198.257 -1.2462 3.66809 0
M  V30 2112 H 198.671 0.317091 5.23541 0
M  V30 2113 H 200.145 -1.38976 5.34219 0
M  V30 2114 H 200.622 -2.15368 3.82771 0
M  V30 2115 H 201.228 -0.528163 4.22008 0
M  V30 2116 N 199.544 -1.57102 0.125237 0
M  V30 2117 C 200.507 -2.14471 -0.80838 0
M  V30 2118 C 201.507 -1.0811 -1.19033 0
M  V30 2119 O 202.697 -1.33856 -1.11482 0
M  V30 2120 C 199.829 -2.69005 -2.09402 0
M  V30 2121 H 201.022 -2.98297 -0.309696 0
M  V30 2122 H 198.575 -1.55807 -0.124051 0
M  V30 2123 H 199.31 -1.88785 -2.63687 0
M  V30 2124 H 199.095 -3.46799 -1.82957 0
M  V30 2125 H 200.585 -3.13278 -2.76128 0
M  V30 2126 N 201.022 0.148545 -1.56898 0
M  V30 2127 C 202.299 0.890019 -1.74178 0
M  V30 2128 C 202.679 1.99407 -0.692839 0
M  V30 2129 O 202.027 2.26671 0.288505 0
M  V30 2130 C 202.237 1.43389 -3.18183 0
M  V30 2131 C 203.585 1.89791 -3.79822 0
M  V30 2132 O 204.609 1.53134 -3.21603 0
M  V30 2133 O 203.468 2.57387 -4.82093 0
M  V30 2134 H 200.562 0.420496 -0.712118 0
M  V30 2135 H 203.108 0.134591 -1.69165 0
M  V30 2136 H 201.88 0.640383 -3.86024 0
M  V30 2137 H 201.503 2.25287 -3.27615 0
M  V30 2138 N 202.5 1.5196 0.417844 0
M  V30 2139 C 203.432 1.70895 1.52733 0
M  V30 2140 C 204.445 0.589405 1.51756 0
M  V30 2141 O 205.634 0.864312 1.56179 0
M  V30 2142 C 202.734 1.72627 2.91639 0
M  V30 2143 C 201.907 3.01479 3.16905 0
M  V30 2144 C 200.966 2.95139 4.35637 0
M  V30 2145 O 199.992 3.69059 4.3334 0
M  V30 2146 N 201.194 2.12328 5.40275 0
M  V30 2147 H 203.959 2.66612 1.36888 0
M  V30 2148 H 201.52 1.50089 0.607037 0
M  V30 2149 H 203.512 1.65928 3.6912 0
M  V30 2150 H 202.082 0.844216 3.00985 0
M  V30 2151 H 201.302 3.21895 2.27546 0
M  V30 2152 H 202.59 3.86736 3.30625 0
M  V30 2153 H 201.988 1.51685 5.44985 0
M  V30 2154 H 200.545 2.11494 6.16534 0
M  V30 2155 N 203.978 -0.674533 1.42435 0
M  V30 2156 C 205.227 -1.43034 1.42212 0
M  V30 2157 C 205.54 -1.95555 0.0420788 0
M  V30 2158 O 206.746 -2.71374 -0.0827558 0
M  V30 2159 C 205.202 -2.58748 2.50155 0
M  V30 2160 C 204.81 -2.12925 3.94166 0
M  V30 2161 C 206.554 -3.36257 2.59098 0
M  V30 2162 C 204.461 -3.25723 4.93618 0
M  V30 2163 H 203.391 -0.537345 0.528939 0
M  V30 2164 H 206.042 -0.73024 1.68344 0
M  V30 2165 H 204.424 -3.31128 2.17188 0
M  V30 2166 H 205.598 -1.47697 4.36488 0
M  V30 2167 H 203.913 -1.48354 3.89076 0
M  V30 2168 H 206.51 -4.20264 3.30578 0
M  V30 2169 H 206.853 -3.82866 1.63461 0
M  V30 2170 H 207.386 -2.70947 2.9126 0
M  V30 2171 H 204.125 -2.84105 5.90732 0
M  V30 2172 H 203.645 -3.89732 4.55926 0
M  V30 2173 H 205.324 -3.91186 5.15347 0
M  V30 2174 N 205.456 -1.28612 -0.910864 0
M  V30 2175 C 206.388 -1.08589 -2.01844 0
M  V30 2176 C 207.401 -0.0367419 -1.62759 0
M  V30 2177 O 208.59 -0.280101 -1.76289 0
M  V30 2178 C 205.69 -0.628626 -3.33019 0
M  V30 2179 C 204.863 -1.75382 -4.00699 0
M  V30 2180 C 203.922 -1.28945 -5.10156 0
M  V30 2181 O 202.948 -1.9922 -5.33198 0
M  V30 2182 N 204.15 -0.154224 -5.80295 0
M  V30 2183 H 206.915 -2.03973 -2.19579 0
M  V30 2184 H 204.476 -1.20403 -1.08234 0
M  V30 2185 H 206.468 -0.301508 -4.03575 0
M  V30 2186 H 205.038 0.232451 -3.11735 0
M  V30 2187 H 204.258 -2.25039 -3.23653 0
M  V30 2188 H 205.546 -2.50854 -4.42662 0
M  V30 2189 H 204.944 0.43194 -5.64049 0
M  V30 2190 H 203.501 0.113599 -6.51701 0
M  V30 2191 N 206.934 1.1197 -1.10907 0
M  V30 2192 C 208.211 1.79959 -0.766432 0
M  V30 2193 C 208.591 1.97466 0.746363 0
M  V30 2194 O 207.939 1.55491 1.67436 0
M  V30 2195 C 208.149 3.14009 -1.52314 0
M  V30 2196 C 209.497 3.89134 -1.69883 0
M  V30 2197 O 210.521 3.2368 -1.48692 0
M  V30 2198 O 209.38 5.06572 -2.05054 0
M  V30 2199 H 206.474 0.779208 -0.277062 0
M  V30 2200 H 209.02 1.18762 -1.21217 0
M  V30 2201 H 207.792 2.96587 -2.55249 0
M  V30 2202 H 207.415 3.82915 -1.07059 0
M  V30 2203 N 208.412 0.89855 1.29475 0
M  V30 2204 C 209.322 0.379974 2.31502 0
M  V30 2205 C 210.338 -0.524695 1.659 0
M  V30 2206 O 211.514 -0.414551 1.97087 0
M  V30 2207 C 208.579 -0.385138 3.44554 0
M  V30 2208 C 207.64 0.550914 4.2575 0
M  V30 2209 C 206.873 -0.177778 5.33404 0
M  V30 2210 O 207.096 -1.40189 5.52904 0
M  V30 2211 O 206.03 0.479106 5.9999 0
M  V30 2212 H 209.856 1.22639 2.77837 0
M  V30 2213 H 207.441 0.662834 1.33891 0
M  V30 2214 H 209.323 -0.817841 4.13388 0
M  V30 2215 H 207.998 -1.20763 3.0033 0
M  V30 2216 H 206.905 1.03271 3.59564 0
M  V30 2217 H 208.238 1.33979 4.73614 0
M  V30 2218 N 209.89 -1.43072 0.660911 0
M  V30 2219 C 210.82 -2.33497 -0.0122829 0
M  V30 2220 C 211.801 -1.49903 -0.803925 0
M  V30 2221 O 212.986 -1.78546 -0.763864 0
M  V30 2222 C 210.116 -3.33363 -0.973994 0
M  V30 2223 C 209.07 -4.27003 -0.291928 0
M  V30 2224 C 208.396 -5.16967 -1.36562 0
M  V30 2225 C 209.696 -5.15816 0.820462 0
M  V30 2226 H 211.39 -2.90038 0.742873 0
M  V30 2227 H 208.936 -1.39461 0.358688 0
M  V30 2228 H 210.889 -3.95524 -1.45392 0
M  V30 2229 H 209.613 -2.75095 -1.7604 0
M  V30 2230 H 208.272 -3.66217 0.167623 0
M  V30 2231 H 207.92 -4.55034 -2.14366 0
M  V30 2232 H 207.62 -5.80441 -0.914454 0
M  V30 2233 H 209.144 -5.82003 -1.84675 0
M  V30 2234 H 210.558 -5.71742 0.422366 0
M  V30 2235 H 208.955 -5.8805 1.19656 0
M  V30 2236 H 210.025 -4.55045 1.67518 0
M  V30 2237 N 211.368 -0.403325 -1.52352 0
M  V30 2238 C 212.645 0.232611 -1.94212 0
M  V30 2239 C 213.025 1.63133 -1.33981 0
M  V30 2240 O 212.373 2.22659 -0.513344 0
M  V30 2241 C 212.583 0.244811 -3.4814 0
M  V30 2242 C 213.931 0.46698 -4.22024 0
M  V30 2243 O 214.955 0.324419 -3.5472 0
M  V30 2244 O 213.814 0.74747 -5.41364 0
M  V30 2245 H 210.908 0.148223 -0.813609 0
M  V30 2246 H 213.454 -0.458848 -1.63379 0
M  V30 2247 H 212.226 -0.734378 -3.84347 0
M  V30 2248 H 211.849 0.980611 -3.85318 0
M  V30 2249 N 212.846 1.57033 -0.133567 0
M  V30 2250 C 214.071 2.00475 0.531477 0
M  V30 2251 C 214.496 1.01291 1.58499 0
M  V30 2252 O 213.854 -0.0133279 1.81295 0
M  V30 2253 C 213.902 3.42729 1.12113 0
M  V30 2254 O 213.006 3.46498 2.23636 0
M  V30 2255 H 212.347 0.650876 0.131362 0
M  V30 2256 H 214.877 2.03344 -0.22634 0
M  V30 2257 H 214.887 3.81246 1.4531 0
M  V30 2258 H 213.562 4.14428 0.349557 0
M  V30 2259 H 212.139 3.19811 1.91769 0
M  V30 2260 N 214.325 -0.140222 1.56975 0
M  V30 2261 C 215.571 -0.852949 1.83991 0
M  V30 2262 C 215.904 -1.80512 0.716187 0
M  V30 2263 O 215.179 -1.92479 -0.279681 0
M  V30 2264 C 215.462 -1.6215 3.21527 0
M  V30 2265 C 215.315 -0.690363 4.4447 0
M  V30 2266 C 216.634 -2.58247 3.56366 0
M  V30 2267 H 213.753 -0.308634 0.669264 0
M  V30 2268 H 216.395 -0.117898 1.89634 0
M  V30 2269 H 214.545 -2.24812 3.16847 0
M  V30 2270 H 216.217 -0.0742264 4.6124 0
M  V30 2271 H 214.46 -0.000396433 4.338 0
M  V30 2272 H 215.131 -1.2643 5.37326 0
M  V30 2273 H 217.607 -2.05701 3.61699 0
M  V30 2274 H 216.483 -3.09067 4.53617 0
M  V30 2275 H 216.744 -3.39923 2.82674 0
M  V30 2276 N 215.803 -1.52179 -0.40978 0
M  V30 2277 C 216.751 -1.76086 -1.51975 0
M  V30 2278 C 217.745 -0.627964 -1.57331 0
M  V30 2279 O 218.951 -0.809993 -1.60745 0
M  V30 2280 H 215.326 -0.556829 -0.505416 0
M  V30 2281 H 217.297 -2.69077 -1.28996 0
M  V30 2282 C 216.046 -1.92799 -2.8935 0
M  V30 2283 H 215.369 -2.79392 -2.85972 0
M  V30 2284 H 216.809 -2.13527 -3.66309 0
M  V30 2285 C 215.268 -0.694923 -3.29655 0
M  V30 2286 O 215.798 0.13751 -4.01465 0
M  V30 2287 N 214.004 -0.53101 -2.85707 0
M  V30 2288 H 213.551 -1.20952 -2.27439 0
M  V30 2289 H 213.509 0.292718 -3.13034 0
M  V30 2290 N 217.281 0.66697 -1.42791 0
M  V30 2291 C 218.191 1.80962 -1.49299 0
M  V30 2292 C 219.207 1.69775 -0.381108 0
M  V30 2293 O 220.383 1.91188 -0.633188 0
M  V30 2294 C 217.448 3.17156 -1.40045 0
M  V30 2295 C 216.509 3.40242 -2.6179 0
M  V30 2296 C 215.742 4.69939 -2.52969 0
M  V30 2297 O 215.965 5.48372 -1.56985 0
M  V30 2298 O 214.899 4.94441 -3.43237 0
M  V30 2299 H 218.725 1.78427 -2.45759 0
M  V30 2300 H 216.31 0.823713 -1.24641 0
M  V30 2301 H 218.192 3.98413 -1.37276 0
M  V30 2302 H 216.867 3.20312 -0.467138 0
M  V30 2303 H 215.774 2.58802 -2.70134 0
M  V30 2304 H 217.107 3.41923 -3.54047 0
M  V30 2305 N 218.759 1.29093 0.90403 0
M  V30 2306 C 219.669 1.15727 2.0407 0
M  V30 2307 C 220.685 0.0815308 1.73809 0
M  V30 2308 O 221.861 0.292749 1.99261 0
M  V30 2309 C 218.926 0.830424 3.36608 0
M  V30 2310 C 217.987 1.98955 3.80415 0
M  V30 2311 C 217.22 1.6782 5.06628 0
M  V30 2312 O 217.443 0.597105 5.67266 0
M  V30 2313 O 216.377 2.52486 5.46383 0
M  V30 2314 H 220.203 2.11171 2.18267 0
M  V30 2315 H 217.788 1.08504 1.027 0
M  V30 2316 H 219.67 0.662521 4.16159 0
M  V30 2317 H 218.345 -0.0942678 3.23563 0
M  V30 2318 H 217.252 2.21267 3.01648 0
M  V30 2319 H 218.585 2.89529 3.98037 0
M  V30 2320 N 220.237 -1.11381 1.11499 0
M  V30 2321 C 221.483 -1.83403 0.865512 0
M  V30 2322 C 221.816 -1.84459 -0.607329 0
M  V30 2323 O 221.091 -1.29811 -1.44842 0
M  V30 2324 C 221.374 -3.30552 1.42855 0
M  V30 2325 C 221.227 -3.37886 2.96906 0
M  V30 2326 C 222.546 -4.26643 1.08 0
M  V30 2327 H 219.665 -0.665879 0.31587 0
M  V30 2328 H 222.307 -1.30601 1.37998 0
M  V30 2329 H 220.457 -3.75648 0.990985 0
M  V30 2330 H 222.129 -3.01343 3.49271 0
M  V30 2331 H 220.372 -2.78088 3.32941 0
M  V30 2332 H 221.043 -4.41458 3.31389 0
M  V30 2333 H 223.519 -3.89729 1.45775 0
M  V30 2334 H 222.395 -5.27986 1.50072 0
M  V30 2335 H 222.656 -4.42099 -0.00915037 0
M  V30 2336 N 221.715 -0.905404 -1.28997 0
M  V30 2337 C 222.945 -0.549049 -1.99171 0
M  V30 2338 C 223.353 0.87203 -1.67906 0
M  V30 2339 O 222.696 1.58796 -0.923561 0
M  V30 2340 C 222.758 -0.668306 -3.53234 0
M  V30 2341 C 222.422 -2.0574 -4.08069 0
M  V30 2342 C 223.419 -3.0292 -4.22534 0
M  V30 2343 C 221.104 -2.36833 -4.42962 0
M  V30 2344 C 223.098 -4.29314 -4.71135 0
M  V30 2345 C 220.785 -3.63467 -4.91258 0
M  V30 2346 C 221.783 -4.59522 -5.053 0
M  V30 2347 O 221.471 -5.83907 -5.52546 0
M  V30 2348 H 221.203 -0.208784 -0.64295 0
M  V30 2349 H 223.757 -1.21836 -1.65363 0
M  V30 2350 H 221.987 0.0580547 -3.86656 0
M  V30 2351 H 223.676 -0.320273 -4.04634 0
M  V30 2352 H 224.442 -2.80216 -3.95859 0
M  V30 2353 H 220.321 -1.62824 -4.31288 0
M  V30 2354 H 223.865 -5.04293 -4.8201 0
M  V30 2355 H 219.762 -3.86 -5.17372 0
M  V30 2356 H 220.53 -5.86578 -5.70849 0
M  V30 2357 N 223.193 1.4272 -0.668489 0
M  V30 2358 C 224.14 2.30796 0.0137489 0
M  V30 2359 C 225.11 1.4561 0.799177 0
M  V30 2360 O 226.295 1.74453 0.772702 0
M  V30 2361 C 223.435 3.31377 0.963507 0
M  V30 2362 C 222.548 4.31655 0.172569 0
M  V30 2363 C 221.683 5.19312 1.1175 0
M  V30 2364 C 220.722 6.11274 0.317886 0
M  V30 2365 N 219.859 6.91504 1.2152 0
M  V30 2366 H 224.699 2.88585 -0.743161 0
M  V30 2367 H 222.236 1.42154 -0.378226 0
M  V30 2368 H 224.194 3.88214 1.52792 0
M  V30 2369 H 222.824 2.75202 1.68712 0
M  V30 2370 H 221.876 3.76988 -0.508374 0
M  V30 2371 H 223.188 4.96779 -0.448527 0
M  V30 2372 H 222.342 5.80851 1.75206 0
M  V30 2373 H 221.081 4.5435 1.77249 0
M  V30 2374 H 220.086 5.48809 -0.329918 0
M  V30 2375 H 221.311 6.78283 -0.332917 0
M  V30 2376 H 219.257 6.29176 1.85671 0
M  V30 2377 H 219.174 7.53209 0.649036 0
M  V30 2378 H 220.442 7.57535 1.83742 0
M  V30 2379 N 224.671 0.411399 1.52136 0
M  V30 2380 C 225.92 -0.165009 2.01024 0
M  V30 2381 C 226.233 -1.4603 1.30133 0
M  V30 2382 O 227.439 -2.1181 1.69849 0
M  V30 2383 C 225.895 -0.344618 3.58246 0
M  V30 2384 C 225.503 0.938716 4.38055 0
M  V30 2385 C 227.247 -0.876195 4.15359 0
M  V30 2386 C 225.154 0.726172 5.86925 0
M  V30 2387 H 224.084 -0.0654407 0.751155 0
M  V30 2388 H 226.735 0.537192 1.75461 0
M  V30 2389 H 225.117 -1.10921 3.80148 0
M  V30 2390 H 226.291 1.70963 4.27912 0
M  V30 2391 H 224.606 1.39688 3.92271 0
M  V30 2392 H 227.203 -1.05128 5.24263 0
M  V30 2393 H 227.546 -1.85152 3.7286 0
M  V30 2394 H 228.079 -0.170607 3.97434 0
M  V30 2395 H 224.818 1.67312 6.33788 0
M  V30 2396 H 224.338 -0.00540283 5.998 0
M  V30 2397 H 226.017 0.369231 6.45946 0
M  V30 2398 N 226.149 -1.5696 0.141893 0
M  V30 2399 C 227.377 -2.00322 -0.517579 0
M  V30 2400 C 227.792 -1.02193 -1.58752 0
M  V30 2401 O 227.149 -0.0181619 -1.82491 0
M  V30 2402 C 227.2 -3.43618 -1.12289 0
M  V30 2403 O 226.921 -4.37995 -0.0956929 0
M  V30 2404 C 228.422 -4.02231 -1.86347 0
M  V30 2405 H 225.642 -0.657243 -0.135177 0
M  V30 2406 H 228.186 -2.03146 0.234973 0
M  V30 2407 H 226.341 -3.41662 -1.82609 0
M  V30 2408 H 226.755 -5.21729 -0.538469 0
M  V30 2409 H 228.229 -5.04509 -2.23997 0
M  V30 2410 H 228.706 -3.42655 -2.74744 0
M  V30 2411 H 229.312 -4.07802 -1.20737 0
M  V30 2412 N 227.627 0.131896 -1.57047 0
M  V30 2413 C 228.875 0.840269 -1.83804 0
M  V30 2414 C 229.196 1.81017 -0.72512 0
M  V30 2415 O 228.466 1.94272 0.251995 0
M  V30 2416 H 227.046 0.313294 -0.678127 0
M  V30 2417 H 229.708 0.122294 -1.94516 0
M  V30 2418 H 228.804 1.39335 -2.79271 0
M  V30 2419 N 229.106 1.52395 0.401703 0
M  V30 2420 C 230.053 1.76268 1.48991 0
M  V30 2421 C 231.023 0.605386 1.54675 0
M  V30 2422 O 232.208 0.843742 1.7113 0
M  V30 2423 C 229.348 1.92592 2.86361 0
M  V30 2424 C 228.461 3.20259 2.89928 0
M  V30 2425 C 227.596 3.26972 4.18644 0
M  V30 2426 C 226.635 4.48812 4.16214 0
M  V30 2427 N 225.772 4.52877 5.36514 0
M  V30 2428 H 230.612 2.6914 1.27935 0
M  V30 2429 H 228.149 1.33355 0.620871 0
M  V30 2430 H 230.107 2.0004 3.66115 0
M  V30 2431 H 228.737 1.03093 3.05895 0
M  V30 2432 H 227.789 3.21945 2.02621 0
M  V30 2433 H 229.101 4.10056 2.83999 0
M  V30 2434 H 228.255 3.33533 5.06794 0
M  V30 2435 H 226.994 2.35126 4.27278 0
M  V30 2436 H 225.999 4.4239 3.26453 0
M  V30 2437 H 227.224 5.41961 4.09213 0
M  V30 2438 H 225.17 3.63917 5.45802 0
M  V30 2439 H 225.087 5.36529 5.32609 0
M  V30 2440 H 226.355 4.63676 6.26597 0
M  V30 2441 N 230.584 -0.659388 1.43143 0
M  V30 2442 C 231.516 -1.7849 1.43784 0
M  V30 2443 C 232.529 -1.5932 0.334787 0
M  V30 2444 O 233.718 -1.68155 0.598842 0
M  V30 2445 C 230.818 -3.15828 1.22906 0
M  V30 2446 C 229.991 -3.61711 2.45934 0
M  V30 2447 C 229.05 -4.77831 2.20371 0
M  V30 2448 O 228.076 -4.87586 2.93681 0
M  V30 2449 N 229.278 -5.67611 1.21647 0
M  V30 2450 H 232.043 -1.7842 2.40803 0
M  V30 2451 H 229.604 -0.84302 1.3822 0
M  V30 2452 H 231.596 -3.91189 1.03697 0
M  V30 2453 H 230.166 -3.10707 0.343542 0
M  V30 2454 H 229.386 -2.76861 2.80609 0
M  V30 2455 H 230.674 -3.89112 3.27825 0
M  V30 2456 H 230.072 -5.62397 0.610449 0
M  V30 2457 H 228.629 -6.42719 1.08423 0
M  V30 2458 N 232.062 -1.29571 -0.897171 0
M  V30 2459 C 233.339 -1.08365 -1.62839 0
M  V30 2460 C 233.719 0.371331 -2.07808 0
M  V30 2461 O 233.067 1.3606 -1.83576 0
M  V30 2462 C 233.277 -2.0735 -2.80726 0
M  V30 2463 C 234.625 -2.38406 -3.51351 0
M  V30 2464 O 235.649 -2.05564 -2.90898 0
M  V30 2465 O 234.508 -2.9453 -4.60341 0
M  V30 2466 H 231.602 -0.415345 -0.715134 0
M  V30 2467 H 234.148 -1.40952 -0.945018 0
M  V30 2468 H 232.92 -3.05339 -2.44711 0
M  V30 2469 H 232.543 -1.75507 -3.56767 0
M  V30 2470 N 233.54 1.10788 -1.12088 0
M  V30 2471 C 234.488 2.19111 -0.780587 0
M  V30 2472 C 235.482 1.67818 0.230961 0
M  V30 2473 O 236.688 1.79777 0.0895427 0
M  V30 2474 H 233.063 0.714477 -0.234578 0
M  V30 2475 H 235.034 2.45055 -1.70266 0
M  V30 2476 C 233.783 3.46818 -0.24747 0
M  V30 2477 H 233.106 3.86646 -1.01712 0
M  V30 2478 H 234.546 4.23973 -0.0476291 0
M  V30 2479 C 233.005 3.20968 1.02378 0
M  V30 2480 O 233.535 3.42298 2.10226 0
M  V30 2481 N 231.741 2.74658 0.949271 0
M  V30 2482 H 231.288 2.57501 0.0715173 0
M  V30 2483 H 231.246 2.57739 1.80049 0
M  V30 2484 N 235.018 0.912232 1.28515 0
M  V30 2485 C 235.948 0.416403 2.29757 0
M  V30 2486 C 236.929 -0.515194 1.6211 0
M  V30 2487 O 238.114 -0.423253 1.89532 0
M  V30 2488 C 235.244 -0.34572 3.45575 0
M  V30 2489 C 234.198 0.496599 4.25109 0
M  V30 2490 C 233.524 -0.393771 5.33248 0
M  V30 2491 C 234.824 1.75307 4.92001 0
M  V30 2492 H 236.518 1.26249 2.7148 0
M  V30 2493 H 234.064 0.608515 1.30511 0
M  V30 2494 H 236.017 -0.703422 4.15488 0
M  V30 2495 H 234.741 -1.2257 3.02728 0
M  V30 2496 H 233.4 0.8368 3.56922 0
M  V30 2497 H 233.048 -1.27225 4.86644 0
M  V30 2498 H 232.748 0.166209 5.87365 0
M  V30 2499 H 234.272 -0.747389 6.06009 0
M  V30 2500 H 235.686 1.46437 5.54283 0
M  V30 2501 H 234.083 2.25534 5.56106 0
M  V30 2502 H 235.153 2.48176 4.16577 0
M  V30 2503 N 236.496 -1.42363 0.676048 0
M  V30 2504 C 237.726 -2.05561 0.206967 0
M  V30 2505 C 238.134 -1.50887 -1.14148 0
M  V30 2506 O 237.477 -0.643933 -1.72044 0
M  V30 2507 C 237.539 -3.5944 0.0659508 0
M  V30 2508 C 237.203 -4.36812 1.34331 0
M  V30 2509 C 238.2 -4.67383 2.27704 0
M  V30 2510 C 235.885 -4.76429 1.59125 0
M  V30 2511 C 237.879 -5.36509 3.44147 0
M  V30 2512 C 235.566 -5.45294 2.75857 0
M  V30 2513 C 236.564 -5.75259 3.68193 0
M  V30 2514 O 236.252 -6.42712 4.82883 0
M  V30 2515 H 235.984 -0.668872 0.0979084 0
M  V30 2516 H 238.538 -1.83467 0.923531 0
M  V30 2517 H 236.768 -3.80197 -0.706204 0
M  V30 2518 H 238.457 -4.0427 -0.363418 0
M  V30 2519 H 239.223 -4.37275 2.09799 0
M  V30 2520 H 235.102 -4.52498 0.881258 0
M  V30 2521 H 238.646 -5.59814 4.16238 0
M  V30 2522 H 234.543 -5.7482 2.93688 0
M  V30 2523 H 235.311 -6.61204 4.82444 0
M  V30 2524 N 237.974 -0.419461 -1.51915 0
M  V30 2525 C 238.904 0.391813 -2.30189 0
M  V30 2526 C 239.885 1.03699 -1.34836 0
M  V30 2527 O 241.07 1.04403 -1.63748 0
M  V30 2528 C 238.2 1.50312 -3.13087 0
M  V30 2529 C 237.154 0.9824 -4.16573 0
M  V30 2530 C 236.48 2.18809 -4.8788 0
M  V30 2531 C 237.78 0.0292356 -5.22292 0
M  V30 2532 H 239.474 -0.26135 -2.98257 0
M  V30 2533 H 237.02 -0.127134 -1.43438 0
M  V30 2534 H 238.973 2.07773 -3.66617 0
M  V30 2535 H 237.697 2.18431 -2.42807 0
M  V30 2536 H 236.356 0.430119 -3.64068 0
M  V30 2537 H 236.004 2.85507 -4.14119 0
M  V30 2538 H 235.704 1.84615 -5.57845 0
M  V30 2539 H 237.228 2.76858 -5.44226 0
M  V30 2540 H 238.642 0.512976 -5.71 0
M  V30 2541 H 237.039 -0.2244 -5.9968 0
M  V30 2542 H 238.109 -0.912931 -4.76228 0
M  V30 2543 N 239.452 1.56882 -0.150215 0
M  V30 2544 C 240.868 1.58263 0.20617 0
M  V30 2545 C 241.068 1.16464 1.64434 0
M  V30 2546 O 240.124 0.866422 2.3717 0
M  V30 2547 C 241.437 3.00649 -0.0555025 0
M  V30 2548 C 242.985 3.12999 0.00795388 0
M  V30 2549 C 243.46 4.5744 -0.226429 0
M  V30 2550 N 244.951 4.62875 -0.173469 0
M  V30 2551 C 245.686 5.72454 -0.329288 0
M  V30 2552 N 245.182 6.90669 -0.543005 0
M  V30 2553 N 246.975 5.61467 -0.266666 0
M  V30 2554 H 239.126 1.82345 -1.08922 0
M  V30 2555 H 241.389 0.844149 -0.431413 0
M  V30 2556 H 241.095 3.3563 -1.05096 0
M  V30 2557 H 240.969 3.71337 0.66246 0
M  V30 2558 H 243.356 2.77857 0.993966 0
M  V30 2559 H 243.437 2.4479 -0.742388 0
M  V30 2560 H 243.081 4.93287 -1.20956 0
M  V30 2561 H 243.011 5.2378 0.544274 0
M  V30 2562 H 245.502 3.77898 -0.0130709 0
M  V30 2563 H 245.815 7.70045 -0.651922 0
M  V30 2564 H 244.16 6.92581 -0.579366 0
M  V30 2565 H 247.351 4.67992 -0.100441 0
M  V30 2566 H 247.524 6.46816 -0.391535 0
M  V30 2567 N 240.93 -0.123565 1.57115 0
M  V30 2568 C 242.341 -0.681198 1.73829 0
M  V30 2569 C 242.692 -1.80535 0.768214 0
M  V30 2570 O 241.817 -2.16317 -0.0599103 0
M  V30 2571 C 242.412 -1.24246 3.15196 0
M  V30 2572 C 240.971 -1.74643 3.33432 0
M  V30 2573 C 240.118 -0.644284 2.69711 0
M  V30 2574 H 243.069 0.102315 1.5837 0
M  V30 2575 H 243.09 -2.11216 3.16493 0
M  V30 2576 H 242.602 -0.424062 3.85776 0
M  V30 2577 H 240.703 -2.58974 2.67886 0
M  V30 2578 H 240.816 -1.85902 4.41562 0
M  V30 2579 H 239.18 -1.07676 2.3082 0
M  V30 2580 H 239.963 0.163058 3.42913 0
M  V30 2581 N 242.408 -1.52605 -0.393616 0
M  V30 2582 C 243.819 -1.59417 -0.971761 0
M  V30 2583 C 244.17 -0.444173 -1.91106 0
M  V30 2584 O 243.295 0.433382 -2.12016 0
M  V30 2585 C 243.89 -2.88936 -1.76921 0
M  V30 2586 C 242.449 -2.98175 -2.29714 0
M  V30 2587 C 241.596 -2.54491 -1.10135 0
M  V30 2588 H 244.547 -1.57751 -0.173317 0
M  V30 2589 H 244.568 -2.75163 -2.62804 0
M  V30 2590 H 244.08 -3.72616 -1.08532 0
M  V30 2591 H 242.181 -2.19024 -3.01429 0
M  V30 2592 H 242.294 -4.02726 -2.59517 0
M  V30 2593 H 240.658 -2.08702 -1.45999 0
M  V30 2594 H 241.441 -3.4056 -0.432874 0
M  V30 2595 N 243.887 0.651787 -1.4349 0
M  V30 2596 C 245.303 0.96762 -1.26922 0
M  V30 2597 C 245.503 2.00602 -0.189982 0
M  V30 2598 O 244.559 2.48793 0.431107 0
M  V30 2599 C 245.872 1.45052 -2.63401 0
M  V30 2600 C 247.42 1.5671 -2.70945 0
M  V30 2601 C 247.895 2.0839 -4.07845 0
M  V30 2602 N 249.386 2.1569 -4.09917 0
M  V30 2603 C 250.121 2.56804 -5.12679 0
M  V30 2604 N 249.617 2.97203 -6.25813 0
M  V30 2605 N 251.41 2.56756 -5.00033 0
M  V30 2606 H 243.561 -0.0353158 -2.12371 0
M  V30 2607 H 245.824 0.0467858 -0.946845 0
M  V30 2608 H 245.53 0.761926 -3.43348 0
M  V30 2609 H 245.404 2.42529 -2.88894 0
M  V30 2610 H 247.791 2.2467 -1.9133 0
M  V30 2611 H 247.872 0.57662 -2.49216 0
M  V30 2612 H 247.516 1.41031 -4.87927 0
M  V30 2613 H 247.446 3.08271 -4.26938 0
M  V30 2614 H 249.937 1.87237 -3.28254 0
M  V30 2615 H 250.25 3.27328 -7.00055 0
M  V30 2616 H 248.595 2.95004 -6.29283 0
M  V30 2617 H 251.786 2.24572 -4.10713 0
M  V30 2618 H 251.959 2.88475 -5.80247 0
M  V30 2619 N 245.365 1.30045 0.890287 0
M  V30 2620 C 246.613 1.18327 1.63839 0
M  V30 2621 C 246.934 -0.263455 1.93212 0
M  V30 2622 O 246.204 -1.17856 1.56482 0
M  V30 2623 H 244.784 0.434933 0.607324 0
M  V30 2624 H 247.446 1.631 1.06698 0
M  V30 2625 H 246.542 1.74024 2.59079 0
M  V30 2626 N 246.843 -1.10192 1.12674 0
M  V30 2627 C 248.089 -1.82475 0.884915 0
M  V30 2628 C 248.422 -1.85093 -0.58773 0
M  V30 2629 O 247.697 -1.3134 -1.43457 0
M  V30 2630 C 247.98 -3.29018 1.46353 0
M  V30 2631 C 247.833 -3.34718 3.00473 0
M  V30 2632 C 249.152 -4.25473 1.12519 0
M  V30 2633 H 246.271 -0.662492 0.322915 0
M  V30 2634 H 248.913 -1.2913 1.39375 0
M  V30 2635 H 247.063 -3.74576 1.03077 0
M  V30 2636 H 248.735 -2.97622 3.52447 0
M  V30 2637 H 246.978 -2.74541 3.35872 0
M  V30 2638 H 247.649 -4.37918 3.36053 0
M  V30 2639 H 250.125 -3.88161 1.499 0
M  V30 2640 H 249.001 -5.26365 1.55663 0
M  V30 2641 H 249.262 -4.42084 0.0377407 0
M  V30 2642 N 248.321 -0.919034 -1.28029 0
M  V30 2643 C 249.568 -0.554934 -1.94748 0
M  V30 2644 C 249.896 0.90231 -1.72304 0
M  V30 2645 O 249.151 1.65767 -1.04018 0
M  V30 2646 C 249.45 -0.816855 -3.4794 0
M  V30 2647 C 249.116 -2.25448 -3.90492 0
M  V30 2648 C 247.778 -2.64752 -4.01821 0
M  V30 2649 C 250.13 -3.18977 -4.12193 0
M  V30 2650 C 247.458 -3.96727 -4.32232 0
M  V30 2651 C 249.81 -4.50523 -4.44086 0
M  V30 2652 C 248.474 -4.89673 -4.53626 0
M  V30 2653 H 247.744 -0.203065 -0.712633 0
M  V30 2654 H 250.391 -1.16136 -1.52265 0
M  V30 2655 H 248.696 -0.127677 -3.91592 0
M  V30 2656 H 250.393 -0.514238 -3.97689 0
M  V30 2657 H 246.983 -1.93952 -3.82205 0
M  V30 2658 H 251.167 -2.89817 -4.02889 0
M  V30 2659 H 246.423 -4.26754 -4.37825 0
M  V30 2660 H 250.597 -5.23005 -4.59825 0
M  V30 2661 H 248.224 -5.91969 -4.76946 0
M  V30 2662 N 249.799 1.42003 -0.683588 0
M  V30 2663 C 251.024 2.06265 -0.216647 0
M  V30 2664 C 251.449 1.51059 1.12083 0
M  V30 2665 O 250.807 0.632638 1.69904 0
M  V30 2666 C 250.855 3.60191 -0.171759 0
M  V30 2667 O 249.959 4.03396 0.857069 0
M  V30 2668 H 249.3 0.65502 -0.108834 0
M  V30 2669 H 251.83 1.81982 -0.935077 0
M  V30 2670 H 251.84 4.08 0.0014303 0
M  V30 2671 H 250.515 3.99743 -1.14796 0
M  V30 2672 H 249.092 3.67117 0.654208 0
M  V30 2673 N 251.277 0.427512 1.51691 0
M  V30 2674 C 252.187 -0.39527 2.31246 0
M  V30 2675 C 253.203 -1.03674 1.39742 0
M  V30 2676 O 254.379 -1.03425 1.72816 0
M  V30 2677 C 251.444 -1.48706 3.13189 0
M  V30 2678 C 250.505 -0.866743 4.20459 0
M  V30 2679 C 249.738 -1.90651 4.98486 0
M  V30 2680 O 249.961 -3.12733 4.77026 0
M  V30 2681 O 248.895 -1.5025 5.82845 0
M  V30 2682 H 252.721 0.253918 3.02637 0
M  V30 2683 H 250.306 0.190274 1.48183 0
M  V30 2684 H 252.188 -2.12047 3.64162 0
M  V30 2685 H 250.863 -2.12051 2.44573 0
M  V30 2686 H 249.77 -0.195544 3.73589 0
M  V30 2687 H 251.103 -0.276934 4.9142 0
M  V30 2688 N 252.755 -1.56801 0.158532 0
M  V30 2689 C 253.985 -2.00568 -0.495583 0
M  V30 2690 C 254.393 -1.03774 -1.58201 0
M  V30 2691 O 253.736 -0.0285797 -1.83678 0
M  V30 2692 C 253.798 -3.40768 -1.14532 0
M  V30 2693 C 253.462 -4.56553 -0.202101 0
M  V30 2694 C 254.459 -5.16714 0.574675 0
M  V30 2695 C 252.144 -5.02197 -0.101648 0
M  V30 2696 C 254.138 -6.20939 1.43924 0
M  V30 2697 C 251.825 -6.06274 0.766508 0
M  V30 2698 C 252.823 -6.65515 1.53555 0
M  V30 2699 O 252.511 -7.67575 2.38922 0
M  V30 2700 H 252.243 -0.662893 -0.13247 0
M  V30 2701 H 254.797 -2.03829 0.253559 0
M  V30 2702 H 253.027 -3.34381 -1.94233 0
M  V30 2703 H 254.716 -3.6857 -1.70033 0
M  V30 2704 H 255.482 -4.82341 0.507167 0
M  V30 2705 H 251.361 -4.55807 -0.689994 0
M  V30 2706 H 254.905 -6.67107 2.03996 0
M  V30 2707 H 250.802 -6.40073 0.835266 0
M  V30 2708 H 251.57 -7.84844 2.32296 0
M  V30 2709 N 254.233 0.115231 -1.57178 0
M  V30 2710 C 255.479 0.82357 -1.85325 0
M  V30 2711 C 255.812 1.79349 -0.744814 0
M  V30 2712 O 255.087 1.92899 0.249024 0
M  V30 2713 C 255.37 1.57014 -3.24066 0
M  V30 2714 C 255.223 0.619565 -4.45513 0
M  V30 2715 C 256.542 2.52545 -3.60429 0
M  V30 2716 H 253.661 0.297948 -0.674089 0
M  V30 2717 H 256.303 0.0877138 -1.89797 0
M  V30 2718 H 254.453 2.19742 -3.20383 0
M  V30 2719 H 256.125 0.000837639 -4.613 0
M  V30 2720 H 254.368 -0.0686174 -4.33746 0
M  V30 2721 H 255.039 1.17866 -5.3927 0
M  V30 2722 H 257.515 1.9992 -3.64926 0
M  V30 2723 H 256.391 3.01811 -4.58477 0
M  V30 2724 H 256.652 3.35383 -2.88047 0
M  V30 2725 N 255.711 1.52812 0.385517 0
M  V30 2726 C 256.641 1.80808 1.47752 0
M  V30 2727 C 257.622 0.660318 1.5676 0
M  V30 2728 O 258.807 0.908246 1.71652 0
M  V30 2729 C 255.937 1.98008 2.85324 0
M  V30 2730 C 254.891 3.13709 2.91154 0
M  V30 2731 C 254.217 3.16169 4.31209 0
M  V30 2732 C 255.517 4.52709 2.60483 0
M  V30 2733 H 257.211 2.72253 1.24573 0
M  V30 2734 H 254.757 1.31003 0.597839 0
M  V30 2735 H 256.71 2.16176 3.61726 0
M  V30 2736 H 255.434 1.03255 3.09848 0
M  V30 2737 H 254.093 2.95329 2.17201 0
M  V30 2738 H 253.741 2.19092 4.52778 0
M  V30 2739 H 253.441 3.93894 4.36029 0
M  V30 2740 H 254.965 3.36496 5.09512 0
M  V30 2741 H 256.379 4.71173 3.26602 0
M  V30 2742 H 254.776 5.32528 2.76648 0
M  V30 2743 H 255.846 4.59186 1.55809 0
M  V30 2744 N 257.189 -0.644168 1.43834 0
M  V30 2745 C 258.136 -1.75671 1.49694 0
M  V30 2746 C 259.106 -1.6246 0.345809 0
M  V30 2747 O 260.291 -1.82573 0.554234 0
M  V30 2748 C 257.431 -3.13867 1.43463 0
M  V30 2749 C 256.544 -3.38147 2.6885 0
M  V30 2750 C 255.679 -4.66241 2.54544 0
M  V30 2751 C 254.718 -4.83657 3.75157 0
M  V30 2752 N 253.855 -6.03016 3.59605 0
M  V30 2753 H 258.695 -1.69998 2.44754 0
M  V30 2754 H 256.232 -0.829458 1.21484 0
M  V30 2755 H 258.19 -3.9377 1.37843 0
M  V30 2756 H 256.82 -3.18588 0.519783 0
M  V30 2757 H 255.872 -2.52276 2.84712 0
M  V30 2758 H 257.184 -3.46899 3.58417 0
M  V30 2759 H 256.338 -5.54285 2.46683 0
M  V30 2760 H 255.077 -4.59826 1.62516 0
M  V30 2761 H 254.082 -3.94046 3.83416 0
M  V30 2762 H 255.307 -4.91896 4.68204 0
M  V30 2763 H 253.253 -5.97715 2.7032 0
M  V30 2764 H 253.17 -6.12766 4.42779 0
M  V30 2765 H 254.438 -6.93657 3.55613 0
M  V30 2766 N 258.668 -1.30515 -0.883378 0
M  V30 2767 C 259.578 -1.18959 -2.02203 0
M  V30 2768 C 260.594 -0.109172 -1.73657 0
M  V30 2769 O 261.77 -0.324413 -1.9877 0
M  V30 2770 C 258.835 -0.883871 -3.35244 0
M  V30 2771 C 257.896 -2.04982 -3.77201 0
M  V30 2772 C 257.129 -1.75859 -5.03894 0
M  V30 2773 O 257.352 -0.687276 -5.66244 0
M  V30 2774 O 256.286 -2.61146 -5.42297 0
M  V30 2775 H 260.112 -2.14616 -2.1488 0
M  V30 2776 H 257.697 -1.10124 -1.0096 0
M  V30 2777 H 259.579 -0.728644 -4.15053 0
M  V30 2778 H 258.254 0.0427798 -3.23672 0
M  V30 2779 H 257.161 -2.26038 -2.9809 0
M  V30 2780 H 258.494 -2.95825 -3.93381 0
M  V30 2781 N 260.146 1.09593 -1.13257 0
M  V30 2782 C 261.374 1.855 -0.916378 0
M  V30 2783 C 261.789 1.81069 0.534738 0
M  V30 2784 O 261.146 1.20562 1.37007 0
M  V30 2785 C 261.197 3.33546 -1.39388 0
M  V30 2786 O 260.918 3.37927 -2.78813 0
M  V30 2787 C 262.419 4.26299 -1.21588 0
M  V30 2788 H 259.639 0.585991 -0.326887 0
M  V30 2789 H 262.183 1.38488 -1.5047 0
M  V30 2790 H 260.338 3.77992 -0.848597 0
M  V30 2791 H 260.752 4.30254 -2.9997 0
M  V30 2792 H 262.226 5.28341 -1.59876 0
M  V30 2793 H 262.703 4.38918 -0.157376 0
M  V30 2794 H 263.309 3.87668 -1.7491 0
M  V30 2795 N 261.624 0.925811 1.2754 0
M  V30 2796 C 262.571 0.422045 2.26908 0
M  V30 2797 C 263.541 -0.510029 1.58076 0
M  V30 2798 O 264.726 -0.429599 1.85901 0
M  V30 2799 C 261.866 -0.320837 3.43605 0
M  V30 2800 C 260.979 0.64513 4.27156 0
M  V30 2801 C 260.114 -0.117405 5.3107 0
M  V30 2802 C 259.153 0.841391 6.0629 0
M  V30 2803 N 258.29 0.111604 7.02011 0
M  V30 2804 H 263.13 1.27441 2.69375 0
M  V30 2805 H 260.667 0.639697 1.32462 0
M  V30 2806 H 262.625 -0.76785 4.10073 0
M  V30 2807 H 261.255 -1.13745 3.02096 0
M  V30 2808 H 260.307 1.21067 3.6062 0
M  V30 2809 H 261.619 1.37797 4.79389 0
M  V30 2810 H 260.773 -0.624422 6.03478 0
M  V30 2811 H 259.512 -0.883219 4.79636 0
M  V30 2812 H 258.517 1.35967 5.32722 0
M  V30 2813 H 259.742 1.60696 6.59813 0
M  V30 2814 H 257.688 -0.635999 6.5291 0
M  V30 2815 H 257.605 0.784044 7.51923 0
M  V30 2816 H 258.873 -0.374823 7.78598 0
M  V30 2817 N 263.102 -1.41638 0.69111 0
M  V30 2818 C 264.518 -1.55435 0.362224 0
M  V30 2819 C 264.718 -1.66754 -1.13117 0
M  V30 2820 O 263.774 -1.64348 -1.91692 0
M  V30 2821 C 265.087 -2.79588 1.10684 0
M  V30 2822 C 266.635 -2.9338 1.09075 0
M  V30 2823 C 267.11 -4.20414 1.81703 0
M  V30 2824 N 268.601 -4.27362 1.7865 0
M  V30 2825 C 269.336 -5.24507 2.31689 0
M  V30 2826 N 268.832 -6.27708 2.93179 0
M  V30 2827 N 270.625 -5.16416 2.2197 0
M  V30 2828 H 262.776 -1.32536 1.65976 0
M  V30 2829 H 265.039 -0.639115 0.700168 0
M  V30 2830 H 264.745 -2.77419 2.16175 0
M  V30 2831 H 264.619 -3.70973 0.682545 0
M  V30 2832 H 267.006 -2.95067 0.0441238 0
M  V30 2833 H 267.087 -2.0318 1.55407 0
M  V30 2834 H 266.731 -4.19488 2.86343 0
M  V30 2835 H 266.661 -5.09578 1.32808 0
M  V30 2836 H 269.152 -3.53415 1.33815 0
M  V30 2837 H 269.465 -6.98217 3.31229 0
M  V30 2838 H 267.81 -6.28223 2.97255 0
M  V30 2839 H 271.001 -4.34716 1.73607 0
M  V30 2840 H 271.174 -5.91958 2.63609 0
M  V30 2841 N 264.58 -0.43555 -1.51462 0
M  V30 2842 C 265.51 0.367376 -2.30592 0
M  V30 2843 C 266.491 1.02263 -1.35928 0
M  V30 2844 O 267.676 1.02661 -1.64847 0
M  V30 2845 C 264.806 1.46983 -3.14664 0
M  V30 2846 C 263.76 0.938161 -4.17591 0
M  V30 2847 C 263.086 2.13622 -4.90173 0
M  V30 2848 C 264.386 -0.0261621 -5.22293 0
M  V30 2849 H 266.08 -0.292969 -2.97963 0
M  V30 2850 H 263.626 -0.14234 -1.43295 0
M  V30 2851 H 265.579 2.03873 -3.688 0
M  V30 2852 H 264.303 2.15843 -2.4511 0
M  V30 2853 H 262.962 0.391481 -3.64504 0
M  V30 2854 H 262.61 2.81098 -4.17124 0
M  V30 2855 H 262.31 1.78688 -5.59772 0
M  V30 2856 H 263.834 2.7107 -5.47132 0
M  V30 2857 H 265.248 0.452384 -5.71512 0
M  V30 2858 H 263.645 -0.287992 -5.99409 0
M  V30 2859 H 264.715 -0.963391 -4.75233 0
M  V30 2860 N 266.058 1.56714 -0.166846 0
M  V30 2861 C 267.306 1.96358 0.478305 0
M  V30 2862 C 267.627 1.0537 1.6408 0
M  V30 2863 O 266.897 0.119154 1.95537 0
M  V30 2864 H 265.477 0.725065 0.179692 0
M  V30 2865 H 268.139 1.93329 -0.246985 0
M  V30 2866 H 267.235 3.00547 0.841292 0
M  V30 2867 N 267.536 -0.106894 1.57237 0
M  V30 2868 C 268.766 -0.825191 1.89405 0
M  V30 2869 C 269.174 -1.73374 0.757496 0
M  V30 2870 O 268.517 -1.81552 -0.280115 0
M  V30 2871 C 268.579 -1.70102 3.1671 0
M  V30 2872 C 268.243 -0.965523 4.46684 0
M  V30 2873 C 269.24 -0.300741 5.19029 0
M  V30 2874 C 266.925 -0.943105 4.93367 0
M  V30 2875 C 268.919 0.376622 6.36286 0
M  V30 2876 C 266.606 -0.261949 6.10538 0
M  V30 2877 C 267.604 0.396748 6.81847 0
M  V30 2878 O 267.292 1.06701 7.96787 0
M  V30 2879 H 267.024 -0.241852 0.631255 0
M  V30 2880 H 269.578 -0.0921491 2.05193 0
M  V30 2881 H 267.808 -2.47601 2.97036 0
M  V30 2882 H 269.497 -2.29483 3.34802 0
M  V30 2883 H 270.263 -0.309599 4.84011 0
M  V30 2884 H 266.142 -1.44524 4.3776 0
M  V30 2885 H 269.686 0.891334 6.91882 0
M  V30 2886 H 265.583 -0.250896 6.45012 0
M  V30 2887 H 266.351 0.972707 8.127 0
M  V30 2888 N 269.014 -1.53014 -0.377408 0
M  V30 2889 C 269.946 -1.74884 -1.48149 0
M  V30 2890 C 270.959 -0.629433 -1.5014 0
M  V30 2891 O 272.148 -0.905416 -1.53833 0
M  V30 2892 C 269.248 -1.80299 -2.86959 0
M  V30 2893 C 268.421 -3.09776 -3.08801 0
M  V30 2894 C 267.48 -3.06586 -4.27658 0
M  V30 2895 O 266.506 -3.80419 -4.23403 0
M  V30 2896 N 267.708 -2.26578 -5.34455 0
M  V30 2897 H 270.473 -2.70147 -1.29771 0
M  V30 2898 H 268.034 -1.51646 -0.56703 0
M  V30 2899 H 270.026 -1.75657 -3.64591 0
M  V30 2900 H 268.596 -0.92372 -2.98641 0
M  V30 2901 H 267.816 -3.27815 -2.18931 0
M  V30 2902 H 269.104 -3.95366 -3.20255 0
M  V30 2903 H 268.502 -1.66081 -5.40771 0
M  V30 2904 H 267.059 -2.27766 -6.10709 0
M  V30 2905 N 270.492 0.636531 -1.44174 0
M  V30 2906 C 271.72 1.42353 -1.50144 0
M  V30 2907 C 272.135 1.88389 -0.124575 0
M  V30 2908 O 271.492 1.6051 0.868489 0
M  V30 2909 C 271.543 2.64744 -2.46156 0
M  V30 2910 O 271.264 2.20629 -3.7849 0
M  V30 2911 C 272.765 3.57929 -2.61537 0
M  V30 2912 H 269.985 0.436752 -0.5094 0
M  V30 2913 H 272.529 0.778933 -1.89084 0
M  V30 2914 H 270.684 3.25307 -2.10366 0
M  V30 2915 H 271.098 2.99938 -4.30276 0
M  V30 2916 H 272.572 4.40428 -3.32757 0
M  V30 2917 H 273.049 4.06382 -1.66585 0
M  V30 2918 H 273.655 3.03238 -2.98206 0
M  V30 2919 N 271.97 1.30982 0.876444 0
M  V30 2920 C 273.216 1.20474 1.63138 0
M  V30 2921 C 273.549 -0.238096 1.92735 0
M  V30 2922 O 272.824 -1.1692 1.55435 0
M  V30 2923 C 273.107 2.04244 2.96574 0
M  V30 2924 C 272.96 3.56793 2.73896 0
M  V30 2925 C 274.279 1.88684 3.97601 0
M  V30 2926 H 271.398 0.439001 0.591985 0
M  V30 2927 H 274.04 1.60704 1.01361 0
M  V30 2928 H 272.19 1.70063 3.493 0
M  V30 2929 H 273.862 4.01077 2.27892 0
M  V30 2930 H 272.105 3.80548 2.08245 0
M  V30 2931 H 272.776 4.10706 3.68815 0
M  V30 2932 H 275.252 2.18584 3.54062 0
M  V30 2933 H 274.128 2.4961 4.88862 0
M  V30 2934 H 274.389 0.848343 4.33884 0
M  V30 2935 N 273.449 -1.08991 1.13837 0
M  V30 2936 C 274.696 -1.81258 0.902882 0
M  V30 2937 C 275.024 -1.85936 -0.570803 0
M  V30 2938 O 274.279 -1.3267 -1.43865 0
M  V30 2939 C 274.578 -3.27042 1.44147 0
M  V30 2940 C 274.244 -3.4249 2.93276 0
M  V30 2941 C 272.906 -3.46414 3.33992 0
M  V30 2942 C 275.258 -3.4666 3.892 0
M  V30 2943 C 272.586 -3.52091 4.69307 0
M  V30 2944 C 274.938 -3.53872 5.24364 0
M  V30 2945 C 273.602 -3.56066 5.646 0
M  V30 2946 H 272.872 -0.663268 0.330388 0
M  V30 2947 H 275.519 -1.28368 1.42105 0
M  V30 2948 H 273.824 -3.82599 0.844097 0
M  V30 2949 H 275.521 -3.81499 1.23528 0
M  V30 2950 H 272.111 -3.40124 2.60794 0
M  V30 2951 H 276.295 -3.42865 3.58828 0
M  V30 2952 H 271.551 -3.52079 4.9985 0
M  V30 2953 H 275.725 -3.56043 5.98503 0
M  V30 2954 H 273.352 -3.60218 6.69438 0
M  V30 2955 N 274.927 -0.932562 -1.27047 0
M  V30 2956 C 276.173 -0.585913 -1.94778 0
M  V30 2957 C 276.528 0.864142 -1.71902 0
M  V30 2958 O 275.821 1.60894 -1.04037 0
M  V30 2959 C 276.015 -0.853713 -3.47054 0
M  V30 2960 C 275.844 -2.32825 -3.84737 0
M  V30 2961 C 274.614 -2.98184 -4.07939 0
M  V30 2962 C 276.812 -3.30612 -3.93954 0
M  V30 2963 N 274.794 -4.3574 -4.3244 0
M  V30 2964 C 276.165 -4.53395 -4.22887 0
M  V30 2965 C 278.22 -3.25755 -3.76548 0
M  V30 2966 C 276.923 -5.71927 -4.36224 0
M  V30 2967 C 278.949 -4.43604 -3.91113 0
M  V30 2968 C 278.311 -5.65166 -4.20437 0
M  V30 2969 H 274.41 -0.264617 -0.735868 0
M  V30 2970 H 276.994 -1.20019 -1.53309 0
M  V30 2971 H 275.165 -0.268557 -3.8747 0
M  V30 2972 H 276.897 -0.469202 -4.01971 0
M  V30 2973 H 273.652 -2.48835 -4.02961 0
M  V30 2974 H 274.076 -5.06915 -4.48738 0
M  V30 2975 H 278.718 -2.32835 -3.52913 0
M  V30 2976 H 276.436 -6.65308 -4.58683 0
M  V30 2977 H 280.022 -4.41368 -3.79059 0
M  V30 2978 H 278.902 -6.54836 -4.31462 0
M  V30 2979 N 276.405 1.4127 -0.698611 0
M  V30 2980 C 277.63 2.06024 -0.238512 0
M  V30 2981 C 278.055 1.5224 1.10475 0
M  V30 2982 O 277.413 0.650623 1.69223 0
M  V30 2983 C 277.461 3.59988 -0.209952 0
M  V30 2984 O 276.565 4.04282 0.814235 0
M  V30 2985 H 275.906 0.653829 -0.115775 0
M  V30 2986 H 278.436 1.8098 -0.954326 0
M  V30 2987 H 278.446 4.07979 -0.0418436 0
M  V30 2988 H 277.121 3.98503 -1.1903 0
M  V30 2989 H 275.698 3.6779 0.615234 0
M  V30 2990 N 277.883 0.443576 1.51229 0
M  V30 2991 C 279.129 -0.120975 2.02439 0
M  V30 2992 C 279.462 -1.41815 1.32674 0
M  V30 2993 O 278.737 -1.89373 0.443622 0
M  V30 2994 C 279.02 -0.333291 3.58554 0
M  V30 2995 C 278.873 0.982968 4.38928 0
M  V30 2996 C 280.192 -1.10028 4.26124 0
M  V30 2997 H 277.311 -0.0424923 0.735774 0
M  V30 2998 H 279.953 0.583794 1.80809 0
M  V30 2999 H 278.103 -0.933614 3.77115 0
M  V30 3000 H 279.775 1.61775 4.32003 0
M  V30 3001 H 278.018 1.58611 4.03763 0
M  V30 3002 H 278.689 0.788379 5.46341 0
M  V30 3003 H 281.165 -0.591711 4.11871 0
M  V30 3004 H 280.041 -1.21761 5.35225 0
M  V30 3005 H 280.302 -2.12996 3.87408 0
M  V30 3006 N 279.361 -1.56624 0.175154 0
M  V30 3007 C 280.324 -2.16934 -0.739738 0
M  V30 3008 C 281.324 -1.11842 -1.15533 0
M  V30 3009 O 282.514 -1.37335 -1.07167 0
M  V30 3010 C 279.646 -2.75531 -2.00738 0
M  V30 3011 H 280.839 -2.99131 -0.214639 0
M  V30 3012 H 278.392 -1.56123 -0.0744197 0
M  V30 3013 H 279.127 -1.97078 -2.57548 0
M  V30 3014 H 278.912 -3.52444 -1.71831 0
M  V30 3015 H 280.402 -3.21904 -2.66021 0
M  V30 3016 N 280.839 0.0985539 -1.57292 0
M  V30 3017 C 282.086 0.802678 -1.85912 0
M  V30 3018 C 282.414 1.78901 -0.763186 0
M  V30 3019 O 281.669 1.94178 0.243559 0
M  V30 3020 C 281.968 1.56927 -3.21105 0
M  V30 3021 C 281.634 0.725376 -4.45027 0
M  V30 3022 C 280.296 0.492726 -4.78671 0
M  V30 3023 C 282.648 0.138493 -5.21016 0
M  V30 3024 C 279.976 -0.336727 -5.85733 0
M  V30 3025 C 282.328 -0.678264 -6.28953 0
M  V30 3026 C 280.992 -0.921039 -6.61115 0
M  V30 3027 H 280.262 0.293721 -0.680301 0
M  V30 3028 H 282.909 0.0642841 -1.91392 0
M  V30 3029 H 281.214 2.37914 -3.11294 0
M  V30 3030 H 282.911 2.11841 -3.40477 0
M  V30 3031 H 279.501 0.916815 -4.18679 0
M  V30 3032 H 283.685 0.305404 -4.95359 0
M  V30 3033 H 278.941 -0.533836 -6.09065 0
M  V30 3034 H 283.115 -1.1399 -6.87007 0
M  V30 3035 H 280.742 -1.56556 -7.43905 0
M  V30 3036 N 282.317 1.53212 0.369288 0
M  V30 3037 C 283.563 1.69466 1.11397 0
M  V30 3038 C 283.896 0.443257 1.89074 0
M  V30 3039 O 283.171 -0.559386 1.86282 0
M  V30 3040 C 283.454 2.9422 2.07621 0
M  V30 3041 C 283.307 4.29508 1.33577 0
M  V30 3042 C 284.626 3.14565 3.07794 0
M  V30 3043 H 281.745 0.616667 0.403597 0
M  V30 3044 H 284.387 1.85845 0.395179 0
M  V30 3045 H 282.537 2.80387 2.68916 0
M  V30 3046 H 284.209 4.55147 0.750955 0
M  V30 3047 H 282.452 4.29088 0.637618 0
M  V30 3048 H 283.123 5.12926 2.03989 0
M  V30 3049 H 285.599 3.2756 2.56601 0
M  V30 3050 H 284.475 4.03297 3.72348 0
M  V30 3051 H 284.736 2.29675 3.77759 0
M  V30 3052 N 283.795 -0.628877 1.44509 0
M  V30 3053 C 285.072 -1.38733 1.37886 0
M  V30 3054 C 285.452 -2.11065 0.0387008 0
M  V30 3055 O 284.8 -2.06476 -0.97878 0
M  V30 3056 C 285.01 -2.35188 2.57852 0
M  V30 3057 C 286.358 -2.9845 3.02014 0
M  V30 3058 O 287.382 -2.45513 2.58073 0
M  V30 3059 O 286.241 -3.94487 3.78209 0
M  V30 3060 H 283.335 -0.621015 0.54614 0
M  V30 3061 H 285.881 -0.653744 1.56602 0
M  V30 3062 H 284.653 -1.80855 3.46998 0
M  V30 3063 H 284.276 -3.1596 2.4136 0
M  V30 3064 N 285.273 -1.31445 -0.869486 0
M  V30 3065 C 286.519 -1.22347 -1.62489 0
M  V30 3066 C 286.874 0.216204 -1.91181 0
M  V30 3067 O 286.167 1.14977 -1.53268 0
M  V30 3068 C 286.361 -2.00145 -2.96102 0
M  V30 3069 C 286.19 -3.51531 -2.80456 0
M  V30 3070 C 284.96 -4.20882 -2.79618 0
M  V30 3071 C 287.158 -4.46471 -2.5528 0
M  V30 3072 N 285.14 -5.58421 -2.55027 0
M  V30 3073 C 286.511 -5.71682 -2.39957 0
M  V30 3074 C 288.566 -4.35892 -2.40629 0
M  V30 3075 C 287.269 -6.87511 -2.11472 0
M  V30 3076 C 289.295 -5.51505 -2.13532 0
M  V30 3077 C 288.657 -6.75707 -1.98998 0
M  V30 3078 H 284.756 -0.502815 -0.598917 0
M  V30 3079 H 287.34 -1.65639 -1.02332 0
M  V30 3080 H 285.511 -1.59221 -3.54264 0
M  V30 3081 H 287.243 -1.83063 -3.60929 0
M  V30 3082 H 283.998 -3.72857 -2.92018 0
M  V30 3083 H 284.422 -6.30841 -2.45701 0
M  V30 3084 H 289.064 -3.40533 -2.50593 0
M  V30 3085 H 286.782 -7.82897 -2.00245 0
M  V30 3086 H 290.368 -5.45238 -2.02995 0
M  V30 3087 H 289.248 -7.63655 -1.78326 0
M  V30 3088 N 286.751 1.08385 -1.14413 0
M  V30 3089 C 287.698 2.15311 -0.831265 0
M  V30 3090 C 288.668 1.64751 0.211292 0
M  V30 3091 O 289.853 1.90627 0.0811674 0
M  V30 3092 C 286.993 3.43658 -0.315143 0
M  V30 3093 C 286.106 4.08064 -1.41802 0
M  V30 3094 C 285.241 5.24207 -0.859126 0
M  V30 3095 C 284.28 5.80554 -1.93967 0
M  V30 3096 N 283.417 6.88042 -1.39793 0
M  V30 3097 H 288.257 2.41415 -1.74708 0
M  V30 3098 H 285.794 1.18474 -0.871909 0
M  V30 3099 H 287.752 4.172 0.00230884 0
M  V30 3100 H 286.382 3.17839 0.56378 0
M  V30 3101 H 285.434 3.3228 -1.85187 0
M  V30 3102 H 286.746 4.45962 -2.23427 0
M  V30 3103 H 285.9 6.04689 -0.49359 0
M  V30 3104 H 284.639 4.87699 -0.011932 0
M  V30 3105 H 283.644 4.98725 -2.31415 0
M  V30 3106 H 284.869 6.19121 -2.79046 0
M  V30 3107 H 282.815 6.53493 -0.572919 0
M  V30 3108 H 282.732 7.24767 -2.15054 0
M  V30 3109 H 284 7.72255 -1.0603 0
M  V30 3110 N 288.23 0.939286 1.26551 0
M  V30 3111 C 289.479 0.581601 1.93133 0
M  V30 3112 C 289.792 -0.883224 1.74524 0
M  V30 3113 O 290.998 -1.3502 2.35546 0
M  V30 3114 C 289.454 0.989425 3.46032 0
M  V30 3115 C 289.062 2.47573 3.73379 0
M  V30 3116 C 290.806 0.703544 4.18629 0
M  V30 3117 C 288.713 2.82235 5.19709 0
M  V30 3118 H 287.643 0.213803 0.723052 0
M  V30 3119 H 290.294 1.14167 1.4366 0
M  V30 3120 H 288.676 0.357902 3.94379 0
M  V30 3121 H 289.85 3.15614 3.35744 0
M  V30 3122 H 288.165 2.73471 3.1401 0
M  V30 3123 H 290.762 0.938869 5.26393 0
M  V30 3124 H 291.105 -0.359639 4.14744 0
M  V30 3125 H 291.638 1.2947 3.76141 0
M  V30 3126 H 288.377 3.87509 5.28694 0
M  V30 3127 H 287.897 2.18854 5.58447 0
M  V30 3128 H 289.576 2.70599 5.87695 0
M  V30 3129 N 289.708 -1.40897 0.706093 0
M  V30 3130 C 290.656 -2.32572 0.0361893 0
M  V30 3131 C 291.65 -1.51532 -0.757266 0
M  V30 3132 O 292.856 -1.67396 -0.661703 0
M  V30 3133 H 289.231 -0.751966 -0.00709935 0
M  V30 3134 H 291.202 -2.86733 0.826249 0
M  V30 3135 C 289.951 -3.36418 -0.87854 0
M  V30 3136 H 289.274 -3.98836 -0.277401 0
M  V30 3137 H 290.714 -4.0308 -1.3154 0
M  V30 3138 C 289.173 -2.71141 -1.99961 0
M  V30 3139 O 289.703 -2.56735 -3.0895 0
M  V30 3140 N 287.909 -2.29671 -1.78043 0
M  V30 3141 H 287.456 -2.41588 -0.894042 0
M  V30 3142 H 287.414 -1.86332 -2.53235 0
M  V30 3143 N 291.186 -0.45159 -1.50991 0
M  V30 3144 C 292.134 0.366864 -2.29689 0
M  V30 3145 C 293.128 1.00809 -1.36139 0
M  V30 3146 O 294.334 0.941427 -1.53418 0
M  V30 3147 H 290.709 0.137133 -0.739391 0
M  V30 3148 H 292.68 -0.317538 -2.96706 0
M  V30 3149 C 291.429 1.44751 -3.16137 0
M  V30 3150 H 290.752 0.963473 -3.88017 0
M  V30 3151 H 292.192 1.99315 -3.74232 0
M  V30 3152 C 290.651 2.43869 -2.32442 0
M  V30 3153 O 291.181 3.4872 -1.99392 0
M  V30 3154 N 289.387 2.15105 -1.95392 0
M  V30 3155 H 288.934 1.29866 -2.22469 0
M  V30 3156 H 288.892 2.81661 -1.39693 0
M  V30 3157 N 292.664 1.56529 -0.183458 0
M  V30 3158 C 293.596 2.15747 0.773697 0
M  V30 3159 C 294.609 1.1162 1.1851 0
M  V30 3160 O 295.798 1.3876 1.12285 0
M  V30 3161 C 292.898 2.6952 2.05456 0
M  V30 3162 C 292.071 3.98429 1.8048 0
M  V30 3163 C 291.13 4.37145 2.92901 0
M  V30 3164 O 290.156 5.04791 2.6301 0
M  V30 3165 N 291.358 3.99695 4.2098 0
M  V30 3166 H 294.123 2.98505 0.26736 0
M  V30 3167 H 291.684 1.619 -0.0010878 0
M  V30 3168 H 293.676 2.92412 2.79781 0
M  V30 3169 H 292.246 1.91282 2.47245 0
M  V30 3170 H 291.466 3.8379 0.899947 0
M  V30 3171 H 292.754 4.82597 1.61175 0
M  V30 3172 H 292.152 3.4526 4.48121 0
M  V30 3173 H 290.709 4.27562 4.9197 0
M  V30 3174 N 294.142 -0.090211 1.57342 0
M  V30 3175 C 295.089 -1.10909 2.02405 0
M  V30 3176 C 296.059 -1.39523 0.901252 0
M  V30 3177 O 297.244 -1.50903 1.1676 0
M  V30 3178 C 294.384 -2.42277 2.45755 0
M  V30 3179 C 293.497 -2.20352 3.71576 0
M  V30 3180 C 292.632 -3.45154 4.03785 0
M  V30 3181 C 291.671 -3.18512 5.22701 0
M  V30 3182 N 290.808 -4.35593 5.50639 0
M  V30 3183 H 295.648 -0.71782 2.89225 0
M  V30 3184 H 293.185 -0.342901 1.43048 0
M  V30 3185 H 295.143 -3.18951 2.68935 0
M  V30 3186 H 293.773 -2.79242 1.61938 0
M  V30 3187 H 292.825 -1.34458 3.55844 0
M  V30 3188 H 294.137 -1.96661 4.58395 0
M  V30 3189 H 293.291 -4.30233 4.27767 0
M  V30 3190 H 292.03 -3.71904 3.15498 0
M  V30 3191 H 291.035 -2.31827 4.98534 0
M  V30 3192 H 292.26 -2.93103 6.12591 0
M  V30 3193 H 290.206 -4.6241 4.6531 0
M  V30 3194 H 290.123 -4.1511 6.31838 0
M  V30 3195 H 291.391 -5.21723 5.7916 0
M  V30 3196 N 295.62 -1.53406 -0.361157 0
M  V30 3197 C 296.868 -1.69467 -1.10115 0
M  V30 3198 C 297.189 -0.451352 -1.89705 0
M  V30 3199 O 296.459 0.534636 -1.88463 0
M  V30 3200 H 295.039 -0.624749 -0.409508 0
M  V30 3201 H 297.701 -1.90609 -0.406699 0
M  V30 3202 H 296.797 -2.55774 -1.78847 0
M  V30 3203 N 297.098 0.621204 -1.44841 0
M  V30 3204 C 298.045 1.73267 -1.5247 0
M  V30 3205 C 299.015 1.6189 -0.371611 0
M  V30 3206 O 300.2 1.81668 -0.58321 0
M  V30 3207 C 297.34 3.11545 -1.48438 0
M  V30 3208 C 296.453 3.33827 -2.74196 0
M  V30 3209 C 295.588 4.62133 -2.61929 0
M  V30 3210 C 294.627 4.77627 -3.82804 0
M  V30 3211 N 293.764 5.97219 -3.69153 0
M  V30 3212 H 298.604 1.66082 -2.47428 0
M  V30 3213 H 296.141 0.810026 -1.22788 0
M  V30 3214 H 298.099 3.91528 -1.4409 0
M  V30 3215 H 296.729 3.1772 -0.570402 0
M  V30 3216 H 295.781 2.47715 -2.88689 0
M  V30 3217 H 297.093 3.41153 -3.6389 0
M  V30 3218 H 296.247 5.50291 -2.5547 0
M  V30 3219 H 294.986 4.57182 -1.69811 0
M  V30 3220 H 293.991 3.87896 -3.89637 0
M  V30 3221 H 295.216 4.84385 -4.75971 0
M  V30 3222 H 293.162 5.93339 -2.79794 0
M  V30 3223 H 293.079 6.05644 -4.52472 0
M  V30 3224 H 294.347 6.87912 -3.66603 0
M  V30 3225 N 298.576 1.31904 0.862503 0
M  V30 3226 C 299.523 1.20182 1.9704 0
M  V30 3227 C 300.493 0.0858247 1.65878 0
M  V30 3228 O 301.678 0.26 1.8902 0
M  V30 3229 C 298.818 0.922797 3.32533 0
M  V30 3230 C 297.931 2.12284 3.76244 0
M  V30 3231 C 297.066 1.77996 5.00491 0
M  V30 3232 C 296.105 2.94366 5.36671 0
M  V30 3233 N 295.242 2.60223 6.52095 0
M  V30 3234 H 300.082 2.14951 2.06398 0
M  V30 3235 H 297.619 1.06917 1.01031 0
M  V30 3236 H 299.577 0.741548 4.10557 0
M  V30 3237 H 298.207 0.0119227 3.22798 0
M  V30 3238 H 297.259 2.41461 2.9394 0
M  V30 3239 H 298.571 2.99357 3.98982 0
M  V30 3240 H 297.725 1.56377 5.862 0
M  V30 3241 H 296.464 0.881252 4.79672 0
M  V30 3242 H 295.469 3.16625 4.49476 0
M  V30 3243 H 296.694 3.84957 5.59451 0
M  V30 3244 H 294.64 1.72884 6.32809 0
M  V30 3245 H 294.557 3.40827 6.74814 0
M  V30 3246 H 295.825 2.42016 7.40978 0
M  V30 3247 N 300.054 -1.07777 1.14986 0
M  V30 3248 C 301.284 -1.83752 0.944402 0
M  V30 3249 C 301.692 -1.8218 -0.51058 0
M  V30 3250 O 301.035 -1.22852 -1.36576 0
M  V30 3251 C 301.097 -3.32128 1.37592 0
M  V30 3252 C 300.761 -3.57425 2.84775 0
M  V30 3253 C 301.758 -3.5173 3.8286 0
M  V30 3254 C 299.443 -3.8523 3.2234 0
M  V30 3255 C 301.437 -3.73482 5.16517 0
M  V30 3256 C 299.124 -4.06634 4.56171 0
M  V30 3257 C 300.122 -4.00754 5.53069 0
M  V30 3258 O 299.81 -4.2159 6.84483 0
M  V30 3259 H 299.542 -0.58673 0.335744 0
M  V30 3260 H 302.096 -1.36982 1.53052 0
M  V30 3261 H 300.326 -3.79686 0.733165 0
M  V30 3262 H 302.015 -3.89555 1.14024 0
M  V30 3263 H 302.781 -3.30256 3.55184 0
M  V30 3264 H 298.66 -3.88923 2.47508 0
M  V30 3265 H 302.204 -3.68808 5.92137 0
M  V30 3266 H 298.101 -4.27593 4.83564 0
M  V30 3267 H 298.869 -4.38961 6.90837 0
M  V30 3268 N 301.532 -0.945985 -1.26051 0
M  V30 3269 C 302.495 -0.463897 -2.24456 0
M  V30 3270 C 303.495 0.427655 -1.55009 0
M  V30 3271 O 304.685 0.226157 -1.72726 0
M  V30 3272 C 301.817 0.330812 -3.39291 0
M  V30 3273 H 303.01 -1.33357 -2.68619 0
M  V30 3274 H 300.563 -0.728416 -1.38289 0
M  V30 3275 H 301.298 1.21852 -3.00537 0
M  V30 3276 H 301.083 -0.308679 -3.90883 0
M  V30 3277 H 302.573 0.657865 -4.12386 0
M  V30 3278 N 303.011 1.40521 -0.713556 0
M  V30 3279 C 304.241 2.0494 -0.261395 0
M  V30 3280 C 304.649 1.53861 1.10107 0
M  V30 3281 O 303.992 0.689321 1.70276 0
M  V30 3282 C 304.054 3.59138 -0.161227 0
M  V30 3283 C 303.718 4.33096 -1.45865 0
M  V30 3284 C 304.715 4.61182 -2.40016 0
M  V30 3285 C 302.4 4.72043 -1.71701 0
M  V30 3286 C 304.394 5.27196 -3.58251 0
M  V30 3287 C 302.081 5.37789 -2.90218 0
M  V30 3288 C 303.079 5.65295 -3.83315 0
M  V30 3289 O 302.767 6.29683 -4.99754 0
M  V30 3290 H 302.499 0.666041 -0.115608 0
M  V30 3291 H 305.053 1.80954 -0.971849 0
M  V30 3292 H 303.283 3.81936 0.605153 0
M  V30 3293 H 304.972 4.05091 0.256105 0
M  V30 3294 H 305.738 4.31559 -2.21318 0
M  V30 3295 H 301.617 4.50003 -1.00092 0
M  V30 3296 H 305.161 5.48582 -4.30934 0
M  V30 3297 H 301.058 5.66831 -3.08825 0
M  V30 3298 H 301.826 6.4818 -4.99805 0
M  V30 3299 N 304.489 0.459591 1.5075 0
M  V30 3300 C 305.766 -0.160371 1.94941 0
M  V30 3301 C 306.146 -1.58048 1.39943 0
M  V30 3302 O 305.494 -2.206 0.595629 0
M  V30 3303 C 305.704 -0.115432 3.48809 0
M  V30 3304 C 307.052 -0.310026 4.23467 0
M  V30 3305 O 308.076 -0.192543 3.55679 0
M  V30 3306 O 306.935 -0.546031 5.43765 0
M  V30 3307 H 304.029 -0.117925 0.818549 0
M  V30 3308 H 306.575 0.519169 1.61563 0
M  V30 3309 H 305.347 0.87652 3.81357 0
M  V30 3310 H 304.97 -0.836928 3.88692 0
M  V30 3311 N 305.967 -1.56429 0.191757 0
M  V30 3312 C 306.917 -2.15548 -0.743184 0
M  V30 3313 C 307.901 -1.09531 -1.17863 0
M  V30 3314 O 309.093 -1.35602 -1.13759 0
M  V30 3315 C 306.222 -2.81577 -1.96391 0
M  V30 3316 C 305.308 -3.9478 -1.54951 0
M  V30 3317 N 305.699 -4.98677 -0.845876 0
M  V30 3318 C 303.997 -4.06319 -1.83905 0
M  V30 3319 C 304.698 -5.78183 -0.638724 0
M  V30 3320 N 303.674 -5.30495 -1.18643 0
M  V30 3321 H 307.476 -2.9324 -0.196839 0
M  V30 3322 H 304.99 -1.62398 -0.0081603 0
M  V30 3323 H 306.987 -3.22321 -2.64415 0
M  V30 3324 H 305.647 -2.05371 -2.51501 0
M  V30 3325 H 306.658 -5.15464 -0.501704 0
M  V30 3326 H 303.335 -3.41238 -2.40548 0
M  V30 3327 H 304.725 -6.71851 -0.0807929 0
M  V30 3328 N 307.445 0.0818655 -1.57387 0
M  V30 3329 C 308.378 1.12986 -1.98266 0
M  V30 3330 C 309.356 1.38123 -0.857954 0
M  V30 3331 O 310.54 1.51663 -1.1194 0
M  V30 3332 C 307.667 2.47632 -2.31076 0
M  V30 3333 C 306.713 2.38693 -3.53452 0
M  V30 3334 S 307.546 1.79071 -5.04672 0
M  V30 3335 C 308.702 3.15316 -5.40673 0
M  V30 3336 H 308.935 0.781435 -2.86846 0
M  V30 3337 H 306.468 0.290034 -1.51651 0
M  V30 3338 H 308.426 3.25089 -2.50654 0
M  V30 3339 H 307.087 2.79638 -1.43043 0
M  V30 3340 H 306.28 3.37964 -3.73893 0
M  V30 3341 H 305.882 1.69369 -3.33452 0
M  V30 3342 H 308.174 4.11613 -5.38127 0
M  V30 3343 H 309.117 2.99664 -6.41566 0
M  V30 3344 H 309.525 3.15457 -4.68132 0
M  V30 3345 N 308.923 1.53595 0.353017 0
M  V30 3346 C 310.172 1.69603 1.09168 0
M  V30 3347 C 310.485 0.460925 1.90092 0
M  V30 3348 O 311.691 0.501774 2.66823 0
M  V30 3349 C 310.147 2.99872 1.9901 0
M  V30 3350 C 309.755 4.30687 1.23339 0
M  V30 3351 C 311.499 3.25246 2.72792 0
M  V30 3352 C 309.406 5.52036 2.12156 0
M  V30 3353 H 308.336 0.631966 0.411261 0
M  V30 3354 H 310.987 1.80096 0.351802 0
M  V30 3355 H 309.369 2.83212 2.7678 0
M  V30 3356 H 310.543 4.58019 0.505456 0
M  V30 3357 H 308.858 4.11853 0.613663 0
M  V30 3358 H 311.455 4.13095 3.39495 0
M  V30 3359 H 311.798 2.41846 3.38846 0
M  V30 3360 H 312.331 3.42638 2.021 0
M  V30 3361 H 309.07 6.37951 1.50659 0
M  V30 3362 H 308.59 5.28966 2.82764 0
M  V30 3363 H 310.269 5.87313 2.71427 0
M  V30 3364 N 310.401 -0.613514 1.45168 0
M  V30 3365 C 311.348 -1.72456 1.53387 0
M  V30 3366 C 312.318 -1.6169 0.380191 0
M  V30 3367 O 313.503 -1.81356 0.592836 0
M  V30 3368 C 310.643 -3.10753 1.50088 0
M  V30 3369 C 309.756 -3.32368 2.75963 0
M  V30 3370 C 308.891 -4.60737 2.64376 0
M  V30 3371 C 307.93 -4.7559 3.85332 0
M  V30 3372 N 307.067 -5.95253 3.72315 0
M  V30 3373 H 311.907 -1.64768 2.48305 0
M  V30 3374 H 309.444 -0.803503 1.23216 0
M  V30 3375 H 311.402 -3.90758 1.46164 0
M  V30 3376 H 310.032 -3.17413 0.587243 0
M  V30 3377 H 309.084 -2.4618 2.89999 0
M  V30 3378 H 310.396 -3.39218 3.65695 0
M  V30 3379 H 309.55 -5.48928 2.58385 0
M  V30 3380 H 308.289 -4.56275 1.72233 0
M  V30 3381 H 307.294 -3.85824 3.91688 0
M  V30 3382 H 308.519 -4.81854 4.78533 0
M  V30 3383 H 306.465 -5.91847 2.82937 0
M  V30 3384 H 306.382 -6.03236 4.55677 0
M  V30 3385 H 307.65 -6.85958 3.70246 0
M  V30 3386 N 311.879 -1.3236 -0.855495 0
M  V30 3387 C 312.811 -1.17052 -1.97057 0
M  V30 3388 C 313.824 -0.10574 -1.62456 0
M  V30 3389 O 315.013 -0.354619 -1.74942 0
M  V30 3390 C 312.113 -0.769305 -3.30053 0
M  V30 3391 C 311.286 -1.9222 -3.929 0
M  V30 3392 C 310.345 -1.50466 -5.04228 0
M  V30 3393 O 309.371 -2.21655 -5.24269 0
M  V30 3394 N 310.573 -0.400209 -5.79119 0
M  V30 3395 H 313.338 -2.13103 -2.1073 0
M  V30 3396 H 310.899 -1.24885 -1.0303 0
M  V30 3397 H 312.891 -0.472407 -4.01933 0
M  V30 3398 H 311.461 0.100025 -3.1244 0
M  V30 3399 H 310.681 -2.38563 -3.13817 0
M  V30 3400 H 311.969 -2.69403 -4.31624 0
M  V30 3401 H 311.367 0.192319 -5.65373 0
M  V30 3402 H 309.924 -0.162912 -6.51596 0
M  V30 3403 N 313.357 1.07166 -1.15556 0
M  V30 3404 C 314.32 2.12589 -0.856644 0
M  V30 3405 C 315.32 1.6015 0.14444 0
M  V30 3406 O 316.51 1.7399 -0.0854163 0
M  V30 3407 C 313.642 3.39753 -0.279405 0
M  V30 3408 H 314.835 2.40539 -1.79112 0
M  V30 3409 H 312.388 1.23086 -0.963298 0
M  V30 3410 H 313.123 3.17447 0.663174 0
M  V30 3411 H 312.908 3.79117 -1.00063 0
M  V30 3412 H 314.398 4.17507 -0.0879113 0
M  V30 3413 N 314.835 0.952656 1.25548 0
M  V30 3414 C 315.785 0.442033 2.23674 0
M  V30 3415 C 316.769 -0.467632 1.53955 0
M  V30 3416 O 317.961 -0.301006 1.74422 0
M  V30 3417 C 315.09 -0.280816 3.4215 0
M  V30 3418 C 314.176 0.646803 4.19139 0
M  V30 3419 N 314.567 1.77759 4.73535 0
M  V30 3420 C 312.865 0.454617 4.43677 0
M  V30 3421 C 313.566 2.35658 5.31827 0
M  V30 3422 N 312.542 1.64333 5.18166 0
M  V30 3423 H 316.344 1.30505 2.63336 0
M  V30 3424 H 313.858 0.809904 1.40763 0
M  V30 3425 H 315.855 -0.663747 4.11582 0
M  V30 3426 H 314.515 -1.14046 3.04012 0
M  V30 3427 H 315.526 2.15949 4.7073 0
M  V30 3428 H 312.203 -0.362312 4.15925 0
M  V30 3429 H 313.593 3.30998 5.84713 0
M  V30 3430 N 316.313 -1.40141 0.720998 0
M  V30 3431 C 317.724 -1.83678 0.334553 0
M  V30 3432 C 318.075 -1.6027 -1.13173 0
M  V30 3433 O 317.2 -1.08643 -1.87152 0
M  V30 3434 C 317.795 -3.33437 0.600437 0
M  V30 3435 C 316.354 -3.75447 0.267642 0
M  V30 3436 C 315.501 -2.63296 0.870097 0
M  V30 3437 H 318.452 -1.29331 0.919732 0
M  V30 3438 H 318.473 -3.80269 -0.132517 0
M  V30 3439 H 317.985 -3.50442 1.66768 0
M  V30 3440 H 316.086 -3.64035 -0.794329 0
M  V30 3441 H 316.199 -4.73344 0.74042 0
M  V30 3442 H 314.563 -2.52954 0.297739 0
M  V30 3443 H 315.346 -2.83112 1.94172 0
M  V30 3444 N 317.792 -0.46758 -1.50504 0
M  V30 3445 C 319.04 0.0884469 -2.01906 0
M  V30 3446 C 319.361 1.40532 -1.35188 0
M  V30 3447 O 318.631 1.89515 -0.496079 0
M  V30 3448 H 317.211 0.0356765 -0.746148 0
M  V30 3449 H 319.873 -0.6172 -1.84869 0
M  V30 3450 H 318.969 0.2425 -3.11156 0
M  V30 3451 N 319.27 1.56325 -0.20005 0
M  V30 3452 C 320.233 2.18084 0.705132 0
M  V30 3453 C 321.233 1.13666 1.1374 0
M  V30 3454 O 322.423 1.39023 1.04968 0
M  V30 3455 C 319.555 2.78689 1.96329 0
M  V30 3456 H 320.748 2.99435 0.167023 0
M  V30 3457 H 318.301 1.56221 0.0495725 0
M  V30 3458 H 319.036 2.0115 2.5438 0
M  V30 3459 H 318.821 3.55133 1.66202 0
M  V30 3460 H 320.311 3.26096 2.60866 0
M  V30 3461 N 320.748 -0.0735177 1.57428 0
M  V30 3462 C 321.997 -0.771809 1.86349 0
M  V30 3463 C 322.31 -1.78828 0.792452 0
M  V30 3464 O 323.516 -2.53602 0.96945 0
M  V30 3465 C 321.972 -1.42358 3.30548 0
M  V30 3466 C 321.58 -0.445761 4.45777 0
M  V30 3467 C 323.324 -2.10434 3.6867 0
M  V30 3468 C 321.231 -1.10335 5.81016 0
M  V30 3469 H 320.161 -0.291999 0.695164 0
M  V30 3470 H 322.812 -0.0250749 1.83483 0
M  V30 3471 H 321.194 -2.21852 3.28021 0
M  V30 3472 H 322.368 0.319239 4.59693 0
M  V30 3473 H 320.683 0.130457 4.16196 0
M  V30 3474 H 323.28 -2.60405 4.67004 0
M  V30 3475 H 323.623 -2.90298 2.98383 0
M  V30 3476 H 324.156 -1.37773 3.7318 0
M  V30 3477 H 320.895 -0.345061 6.54591 0
M  V30 3478 H 320.415 -1.83925 5.70904 0
M  V30 3479 H 322.094 -1.62367 6.26295 0
M  V30 3480 N 322.226 -1.5378 -0.344866 0
M  V30 3481 C 323.456 -1.74646 -1.10374 0
M  V30 3482 C 323.864 -0.48491 -1.8288 0
M  V30 3483 O 323.207 0.553062 -1.75177 0
M  V30 3484 C 323.269 -2.87145 -2.16306 0
M  V30 3485 C 322.933 -4.26795 -1.63386 0
M  V30 3486 C 323.93 -5.08412 -1.08688 0
M  V30 3487 C 321.615 -4.73276 -1.68272 0
M  V30 3488 C 323.609 -6.34609 -0.595792 0
M  V30 3489 C 321.296 -5.99446 -1.18776 0
M  V30 3490 C 322.294 -6.79946 -0.645215 0
M  V30 3491 O 321.982 -8.03745 -0.157626 0
M  V30 3492 H 321.714 -0.587112 -0.335075 0
M  V30 3493 H 324.268 -2.01403 -0.403252 0
M  V30 3494 H 322.498 -2.55909 -2.89909 0
M  V30 3495 H 324.187 -2.95992 -2.77747 0
M  V30 3496 H 324.953 -4.73666 -1.04236 0
M  V30 3497 H 320.832 -4.10677 -2.09442 0
M  V30 3498 H 324.376 -6.97389 -0.171654 0
M  V30 3499 H 320.273 -6.33687 -1.22928 0
M  V30 3500 H 321.041 -8.18038 -0.275037 0
M  V30 3501 N 323.704 0.605807 -1.45491 0
M  V30 3502 C 324.634 1.72709 -1.57143 0
M  V30 3503 C 325.615 1.6476 -0.422884 0
M  V30 3504 O 326.8 1.83132 -0.646247 0
M  V30 3505 C 323.93 3.11316 -1.53948 0
M  V30 3506 C 322.884 3.34077 -2.67537 0
M  V30 3507 C 322.21 4.72975 -2.49397 0
M  V30 3508 C 323.51 3.24158 -4.09535 0
M  V30 3509 H 325.204 1.63214 -2.51001 0
M  V30 3510 H 322.75 0.78379 -1.208 0
M  V30 3511 H 324.703 3.89557 -1.60696 0
M  V30 3512 H 323.427 3.21655 -0.566205 0
M  V30 3513 H 322.086 2.58227 -2.6022 0
M  V30 3514 H 321.734 4.8005 -1.50205 0
M  V30 3515 H 321.434 4.8916 -3.25571 0
M  V30 3516 H 322.958 5.53414 -2.58002 0
M  V30 3517 H 324.372 3.92271 -4.18086 0
M  V30 3518 H 322.769 3.51872 -4.86113 0
M  V30 3519 H 323.839 2.2157 -4.31317 0
M  V30 3520 N 325.182 1.32811 0.848464 0
M  V30 3521 C 326.112 1.24882 1.97299 0
M  V30 3522 C 327.093 0.131357 1.69592 0
M  V30 3523 O 328.278 0.319553 1.91553 0
M  V30 3524 C 325.408 0.97746 3.33261 0
M  V30 3525 C 324.362 2.05682 3.75338 0
M  V30 3526 C 323.688 1.63777 5.09 0
M  V30 3527 C 324.988 3.47254 3.90144 0
M  V30 3528 H 326.682 2.18966 2.04191 0
M  V30 3529 H 324.228 1.05413 0.981029 0
M  V30 3530 H 326.181 0.908513 4.1149 0
M  V30 3531 H 324.905 0.000980011 3.266 0
M  V30 3532 H 323.564 2.11603 2.99366 0
M  V30 3533 H 323.212 0.648569 4.98801 0
M  V30 3534 H 322.912 2.36 5.38124 0
M  V30 3535 H 324.436 1.5833 5.89715 0
M  V30 3536 H 325.85 3.43888 4.58709 0
M  V30 3537 H 324.247 4.1788 4.30693 0
M  V30 3538 H 325.317 3.86462 2.92874 0
M  V30 3539 N 326.66 -1.06551 1.16123 0
M  V30 3540 C 327.61 -2.12209 0.833736 0
M  V30 3541 C 328.594 -1.59825 -0.185656 0
M  V30 3542 O 329.786 -1.76994 0.0147906 0
M  V30 3543 C 326.915 -3.41674 0.333697 0
M  V30 3544 C 326.001 -4.00892 1.38372 0
M  V30 3545 N 326.392 -4.34256 2.59337 0
M  V30 3546 C 324.69 -4.28463 1.23836 0
M  V30 3547 C 325.391 -4.81291 3.26701 0
M  V30 3548 N 324.367 -4.80565 2.54083 0
M  V30 3549 H 328.169 -2.35849 1.75364 0
M  V30 3550 H 325.683 -1.24068 1.04789 0
M  V30 3551 H 327.68 -4.16822 0.0806918 0
M  V30 3552 H 326.34 -3.19475 -0.58017 0
M  V30 3553 H 327.351 -4.24687 2.96415 0
M  V30 3554 H 324.028 -4.15721 0.38504 0
M  V30 3555 H 325.418 -5.16332 4.29943 0
M  V30 3556 N 328.138 -0.959301 -1.25041 0
M  V30 3557 C 329.366 -0.633949 -1.96948 0
M  V30 3558 C 329.781 0.794916 -1.7125 0
M  V30 3559 O 329.138 1.53231 -0.991287 0
M  V30 3560 C 329.189 -0.888805 -3.50403 0
M  V30 3561 O 328.91 -2.26149 -3.75218 0
M  V30 3562 C 330.411 -0.576482 -4.39536 0
M  V30 3563 H 327.631 -0.237263 -0.627652 0
M  V30 3564 H 330.175 -1.28495 -1.59089 0
M  V30 3565 H 328.33 -0.284145 -3.86357 0
M  V30 3566 H 328.744 -2.33514 -4.6965 0
M  V30 3567 H 330.218 -0.805314 -5.46094 0
M  V30 3568 H 330.695 0.489075 -4.36468 0
M  V30 3569 H 331.301 -1.16067 -4.09156 0
M  V30 3570 N 329.616 1.39756 -0.72842 0
M  V30 3571 C 330.862 2.00942 -0.273892 0
M  V30 3572 C 331.195 1.57656 1.13394 0
M  V30 3573 O 330.47 0.802434 1.77176 0
M  V30 3574 C 330.753 3.58211 -0.368346 0
M  V30 3575 C 330.606 4.11534 -1.81548 0
M  V30 3576 C 331.925 4.39372 0.253054 0
M  V30 3577 H 329.044 0.730047 -0.100996 0
M  V30 3578 H 331.686 1.66056 -0.923337 0
M  V30 3579 H 329.836 3.88061 0.184588 0
M  V30 3580 H 331.508 3.92431 -2.42478 0
M  V30 3581 H 329.751 3.65341 -2.33898 0
M  V30 3582 H 330.422 5.20682 -1.83288 0
M  V30 3583 H 332.898 4.15527 -0.218224 0
M  V30 3584 H 331.774 5.48677 0.156585 0
M  V30 3585 H 332.035 4.21358 1.33826 0
M  V30 3586 N 331.094 0.475555 1.50254 0
M  V30 3587 C 332.319 -0.0777042 2.07254 0
M  V30 3588 C 332.744 -1.3235 1.3366 0
M  V30 3589 O 332.102 -1.77152 0.385597 0
M  V30 3590 C 332.15 -0.340169 3.58992 0
M  V30 3591 O 331.254 -1.41982 3.87188 0
M  V30 3592 H 330.595 0.0149556 0.663832 0
M  V30 3593 H 333.125 0.667878 1.93392 0
M  V30 3594 H 333.135 -0.579332 4.03866 0
M  V30 3595 H 331.81 0.570167 4.11973 0
M  V30 3596 H 330.387 -1.16762 3.54148 0
M  V30 3597 N 332.573 -1.56217 0.208337 0
M  V30 3598 C 333.989 -1.58919 -0.14729 0
M  V30 3599 C 334.189 -1.22486 -1.59998 0
M  V30 3600 O 333.245 -0.953849 -2.3379 0
M  V30 3601 C 334.558 -3.00236 0.167048 0
M  V30 3602 C 336.106 -3.12813 0.108219 0
M  V30 3603 C 336.581 -4.56284 0.396049 0
M  V30 3604 N 338.072 -4.61912 0.345142 0
M  V30 3605 C 338.807 -5.70837 0.541523 0
M  V30 3606 N 338.303 -6.88178 0.798968 0
M  V30 3607 N 340.096 -5.60091 0.474867 0
M  V30 3608 H 332.247 -1.78177 1.15614 0
M  V30 3609 H 334.51 -0.827555 0.462446 0
M  V30 3610 H 334.216 -3.31499 1.1748 0
M  V30 3611 H 334.09 -3.7354 -0.524184 0
M  V30 3612 H 336.477 -2.81354 -0.890157 0
M  V30 3613 H 336.558 -2.41866 0.832729 0
M  V30 3614 H 336.202 -4.88458 1.3918 0
M  V30 3615 H 336.132 -5.25439 -0.349502 0
M  V30 3616 H 338.623 -3.77589 0.153316 0
M  V30 3617 H 338.936 -7.67095 0.93727 0
M  V30 3618 H 337.281 -6.89953 0.836013 0
M  V30 3619 H 340.472 -4.67297 0.274064 0
M  V30 3620 H 340.645 -6.44917 0.631326 0
M  V30 3621 N 334.051 0.0651679 -1.57465 0
M  V30 3622 C 335.328 0.79644 -1.78651 0
M  V30 3623 C 335.708 1.95454 -0.797566 0
M  V30 3624 O 335.056 2.27882 0.167946 0
M  V30 3625 C 335.266 1.26322 -3.25337 0
M  V30 3626 C 336.614 1.6939 -3.89348 0
M  V30 3627 O 337.638 1.35872 -3.29268 0
M  V30 3628 O 336.497 2.31471 -4.95059 0
M  V30 3629 H 333.591 0.382157 -0.733407 0
M  V30 3630 H 336.137 0.0447311 -1.69641 0
M  V30 3631 H 334.909 0.434859 -3.88876 0
M  V30 3632 H 334.532 2.07604 -3.39096 0
M  V30 3633 N 335.529 1.53961 0.336706 0
M  V30 3634 C 336.477 1.83136 1.43401 0
M  V30 3635 C 337.471 0.702313 1.54156 0
M  V30 3636 O 338.677 0.885765 1.56698 0
M  V30 3637 H 335.052 0.580309 0.478273 0
M  V30 3638 H 337.023 2.74925 1.16012 0
M  V30 3639 C 335.772 2.06385 2.79822 0
M  V30 3640 H 335.095 2.92718 2.72316 0
M  V30 3641 H 336.535 2.30761 3.55704 0
M  V30 3642 C 334.994 0.851414 3.25964 0
M  V30 3643 O 335.524 0.0541904 4.01663 0
M  V30 3644 N 333.73 0.66672 2.82848 0
M  V30 3645 H 333.277 1.31665 2.21409 0
M  V30 3646 H 333.235 -0.143032 3.14074 0
M  V30 3647 N 337.007 -0.598083 1.45811 0
M  V30 3648 C 337.97 -1.69018 1.54808 0
M  V30 3649 C 338.97 -1.55037 0.426652 0
M  V30 3650 O 340.16 -1.59932 0.690456 0
M  V30 3651 C 337.292 -3.0835 1.45371 0
M  V30 3652 H 338.485 -1.62403 2.52121 0
M  V30 3653 H 336.038 -0.814626 1.33392 0
M  V30 3654 H 336.773 -3.20534 0.492793 0
M  V30 3655 H 336.558 -3.19907 2.26721 0
M  V30 3656 H 338.048 -3.8788 1.54721 0
M  V30 3657 N 338.485 -1.33259 -0.841409 0
M  V30 3658 C 339.395 -1.25332 -1.98316 0
M  V30 3659 C 340.411 -0.164364 -1.73222 0
M  V30 3660 O 341.587 -0.387486 -1.97637 0
M  V30 3661 C 338.652 -0.990078 -3.32262 0
M  V30 3662 C 337.713 -2.16879 -3.70489 0
M  V30 3663 C 336.946 -1.91801 -4.98044 0
M  V30 3664 O 337.169 -0.867075 -5.63771 0
M  V30 3665 O 336.103 -2.78267 -5.33714 0
M  V30 3666 H 339.929 -2.21344 -2.07944 0
M  V30 3667 H 337.514 -1.1328 -0.974058 0
M  V30 3668 H 339.396 -0.860321 -4.12524 0
M  V30 3669 H 338.071 -0.0602155 -3.23644 0
M  V30 3670 H 336.978 -2.35407 -2.90748 0
M  V30 3671 H 338.311 -3.0819 -3.8377 0
M  V30 3672 N 339.963 1.05934 -1.16686 0
M  V30 3673 C 340.926 2.11669 -0.879144 0
M  V30 3674 C 341.926 1.60294 0.127445 0
M  V30 3675 O 343.116 1.7389 -0.103865 0
M  V30 3676 C 340.248 3.39438 -0.315425 0
M  V30 3677 H 341.441 2.38626 -1.81653 0
M  V30 3678 H 338.994 1.22058 -0.976299 0
M  V30 3679 H 339.729 3.18132 0.629468 0
M  V30 3680 H 339.514 3.78034 -1.04079 0
M  V30 3681 H 341.004 4.17391 -0.132189 0
M  V30 3682 N 341.441 0.965919 1.2453 0
M  V30 3683 C 342.371 0.513476 2.27784 0
M  V30 3684 C 343.352 -0.445974 1.6415 0
M  V30 3685 O 344.537 -0.342485 1.91156 0
M  V30 3686 C 341.667 -0.198839 3.4673 0
M  V30 3687 C 340.621 0.676456 4.2262 0
M  V30 3688 C 339.947 -0.167248 5.34438 0
M  V30 3689 C 341.247 1.96017 4.84123 0
M  V30 3690 H 342.941 1.3765 2.65881 0
M  V30 3691 H 340.487 0.663321 1.27813 0
M  V30 3692 H 342.44 -0.526567 4.18097 0
M  V30 3693 H 341.164 -1.0962 3.07654 0
M  V30 3694 H 339.823 0.98743 3.53052 0
M  V30 3695 H 339.471 -1.0647 4.91603 0
M  V30 3696 H 339.171 0.415181 5.86131 0
M  V30 3697 H 340.695 -0.489688 6.08633 0
M  V30 3698 H 342.109 1.69814 5.47573 0
M  V30 3699 H 340.506 2.48918 5.4604 0
M  V30 3700 H 341.576 2.65622 4.05676 0
M  V30 3701 N 342.919 -1.39368 0.735821 0
M  V30 3702 C 344.196 -1.94465 0.210395 0
M  V30 3703 C 344.576 -1.67254 -1.28799 0
M  V30 3704 O 343.924 -1.00123 -2.05396 0
M  V30 3705 C 344.134 -3.4472 0.544897 0
M  V30 3706 C 345.482 -4.21708 0.494689 0
M  V30 3707 O 346.506 -3.52922 0.482136 0
M  V30 3708 O 345.365 -5.44299 0.489947 0
M  V30 3709 H 342.459 -0.826096 0.0386666 0
M  V30 3710 H 345.005 -1.48863 0.814735 0
M  V30 3711 H 343.777 -3.57963 1.58045 0
M  V30 3712 H 343.4 -3.97502 -0.08837 0
M  V30 3713 N 344.397 -0.483516 -1.5 0
M  V30 3714 C 345.674 0.129337 -1.95172 0
M  V30 3715 C 346.054 1.55802 -1.4244 0
M  V30 3716 O 345.402 2.19625 -0.630649 0
M  V30 3717 C 345.612 0.0599251 -3.48949 0
M  V30 3718 C 346.96 0.242617 -4.23906 0
M  V30 3719 O 347.984 0.135933 -3.55941 0
M  V30 3720 O 346.843 0.459454 -5.44565 0
M  V30 3721 H 343.937 0.104887 -0.820322 0
M  V30 3722 H 346.483 -0.544807 -1.60717 0
M  V30 3723 H 345.255 -0.937079 -3.79914 0
M  V30 3724 H 344.878 0.774984 -3.89974 0
M  V30 3725 N 345.875 1.56104 -0.216619 0
M  V30 3726 C 346.838 2.18819 0.681962 0
M  V30 3727 C 347.838 1.14866 1.12528 0
M  V30 3728 O 349.028 1.40128 1.03488 0
M  V30 3729 C 346.16 2.80756 1.93362 0
M  V30 3730 H 347.353 2.99595 0.135254 0
M  V30 3731 H 344.906 1.56265 0.0330003 0
M  V30 3732 H 345.641 2.03837 2.52232 0
M  V30 3733 H 345.426 3.56876 1.62426 0
M  V30 3734 H 346.916 3.28844 2.57393 0
M  V30 3735 N 347.353 -0.0568162 1.57498 0
M  V30 3736 C 348.602 -0.752001 1.87157 0
M  V30 3737 C 348.915 -1.77978 0.811375 0
M  V30 3738 O 350.121 -2.52559 0.996293 0
M  V30 3739 C 348.577 -1.38844 3.3204 0
M  V30 3740 C 348.185 -0.398456 4.46225 0
M  V30 3741 C 349.929 -2.06512 3.70882 0
M  V30 3742 C 347.836 -1.04166 5.82154 0
M  V30 3743 H 346.766 -0.28461 0.698222 0
M  V30 3744 H 349.417 -0.00561272 1.83499 0
M  V30 3745 H 347.799 -2.1836 3.30356 0
M  V30 3746 H 348.973 0.367977 4.59328 0
M  V30 3747 H 347.288 0.174592 4.16034 0
M  V30 3748 H 349.885 -2.55437 4.6974 0
M  V30 3749 H 350.228 -2.87117 3.01445 0
M  V30 3750 H 350.761 -1.33808 3.7462 0
M  V30 3751 H 347.5 -0.275614 6.5492 0
M  V30 3752 H 347.02 -1.7786 5.72823 0
M  V30 3753 H 348.699 -1.55715 6.27982 0
M  V30 3754 N 348.832 -1.54138 -0.328536 0
M  V30 3755 C 350.06 -1.76062 -1.08673 0
M  V30 3756 C 350.475 -0.506852 -1.81869 0
M  V30 3757 O 349.832 0.522223 -1.74869 0
M  V30 3758 C 349.883 -2.95054 -2.08866 0
M  V30 3759 O 349.604 -4.15583 -1.38644 0
M  V30 3760 C 351.105 -3.2915 -2.96943 0
M  V30 3761 H 348.325 -0.587889 -0.323461 0
M  V30 3762 H 350.869 -2.0101 -0.376175 0
M  V30 3763 H 349.024 -2.72394 -2.75464 0
M  V30 3764 H 349.438 -4.82481 -2.05699 0
M  V30 3765 H 350.912 -4.15723 -3.63151 0
M  V30 3766 H 351.389 -2.461 -3.63774 0
M  V30 3767 H 351.995 -3.53871 -2.35914 0
M  V30 3768 N 350.31 0.590341 -1.46126 0
M  V30 3769 C 351.587 1.35029 -1.41515 0
M  V30 3770 C 351.967 2.10888 -0.0946472 0
M  V30 3771 O 351.315 2.08998 0.923693 0
M  V30 3772 C 351.525 2.28269 -2.63997 0
M  V30 3773 C 352.873 2.90338 -3.09821 0
M  V30 3774 O 353.897 2.38585 -2.64492 0
M  V30 3775 O 352.756 3.84321 -3.88535 0
M  V30 3776 H 349.85 0.606317 -0.562413 0
M  V30 3777 H 352.396 0.611994 -1.58281 0
M  V30 3778 H 351.168 1.71591 -3.51671 0
M  V30 3779 H 350.791 3.0945 -2.49652 0
M  V30 3780 N 351.788 1.33704 0.83433 0
M  V30 3781 C 352.718 1.26967 1.95963 0
M  V30 3782 C 353.699 0.149337 1.69443 0
M  V30 3783 O 354.884 0.339852 1.91203 0
M  V30 3784 C 352.014 1.01275 3.32206 0
M  V30 3785 C 350.968 2.09652 3.73136 0
M  V30 3786 C 350.294 1.69166 5.07235 0
M  V30 3787 C 351.594 3.51372 3.86439 0
M  V30 3788 H 353.288 2.2112 2.01857 0
M  V30 3789 H 350.834 1.06447 0.969793 0
M  V30 3790 H 352.787 0.952106 4.10503 0
M  V30 3791 H 351.511 0.0356203 3.26581 0
M  V30 3792 H 350.17 2.14766 2.97104 0
M  V30 3793 H 349.818 0.701437 4.98085 0
M  V30 3794 H 349.518 2.41694 5.35591 0
M  V30 3795 H 351.042 1.64576 5.88003 0
M  V30 3796 H 352.456 3.48734 4.55036 0
M  V30 3797 H 350.853 4.22425 4.26236 0
M  V30 3798 H 351.923 3.89546 2.88759 0
M  V30 3799 N 353.266 -1.05314 1.17247 0
M  V30 3800 C 354.213 -2.13031 0.888058 0
M  V30 3801 C 355.183 -1.65253 -0.167537 0
M  V30 3802 O 356.368 -1.90775 -0.0305974 0
M  V30 3803 C 353.508 -3.42702 0.406147 0
M  V30 3804 C 352.621 -4.04161 1.52572 0
M  V30 3805 C 351.756 -5.21744 0.997808 0
M  V30 3806 C 350.795 -5.75207 2.09291 0
M  V30 3807 N 349.932 -6.84094 1.57986 0
M  V30 3808 H 354.772 -2.36698 1.81048 0
M  V30 3809 H 352.309 -1.16121 0.903013 0
M  V30 3810 H 354.267 -4.17059 0.108305 0
M  V30 3811 H 352.897 -3.19222 -0.479313 0
M  V30 3812 H 351.949 -3.27253 1.93931 0
M  V30 3813 H 353.261 -4.39881 2.35172 0
M  V30 3814 H 352.415 -6.03168 0.653739 0
M  V30 3815 H 351.154 -4.87495 0.141232 0
M  V30 3816 H 350.159 -4.92414 2.44557 0
M  V30 3817 H 351.384 -6.11505 2.95362 0
M  V30 3818 H 349.33 -6.51745 0.74598 0
M  V30 3819 H 349.247 -7.18811 2.34195 0
M  V30 3820 H 350.515 -7.69172 1.26468 0
M  V30 3821 N 354.744 -0.972509 -1.24016 0
M  V30 3822 C 355.691 -0.505969 -2.25186 0
M  V30 3823 C 356.661 0.451009 -1.5986 0
M  V30 3824 O 357.846 0.360307 -1.87367 0
M  V30 3825 C 354.986 0.193089 -3.44559 0
M  V30 3826 C 354.099 -0.803222 -4.24467 0
M  V30 3827 C 353.234 -0.0797793 -5.3114 0
M  V30 3828 C 352.273 -1.06583 -6.02749 0
M  V30 3829 N 351.41 -0.372074 -7.01113 0
M  V30 3830 H 356.25 -1.37351 -2.64459 0
M  V30 3831 H 353.787 -0.688419 -1.29997 0
M  V30 3832 H 355.745 0.615125 -4.1264 0
M  V30 3833 H 354.375 1.02455 -3.06109 0
M  V30 3834 H 353.427 -1.34368 -3.55878 0
M  V30 3835 H 354.739 -1.55494 -4.73944 0
M  V30 3836 H 353.893 0.400015 -6.0538 0
M  V30 3837 H 352.632 0.704597 -4.82583 0
M  V30 3838 H 351.637 -1.55645 -5.27309 0
M  V30 3839 H 352.862 -1.85074 -6.53395 0
M  V30 3840 H 350.808 0.393238 -6.5482 0
M  V30 3841 H 350.725 -1.06258 -7.48495 0
M  V30 3842 H 351.993 0.0855932 -7.79453 0
M  V30 3843 N 356.222 1.38976 -0.743202 0
M  V30 3844 C 357.154 2.29096 -0.0689228 0
M  V30 3845 C 358.167 1.47229 0.694791 0
M  V30 3846 O 359.356 1.70212 0.537597 0
M  V30 3847 C 356.456 3.25988 0.926548 0
M  V30 3848 C 355.629 4.36833 0.222647 0
M  V30 3849 C 354.688 5.13981 1.12739 0
M  V30 3850 O 353.714 5.6601 0.601795 0
M  V30 3851 N 354.916 5.25966 2.45641 0
M  V30 3852 H 357.681 2.87604 -0.842846 0
M  V30 3853 H 355.242 1.50645 -0.593109 0
M  V30 3854 H 357.234 3.74476 1.5346 0
M  V30 3855 H 355.804 2.68453 1.60162 0
M  V30 3856 H 355.024 3.90116 -0.565983 0
M  V30 3857 H 356.312 5.0811 -0.264841 0
M  V30 3858 H 355.71 4.85228 2.9081 0
M  V30 3859 H 354.267 5.77865 3.01522 0
M  V30 3860 N 357.7 0.491464 1.49741 0
M  V30 3861 C 358.948 -0.0563141 2.02022 0
M  V30 3862 C 359.269 -1.38363 1.37407 0
M  V30 3863 O 358.539 -1.88702 0.526166 0
M  V30 3864 H 357.119 -0.0238014 0.746621 0
M  V30 3865 H 359.781 0.646533 1.83864 0
M  V30 3866 H 358.877 -0.192967 3.11503 0
M  V30 3867 N 359.178 -1.55987 0.224894 0
M  V30 3868 C 360.408 -2.02489 -0.41007 0
M  V30 3869 C 360.816 -1.10391 -1.53657 0
M  V30 3870 O 360.159 -0.106458 -1.83391 0
M  V30 3871 C 360.221 -3.45319 -0.999757 0
M  V30 3872 C 359.885 -4.56999 -0.00827976 0
M  V30 3873 C 360.882 -5.13812 0.793314 0
M  V30 3874 C 358.567 -5.02176 0.111442 0
M  V30 3875 C 360.561 -6.14276 1.7013 0
M  V30 3876 C 358.248 -6.02477 1.02296 0
M  V30 3877 C 359.246 -6.58403 1.81643 0
M  V30 3878 O 358.934 -7.56751 2.71262 0
M  V30 3879 H 358.666 -0.667915 -0.104235 0
M  V30 3880 H 361.22 -2.0257 0.339782 0
M  V30 3881 H 359.45 -3.42318 -1.79876 0
M  V30 3882 H 361.139 -3.7545 -1.54248 0
M  V30 3883 H 361.905 -4.79756 0.711288 0
M  V30 3884 H 357.784 -4.58323 -0.49605 0
M  V30 3885 H 361.328 -6.57854 2.32107 0
M  V30 3886 H 357.225 -6.35954 1.10599 0
M  V30 3887 H 357.993 -7.74286 2.65375 0
M  V30 3888 N 360.656 0.0484629 -1.57525 0
M  V30 3889 C 361.884 0.755421 -1.92616 0
M  V30 3890 C 362.299 1.69919 -0.822984 0
M  V30 3891 O 361.656 1.81378 0.202085 0
M  V30 3892 C 361.707 1.52915 -3.27566 0
M  V30 3893 O 361.428 0.62329 -4.33644 0
M  V30 3894 C 362.929 2.33502 -3.76818 0
M  V30 3895 H 360.149 0.213465 -0.63614 0
M  V30 3896 H 362.693 0.0117698 -2.04497 0
M  V30 3897 H 360.848 2.22486 -3.17142 0
M  V30 3898 H 361.262 1.16383 -5.11425 0
M  V30 3899 H 362.736 2.83214 -4.73808 0
M  V30 3900 H 363.213 3.14068 -3.07014 0
M  V30 3901 H 363.819 1.69043 -3.90262 0
M  V30 3902 N 362.134 1.5431 0.320358 0
M  V30 3903 C 363.381 1.72668 1.05792 0
M  V30 3904 C 363.709 0.502084 1.87908 0
M  V30 3905 O 362.964 -0.516149 1.88771 0
M  V30 3906 C 363.263 2.95639 2.00828 0
M  V30 3907 C 362.929 4.30265 1.34843 0
M  V30 3908 C 361.591 4.66865 1.16578 0
M  V30 3909 C 363.943 5.13801 0.875095 0
M  V30 3910 C 361.271 5.84597 0.496336 0
M  V30 3911 C 363.623 6.32219 0.219463 0
M  V30 3912 C 362.287 6.67495 0.0246915 0
M  V30 3913 H 361.557 0.631837 0.387121 0
M  V30 3914 H 364.204 1.88552 0.334735 0
M  V30 3915 H 362.509 2.74456 2.79609 0
M  V30 3916 H 364.206 3.07038 2.57932 0
M  V30 3917 H 360.796 4.01472 1.50061 0
M  V30 3918 H 364.98 4.86039 1.00398 0
M  V30 3919 H 360.236 6.10486 0.334264 0
M  V30 3920 H 364.41 6.96227 -0.155291 0
M  V30 3921 H 362.037 7.5858 -0.496065 0
M  V30 3922 N 363.613 -0.582584 1.46437 0
M  V30 3923 C 364.56 -1.69164 1.5701 0
M  V30 3924 C 365.53 -1.60847 0.414403 0
M  V30 3925 O 366.715 -1.80058 0.631171 0
M  V30 3926 C 363.855 -3.075 1.56646 0
M  V30 3927 C 362.968 -3.2644 2.82951 0
M  V30 3928 C 362.103 -4.55026 2.7409 0
M  V30 3929 C 361.142 -4.6731 3.95333 0
M  V30 3930 N 360.279 -5.87221 3.84858 0
M  V30 3931 H 365.119 -1.59464 2.51744 0
M  V30 3932 H 362.656 -0.777186 1.24893 0
M  V30 3933 H 364.614 -3.8757 1.5442 0
M  V30 3934 H 363.244 -3.16096 0.654439 0
M  V30 3935 H 362.296 -2.39974 2.95155 0
M  V30 3936 H 363.608 -3.31385 3.72808 0
M  V30 3937 H 362.762 -5.43324 2.6997 0
M  V30 3938 H 361.501 -4.52519 1.81873 0
M  V30 3939 H 360.506 -3.77429 3.99784 0
M  V30 3940 H 361.731 -4.71595 4.88646 0
M  V30 3941 H 359.677 -5.85712 2.95427 0
M  V30 3942 H 359.594 -5.93435 4.6837 0
M  V30 3943 H 360.862 -6.7795 3.84713 0
M  V30 3944 N 365.091 -1.34144 -0.827227 0
M  V30 3945 C 366.316 -1.29476 -1.62021 0
M  V30 3946 C 366.741 0.129292 -1.87655 0
M  V30 3947 O 366.099 1.08967 -1.449 0
M  V30 3948 C 366.147 -2.08702 -2.94068 0
M  V30 3949 O 365.251 -1.45359 -3.85933 0
M  V30 3950 H 364.592 -0.444881 -0.492927 0
M  V30 3951 H 367.122 -1.76882 -1.02829 0
M  V30 3952 H 367.132 -2.19898 -3.43669 0
M  V30 3953 H 365.807 -3.12241 -2.74734 0
M  V30 3954 H 364.384 -1.42879 -3.44442 0
M  V30 3955 N 366.569 1.04691 -1.17803 0
M  V30 3956 C 367.818 1.77176 -0.963931 0
M  V30 3957 C 368.131 1.88888 0.508015 0
M  V30 3958 O 369.337 2.58164 0.840465 0
M  V30 3959 C 367.793 3.18518 -1.67555 0
M  V30 3960 C 367.401 3.14919 -3.18637 0
M  V30 3961 C 369.145 3.95424 -1.54402 0
M  V30 3962 C 367.052 4.51081 -3.82466 0
M  V30 3963 H 365.982 0.664116 -0.357023 0
M  V30 3964 H 368.633 1.17303 -1.4111 0
M  V30 3965 H 367.015 3.78748 -1.15613 0
M  V30 3966 H 368.189 2.64178 -3.77554 0
M  V30 3967 H 366.504 2.51512 -3.31859 0
M  V30 3968 H 369.101 4.96106 -1.99456 0
M  V30 3969 H 369.444 4.13343 -0.495329 0
M  V30 3970 H 369.977 3.41754 -2.0359 0
M  V30 3971 H 366.716 4.38368 -4.87354 0
M  V30 3972 H 366.236 5.01951 -3.28337 0
M  V30 3973 H 367.915 5.2001 -3.84965 0
M  V30 3974 N 368.047 0.979072 1.23499 0
M  V30 3975 C 369.324 0.563674 1.87302 0
M  V30 3976 C 369.704 -0.959199 1.88049 0
M  V30 3977 O 369.052 -1.83535 1.36114 0
M  V30 3978 C 369.262 1.16822 3.28867 0
M  V30 3979 C 370.61 1.26014 4.0547 0
M  V30 3980 O 371.634 1.12158 3.38082 0
M  V30 3981 O 370.493 1.48044 5.26066 0
M  V30 3982 H 367.587 0.189602 0.804972 0
M  V30 3983 H 370.133 1.07407 1.31384 0
M  V30 3984 H 368.905 2.21049 3.22883 0
M  V30 3985 H 368.528 0.642564 3.92373 0
M  V30 3986 N 369.525 -1.3858 0.750561 0
M  V30 3987 C 370.802 -1.94231 0.231009 0
M  V30 3988 C 371.182 -1.68611 -1.27018 0
M  V30 3989 O 370.53 -1.02296 -2.04323 0
M  V30 3990 C 370.74 -3.44123 0.581428 0
M  V30 3991 C 372.088 -4.2116 0.539389 0
M  V30 3992 O 373.112 -3.52391 0.519541 0
M  V30 3993 O 371.971 -5.43749 0.54765 0
M  V30 3994 H 369.065 -0.825639 0.0474263 0
M  V30 3995 H 371.611 -1.4799 0.830478 0
M  V30 3996 H 370.383 -3.56267 1.61833 0
M  V30 3997 H 370.006 -3.97573 -0.0462047 0
M  V30 3998 N 371.003 -0.499398 -1.49478 0
M  V30 3999 C 371.933 0.269244 -2.31943 0
M  V30 4000 C 372.914 0.964054 -1.40143 0
M  V30 4001 O 374.099 0.955767 -1.69052 0
M  V30 4002 C 371.229 1.33504 -3.20615 0
M  V30 4003 C 370.183 0.760202 -4.21195 0
M  V30 4004 C 369.509 1.9264 -4.98792 0
M  V30 4005 C 370.809 -0.247661 -5.21712 0
M  V30 4006 H 372.503 -0.419082 -2.96452 0
M  V30 4007 H 370.049 -0.202988 -1.42562 0
M  V30 4008 H 372.002 1.88048 -3.77115 0
M  V30 4009 H 370.726 2.05253 -2.54045 0
M  V30 4010 H 369.385 0.23653 -3.65836 0
M  V30 4011 H 369.033 2.63154 -4.28671 0
M  V30 4012 H 368.733 1.54785 -5.66847 0
M  V30 4013 H 370.257 2.4762 -5.58137 0
M  V30 4014 H 371.671 0.209579 -5.72917 0
M  V30 4015 H 370.068 -0.541962 -5.97648 0
M  V30 4016 H 371.138 -1.16409 -4.7072 0
M  V30 4017 N 372.481 1.55866 -0.233164 0
M  V30 4018 C 373.414 2.16794 0.712442 0
M  V30 4019 C 374.392 1.1158 1.18273 0
M  V30 4020 O 375.576 1.39897 1.26337 0
M  V30 4021 C 372.703 2.75757 1.96661 0
M  V30 4022 C 371.749 3.93902 1.63533 0
M  V30 4023 S 372.582 5.30223 0.74995 0
M  V30 4024 C 373.738 5.92631 2.01343 0
M  V30 4025 H 373.971 2.96662 0.194617 0
M  V30 4026 H 371.504 1.5439 -0.0177425 0
M  V30 4027 H 373.462 3.10367 2.68668 0
M  V30 4028 H 372.123 1.9586 2.45556 0
M  V30 4029 H 371.316 4.33702 2.56747 0
M  V30 4030 H 370.918 3.60499 0.995804 0
M  V30 4031 H 373.21 6.09312 2.96219 0
M  V30 4032 H 374.153 6.88388 1.65915 0
M  V30 4033 H 374.561 5.21571 2.15925 0
M  V30 4034 N 373.959 -0.0401083 1.57549 0
M  V30 4035 C 375.206 -0.733125 1.88763 0
M  V30 4036 C 375.534 -1.75946 0.829058 0
M  V30 4037 O 374.789 -1.94949 -0.171323 0
M  V30 4038 C 375.088 -1.44902 3.26708 0
M  V30 4039 C 374.754 -0.559707 4.47413 0
M  V30 4040 C 373.416 -0.314731 4.8017 0
M  V30 4041 C 375.768 0.0549743 5.21171 0
M  V30 4042 C 373.096 0.553886 5.8408 0
M  V30 4043 C 375.448 0.911229 6.26003 0
M  V30 4044 C 374.112 1.16577 6.57241 0
M  V30 4045 H 373.382 -0.268269 0.690733 0
M  V30 4046 H 376.029 0.00679408 1.91499 0
M  V30 4047 H 374.334 -2.26197 3.1991 0
M  V30 4048 H 376.031 -1.99058 3.48105 0
M  V30 4049 H 372.621 -0.760793 4.21794 0
M  V30 4050 H 376.805 -0.121344 4.96152 0
M  V30 4051 H 372.061 0.759518 6.06664 0
M  V30 4052 H 376.235 1.3941 6.82303 0
M  V30 4053 H 373.862 1.84058 7.37582 0
M  V30 4054 N 375.437 -1.54477 -0.31217 0
M  V30 4055 C 376.347 -1.87695 -1.4074 0
M  V30 4056 C 377.363 -0.769975 -1.56036 0
M  V30 4057 O 378.539 -1.06537 -1.70915 0
M  V30 4058 C 375.604 -2.10755 -2.75287 0
M  V30 4059 C 374.665 -3.34514 -2.69071 0
M  V30 4060 C 373.898 -3.56465 -3.97201 0
M  V30 4061 O 374.121 -2.81637 -4.96021 0
M  V30 4062 O 373.055 -4.49964 -3.9977 0
M  V30 4063 H 376.881 -2.80849 -1.15574 0
M  V30 4064 H 374.466 -1.40526 -0.507228 0
M  V30 4065 H 376.348 -2.27188 -3.54913 0
M  V30 4066 H 375.023 -1.20788 -3.0032 0
M  V30 4067 H 373.93 -3.23456 -1.87955 0
M  V30 4068 H 375.263 -4.24575 -2.48992 0
M  V30 4069 N 376.915 0.57481 -1.46744 0
M  V30 4070 C 377.862 1.68329 -1.57905 0
M  V30 4071 C 378.832 1.60625 -0.422927 0
M  V30 4072 O 380.017 1.79721 -0.640711 0
M  V30 4073 C 377.157 3.06665 -1.58274 0
M  V30 4074 C 376.27 3.24935 -2.84678 0
M  V30 4075 C 375.405 4.53566 -2.76499 0
M  V30 4076 C 374.444 4.65207 -3.97806 0
M  V30 4077 N 373.581 5.85172 -3.87967 0
M  V30 4078 H 378.421 1.58127 -2.52587 0
M  V30 4079 H 375.958 0.770552 -1.25303 0
M  V30 4080 H 377.916 3.86745 -1.56473 0
M  V30 4081 H 376.546 3.15745 -0.671194 0
M  V30 4082 H 375.598 2.38405 -2.96424 0
M  V30 4083 H 376.91 3.29403 -3.7456 0
M  V30 4084 H 376.064 5.41885 -2.72848 0
M  V30 4085 H 374.803 4.51548 -1.8427 0
M  V30 4086 H 373.808 3.75304 -4.0178 0
M  V30 4087 H 375.033 4.68997 -4.9114 0
M  V30 4088 H 372.979 5.84137 -2.98529 0
M  V30 4089 H 372.896 5.90943 -4.71511 0
M  V30 4090 H 374.164 6.759 -3.88303 0
M  V30 4091 N 378.394 1.34581 0.820102 0
M  V30 4092 C 379.304 1.28471 1.96297 0
M  V30 4093 C 380.32 0.191902 1.72939 0
M  V30 4094 O 381.496 0.418879 1.96996 0
M  V30 4095 C 378.561 1.04281 3.30645 0
M  V30 4096 C 377.622 2.22745 3.66992 0
M  V30 4097 C 376.855 1.997 4.9493 0
M  V30 4098 O 377.078 0.956656 5.6232 0
M  V30 4099 O 376.012 2.86723 5.2922 0
M  V30 4100 H 379.838 2.24624 2.04396 0
M  V30 4101 H 377.423 1.14816 0.955913 0
M  V30 4102 H 379.305 0.925841 4.11104 0
M  V30 4103 H 377.98 0.111697 3.23507 0
M  V30 4104 H 376.887 2.40003 2.86966 0
M  V30 4105 H 378.22 3.14257 3.78819 0
M  V30 4106 N 379.872 -1.04064 1.18357 0
M  V30 4107 C 380.805 -2.11618 0.854 0
M  V30 4108 C 381.783 -1.61555 -0.184043 0
M  V30 4109 O 382.967 -1.88395 -0.0630048 0
M  V30 4110 C 380.094 -3.37574 0.27597 0
M  V30 4111 C 379.14 -4.06485 1.2912 0
M  V30 4112 S 379.973 -4.53543 2.84709 0
M  V30 4113 C 381.129 -5.82732 2.28417 0
M  V30 4114 H 381.362 -2.39247 1.76488 0
M  V30 4115 H 378.895 -1.16832 1.00944 0
M  V30 4116 H 380.853 -4.10468 -0.051026 0
M  V30 4117 H 379.514 -3.0806 -0.613028 0
M  V30 4118 H 378.707 -4.97024 0.835633 0
M  V30 4119 H 378.309 -3.39708 1.56443 0
M  V30 4120 H 380.601 -6.56677 1.66677 0
M  V30 4121 H 381.544 -6.33052 3.17256 0
M  V30 4122 H 381.952 -5.37838 1.71436 0
M  V30 4123 N 381.35 -0.985608 -1.22978 0
M  V30 4124 C 382.766 -0.695104 -1.43668 0
M  V30 4125 C 382.966 0.736866 -1.87543 0
M  V30 4126 O 382.022 1.50868 -2.02473 0
M  V30 4127 C 383.335 -1.69447 -2.48412 0
M  V30 4128 C 384.883 -1.70909 -2.62219 0
M  V30 4129 C 385.358 -2.6969 -3.70178 0
M  V30 4130 N 386.849 -2.6824 -3.77626 0
M  V30 4131 C 387.584 -3.41339 -4.60733 0
M  V30 4132 N 387.08 -4.24015 -5.4789 0
M  V30 4133 N 388.873 -3.30079 -4.54977 0
M  V30 4134 H 381.024 -1.91054 -0.928016 0
M  V30 4135 H 383.287 -0.823553 -0.469536 0
M  V30 4136 H 382.993 -2.7188 -2.23102 0
M  V30 4137 H 382.867 -1.48147 -3.46889 0
M  V30 4138 H 385.254 -0.691785 -2.86877 0
M  V30 4139 H 385.335 -1.96276 -1.6404 0
M  V30 4140 H 384.979 -3.71566 -3.46268 0
M  V30 4141 H 384.909 -2.41595 -4.67909 0
M  V30 4142 H 387.4 -2.08243 -3.15346 0
M  V30 4143 H 387.713 -4.76636 -6.08308 0
M  V30 4144 H 386.058 -4.28104 -5.47496 0
M  V30 4145 H 389.249 -2.64937 -3.85909 0
M  V30 4146 H 389.422 -3.87308 -5.19516 0
M  V30 4147 N 382.828 1.3818 -0.7579 0
M  V30 4148 C 383.758 2.33027 -0.148597 0
M  V30 4149 C 384.739 1.55085 0.69875 0
M  V30 4150 O 385.924 1.83384 0.639053 0
M  V30 4151 C 383.054 3.3928 0.742034 0
M  V30 4152 C 382.008 4.28 -0.00291946 0
M  V30 4153 C 381.334 5.25146 1.00625 0
M  V30 4154 C 382.634 5.08938 -1.17385 0
M  V30 4155 H 384.328 2.84231 -0.940909 0
M  V30 4156 H 381.874 1.36659 -0.453908 0
M  V30 4157 H 383.827 4.046 1.17799 0
M  V30 4158 H 382.551 2.86569 1.56671 0
M  V30 4159 H 381.21 3.64192 -0.419504 0
M  V30 4160 H 380.858 4.68721 1.8251 0
M  V30 4161 H 380.558 5.85361 0.512428 0
M  V30 4162 H 382.082 5.93342 1.44143 0
M  V30 4163 H 383.496 5.67474 -0.815224 0
M  V30 4164 H 381.893 5.7841 -1.59882 0
M  V30 4165 H 382.963 4.42424 -1.98468 0
M  V30 4166 N 384.306 0.507319 1.49211 0
M  V30 4167 C 385.717 0.0611118 1.866 0
M  V30 4168 C 386.068 -1.35488 1.41907 0
M  V30 4169 O 385.193 -2.0108 0.799726 0
M  V30 4170 C 385.788 0.104125 3.3864 0
M  V30 4171 C 384.347 -0.28677 3.75306 0
M  V30 4172 C 383.494 0.473893 2.73221 0
M  V30 4173 H 386.445 0.719775 1.41439 0
M  V30 4174 H 386.466 -0.689672 3.74198 0
M  V30 4175 H 385.978 1.13482 3.71138 0
M  V30 4176 H 384.079 -1.32046 3.48417 0
M  V30 4177 H 384.192 0.0370745 4.79086 0
M  V30 4178 H 382.556 -0.0770644 2.54583 0
M  V30 4179 H 383.339 1.50478 3.08563 0
M  V30 4180 N 385.784 -1.5574 0.241426 0
M  V30 4181 C 387.009 -2.0366 -0.392111 0
M  V30 4182 C 387.434 -1.11969 -1.51144 0
M  V30 4183 O 386.792 -0.111594 -1.80956 0
M  V30 4184 C 386.84 -3.49638 -0.882371 0
M  V30 4185 O 385.944 -3.6108 -1.99235 0
M  V30 4186 H 385.285 -0.658379 -0.0862122 0
M  V30 4187 H 387.815 -2.01302 0.365881 0
M  V30 4188 H 387.825 -3.90351 -1.18702 0
M  V30 4189 H 386.5 -4.15852 -0.0632361 0
M  V30 4190 H 385.077 -3.32262 -1.69282 0
M  V30 4191 N 387.262 0.0317525 -1.57568 0
M  V30 4192 C 388.192 1.03274 -2.0942 0
M  V30 4193 C 389.173 1.3788 -0.996143 0
M  V30 4194 O 390.358 1.46811 -1.27122 0
M  V30 4195 C 387.488 2.33448 -2.57137 0
M  V30 4196 C 386.442 2.13091 -3.71182 0
M  V30 4197 C 385.768 3.49001 -4.05095 0
M  V30 4198 C 387.068 1.51928 -4.99715 0
M  V30 4199 H 388.762 0.60112 -2.93303 0
M  V30 4200 H 386.308 0.287705 -1.41097 0
M  V30 4201 H 388.261 3.03802 -2.92032 0
M  V30 4202 H 386.985 2.78665 -1.70333 0
M  V30 4203 H 385.644 1.45171 -3.36632 0
M  V30 4204 H 385.292 3.91862 -3.15362 0
M  V30 4205 H 384.992 3.36207 -4.81911 0
M  V30 4206 H 386.516 4.20721 -4.42522 0
M  V30 4207 H 387.93 2.12196 -5.32584 0
M  V30 4208 H 386.327 1.49716 -5.81124 0
M  V30 4209 H 387.397 0.484811 -4.8247 0
M  V30 4210 O 388.779 1.60553 0.174647 0
M  V30 4211 H 389.47 1.75876 0.811619 0
M  V30 END ATOM
M  V30 BEGIN BOND
M  V30 END BOND
M  V30 END CTAB
M  END
$$$$
