drugbank_target|Q939D2 Catalase-peroxidase (DB08638)
 OpenBabel12092120263D

  0  0  0     0  0            999 V3000
M  V30 BEGIN CTAB
M  V30 COUNTS 11034 11179 0 0 0
M  V30 BEGIN ATOM
M  V30 1 H -0.908 1.98254 -0.117106 0
M  V30 2 N 0 1.576 0 0
M  V30 3 C 0.933 2.03868 1.02534 0
M  V30 4 C 1.911 0.928543 1.3348 0
M  V30 5 O 3.095 1.19667 1.45644 0
M  V30 6 C 0.222 2.43627 2.35294 0
M  V30 7 C -0.732 3.65373 2.2001 0
M  V30 8 S 0.101 5.13292 1.52614 0
M  V30 9 C 1.257 5.56322 2.86805 0
M  V30 10 H 1.49 2.90518 0.631377 0
M  V30 11 H -0.977 1.52953 0.210867 0
M  V30 12 H 0.981 2.67203 3.11629 0
M  V30 13 H -0.358 1.57376 2.7183 0
M  V30 14 H -1.165 3.90944 3.18086 0
M  V30 15 H -1.563 3.418 1.51819 0
M  V30 16 H 0.729 5.58782 3.83104 0
M  V30 17 H 1.672 6.56266 2.65933 0
M  V30 18 H 2.08 4.83886 2.90714 0
M  V30 19 N 1.4781 -0.272755 1.55222 0
M  V30 20 C 2.7031 -1.02683 1.80197 0
M  V30 21 C 3.1281 -1.79142 0.573551 0
M  V30 22 O 2.4861 -1.74917 -0.476849 0
M  V30 23 C 2.5341 -1.9609 3.02624 0
M  V30 24 O 1.6381 -3.04863 2.77727 0
M  V30 25 H 0.9791 -0.293557 0.595584 0
M  V30 26 H 3.5091 -0.30159 2.02365 0
M  V30 27 H 3.5191 -2.38039 3.31363 0
M  V30 28 H 2.1941 -1.39851 3.91682 0
M  V30 29 H 0.7711 -2.67228 2.60084 0
M  V30 30 N 2.9562 -1.48159 -0.537278 0
M  V30 31 C 3.9042 -1.62573 -1.66352 0
M  V30 32 C 4.8982 -0.492366 -1.62087 0
M  V30 33 O 6.1042 -0.670847 -1.67032 0
M  V30 34 H 2.4792 -0.511992 -0.550789 0
M  V30 35 H 4.4502 -2.57176 -1.51337 0
M  V30 36 C 3.1992 -1.67583 -3.04649 0
M  V30 37 H 2.5222 -2.54151 -3.08622 0
M  V30 38 H 3.9622 -1.81713 -3.83088 0
M  V30 39 C 2.4212 -0.413039 -3.34358 0
M  V30 40 O 2.9512 0.477259 -3.98855 0
M  V30 41 N 1.1572 -0.286961 -2.8918 0
M  V30 42 H 0.7042 -1.01241 -2.36871 0
M  V30 43 H 0.6622 0.556963 -3.09427 0
M  V30 44 N 4.4343 0.785586 -1.36625 0
M  V30 45 C 5.3443 1.92964 -1.33425 0
M  V30 46 C 6.3603 1.72394 -0.235851 0
M  V30 47 O 7.5363 1.95866 -0.468878 0
M  V30 48 C 4.6013 3.27884 -1.12662 0
M  V30 49 C 3.6623 3.61204 -2.32013 0
M  V30 50 C 2.8953 4.89687 -2.12231 0
M  V30 51 O 3.1183 5.59704 -1.09945 0
M  V30 52 O 2.0523 5.21752 -3.00098 0
M  V30 53 H 5.8783 1.98613 -2.29753 0
M  V30 54 H 3.4633 0.926384 -1.17211 0
M  V30 55 H 5.3453 4.08614 -1.03016 0
M  V30 56 H 4.0203 3.23118 -0.193991 0
M  V30 57 H 2.9273 2.80765 -2.47228 0
M  V30 58 H 4.2603 3.70698 -3.23796 0
M  V30 59 N 5.9124 1.20967 1.01018 0
M  V30 60 C 6.8754 0.965918 2.07853 0
M  V30 61 C 7.8754 -0.0610545 1.60684 0
M  V30 62 O 9.0654 0.175681 1.73312 0
M  V30 63 C 6.1974 0.455513 3.37843 0
M  V30 64 H 7.3904 1.91365 2.3091 0
M  V30 65 H 4.9434 1.02594 1.17916 0
M  V30 66 H 5.6784 -0.497381 3.20463 0
M  V30 67 H 5.4634 1.19622 3.73407 0
M  V30 68 H 6.9534 0.304667 4.16487 0
M  V30 69 N 7.3905 -1.2043 1.01659 0
M  V30 70 C 8.3375 -2.23215 0.586822 0
M  V30 71 C 9.3075 -1.61382 -0.393085 0
M  V30 72 O 10.4925 -1.88544 -0.292525 0
M  V30 73 C 7.6325 -3.45032 -0.0687464 0
M  V30 74 C 6.7455 -4.21296 0.955724 0
M  V30 75 C 5.8805 -5.30507 0.271208 0
M  V30 76 C 4.9195 -5.98515 1.28244 0
M  V30 77 N 4.0565 -6.99316 0.62459 0
M  V30 78 H 8.8965 -2.59336 1.46796 0
M  V30 79 H 6.4335 -1.27431 0.734836 0
M  V30 80 H 8.3915 -4.1459 -0.465965 0
M  V30 81 H 7.0215 -3.09604 -0.913529 0
M  V30 82 H 6.0735 -3.50803 1.4711 0
M  V30 83 H 7.3855 -4.6803 1.72479 0
M  V30 84 H 6.5395 -6.06428 -0.18151 0
M  V30 85 H 5.2785 -4.8481 -0.530163 0
M  V30 86 H 4.2835 -5.21355 1.74554 0
M  V30 87 H 5.5085 -6.46298 2.08509 0
M  V30 88 H 3.4545 -6.55812 -0.156914 0
M  V30 89 H 3.3715 -7.44178 1.33172 0
M  V30 90 H 4.6395 -7.79255 0.195462 0
M  V30 91 N 8.8686 -0.792821 -1.36206 0
M  V30 92 C 10.1086 -0.372238 -2.00982 0
M  V30 93 C 10.4726 1.03749 -1.61555 0
M  V30 94 O 11.6736 1.55934 -2.18948 0
M  V30 95 C 9.9446 -0.534566 -3.5338 0
M  V30 96 S 11.5036 -0.202365 -4.38333 0
M  V30 97 H 8.3216 -0.142044 -0.696667 0
M  V30 98 H 10.9236 -1.03206 -1.66039 0
M  V30 99 H 9.6276 -1.5608 -3.79562 0
M  V30 100 H 9.1586 0.141065 -3.93147 0
M  V30 101 H 11.1736 0.994869 -4.86124 0
M  V30 102 N 10.3467 1.47872 -0.545128 0
M  V30 103 C 11.7577 1.86384 -0.108581 0
M  V30 104 C 12.1087 1.45309 1.31832 0
M  V30 105 O 11.2337 0.850641 1.9898 0
M  V30 106 C 11.8287 3.38265 -0.190274 0
M  V30 107 C 10.3877 3.75914 0.191164 0
M  V30 108 C 9.5347 2.71926 -0.543273 0
M  V30 109 H 12.4857 1.39561 -0.755537 0
M  V30 110 H 12.5067 3.75831 0.594217 0
M  V30 111 H 12.0187 3.6813 -1.2289 0
M  V30 112 H 10.1197 3.51665 1.23136 0
M  V30 113 H 10.2327 4.78836 -0.158987 0
M  V30 114 H 8.5967 2.54697 0.0122495 0
M  V30 115 H 9.3797 3.04634 -1.58282 0
M  V30 116 N 11.8248 0.280983 1.55075 0
M  V30 117 C 13.0718 -0.334115 1.99725 0
M  V30 118 C 13.3998 -1.5542 1.1694 0
M  V30 119 O 12.6548 -1.94361 0.228531 0
M  V30 120 C 12.9538 -0.754656 3.49342 0
M  V30 121 C 12.6198 0.361445 4.49449 0
M  V30 122 C 11.2818 0.667893 4.76542 0
M  V30 123 C 13.6338 1.11322 5.09173 0
M  V30 124 C 10.9618 1.7296 5.60626 0
M  V30 125 C 13.3138 2.1647 5.9441 0
M  V30 126 C 11.9778 2.47742 6.19822 0
M  V30 127 H 11.2478 -0.122261 0.730844 0
M  V30 128 H 13.8948 0.395917 1.87363 0
M  V30 129 H 12.1998 -1.56446 3.5921 0
M  V30 130 H 13.8968 -1.24142 3.813 0
M  V30 131 H 10.4868 0.112481 4.28452 0
M  V30 132 H 14.6708 0.88973 4.8826 0
M  V30 133 H 9.9268 1.97684 5.78559 0
M  V30 134 H 14.1008 2.75193 6.3972 0
M  V30 135 H 11.7278 3.30145 6.84769 0
M  V30 136 N 13.3029 -1.57598 0.00835791 0
M  V30 137 C 14.2529 -2.05431 -0.989045 0
M  V30 138 C 15.2369 -0.950662 -1.29812 0
M  V30 139 O 16.4289 -1.21438 -1.28771 0
M  V30 140 C 13.5579 -2.56801 -2.27833 0
M  V30 141 C 12.6439 -3.74058 -1.99853 0
M  V30 142 N 13.0349 -4.8544 -1.42062 0
M  V30 143 C 11.3329 -3.82148 -2.29953 0
M  V30 144 C 12.0339 -5.66817 -1.30743 0
M  V30 145 N 11.0099 -5.13077 -1.7959 0
M  V30 146 H 14.8119 -2.88955 -0.536853 0
M  V30 147 H 12.3259 -1.61199 -0.197148 0
M  V30 148 H 14.3229 -2.89349 -3.00137 0
M  V30 149 H 12.9829 -1.74699 -2.73698 0
M  V30 150 H 13.9939 -5.0612 -1.09833 0
M  V30 151 H 10.6709 -3.10916 -2.78635 0
M  V30 152 H 12.0609 -6.66343 -0.862328 0
M  V30 153 N 14.781 0.264519 -1.55364 0
M  V30 154 C 15.713 1.34965 -1.85248 0
M  V30 155 C 16.726 1.45136 -0.737525 0
M  V30 156 O 17.915 1.46801 -1.01547 0
M  V30 157 C 15.015 2.73008 -2.00797 0
M  V30 158 C 14.188 2.85324 -3.31525 0
M  V30 159 C 13.247 4.04097 -3.37034 0
M  V30 160 O 12.273 3.94455 -4.10358 0
M  V30 161 N 13.475 5.16458 -2.65049 0
M  V30 162 H 16.24 1.09672 -2.78913 0
M  V30 163 H 13.801 0.454635 -1.55386 0
M  V30 164 H 15.793 3.50772 -2.01844 0
M  V30 165 H 14.363 2.91087 -1.1396 0
M  V30 166 H 13.583 1.94377 -3.42945 0
M  V30 167 H 14.871 2.9049 -4.17724 0
M  V30 168 H 14.269 5.27181 -2.05175 0
M  V30 169 H 12.826 5.92422 -2.71809 0
M  V30 170 N 16.2591 1.48442 0.529413 0
M  V30 171 C 17.2221 1.62524 1.61612 0
M  V30 172 C 18.2221 0.498509 1.52877 0
M  V30 173 O 19.4121 0.76431 1.56537 0
M  V30 174 C 16.5441 1.59597 3.01233 0
M  V30 175 H 17.7371 2.59423 1.50465 0
M  V30 176 H 15.2901 1.37047 0.751514 0
M  V30 177 H 16.0251 0.641781 3.17886 0
M  V30 178 H 15.8101 2.41397 3.08982 0
M  V30 179 H 17.3001 1.72646 3.80241 0
M  V30 180 N 17.7372 -0.778329 1.37039 0
M  V30 181 C 18.7002 -1.87301 1.32102 0
M  V30 182 C 19.7002 -1.59198 0.226405 0
M  V30 183 O 20.8902 -1.67403 0.481861 0
M  V30 184 C 18.0222 -3.24309 1.05055 0
M  V30 185 H 19.2152 -1.93093 2.29467 0
M  V30 186 H 16.7682 -0.977358 1.21973 0
M  V30 187 H 17.5032 -3.24196 0.0819373 0
M  V30 188 H 17.2882 -3.46098 1.84279 0
M  V30 189 H 18.7782 -4.04382 1.04234 0
M  V30 190 N 19.2153 -1.21501 -1.00376 0
M  V30 191 C 20.4633 -1.03095 -1.73827 0
M  V30 192 C 20.7843 0.436341 -1.90055 0
M  V30 193 O 20.0543 1.31466 -1.45236 0
M  V30 194 H 18.6343 -0.378487 -0.644016 0
M  V30 195 H 21.2963 -1.52831 -1.20949 0
M  V30 196 H 20.3923 -1.49991 -2.73695 0
M  V30 197 N 20.6934 1.19889 -1.02296 0
M  V30 198 C 21.6414 2.24938 -0.592081 0
M  V30 199 C 22.6354 1.65257 0.372357 0
M  V30 200 O 23.8414 1.78371 0.241583 0
M  V30 201 H 20.2164 0.731787 -0.173182 0
M  V30 202 H 22.1874 2.58603 -1.48885 0
M  V30 203 C 20.9364 3.47668 0.047351 0
M  V30 204 H 20.2594 3.93875 -0.685772 0
M  V30 205 H 21.6994 4.22852 0.311862 0
M  V30 206 C 20.1584 3.11136 1.29212 0
M  V30 207 O 20.6884 3.2325 2.38479 0
M  V30 208 N 18.8944 2.65625 1.17863 0
M  V30 209 H 18.4414 2.55968 0.289493 0
M  V30 210 H 18.3994 2.41553 2.01245 0
M  V30 211 N 22.1715 0.800033 1.35784 0
M  V30 212 C 23.4195 0.376597 1.9856 0
M  V30 213 C 23.7405 -1.05812 1.63795 0
M  V30 214 O 23.0105 -1.73103 0.917171 0
M  V30 215 H 21.5905 0.136261 0.734467 0
M  V30 216 H 24.2525 1.02442 1.65806 0
M  V30 217 H 23.3485 0.477002 3.08433 0
M  V30 218 N 23.6496 -1.47581 0.552962 0
M  V30 219 C 24.8776 -2.06875 0.0320556 0
M  V30 220 C 25.2926 -1.40625 -1.25976 0
M  V30 221 O 24.6496 -0.501349 -1.75479 0
M  V30 222 C 24.7006 -3.61092 -0.17167 0
M  V30 223 O 24.4216 -4.24858 1.06899 0
M  V30 224 C 25.9226 -4.37242 -0.730344 0
M  V30 225 H 23.1426 -0.669561 0.043915 0
M  V30 226 H 25.6866 -1.89646 0.765163 0
M  V30 227 H 23.8416 -3.7785 -0.854894 0
M  V30 228 H 24.2556 -5.17334 0.864059 0
M  V30 229 H 25.7296 -5.45842 -0.822203 0
M  V30 230 H 26.2066 -4.03235 -1.74064 0
M  V30 231 H 26.8126 -4.25219 -0.0829543 0
M  V30 232 N 25.1277 -0.289203 -1.54924 0
M  V30 233 C 26.3527 0.329299 -2.04769 0
M  V30 234 C 26.7777 1.4763 -1.16564 0
M  V30 235 O 26.1357 1.80527 -0.167186 0
M  V30 236 C 26.1837 0.774438 -3.52186 0
M  V30 237 O 25.2877 1.88038 -3.67036 0
M  V30 238 H 24.6287 0.0659259 -0.660719 0
M  V30 239 H 27.1587 -0.42761 -2.00082 0
M  V30 240 H 27.1687 1.06642 -3.93816 0
M  V30 241 H 25.8437 -0.0646707 -4.1585 0
M  V30 242 H 24.4207 1.58985 -3.3731 0
M  V30 243 N 26.6058 1.57591 -0.0167156 0
M  V30 244 C 27.5538 2.10604 0.987353 0
M  V30 245 C 28.5478 1.02977 1.34507 0
M  V30 246 O 29.7538 1.21425 1.32875 0
M  V30 247 H 26.1288 0.672695 0.336134 0
M  V30 248 H 28.0998 2.93925 0.514817 0
M  V30 249 C 26.8488 2.6382 2.26483 0
M  V30 250 H 26.1718 3.46278 1.99829 0
M  V30 251 H 27.6118 3.04573 2.94977 0
M  V30 252 C 26.0708 1.55992 2.9861 0
M  V30 253 O 26.6008 0.952521 3.90243 0
M  V30 254 N 24.8068 1.28335 2.60727 0
M  V30 255 H 24.3538 1.77914 1.86291 0
M  V30 256 H 24.3118 0.564115 3.09298 0
M  V30 257 N 28.0839 -0.256276 1.55502 0
M  V30 258 C 29.4999 -0.604325 1.47716 0
M  V30 259 C 29.6999 -1.88763 0.705039 0
M  V30 260 O 28.7559 -2.51445 0.230613 0
M  V30 261 C 30.0689 -0.715756 2.92057 0
M  V30 262 C 31.6169 -0.808706 3.02372 0
M  V30 263 C 32.0919 -0.951777 4.48001 0
M  V30 264 N 33.5829 -1.01688 4.519 0
M  V30 265 C 34.3179 -1.14668 5.61817 0
M  V30 266 N 33.8139 -1.24261 6.81565 0
M  V30 267 N 35.6069 -1.1791 5.49594 0
M  V30 268 H 27.7579 0.586291 2.04148 0
M  V30 269 H 30.0209 0.201015 0.926443 0
M  V30 270 H 29.7269 0.157027 3.51349 0
M  V30 271 H 29.6009 -1.59071 3.42018 0
M  V30 272 H 31.9879 -1.67195 2.43166 0
M  V30 273 H 32.0689 0.0912063 2.55637 0
M  V30 274 H 31.7129 -0.0931291 5.07815 0
M  V30 275 H 31.6429 -1.86659 4.92408 0
M  V30 276 H 34.1339 -0.954468 3.65648 0
M  V30 277 H 34.4469 -1.34046 7.61086 0
M  V30 278 H 32.7919 -1.21236 6.84344 0
M  V30 279 H 35.9829 -1.10057 4.54978 0
M  V30 280 H 36.1559 -1.27681 6.35296 0
M  V30 281 N 29.562 -1.4872 -0.521534 0
M  V30 282 C 30.839 -1.4766 -1.2828 0
M  V30 283 C 31.219 -0.19292 -2.10217 0
M  V30 284 O 30.567 0.825193 -2.13079 0
M  V30 285 C 30.777 -2.74358 -2.15705 0
M  V30 286 C 32.125 -3.23028 -2.75569 0
M  V30 287 O 33.149 -2.75333 -2.25987 0
M  V30 288 O 32.008 -4.0604 -3.65778 0
M  V30 289 H 29.102 -0.590085 -0.579421 0
M  V30 290 H 31.648 -1.60963 -0.537492 0
M  V30 291 H 30.42 -3.59292 -1.54999 0
M  V30 292 H 30.043 -2.63816 -2.97467 0
M  V30 293 N 31.0401 0.771051 -1.3745 0
M  V30 294 C 32.2861 1.53109 -1.339 0
M  V30 295 C 32.6411 1.9225 0.0758401 0
M  V30 296 O 31.9341 1.61264 1.03463 0
M  V30 297 C 32.1281 2.80676 -2.2126 0
M  V30 298 C 31.9571 2.54003 -3.71096 0
M  V30 299 C 30.7271 2.48097 -4.402 0
M  V30 300 C 32.9251 2.21953 -4.63941 0
M  V30 301 N 30.9071 2.13515 -5.75573 0
M  V30 302 C 32.2781 1.97516 -5.87697 0
M  V30 303 C 34.3331 2.08114 -4.5232 0
M  V30 304 C 33.0361 1.60638 -7.01133 0
M  V30 305 C 35.0621 1.72636 -5.65642 0
M  V30 306 C 34.4241 1.4906 -6.88448 0
M  V30 307 H 30.5231 0.56055 -0.54526 0
M  V30 308 H 33.1071 0.899472 -1.72678 0
M  V30 309 H 31.2781 3.41674 -1.84698 0
M  V30 310 H 33.0101 3.46578 -2.08963 0
M  V30 311 H 29.7651 2.63974 -3.93211 0
M  V30 312 H 30.1891 1.98919 -6.47117 0
M  V30 313 H 34.8311 2.25024 -3.57944 0
M  V30 314 H 32.5491 1.42467 -7.95443 0
M  V30 315 H 36.1351 1.62586 -5.58621 0
M  V30 316 H 35.0151 1.22014 -7.7465 0
M  V30 317 N 32.5182 1.22032 0.997298 0
M  V30 318 C 33.7642 1.05382 1.73972 0
M  V30 319 C 34.1192 -0.407419 1.88037 0
M  V30 320 O 33.4122 -1.29811 1.40924 0
M  V30 321 C 33.6062 1.69345 3.14733 0
M  V30 322 C 33.4352 3.21537 3.14395 0
M  V30 323 C 32.2052 3.9062 3.20537 0
M  V30 324 C 34.4032 4.18527 2.98897 0
M  V30 325 N 32.3852 5.29935 3.09906 0
M  V30 326 C 33.7562 5.44645 2.96247 0
M  V30 327 C 35.8112 4.09476 2.83255 0
M  V30 328 C 34.5142 6.62752 2.79557 0
M  V30 329 C 36.5402 5.27228 2.67926 0
M  V30 330 C 35.9022 6.52262 2.65959 0
M  V30 331 H 32.0012 0.440018 0.646458 0
M  V30 332 H 34.5852 1.54505 1.18475 0
M  V30 333 H 32.7562 1.22778 3.68484 0
M  V30 334 H 34.4882 1.45828 3.77513 0
M  V30 335 H 31.2432 3.41592 3.28043 0
M  V30 336 H 31.6672 6.02926 3.07912 0
M  V30 337 H 36.3092 3.13598 2.83577 0
M  V30 338 H 34.0272 7.58783 2.77982 0
M  V30 339 H 37.6132 5.22053 2.56812 0
M  V30 340 H 36.4932 7.41844 2.54239 0
M  V30 341 N 33.9963 -1.19345 1.0293 0
M  V30 342 C 35.4073 -1.70725 0.755633 0
M  V30 343 C 35.7583 -1.82326 -0.724676 0
M  V30 344 O 34.8833 -1.49471 -1.56484 0
M  V30 345 C 35.4783 -3.10084 1.36503 0
M  V30 346 C 34.0373 -3.58723 1.13994 0
M  V30 347 C 33.1843 -2.35577 1.46283 0
M  V30 348 H 36.1353 -1.0418 1.19718 0
M  V30 349 H 36.1563 -3.72787 0.762217 0
M  V30 350 H 35.6683 -3.01609 2.44241 0
M  V30 351 H 33.7693 -3.72512 0.0807901 0
M  V30 352 H 33.8823 -4.42816 1.82894 0
M  V30 353 H 32.2463 -2.38935 0.88217 0
M  V30 354 H 33.0293 -2.29731 2.55105 0
M  V30 355 N 35.4744 -0.807222 -1.35358 0
M  V30 356 C 36.4224 -0.20614 -2.31685 0
M  V30 357 C 37.4164 0.644445 -1.56663 0
M  V30 358 O 38.6224 0.537538 -1.71786 0
M  V30 359 H 34.9974 -0.0479006 -0.750473 0
M  V30 360 H 36.9684 -1.03369 -2.79924 0
M  V30 361 C 35.7174 0.630212 -3.41941 0
M  V30 362 H 35.0404 -0.0149558 -3.99797 0
M  V30 363 H 36.4804 1.01716 -4.11619 0
M  V30 364 C 34.9394 1.79601 -2.85035 0
M  V30 365 O 35.4694 2.89351 -2.78637 0
M  V30 366 N 33.6754 1.60774 -2.42074 0
M  V30 367 H 33.2224 0.715009 -2.47478 0
M  V30 368 H 33.1804 2.38933 -2.04349 0
M  V30 369 N 36.9525 1.47285 -0.560781 0
M  V30 370 C 37.8845 2.28118 0.222438 0
M  V30 371 C 38.8975 1.37219 0.876056 0
M  V30 372 O 40.0865 1.62011 0.749307 0
M  V30 373 C 37.1865 3.1159 1.33285 0
M  V30 374 C 36.3595 4.30473 0.77534 0
M  V30 375 C 35.4185 4.95513 1.77069 0
M  V30 376 O 34.4445 5.53792 1.31539 0
M  V30 377 N 35.6465 4.90531 3.10418 0
M  V30 378 H 38.4115 2.95976 -0.470958 0
M  V30 379 H 35.9725 1.56955 -0.39709 0
M  V30 380 H 37.9645 3.51967 1.99752 0
M  V30 381 H 36.5345 2.45951 1.92943 0
M  V30 382 H 35.7545 3.94144 -0.0662113 0
M  V30 383 H 37.0425 5.07362 0.382272 0
M  V30 384 H 36.4405 4.44389 3.5005 0
M  V30 385 H 34.9975 5.34917 3.72434 0
M  V30 386 N 38.4306 0.297415 1.54768 0
M  V30 387 C 39.3606 -0.573494 2.26348 0
M  V30 388 C 40.3416 -1.14085 1.26169 0
M  V30 389 O 41.5266 -1.17086 1.54934 0
M  V30 390 C 38.6566 -1.74716 3.00153 0
M  V30 391 C 37.6106 -1.31032 4.07449 0
M  V30 392 C 36.9366 -2.56887 4.68949 0
M  V30 393 C 38.2366 -0.444183 5.20408 0
M  V30 394 H 39.9306 0.0235131 2.99391 0
M  V30 395 H 37.4766 0.0127488 1.43994 0
M  V30 396 H 39.4296 -2.3625 3.48947 0
M  V30 397 H 38.1536 -2.37035 2.24682 0
M  V30 398 H 36.8126 -0.718066 3.59499 0
M  V30 399 H 36.4606 -3.17512 3.90122 0
M  V30 400 H 36.1606 -2.2836 5.41411 0
M  V30 401 H 37.6846 -3.19229 5.20505 0
M  V30 402 H 39.0986 -0.9651 5.65118 0
M  V30 403 H 37.4956 -0.252846 5.99567 0
M  V30 404 H 38.5656 0.531609 4.81977 0
M  V30 405 N 39.9087 -1.5758 0.0250728 0
M  V30 406 C 41.1857 -1.82917 -0.692873 0
M  V30 407 C 41.5657 -0.908137 -1.90568 0
M  V30 408 O 40.9137 0.0372298 -2.2847 0
M  V30 409 C 41.1237 -3.32034 -1.07492 0
M  V30 410 C 42.4717 -3.98406 -1.46826 0
M  V30 411 O 43.4957 -3.36505 -1.16801 0
M  V30 412 O 42.3547 -5.07497 -2.02754 0
M  V30 413 H 39.4487 -0.754079 -0.33955 0
M  V30 414 H 41.9947 -1.69619 0.0524456 0
M  V30 415 H 40.7667 -3.90728 -0.211552 0
M  V30 416 H 40.3897 -3.50424 -1.87854 0
M  V30 417 N 41.3868 0.248026 -1.55636 0
M  V30 418 C 42.3168 1.31079 -1.93237 0
M  V30 419 C 43.2978 1.50264 -0.797174 0
M  V30 420 O 44.4828 1.62891 -1.05737 0
M  V30 421 C 41.6128 2.66575 -2.22609 0
M  V30 422 C 40.5668 2.62087 -3.3837 0
M  V30 423 C 39.8928 4.01369 -3.53281 0
M  V30 424 C 41.1928 2.19171 -4.7409 0
M  V30 425 H 42.8868 0.998556 -2.82257 0
M  V30 426 H 40.4328 0.47891 -1.35803 0
M  V30 427 H 42.3858 3.41057 -2.47503 0
M  V30 428 H 41.1098 2.99432 -1.30414 0
M  V30 429 H 39.7688 1.90063 -3.13483 0
M  V30 430 H 39.4168 4.31489 -2.58508 0
M  V30 431 H 39.1168 3.99254 -4.31127 0
M  V30 432 H 40.6408 4.77552 -3.80495 0
M  V30 433 H 42.0548 2.83384 -4.98363 0
M  V30 434 H 40.4518 2.2817 -5.5503 0
M  V30 435 H 41.5218 1.14336 -4.71227 0
M  V30 436 N 42.8649 1.48995 0.513639 0
M  V30 437 C 44.0899 1.61792 1.29762 0
M  V30 438 C 44.5149 0.284475 1.85936 0
M  V30 439 O 43.8729 -0.746185 1.65232 0
M  V30 440 C 43.9209 2.67993 2.41272 0
M  V30 441 O 43.0249 2.26287 3.44772 0
M  V30 442 H 42.3659 0.541963 0.38363 0
M  V30 443 H 44.8959 1.95097 0.616307 0
M  V30 444 H 44.9059 2.89772 2.87221 0
M  V30 445 H 43.5809 3.64791 1.9975 0
M  V30 446 H 42.1579 2.14788 3.04829 0
M  V30 447 N 44.343 -0.763751 1.37857 0
M  V30 448 C 45.592 -1.51789 1.32827 0
M  V30 449 C 45.905 -1.95426 -0.0823719 0
M  V30 450 O 47.111 -2.70298 -0.255172 0
M  V30 451 C 45.567 -2.74133 2.33193 0
M  V30 452 C 45.175 -2.37562 3.79827 0
M  V30 453 C 46.919 -3.52054 2.37188 0
M  V30 454 C 44.826 -3.56456 4.71904 0
M  V30 455 H 43.756 -0.569896 0.493695 0
M  V30 456 H 46.407 -0.835822 1.63359 0
M  V30 457 H 44.789 -3.4427 1.9569 0
M  V30 458 H 45.963 -1.75157 4.26212 0
M  V30 459 H 44.278 -1.72798 3.78853 0
M  V30 460 H 46.875 -4.40437 3.03182 0
M  V30 461 H 47.218 -3.92486 1.38782 0
M  V30 462 H 47.751 -2.88921 2.7344 0
M  V30 463 H 44.49 -3.21099 5.71468 0
M  V30 464 H 44.01 -4.17938 4.30218 0
M  V30 465 H 45.689 -4.23168 4.89426 0
M  V30 466 N 45.8211 -1.22559 -0.990812 0
M  V30 467 C 46.7511 -1.0218 -2.09956 0
M  V30 468 C 47.7321 0.0579394 -1.70001 0
M  V30 469 O 48.9171 -0.104684 -1.93918 0
M  V30 470 C 46.0471 -0.601023 -3.4206 0
M  V30 471 C 45.0011 -1.62694 -3.95872 0
M  V30 472 C 44.3271 -1.06193 -5.24049 0
M  V30 473 C 45.6271 -3.01743 -4.2632 0
M  V30 474 H 47.3211 -1.94916 -2.27262 0
M  V30 475 H 44.8671 -0.938566 -1.09211 0
M  V30 476 H 46.8201 -0.445561 -4.19038 0
M  V30 477 H 45.5441 0.362005 -3.24588 0
M  V30 478 H 44.2031 -1.77021 -3.21028 0
M  V30 479 H 43.8511 -0.0901903 -5.02919 0
M  V30 480 H 43.5511 -1.74732 -5.61019 0
M  V30 481 H 45.0751 -0.918092 -6.03658 0
M  V30 482 H 46.4891 -2.90777 -4.94087 0
M  V30 483 H 44.8861 -3.67425 -4.74467 0
M  V30 484 H 45.9561 -3.51518 -3.34011 0
M  V30 485 N 47.2992 1.18797 -1.03562 0
M  V30 486 C 48.2492 2.20161 -0.592724 0
M  V30 487 C 49.2332 1.56772 0.362133 0
M  V30 488 O 50.4252 1.76062 0.182009 0
M  V30 489 C 47.5542 3.43266 0.0481024 0
M  V30 490 C 46.6402 4.13786 -0.9296 0
M  V30 491 N 47.0312 4.60388 -2.09467 0
M  V30 492 C 45.3292 4.39572 -0.754499 0
M  V30 493 C 46.0302 5.14619 -2.71187 0
M  V30 494 N 45.0062 5.05826 -1.991 0
M  V30 495 H 48.8082 2.53877 -1.48066 0
M  V30 496 H 46.3222 1.34946 -0.903514 0
M  V30 497 H 48.3192 4.15136 0.383058 0
M  V30 498 H 46.9792 3.11048 0.931636 0
M  V30 499 H 47.9902 4.54999 -2.47379 0
M  V30 500 H 44.6672 4.17425 0.0793713 0
M  V30 501 H 46.0572 5.60917 -3.69895 0
M  V30 502 N 48.7773 0.814389 1.34928 0
M  V30 503 C 50.1933 0.499084 1.51596 0
M  V30 504 C 50.3933 -0.978319 1.76157 0
M  V30 505 O 49.4493 -1.76309 1.80752 0
M  V30 506 C 50.7623 1.35121 2.68631 0
M  V30 507 C 52.3103 1.34746 2.82511 0
M  V30 508 C 52.7853 2.18388 4.0258 0
M  V30 509 N 54.2763 2.15966 4.09772 0
M  V30 510 C 55.0113 2.77437 5.01813 0
M  V30 511 N 54.5073 3.47866 5.99134 0
M  V30 512 N 56.3003 2.67037 4.94619 0
M  V30 513 H 48.4513 1.7711 1.17243 0
M  V30 514 H 50.7143 0.754256 0.574284 0
M  V30 515 H 50.4203 2.40001 2.57085 0
M  V30 516 H 50.2943 1.00991 3.63429 0
M  V30 517 H 52.6813 0.30648 2.93504 0
M  V30 518 H 52.7623 1.72869 1.88547 0
M  V30 519 H 52.4063 3.2253 3.92347 0
M  V30 520 H 52.3363 1.77621 4.9574 0
M  V30 521 H 54.8273 1.64729 3.40107 0
M  V30 522 H 55.1403 3.92038 6.65977 0
M  V30 523 H 53.4853 3.51972 5.99284 0
M  V30 524 H 56.6763 2.11597 4.17546 0
M  V30 525 H 56.8493 3.15232 5.66156 0
M  V30 526 N 50.2554 -1.46986 0.568584 0
M  V30 527 C 51.2054 -2.27179 -0.193339 0
M  V30 528 C 52.1894 -1.35035 -0.874895 0
M  V30 529 O 53.3814 -1.5931 -0.771322 0
M  V30 530 C 50.5104 -3.21063 -1.21546 0
M  V30 531 C 49.5964 -4.2069 -0.536738 0
M  V30 532 N 49.9874 -5.04218 0.399673 0
M  V30 533 C 48.2854 -4.38961 -0.789254 0
M  V30 534 C 48.9864 -5.76242 0.795017 0
M  V30 535 N 47.9624 -5.434 0.1473 0
M  V30 536 H 51.7644 -2.89146 0.526458 0
M  V30 537 H 49.2784 -1.57664 0.389342 0
M  V30 538 H 51.2754 -3.77209 -1.77536 0
M  V30 539 H 49.9354 -2.60654 -1.93623 0
M  V30 540 H 50.9464 -5.12077 0.774454 0
M  V30 541 H 47.6234 -3.89713 -1.49767 0
M  V30 542 H 49.0134 -6.53417 1.56513 0
M  V30 543 N 51.7335 -0.305618 -1.54608 0
M  V30 544 C 52.9585 0.307562 -2.05107 0
M  V30 545 C 53.3835 1.46385 -1.18123 0
M  V30 546 O 52.7415 1.8034 -0.186324 0
M  V30 547 C 52.7895 0.73704 -3.52987 0
M  V30 548 O 51.8935 1.84134 -3.6901 0
M  V30 549 H 51.2345 0.0589143 -0.661381 0
M  V30 550 H 53.7645 -0.448807 -1.99617 0
M  V30 551 H 53.7745 1.02459 -3.94925 0
M  V30 552 H 52.4495 -0.108773 -4.15758 0
M  V30 553 H 51.0265 1.55398 -3.38978 0
M  V30 554 N 53.2116 1.57565 -0.0334293 0
M  V30 555 C 54.4366 1.96689 0.657895 0
M  V30 556 C 54.8616 0.910057 1.64619 0
M  V30 557 O 54.2196 -0.128598 1.80843 0
M  V30 558 C 54.2676 3.34905 1.33683 0
M  V30 559 O 53.3716 3.31574 2.45219 0
M  V30 560 H 52.7126 0.641205 0.172489 0
M  V30 561 H 55.2426 2.04372 -0.0965621 0
M  V30 562 H 55.2526 3.71234 1.69262 0
M  V30 563 H 53.9276 4.11366 0.612411 0
M  V30 564 H 52.5046 3.06968 2.11719 0
M  V30 565 N 54.6897 -0.239769 1.55765 0
M  V30 566 C 55.6197 -1.30052 1.9393 0
M  V30 567 C 56.6007 -1.49839 0.805132 0
M  V30 568 O 57.7857 -1.62328 1.06599 0
M  V30 569 C 54.9157 -2.65391 2.2402 0
M  V30 570 C 53.8697 -2.60289 3.39755 0
M  V30 571 C 53.1957 -3.99489 3.55405 0
M  V30 572 C 54.4957 -2.16654 4.75246 0
M  V30 573 H 56.1897 -0.983573 2.82783 0
M  V30 574 H 53.7357 -0.471701 1.36055 0
M  V30 575 H 55.6887 -3.3974 2.49308 0
M  V30 576 H 54.4127 -2.98736 1.32 0
M  V30 577 H 53.0717 -1.88398 3.14487 0
M  V30 578 H 52.7197 -4.30112 2.60793 0
M  V30 579 H 52.4197 -3.96962 4.33238 0
M  V30 580 H 53.9437 -4.75528 3.83022 0
M  V30 581 H 55.3577 -2.80737 4.99859 0
M  V30 582 H 53.7547 -2.25223 5.56232 0
M  V30 583 H 54.8247 -1.11835 4.71827 0
M  V30 584 N 56.1678 -1.49265 -0.50573 0
M  V30 585 C 57.3928 -1.62478 -1.28902 0
M  V30 586 C 57.8178 -0.294332 -1.85783 0
M  V30 587 O 57.1758 0.737412 -1.65626 0
M  V30 588 C 57.2238 -2.69268 -2.39848 0
M  V30 589 O 56.3278 -2.28113 -3.43567 0
M  V30 590 H 55.6688 -0.54399 -0.380751 0
M  V30 591 H 58.1988 -1.95421 -0.605952 0
M  V30 592 H 58.2088 -2.91291 -2.85681 0
M  V30 593 H 56.8838 -3.65846 -1.97812 0
M  V30 594 H 55.4608 -2.16401 -3.03685 0
M  V30 595 N 57.6459 0.756429 -1.3826 0
M  V30 596 C 58.9229 1.50584 -1.24835 0
M  V30 597 C 59.3029 2.10556 0.151485 0
M  V30 598 O 58.6509 1.96825 1.1607 0
M  V30 599 C 58.8609 2.57448 -2.3563 0
M  V30 600 C 60.2089 3.24429 -2.73917 0
M  V30 601 O 61.2329 2.67751 -2.34921 0
M  V30 602 O 60.0919 4.26937 -3.41156 0
M  V30 603 H 57.1859 0.667664 -0.48801 0
M  V30 604 H 59.7319 0.792083 -1.5008 0
M  V30 605 H 58.5039 2.11362 -3.29305 0
M  V30 606 H 58.1269 3.36408 -2.11933 0
M  V30 607 N 59.124 1.23083 0.984299 0
M  V30 608 C 60.535 1.05609 1.5396 0
M  V30 609 C 60.886 -0.377793 1.92528 0
M  V30 610 O 60.011 -1.26398 1.75649 0
M  V30 611 C 60.606 1.91087 2.7977 0
M  V30 612 C 59.165 1.77885 3.31713 0
M  V30 613 C 58.312 1.87028 2.04733 0
M  V30 614 H 61.263 1.36802 0.804419 0
M  V30 615 H 61.284 1.43336 3.5247 0
M  V30 616 H 60.796 2.9544 2.51668 0
M  V30 617 H 58.897 0.762995 3.64704 0
M  V30 618 H 59.01 2.61047 4.01735 0
M  V30 619 H 57.374 1.30565 2.18689 0
M  V30 620 H 58.157 2.92929 1.79017 0
M  V30 621 N 60.6021 -1.18246 1.0419 0
M  V30 622 C 61.5351 -2.20746 0.578474 0
M  V30 623 C 62.5131 -1.57912 -0.387624 0
M  V30 624 O 63.6971 -1.86071 -0.301634 0
M  V30 625 C 60.8241 -3.38346 -0.154762 0
M  V30 626 C 59.8701 -4.19587 0.764782 0
M  V30 627 S 60.7031 -4.86014 2.24835 0
M  V30 628 C 61.8591 -6.07012 1.526 0
M  V30 629 H 62.0921 -2.59715 1.44691 0
M  V30 630 H 59.6251 -1.287 0.85297 0
M  V30 631 H 61.5831 -4.065 -0.571641 0
M  V30 632 H 60.2441 -2.97786 -0.999105 0
M  V30 633 H 59.4371 -5.03611 0.197976 0
M  V30 634 H 59.0391 -3.56818 1.12057 0
M  V30 635 H 61.3311 -6.72523 0.819733 0
M  V30 636 H 62.2741 -6.68202 2.34333 0
M  V30 637 H 62.6821 -5.55249 1.01779 0
M  V30 638 N 62.0802 -0.821533 -1.34494 0
M  V30 639 C 63.3282 -0.408139 -1.97936 0
M  V30 640 C 63.6492 1.03193 -1.65457 0
M  V30 641 O 62.9192 1.71622 -0.944595 0
M  V30 642 H 61.4992 -0.147928 -0.732206 0
M  V30 643 H 64.1612 -1.05067 -1.64155 0
M  V30 644 H 63.2572 -0.52601 -3.07635 0
M  V30 645 N 63.5583 1.46682 -0.576371 0
M  V30 646 C 64.5053 2.30241 0.160499 0
M  V30 647 C 65.4753 1.40233 0.890162 0
M  V30 648 O 66.6603 1.69186 0.882084 0
M  V30 649 C 63.8003 3.24578 1.1723 0
M  V30 650 C 62.9133 4.29684 0.446736 0
M  V30 651 C 62.0483 5.11154 1.44551 0
M  V30 652 C 61.0873 6.08015 0.70599 0
M  V30 653 N 60.2243 6.82376 1.65251 0
M  V30 654 H 65.0643 2.92727 -0.558127 0
M  V30 655 H 62.6013 1.44272 -0.287056 0
M  V30 656 H 64.5593 3.77711 1.77172 0
M  V30 657 H 63.1893 2.63916 1.85872 0
M  V30 658 H 62.2413 3.79458 -0.267594 0
M  V30 659 H 63.5533 4.98626 -0.131686 0
M  V30 660 H 62.7073 5.68533 2.11791 0
M  V30 661 H 61.4463 4.42158 2.05786 0
M  V30 662 H 60.4513 5.49796 0.0197725 0
M  V30 663 H 61.6763 6.79028 0.09912 0
M  V30 664 H 59.6223 6.16094 2.25308 0
M  V30 665 H 59.5393 7.47556 1.12673 0
M  V30 666 H 60.8073 7.44316 2.31546 0
M  V30 667 N 65.0364 0.313813 1.54444 0
M  V30 668 C 66.3134 -0.345447 1.92525 0
M  V30 669 C 66.6934 -1.70667 1.24242 0
M  V30 670 O 66.0414 -2.25273 0.382654 0
M  V30 671 C 66.2514 -0.44737 3.46121 0
M  V30 672 C 67.5994 -0.712238 4.18584 0
M  V30 673 O 68.6234 -0.530678 3.52225 0
M  V30 674 O 67.4824 -1.06183 5.36085 0
M  V30 675 H 64.5764 -0.195407 0.803583 0
M  V30 676 H 67.1224 0.362813 1.65776 0
M  V30 677 H 65.8944 0.509043 3.87975 0
M  V30 678 H 65.5174 -1.20359 3.78945 0
M  V30 679 N 66.5145 -1.57545 0.0417849 0
M  V30 680 C 67.7615 -1.92317 -0.634082 0
M  V30 681 C 68.0895 -0.919334 -1.71402 0
M  V30 682 O 67.3445 0.0698253 -1.95575 0
M  V30 683 C 67.6435 -3.33794 -1.27735 0
M  V30 684 C 67.3095 -4.49716 -0.326543 0
M  V30 685 C 65.9715 -4.81156 -0.0648814 0
M  V30 686 C 68.3235 -5.20182 0.325623 0
M  V30 687 C 65.6515 -5.80414 0.856539 0
M  V30 688 C 68.0035 -6.20424 1.23518 0
M  V30 689 C 66.6675 -6.50298 1.5056 0
M  V30 690 H 65.9375 -0.703736 -0.232027 0
M  V30 691 H 68.5845 -1.91205 0.106259 0
M  V30 692 H 66.8895 -3.31228 -2.09274 0
M  V30 693 H 68.5865 -3.57975 -1.80707 0
M  V30 694 H 65.1765 -4.25176 -0.540665 0
M  V30 695 H 69.3605 -4.96112 0.136546 0
M  V30 696 H 64.6165 -6.019 1.07363 0
M  V30 697 H 68.7905 -6.74141 1.74664 0
M  V30 698 H 66.4175 -7.27025 2.22123 0
M  V30 699 N 67.9926 0.231505 -1.5589 0
M  V30 700 C 68.9406 1.30649 -1.92441 0
M  V30 701 C 69.9346 1.49037 -0.805254 0
M  V30 702 O 71.1406 1.50329 -0.990007 0
M  V30 703 H 67.5156 0.437812 -0.611412 0
M  V30 704 H 69.4866 0.970973 -2.82161 0
M  V30 705 C 68.2356 2.65179 -2.24889 0
M  V30 706 H 67.5586 2.51835 -3.10514 0
M  V30 707 H 68.9986 3.39234 -2.54355 0
M  V30 708 C 67.4576 3.19439 -1.07054 0
M  V30 709 O 67.9876 4.00371 -0.326499 0
M  V30 710 N 66.1936 2.77675 -0.85703 0
M  V30 711 H 65.7406 2.11969 -1.46379 0
M  V30 712 H 65.6986 3.14321 -0.0703223 0
M  V30 713 N 69.4707 1.49531 0.497807 0
M  V30 714 C 70.7007 1.62657 1.27382 0
M  V30 715 C 71.1087 0.298488 1.86831 0
M  V30 716 O 70.4517 -0.72647 1.68725 0
M  V30 717 C 70.5137 2.6393 2.44093 0
M  V30 718 C 70.1777 4.08195 2.05489 0
M  V30 719 C 71.1747 4.949 1.59279 0
M  V30 720 C 68.8597 4.53948 2.15026 0
M  V30 721 C 70.8537 6.25397 1.23113 0
M  V30 722 C 68.5407 5.84458 1.78473 0
M  V30 723 C 69.5387 6.70006 1.32591 0
M  V30 724 O 69.2267 7.98083 0.965327 0
M  V30 725 H 68.9587 0.550429 0.392434 0
M  V30 726 H 71.5127 1.96325 0.603801 0
M  V30 727 H 69.7427 2.25449 3.14181 0
M  V30 728 H 71.4317 2.66552 3.06113 0
M  V30 729 H 72.1977 4.60779 1.51354 0
M  V30 730 H 68.0767 3.87525 2.4969 0
M  V30 731 H 71.6207 6.92125 0.872299 0
M  V30 732 H 67.5177 6.18107 1.86048 0
M  V30 733 H 68.2857 8.11122 1.09652 0
M  V30 734 N 70.9488 -0.749086 1.3866 0
M  V30 735 C 71.9118 -1.84457 1.36045 0
M  V30 736 C 72.9118 -1.58682 0.260122 0
M  V30 737 O 74.1018 -1.66343 0.517261 0
M  V30 738 C 71.2338 -3.22008 1.11911 0
M  V30 739 H 72.4268 -1.88182 2.33512 0
M  V30 740 H 69.9798 -0.951266 1.24019 0
M  V30 741 H 70.7148 -3.2395 0.150686 0
M  V30 742 H 70.4998 -3.42111 1.91579 0
M  V30 743 H 71.9898 -4.0208 1.12788 0
M  V30 744 N 72.4269 -1.23603 -0.977757 0
M  V30 745 C 73.3589 -0.977369 -2.07317 0
M  V30 746 C 74.3719 0.0495845 -1.62724 0
M  V30 747 O 75.5609 -0.186261 -1.77526 0
M  V30 748 C 72.6609 -0.451216 -3.35883 0
M  V30 749 C 71.8339 -1.53896 -4.09432 0
M  V30 750 C 70.8929 -1.01721 -5.16274 0
M  V30 751 O 69.9189 -1.70676 -5.43009 0
M  V30 752 N 71.1209 0.153594 -5.80297 0
M  V30 753 H 73.8859 -1.92047 -2.30082 0
M  V30 754 H 71.4469 -1.14497 -1.14465 0
M  V30 755 H 73.4389 -0.0871574 -4.04606 0
M  V30 756 H 72.0089 0.397368 -3.10064 0
M  V30 757 H 71.2289 -2.07566 -3.35127 0
M  V30 758 H 72.5169 -2.27037 -4.55337 0
M  V30 759 H 71.9149 0.730323 -5.60966 0
M  V30 760 H 70.4719 0.458892 -6.50183 0
M  V30 761 N 73.905 1.17692 -1.04816 0
M  V30 762 C 74.868 2.19787 -0.650117 0
M  V30 763 C 75.868 1.58044 0.296427 0
M  V30 764 O 77.058 1.74012 0.0808097 0
M  V30 765 C 74.19 3.40869 0.0456987 0
M  V30 766 H 75.383 2.56516 -1.5537 0
M  V30 767 H 72.936 1.31708 -0.841594 0
M  V30 768 H 73.671 3.09681 0.962726 0
M  V30 769 H 73.456 3.86928 -0.634727 0
M  V30 770 H 74.946 4.16445 0.310432 0
M  V30 771 N 75.3831 0.828654 1.34056 0
M  V30 772 C 76.6301 0.419458 1.98108 0
M  V30 773 C 76.9581 -1.01886 1.65679 0
M  V30 774 O 76.2131 -1.72539 0.923512 0
M  V30 775 C 76.5121 0.575226 3.52741 0
M  V30 776 C 76.1781 1.98012 4.05095 0
M  V30 777 C 74.8401 2.36442 4.19104 0
M  V30 778 C 77.1921 2.89824 4.33188 0
M  V30 779 C 74.5201 3.66009 4.58535 0
M  V30 780 C 76.8721 4.1886 4.74066 0
M  V30 781 C 75.5361 4.5726 4.86281 0
M  V30 782 H 74.8061 0.153491 0.724929 0
M  V30 783 H 77.4531 1.05371 1.59904 0
M  V30 784 H 75.7581 -0.142385 3.91541 0
M  V30 785 H 77.4551 0.239057 4.00287 0
M  V30 786 H 74.0451 1.67162 3.94658 0
M  V30 787 H 78.2291 2.61375 4.21897 0
M  V30 788 H 73.4851 3.95579 4.66184 0
M  V30 789 H 77.6591 4.90086 4.94761 0
M  V30 790 H 75.2861 5.57707 5.16592 0
M  V30 791 N 76.8612 -1.46375 0.584142 0
M  V30 792 C 77.7712 -2.34115 -0.150728 0
M  V30 793 C 78.7872 -1.49838 -0.884567 0
M  V30 794 O 79.9632 -1.82704 -0.847429 0
M  V30 795 C 77.0282 -3.2705 -1.15062 0
M  V30 796 C 76.0892 -4.27228 -0.421293 0
M  V30 797 C 75.3222 -5.15722 -1.37355 0
M  V30 798 O 75.5452 -5.07176 -2.61014 0
M  V30 799 O 74.4792 -5.95383 -0.883355 0
M  V30 800 H 78.3052 -2.98309 0.569708 0
M  V30 801 H 75.8902 -1.45373 0.344535 0
M  V30 802 H 77.7722 -3.84381 -1.72712 0
M  V30 803 H 76.4472 -2.65451 -1.8525 0
M  V30 804 H 75.3542 -3.7358 0.197085 0
M  V30 805 H 76.6872 -4.91616 0.239641 0
M  V30 806 N 78.3393 -0.321999 -1.54275 0
M  V30 807 C 79.2863 0.544664 -2.24281 0
M  V30 808 C 80.2563 1.1129 -1.23303 0
M  V30 809 O 81.4413 1.15354 -1.51981 0
M  V30 810 C 78.5813 1.70045 -3.00298 0
M  V30 811 C 77.6943 1.16159 -4.1609 0
M  V30 812 C 76.8293 2.28293 -4.79641 0
M  V30 813 C 75.8683 1.71648 -5.8754 0
M  V30 814 N 75.0053 2.77438 -6.44959 0
M  V30 815 H 79.8453 -0.0588907 -2.97942 0
M  V30 816 H 77.3823 -0.0408345 -1.47043 0
M  V30 817 H 79.3403 2.38054 -3.42616 0
M  V30 818 H 77.9703 2.27531 -2.28975 0
M  V30 819 H 77.0223 0.373092 -3.78566 0
M  V30 820 H 78.3343 0.707087 -4.93763 0
M  V30 821 H 77.4883 3.0421 -5.2492 0
M  V30 822 H 76.2273 2.77079 -4.01346 0
M  V30 823 H 75.2323 0.942282 -5.41665 0
M  V30 824 H 76.4573 1.23741 -6.67731 0
M  V30 825 H 74.4033 3.25519 -5.69538 0
M  V30 826 H 74.3203 2.36547 -7.1804 0
M  V30 827 H 75.5883 3.53189 -6.94894 0
M  V30 828 N 79.8174 1.5752 -0.0501392 0
M  V30 829 C 80.7474 2.14502 0.922566 0
M  V30 830 C 81.7284 1.06642 1.3252 0
M  V30 831 O 82.9134 1.34577 1.4001 0
M  V30 832 C 80.0434 2.68916 2.19776 0
M  V30 833 C 78.9974 3.8175 1.93523 0
M  V30 834 C 78.3234 4.22677 3.27487 0
M  V30 835 C 79.6234 5.06932 1.25765 0
M  V30 836 H 81.3174 2.9603 0.447952 0
M  V30 837 H 78.8634 1.42401 0.214024 0
M  V30 838 H 80.8164 3.07419 2.88222 0
M  V30 839 H 79.5404 1.84578 2.69441 0
M  V30 840 H 78.1994 3.43718 1.27489 0
M  V30 841 H 77.8474 3.35291 3.74952 0
M  V30 842 H 77.5474 4.98725 3.1072 0
M  V30 843 H 79.0714 4.63779 3.97166 0
M  V30 844 H 80.4854 5.42888 1.84244 0
M  V30 845 H 78.8824 5.88116 1.19328 0
M  V30 846 H 79.9524 4.84337 0.233536 0
M  V30 847 N 81.2955 -0.223234 1.56011 0
M  V30 848 C 82.5725 -0.972108 1.69733 0
M  V30 849 C 82.9525 -2.02485 0.59691 0
M  V30 850 O 82.3005 -2.25037 -0.396324 0
M  V30 851 C 82.5105 -1.58407 3.10979 0
M  V30 852 C 83.8585 -2.07696 3.70334 0
M  V30 853 O 84.8825 -1.68304 3.1393 0
M  V30 854 O 83.7415 -2.80096 4.69264 0
M  V30 855 H 80.8355 -0.453993 0.691245 0
M  V30 856 H 83.3815 -0.215149 1.68331 0
M  V30 857 H 82.1535 -0.823831 3.82529 0
M  V30 858 H 81.7765 -2.40661 3.16493 0
M  V30 859 N 82.7736 -1.49793 -0.48987 0
M  V30 860 C 83.7036 -1.70201 -1.59856 0
M  V30 861 C 84.6846 -0.55076 -1.60937 0
M  V30 862 O 85.8696 -0.787841 -1.77501 0
M  V30 863 C 82.9996 -1.77882 -2.98287 0
M  V30 864 C 81.9536 -2.92907 -3.12073 0
M  V30 865 C 81.2796 -2.85712 -4.51965 0
M  V30 866 C 82.5796 -4.3369 -2.91051 0
M  V30 867 H 84.2736 -2.63025 -1.43032 0
M  V30 868 H 81.8196 -1.26574 -0.686664 0
M  V30 869 H 83.7726 -1.90744 -3.75759 0
M  V30 870 H 82.4966 -0.816653 -3.16225 0
M  V30 871 H 81.1556 -2.79665 -2.37029 0
M  V30 872 H 80.8036 -1.8738 -4.66795 0
M  V30 873 H 80.5036 -3.62921 -4.62128 0
M  V30 874 H 82.0276 -3.00598 -5.31482 0
M  V30 875 H 83.4416 -4.47555 -3.58284 0
M  V30 876 H 81.8386 -5.12205 -3.12675 0
M  V30 877 H 82.9086 -4.47362 -1.87071 0
M  V30 878 N 84.2517 0.741722 -1.39055 0
M  V30 879 C 85.2147 1.83733 -1.37021 0
M  V30 880 C 86.2147 1.58542 -0.268534 0
M  V30 881 O 87.4047 1.66067 -0.526076 0
M  V30 882 C 84.5367 3.2141 -1.13617 0
M  V30 883 H 85.7297 1.86941 -2.34506 0
M  V30 884 H 83.2827 0.944676 -1.24521 0
M  V30 885 H 84.0177 3.23865 -0.167863 0
M  V30 886 H 83.8027 3.4109 -1.93391 0
M  V30 887 H 85.2927 4.01477 -1.14918 0
M  V30 888 N 85.7298 1.2412 0.971189 0
M  V30 889 C 86.6928 1.03156 2.04674 0
M  V30 890 C 87.6928 -0.00990322 1.60797 0
M  V30 891 O 88.8828 0.230729 1.72665 0
M  V30 892 C 86.0148 0.562765 3.36223 0
M  V30 893 H 87.2078 1.98614 2.24705 0
M  V30 894 H 84.7608 1.06293 1.14593 0
M  V30 895 H 85.4958 -0.395176 3.21883 0
M  V30 896 H 85.2808 1.31441 3.69413 0
M  V30 897 H 86.7708 0.437015 4.15307 0
M  V30 898 N 87.2079 -1.17134 1.05439 0
M  V30 899 C 88.4539 -1.87733 0.767077 0
M  V30 900 C 88.7869 -1.8098 -0.704253 0
M  V30 901 O 88.0619 -1.21951 -1.5152 0
M  V30 902 C 88.3449 -3.37659 1.25133 0
M  V30 903 C 88.1979 -3.53149 2.78578 0
M  V30 904 C 89.5169 -4.31768 0.852324 0
M  V30 905 H 86.6359 -0.681687 0.280129 0
M  V30 906 H 89.2779 -1.37732 1.30881 0
M  V30 907 H 87.4279 -3.80373 0.790469 0
M  V30 908 H 89.0999 -3.19434 3.32806 0
M  V30 909 H 87.3429 -2.95345 3.17732 0
M  V30 910 H 88.0139 -4.58403 3.07523 0
M  V30 911 H 90.4899 -3.96909 1.24911 0
M  V30 912 H 89.3659 -5.35199 1.21873 0
M  V30 913 H 89.6269 -4.41429 -0.243485 0
M  V30 914 N 88.686 -0.835752 -1.33615 0
M  V30 915 C 89.633 -0.26473 -2.29277 0
M  V30 916 C 90.603 0.617712 -1.54187 0
M  V30 917 O 91.788 0.556641 -1.825 0
M  V30 918 C 88.928 0.556777 -3.40579 0
M  V30 919 C 88.041 -0.349339 -4.30585 0
M  V30 920 C 87.176 0.482969 -5.29 0
M  V30 921 C 86.215 -0.421732 -6.10645 0
M  V30 922 N 85.352 0.372262 -7.01112 0
M  V30 923 H 90.192 -1.08582 -2.77514 0
M  V30 924 H 87.729 -0.546927 -1.36554 0
M  V30 925 H 89.687 1.04852 -4.03809 0
M  V30 926 H 88.317 1.34286 -2.93542 0
M  V30 927 H 87.369 -0.959372 -3.68104 0
M  V30 928 H 88.681 -1.04445 -4.87742 0
M  V30 929 H 87.835 1.03866 -5.97743 0
M  V30 930 H 86.574 1.21153 -4.72412 0
M  V30 931 H 85.579 -0.989464 -5.40823 0
M  V30 932 H 86.804 -1.14861 -6.69316 0
M  V30 933 H 84.75 1.08426 -6.46977 0
M  V30 934 H 84.667 -0.264198 -7.55538 0
M  V30 935 H 85.935 0.910293 -7.74167 0
M  V30 936 N 90.1641 1.46063 -0.591896 0
M  V30 937 C 91.5801 1.57561 -0.254288 0
M  V30 938 C 91.7801 1.58565 1.24336 0
M  V30 939 O 90.8361 1.50753 2.02558 0
M  V30 940 C 92.1491 2.86549 -0.911611 0
M  V30 941 C 93.6971 3.00197 -0.886059 0
M  V30 942 C 94.1721 4.31933 -1.5231 0
M  V30 943 N 95.6631 4.38654 -1.48786 0
M  V30 944 C 96.3981 5.39222 -1.95006 0
M  V30 945 N 95.8941 6.46414 -2.49241 0
M  V30 946 N 97.6871 5.3048 -1.85868 0
M  V30 947 H 89.8381 1.43655 -1.56451 0
M  V30 948 H 92.1011 0.68583 -0.654478 0
M  V30 949 H 91.8071 2.91651 -1.96551 0
M  V30 950 H 91.6811 3.74794 -0.425368 0
M  V30 951 H 94.0681 2.9467 0.159246 0
M  V30 952 H 94.1491 2.13403 -1.41041 0
M  V30 953 H 93.7931 4.38217 -2.56765 0
M  V30 954 H 93.7231 5.17516 -0.973891 0
M  V30 955 H 96.2141 3.61793 -1.09151 0
M  V30 956 H 96.5271 7.19376 -2.82344 0
M  V30 957 H 94.8721 6.47208 -2.53272 0
M  V30 958 H 98.0631 4.45643 -1.43248 0
M  V30 959 H 98.2361 6.08711 -2.22204 0
M  V30 960 N 91.6422 0.330177 1.54103 0
M  V30 961 C 92.9192 -0.325007 1.92881 0
M  V30 962 C 93.2992 -1.6934 1.26045 0
M  V30 963 O 92.6472 -2.24855 0.406526 0
M  V30 964 C 92.8572 -0.410634 3.46576 0
M  V30 965 C 94.2052 -0.667801 4.19316 0
M  V30 966 O 95.2292 -0.49329 3.52768 0
M  V30 967 O 94.0882 -1.00491 5.37181 0
M  V30 968 H 91.1822 -0.186873 0.80561 0
M  V30 969 H 93.7282 0.380376 1.65382 0
M  V30 970 H 92.5002 0.550164 3.87413 0
M  V30 971 H 92.1232 -1.16333 3.802 0
M  V30 972 N 93.1203 -1.57491 0.0584922 0
M  V30 973 C 94.0503 -2.14988 -0.911178 0
M  V30 974 C 95.0313 -1.07343 -1.31952 0
M  V30 975 O 96.2163 -1.35318 -1.39294 0
M  V30 976 C 93.3463 -2.70078 -2.18347 0
M  V30 977 C 92.3003 -3.82771 -1.91495 0
M  V30 978 C 91.6263 -4.24408 -3.25241 0
M  V30 979 C 92.9263 -5.07592 -1.23075 0
M  V30 980 H 94.6203 -2.96263 -0.432246 0
M  V30 981 H 92.1663 -1.42512 -0.206469 0
M  V30 982 H 94.1193 -3.08943 -2.86587 0
M  V30 983 H 92.8433 -1.86005 -2.68458 0
M  V30 984 H 91.5023 -3.44389 -1.25664 0
M  V30 985 H 91.1503 -3.37275 -3.73168 0
M  V30 986 H 90.8503 -5.00366 -3.08071 0
M  V30 987 H 92.3743 -4.65879 -3.94701 0
M  V30 988 H 93.7883 -5.43857 -1.81362 0
M  V30 989 H 92.1853 -5.88741 -1.16207 0
M  V30 990 H 93.2553 -4.84454 -0.207847 0
M  V30 991 N 94.5984 0.214957 -1.56127 0
M  V30 992 C 95.5484 1.27006 -1.8935 0
M  V30 993 C 96.5324 1.41969 -0.757202 0
M  V30 994 O 97.7244 1.44673 -1.01973 0
M  V30 995 C 94.8534 2.61911 -2.2194 0
M  V30 996 C 93.9394 2.50822 -3.41978 0
M  V30 997 N 94.3304 2.09391 -4.60423 0
M  V30 998 C 92.6284 2.81765 -3.45723 0
M  V30 999 C 93.3294 2.09712 -5.42582 0
M  V30 1000 N 92.3054 2.50454 -4.82466 0
M  V30 1001 H 96.1074 0.940734 -2.78437 0
M  V30 1002 H 93.6214 0.423492 -1.56781 0
M  V30 1003 H 95.6184 3.38096 -2.43919 0
M  V30 1004 H 94.2784 2.95684 -1.34169 0
M  V30 1005 H 95.2894 1.80416 -4.85459 0
M  V30 1006 H 91.9664 3.19865 -2.68314 0
M  V30 1007 H 93.3564 1.79748 -6.4741 0
M  V30 1008 N 96.0765 1.50051 0.48192 0
M  V30 1009 C 97.0395 1.67584 1.5636 0
M  V30 1010 C 98.0395 0.546894 1.51214 0
M  V30 1011 O 99.2295 0.813725 1.54026 0
M  V30 1012 C 96.3615 1.691 2.96003 0
M  V30 1013 H 97.5545 2.64078 1.42136 0
M  V30 1014 H 95.1075 1.39369 0.707533 0
M  V30 1015 H 95.8425 0.742589 3.15684 0
M  V30 1016 H 95.6275 2.51105 3.01146 0
M  V30 1017 H 97.1175 1.84656 3.74556 0
M  V30 1018 N 97.5546 -0.734337 1.39446 0
M  V30 1019 C 98.4846 -1.86155 1.40955 0
M  V30 1020 C 99.4656 -1.67898 0.272827 0
M  V30 1021 O 100.651 -1.88207 0.478743 0
M  V30 1022 C 97.7806 -3.23912 1.25294 0
M  V30 1023 C 96.7346 -3.56808 2.36373 0
M  V30 1024 C 96.0606 -4.93508 2.058 0
M  V30 1025 C 97.3606 -3.59713 3.78687 0
M  V30 1026 H 99.0546 -1.8515 2.35287 0
M  V30 1027 H 96.6006 -0.889367 1.13253 0
M  V30 1028 H 98.5536 -4.02443 1.2497 0
M  V30 1029 H 97.2776 -3.25446 0.274308 0
M  V30 1030 H 95.9366 -2.80606 2.35914 0
M  V30 1031 H 95.5846 -4.91623 1.06374 0
M  V30 1032 H 95.2846 -5.16486 2.80208 0
M  V30 1033 H 96.8086 -5.74396 2.07128 0
M  V30 1034 H 98.2226 -4.2832 3.81071 0
M  V30 1035 H 96.6196 -3.94209 4.52459 0
M  V30 1036 H 97.6896 -2.59504 4.09617 0
M  V30 1037 N 99.0327 -1.24633 -0.964593 0
M  V30 1038 C 99.9657 -0.984662 -2.05863 0
M  V30 1039 C 100.944 0.0826554 -1.6239 0
M  V30 1040 O 102.128 -0.0549296 -1.8842 0
M  V30 1041 C 99.2547 -0.486529 -3.35187 0
M  V30 1042 C 98.3007 -1.54286 -3.97615 0
M  V30 1043 S 99.1337 -3.12513 -4.34851 0
M  V30 1044 C 100.29 -2.6441 -5.67308 0
M  V30 1045 H 100.523 -1.91104 -2.27743 0
M  V30 1046 H 98.0557 -1.08052 -1.10291 0
M  V30 1047 H 100.014 -0.205757 -4.09984 0
M  V30 1048 H 98.6747 0.419186 -3.1129 0
M  V30 1049 H 97.8677 -1.14481 -4.90826 0
M  V30 1050 H 97.4697 -1.7738 -3.2926 0
M  V30 1051 H 99.7617 -2.07416 -6.44969 0
M  V30 1052 H 100.705 -3.56222 -6.11973 0
M  V30 1053 H 101.113 -2.04734 -5.26065 0
M  V30 1054 N 100.511 1.16574 -1.06058 0
M  V30 1055 C 101.739 1.90952 -0.796552 0
M  V30 1056 C 102.154 1.77302 0.648808 0
M  V30 1057 O 101.511 1.11605 1.44397 0
M  V30 1058 C 101.562 3.41736 -1.17894 0
M  V30 1059 O 101.283 3.54975 -2.56758 0
M  V30 1060 C 102.784 4.33169 -0.942308 0
M  V30 1061 H 100.004 0.605594 -0.288959 0
M  V30 1062 H 102.548 1.47777 -1.41358 0
M  V30 1063 H 100.703 3.82623 -0.606491 0
M  V30 1064 H 101.117 4.4846 -2.72 0
M  V30 1065 H 102.591 5.37439 -1.25952 0
M  V30 1066 H 103.068 4.3903 0.122078 0
M  V30 1067 H 103.674 3.98007 -1.49902 0
M  V30 1068 N 101.989 0.842826 1.3317 0
M  V30 1069 C 103.217 0.454055 2.01856 0
M  V30 1070 C 103.632 -0.94587 1.63397 0
M  V30 1071 O 102.989 -1.61534 0.849302 0
M  V30 1072 C 103.04 0.569715 3.56982 0
M  V30 1073 O 102.761 1.91448 3.94055 0
M  V30 1074 C 104.262 0.178412 4.42941 0
M  V30 1075 H 101.482 0.17979 0.646465 0
M  V30 1076 H 104.026 1.1365 1.70012 0
M  V30 1077 H 102.181 -0.0648587 3.87346 0
M  V30 1078 H 102.595 1.90282 4.88767 0
M  V30 1079 H 104.069 0.310376 5.51127 0
M  V30 1080 H 104.546 -0.880056 4.30293 0
M  V30 1081 H 105.152 0.787579 4.17944 0
M  V30 1082 N 103.467 -1.45747 0.599634 0
M  V30 1083 C 104.692 -2.07178 0.0960198 0
M  V30 1084 C 105.117 -1.44268 -1.207 0
M  V30 1085 O 104.475 -0.532503 -1.73303 0
M  V30 1086 C 104.523 -3.60579 -0.0385348 0
M  V30 1087 O 103.627 -3.97713 -1.0908 0
M  V30 1088 H 102.968 -0.660251 0.0704593 0
M  V30 1089 H 105.498 -1.87124 0.827385 0
M  V30 1090 H 105.508 -4.07298 -0.239304 0
M  V30 1091 H 104.183 -4.05756 0.912947 0
M  V30 1092 H 102.76 -3.62678 -0.867135 0
M  V30 1093 N 104.945 -0.338344 -1.53925 0
M  V30 1094 C 105.877 0.555117 -2.22376 0
M  V30 1095 C 106.89 1.06812 -1.22862 0
M  V30 1096 O 108.079 0.979163 -1.49247 0
M  V30 1097 C 105.179 1.77609 -2.88631 0
M  V30 1098 C 104.352 1.39927 -4.14414 0
M  V30 1099 C 103.411 2.47936 -4.64127 0
M  V30 1100 O 102.437 2.11461 -5.28463 0
M  V30 1101 N 103.639 3.79107 -4.39612 0
M  V30 1102 H 106.404 -0.0310778 -2.99684 0
M  V30 1103 H 103.965 -0.162226 -1.61085 0
M  V30 1104 H 105.957 2.49287 -3.18807 0
M  V30 1105 H 104.527 2.26978 -2.14941 0
M  V30 1106 H 103.747 0.513481 -3.90841 0
M  V30 1107 H 105.035 1.12341 -4.96243 0
M  V30 1108 H 104.433 4.11531 -3.88148 0
M  V30 1109 H 102.99 4.4697 -4.74406 0
M  V30 1110 N 106.423 1.57458 -0.0668435 0
M  V30 1111 C 107.7 1.8469 0.644132 0
M  V30 1112 C 108.08 0.958343 1.88093 0
M  V30 1113 O 107.428 0.0233579 2.28488 0
M  V30 1114 C 107.638 3.34767 0.986509 0
M  V30 1115 C 108.986 4.02159 1.36212 0
M  V30 1116 O 110.01 3.39484 1.07839 0
M  V30 1117 O 108.869 5.12694 1.89227 0
M  V30 1118 H 105.963 0.762816 0.319437 0
M  V30 1119 H 108.509 1.6942 -0.0973986 0
M  V30 1120 H 107.281 3.91151 0.107883 0
M  V30 1121 H 106.904 3.55281 1.78497 0
M  V30 1122 N 107.901 -0.206675 1.56239 0
M  V30 1123 C 109.147 -0.925733 1.81113 0
M  V30 1124 C 109.502 -1.81368 0.642135 0
M  V30 1125 O 108.795 -1.88126 -0.363211 0
M  V30 1126 C 108.989 -1.78675 3.09532 0
M  V30 1127 C 108.818 -0.98365 4.3881 0
M  V30 1128 C 107.588 -0.672661 5.00803 0
M  V30 1129 C 109.786 -0.341847 5.13163 0
M  V30 1130 N 107.768 0.150283 6.13716 0
M  V30 1131 C 109.139 0.343815 6.19046 0
M  V30 1132 C 111.194 -0.256392 4.97239 0
M  V30 1133 C 109.897 1.10678 7.10734 0
M  V30 1134 C 111.923 0.493142 5.8934 0
M  V30 1135 C 111.285 1.16729 6.94661 0
M  V30 1136 H 107.384 -0.318524 0.714189 0
M  V30 1137 H 109.968 -0.195378 1.93717 0
M  V30 1138 H 108.139 -2.4888 2.98183 0
M  V30 1139 H 109.871 -2.44441 3.22538 0
M  V30 1140 H 106.626 -0.994294 4.63045 0
M  V30 1141 H 107.05 0.551026 6.74754 0
M  V30 1142 H 111.692 -0.763249 4.15854 0
M  V30 1143 H 109.41 1.6251 7.91591 0
M  V30 1144 H 112.996 0.560465 5.79094 0
M  V30 1145 H 111.876 1.738 7.64698 0
M  V30 1146 N 109.379 -1.50304 -0.473955 0
M  V30 1147 C 110.625 -1.62358 -1.22521 0
M  V30 1148 C 110.98 -0.318555 -1.89745 0
M  V30 1149 O 110.273 0.683315 -1.79001 0
M  V30 1150 C 110.467 -2.73938 -2.29549 0
M  V30 1151 C 110.296 -4.15165 -1.72825 0
M  V30 1152 C 109.066 -4.81604 -1.52924 0
M  V30 1153 C 111.264 -4.99503 -1.22481 0
M  V30 1154 N 109.246 -6.07056 -0.91413 0
M  V30 1155 C 110.617 -6.15655 -0.732743 0
M  V30 1156 C 112.672 -4.85299 -1.11308 0
M  V30 1157 C 111.375 -7.19164 -0.139976 0
M  V30 1158 C 113.401 -5.88982 -0.534258 0
M  V30 1159 C 112.763 -7.0438 -0.0525562 0
M  V30 1160 H 108.862 -0.648286 -0.437321 0
M  V30 1161 H 111.446 -1.87413 -0.527692 0
M  V30 1162 H 109.617 -2.50611 -2.9673 0
M  V30 1163 H 111.349 -2.75366 -2.96573 0
M  V30 1164 H 108.104 -4.3885 -1.78067 0
M  V30 1165 H 108.528 -6.74108 -0.625071 0
M  V30 1166 H 113.17 -3.96369 -1.47144 0
M  V30 1167 H 110.888 -8.07771 0.230591 0
M  V30 1168 H 114.474 -5.80055 -0.450219 0
M  V30 1169 H 113.354 -7.83238 0.388324 0
M  V30 1170 N 110.857 0.726932 -1.39834 0
M  V30 1171 C 112.268 1.30558 -1.3346 0
M  V30 1172 C 112.619 1.962 -0.00273003 0
M  V30 1173 O 111.744 1.96826 0.899371 0
M  V30 1174 C 112.339 2.37404 -2.41713 0
M  V30 1175 C 110.898 2.90921 -2.38835 0
M  V30 1176 C 110.045 1.64578 -2.2318 0
M  V30 1177 H 112.996 0.523862 -1.49804 0
M  V30 1178 H 113.017 3.17984 -2.08966 0
M  V30 1179 H 112.529 1.89599 -3.38635 0
M  V30 1180 H 110.63 3.42985 -1.45575 0
M  V30 1181 H 110.743 3.43487 -3.33997 0
M  V30 1182 H 109.107 1.89219 -1.70494 0
M  V30 1183 H 109.89 1.18814 -3.22084 0
M  V30 1184 N 112.336 1.25143 0.95797 0
M  V30 1185 C 113.299 1.05321 2.03569 0
M  V30 1186 C 114.299 0.007152 1.60798 0
M  V30 1187 O 115.489 0.24903 1.72411 0
M  V30 1188 C 112.621 0.598394 3.35607 0
M  V30 1189 H 113.814 2.00986 2.22586 0
M  V30 1190 H 111.367 1.07502 1.13459 0
M  V30 1191 H 112.102 -0.361014 3.22284 0
M  V30 1192 H 111.887 1.35351 3.67998 0
M  V30 1193 H 113.377 0.48104 4.1482 0
M  V30 1194 N 113.814 -1.1601 1.06675 0
M  V30 1195 C 115.091 -1.82679 0.699114 0
M  V30 1196 C 115.471 -1.94559 -0.819137 0
M  V30 1197 O 114.819 -1.49169 -1.73092 0
M  V30 1198 C 115.029 -3.19445 1.40555 0
M  V30 1199 C 116.377 -3.95171 1.55323 0
M  V30 1200 O 117.401 -3.28976 1.36577 0
M  V30 1201 O 116.26 -5.13833 1.86112 0
M  V30 1202 H 113.354 -0.788954 0.247951 0
M  V30 1203 H 115.9 -1.23179 1.16726 0
M  V30 1204 H 114.672 -3.05856 2.44065 0
M  V30 1205 H 114.295 -3.86625 0.927733 0
M  V30 1206 N 115.292 -0.849877 -1.32721 0
M  V30 1207 C 116.539 -0.450923 -1.97416 0
M  V30 1208 C 116.867 0.992376 -1.67279 0
M  V30 1209 O 116.122 1.71048 -0.950845 0
M  V30 1210 C 116.421 -0.631272 -3.51781 0
M  V30 1211 C 116.087 -2.04432 -4.01894 0
M  V30 1212 C 114.749 -2.4308 -4.1529 0
M  V30 1213 C 117.101 -2.96679 -4.28522 0
M  V30 1214 C 114.429 -3.73257 -4.52654 0
M  V30 1215 C 116.781 -4.26349 -4.67343 0
M  V30 1216 C 115.445 -4.64939 -4.78945 0
M  V30 1217 H 114.715 -0.165004 -0.722395 0
M  V30 1218 H 117.362 -1.07901 -1.58207 0
M  V30 1219 H 115.667 0.0800767 -3.91718 0
M  V30 1220 H 117.364 -0.302709 -3.99856 0
M  V30 1221 H 113.954 -1.73419 -3.91949 0
M  V30 1222 H 118.138 -2.68054 -4.17685 0
M  V30 1223 H 113.394 -4.02946 -4.59831 0
M  V30 1224 H 117.568 -4.97895 -4.86902 0
M  V30 1225 H 115.195 -5.65855 -5.07654 0
M  V30 1226 N 116.77 1.45427 -0.607355 0
M  V30 1227 C 118.018 2.01841 -0.102253 0
M  V30 1228 C 118.339 1.47832 1.27164 0
M  V30 1229 O 117.609 0.672497 1.83995 0
M  V30 1230 H 116.189 0.746188 -0.0348101 0
M  V30 1231 H 118.851 1.78229 -0.7887 0
M  V30 1232 H 117.947 3.12057 -0.0518585 0
M  V30 1233 N 118.248 0.346503 1.53744 0
M  V30 1234 C 119.198 -0.524953 2.21874 0
M  V30 1235 C 120.182 -1.06376 1.20718 0
M  V30 1236 O 121.374 -0.996972 1.46251 0
M  V30 1237 C 118.503 -1.6739 2.99726 0
M  V30 1238 C 117.589 -1.14888 4.08242 0
M  V30 1239 N 117.98 -0.345329 5.0462 0
M  V30 1240 C 116.278 -1.4255 4.22606 0
M  V30 1241 C 116.979 -0.0600706 5.81669 0
M  V30 1242 N 115.955 -0.65252 5.39669 0
M  V30 1243 H 119.757 0.0960091 2.93743 0
M  V30 1244 H 117.271 0.15352 1.61673 0
M  V30 1245 H 119.268 -2.3102 3.47038 0
M  V30 1246 H 117.928 -2.29811 2.29384 0
M  V30 1247 H 118.939 0.0138439 5.17898 0
M  V30 1248 H 115.616 -2.05389 3.63486 0
M  V30 1249 H 117.006 0.588321 6.69319 0
M  V30 1250 N 119.726 -1.57421 0.075193 0
M  V30 1251 C 120.956 -1.97659 -0.601203 0
M  V30 1252 C 121.364 -0.952427 -1.63479 0
M  V30 1253 O 120.707 0.0688241 -1.83571 0
M  V30 1254 C 120.769 -3.34218 -1.32434 0
M  V30 1255 C 120.433 -4.5484 -0.443826 0
M  V30 1256 C 121.43 -5.19034 0.299969 0
M  V30 1257 C 119.115 -5.00952 -0.367709 0
M  V30 1258 C 121.109 -6.27695 1.10807 0
M  V30 1259 C 118.796 -6.09484 0.444058 0
M  V30 1260 C 119.794 -6.72719 1.18061 0
M  V30 1261 O 119.482 -7.79161 1.97898 0
M  V30 1262 H 119.214 -0.65494 -0.167422 0
M  V30 1263 H 121.768 -2.04886 0.145157 0
M  V30 1264 H 119.998 -3.23615 -2.11685 0
M  V30 1265 H 121.687 -3.59038 -1.89331 0
M  V30 1266 H 122.453 -4.84351 0.250776 0
M  V30 1267 H 118.332 -4.51509 -0.930638 0
M  V30 1268 H 121.876 -6.76982 1.68347 0
M  V30 1269 H 117.773 -6.43601 0.494803 0
M  V30 1270 H 118.541 -7.96055 1.90367 0
M  V30 1271 N 121.204 0.198386 -1.56346 0
M  V30 1272 C 122.452 0.91747 -1.80075 0
M  V30 1273 C 122.773 1.83929 -0.647692 0
M  V30 1274 O 122.043 1.93029 0.334166 0
M  V30 1275 H 120.623 0.341774 -0.664228 0
M  V30 1276 H 123.285 0.204684 -1.93822 0
M  V30 1277 H 122.381 1.51055 -2.7311 0
M  V30 1278 N 122.682 1.50554 0.465978 0
M  V30 1279 C 123.93 1.61479 1.21528 0
M  V30 1280 C 124.251 0.319596 1.92363 0
M  V30 1281 O 123.521 -0.663194 1.84333 0
M  V30 1282 H 122.101 0.595055 0.451573 0
M  V30 1283 H 124.763 1.87355 0.53704 0
M  V30 1284 H 123.859 2.42846 1.96042 0
M  V30 1285 N 124.16 -0.719506 1.40217 0
M  V30 1286 C 125.09 -1.8465 1.42922 0
M  V30 1287 C 126.071 -1.67599 0.29062 0
M  V30 1288 O 127.256 -1.87688 0.498677 0
M  V30 1289 C 124.386 -3.22565 1.28722 0
M  V30 1290 C 123.34 -3.54281 2.40144 0
M  V30 1291 C 122.666 -4.91298 2.11023 0
M  V30 1292 C 123.966 -3.55676 3.82481 0
M  V30 1293 H 125.66 -1.82644 2.37237 0
M  V30 1294 H 123.206 -0.877305 1.1419 0
M  V30 1295 H 125.159 -4.01095 1.29232 0
M  V30 1296 H 123.883 -3.25137 0.308811 0
M  V30 1297 H 122.542 -2.78088 2.38877 0
M  V30 1298 H 122.19 -4.90468 1.11582 0
M  V30 1299 H 121.89 -5.13485 2.8567 0
M  V30 1300 H 123.414 -5.72166 2.13209 0
M  V30 1301 H 124.828 -4.24254 3.85592 0
M  V30 1302 H 123.225 -3.89388 4.56614 0
M  V30 1303 H 124.295 -2.55144 4.12346 0
M  V30 1304 N 125.638 -1.25649 -0.95132 0
M  V30 1305 C 126.885 -1.10594 -1.69633 0
M  V30 1306 C 127.213 0.352515 -1.91279 0
M  V30 1307 O 126.468 1.27601 -1.4838 0
M  V30 1308 C 126.767 -1.80909 -3.08231 0
M  V30 1309 C 126.433 -3.30825 -3.06375 0
M  V30 1310 C 125.095 -3.71722 -3.05576 0
M  V30 1311 C 127.447 -4.26589 -2.99452 0
M  V30 1312 C 124.775 -5.06788 -2.95606 0
M  V30 1313 C 127.127 -5.61683 -2.91024 0
M  V30 1314 C 125.791 -6.01904 -2.88562 0
M  V30 1315 H 125.061 -0.404691 -0.620731 0
M  V30 1316 H 127.708 -1.55964 -1.11119 0
M  V30 1317 H 126.013 -1.27979 -3.70309 0
M  V30 1318 H 127.71 -1.6671 -3.64704 0
M  V30 1319 H 124.3 -2.98287 -3.07771 0
M  V30 1320 H 128.484 -3.95982 -2.99185 0
M  V30 1321 H 123.74 -5.37126 -2.92071 0
M  V30 1322 H 127.914 -6.35578 -2.84629 0
M  V30 1323 H 125.541 -7.06521 -2.80593 0
M  V30 1324 N 127.117 1.15442 -1.07289 0
M  V30 1325 C 128.366 1.85557 -0.790669 0
M  V30 1326 C 128.679 1.83186 0.685739 0
M  V30 1327 O 129.885 2.48977 1.0827 0
M  V30 1328 C 128.341 3.33038 -1.36433 0
M  V30 1329 C 127.949 3.43856 -2.8717 0
M  V30 1330 C 129.693 4.0834 -1.1601 0
M  V30 1331 C 127.6 4.85482 -3.3773 0
M  V30 1332 H 126.53 0.695122 -0.292098 0
M  V30 1333 H 129.181 1.30219 -1.29287 0
M  V30 1334 H 127.563 3.88043 -0.789864 0
M  V30 1335 H 128.737 2.98961 -3.50655 0
M  V30 1336 H 127.052 2.81998 -3.06376 0
M  V30 1337 H 129.649 5.12859 -1.51262 0
M  V30 1338 H 129.992 4.16182 -0.0991007 0
M  V30 1339 H 130.525 3.59603 -1.70089 0
M  V30 1340 H 127.264 4.82823 -4.43353 0
M  V30 1341 H 126.784 5.30961 -2.78999 0
M  V30 1342 H 128.463 5.54335 -3.33648 0
M  V30 1343 N 128.595 0.856903 1.32268 0
M  V30 1344 C 130.011 0.547061 1.49931 0
M  V30 1345 C 130.211 -0.921781 1.7918 0
M  V30 1346 O 129.267 -1.70469 1.8627 0
M  V30 1347 C 130.58 1.43599 2.64196 0
M  V30 1348 C 132.128 1.43665 2.78081 0
M  V30 1349 C 132.603 2.31085 3.95428 0
M  V30 1350 N 134.094 2.28893 4.02694 0
M  V30 1351 C 134.829 2.93262 4.92732 0
M  V30 1352 N 134.325 3.66751 5.87763 0
M  V30 1353 N 136.118 2.82638 4.85873 0
M  V30 1354 H 128.269 1.8075 1.11549 0
M  V30 1355 H 130.532 0.772144 0.549997 0
M  V30 1356 H 130.238 2.48058 2.49319 0
M  V30 1357 H 130.112 1.12502 3.60032 0
M  V30 1358 H 132.499 0.399701 2.92381 0
M  V30 1359 H 132.58 1.7878 1.82952 0
M  V30 1360 H 132.224 3.34849 3.81888 0
M  V30 1361 H 132.154 1.93302 4.89839 0
M  V30 1362 H 134.645 1.75466 3.34694 0
M  V30 1363 H 134.958 4.13027 6.53168 0
M  V30 1364 H 133.303 3.70859 5.87783 0
M  V30 1365 H 136.494 2.24774 4.10602 0
M  V30 1366 H 136.667 3.33084 5.55841 0
M  V30 1367 N 130.073 -1.45103 0.615059 0
M  V30 1368 C 131.006 -2.27717 -0.148408 0
M  V30 1369 C 131.984 -1.37584 -0.866572 0
M  V30 1370 O 133.168 -1.67017 -0.87393 0
M  V30 1371 C 130.295 -3.16136 -1.21557 0
M  V30 1372 C 129.341 -4.22263 -0.599712 0
M  V30 1373 S 130.174 -5.3215 0.598081 0
M  V30 1374 C 131.33 -6.24137 -0.469484 0
M  V30 1375 H 131.563 -2.92121 0.552483 0
M  V30 1376 H 129.096 -1.49054 0.402778 0
M  V30 1377 H 131.054 -3.67633 -1.82638 0
M  V30 1378 H 129.715 -2.50982 -1.88857 0
M  V30 1379 H 128.908 -4.84081 -1.4029 0
M  V30 1380 H 128.51 -3.73945 -0.063876 0
M  V30 1381 H 130.802 -6.63984 -1.34652 0
M  V30 1382 H 131.745 -7.0801 0.112725 0
M  V30 1383 H 132.153 -5.58971 -0.788168 0
M  V30 1384 N 131.551 -0.354651 -1.53558 0
M  V30 1385 C 132.514 0.484566 -2.24019 0
M  V30 1386 C 133.514 1.01861 -1.24422 0
M  V30 1387 O 134.704 0.906097 -1.4878 0
M  V30 1388 C 131.836 1.67615 -2.96847 0
M  V30 1389 H 133.029 -0.131843 -2.9961 0
M  V30 1390 H 130.582 -0.106165 -1.55939 0
M  V30 1391 H 131.317 2.33095 -2.25471 0
M  V30 1392 H 131.102 1.30029 -3.69912 0
M  V30 1393 H 132.592 2.27114 -3.50441 0
M  V30 1394 N 133.029 1.57378 -0.0835403 0
M  V30 1395 C 134.275 1.95025 0.577664 0
M  V30 1396 C 134.63 0.964049 1.66505 0
M  V30 1397 O 133.923 -0.0118235 1.91596 0
M  V30 1398 C 134.117 3.37063 1.1884 0
M  V30 1399 C 133.946 4.49409 0.16171 0
M  V30 1400 C 132.716 5.04642 -0.257756 0
M  V30 1401 C 134.914 5.10722 -0.605634 0
M  V30 1402 N 132.896 6.00537 -1.27393 0
M  V30 1403 C 134.267 6.02225 -1.47395 0
M  V30 1404 C 136.322 4.93501 -0.660418 0
M  V30 1405 C 135.025 6.78355 -2.39221 0
M  V30 1406 C 137.051 5.70283 -1.56623 0
M  V30 1407 C 136.413 6.61444 -2.4222 0
M  V30 1408 H 132.512 0.760512 0.182058 0
M  V30 1409 H 135.096 1.94013 -0.163419 0
M  V30 1410 H 133.267 3.3879 1.89936 0
M  V30 1411 H 134.999 3.61917 1.81103 0
M  V30 1412 H 131.754 4.73428 0.127702 0
M  V30 1413 H 132.178 6.53184 -1.77987 0
M  V30 1414 H 136.82 4.22798 -0.0128221 0
M  V30 1415 H 134.538 7.48327 -3.05011 0
M  V30 1416 H 138.124 5.58976 -1.61361 0
M  V30 1417 H 137.004 7.1982 -3.11174 0
M  V30 1418 N 134.507 -0.190092 1.56449 0
M  V30 1419 C 135.457 -1.23977 1.91347 0
M  V30 1420 C 136.441 -1.40747 0.779693 0
M  V30 1421 O 137.633 -1.43033 1.04262 0
M  V30 1422 C 134.762 -2.58347 2.26079 0
M  V30 1423 C 133.848 -2.4535 3.45925 0
M  V30 1424 N 134.239 -2.02039 4.63696 0
M  V30 1425 C 132.537 -2.76229 3.50162 0
M  V30 1426 C 133.238 -2.01053 5.4585 0
M  V30 1427 N 132.214 -2.42747 4.8639 0
M  V30 1428 H 136.016 -0.896318 2.79899 0
M  V30 1429 H 133.53 -0.398496 1.57435 0
M  V30 1430 H 135.527 -3.34173 2.49267 0
M  V30 1431 H 134.187 -2.93512 1.38856 0
M  V30 1432 H 135.198 -1.7267 4.88268 0
M  V30 1433 H 131.875 -3.15556 2.73369 0
M  V30 1434 H 133.265 -1.69426 6.50188 0
M  V30 1435 N 135.985 -1.50799 -0.457987 0
M  V30 1436 C 137.21 -1.66496 -1.23668 0
M  V30 1437 C 137.635 -0.353288 -1.84752 0
M  V30 1438 O 136.993 0.684346 -1.67888 0
M  V30 1439 C 137.041 -2.76763 -2.3116 0
M  V30 1440 O 136.145 -2.38928 -3.36136 0
M  V30 1441 H 135.486 -0.555828 -0.363252 0
M  V30 1442 H 138.016 -1.9725 -0.543474 0
M  V30 1443 H 138.026 -3.00232 -2.76269 0
M  V30 1444 H 136.701 -3.71954 -1.86073 0
M  V30 1445 H 135.278 -2.25953 -2.96647 0
M  V30 1446 N 137.463 0.71206 -1.40597 0
M  V30 1447 C 138.426 1.80785 -1.40888 0
M  V30 1448 C 139.426 1.57937 -0.302103 0
M  V30 1449 O 140.616 1.64913 -0.561182 0
M  V30 1450 C 137.748 3.18927 -1.20409 0
M  V30 1451 H 138.941 1.81924 -2.38419 0
M  V30 1452 H 136.494 0.91805 -1.26497 0
M  V30 1453 H 137.229 3.23436 -0.236522 0
M  V30 1454 H 137.014 3.36911 -2.00582 0
M  V30 1455 H 138.504 3.98949 -1.23408 0
M  V30 1456 N 138.941 1.26152 0.944643 0
M  V30 1457 C 140.189 1.11271 1.6871 0
M  V30 1458 C 140.51 -0.345166 1.91921 0
M  V30 1459 O 139.78 -1.24387 1.51343 0
M  V30 1460 H 138.36 0.408783 0.625224 0
M  V30 1461 H 141.022 1.58427 1.1352 0
M  V30 1462 H 140.118 1.62879 2.66227 0
M  V30 1463 N 140.419 -1.14872 1.07899 0
M  V30 1464 C 141.647 -1.89661 0.82683 0
M  V30 1465 C 142.062 -1.78312 -0.620519 0
M  V30 1466 O 141.419 -1.13888 -1.42604 0
M  V30 1467 C 141.47 -3.39817 1.23316 0
M  V30 1468 O 141.191 -3.50845 2.62372 0
M  V30 1469 C 142.692 -4.31615 1.0111 0
M  V30 1470 H 139.912 -0.60092 0.298557 0
M  V30 1471 H 142.456 -1.4551 1.43691 0
M  V30 1472 H 140.611 -3.8161 0.667286 0
M  V30 1473 H 141.025 -4.44076 2.79101 0
M  V30 1474 H 142.499 -5.35367 1.34486 0
M  V30 1475 H 142.976 -4.39169 -0.0522168 0
M  V30 1476 H 143.582 -3.95572 1.56215 0
M  V30 1477 N 141.898 -0.863906 -1.31812 0
M  V30 1478 C 143.128 -0.485406 -2.00817 0
M  V30 1479 C 143.536 0.925007 -1.65046 0
M  V30 1480 O 142.879 1.61653 -0.872574 0
M  V30 1481 C 142.941 -0.555589 -3.55181 0
M  V30 1482 C 142.605 -1.92654 -4.14407 0
M  V30 1483 C 143.602 -2.89324 -4.31958 0
M  V30 1484 C 141.287 -2.2262 -4.50273 0
M  V30 1485 C 143.281 -4.14108 -4.84555 0
M  V30 1486 C 140.968 -3.47654 -5.02573 0
M  V30 1487 C 141.966 -4.43214 -5.19664 0
M  V30 1488 O 141.654 -5.66033 -5.70843 0
M  V30 1489 H 141.386 -0.188224 -0.649267 0
M  V30 1490 H 143.94 -1.16514 -1.69156 0
M  V30 1491 H 142.17 0.181037 -3.86276 0
M  V30 1492 H 143.859 -0.19138 -4.05449 0
M  V30 1493 H 144.625 -2.6748 -4.04573 0
M  V30 1494 H 140.504 -1.4902 -4.3625 0
M  V30 1495 H 144.048 -4.88703 -4.9781 0
M  V30 1496 H 139.945 -3.69345 -5.29391 0
M  V30 1497 H 140.713 -5.6812 -5.89222 0
M  V30 1498 N 143.376 1.44774 -0.622745 0
M  V30 1499 C 144.792 1.56986 -0.287652 0
M  V30 1500 C 144.992 1.61167 1.20944 0
M  V30 1501 O 144.048 1.55015 1.99315 0
M  V30 1502 C 145.361 2.84551 -0.972188 0
M  V30 1503 C 146.909 2.9825 -0.949536 0
M  V30 1504 C 147.384 4.28605 -1.61437 0
M  V30 1505 N 148.875 4.35399 -1.58057 0
M  V30 1506 C 149.61 5.34964 -2.064 0
M  V30 1507 N 149.106 6.40981 -2.62897 0
M  V30 1508 N 150.899 5.26419 -1.97078 0
M  V30 1509 H 143.05 1.40304 -1.59463 0
M  V30 1510 H 145.313 0.671794 -0.668878 0
M  V30 1511 H 145.019 2.87417 -2.02693 0
M  V30 1512 H 144.893 3.73807 -0.504771 0
M  V30 1513 H 147.28 2.94941 0.0967067 0
M  V30 1514 H 147.361 2.10364 -1.45536 0
M  V30 1515 H 147.005 4.32672 -2.66002 0
M  V30 1516 H 146.935 5.15334 -1.08344 0
M  V30 1517 H 149.426 3.59397 -1.16801 0
M  V30 1518 H 149.739 7.13225 -2.97539 0
M  V30 1519 H 148.084 6.4169 -2.66943 0
M  V30 1520 H 151.275 4.42504 -1.52669 0
M  V30 1521 H 151.448 6.03861 -2.35066 0
M  V30 1522 N 144.854 0.36279 1.53368 0
M  V30 1523 C 146.082 -0.228613 2.05633 0
M  V30 1524 C 146.497 -1.42676 1.23649 0
M  V30 1525 O 145.854 -1.80394 0.27647 0
M  V30 1526 C 145.905 -0.624845 3.56059 0
M  V30 1527 O 145.626 0.525675 4.34935 0
M  V30 1528 C 147.127 -1.27493 4.24571 0
M  V30 1529 H 144.347 -0.0407183 0.669763 0
M  V30 1530 H 146.891 0.520352 1.97769 0
M  V30 1531 H 145.046 -1.32373 3.64083 0
M  V30 1532 H 145.46 0.205969 5.24095 0
M  V30 1533 H 146.934 -1.50277 5.31151 0
M  V30 1534 H 147.411 -2.23439 3.78116 0
M  V30 1535 H 148.017 -0.617558 4.20792 0
M  V30 1536 N 146.332 -1.57332 0.0918853 0
M  V30 1537 C 147.295 -2.12708 -0.85369 0
M  V30 1538 C 148.295 -1.05561 -1.213 0
M  V30 1539 O 149.485 -1.31461 -1.14296 0
M  V30 1540 C 146.617 -2.64503 -2.15061 0
M  V30 1541 H 147.81 -2.97573 -0.3729 0
M  V30 1542 H 145.363 -1.55509 -0.157072 0
M  V30 1543 H 146.098 -1.83149 -2.67632 0
M  V30 1544 H 145.883 -3.4284 -1.90272 0
M  V30 1545 H 147.373 -3.07351 -2.82711 0
M  V30 1546 N 147.81 0.181792 -1.56548 0
M  V30 1547 C 149.087 0.926765 -1.72251 0
M  V30 1548 C 149.467 2.00831 -0.650386 0
M  V30 1549 O 148.815 2.26008 0.336521 0
M  V30 1550 C 149.025 1.50106 -3.1507 0
M  V30 1551 C 150.373 1.97805 -3.75711 0
M  V30 1552 O 151.397 1.59922 -3.18282 0
M  V30 1553 O 150.256 2.67555 -4.76525 0
M  V30 1554 H 147.35 0.435506 -0.703039 0
M  V30 1555 H 149.896 0.170443 -1.68842 0
M  V30 1556 H 148.668 0.72212 -3.84579 0
M  V30 1557 H 148.291 2.32186 -3.22763 0
M  V30 1558 N 149.288 1.51039 0.449983 0
M  V30 1559 C 150.536 1.62759 1.19808 0
M  V30 1560 C 150.857 0.339981 1.92013 0
M  V30 1561 O 150.127 -0.643606 1.85026 0
M  V30 1562 H 148.707 0.599811 0.445237 0
M  V30 1563 H 151.369 1.87914 0.517138 0
M  V30 1564 H 150.465 2.44911 1.93455 0
M  V30 1565 N 150.766 -0.704594 1.40972 0
M  V30 1566 C 152.182 -1.01406 1.23244 0
M  V30 1567 C 152.382 -2.01169 0.115399 0
M  V30 1568 O 151.438 -2.47021 -0.523147 0
M  V30 1569 C 152.751 -1.54728 2.57836 0
M  V30 1570 C 154.299 -1.66658 2.64942 0
M  V30 1571 C 154.774 -2.23383 3.9983 0
M  V30 1572 N 156.265 -2.30756 4.01629 0
M  V30 1573 C 157 -2.75655 5.02794 0
M  V30 1574 N 156.496 -3.20225 6.14352 0
M  V30 1575 N 158.289 -2.75138 4.90159 0
M  V30 1576 H 150.44 -0.0435285 2.12355 0
M  V30 1577 H 152.703 -0.0818951 0.944456 0
M  V30 1578 H 152.409 -0.888832 3.40283 0
M  V30 1579 H 152.283 -2.53084 2.79693 0
M  V30 1580 H 154.67 -2.31617 1.8286 0
M  V30 1581 H 154.751 -0.668717 2.46904 0
M  V30 1582 H 154.395 -1.59043 4.82357 0
M  V30 1583 H 154.325 -3.23904 4.15203 0
M  V30 1584 H 156.816 -1.99291 3.21079 0
M  V30 1585 H 157.129 -3.53084 6.87424 0
M  V30 1586 H 155.474 -3.18156 6.17901 0
M  V30 1587 H 158.665 -2.39661 4.02095 0
M  V30 1588 H 158.838 -3.09812 5.6914 0
M  V30 1589 N 152.244 -1.26651 -0.937939 0
M  V30 1590 C 153.492 -1.12165 -1.68118 0
M  V30 1591 C 153.813 0.334983 -1.92101 0
M  V30 1592 O 153.083 1.23583 -1.52 0
M  V30 1593 H 151.663 -0.412093 -0.623048 0
M  V30 1594 H 154.325 -1.59027 -1.12678 0
M  V30 1595 H 153.421 -1.64289 -2.6536 0
M  V30 1596 N 153.722 1.14298 -1.08507 0
M  V30 1597 C 154.97 1.84993 -0.813763 0
M  V30 1598 C 155.291 1.83405 0.662393 0
M  V30 1599 O 154.561 1.28319 1.48024 0
M  V30 1600 H 153.141 0.684966 -0.298045 0
M  V30 1601 H 155.803 1.385 -1.37126 0
M  V30 1602 H 154.899 2.89788 -1.15884 0
M  V30 1603 N 155.201 0.870884 1.31352 0
M  V30 1604 C 156.164 0.332243 2.26779 0
M  V30 1605 C 157.164 -0.517302 1.52252 0
M  V30 1606 O 158.354 -0.326477 1.71113 0
M  V30 1607 C 155.486 -0.528066 3.36785 0
M  V30 1608 H 156.679 1.17469 2.75937 0
M  V30 1609 H 154.232 0.64655 1.423 0
M  V30 1610 H 154.967 -1.39167 2.92922 0
M  V30 1611 H 154.752 0.0802582 3.92018 0
M  V30 1612 H 156.242 -0.897179 4.07849 0
M  V30 1613 N 156.679 -1.44442 0.630414 0
M  V30 1614 C 157.927 -2.01653 0.134351 0
M  V30 1615 C 158.248 -1.49836 -1.24796 0
M  V30 1616 O 157.518 -0.701684 -1.82902 0
M  V30 1617 H 156.098 -0.74554 0.0466769 0
M  V30 1618 H 158.76 -1.76952 0.816955 0
M  V30 1619 H 157.856 -3.11935 0.101498 0
M  V30 1620 N 158.157 -0.370918 -1.53173 0
M  V30 1621 C 159.067 0.480823 -2.2962 0
M  V30 1622 C 160.083 1.08789 -1.35798 0
M  V30 1623 O 161.259 1.09768 -1.68858 0
M  V30 1624 C 158.324 1.60227 -3.07454 0
M  V30 1625 C 157.385 1.0222 -4.16953 0
M  V30 1626 C 156.618 2.0902 -4.91066 0
M  V30 1627 O 156.841 3.30222 -4.65091 0
M  V30 1628 O 155.775 1.71778 -5.76867 0
M  V30 1629 H 159.601 -0.141421 -3.03371 0
M  V30 1630 H 157.186 -0.135146 -1.48787 0
M  V30 1631 H 159.068 2.25417 -3.56041 0
M  V30 1632 H 157.743 2.20982 -2.36535 0
M  V30 1633 H 156.65 0.334064 -3.72605 0
M  V30 1634 H 157.983 0.459131 -4.90054 0
M  V30 1635 N 159.635 1.57281 -0.100228 0
M  V30 1636 C 160.883 1.94153 0.561157 0
M  V30 1637 C 161.204 0.983157 1.68401 0
M  V30 1638 O 160.474 0.0361132 1.95867 0
M  V30 1639 H 159.054 0.716791 0.210283 0
M  V30 1640 H 161.716 1.94202 -0.164765 0
M  V30 1641 H 160.812 2.96709 0.968008 0
M  V30 1642 N 161.113 -0.173488 1.56642 0
M  V30 1643 C 162.045 -1.23935 1.92802 0
M  V30 1644 C 163.058 -1.40589 0.820889 0
M  V30 1645 O 164.247 -1.40631 1.09933 0
M  V30 1646 C 161.347 -2.60837 2.16373 0
M  V30 1647 C 160.52 -2.6551 3.47596 0
M  V30 1648 C 159.579 -3.8376 3.60021 0
M  V30 1649 O 158.605 -3.69859 4.32658 0
M  V30 1650 N 159.807 -5.00127 2.94709 0
M  V30 1651 H 162.572 -0.932236 2.84832 0
M  V30 1652 H 160.133 -0.363268 1.57772 0
M  V30 1653 H 162.125 -3.38407 2.21952 0
M  V30 1654 H 160.695 -2.83948 1.30738 0
M  V30 1655 H 159.915 -1.74052 3.53694 0
M  V30 1656 H 161.203 -2.65641 4.33949 0
M  V30 1657 H 160.601 -5.14322 2.35563 0
M  V30 1658 H 159.158 -5.75567 3.05886 0
M  V30 1659 N 162.591 -1.51276 -0.441967 0
M  V30 1660 C 163.523 -1.68444 -1.55433 0
M  V30 1661 C 164.536 -0.565187 -1.52674 0
M  V30 1662 O 165.725 -0.839356 -1.57534 0
M  V30 1663 C 162.825 -1.67966 -2.94348 0
M  V30 1664 C 161.998 -2.964 -3.21661 0
M  V30 1665 C 161.057 -2.88171 -4.40277 0
M  V30 1666 O 160.083 -3.62119 -4.39157 0
M  V30 1667 N 161.285 -2.03706 -5.43584 0
M  V30 1668 H 164.05 -2.644 -1.41112 0
M  V30 1669 H 161.611 -1.49104 -0.630838 0
M  V30 1670 H 163.603 -1.60035 -3.71713 0
M  V30 1671 H 162.173 -0.796225 -3.0229 0
M  V30 1672 H 161.393 -3.18234 -2.32638 0
M  V30 1673 H 162.681 -3.81427 -3.36736 0
M  V30 1674 H 162.079 -1.42995 -5.47329 0
M  V30 1675 H 160.636 -2.01658 -6.1982 0
M  V30 1676 N 164.069 0.697108 -1.41344 0
M  V30 1677 C 165.485 1.00751 -1.2378 0
M  V30 1678 C 165.685 2.01105 -0.126066 0
M  V30 1679 O 164.741 2.47295 0.51004 0
M  V30 1680 C 166.054 1.53359 -2.58653 0
M  V30 1681 C 167.602 1.6525 -2.65822 0
M  V30 1682 C 168.077 2.2126 -4.01009 0
M  V30 1683 N 169.568 2.28622 -4.02847 0
M  V30 1684 C 170.303 2.72984 -5.04249 0
M  V30 1685 N 169.799 3.16962 -6.16041 0
M  V30 1686 N 171.592 2.72534 -4.91611 0
M  V30 1687 H 163.743 0.0322662 -2.12375 0
M  V30 1688 H 166.006 0.0768853 -0.944877 0
M  V30 1689 H 165.712 0.870773 -3.4075 0
M  V30 1690 H 165.586 2.51597 -2.81032 0
M  V30 1691 H 167.973 2.30644 -1.84086 0
M  V30 1692 H 168.054 0.655614 -2.47256 0
M  V30 1693 H 167.698 1.56482 -4.83193 0
M  V30 1694 H 167.628 3.21698 -4.16915 0
M  V30 1695 H 170.119 1.97585 -3.22131 0
M  V30 1696 H 170.432 3.49434 -6.89287 0
M  V30 1697 H 168.777 3.14875 -6.1958 0
M  V30 1698 H 171.968 2.37525 -4.0336 0
M  V30 1699 H 172.141 3.06789 -5.70775 0
M  V30 1700 N 165.547 1.27147 0.931209 0
M  V30 1701 C 166.794 1.13278 1.67852 0
M  V30 1702 C 167.122 -0.32204 1.91815 0
M  V30 1703 O 166.377 -1.25224 1.50391 0
M  V30 1704 C 166.676 1.8579 3.05314 0
M  V30 1705 C 166.342 3.35657 3.01073 0
M  V30 1706 C 165.004 3.76536 2.99623 0
M  V30 1707 C 167.356 4.31299 2.92627 0
M  V30 1708 C 164.684 5.11426 2.87506 0
M  V30 1709 C 167.036 5.66242 2.82051 0
M  V30 1710 C 165.7 6.06418 2.7895 0
M  V30 1711 H 164.97 0.414515 0.614214 0
M  V30 1712 H 167.617 1.57712 1.08624 0
M  V30 1713 H 165.922 1.33854 3.68226 0
M  V30 1714 H 167.619 1.72491 3.62005 0
M  V30 1715 H 164.209 3.03146 3.02986 0
M  V30 1716 H 168.393 4.00692 2.92848 0
M  V30 1717 H 163.649 5.41705 2.83489 0
M  V30 1718 H 167.823 6.40026 2.74481 0
M  V30 1719 H 165.45 7.10895 2.69318 0
M  V30 1720 N 167.025 -1.13721 1.09112 0
M  V30 1721 C 167.988 -2.17222 0.731241 0
M  V30 1722 C 168.988 -1.59035 -0.237566 0
M  V30 1723 O 170.178 -1.74192 -0.0161704 0
M  V30 1724 C 167.31 -3.40804 0.0808443 0
M  V30 1725 H 168.503 -2.50573 1.64783 0
M  V30 1726 H 166.056 -1.28493 0.889897 0
M  V30 1727 H 166.791 -3.1304 -0.847127 0
M  V30 1728 H 166.576 -3.84306 0.777896 0
M  V30 1729 H 168.066 -4.1731 -0.155657 0
M  V30 1730 N 168.503 -0.877838 -1.30888 0
M  V30 1731 C 169.914 -0.544193 -1.78593 0
M  V30 1732 C 170.265 0.939301 -1.72254 0
M  V30 1733 O 169.39 1.7337 -1.29505 0
M  V30 1734 C 169.985 -0.98105 -3.24285 0
M  V30 1735 C 168.544 -0.698935 -3.69854 0
M  V30 1736 C 167.691 -1.168 -2.51502 0
M  V30 1737 H 170.642 -1.06278 -1.17859 0
M  V30 1738 H 170.663 -0.307009 -3.79259 0
M  V30 1739 H 170.175 -2.06079 -3.28866 0
M  V30 1740 H 168.276 0.369112 -3.70767 0
M  V30 1741 H 168.389 -1.28148 -4.61644 0
M  V30 1742 H 166.753 -0.587535 -2.47831 0
M  V30 1743 H 167.536 -2.25533 -2.58824 0
M  V30 1744 N 169.982 1.44106 -0.638065 0
M  V30 1745 C 170.912 2.33448 0.0494287 0
M  V30 1746 C 171.893 1.48606 0.827672 0
M  V30 1747 O 173.078 1.77308 0.792173 0
M  V30 1748 C 170.208 3.31771 1.02691 0
M  V30 1749 C 169.162 4.26485 0.359823 0
M  V30 1750 C 168.488 5.14729 1.44769 0
M  V30 1751 C 169.788 5.17056 -0.738296 0
M  V30 1752 H 171.482 2.91183 -0.696636 0
M  V30 1753 H 169.028 1.40014 -0.336456 0
M  V30 1754 H 170.981 3.93161 1.51666 0
M  V30 1755 H 169.705 2.7226 1.80395 0
M  V30 1756 H 168.364 3.66437 -0.10934 0
M  V30 1757 H 168.012 4.51566 2.21578 0
M  V30 1758 H 167.712 5.78913 1.00668 0
M  V30 1759 H 169.236 5.78991 1.93911 0
M  V30 1760 H 170.65 5.72342 -0.331354 0
M  V30 1761 H 169.047 5.89879 -1.10286 0
M  V30 1762 H 170.117 4.57652 -1.60258 0
M  V30 1763 N 171.46 0.379036 1.52974 0
M  V30 1764 C 172.408 -0.476033 2.27677 0
M  V30 1765 C 173.402 -1.0719 1.31174 0
M  V30 1766 O 174.608 -1.01355 1.48752 0
M  V30 1767 H 170.983 -0.172255 0.732006 0
M  V30 1768 H 172.954 0.175615 2.97883 0
M  V30 1769 C 171.703 -1.5967 3.0887 0
M  V30 1770 H 171.026 -1.1475 3.82978 0
M  V30 1771 H 172.466 -2.16943 3.64296 0
M  V30 1772 C 170.925 -2.54682 2.20542 0
M  V30 1773 O 171.455 -3.57836 1.82527 0
M  V30 1774 N 169.661 -2.24183 1.84907 0
M  V30 1775 H 169.208 -1.40333 2.1602 0
M  V30 1776 H 169.166 -2.88006 1.26096 0
M  V30 1777 N 172.938 -1.57226 0.108567 0
M  V30 1778 C 174.163 -1.99604 -0.563303 0
M  V30 1779 C 174.588 -0.987563 -1.6009 0
M  V30 1780 O 173.946 0.0421687 -1.81251 0
M  V30 1781 C 173.994 -3.40902 -1.17552 0
M  V30 1782 O 173.098 -3.42896 -2.2912 0
M  V30 1783 H 172.439 -0.648704 -0.1417 0
M  V30 1784 H 174.969 -2.03679 0.193961 0
M  V30 1785 H 174.979 -3.78886 -1.51357 0
M  V30 1786 H 173.654 -4.1382 -0.415445 0
M  V30 1787 H 172.231 -3.1672 -1.96832 0
M  V30 1788 N 174.416 0.165178 -1.56732 0
M  V30 1789 C 175.662 0.877389 -1.83503 0
M  V30 1790 C 176.017 1.79602 -0.689996 0
M  V30 1791 O 175.31 1.89023 0.313205 0
M  V30 1792 C 175.504 1.70405 -3.1416 0
M  V30 1793 C 175.333 0.866961 -4.41264 0
M  V30 1794 C 174.103 0.539646 -5.0241 0
M  V30 1795 C 176.301 0.205671 -5.13889 0
M  V30 1796 N 174.283 -0.312946 -6.13102 0
M  V30 1797 C 175.654 -0.507823 -6.17917 0
M  V30 1798 C 177.709 0.124468 -4.97744 0
M  V30 1799 C 176.412 -1.29483 -7.0755 0
M  V30 1800 C 178.438 -0.649222 -5.87826 0
M  V30 1801 C 177.8 -1.35106 -6.91322 0
M  V30 1802 H 173.899 0.299477 -0.722383 0
M  V30 1803 H 176.483 0.143949 -1.94167 0
M  V30 1804 H 174.654 2.40887 -3.04677 0
M  V30 1805 H 176.386 2.35804 -3.28905 0
M  V30 1806 H 173.141 0.871176 -4.65519 0
M  V30 1807 H 173.565 -0.729731 -6.73056 0
M  V30 1808 H 178.207 0.652724 -4.17731 0
M  V30 1809 H 175.925 -1.83441 -7.87004 0
M  V30 1810 H 179.511 -0.713804 -5.77405 0
M  V30 1811 H 178.391 -1.94013 -7.59821 0
M  V30 1812 N 175.894 1.51508 0.433938 0
M  V30 1813 C 177.305 1.56784 1.01369 0
M  V30 1814 C 177.656 0.393349 1.92217 0
M  V30 1815 O 176.781 -0.489441 2.10792 0
M  V30 1816 C 177.376 2.84144 1.8452 0
M  V30 1817 C 175.935 2.9198 2.37539 0
M  V30 1818 C 175.082 2.51482 1.16843 0
M  V30 1819 H 178.033 1.57236 0.215081 0
M  V30 1820 H 178.054 2.68098 2.70007 0
M  V30 1821 H 177.566 3.69607 1.18373 0
M  V30 1822 H 175.667 2.10955 3.0713 0
M  V30 1823 H 175.78 3.95704 2.70103 0
M  V30 1824 H 174.144 2.04758 1.51481 0
M  V30 1825 H 174.927 3.39293 0.523015 0
M  V30 1826 N 177.372 -0.689602 1.41712 0
M  V30 1827 C 178.649 -1.44457 1.31877 0
M  V30 1828 C 179.029 -2.11039 -0.0508537 0
M  V30 1829 O 178.377 -2.02138 -1.06547 0
M  V30 1830 C 178.587 -2.45913 2.47645 0
M  V30 1831 C 179.935 -3.10991 2.89084 0
M  V30 1832 O 180.959 -2.56238 2.47428 0
M  V30 1833 O 179.818 -4.10174 3.61137 0
M  V30 1834 H 176.912 -0.64362 0.519309 0
M  V30 1835 H 179.458 -0.719576 1.53689 0
M  V30 1836 H 178.23 -1.95409 3.39015 0
M  V30 1837 H 177.853 -3.25913 2.27742 0
M  V30 1838 N 178.85 -1.27639 -0.924453 0
M  V30 1839 C 179.798 -1.10485 -2.04685 0
M  V30 1840 C 180.792 -0.0270421 -1.69378 0
M  V30 1841 O 181.998 -0.185008 -1.79047 0
M  V30 1842 H 178.373 -0.340546 -0.670472 0
M  V30 1843 H 180.344 -2.05566 -2.16298 0
M  V30 1844 C 179.093 -0.772229 -3.39016 0
M  V30 1845 H 178.416 -1.59351 -3.66671 0
M  V30 1846 H 179.856 -0.692097 -4.18313 0
M  V30 1847 C 178.315 0.523554 -3.32807 0
M  V30 1848 O 178.845 1.55702 -3.70297 0
M  V30 1849 N 177.051 0.520363 -2.85903 0
M  V30 1850 H 176.598 -0.32107 -2.55591 0
M  V30 1851 H 176.556 1.38742 -2.82131 0
M  V30 1852 N 180.328 1.1314 -1.09713 0
M  V30 1853 C 181.291 2.16831 -0.742751 0
M  V30 1854 C 182.291 1.59159 0.229129 0
M  V30 1855 O 183.481 1.74199 0.00693237 0
M  V30 1856 C 180.613 3.40756 -0.0989168 0
M  V30 1857 H 181.806 2.49695 -1.66109 0
M  V30 1858 H 179.359 1.2802 -0.896699 0
M  V30 1859 H 180.094 3.13485 0.830514 0
M  V30 1860 H 179.879 3.83888 -0.798265 0
M  V30 1861 H 181.369 4.17386 0.133524 0
M  V30 1862 N 181.806 0.884767 1.30421 0
M  V30 1863 C 182.754 0.340869 2.30089 0
M  V30 1864 C 183.748 -0.55201 1.60154 0
M  V30 1865 O 184.954 -0.436467 1.74628 0
M  V30 1866 H 181.329 0.0915739 0.746404 0
M  V30 1867 H 183.3 1.19513 2.73421 0
M  V30 1868 C 182.049 -0.429779 3.45034 0
M  V30 1869 H 181.372 0.248024 3.9903 0
M  V30 1870 H 182.812 -0.775445 4.16849 0
M  V30 1871 C 181.271 -1.62677 2.95022 0
M  V30 1872 O 181.801 -2.72614 2.95033 0
M  V30 1873 N 180.007 -1.46387 2.51036 0
M  V30 1874 H 179.554 -0.569506 2.51226 0
M  V30 1875 H 179.512 -2.26612 2.17932 0
M  V30 1876 N 183.284 -1.43765 0.645699 0
M  V30 1877 C 184.214 -2.33471 -0.0370477 0
M  V30 1878 C 185.195 -1.49042 -0.819779 0
M  V30 1879 O 186.38 -1.77726 -0.782758 0
M  V30 1880 C 183.51 -3.32311 -1.0093 0
M  V30 1881 C 182.464 -4.2667 -0.337201 0
M  V30 1882 C 181.79 -5.1549 -1.42037 0
M  V30 1883 C 183.09 -5.16657 0.765706 0
M  V30 1884 H 184.784 -2.90809 0.712069 0
M  V30 1885 H 182.33 -1.39834 0.343876 0
M  V30 1886 H 184.283 -3.9396 -1.49578 0
M  V30 1887 H 183.007 -2.73213 -1.78948 0
M  V30 1888 H 181.666 -3.66374 0.128771 0
M  V30 1889 H 181.314 -4.52735 -2.1918 0
M  V30 1890 H 181.014 -5.79438 -0.975966 0
M  V30 1891 H 182.538 -5.80012 -1.90838 0
M  V30 1892 H 183.952 -5.72158 0.361702 0
M  V30 1893 H 182.349 -5.89286 1.13413 0
M  V30 1894 H 183.419 -4.56796 1.62683 0
M  V30 1895 N 184.763 -0.387143 -1.52771 0
M  V30 1896 C 186.04 0.253197 -1.93954 0
M  V30 1897 C 186.42 1.64545 -1.32243 0
M  V30 1898 O 185.768 2.23191 -0.489699 0
M  V30 1899 C 185.978 0.281722 -3.47861 0
M  V30 1900 C 187.326 0.511715 -4.21505 0
M  V30 1901 O 188.35 0.362023 -3.54356 0
M  V30 1902 O 187.209 0.804847 -5.40541 0
M  V30 1903 H 184.303 0.156845 -0.811991 0
M  V30 1904 H 186.849 -0.441494 -1.63856 0
M  V30 1905 H 185.621 -0.693571 -3.85104 0
M  V30 1906 H 185.244 1.02142 -3.84256 0
M  V30 1907 N 186.241 1.57166 -0.116904 0
M  V30 1908 C 187.188 2.15202 0.83408 0
M  V30 1909 C 188.158 1.07644 1.26499 0
M  V30 1910 O 189.343 1.35541 1.34288 0
M  V30 1911 C 186.483 2.75405 2.07957 0
M  V30 1912 C 185.596 3.97264 1.69721 0
M  V30 1913 C 184.731 4.45561 2.89221 0
M  V30 1914 C 183.77 5.59956 2.47215 0
M  V30 1915 N 182.907 6.03006 3.59622 0
M  V30 1916 H 187.747 2.96141 0.332335 0
M  V30 1917 H 185.284 1.46309 0.152349 0
M  V30 1918 H 187.242 3.08439 2.80929 0
M  V30 1919 H 185.872 1.97159 2.55594 0
M  V30 1920 H 184.924 3.70404 0.866316 0
M  V30 1921 H 186.236 4.80226 1.34849 0
M  V30 1922 H 185.39 4.80493 3.7042 0
M  V30 1923 H 184.129 3.61544 3.27318 0
M  V30 1924 H 183.134 5.2463 1.64448 0
M  V30 1925 H 184.359 6.45738 2.10238 0
M  V30 1926 H 182.305 5.21931 3.97396 0
M  V30 1927 H 182.222 6.80819 3.28667 0
M  V30 1928 H 183.49 6.42576 4.41267 0
M  V30 1929 N 187.719 -0.156864 1.56817 0
M  V30 1930 C 188.682 -1.17781 1.96622 0
M  V30 1931 C 189.682 -1.36401 0.851555 0
M  V30 1932 O 190.872 -1.33561 1.11836 0
M  V30 1933 C 188.004 -2.54008 2.27361 0
M  V30 1934 H 189.197 -0.836564 2.87996 0
M  V30 1935 H 186.75 -0.39985 1.51099 0
M  V30 1936 H 187.485 -2.9312 1.38748 0
M  V30 1937 H 187.27 -2.41856 3.08623 0
M  V30 1938 H 188.76 -3.27558 2.59029 0
M  V30 1939 N 189.197 -1.51736 -0.425897 0
M  V30 1940 C 190.613 -1.40166 -0.76326 0
M  V30 1941 C 190.813 -0.492962 -1.95377 0
M  V30 1942 O 189.869 0.0475815 -2.52455 0
M  V30 1943 C 191.182 -2.82403 -1.03291 0
M  V30 1944 C 192.73 -2.91632 -1.13665 0
M  V30 1945 C 193.205 -4.34801 -1.43916 0
M  V30 1946 N 194.696 -4.3796 -1.50816 0
M  V30 1947 C 195.431 -5.4578 -1.75817 0
M  V30 1948 N 194.927 -6.63744 -1.98534 0
M  V30 1949 N 196.72 -5.33274 -1.77694 0
M  V30 1950 H 188.871 -2.09361 0.358 0
M  V30 1951 H 191.134 -0.942941 0.0978094 0
M  V30 1952 H 190.84 -3.50943 -0.230696 0
M  V30 1953 H 190.714 -3.22428 -1.95754 0
M  V30 1954 H 193.101 -2.23284 -1.92947 0
M  V30 1955 H 193.182 -2.55088 -0.190756 0
M  V30 1956 H 192.826 -5.03703 -0.65157 0
M  V30 1957 H 192.756 -4.68868 -2.39729 0
M  V30 1958 H 195.247 -3.52919 -1.35118 0
M  V30 1959 H 195.56 -7.41704 -2.17013 0
M  V30 1960 H 193.905 -6.66839 -1.95832 0
M  V30 1961 H 197.096 -4.40098 -1.59473 0
M  V30 1962 H 197.269 -6.1738 -1.9684 0
M  V30 1963 N 190.675 0.682077 -1.42076 0
M  V30 1964 C 192.091 0.994324 -1.24841 0
M  V30 1965 C 192.291 2.0096 -0.147389 0
M  V30 1966 O 191.347 2.47822 0.483782 0
M  V30 1967 C 192.66 1.50607 -2.60265 0
M  V30 1968 C 194.208 1.62421 -2.6756 0
M  V30 1969 C 194.683 2.16994 -4.03333 0
M  V30 1970 N 196.174 2.24337 -4.0525 0
M  V30 1971 C 196.909 2.67621 -5.07116 0
M  V30 1972 N 196.405 3.1041 -6.19368 0
M  V30 1973 N 198.198 2.67305 -4.94474 0
M  V30 1974 H 190.349 0.00973908 -2.12398 0
M  V30 1975 H 192.612 0.0668593 -0.945639 0
M  V30 1976 H 192.318 0.834583 -3.41654 0
M  V30 1977 H 192.192 2.48602 -2.83684 0
M  V30 1978 H 194.579 2.28678 -1.86521 0
M  V30 1979 H 194.66 0.629352 -2.47937 0
M  V30 1980 H 194.304 1.51349 -4.84826 0
M  V30 1981 H 194.234 3.17258 -4.20304 0
M  V30 1982 H 196.725 1.94158 -3.24209 0
M  V30 1983 H 197.038 3.42103 -6.92954 0
M  V30 1984 H 195.383 3.08286 -6.22884 0
M  V30 1985 H 198.574 2.33233 -4.05857 0
M  V30 1986 H 198.747 3.00718 -5.73997 0
M  V30 1987 N 192.153 1.28127 0.917671 0
M  V30 1988 C 193.083 1.14248 2.03641 0
M  V30 1989 C 194.064 0.0412748 1.7005 0
M  V30 1990 O 195.249 0.217566 1.92977 0
M  V30 1991 C 192.379 0.799431 3.37974 0
M  V30 1992 C 191.333 1.85497 3.85713 0
M  V30 1993 C 190.659 1.36565 5.16966 0
M  V30 1994 C 191.959 3.26085 4.08002 0
M  V30 1995 H 193.653 2.07835 2.15511 0
M  V30 1996 H 191.199 1.00064 1.03553 0
M  V30 1997 H 193.152 0.689114 4.15727 0
M  V30 1998 H 191.876 -0.172145 3.26146 0
M  V30 1999 H 190.535 1.95437 3.10161 0
M  V30 2000 H 190.183 0.383253 5.01538 0
M  V30 2001 H 189.883 2.07143 5.49878 0
M  V30 2002 H 191.407 1.26848 5.97279 0
M  V30 2003 H 192.821 3.19089 4.76293 0
M  V30 2004 H 191.218 3.94462 4.52238 0
M  V30 2005 H 192.288 3.70394 3.12948 0
M  V30 2006 N 193.631 -1.12557 1.10312 0
M  V30 2007 C 194.561 -2.20341 0.772798 0
M  V30 2008 C 195.542 -1.68198 -0.25365 0
M  V30 2009 O 196.727 -1.93831 -0.119699 0
M  V30 2010 C 193.857 -3.46709 0.202443 0
M  V30 2011 C 192.811 -4.11996 1.15943 0
M  V30 2012 C 192.137 -5.328 0.450345 0
M  V30 2013 C 193.437 -4.5828 2.50552 0
M  V30 2014 H 195.131 -2.48229 1.674 0
M  V30 2015 H 192.677 -1.19308 0.806326 0
M  V30 2016 H 194.63 -4.2138 -0.0407752 0
M  V30 2017 H 193.354 -3.18245 -0.734001 0
M  V30 2018 H 192.013 -3.39305 1.38808 0
M  V30 2019 H 191.661 -5.00602 -0.490531 0
M  V30 2020 H 191.361 -5.7743 1.08851 0
M  V30 2021 H 192.885 -6.10219 0.215642 0
M  V30 2022 H 194.299 -5.2433 2.31843 0
M  V30 2023 H 192.696 -5.13683 3.10242 0
M  V30 2024 H 193.766 -3.72329 3.10643 0
M  V30 2025 N 195.109 -0.891671 -1.2995 0
M  V30 2026 C 196.355 -0.523649 -1.96544 0
M  V30 2027 C 196.71 0.918394 -1.69066 0
M  V30 2028 O 196.003 1.64122 -0.988659 0
M  V30 2029 C 196.197 -0.742868 -3.49594 0
M  V30 2030 C 196.026 -2.20467 -3.9195 0
M  V30 2031 C 194.796 -2.85055 -4.17219 0
M  V30 2032 C 196.994 -3.17912 -4.04273 0
M  V30 2033 N 194.976 -4.21762 -4.46083 0
M  V30 2034 C 196.347 -4.39712 -4.37097 0
M  V30 2035 C 198.402 -3.1361 -3.86721 0
M  V30 2036 C 197.105 -5.5776 -4.54199 0
M  V30 2037 C 199.131 -4.30936 -4.05028 0
M  V30 2038 C 198.493 -5.51504 -4.38204 0
M  V30 2039 H 194.592 -0.241072 -0.743914 0
M  V30 2040 H 197.176 -1.15081 -1.5705 0
M  V30 2041 H 195.347 -0.14515 -3.88129 0
M  V30 2042 H 197.079 -0.341081 -4.0326 0
M  V30 2043 H 193.834 -2.35889 -4.10674 0
M  V30 2044 H 194.258 -4.92382 -4.64638 0
M  V30 2045 H 198.9 -2.21489 -3.60142 0
M  V30 2046 H 196.618 -6.50379 -4.79618 0
M  V30 2047 H 200.204 -4.29085 -3.92909 0
M  V30 2048 H 199.084 -6.40778 -4.52077 0
M  V30 2049 N 196.587 1.43421 -0.653314 0
M  V30 2050 C 197.998 1.85065 -0.246537 0
M  V30 2051 C 198.349 1.54688 1.2069 0
M  V30 2052 O 197.474 0.995896 1.92122 0
M  V30 2053 C 198.069 3.35922 -0.440666 0
M  V30 2054 C 196.628 3.76297 -0.0882064 0
M  V30 2055 C 195.775 2.67147 -0.743484 0
M  V30 2056 H 198.726 1.33572 -0.856979 0
M  V30 2057 H 198.747 3.79204 0.313798 0
M  V30 2058 H 198.259 3.58 -1.49858 0
M  V30 2059 H 196.36 3.5983 0.96711 0
M  V30 2060 H 196.473 4.76338 -0.513738 0
M  V30 2061 H 194.837 2.54086 -0.176712 0
M  V30 2062 H 195.62 2.92053 -1.80443 0
M  V30 2063 N 198.065 0.39524 1.52563 0
M  V30 2064 C 199.314 -0.186321 2.00838 0
M  V30 2065 C 199.627 -1.47402 1.28577 0
M  V30 2066 O 200.833 -2.13599 1.67593 0
M  V30 2067 C 199.289 -0.382595 3.57861 0
M  V30 2068 C 198.897 0.892202 4.39026 0
M  V30 2069 C 200.641 -0.9202 4.14406 0
M  V30 2070 C 198.548 0.66388 5.87662 0
M  V30 2071 H 197.478 -0.0734041 0.750418 0
M  V30 2072 H 200.129 0.518552 1.76021 0
M  V30 2073 H 198.511 -1.14946 3.7895 0
M  V30 2074 H 199.685 1.66414 4.29701 0
M  V30 2075 H 198 1.35519 3.9373 0
M  V30 2076 H 200.597 -1.10683 5.23119 0
M  V30 2077 H 200.94 -1.89096 3.70875 0
M  V30 2078 H 201.473 -0.212751 3.97231 0
M  V30 2079 H 198.212 1.6058 6.35527 0
M  V30 2080 H 197.732 -0.0690193 5.9976 0
M  V30 2081 H 199.411 0.300699 6.46301 0
M  V30 2082 N 199.544 -1.57102 0.125237 0
M  V30 2083 C 200.491 -2.15641 -0.822655 0
M  V30 2084 C 201.461 -1.08313 -1.25927 0
M  V30 2085 O 202.646 -1.36251 -1.33567 0
M  V30 2086 C 199.786 -2.76504 -2.06494 0
M  V30 2087 C 198.899 -3.98158 -1.67612 0
M  V30 2088 C 198.034 -4.47088 -2.86854 0
M  V30 2089 C 197.073 -5.6126 -2.44242 0
M  V30 2090 N 196.21 -6.04905 -3.56419 0
M  V30 2091 H 201.05 -2.96313 -0.316625 0
M  V30 2092 H 198.587 -1.46388 -0.144588 0
M  V30 2093 H 200.545 -3.09925 -2.79289 0
M  V30 2094 H 199.175 -1.98512 -2.54545 0
M  V30 2095 H 198.227 -3.70858 -0.846661 0
M  V30 2096 H 199.539 -4.80934 -1.32301 0
M  V30 2097 H 198.693 -4.82451 -3.67867 0
M  V30 2098 H 197.432 -3.63275 -3.25396 0
M  V30 2099 H 196.437 -5.25495 -1.61663 0
M  V30 2100 H 197.662 -6.46843 -2.0681 0
M  V30 2101 H 195.608 -5.24032 -3.94623 0
M  V30 2102 H 195.525 -6.82552 -3.25051 0
M  V30 2103 H 196.793 -6.44907 -4.37853 0
M  V30 2104 N 201.022 0.148545 -1.56898 0
M  V30 2105 C 201.954 1.20852 -1.9475 0
M  V30 2106 C 202.967 1.39265 -0.843152 0
M  V30 2107 O 204.156 1.38864 -1.12156 0
M  V30 2108 C 201.256 2.57362 -2.20495 0
M  V30 2109 C 200.429 2.59947 -3.51776 0
M  V30 2110 C 199.488 3.77984 -3.6608 0
M  V30 2111 O 198.514 3.62929 -4.38487 0
M  V30 2112 N 199.716 4.95375 -3.02629 0
M  V30 2113 H 202.481 0.886804 -2.86279 0
M  V30 2114 H 200.042 0.338121 -1.5833 0
M  V30 2115 H 202.034 3.34833 -2.27307 0
M  V30 2116 H 200.604 2.81832 -1.35238 0
M  V30 2117 H 199.824 1.68403 -3.56419 0
M  V30 2118 H 201.112 2.58704 -4.38121 0
M  V30 2119 H 200.51 5.10509 -2.43715 0
M  V30 2120 H 199.067 5.70627 -3.15004 0
M  V30 2121 N 202.5 1.5196 0.417844 0
M  V30 2122 C 203.447 1.74678 1.50852 0
M  V30 2123 C 204.417 0.588947 1.55308 0
M  V30 2124 O 205.602 0.825544 1.72016 0
M  V30 2125 C 202.742 1.89544 2.88387 0
M  V30 2126 C 201.855 3.17166 2.93309 0
M  V30 2127 C 200.99 3.22513 4.22088 0
M  V30 2128 C 200.029 4.44372 4.20951 0
M  V30 2129 N 199.166 4.47161 5.41287 0
M  V30 2130 H 204.006 2.67768 1.30783 0
M  V30 2131 H 201.543 1.32689 0.63498 0
M  V30 2132 H 203.501 1.96146 3.68216 0
M  V30 2133 H 202.131 0.998424 3.06971 0
M  V30 2134 H 201.183 3.19778 2.06024 0
M  V30 2135 H 202.495 4.07021 2.88332 0
M  V30 2136 H 201.649 3.28139 5.10303 0
M  V30 2137 H 200.388 2.30581 4.29748 0
M  V30 2138 H 199.393 4.38902 3.31127 0
M  V30 2139 H 200.618 5.3759 4.14938 0
M  V30 2140 H 198.564 3.58108 5.49632 0
M  V30 2141 H 198.481 5.3085 5.3827 0
M  V30 2142 H 199.749 4.57005 6.3148 0
M  V30 2143 N 203.978 -0.674533 1.42435 0
M  V30 2144 C 205.208 -1.46071 1.46105 0
M  V30 2145 C 205.616 -1.89067 0.0709605 0
M  V30 2146 O 204.959 -1.58731 -0.924677 0
M  V30 2147 C 205.021 -2.74145 2.32561 0
M  V30 2148 C 204.685 -2.53224 3.8043 0
M  V30 2149 C 205.682 -2.17809 4.72075 0
M  V30 2150 C 203.367 -2.6821 4.24698 0
M  V30 2151 C 205.361 -1.97648 6.05982 0
M  V30 2152 C 203.048 -2.47665 5.58664 0
M  V30 2153 C 204.046 -2.12437 6.49122 0
M  V30 2154 O 203.734 -1.9209 7.80613 0
M  V30 2155 H 203.466 -0.455959 0.499076 0
M  V30 2156 H 206.02 -0.836193 1.87609 0
M  V30 2157 H 204.25 -3.3908 1.85908 0
M  V30 2158 H 205.939 -3.36028 2.27683 0
M  V30 2159 H 206.705 -2.05826 4.39159 0
M  V30 2160 H 202.584 -2.94609 3.54579 0
M  V30 2161 H 206.128 -1.70075 6.7655 0
M  V30 2162 H 202.025 -2.59244 5.91154 0
M  V30 2163 H 202.793 -2.06686 7.91974 0
M  V30 2164 N 205.456 -1.28612 -0.910864 0
M  V30 2165 C 206.704 -1.15705 -1.65701 0
M  V30 2166 C 207.025 0.29416 -1.92769 0
M  V30 2167 O 206.295 1.20331 -1.54588 0
M  V30 2168 H 204.875 -0.425216 -0.614167 0
M  V30 2169 H 207.537 -1.61381 -1.0928 0
M  V30 2170 H 206.633 -1.6988 -2.61815 0
M  V30 2171 N 206.934 1.1197 -1.10907 0
M  V30 2172 C 208.35 1.35591 -0.841852 0
M  V30 2173 C 208.55 1.94233 0.536246 0
M  V30 2174 O 207.606 2.1717 1.28816 0
M  V30 2175 C 208.919 2.29284 -1.94549 0
M  V30 2176 C 210.467 2.42862 -1.97451 0
M  V30 2177 C 210.942 3.39873 -3.07002 0
M  V30 2178 N 212.433 3.47433 -3.06341 0
M  V30 2179 C 213.168 4.22421 -3.87748 0
M  V30 2180 N 212.664 5.00432 -4.79103 0
M  V30 2181 N 214.457 4.17876 -3.75946 0
M  V30 2182 H 206.608 0.722664 -1.99728 0
M  V30 2183 H 208.871 0.380635 -0.868229 0
M  V30 2184 H 208.577 1.93378 -2.93765 0
M  V30 2185 H 208.451 3.29452 -1.83688 0
M  V30 2186 H 210.838 2.78046 -0.988645 0
M  V30 2187 H 210.919 1.42566 -2.12388 0
M  V30 2188 H 210.563 3.05417 -4.05811 0
M  V30 2189 H 210.493 4.40011 -2.89306 0
M  V30 2190 H 212.984 2.91784 -2.40147 0
M  V30 2191 H 213.297 5.55002 -5.37766 0
M  V30 2192 H 211.642 4.99612 -4.83128 0
M  V30 2193 H 214.833 3.56016 -3.03924 0
M  V30 2194 H 215.006 4.76061 -4.39624 0
M  V30 2195 N 208.412 0.89855 1.29475 0
M  V30 2196 C 209.375 0.380272 2.26023 0
M  V30 2197 C 210.375 -0.484891 1.53315 0
M  V30 2198 O 211.565 -0.290108 1.71767 0
M  V30 2199 C 208.697 -0.45651 3.3783 0
M  V30 2200 H 209.89 1.23295 2.73383 0
M  V30 2201 H 207.443 0.676589 1.40897 0
M  V30 2202 H 208.178 -1.32922 2.95808 0
M  V30 2203 H 207.963 0.163393 3.91759 0
M  V30 2204 H 209.453 -0.810466 4.0966 0
M  V30 2205 N 209.89 -1.43072 0.660911 0
M  V30 2206 C 211.139 -2.00942 0.174735 0
M  V30 2207 C 211.452 -1.52797 -1.22117 0
M  V30 2208 O 212.658 -2.02991 -1.80297 0
M  V30 2209 C 211.114 -3.58948 0.261559 0
M  V30 2210 C 210.722 -4.16085 1.66064 0
M  V30 2211 C 212.466 -4.24173 -0.166617 0
M  V30 2212 C 210.373 -5.6641 1.70098 0
M  V30 2213 H 209.303 -0.751483 0.0615631 0
M  V30 2214 H 211.954 -1.63955 0.824069 0
M  V30 2215 H 210.336 -3.93372 -0.455421 0
M  V30 2216 H 211.51 -3.93147 2.40359 0
M  V30 2217 H 209.825 -3.6326 2.03546 0
M  V30 2218 H 212.422 -5.34471 -0.156433 0
M  V30 2219 H 212.765 -3.98647 -1.19943 0
M  V30 2220 H 213.298 -3.94659 0.498875 0
M  V30 2221 H 210.037 -5.96715 2.71315 0
M  V30 2222 H 209.557 -5.91382 1.00139 0
M  V30 2223 H 211.236 -6.30585 1.44816 0
M  V30 2224 N 211.368 -0.403325 -1.52352 0
M  V30 2225 C 212.593 0.176499 -2.06648 0
M  V30 2226 C 213.018 1.38577 -1.27193 0
M  V30 2227 O 212.376 1.7879 -0.300637 0
M  V30 2228 C 212.424 0.511061 -3.5696 0
M  V30 2229 O 211.528 1.60294 -3.79973 0
M  V30 2230 H 210.869 0.0167337 -0.663789 0
M  V30 2231 H 213.399 -0.574848 -1.96359 0
M  V30 2232 H 213.409 0.771362 -4.00642 0
M  V30 2233 H 212.084 -0.37296 -4.14224 0
M  V30 2234 H 210.661 1.33526 -3.48174 0
M  V30 2235 N 212.846 1.57033 -0.133567 0
M  V30 2236 C 214.092 1.96764 0.515326 0
M  V30 2237 C 214.447 1.01653 1.63353 0
M  V30 2238 O 213.74 0.0491374 1.91537 0
M  V30 2239 C 213.934 3.40674 1.08057 0
M  V30 2240 C 213.763 4.49696 0.0186522 0
M  V30 2241 C 212.533 5.03567 -0.418174 0
M  V30 2242 C 214.731 5.08536 -0.767809 0
M  V30 2243 N 212.713 5.9618 -1.46434 0
M  V30 2244 C 214.084 5.97231 -1.6648 0
M  V30 2245 C 216.139 4.9115 -0.817087 0
M  V30 2246 C 214.842 6.70401 -2.60681 0
M  V30 2247 C 216.868 5.65012 -1.74687 0
M  V30 2248 C 216.23 6.53403 -2.63141 0
M  V30 2249 H 212.329 0.765919 0.157771 0
M  V30 2250 H 214.913 1.93395 -0.22506 0
M  V30 2251 H 213.084 3.44662 1.79061 0
M  V30 2252 H 214.816 3.67495 1.69497 0
M  V30 2253 H 211.571 4.73594 -0.0229803 0
M  V30 2254 H 211.995 6.47191 -1.98678 0
M  V30 2255 H 216.637 4.22543 -0.147326 0
M  V30 2256 H 214.355 7.38245 -3.28664 0
M  V30 2257 H 217.941 5.53559 -1.79063 0
M  V30 2258 H 216.821 7.09556 -3.33917 0
M  V30 2259 N 214.325 -0.140222 1.56975 0
M  V30 2260 C 215.288 -1.15689 1.97861 0
M  V30 2261 C 216.288 -1.3549 0.865974 0
M  V30 2262 O 217.478 -1.32367 1.13246 0
M  V30 2263 C 214.61 -2.51582 2.30042 0
M  V30 2264 H 215.803 -0.805971 2.88867 0
M  V30 2265 H 213.356 -0.383801 1.51515 0
M  V30 2266 H 214.091 -2.91632 1.41849 0
M  V30 2267 H 213.876 -2.38569 3.11171 0
M  V30 2268 H 215.366 -3.24792 2.62488 0
M  V30 2269 N 215.803 -1.52179 -0.40978 0
M  V30 2270 C 217.08 -1.56769 -1.16974 0
M  V30 2271 C 217.46 -0.348322 -2.08206 0
M  V30 2272 O 216.808 0.664862 -2.18613 0
M  V30 2273 C 217.018 -2.89603 -1.9476 0
M  V30 2274 C 218.366 -3.42579 -2.50849 0
M  V30 2275 O 219.39 -2.91338 -2.04941 0
M  V30 2276 O 218.249 -4.32054 -3.34652 0
M  V30 2277 H 215.343 -0.631439 -0.534054 0
M  V30 2278 H 217.889 -1.64507 -0.416613 0
M  V30 2279 H 216.661 -3.698 -1.27921 0
M  V30 2280 H 216.284 -2.85155 -2.77079 0
M  V30 2281 N 217.281 0.66697 -1.42791 0
M  V30 2282 C 218.211 1.79218 -1.49677 0
M  V30 2283 C 219.192 1.66405 -0.352623 0
M  V30 2284 O 220.377 1.85708 -0.567993 0
M  V30 2285 C 217.507 3.17565 -1.40605 0
M  V30 2286 C 216.461 3.45124 -2.53127 0
M  V30 2287 C 215.787 4.83127 -2.29112 0
M  V30 2288 C 217.087 3.41236 -3.95418 0
M  V30 2289 H 218.781 1.73713 -2.43853 0
M  V30 2290 H 216.327 0.83432 -1.17367 0
M  V30 2291 H 218.28 3.96022 -1.44029 0
M  V30 2292 H 217.004 3.23767 -0.429271 0
M  V30 2293 H 215.663 2.69031 -2.49034 0
M  V30 2294 H 215.311 4.85988 -1.29709 0
M  V30 2295 H 215.011 5.02528 -3.04531 0
M  V30 2296 H 216.535 5.63859 -2.34297 0
M  V30 2297 H 217.949 4.09651 -4.01073 0
M  V30 2298 H 216.346 3.72173 -4.70752 0
M  V30 2299 H 217.416 2.39665 -4.21532 0
M  V30 2300 N 218.759 1.29093 0.90403 0
M  V30 2301 C 219.689 1.16401 2.02418 0
M  V30 2302 C 220.67 0.0593085 1.69997 0
M  V30 2303 O 221.855 0.238021 1.92736 0
M  V30 2304 C 218.985 0.835233 3.37107 0
M  V30 2305 C 217.939 1.89578 3.83724 0
M  V30 2306 C 217.265 1.42041 5.15489 0
M  V30 2307 C 218.565 3.30394 4.04521 0
M  V30 2308 H 220.259 2.10109 2.13295 0
M  V30 2309 H 217.805 1.01157 1.02486 0
M  V30 2310 H 219.758 0.733169 4.14973 0
M  V30 2311 H 218.482 -0.137543 3.2631 0
M  V30 2312 H 217.141 1.98715 3.08071 0
M  V30 2313 H 216.789 0.436426 5.01103 0
M  V30 2314 H 216.489 2.12964 5.4765 0
M  V30 2315 H 218.013 1.33176 5.959 0
M  V30 2316 H 219.427 3.24123 4.72882 0
M  V30 2317 H 217.824 3.99237 4.48029 0
M  V30 2318 H 218.894 3.73692 3.09002 0
M  V30 2319 N 220.237 -1.11381 1.11499 0
M  V30 2320 C 221.486 -1.82494 0.858993 0
M  V30 2321 C 221.799 -1.85605 -0.617278 0
M  V30 2322 O 223.005 -2.52824 -0.989552 0
M  V30 2323 C 221.461 -3.27745 1.48699 0
M  V30 2324 C 221.069 -3.32961 2.99735 0
M  V30 2325 C 222.813 -4.03754 1.31085 0
M  V30 2326 C 220.72 -4.72612 3.55516 0
M  V30 2327 H 219.65 -0.683802 0.317696 0
M  V30 2328 H 222.301 -1.25331 1.34031 0
M  V30 2329 H 220.683 -3.84844 0.933339 0
M  V30 2330 H 221.857 -2.85741 3.61509 0
M  V30 2331 H 220.172 -2.70433 3.16631 0
M  V30 2332 H 222.769 -5.06891 1.70192 0
M  V30 2333 H 223.112 -4.15527 0.253496 0
M  V30 2334 H 223.645 -3.53043 1.83318 0
M  V30 2335 H 220.384 -4.66036 4.60967 0
M  V30 2336 H 219.904 -5.2024 2.98513 0
M  V30 2337 H 221.583 -5.4157 3.53992 0
M  V30 2338 N 221.715 -0.905404 -1.28997 0
M  V30 2339 C 222.645 -0.404212 -2.29975 0
M  V30 2340 C 223.626 0.523784 -1.61835 0
M  V30 2341 O 224.811 0.433298 -1.89304 0
M  V30 2342 C 221.941 0.364042 -3.45387 0
M  V30 2343 C 220.895 -0.474048 -4.25367 0
M  V30 2344 C 220.221 0.422045 -5.33032 0
M  V30 2345 C 221.521 -1.72696 -4.92923 0
M  V30 2346 H 223.215 -1.24807 -2.72146 0
M  V30 2347 H 220.761 -0.601585 -1.30832 0
M  V30 2348 H 222.714 0.725447 -4.15109 0
M  V30 2349 H 221.438 1.24174 -3.02074 0
M  V30 2350 H 220.097 -0.81786 -3.57361 0
M  V30 2351 H 219.745 1.29804 -4.85963 0
M  V30 2352 H 219.445 -0.135057 -5.87445 0
M  V30 2353 H 220.969 0.779517 -6.05604 0
M  V30 2354 H 222.383 -1.43495 -5.55051 0
M  V30 2355 H 220.78 -2.22582 -5.57295 0
M  V30 2356 H 221.85 -2.45964 -4.17887 0
M  V30 2357 N 223.193 1.4272 -0.668489 0
M  V30 2358 C 224.421 2.05966 -0.196348 0
M  V30 2359 C 224.836 1.50191 1.14403 0
M  V30 2360 O 224.193 0.639208 1.7094 0
M  V30 2361 C 224.244 3.61314 -0.115815 0
M  V30 2362 O 223.965 4.1502 -1.40322 0
M  V30 2363 C 225.466 4.41663 0.380579 0
M  V30 2364 H 222.686 0.663954 -0.0969829 0
M  V30 2365 H 225.23 1.82966 -0.913446 0
M  V30 2366 H 223.385 3.83448 0.551931 0
M  V30 2367 H 223.799 5.08832 -1.27243 0
M  V30 2368 H 225.273 5.5065 0.385848 0
M  V30 2369 H 225.75 4.15792 1.41471 0
M  V30 2370 H 226.356 4.24534 -0.255209 0
M  V30 2371 N 224.671 0.411399 1.52136 0
M  V30 2372 C 225.919 -0.163322 2.01439 0
M  V30 2373 C 226.24 -1.45453 1.29879 0
M  V30 2374 O 225.51 -1.91225 0.4254 0
M  V30 2375 H 224.09 -0.0633447 0.744309 0
M  V30 2376 H 226.752 0.548161 1.87033 0
M  V30 2377 H 225.848 -0.357817 3.10042 0
M  V30 2378 N 226.149 -1.5696 0.141893 0
M  V30 2379 C 227.097 -2.17784 -0.816874 0
M  V30 2380 C 228.091 -1.1334 -1.25899 0
M  V30 2381 O 229.297 -1.316 -1.22806 0
M  V30 2382 H 225.672 -0.697278 -0.281615 0
M  V30 2383 H 227.643 -2.97087 -0.279621 0
M  V30 2384 C 226.392 -2.80983 -2.04802 0
M  V30 2385 H 225.715 -3.61062 -1.7168 0
M  V30 2386 H 227.155 -3.2705 -2.69841 0
M  V30 2387 C 225.614 -1.79228 -2.8527 0
M  V30 2388 O 226.144 -1.25962 -3.8144 0
M  V30 2389 N 224.35 -1.48647 -2.49704 0
M  V30 2390 H 223.897 -1.92155 -1.71564 0
M  V30 2391 H 223.855 -0.808115 -3.03837 0
M  V30 2392 N 227.627 0.131896 -1.57047 0
M  V30 2393 C 228.873 0.843179 -1.84441 0
M  V30 2394 C 229.206 1.80129 -0.725749 0
M  V30 2395 O 228.481 1.92624 0.269469 0
M  V30 2396 C 228.764 1.60442 -3.22382 0
M  V30 2397 C 228.617 0.666782 -4.4483 0
M  V30 2398 C 229.936 2.56354 -3.5773 0
M  V30 2399 H 227.055 0.305081 -0.670891 0
M  V30 2400 H 229.697 0.107839 -1.89694 0
M  V30 2401 H 227.847 2.23128 -3.18035 0
M  V30 2402 H 229.519 0.0497646 -4.61273 0
M  V30 2403 H 227.762 -0.022609 -4.33794 0
M  V30 2404 H 228.433 1.23579 -5.37989 0
M  V30 2405 H 230.909 2.0378 -3.62785 0
M  V30 2406 H 229.785 3.06657 -4.5525 0
M  V30 2407 H 230.046 3.38419 -2.84473 0
M  V30 2408 N 229.106 1.52395 0.401703 0
M  V30 2409 C 230.069 1.75636 1.47257 0
M  V30 2410 C 231.069 0.62628 1.48103 0
M  V30 2411 O 232.259 0.894227 1.49497 0
M  V30 2412 C 229.391 1.84553 2.86624 0
M  V30 2413 H 230.584 2.71241 1.27938 0
M  V30 2414 H 228.137 1.42923 0.632662 0
M  V30 2415 H 228.872 0.908882 3.11303 0
M  V30 2416 H 228.657 2.66715 2.87412 0
M  V30 2417 H 230.147 2.04251 3.64241 0
M  V30 2418 N 230.584 -0.659388 1.43143 0
M  V30 2419 C 231.514 -1.78422 1.50625 0
M  V30 2420 C 232.495 -1.66216 0.361443 0
M  V30 2421 O 233.68 -1.85404 0.577834 0
M  V30 2422 C 230.81 -3.16815 1.42287 0
M  V30 2423 C 229.764 -3.43777 2.54954 0
M  V30 2424 C 229.09 -4.81905 2.31671 0
M  V30 2425 C 230.39 -3.39134 3.97222 0
M  V30 2426 H 232.084 -1.72417 2.44771 0
M  V30 2427 H 229.63 -0.828084 1.17808 0
M  V30 2428 H 231.583 -3.95253 1.46127 0
M  V30 2429 H 230.307 -3.23534 0.446435 0
M  V30 2430 H 228.966 -2.67707 2.50457 0
M  V30 2431 H 228.614 -4.85294 1.32284 0
M  V30 2432 H 228.314 -5.00906 3.07192 0
M  V30 2433 H 229.838 -5.62609 2.37284 0
M  V30 2434 H 231.252 -4.07518 4.03239 0
M  V30 2435 H 229.649 -3.69671 4.72719 0
M  V30 2436 H 230.719 -2.37426 4.22797 0
M  V30 2437 N 232.062 -1.29571 -0.897171 0
M  V30 2438 C 232.972 -1.16808 -2.03453 0
M  V30 2439 C 233.988 -0.0907471 -1.73763 0
M  V30 2440 O 235.164 -0.303312 -1.99103 0
M  V30 2441 C 232.229 -0.848264 -3.36163 0
M  V30 2442 C 231.29 -2.0097 -3.79354 0
M  V30 2443 C 230.523 -1.70505 -5.05731 0
M  V30 2444 O 230.746 -0.62718 -5.66941 0
M  V30 2445 O 229.68 -2.5538 -5.45036 0
M  V30 2446 H 233.506 -2.12325 -2.17144 0
M  V30 2447 H 231.091 -1.09047 -1.02123 0
M  V30 2448 H 232.973 -0.684581 -4.15802 0
M  V30 2449 H 231.648 0.0771071 -3.23608 0
M  V30 2450 H 230.555 -2.22863 -3.00471 0
M  V30 2451 H 231.888 -2.91636 -3.96496 0
M  V30 2452 N 233.54 1.10788 -1.12088 0
M  V30 2453 C 234.765 1.87002 -0.896949 0
M  V30 2454 C 235.19 1.79933 0.548261 0
M  V30 2455 O 234.548 1.16662 1.38779 0
M  V30 2456 C 234.596 3.3349 -1.37174 0
M  V30 2457 O 233.7 4.08745 -0.547831 0
M  V30 2458 H 233.041 0.580397 -0.322545 0
M  V30 2459 H 235.571 1.39996 -1.49206 0
M  V30 2460 H 235.581 3.84339 -1.36922 0
M  V30 2461 H 234.256 3.37951 -2.42408 0
M  V30 2462 H 232.833 3.6776 -0.617034 0
M  V30 2463 N 235.018 0.912232 1.28515 0
M  V30 2464 C 235.951 0.343928 2.25593 0
M  V30 2465 C 236.929 -0.550994 1.5298 0
M  V30 2466 O 238.113 -0.494991 1.81885 0
M  V30 2467 C 235.24 -0.508525 3.34861 0
M  V30 2468 C 234.286 0.320808 4.25292 0
M  V30 2469 S 235.119 1.72658 5.06902 0
M  V30 2470 C 236.275 0.881394 6.19663 0
M  V30 2471 H 236.508 1.16674 2.73449 0
M  V30 2472 H 234.041 0.713384 1.36931 0
M  V30 2473 H 235.999 -0.994539 3.9827 0
M  V30 2474 H 234.66 -1.30571 2.85675 0
M  V30 2475 H 233.853 -0.330941 5.02912 0
M  V30 2476 H 233.455 0.74042 3.66598 0
M  V30 2477 H 235.747 0.110359 6.7741 0
M  V30 2478 H 236.69 1.63009 6.89082 0
M  V30 2479 H 237.098 0.430239 5.62858 0
M  V30 2480 N 236.496 -1.42363 0.676048 0
M  V30 2481 C 237.744 -2.01123 0.198437 0
M  V30 2482 C 238.065 -1.53731 -1.19966 0
M  V30 2483 O 237.335 -0.759518 -1.80577 0
M  V30 2484 H 235.915 -0.743678 0.0703721 0
M  V30 2485 H 238.577 -1.74263 0.872837 0
M  V30 2486 H 237.673 -3.11454 0.200686 0
M  V30 2487 N 237.974 -0.419461 -1.51915 0
M  V30 2488 C 239.221 0.152939 -2.01922 0
M  V30 2489 C 239.549 1.4426 -1.30458 0
M  V30 2490 O 238.804 1.91514 -0.402593 0
M  V30 2491 C 239.103 0.437067 -3.54717 0
M  V30 2492 C 238.769 -0.764632 -4.44369 0
M  V30 2493 C 237.431 -1.09423 -4.68594 0
M  V30 2494 C 239.783 -1.56713 -4.97082 0
M  V30 2495 C 237.111 -2.22732 -5.42777 0
M  V30 2496 C 239.463 -2.69107 -5.72507 0
M  V30 2497 C 238.127 -3.02541 -5.95 0
M  V30 2498 H 237.397 0.0559644 -0.738884 0
M  V30 2499 H 240.044 -0.562998 -1.83037 0
M  V30 2500 H 238.349 1.23469 -3.71837 0
M  V30 2501 H 240.046 0.893083 -3.90928 0
M  V30 2502 H 236.636 -0.497775 -4.257 0
M  V30 2503 H 240.82 -1.32571 -4.78266 0
M  V30 2504 H 236.076 -2.48971 -5.58411 0
M  V30 2505 H 240.25 -3.31671 -6.12346 0
M  V30 2506 H 237.877 -3.90457 -6.52264 0
M  V30 2507 N 239.452 1.56882 -0.150215 0
M  V30 2508 C 240.399 2.16922 0.788244 0
M  V30 2509 C 241.369 1.10303 1.24187 0
M  V30 2510 O 242.554 1.38359 1.31383 0
M  V30 2511 C 239.694 2.79754 2.02068 0
M  V30 2512 C 238.807 4.00775 1.61257 0
M  V30 2513 C 237.942 4.51595 2.79705 0
M  V30 2514 C 236.981 5.65074 2.35282 0
M  V30 2515 N 236.118 6.10499 3.4675 0
M  V30 2516 H 240.958 2.96779 0.269444 0
M  V30 2517 H 238.495 1.46599 0.12128 0
M  V30 2518 H 240.453 3.14329 2.74323 0
M  V30 2519 H 239.083 2.02536 2.51354 0
M  V30 2520 H 238.135 3.72158 0.787553 0
M  V30 2521 H 239.447 4.82978 1.24633 0
M  V30 2522 H 238.601 4.88242 3.60145 0
M  V30 2523 H 237.34 3.68406 3.19576 0
M  V30 2524 H 236.345 5.28 1.53283 0
M  V30 2525 H 237.57 6.50052 1.96493 0
M  V30 2526 H 235.516 5.30243 3.86236 0
M  V30 2527 H 235.433 6.87637 3.14152 0
M  V30 2528 H 236.701 6.51791 4.27537 0
M  V30 2529 N 240.93 -0.123565 1.57115 0
M  V30 2530 C 242.158 -0.846461 1.88793 0
M  V30 2531 C 242.573 -1.73652 0.740976 0
M  V30 2532 O 241.93 -1.80207 -0.288393 0
M  V30 2533 C 241.981 -1.6837 3.19897 0
M  V30 2534 O 241.702 -0.829477 4.30176 0
M  V30 2535 C 243.203 -2.51214 3.65248 0
M  V30 2536 H 240.423 -0.243573 0.625231 0
M  V30 2537 H 242.967 -0.109324 2.04208 0
M  V30 2538 H 241.122 -2.37364 3.06165 0
M  V30 2539 H 241.536 -1.40651 5.0529 0
M  V30 2540 H 243.01 -3.05497 4.59756 0
M  V30 2541 H 243.487 -3.28359 2.9168 0
M  V30 2542 H 244.093 -1.8747 3.81752 0
M  V30 2543 N 242.408 -1.52605 -0.393616 0
M  V30 2544 C 243.655 -1.67424 -1.1391 0
M  V30 2545 C 243.983 -0.411859 -1.90089 0
M  V30 2546 O 243.238 0.605626 -1.86093 0
M  V30 2547 C 243.537 -2.85721 -2.14705 0
M  V30 2548 C 243.203 -4.23342 -1.55218 0
M  V30 2549 C 241.865 -4.60771 -1.3872 0
M  V30 2550 C 244.217 -5.09041 -1.11924 0
M  V30 2551 C 241.545 -5.81563 -0.774689 0
M  V30 2552 C 243.897 -6.30452 -0.520853 0
M  V30 2553 C 242.561 -6.66617 -0.343134 0
M  V30 2554 H 241.831 -0.612648 -0.416826 0
M  V30 2555 H 244.478 -1.8674 -0.424315 0
M  V30 2556 H 242.783 -2.60803 -2.92385 0
M  V30 2557 H 244.48 -2.94382 -2.72288 0
M  V30 2558 H 241.07 -3.93855 -1.69045 0
M  V30 2559 H 245.254 -4.80695 -1.23473 0
M  V30 2560 H 240.51 -6.08196 -0.625154 0
M  V30 2561 H 244.684 -6.96175 -0.177065 0
M  V30 2562 H 242.311 -7.60083 0.133571 0
M  V30 2563 N 243.887 0.651787 -1.4349 0
M  V30 2564 C 245.135 1.40888 -1.44897 0
M  V30 2565 C 245.456 1.94856 -0.0749086 0
M  V30 2566 O 244.726 1.74518 0.889956 0
M  V30 2567 H 243.306 0.522887 -0.533478 0
M  V30 2568 H 245.968 0.768609 -1.79104 0
M  V30 2569 H 245.064 2.25052 -2.16236 0
M  V30 2570 N 245.365 1.30045 0.890287 0
M  V30 2571 C 246.612 1.18561 1.64163 0
M  V30 2572 C 246.94 -0.260852 1.92743 0
M  V30 2573 O 246.195 -1.20376 1.54299 0
M  V30 2574 C 246.494 1.95409 2.99249 0
M  V30 2575 C 246.16 3.45066 2.90242 0
M  V30 2576 C 244.822 3.85878 2.87492 0
M  V30 2577 C 247.174 4.4039 2.78758 0
M  V30 2578 C 244.502 5.20314 2.7109 0
M  V30 2579 C 246.854 5.74928 2.63894 0
M  V30 2580 C 245.518 6.14986 2.59516 0
M  V30 2581 H 244.788 0.433846 0.600715 0
M  V30 2582 H 247.435 1.61088 1.03552 0
M  V30 2583 H 245.74 1.45501 3.63781 0
M  V30 2584 H 247.437 1.8392 3.56334 0
M  V30 2585 H 244.027 3.12631 2.93189 0
M  V30 2586 H 248.211 4.09806 2.79952 0
M  V30 2587 H 243.467 5.50449 2.66112 0
M  V30 2588 H 247.641 6.48434 2.53981 0
M  V30 2589 H 245.268 7.19104 2.46565 0
M  V30 2590 N 246.843 -1.10192 1.12674 0
M  V30 2591 C 247.806 -2.14786 0.799979 0
M  V30 2592 C 248.806 -1.59711 -0.18685 0
M  V30 2593 O 249.996 -1.74156 0.0392558 0
M  V30 2594 C 247.128 -3.40374 0.189228 0
M  V30 2595 H 248.321 -2.45203 1.72671 0
M  V30 2596 H 245.874 -1.25597 0.930326 0
M  V30 2597 H 246.609 -3.15577 -0.747107 0
M  V30 2598 H 246.394 -3.81637 0.899766 0
M  V30 2599 H 247.884 -4.17594 -0.0228143 0
M  V30 2600 N 248.321 -0.919034 -1.28029 0
M  V30 2601 C 249.569 -0.553838 -1.94363 0
M  V30 2602 C 249.89 0.906357 -1.72656 0
M  V30 2603 O 249.16 1.64143 -1.0693 0
M  V30 2604 H 247.74 -0.201834 -0.719216 0
M  V30 2605 H 250.402 -1.16954 -1.55909 0
M  V30 2606 H 249.498 -0.752758 -3.02886 0
M  V30 2607 N 249.799 1.42003 -0.683588 0
M  V30 2608 C 251.047 2.01015 -0.209101 0
M  V30 2609 C 251.368 1.54365 1.19149 0
M  V30 2610 O 250.638 0.769083 1.80172 0
M  V30 2611 H 249.218 0.743294 -0.074315 0
M  V30 2612 H 251.88 1.73798 -0.882066 0
M  V30 2613 H 250.976 3.11343 -0.2172 0
M  V30 2614 N 251.277 0.427512 1.51691 0
M  V30 2615 C 252.693 0.0792977 1.59403 0
M  V30 2616 C 252.893 -1.41035 1.43914 0
M  V30 2617 O 251.949 -2.17922 1.27539 0
M  V30 2618 C 253.262 0.590636 2.94842 0
M  V30 2619 C 254.81 0.550215 3.08126 0
M  V30 2620 C 255.285 1.03836 4.46074 0
M  V30 2621 N 256.776 0.995943 4.52366 0
M  V30 2622 C 257.511 1.34463 5.57411 0
M  V30 2623 N 257.007 1.76569 6.69922 0
M  V30 2624 N 258.8 1.26343 5.47717 0
M  V30 2625 H 250.951 1.39687 1.60004 0
M  V30 2626 H 253.214 0.575003 0.753708 0
M  V30 2627 H 252.92 1.63251 3.11516 0
M  V30 2628 H 252.794 0.0102061 3.77199 0
M  V30 2629 H 255.181 -0.482654 2.91126 0
M  V30 2630 H 255.262 1.16693 2.27632 0
M  V30 2631 H 254.906 2.06965 4.63819 0
M  V30 2632 H 254.836 0.398286 5.25092 0
M  V30 2633 H 257.327 0.68661 3.7161 0
M  V30 2634 H 257.64 2.01438 7.46085 0
M  V30 2635 H 255.985 1.80488 6.71155 0
M  V30 2636 H 259.176 0.933209 4.58703 0
M  V30 2637 H 259.349 1.53846 6.29472 0
M  V30 2638 N 252.755 -1.56801 0.158532 0
M  V30 2639 C 253.718 -2.16138 -0.762705 0
M  V30 2640 C 254.718 -1.1061 -1.16713 0
M  V30 2641 O 255.908 -1.36191 -1.08617 0
M  V30 2642 C 253.04 -2.73386 -2.03649 0
M  V30 2643 H 254.233 -2.98886 -0.246354 0
M  V30 2644 H 251.786 -1.56035 -0.0909744 0
M  V30 2645 H 252.521 -1.94335 -2.59623 0
M  V30 2646 H 252.306 -3.50601 -1.75559 0
M  V30 2647 H 253.796 -3.19065 -2.6942 0
M  V30 2648 N 254.233 0.115231 -1.57178 0
M  V30 2649 C 255.51 0.852873 -1.76027 0
M  V30 2650 C 255.89 1.97892 -0.73498 0
M  V30 2651 O 255.238 2.27232 0.24036 0
M  V30 2652 C 255.448 1.36608 -3.21153 0
M  V30 2653 C 256.796 1.81692 -3.83762 0
M  V30 2654 O 257.82 1.46278 -3.24779 0
M  V30 2655 O 256.679 2.47104 -4.87444 0
M  V30 2656 H 253.773 0.405296 -0.720877 0
M  V30 2657 H 256.319 0.0986785 -1.69413 0
M  V30 2658 H 255.091 0.558357 -3.87296 0
M  V30 2659 H 254.714 2.18287 -3.3232 0
M  V30 2660 N 255.711 1.52812 0.385517 0
M  V30 2661 C 256.939 1.71907 1.15133 0
M  V30 2662 C 257.354 0.439004 1.83625 0
M  V30 2663 O 256.711 -0.586765 1.7281 0
M  V30 2664 C 256.762 2.87099 2.19673 0
M  V30 2665 O 256.483 4.10151 1.53973 0
M  V30 2666 C 257.984 3.17902 3.08955 0
M  V30 2667 H 255.204 0.575479 0.345057 0
M  V30 2668 H 257.748 1.99476 0.45052 0
M  V30 2669 H 255.903 2.61982 2.85384 0
M  V30 2670 H 256.317 4.74514 2.23465 0
M  V30 2671 H 257.791 4.01959 3.7833 0
M  V30 2672 H 258.268 2.3243 3.72657 0
M  V30 2673 H 258.874 3.44871 2.48885 0
M  V30 2674 N 257.189 -0.644168 1.43834 0
M  V30 2675 C 258.435 -1.40431 1.47141 0
M  V30 2676 C 258.79 -1.92153 0.0975577 0
M  V30 2677 O 258.083 -1.69924 -0.885232 0
M  V30 2678 C 258.277 -2.59615 2.45631 0
M  V30 2679 C 258.106 -2.1956 3.92458 0
M  V30 2680 C 256.876 -2.07456 4.60749 0
M  V30 2681 C 259.074 -1.79281 4.8204 0
M  V30 2682 N 257.056 -1.60827 5.92459 0
M  V30 2683 C 258.427 -1.43801 6.03093 0
M  V30 2684 C 260.482 -1.66545 4.6922 0
M  V30 2685 C 259.185 -0.968599 7.12749 0
M  V30 2686 C 261.211 -1.21008 5.78888 0
M  V30 2687 C 260.573 -0.864711 6.99072 0
M  V30 2688 H 256.672 -0.509182 0.593513 0
M  V30 2689 H 259.256 -0.740351 1.80075 0
M  V30 2690 H 257.427 -3.23658 2.1471 0
M  V30 2691 H 259.159 -3.26357 2.39318 0
M  V30 2692 H 255.914 -2.275 4.1538 0
M  V30 2693 H 256.338 -1.39848 6.62398 0
M  V30 2694 H 260.98 -1.91883 3.7675 0
M  V30 2695 H 258.698 -0.702715 8.05039 0
M  V30 2696 H 262.284 -1.11631 5.7099 0
M  V30 2697 H 261.164 -0.517736 7.82489 0
M  V30 2698 N 258.668 -1.30515 -0.883378 0
M  V30 2699 C 259.578 -1.18959 -2.02203 0
M  V30 2700 C 260.594 -0.109172 -1.73657 0
M  V30 2701 O 261.77 -0.324413 -1.9877 0
M  V30 2702 C 258.835 -0.883871 -3.35244 0
M  V30 2703 C 257.896 -2.04982 -3.77201 0
M  V30 2704 C 257.129 -1.75859 -5.03894 0
M  V30 2705 O 257.352 -0.687276 -5.66244 0
M  V30 2706 O 256.286 -2.61146 -5.42297 0
M  V30 2707 H 260.112 -2.14616 -2.1488 0
M  V30 2708 H 257.697 -1.10124 -1.0096 0
M  V30 2709 H 259.579 -0.728644 -4.15053 0
M  V30 2710 H 258.254 0.0427798 -3.23672 0
M  V30 2711 H 257.161 -2.26038 -2.9809 0
M  V30 2712 H 258.494 -2.95825 -3.93381 0
M  V30 2713 N 260.146 1.09593 -1.13257 0
M  V30 2714 C 261.557 1.63229 -0.906274 0
M  V30 2715 C 261.908 1.8811 0.557578 0
M  V30 2716 O 261.033 1.62953 1.42391 0
M  V30 2717 C 261.628 2.96535 -1.63867 0
M  V30 2718 C 260.187 3.47003 -1.45828 0
M  V30 2719 C 259.334 2.2145 -1.66898 0
M  V30 2720 H 262.285 0.92978 -1.28611 0
M  V30 2721 H 262.306 3.64411 -1.09476 0
M  V30 2722 H 261.818 2.78394 -2.70404 0
M  V30 2723 H 259.919 3.70272 -0.415848 0
M  V30 2724 H 260.032 4.24551 -2.2202 0
M  V30 2725 H 258.396 2.30022 -1.09371 0
M  V30 2726 H 259.179 2.0583 -2.74752 0
M  V30 2727 N 261.624 0.925811 1.2754 0
M  V30 2728 C 262.534 0.428993 2.30644 0
M  V30 2729 C 263.55 -0.489387 1.66976 0
M  V30 2730 O 264.726 -0.372653 1.97922 0
M  V30 2731 C 261.791 -0.311967 3.45294 0
M  V30 2732 C 260.852 0.641098 4.24486 0
M  V30 2733 C 260.085 -0.0645955 5.33661 0
M  V30 2734 O 260.308 -1.28429 5.55754 0
M  V30 2735 O 259.242 0.606265 5.98839 0
M  V30 2736 H 263.068 1.28504 2.75173 0
M  V30 2737 H 260.653 0.691086 1.32455 0
M  V30 2738 H 262.535 -0.729972 4.15029 0
M  V30 2739 H 261.21 -1.14365 3.02824 0
M  V30 2740 H 260.117 1.10874 3.57292 0
M  V30 2741 H 261.45 1.43995 4.70666 0
M  V30 2742 N 263.102 -1.41638 0.69111 0
M  V30 2743 C 264.379 -1.95036 0.148421 0
M  V30 2744 C 264.759 -1.63072 -1.34055 0
M  V30 2745 O 264.107 -0.93538 -2.08478 0
M  V30 2746 C 264.317 -3.46279 0.434951 0
M  V30 2747 C 265.665 -4.23069 0.360275 0
M  V30 2748 O 266.689 -3.54277 0.369613 0
M  V30 2749 O 265.548 -5.45583 0.316534 0
M  V30 2750 H 262.642 -0.826908 0.0123654 0
M  V30 2751 H 265.188 -1.5138 0.766963 0
M  V30 2752 H 263.96 -3.6281 1.46576 0
M  V30 2753 H 263.583 -3.97019 -0.214787 0
M  V30 2754 N 264.58 -0.43555 -1.51462 0
M  V30 2755 C 265.826 0.131709 -2.02372 0
M  V30 2756 C 266.159 1.42516 -1.3192 0
M  V30 2757 O 265.434 1.89606 -0.433573 0
M  V30 2758 C 265.717 0.352301 -3.58373 0
M  V30 2759 C 265.57 -0.959676 -4.39443 0
M  V30 2760 C 266.889 1.12286 -4.25535 0
M  V30 2761 H 264.008 0.0463936 -0.735538 0
M  V30 2762 H 266.65 -0.574197 -1.81116 0
M  V30 2763 H 264.8 0.9536 -3.76615 0
M  V30 2764 H 266.472 -1.59482 -4.32855 0
M  V30 2765 H 264.715 -1.56468 -4.04599 0
M  V30 2766 H 265.386 -0.759394 -5.46752 0
M  V30 2767 H 267.862 0.613545 -4.11552 0
M  V30 2768 H 266.738 1.24598 -5.34571 0
M  V30 2769 H 266.999 2.15048 -3.86273 0
M  V30 2770 N 266.058 1.56714 -0.166846 0
M  V30 2771 C 267.288 2.00828 0.48494 0
M  V30 2772 C 267.696 1.04612 1.57648 0
M  V30 2773 O 267.039 0.0383201 1.8366 0
M  V30 2774 C 267.101 3.4137 1.12723 0
M  V30 2775 C 266.765 4.56654 0.177886 0
M  V30 2776 C 267.762 5.16402 -0.60207 0
M  V30 2777 C 265.447 5.02244 0.0750139 0
M  V30 2778 C 267.441 6.20167 -1.47215 0
M  V30 2779 C 265.128 6.05859 -0.798649 0
M  V30 2780 C 266.126 6.64691 -1.57082 0
M  V30 2781 O 265.814 7.66297 -2.42989 0
M  V30 2782 H 265.546 0.663587 0.128953 0
M  V30 2783 H 268.1 2.03692 -0.264365 0
M  V30 2784 H 266.33 3.35406 1.92457 0
M  V30 2785 H 268.019 3.69466 1.68076 0
M  V30 2786 H 268.785 4.82065 -0.53274 0
M  V30 2787 H 264.664 4.56167 0.665812 0
M  V30 2788 H 268.208 6.66016 -2.07531 0
M  V30 2789 H 264.105 6.39621 -0.869199 0
M  V30 2790 H 264.873 7.83601 -2.36455 0
M  V30 2791 N 267.536 -0.106894 1.57237 0
M  V30 2792 C 268.782 -0.808678 1.86633 0
M  V30 2793 C 269.137 -1.76917 0.756178 0
M  V30 2794 O 268.43 -1.90055 -0.242834 0
M  V30 2795 C 268.624 -1.58628 3.20268 0
M  V30 2796 C 268.453 -0.702592 4.44178 0
M  V30 2797 C 267.223 -0.352808 5.04067 0
M  V30 2798 C 269.421 -0.0148031 5.14298 0
M  V30 2799 N 267.403 0.540279 6.11518 0
M  V30 2800 C 268.774 0.736809 6.15606 0
M  V30 2801 C 270.829 0.0603524 4.97863 0
M  V30 2802 C 269.532 1.55654 7.02257 0
M  V30 2803 C 271.558 0.866942 5.85011 0
M  V30 2804 C 270.92 1.60671 6.85831 0
M  V30 2805 H 267.019 -0.27246 0.733001 0
M  V30 2806 H 269.603 -0.0717858 1.94568 0
M  V30 2807 H 267.774 -2.29413 3.13408 0
M  V30 2808 H 269.506 -2.23434 3.3743 0
M  V30 2809 H 266.261 -0.697802 4.68431 0
M  V30 2810 H 266.685 0.979029 6.69884 0
M  V30 2811 H 271.327 -0.497236 4.19866 0
M  V30 2812 H 269.045 2.12524 7.79653 0
M  V30 2813 H 272.631 0.927612 5.74358 0
M  V30 2814 H 271.511 2.2208 7.52097 0
M  V30 2815 N 269.014 -1.53014 -0.377408 0
M  V30 2816 C 270.262 -1.6829 -1.11906 0
M  V30 2817 C 270.583 -0.431206 -1.90173 0
M  V30 2818 O 269.853 0.554595 -1.87886 0
M  V30 2819 H 268.433 -0.620371 -0.416112 0
M  V30 2820 H 271.095 -1.90167 -0.426893 0
M  V30 2821 H 270.191 -2.53862 -1.8155 0
M  V30 2822 N 270.492 0.636531 -1.44174 0
M  V30 2823 C 271.717 1.42847 -1.50364 0
M  V30 2824 C 272.142 1.87665 -0.127867 0
M  V30 2825 O 271.5 1.58408 0.88185 0
M  V30 2826 C 271.548 2.62854 -2.4686 0
M  V30 2827 O 270.652 3.62501 -1.9664 0
M  V30 2828 H 269.993 0.427642 -0.507955 0
M  V30 2829 H 272.523 0.777422 -1.89255 0
M  V30 2830 H 272.533 3.10465 -2.64718 0
M  V30 2831 H 271.208 2.29578 -3.46795 0
M  V30 2832 H 269.785 3.21735 -1.88523 0
M  V30 2833 N 271.97 1.30982 0.876444 0
M  V30 2834 C 272.88 1.2003 2.01569 0
M  V30 2835 C 273.896 0.11838 1.73597 0
M  V30 2836 O 275.072 0.33495 1.98595 0
M  V30 2837 C 272.137 0.901637 3.34771 0
M  V30 2838 C 271.198 2.06979 3.76109 0
M  V30 2839 C 270.431 1.78529 5.02954 0
M  V30 2840 O 270.654 0.717296 5.65872 0
M  V30 2841 O 269.588 2.64019 5.40905 0
M  V30 2842 H 273.414 2.15753 2.13739 0
M  V30 2843 H 270.999 1.10658 1.00375 0
M  V30 2844 H 272.881 0.750645 4.1466 0
M  V30 2845 H 271.556 -0.0256141 3.2369 0
M  V30 2846 H 270.463 2.27616 2.96887 0
M  V30 2847 H 271.796 2.97907 3.91807 0
M  V30 2848 N 273.449 -1.08991 1.13837 0
M  V30 2849 C 274.396 -2.15748 0.819835 0
M  V30 2850 C 275.366 -1.64636 -0.220026 0
M  V30 2851 O 276.551 -1.90582 -0.0912757 0
M  V30 2852 C 273.691 -3.4382 0.296913 0
M  V30 2853 C 272.804 -4.0881 1.39636 0
M  V30 2854 C 271.939 -5.24655 0.831314 0
M  V30 2855 C 270.978 -5.81575 1.90886 0
M  V30 2856 N 270.115 -6.88774 1.36142 0
M  V30 2857 H 274.955 -2.42338 1.73426 0
M  V30 2858 H 272.492 -1.18935 0.865613 0
M  V30 2859 H 274.45 -4.17193 -0.0244339 0
M  V30 2860 H 273.08 -3.17535 -0.580628 0
M  V30 2861 H 272.132 -3.33258 1.83422 0
M  V30 2862 H 273.444 -4.47141 2.21058 0
M  V30 2863 H 272.598 -6.04942 0.461515 0
M  V30 2864 H 271.337 -4.87698 -0.013932 0
M  V30 2865 H 270.342 -4.99946 2.28767 0
M  V30 2866 H 271.567 -6.20592 2.75758 0
M  V30 2867 H 269.513 -6.53788 0.538254 0
M  V30 2868 H 269.43 -7.25898 2.11208 0
M  V30 2869 H 270.698 -7.72806 1.01933 0
M  V30 2870 N 274.927 -0.932562 -1.27047 0
M  V30 2871 C 276.176 -0.571351 -1.93439 0
M  V30 2872 C 276.489 0.892467 -1.74053 0
M  V30 2873 O 277.695 1.36267 -2.34826 0
M  V30 2874 C 276.151 -0.97106 -3.46552 0
M  V30 2875 C 275.759 -2.4559 -3.74686 0
M  V30 2876 C 277.503 -0.681333 -4.18997 0
M  V30 2877 C 275.41 -2.79475 -5.21198 0
M  V30 2878 H 274.34 -0.209966 -0.724176 0
M  V30 2879 H 276.991 -1.13403 -1.44263 0
M  V30 2880 H 275.373 -0.336983 -3.94564 0
M  V30 2881 H 276.547 -3.13829 -3.37414 0
M  V30 2882 H 274.862 -2.71802 -3.15456 0
M  V30 2883 H 277.459 -0.910939 -5.26883 0
M  V30 2884 H 277.802 0.381628 -4.14547 0
M  V30 2885 H 278.335 -1.27473 -3.76823 0
M  V30 2886 H 275.074 -3.847 -5.30741 0
M  V30 2887 H 274.594 -2.1589 -5.596 0
M  V30 2888 H 276.273 -2.67478 -5.89122 0
M  V30 2889 N 276.405 1.4127 -0.698611 0
M  V30 2890 C 277.651 2.01979 -0.239972 0
M  V30 2891 C 278.006 1.54353 1.14861 0
M  V30 2892 O 277.299 0.746218 1.76471 0
M  V30 2893 C 277.493 3.56592 -0.240192 0
M  V30 2894 C 277.322 4.19226 -1.62726 0
M  V30 2895 C 276.092 4.53389 -2.23084 0
M  V30 2896 C 278.29 4.45228 -2.57443 0
M  V30 2897 N 276.272 5.01327 -3.54323 0
M  V30 2898 C 277.643 4.94973 -3.73365 0
M  V30 2899 C 279.698 4.27243 -2.55671 0
M  V30 2900 C 278.401 5.28624 -4.878 0
M  V30 2901 C 280.427 4.61985 -3.69221 0
M  V30 2902 C 279.789 5.11904 -4.83873 0
M  V30 2903 H 275.888 0.770561 -0.133269 0
M  V30 2904 H 278.472 1.71767 -0.916748 0
M  V30 2905 H 276.643 3.86271 0.406082 0
M  V30 2906 H 278.375 4.04025 0.23356 0
M  V30 2907 H 275.13 4.39946 -1.75341 0
M  V30 2908 H 275.554 5.29697 -4.21604 0
M  V30 2909 H 280.196 3.87884 -1.68243 0
M  V30 2910 H 277.914 5.66905 -5.75885 0
M  V30 2911 H 281.5 4.49725 -3.69105 0
M  V30 2912 H 280.38 5.38282 -5.70282 0
M  V30 2913 N 277.883 0.443576 1.51229 0
M  V30 2914 C 278.813 -0.355142 2.30783 0
M  V30 2915 C 279.794 -1.0154 1.36468 0
M  V30 2916 O 280.979 -1.01785 1.65389 0
M  V30 2917 C 278.109 -1.45312 3.15439 0
M  V30 2918 C 277.063 -0.916002 4.18083 0
M  V30 2919 C 276.389 -2.1102 4.91299 0
M  V30 2920 C 277.689 0.0538602 5.22272 0
M  V30 2921 H 279.383 0.308767 2.97804 0
M  V30 2922 H 276.929 0.149937 1.43217 0
M  V30 2923 H 278.882 -2.01914 3.69876 0
M  V30 2924 H 277.606 -2.14541 2.46252 0
M  V30 2925 H 276.265 -0.372145 3.64706 0
M  V30 2926 H 275.913 -2.78882 4.18609 0
M  V30 2927 H 275.613 -1.75717 5.60712 0
M  V30 2928 H 277.137 -2.68164 5.48562 0
M  V30 2929 H 278.551 -0.422069 5.71744 0
M  V30 2930 H 276.948 0.319776 5.99247 0
M  V30 2931 H 278.018 0.98858 4.74716 0
M  V30 2932 N 279.361 -1.56624 0.175154 0
M  V30 2933 C 280.271 -2.21741 -0.766042 0
M  V30 2934 C 281.287 -1.21023 -1.25018 0
M  V30 2935 O 282.463 -1.53697 -1.3015 0
M  V30 2936 C 279.528 -2.84839 -1.97655 0
M  V30 2937 C 278.589 -4.00769 -1.53892 0
M  V30 2938 C 277.822 -4.60849 -2.69173 0
M  V30 2939 O 278.045 -4.19823 -3.86141 0
M  V30 2940 O 276.979 -5.50655 -2.43028 0
M  V30 2941 H 280.805 -3.02738 -0.241585 0
M  V30 2942 H 278.39 -1.49305 -0.053222 0
M  V30 2943 H 280.272 -3.24834 -2.68442 0
M  V30 2944 H 278.947 -2.06836 -2.48999 0
M  V30 2945 H 277.854 -3.65436 -0.80044 0
M  V30 2946 H 279.187 -4.80376 -1.07236 0
M  V30 2947 N 280.839 0.0985539 -1.57292 0
M  V30 2948 C 281.769 1.12064 -2.04851 0
M  V30 2949 C 282.75 1.41981 -0.936767 0
M  V30 2950 O 283.935 1.52071 -1.20781 0
M  V30 2951 C 281.065 2.44144 -2.47004 0
M  V30 2952 C 280.019 2.28643 -3.6181 0
M  V30 2953 C 279.345 3.65869 -3.89929 0
M  V30 2954 C 280.645 1.72986 -4.92822 0
M  V30 2955 H 282.339 0.724979 -2.9049 0
M  V30 2956 H 279.885 0.34729 -1.39749 0
M  V30 2957 H 281.838 3.15914 -2.78884 0
M  V30 2958 H 280.562 2.85639 -1.5836 0
M  V30 2959 H 279.221 1.59318 -3.30172 0
M  V30 2960 H 278.869 4.04885 -2.98458 0
M  V30 2961 H 278.569 3.56344 -4.67218 0
M  V30 2962 H 280.093 4.39112 -4.2428 0
M  V30 2963 H 281.507 2.34593 -5.23105 0
M  V30 2964 H 279.904 1.74229 -5.74251 0
M  V30 2965 H 280.974 0.689007 -4.7998 0
M  V30 2966 N 282.317 1.53212 0.369288 0
M  V30 2967 C 283.542 1.73423 1.1375 0
M  V30 2968 C 283.967 0.460404 1.82378 0
M  V30 2969 O 283.325 -0.585298 1.71592 0
M  V30 2970 C 283.373 2.89769 2.1463 0
M  V30 2971 O 282.477 2.58119 3.21634 0
M  V30 2972 H 281.818 0.576061 0.330227 0
M  V30 2973 H 284.348 2.00083 0.427547 0
M  V30 2974 H 284.358 3.15829 2.58294 0
M  V30 2975 H 283.033 3.8217 1.64071 0
M  V30 2976 H 281.61 2.42864 2.82969 0
M  V30 2977 N 283.795 -0.628877 1.44509 0
M  V30 2978 C 285.043 -1.38565 1.4712 0
M  V30 2979 C 285.364 -1.94712 0.105899 0
M  V30 2980 O 284.634 -1.75912 -0.862079 0
M  V30 2981 H 283.214 -0.514333 0.541729 0
M  V30 2982 H 285.876 -0.740018 1.80305 0
M  V30 2983 H 284.972 -2.21583 2.19789 0
M  V30 2984 N 285.273 -1.31445 -0.869486 0
M  V30 2985 C 286.521 -1.20918 -1.61936 0
M  V30 2986 C 286.842 0.232683 -1.93607 0
M  V30 2987 O 286.112 1.15352 -1.58338 0
M  V30 2988 H 284.692 -0.44454 -0.600328 0
M  V30 2989 H 287.354 -1.64776 -1.0409 0
M  V30 2990 H 286.45 -1.78124 -2.56278 0
M  V30 2991 N 286.751 1.08385 -1.14413 0
M  V30 2992 C 288.162 1.62258 -0.923535 0
M  V30 2993 C 288.513 1.88691 0.537595 0
M  V30 2994 O 287.638 1.64454 1.40655 0
M  V30 2995 C 288.233 2.94781 -1.67002 0
M  V30 2996 C 286.792 3.45437 -1.495 0
M  V30 2997 C 285.939 2.19668 -1.69238 0
M  V30 2998 H 288.89 0.916086 -1.2959 0
M  V30 2999 H 288.911 3.63229 -1.13334 0
M  V30 3000 H 288.423 2.7551 -2.73342 0
M  V30 3001 H 286.524 3.6981 -0.455097 0
M  V30 3002 H 286.637 4.22173 -2.2651 0
M  V30 3003 H 285.001 2.28849 -1.11804 0
M  V30 3004 H 285.784 2.02905 -2.7692 0
M  V30 3005 N 288.23 0.939286 1.26551 0
M  V30 3006 C 289.178 0.43815 2.28436 0
M  V30 3007 C 290.172 -0.483587 1.62351 0
M  V30 3008 O 291.378 -0.362009 1.76322 0
M  V30 3009 H 287.753 0.123149 0.741848 0
M  V30 3010 H 289.724 1.31002 2.68106 0
M  V30 3011 C 288.473 -0.283052 3.46546 0
M  V30 3012 H 287.796 0.417043 3.97619 0
M  V30 3013 H 289.236 -0.597948 4.19763 0
M  V30 3014 C 287.695 -1.50018 3.01656 0
M  V30 3015 O 288.225 -2.59855 3.0633 0
M  V30 3016 N 286.431 -1.35608 2.57019 0
M  V30 3017 H 285.978 -0.46244 2.53415 0
M  V30 3018 H 285.936 -2.17165 2.27347 0
M  V30 3019 N 289.708 -1.40897 0.706093 0
M  V30 3020 C 290.933 -2.05895 0.249435 0
M  V30 3021 C 291.358 -1.52823 -1.09666 0
M  V30 3022 O 290.716 -0.659589 -1.68876 0
M  V30 3023 C 290.764 -3.59872 0.22904 0
M  V30 3024 O 289.868 -4.04708 -0.792784 0
M  V30 3025 H 289.209 -0.653206 0.119241 0
M  V30 3026 H 291.739 -1.80471 0.96391 0
M  V30 3027 H 291.749 -4.07951 0.0634791 0
M  V30 3028 H 290.424 -3.97866 1.21141 0
M  V30 3029 H 289.001 -3.68111 -0.59572 0
M  V30 3030 N 291.186 -0.45159 -1.50991 0
M  V30 3031 C 292.602 -0.104647 -1.59257 0
M  V30 3032 C 292.802 1.38728 -1.4614 0
M  V30 3033 O 291.858 2.15866 -1.30989 0
M  V30 3034 C 293.171 -0.637468 -2.93865 0
M  V30 3035 C 294.719 -0.599166 -3.07212 0
M  V30 3036 C 295.194 -1.1092 -4.44366 0
M  V30 3037 N 296.685 -1.06778 -4.50725 0
M  V30 3038 C 297.42 -1.43314 -5.55201 0
M  V30 3039 N 296.916 -1.87204 -6.67028 0
M  V30 3040 N 298.709 -1.3504 -5.45638 0
M  V30 3041 H 290.86 -1.42214 -1.57762 0
M  V30 3042 H 293.123 -0.586921 -0.744465 0
M  V30 3043 H 292.829 -1.68187 -3.08879 0
M  V30 3044 H 292.703 -0.0702139 -3.77135 0
M  V30 3045 H 295.09 0.436277 -2.91857 0
M  V30 3046 H 295.171 -1.20299 -2.25747 0
M  V30 3047 H 294.815 -2.14318 -4.60467 0
M  V30 3048 H 294.745 -0.481773 -5.24392 0
M  V30 3049 H 297.236 -0.745643 -3.70471 0
M  V30 3050 H 297.549 -2.13282 -7.42786 0
M  V30 3051 H 295.894 -1.91142 -6.68199 0
M  V30 3052 H 299.085 -1.00607 -4.57161 0
M  V30 3053 H 299.258 -1.63841 -6.26945 0
M  V30 3054 N 292.664 1.56529 -0.183458 0
M  V30 3055 C 293.894 2.01331 0.463612 0
M  V30 3056 C 294.302 1.06278 1.5653 0
M  V30 3057 O 293.645 0.0577976 1.83609 0
M  V30 3058 C 293.707 3.42547 1.09096 0
M  V30 3059 C 293.371 4.56817 0.129442 0
M  V30 3060 C 294.368 5.15734 -0.656807 0
M  V30 3061 C 292.053 5.02295 0.02174 0
M  V30 3062 C 294.047 6.1857 -1.53784 0
M  V30 3063 C 291.734 6.04978 -0.862864 0
M  V30 3064 C 292.732 6.62988 -1.64123 0
M  V30 3065 O 292.42 7.63677 -2.51103 0
M  V30 3066 H 292.152 0.664917 0.121907 0
M  V30 3067 H 294.706 2.034 -0.285954 0
M  V30 3068 H 292.936 3.37428 1.88889 0
M  V30 3069 H 294.625 3.71228 1.64148 0
M  V30 3070 H 295.391 4.81473 -0.583839 0
M  V30 3071 H 291.27 4.56847 0.617392 0
M  V30 3072 H 294.814 6.63777 -2.14583 0
M  V30 3073 H 290.711 6.38663 -0.93699 0
M  V30 3074 H 291.479 7.81049 -2.44753 0
M  V30 3075 N 294.142 -0.090211 1.57342 0
M  V30 3076 C 295.367 -0.810082 1.90925 0
M  V30 3077 C 295.792 -1.71248 0.778187 0
M  V30 3078 O 295.15 -1.79278 -0.269991 0
M  V30 3079 C 295.198 -1.59529 3.23393 0
M  V30 3080 O 294.302 -2.70461 3.11327 0
M  V30 3081 H 293.643 -0.222231 0.625707 0
M  V30 3082 H 296.173 -0.0639716 2.045 0
M  V30 3083 H 296.183 -1.97847 3.5682 0
M  V30 3084 H 294.858 -0.933055 4.05299 0
M  V30 3085 H 293.435 -2.35135 2.89423 0
M  V30 3086 N 295.62 -1.53406 -0.361157 0
M  V30 3087 C 296.868 -1.69467 -1.10115 0
M  V30 3088 C 297.189 -0.451352 -1.89705 0
M  V30 3089 O 296.459 0.534636 -1.88463 0
M  V30 3090 H 295.039 -0.624749 -0.409508 0
M  V30 3091 H 297.701 -1.90609 -0.406699 0
M  V30 3092 H 296.797 -2.55774 -1.78847 0
M  V30 3093 N 297.098 0.621204 -1.44841 0
M  V30 3094 C 298.375 1.38 -1.38619 0
M  V30 3095 C 298.755 2.11041 -0.0498935 0
M  V30 3096 O 298.103 2.06992 0.967816 0
M  V30 3097 C 298.313 2.33817 -2.59096 0
M  V30 3098 C 299.661 2.96844 -3.03593 0
M  V30 3099 O 300.685 2.44141 -2.59371 0
M  V30 3100 O 299.544 3.92476 -3.80296 0
M  V30 3101 H 296.638 0.61811 -0.549426 0
M  V30 3102 H 299.184 0.645429 -1.56947 0
M  V30 3103 H 297.956 1.79012 -3.47952 0
M  V30 3104 H 297.579 3.14676 -2.43032 0
M  V30 3105 N 298.576 1.31904 0.862503 0
M  V30 3106 C 299.992 1.10724 1.14945 0
M  V30 3107 C 300.192 -0.117421 2.01158 0
M  V30 3108 O 299.248 -0.804595 2.39338 0
M  V30 3109 C 300.561 2.38267 1.83437 0
M  V30 3110 C 302.109 2.43949 1.96106 0
M  V30 3111 C 302.584 3.71394 2.68013 0
M  V30 3112 N 304.075 3.72331 2.75543 0
M  V30 3113 C 304.81 4.67641 3.31812 0
M  V30 3114 N 304.306 5.73313 3.88953 0
M  V30 3115 N 306.099 4.5515 3.29841 0
M  V30 3116 H 298.25 2.10436 0.288191 0
M  V30 3117 H 300.513 0.928705 0.190292 0
M  V30 3118 H 300.219 3.27759 1.27542 0
M  V30 3119 H 300.093 2.48633 2.83657 0
M  V30 3120 H 302.48 1.54922 2.51164 0
M  V30 3121 H 302.561 2.37543 0.949059 0
M  V30 3122 H 302.205 4.60791 2.13621 0
M  V30 3123 H 302.135 3.75069 3.69636 0
M  V30 3124 H 304.626 2.95947 2.34997 0
M  V30 3125 H 304.939 6.42107 4.30022 0
M  V30 3126 H 303.284 5.77077 3.87308 0
M  V30 3127 H 306.475 3.71766 2.84443 0
M  V30 3128 H 306.648 5.29604 3.73394 0
M  V30 3129 N 300.054 -1.07777 1.14986 0
M  V30 3130 C 300.986 -2.14769 0.800436 0
M  V30 3131 C 301.999 -1.61739 -0.185595 0
M  V30 3132 O 303.188 -1.78462 0.0370358 0
M  V30 3133 C 300.288 -3.38481 0.168533 0
M  V30 3134 C 299.461 -4.20876 1.1909 0
M  V30 3135 C 298.52 -5.22976 0.581575 0
M  V30 3136 O 297.546 -5.55388 1.24633 0
M  V30 3137 N 298.748 -5.76976 -0.638706 0
M  V30 3138 H 301.513 -2.45348 1.72118 0
M  V30 3139 H 299.074 -1.23645 1.04515 0
M  V30 3140 H 301.066 -4.03916 -0.251764 0
M  V30 3141 H 299.636 -3.05651 -0.655467 0
M  V30 3142 H 298.856 -3.51322 1.78791 0
M  V30 3143 H 300.144 -4.7274 1.88133 0
M  V30 3144 H 299.542 -5.52886 -1.19723 0
M  V30 3145 H 298.099 -6.44061 -1.00142 0
M  V30 3146 N 301.532 -0.945985 -1.26051 0
M  V30 3147 C 302.462 -0.477172 -2.28572 0
M  V30 3148 C 303.443 0.472032 -1.63419 0
M  V30 3149 O 304.628 0.372853 -1.90587 0
M  V30 3150 C 301.758 0.253975 -3.4637 0
M  V30 3151 C 300.712 -0.609135 -4.23643 0
M  V30 3152 C 300.038 0.252252 -5.34105 0
M  V30 3153 C 301.338 -1.8829 -4.8718 0
M  V30 3154 H 303.032 -1.33402 -2.68038 0
M  V30 3155 H 300.578 -0.642904 -1.28852 0
M  V30 3156 H 302.531 0.593016 -4.17207 0
M  V30 3157 H 301.255 1.145 -3.05871 0
M  V30 3158 H 299.914 -0.931138 -3.54578 0
M  V30 3159 H 299.562 1.14278 -4.89846 0
M  V30 3160 H 299.262 -0.32188 -5.86718 0
M  V30 3161 H 300.786 0.586454 -6.07777 0
M  V30 3162 H 302.2 -1.61081 -5.50205 0
M  V30 3163 H 300.597 -2.40199 -5.49931 0
M  V30 3164 H 301.667 -2.59134 -4.09851 0
M  V30 3165 N 303.011 1.40521 -0.713556 0
M  V30 3166 C 303.921 2.34522 -0.0606667 0
M  V30 3167 C 304.937 1.57193 0.74607 0
M  V30 3168 O 306.113 1.89591 0.679493 0
M  V30 3169 C 303.178 3.36081 0.851491 0
M  V30 3170 C 302.239 4.29286 0.0349339 0
M  V30 3171 C 301.472 5.25994 0.903649 0
M  V30 3172 O 301.695 5.28616 2.14292 0
M  V30 3173 O 300.629 6.00918 0.343723 0
M  V30 3174 H 304.455 2.91968 -0.835972 0
M  V30 3175 H 302.04 1.41681 -0.47402 0
M  V30 3176 H 303.922 3.98369 1.37404 0
M  V30 3177 H 302.597 2.81052 1.60598 0
M  V30 3178 H 301.504 3.70289 -0.532633 0
M  V30 3179 H 302.837 4.87462 -0.681287 0
M  V30 3180 N 304.489 0.459591 1.5075 0
M  V30 3181 C 305.437 -0.354678 2.2988 0
M  V30 3182 C 306.431 -1.00086 1.36672 0
M  V30 3183 O 307.637 -0.933277 1.53915 0
M  V30 3184 H 304.012 -0.13321 0.740107 0
M  V30 3185 H 305.983 0.333269 2.96533 0
M  V30 3186 C 304.732 -1.43073 3.169 0
M  V30 3187 H 304.055 -0.942882 3.88523 0
M  V30 3188 H 305.495 -1.97328 3.75284 0
M  V30 3189 C 303.954 -2.42633 2.33732 0
M  V30 3190 O 304.484 -3.47658 2.01238 0
M  V30 3191 N 302.69 -2.14066 1.9653 0
M  V30 3192 H 302.237 -1.28685 2.23155 0
M  V30 3193 H 302.195 -2.80917 1.41185 0
M  V30 3194 N 305.967 -1.56429 0.191757 0
M  V30 3195 C 307.378 -1.83912 -0.321428 0
M  V30 3196 C 307.729 -1.11231 -1.61623 0
M  V30 3197 O 306.854 -0.37202 -2.13178 0
M  V30 3198 C 307.449 -3.33624 -0.589961 0
M  V30 3199 C 306.008 -3.6153 -1.04753 0
M  V30 3200 C 305.155 -2.7714 -0.0943327 0
M  V30 3201 H 308.106 -1.53161 0.415612 0
M  V30 3202 H 308.127 -3.52213 -1.43966 0
M  V30 3203 H 307.639 -3.86495 0.352588 0
M  V30 3204 H 305.74 -3.14089 -2.00447 0
M  V30 3205 H 305.853 -4.69737 -0.942549 0
M  V30 3206 H 304.217 -2.47638 -0.595589 0
M  V30 3207 H 305 -3.32799 0.842601 0
M  V30 3208 N 307.445 0.0818655 -1.57387 0
M  V30 3209 C 308.375 1.09885 -2.06028 0
M  V30 3210 C 309.356 1.4098 -0.951774 0
M  V30 3211 O 310.541 1.50781 -1.22387 0
M  V30 3212 C 307.671 2.4151 -2.4958 0
M  V30 3213 C 306.625 2.24792 -3.64215 0
M  V30 3214 C 305.951 3.61712 -3.93787 0
M  V30 3215 C 307.251 1.67749 -4.94629 0
M  V30 3216 H 308.945 0.694128 -2.91243 0
M  V30 3217 H 306.491 0.332448 -1.4011 0
M  V30 3218 H 308.444 3.12939 -2.82219 0
M  V30 3219 H 307.168 2.83943 -1.61381 0
M  V30 3220 H 305.827 1.55807 -3.31843 0
M  V30 3221 H 305.475 4.01697 -3.02735 0
M  V30 3222 H 305.175 3.51368 -4.70971 0
M  V30 3223 H 306.699 4.34587 -4.28913 0
M  V30 3224 H 308.113 2.29032 -5.25564 0
M  V30 3225 H 306.51 1.68128 -5.76067 0
M  V30 3226 H 307.58 0.638059 -4.80684 0
M  V30 3227 N 308.923 1.53595 0.353017 0
M  V30 3228 C 309.886 1.80232 1.41594 0
M  V30 3229 C 310.886 0.673081 1.46035 0
M  V30 3230 O 312.076 0.941335 1.46576 0
M  V30 3231 C 309.208 1.93578 2.80607 0
M  V30 3232 H 310.401 2.75174 1.19244 0
M  V30 3233 H 307.954 1.44864 0.586872 0
M  V30 3234 H 308.689 1.00746 3.08254 0
M  V30 3235 H 308.474 2.75724 2.78781 0
M  V30 3236 H 309.964 2.15735 3.57558 0
M  V30 3237 N 310.401 -0.613514 1.45168 0
M  V30 3238 C 311.364 -1.7065 1.53007 0
M  V30 3239 C 312.364 -1.5548 0.410184 0
M  V30 3240 O 313.554 -1.60656 0.673455 0
M  V30 3241 C 310.686 -3.09875 1.42093 0
M  V30 3242 H 311.879 -1.65068 2.50385 0
M  V30 3243 H 309.432 -0.828728 1.32521 0
M  V30 3244 H 310.167 -3.21039 0.458769 0
M  V30 3245 H 309.952 -3.22293 2.23315 0
M  V30 3246 H 311.442 -3.895 1.50598 0
M  V30 3247 N 311.879 -1.3236 -0.855495 0
M  V30 3248 C 313.125 -1.23054 -1.612 0
M  V30 3249 C 313.458 0.207404 -1.93089 0
M  V30 3250 O 312.733 1.14432 -1.57275 0
M  V30 3251 C 313.016 -2.08937 -2.93287 0
M  V30 3252 C 312.869 -3.61105 -2.68185 0
M  V30 3253 C 314.188 -1.94986 -3.94549 0
M  V30 3254 H 311.307 -0.448364 -0.584926 0
M  V30 3255 H 313.949 -1.62297 -0.987917 0
M  V30 3256 H 312.099 -1.75599 -3.46551 0
M  V30 3257 H 313.771 -4.04652 -2.21483 0
M  V30 3258 H 312.014 -3.83813 -2.02164 0
M  V30 3259 H 312.685 -4.16522 -3.62234 0
M  V30 3260 H 315.161 -2.24189 -3.5054 0
M  V30 3261 H 314.037 -2.57356 -4.84829 0
M  V30 3262 H 314.298 -0.917263 -4.3248 0
M  V30 3263 N 313.357 1.07166 -1.15556 0
M  V30 3264 C 314.289 2.14341 -0.811815 0
M  V30 3265 C 315.302 1.61835 0.177015 0
M  V30 3266 O 316.491 1.78439 -0.0464996 0
M  V30 3267 C 313.591 3.38387 -0.186481 0
M  V30 3268 C 312.764 4.20238 -1.21321 0
M  V30 3269 C 311.823 5.2266 -0.609302 0
M  V30 3270 O 310.849 5.54719 -1.27576 0
M  V30 3271 N 312.051 5.77306 0.608099 0
M  V30 3272 H 314.816 2.44431 -1.73417 0
M  V30 3273 H 312.377 1.23089 -1.0517 0
M  V30 3274 H 314.369 4.04044 0.230339 0
M  V30 3275 H 312.939 3.05994 0.639249 0
M  V30 3276 H 312.159 3.50369 -1.80652 0
M  V30 3277 H 313.447 4.71736 -1.90638 0
M  V30 3278 H 312.845 5.53513 1.1679 0
M  V30 3279 H 311.402 6.44583 0.96725 0
M  V30 3280 N 314.835 0.952656 1.25548 0
M  V30 3281 C 315.768 0.415525 2.24385 0
M  V30 3282 C 316.746 -0.502046 1.54655 0
M  V30 3283 O 317.93 -0.436875 1.83368 0
M  V30 3284 C 315.057 -0.401734 3.36309 0
M  V30 3285 C 314.103 0.455949 4.24056 0
M  V30 3286 S 314.936 1.88698 5.01152 0
M  V30 3287 C 316.092 1.07809 6.16545 0
M  V30 3288 H 316.325 1.25315 2.69599 0
M  V30 3289 H 313.858 0.756587 1.34592 0
M  V30 3290 H 315.816 -0.867329 4.01233 0
M  V30 3291 H 314.477 -1.21416 2.89684 0
M  V30 3292 H 313.67 -0.170776 5.03711 0
M  V30 3293 H 313.272 0.856675 3.64056 0
M  V30 3294 H 315.564 0.325816 6.76716 0
M  V30 3295 H 316.507 1.84849 6.83547 0
M  V30 3296 H 316.915 0.60909 5.61204 0
M  V30 3297 N 316.313 -1.40141 0.720998 0
M  V30 3298 C 317.561 -2.0039 0.262323 0
M  V30 3299 C 317.882 -1.57469 -1.15015 0
M  V30 3300 O 317.152 -0.816582 -1.78069 0
M  V30 3301 H 315.732 -0.741063 0.093996 0
M  V30 3302 H 318.394 -1.71398 0.927835 0
M  V30 3303 H 317.49 -3.10658 0.299671 0
M  V30 3304 N 317.792 -0.46758 -1.50504 0
M  V30 3305 C 318.722 0.318381 -2.31319 0
M  V30 3306 C 319.703 0.993564 -1.38066 0
M  V30 3307 O 320.888 0.991411 -1.66987 0
M  V30 3308 C 318.018 1.40275 -3.17711 0
M  V30 3309 C 316.972 0.849373 -4.19487 0
M  V30 3310 C 316.298 2.03177 -4.94594 0
M  V30 3311 C 317.598 -0.136942 -5.2212 0
M  V30 3312 H 319.292 -0.356106 -2.97275 0
M  V30 3313 H 316.838 -0.172703 -1.42961 0
M  V30 3314 H 318.791 1.96004 -3.73042 0
M  V30 3315 H 317.515 2.10596 -2.49634 0
M  V30 3316 H 316.174 0.314076 -3.65252 0
M  V30 3317 H 315.822 2.72187 -4.22993 0
M  V30 3318 H 315.522 1.66774 -5.63436 0
M  V30 3319 H 317.046 2.59403 -5.52759 0
M  V30 3320 H 318.46 0.331056 -5.72343 0
M  V30 3321 H 316.857 -0.41507 -5.98663 0
M  V30 3322 H 317.927 -1.06398 -4.73083 0
M  V30 3323 N 319.27 1.56325 -0.20005 0
M  V30 3324 C 320.519 1.96895 0.437652 0
M  V30 3325 C 320.832 1.08999 1.62415 0
M  V30 3326 O 322.038 1.39372 2.32997 0
M  V30 3327 C 320.494 3.50198 0.830025 0
M  V30 3328 C 320.102 4.46765 -0.332461 0
M  V30 3329 C 321.846 3.99526 1.43453 0
M  V30 3330 C 319.753 5.91344 0.0811468 0
M  V30 3331 H 318.683 0.735209 0.167282 0
M  V30 3332 H 321.334 1.81148 -0.292853 0
M  V30 3333 H 319.716 3.61467 1.61734 0
M  V30 3334 H 320.89 4.47231 -1.11 0
M  V30 3335 H 319.205 4.07657 -0.848789 0
M  V30 3336 H 321.802 5.05025 1.75652 0
M  V30 3337 H 322.145 3.44122 2.34277 0
M  V30 3338 H 322.678 3.91393 0.71109 0
M  V30 3339 H 319.417 6.50685 -0.793033 0
M  V30 3340 H 318.937 5.94121 0.823445 0
M  V30 3341 H 320.616 6.44945 0.515252 0
M  V30 3342 N 320.748 -0.0735177 1.57428 0
M  V30 3343 C 321.978 -0.78483 1.91112 0
M  V30 3344 C 322.386 -1.71729 0.7941 0
M  V30 3345 O 321.729 -1.82105 -0.241542 0
M  V30 3346 C 321.791 -1.63346 3.20247 0
M  V30 3347 C 321.455 -0.870557 4.48632 0
M  V30 3348 C 322.452 -0.19058 5.19551 0
M  V30 3349 C 320.137 -0.838242 4.95256 0
M  V30 3350 C 322.131 0.511503 6.35344 0
M  V30 3351 C 319.818 -0.132386 6.10957 0
M  V30 3352 C 320.816 0.541288 6.80852 0
M  V30 3353 O 320.504 1.23578 7.94345 0
M  V30 3354 H 320.236 -0.228408 0.636244 0
M  V30 3355 H 322.79 -0.0486039 2.05342 0
M  V30 3356 H 321.02 -2.41245 3.02222 0
M  V30 3357 H 322.709 -2.22329 3.39595 0
M  V30 3358 H 323.475 -0.206864 4.84559 0
M  V30 3359 H 319.354 -1.35206 4.40727 0
M  V30 3360 H 322.898 1.03789 6.89836 0
M  V30 3361 H 318.795 -0.114023 6.45399 0
M  V30 3362 H 319.563 1.14487 8.10454 0
M  V30 3363 N 322.226 -1.5378 -0.344866 0
M  V30 3364 C 323.472 -1.71216 -1.08687 0
M  V30 3365 C 323.805 -0.473281 -1.88345 0
M  V30 3366 O 323.08 0.52968 -1.87149 0
M  V30 3367 C 323.363 -2.97486 -2.02914 0
M  V30 3368 C 323.216 -4.31579 -1.26727 0
M  V30 3369 C 324.535 -3.19422 -3.0275 0
M  V30 3370 H 321.654 -0.62301 -0.393735 0
M  V30 3371 H 324.296 -1.8645 -0.365563 0
M  V30 3372 H 322.446 -2.84629 -2.64421 0
M  V30 3373 H 324.118 -4.56284 -0.67845 0
M  V30 3374 H 322.361 -4.30049 -0.569273 0
M  V30 3375 H 323.032 -5.16106 -1.95803 0
M  V30 3376 H 325.508 -3.316 -2.51357 0
M  V30 3377 H 324.384 -4.09169 -3.65885 0
M  V30 3378 H 324.645 -2.35656 -3.74057 0
M  V30 3379 N 323.704 0.605807 -1.45491 0
M  V30 3380 C 324.652 1.73754 -1.54636 0
M  V30 3381 C 325.646 1.64207 -0.416219 0
M  V30 3382 O 326.852 1.69979 -0.592199 0
M  V30 3383 H 323.227 0.574073 -0.485741 0
M  V30 3384 H 325.198 1.63169 -2.49837 0
M  V30 3385 C 323.947 3.12135 -1.53189 0
M  V30 3386 H 323.27 3.20141 -2.39478 0
M  V30 3387 H 324.71 3.91147 -1.63645 0
M  V30 3388 C 323.169 3.35921 -0.256616 0
M  V30 3389 O 323.699 3.96194 0.662798 0
M  V30 3390 N 321.905 2.90204 -0.151751 0
M  V30 3391 H 321.452 2.41336 -0.90081 0
M  V30 3392 H 321.41 3.06492 0.700699 0
M  V30 3393 N 325.182 1.32811 0.848464 0
M  V30 3394 C 326.593 1.21315 1.41914 0
M  V30 3395 C 326.944 -0.171847 1.95446 0
M  V30 3396 O 326.069 -1.07093 1.88043 0
M  V30 3397 C 326.664 2.19631 2.57968 0
M  V30 3398 C 325.223 2.12003 3.11017 0
M  V30 3399 C 324.37 2.07651 1.83783 0
M  V30 3400 H 327.321 1.44549 0.655071 0
M  V30 3401 H 327.342 1.79845 3.35315 0
M  V30 3402 H 326.854 3.20423 2.18976 0
M  V30 3403 H 324.955 1.14481 3.54577 0
M  V30 3404 H 325.068 3.02111 3.71841 0
M  V30 3405 H 323.432 1.52983 2.03638 0
M  V30 3406 H 324.215 3.10235 1.47 0
M  V30 3407 N 326.66 -1.06551 1.16123 0
M  V30 3408 C 327.57 -2.17484 0.879662 0
M  V30 3409 C 328.586 -1.73377 -0.147104 0
M  V30 3410 O 329.762 -2.01379 0.0289128 0
M  V30 3411 C 326.827 -3.44591 0.381829 0
M  V30 3412 C 325.888 -4.0322 1.4735 0
M  V30 3413 C 325.121 -5.24261 0.999324 0
M  V30 3414 O 325.344 -5.70198 -0.151957 0
M  V30 3415 O 324.278 -5.74775 1.78653 0
M  V30 3416 H 328.104 -2.44075 1.80724 0
M  V30 3417 H 325.689 -1.16042 0.940992 0
M  V30 3418 H 327.571 -4.21254 0.111053 0
M  V30 3419 H 326.246 -3.19532 -0.51777 0
M  V30 3420 H 325.153 -3.2806 1.79798 0
M  V30 3421 H 326.486 -4.32568 2.34831 0
M  V30 3422 N 328.138 -0.959301 -1.25041 0
M  V30 3423 C 329.386 -0.615393 -1.92503 0
M  V30 3424 C 329.707 0.850969 -1.75452 0
M  V30 3425 O 328.977 1.60658 -1.12098 0
M  V30 3426 H 327.557 -0.224613 -0.712431 0
M  V30 3427 H 330.219 -1.21855 -1.5211 0
M  V30 3428 H 329.315 -0.848738 -3.00338 0
M  V30 3429 N 329.616 1.39756 -0.72842 0
M  V30 3430 C 331.027 1.83498 -0.344289 0
M  V30 3431 C 331.378 1.60868 1.12321 0
M  V30 3432 O 330.503 1.09634 1.86573 0
M  V30 3433 C 331.098 3.33114 -0.618112 0
M  V30 3434 C 329.657 3.753 -0.287549 0
M  V30 3435 C 328.804 2.62831 -0.884048 0
M  V30 3436 H 331.755 1.28842 -0.926578 0
M  V30 3437 H 331.776 3.80334 0.112349 0
M  V30 3438 H 331.288 3.49553 -1.68625 0
M  V30 3439 H 329.389 3.64451 0.775012 0
M  V30 3440 H 329.502 4.72945 -0.765512 0
M  V30 3441 H 327.866 2.52792 -0.311149 0
M  V30 3442 H 328.649 2.82078 -1.95671 0
M  V30 3443 N 331.094 0.475555 1.50254 0
M  V30 3444 C 332.371 -0.139685 1.95101 0
M  V30 3445 C 332.751 -1.56555 1.41611 0
M  V30 3446 O 332.099 -2.19956 0.618993 0
M  V30 3447 C 332.309 -0.0784298 3.48912 0
M  V30 3448 C 333.657 -0.265095 4.23772 0
M  V30 3449 O 334.681 -0.154808 3.55863 0
M  V30 3450 O 333.54 -0.488327 5.44314 0
M  V30 3451 H 330.634 -0.109236 0.819754 0
M  V30 3452 H 333.18 0.536276 1.61004 0
M  V30 3453 H 331.952 0.916918 3.80405 0
M  V30 3454 H 331.575 -0.795655 3.89558 0
M  V30 3455 N 332.573 -1.56217 0.208337 0
M  V30 3456 C 333.821 -1.97558 -0.426076 0
M  V30 3457 C 334.142 -1.09683 -1.61229 0
M  V30 3458 O 333.412 -0.170956 -1.95153 0
M  V30 3459 H 331.992 -0.729575 -0.160405 0
M  V30 3460 H 334.654 -1.92606 0.298155 0
M  V30 3461 H 333.75 -3.02672 -0.761312 0
M  V30 3462 N 334.051 0.0651679 -1.57465 0
M  V30 3463 C 334.999 1.09542 -2.05191 0
M  V30 3464 C 335.993 1.39675 -0.958509 0
M  V30 3465 O 337.199 1.39003 -1.14359 0
M  V30 3466 H 333.574 0.370623 -0.654326 0
M  V30 3467 H 335.545 0.666802 -2.90854 0
M  V30 3468 C 334.294 2.39881 -2.51699 0
M  V30 3469 H 333.617 2.17547 -3.3543 0
M  V30 3470 H 335.057 3.104 -2.88839 0
M  V30 3471 C 333.516 3.0631 -1.40271 0
M  V30 3472 O 334.046 3.94664 -0.748523 0
M  V30 3473 N 332.252 2.67041 -1.14618 0
M  V30 3474 H 331.799 1.95281 -1.67997 0
M  V30 3475 H 331.757 3.1181 -0.402688 0
M  V30 3476 N 335.529 1.53961 0.336706 0
M  V30 3477 C 336.94 1.62914 0.911925 0
M  V30 3478 C 337.291 0.514795 1.89326 0
M  V30 3479 O 336.416 -0.354395 2.13478 0
M  V30 3480 C 337.011 2.95304 1.66076 0
M  V30 3481 C 335.57 3.06496 2.18489 0
M  V30 3482 C 334.717 2.58403 1.00613 0
M  V30 3483 H 337.668 1.58285 0.114649 0
M  V30 3484 H 337.689 2.84727 2.5241 0
M  V30 3485 H 337.201 3.76387 0.946276 0
M  V30 3486 H 335.302 2.3006 2.93092 0
M  V30 3487 H 335.415 4.1208 2.44391 0
M  V30 3488 H 333.779 2.13977 1.38152 0
M  V30 3489 H 334.562 3.41932 0.306179 0
M  V30 3490 N 337.007 -0.598083 1.45811 0
M  V30 3491 C 338.284 -1.35777 1.40797 0
M  V30 3492 C 338.664 -2.10935 0.083462 0
M  V30 3493 O 338.012 -2.08505 -0.934763 0
M  V30 3494 C 338.222 -2.29666 2.62783 0
M  V30 3495 C 339.57 -2.91977 3.08277 0
M  V30 3496 O 340.594 -2.39984 2.63223 0
M  V30 3497 O 339.453 -3.86376 3.86491 0
M  V30 3498 H 336.547 -0.609291 0.55919 0
M  V30 3499 H 339.093 -0.620379 1.57954 0
M  V30 3500 H 337.865 -1.73454 3.50756 0
M  V30 3501 H 337.488 -3.1077 2.48008 0
M  V30 3502 N 338.485 -1.33259 -0.841409 0
M  V30 3503 C 339.896 -1.22066 -1.41269 0
M  V30 3504 C 340.247 0.161479 -1.95534 0
M  V30 3505 O 339.372 1.06094 -1.88608 0
M  V30 3506 C 339.967 -2.20996 -2.568 0
M  V30 3507 C 338.526 -2.13649 -3.09888 0
M  V30 3508 C 337.673 -2.08623 -1.82679 0
M  V30 3509 H 340.624 -1.44895 -0.647395 0
M  V30 3510 H 340.645 -1.81621 -3.34356 0
M  V30 3511 H 340.157 -3.2158 -2.17274 0
M  V30 3512 H 338.258 -1.16359 -3.53965 0
M  V30 3513 H 338.371 -3.04079 -3.70234 0
M  V30 3514 H 336.735 -1.54061 -2.02824 0
M  V30 3515 H 337.518 -3.1101 -1.45353 0
M  V30 3516 N 339.963 1.05934 -1.16686 0
M  V30 3517 C 341.209 1.79065 -0.95203 0
M  V30 3518 C 341.542 1.87147 0.518629 0
M  V30 3519 O 340.817 1.36574 1.38484 0
M  V30 3520 C 341.1 3.23359 -1.58464 0
M  V30 3521 C 340.953 3.23336 -3.12689 0
M  V30 3522 C 342.272 4.21004 -1.28232 0
M  V30 3523 H 339.391 0.65005 -0.34728 0
M  V30 3524 H 342.033 1.23868 -1.44072 0
M  V30 3525 H 340.183 3.70493 -1.16908 0
M  V30 3526 H 341.855 2.84336 -3.6325 0
M  V30 3527 H 340.098 2.61886 -3.4583 0
M  V30 3528 H 340.769 4.25144 -3.52075 0
M  V30 3529 H 343.245 3.8233 -1.64203 0
M  V30 3530 H 342.121 5.20225 -1.75092 0
M  V30 3531 H 342.382 4.41639 -0.201791 0
M  V30 3532 N 341.441 0.965919 1.2453 0
M  V30 3533 C 342.404 0.499547 2.2369 0
M  V30 3534 C 343.404 -0.40294 1.5567 0
M  V30 3535 O 344.594 -0.19865 1.73064 0
M  V30 3536 C 341.726 -0.276792 3.39774 0
M  V30 3537 H 342.919 1.37613 2.66463 0
M  V30 3538 H 340.472 0.750324 1.37112 0
M  V30 3539 H 341.207 -1.17055 3.02438 0
M  V30 3540 H 340.992 0.370826 3.90343 0
M  V30 3541 H 342.482 -0.592175 4.1338 0
M  V30 3542 N 342.919 -1.39368 0.735821 0
M  V30 3543 C 343.882 -2.2896 0.104874 0
M  V30 3544 C 344.882 -1.46347 -0.666274 0
M  V30 3545 O 346.072 -1.67014 -0.49517 0
M  V30 3546 C 343.204 -3.29857 -0.860656 0
M  V30 3547 H 344.397 -2.86259 0.894205 0
M  V30 3548 H 341.95 -1.48029 0.501704 0
M  V30 3549 H 342.685 -2.77615 -1.67631 0
M  V30 3550 H 342.47 -3.9087 -0.310327 0
M  V30 3551 H 343.96 -3.96893 -1.29867 0
M  V30 3552 N 344.397 -0.483516 -1.5 0
M  V30 3553 C 345.36 0.292965 -2.2732 0
M  V30 3554 C 346.36 0.909499 -1.32608 0
M  V30 3555 O 347.55 0.776745 -1.55924 0
M  V30 3556 C 344.682 1.41854 -3.09984 0
M  V30 3557 H 345.875 -0.385289 -2.97415 0
M  V30 3558 H 343.428 -0.237942 -1.54478 0
M  V30 3559 H 344.163 2.13148 -2.44414 0
M  V30 3560 H 343.948 0.982114 -3.79601 0
M  V30 3561 H 345.438 1.96597 -3.68429 0
M  V30 3562 N 345.875 1.56104 -0.216619 0
M  V30 3563 C 347.291 1.58995 0.13886 0
M  V30 3564 C 347.491 1.23333 1.59346 0
M  V30 3565 O 346.547 0.966234 2.33281 0
M  V30 3566 C 347.86 3.00143 -0.182968 0
M  V30 3567 C 349.408 3.12751 -0.124807 0
M  V30 3568 C 349.883 4.56068 -0.420241 0
M  V30 3569 N 351.374 4.61723 -0.369634 0
M  V30 3570 C 352.109 5.70542 -0.571789 0
M  V30 3571 N 351.605 6.87744 -0.835453 0
M  V30 3572 N 353.398 5.59831 -0.504563 0
M  V30 3573 H 345.549 1.77562 -1.16557 0
M  V30 3574 H 347.812 0.825091 -0.466828 0
M  V30 3575 H 347.518 3.30871 -1.19237 0
M  V30 3576 H 347.392 3.73813 0.504367 0
M  V30 3577 H 349.779 2.81822 0.875223 0
M  V30 3578 H 349.86 2.41421 -0.845544 0
M  V30 3579 H 349.504 4.87713 -1.41769 0
M  V30 3580 H 349.434 5.25617 0.321631 0
M  V30 3581 H 351.925 3.77502 -0.173338 0
M  V30 3582 H 352.238 7.66587 -0.977938 0
M  V30 3583 H 350.583 6.895 -0.872592 0
M  V30 3584 H 353.774 4.67145 -0.298842 0
M  V30 3585 H 353.947 6.44573 -0.665519 0
M  V30 3586 N 347.353 -0.0568162 1.57498 0
M  V30 3587 C 348.63 -0.786954 1.79071 0
M  V30 3588 C 349.01 -1.95028 0.80792 0
M  V30 3589 O 348.358 -2.27968 -0.155858 0
M  V30 3590 C 348.568 -1.24594 3.26002 0
M  V30 3591 C 349.916 -1.67323 3.90241 0
M  V30 3592 O 350.94 -1.34124 3.29984 0
M  V30 3593 O 349.799 -2.28842 4.9628 0
M  V30 3594 H 346.893 -0.378262 0.735423 0
M  V30 3595 H 349.439 -0.035734 1.69662 0
M  V30 3596 H 348.211 -0.41423 3.89101 0
M  V30 3597 H 347.834 -2.05803 3.40192 0
M  V30 3598 N 348.832 -1.54138 -0.328536 0
M  V30 3599 C 350.081 -1.71318 -1.06456 0
M  V30 3600 C 350.394 -0.491109 -1.89334 0
M  V30 3601 O 351.6 -0.54416 -2.65991 0
M  V30 3602 C 350.056 -3.03 -1.94214 0
M  V30 3603 C 349.664 -4.32595 -1.16471 0
M  V30 3604 C 351.408 -3.29544 -2.67583 0
M  V30 3605 C 349.315 -5.55341 -2.03347 0
M  V30 3606 H 348.245 -0.638429 -0.401155 0
M  V30 3607 H 350.896 -1.80633 -0.323106 0
M  V30 3608 H 349.278 -2.87579 -2.72239 0
M  V30 3609 H 350.452 -4.58766 -0.432525 0
M  V30 3610 H 348.767 -4.12777 -0.548063 0
M  V30 3611 H 351.364 -4.18444 -3.3288 0
M  V30 3612 H 351.707 -2.47206 -3.34955 0
M  V30 3613 H 352.24 -3.45809 -1.96623 0
M  V30 3614 H 348.979 -6.40268 -1.40491 0
M  V30 3615 H 348.499 -5.33397 -2.74313 0
M  V30 3616 H 350.178 -5.91557 -2.62049 0
M  V30 3617 N 350.31 0.590341 -1.46126 0
M  V30 3618 C 351.726 0.912917 -1.30912 0
M  V30 3619 C 351.926 1.99616 -0.274893 0
M  V30 3620 O 350.982 2.50397 0.325197 0
M  V30 3621 C 352.295 1.3375 -2.69317 0
M  V30 3622 C 353.843 1.45077 -2.77348 0
M  V30 3623 C 354.318 1.90904 -4.16317 0
M  V30 3624 N 355.809 1.9811 -4.18696 0
M  V30 3625 C 356.544 2.34828 -5.23109 0
M  V30 3626 N 356.04 2.70393 -6.37856 0
M  V30 3627 N 357.833 2.35317 -5.10473 0
M  V30 3628 H 349.984 -0.125358 -2.1203 0
M  V30 3629 H 352.247 0.00658481 -0.947977 0
M  V30 3630 H 351.953 0.615614 -3.4627 0
M  V30 3631 H 351.827 2.30058 -2.9892 0
M  V30 3632 H 354.214 2.16353 -2.00687 0
M  V30 3633 H 354.295 0.4704 -2.51438 0
M  V30 3634 H 353.939 1.20209 -4.9347 0
M  V30 3635 H 353.869 2.89886 -4.39629 0
M  V30 3636 H 356.36 1.73146 -3.359 0
M  V30 3637 H 356.673 2.97341 -7.13308 0
M  V30 3638 H 355.018 2.68048 -6.41229 0
M  V30 3639 H 358.209 2.0695 -4.19868 0
M  V30 3640 H 358.382 2.63605 -5.9196 0
M  V30 3641 N 351.788 1.33704 0.83433 0
M  V30 3642 C 353.065 1.16011 1.57483 0
M  V30 3643 C 353.445 -0.27176 2.09343 0
M  V30 3644 O 352.793 -1.27146 1.89858 0
M  V30 3645 C 353.003 2.20507 2.70514 0
M  V30 3646 C 354.351 2.54898 3.39577 0
M  V30 3647 O 355.375 2.19209 2.80759 0
M  V30 3648 O 354.234 3.16158 4.45765 0
M  V30 3649 H 351.328 0.448992 0.694503 0
M  V30 3650 H 353.874 1.453 0.876691 0
M  V30 3651 H 352.646 3.16667 2.29865 0
M  V30 3652 H 352.269 1.92329 3.47987 0
M  V30 3653 N 353.266 -1.05314 1.17247 0
M  V30 3654 C 354.494 -1.81971 0.984593 0
M  V30 3655 C 354.909 -1.82929 -0.467166 0
M  V30 3656 O 354.266 -1.25564 -1.32438 0
M  V30 3657 C 354.317 -3.28143 1.51672 0
M  V30 3658 O 354.038 -3.27347 2.91163 0
M  V30 3659 C 355.539 -4.21493 1.37326 0
M  V30 3660 H 352.759 -0.573455 0.348411 0
M  V30 3661 H 355.303 -1.32808 1.55506 0
M  V30 3662 H 353.458 -3.74582 0.988302 0
M  V30 3663 H 353.872 -4.18824 3.15732 0
M  V30 3664 H 355.346 -5.22043 1.79375 0
M  V30 3665 H 355.823 -4.38031 0.320169 0
M  V30 3666 H 356.429 -3.80909 1.89178 0
M  V30 3667 N 354.744 -0.972509 -1.24016 0
M  V30 3668 C 355.991 -0.637034 -1.92219 0
M  V30 3669 C 356.319 0.828418 -1.75976 0
M  V30 3670 O 355.574 1.61206 -1.10955 0
M  V30 3671 C 355.873 -0.963694 -3.44162 0
M  V30 3672 C 355.539 -2.41807 -3.80579 0
M  V30 3673 C 354.201 -2.81556 -3.9023 0
M  V30 3674 C 356.553 -3.36172 -3.98293 0
M  V30 3675 C 353.881 -4.14702 -4.15017 0
M  V30 3676 C 356.233 -4.68952 -4.24578 0
M  V30 3677 C 354.897 -5.08472 -4.32449 0
M  V30 3678 H 354.167 -0.233107 -0.703379 0
M  V30 3679 H 356.814 -1.2249 -1.47202 0
M  V30 3680 H 355.119 -0.29365 -3.90698 0
M  V30 3681 H 356.816 -0.682449 -3.9515 0
M  V30 3682 H 353.406 -2.09988 -3.73635 0
M  V30 3683 H 357.59 -3.06644 -3.90234 0
M  V30 3684 H 352.846 -4.4494 -4.19331 0
M  V30 3685 H 357.02 -5.42037 -4.37229 0
M  V30 3686 H 354.647 -6.11665 -4.51409 0
M  V30 3687 N 356.222 1.38976 -0.743202 0
M  V30 3688 C 357.185 2.28901 -0.117014 0
M  V30 3689 C 358.185 1.46698 0.658503 0
M  V30 3690 O 359.375 1.67274 0.486305 0
M  V30 3691 C 356.507 3.30309 0.84315 0
M  V30 3692 H 357.7 2.8578 -0.909373 0
M  V30 3693 H 355.253 1.47761 -0.509547 0
M  V30 3694 H 355.988 2.785 1.66157 0
M  V30 3695 H 355.773 3.91029 0.289594 0
M  V30 3696 H 357.263 3.97577 1.2776 0
M  V30 3697 N 357.7 0.491464 1.49741 0
M  V30 3698 C 359.116 0.146835 1.58923 0
M  V30 3699 C 359.316 -1.34804 1.49767 0
M  V30 3700 O 358.372 -2.12317 1.36667 0
M  V30 3701 C 359.685 0.715157 2.92072 0
M  V30 3702 C 361.233 0.680407 3.05515 0
M  V30 3703 C 361.708 1.22663 4.41269 0
M  V30 3704 N 363.199 1.18691 4.47735 0
M  V30 3705 C 363.934 1.57984 5.51207 0
M  V30 3706 N 363.43 2.04824 6.6183 0
M  V30 3707 N 365.223 1.49459 5.41866 0
M  V30 3708 H 357.374 1.46347 1.53936 0
M  V30 3709 H 359.637 0.606453 0.728642 0
M  V30 3710 H 359.343 1.76317 3.04311 0
M  V30 3711 H 359.217 0.17018 3.76816 0
M  V30 3712 H 361.604 -0.358743 2.92911 0
M  V30 3713 H 361.685 1.26242 2.22478 0
M  V30 3714 H 361.329 2.26451 4.54623 0
M  V30 3715 H 361.259 0.620637 5.2293 0
M  V30 3716 H 363.75 0.843605 3.68364 0
M  V30 3717 H 364.063 2.32901 7.3687 0
M  V30 3718 H 362.408 2.08791 6.62896 0
M  V30 3719 H 365.599 1.12692 4.54333 0
M  V30 3720 H 365.772 1.80406 6.22381 0
M  V30 3721 N 359.178 -1.55987 0.224894 0
M  V30 3722 C 360.111 -2.16413 -0.723929 0
M  V30 3723 C 361.089 -1.10952 -1.18863 0
M  V30 3724 O 362.273 -1.39225 -1.27077 0
M  V30 3725 C 359.4 -2.74711 -1.98121 0
M  V30 3726 C 358.446 -3.9303 -1.6562 0
M  V30 3727 S 359.279 -5.29817 -0.778058 0
M  V30 3728 C 360.435 -5.91555 -2.04483 0
M  V30 3729 H 360.668 -2.96555 -0.210347 0
M  V30 3730 H 358.201 -1.54397 0.00955457 0
M  V30 3731 H 360.159 -3.08938 -2.70311 0
M  V30 3732 H 358.82 -1.94555 -2.46591 0
M  V30 3733 H 358.013 -4.32334 -2.59043 0
M  V30 3734 H 357.615 -3.59966 -1.01491 0
M  V30 3735 H 359.907 -6.07732 -2.99446 0
M  V30 3736 H 360.85 -6.87498 -1.69563 0
M  V30 3737 H 361.258 -5.20419 -2.18688 0
M  V30 3738 N 360.656 0.0484629 -1.57525 0
M  V30 3739 C 361.619 1.03956 -2.04269 0
M  V30 3740 C 362.619 1.30211 -0.943496 0
M  V30 3741 O 363.809 1.25539 -1.20771 0
M  V30 3742 C 360.941 2.37742 -2.44319 0
M  V30 3743 H 362.134 0.636182 -2.93075 0
M  V30 3744 H 359.687 0.294811 -1.53494 0
M  V30 3745 H 360.422 2.82866 -1.5861 0
M  V30 3746 H 360.207 2.20021 -3.24551 0
M  V30 3747 H 361.697 3.08936 -2.80978 0
M  V30 3748 N 362.134 1.5431 0.320358 0
M  V30 3749 C 363.067 1.78769 1.41834 0
M  V30 3750 C 364.045 0.63783 1.49568 0
M  V30 3751 O 365.229 0.875628 1.66928 0
M  V30 3752 C 362.356 1.90712 2.79905 0
M  V30 3753 C 361.402 3.13023 2.89687 0
M  V30 3754 S 362.235 4.71554 2.53766 0
M  V30 3755 C 363.391 4.86408 3.93902 0
M  V30 3756 H 363.624 2.71619 1.20874 0
M  V30 3757 H 361.157 1.45474 0.517377 0
M  V30 3758 H 363.115 1.98279 3.59438 0
M  V30 3759 H 361.776 0.988343 2.98145 0
M  V30 3760 H 360.969 3.18124 3.90913 0
M  V30 3761 H 360.571 3.03803 2.18128 0
M  V30 3762 H 362.863 4.69241 4.88691 0
M  V30 3763 H 363.806 5.88508 3.93782 0
M  V30 3764 H 364.214 4.14689 3.83005 0
M  V30 3765 N 363.613 -0.582584 1.46437 0
M  V30 3766 C 364.561 -1.71272 1.5738 0
M  V30 3767 C 365.555 -1.63524 0.44229 0
M  V30 3768 O 366.761 -1.69016 0.619166 0
M  V30 3769 H 363.136 -0.566273 0.494813 0
M  V30 3770 H 365.107 -1.59174 2.52401 0
M  V30 3771 C 363.856 -3.09658 1.58136 0
M  V30 3772 H 363.179 -3.16291 2.44541 0
M  V30 3773 H 364.619 -3.88494 1.69847 0
M  V30 3774 C 363.078 -3.3547 0.310026 0
M  V30 3775 O 363.608 -3.97199 -0.599683 0
M  V30 3776 N 361.814 -2.89925 0.197901 0
M  V30 3777 H 361.361 -2.39873 0.93909 0
M  V30 3778 H 361.319 -3.07568 -0.65185 0
M  V30 3779 N 365.091 -1.34144 -0.827227 0
M  V30 3780 C 366.368 -1.16844 -1.56865 0
M  V30 3781 C 366.748 0.260654 -2.09485 0
M  V30 3782 O 366.096 1.26138 -1.9053 0
M  V30 3783 C 366.306 -2.21939 -2.6934 0
M  V30 3784 C 367.654 -2.56695 -3.3822 0
M  V30 3785 O 368.678 -2.20695 -2.79593 0
M  V30 3786 O 367.537 -3.18518 -4.44082 0
M  V30 3787 H 364.631 -0.452669 -0.692112 0
M  V30 3788 H 367.177 -1.45763 -0.868973 0
M  V30 3789 H 365.949 -3.17882 -2.28182 0
M  V30 3790 H 365.572 -1.94172 -3.46962 0
M  V30 3791 N 366.569 1.04691 -1.17803 0
M  V30 3792 C 367.479 2.16057 -0.914151 0
M  V30 3793 C 368.495 1.73589 0.119503 0
M  V30 3794 O 369.671 2.01308 -0.0609468 0
M  V30 3795 C 366.736 3.4394 -0.436603 0
M  V30 3796 C 365.797 4.00825 -1.53746 0
M  V30 3797 C 365.03 5.22604 -1.0826 0
M  V30 3798 O 365.253 5.70367 0.0612244 0
M  V30 3799 O 364.187 5.7186 -1.87775 0
M  V30 3800 H 368.013 2.41169 -1.84584 0
M  V30 3801 H 365.598 1.1453 -0.959334 0
M  V30 3802 H 367.48 4.21024 -0.178057 0
M  V30 3803 H 366.155 3.20316 0.466869 0
M  V30 3804 H 365.062 3.25158 -1.84995 0
M  V30 3805 H 366.395 4.28778 -2.41683 0
M  V30 3806 N 368.047 0.979072 1.23499 0
M  V30 3807 C 368.957 0.526431 2.28617 0
M  V30 3808 C 369.973 -0.418126 1.68901 0
M  V30 3809 O 371.149 -0.288372 1.99325 0
M  V30 3810 C 368.214 -0.165235 3.46306 0
M  V30 3811 C 367.275 0.82056 4.21385 0
M  V30 3812 C 366.508 0.161807 5.33455 0
M  V30 3813 O 366.731 -1.04742 5.60701 0
M  V30 3814 O 365.665 0.859708 5.95729 0
M  V30 3815 H 369.491 1.4006 2.69475 0
M  V30 3816 H 367.076 0.746643 1.29405 0
M  V30 3817 H 368.958 -0.553287 4.17752 0
M  V30 3818 H 367.633 -1.01419 3.07402 0
M  V30 3819 H 366.54 1.25929 3.52268 0
M  V30 3820 H 367.873 1.63828 4.64135 0
M  V30 3821 N 369.525 -1.3858 0.750561 0
M  V30 3822 C 370.753 -2.04471 0.316098 0
M  V30 3823 C 371.168 -1.56606 -1.05452 0
M  V30 3824 O 370.525 -0.737784 -1.66922 0
M  V30 3825 C 370.576 -3.60025 0.326275 0
M  V30 3826 O 370.297 -4.06133 1.6428 0
M  V30 3827 C 371.798 -4.43131 -0.122429 0
M  V30 3828 H 369.018 -0.65717 0.135528 0
M  V30 3829 H 371.562 -1.77329 1.01857 0
M  V30 3830 H 369.717 -3.86014 -0.327431 0
M  V30 3831 H 370.131 -5.00547 1.56693 0
M  V30 3832 H 371.605 -5.51963 -0.0641473 0
M  V30 3833 H 372.082 -4.23333 -1.16988 0
M  V30 3834 H 372.688 -4.22323 0.50229 0
M  V30 3835 N 371.003 -0.499398 -1.49478 0
M  V30 3836 C 372.249 0.0457576 -2.02748 0
M  V30 3837 C 372.582 1.36793 -1.37846 0
M  V30 3838 O 371.857 1.87596 -0.513601 0
M  V30 3839 C 372.14 0.199986 -3.59544 0
M  V30 3840 C 371.993 -1.1452 -4.34977 0
M  V30 3841 C 373.312 0.94137 -4.29914 0
M  V30 3842 H 370.431 0.0151552 -0.736844 0
M  V30 3843 H 373.073 -0.650498 -1.78518 0
M  V30 3844 H 371.223 0.793007 -3.8032 0
M  V30 3845 H 372.895 -1.77697 -4.25701 0
M  V30 3846 H 371.138 -1.73488 -3.97598 0
M  V30 3847 H 371.809 -0.990607 -5.43039 0
M  V30 3848 H 374.285 0.43844 -4.13784 0
M  V30 3849 H 373.161 1.01812 -5.39375 0
M  V30 3850 H 373.422 1.98471 -3.95046 0
M  V30 3851 N 372.481 1.55866 -0.233164 0
M  V30 3852 C 373.444 2.1953 0.658715 0
M  V30 3853 C 374.444 1.16053 1.11303 0
M  V30 3854 O 375.634 1.41218 1.01996 0
M  V30 3855 C 372.766 2.82791 1.90373 0
M  V30 3856 H 373.959 2.99721 0.10347 0
M  V30 3857 H 371.512 1.56291 0.0164245 0
M  V30 3858 H 372.247 2.06501 2.50056 0
M  V30 3859 H 372.032 3.58578 1.58632 0
M  V30 3860 H 373.522 3.31556 2.53891 0
M  V30 3861 N 373.959 -0.0401083 1.57549 0
M  V30 3862 C 374.889 -1.04384 2.08869 0
M  V30 3863 C 375.87 -1.38407 0.988817 0
M  V30 3864 O 377.055 -1.47483 1.26342 0
M  V30 3865 C 374.185 -2.34808 2.55895 0
M  V30 3866 C 373.139 -2.15057 3.70047 0
M  V30 3867 C 372.465 -3.51145 4.03239 0
M  V30 3868 C 373.765 -1.54576 4.98902 0
M  V30 3869 H 375.459 -0.616666 2.92981 0
M  V30 3870 H 373.005 -0.295184 1.40942 0
M  V30 3871 H 374.958 -3.05346 2.90417 0
M  V30 3872 H 373.682 -2.79565 1.68853 0
M  V30 3873 H 372.341 -1.46954 3.35857 0
M  V30 3874 H 371.989 -3.93529 3.13279 0
M  V30 3875 H 371.689 -3.38758 4.80122 0
M  V30 3876 H 373.213 -4.23062 4.40285 0
M  V30 3877 H 374.627 -2.15017 5.31451 0
M  V30 3878 H 373.024 -1.52796 5.80322 0
M  V30 3879 H 374.094 -0.51039 4.82206 0
M  V30 3880 N 375.437 -1.54477 -0.31217 0
M  V30 3881 C 376.686 -1.72438 -1.04633 0
M  V30 3882 C 376.999 -0.511163 -1.88803 0
M  V30 3883 O 378.205 -0.572341 -2.65399 0
M  V30 3884 C 376.661 -3.05043 -1.9099 0
M  V30 3885 C 376.269 -4.33806 -1.11877 0
M  V30 3886 C 378.013 -3.32364 -2.64073 0
M  V30 3887 C 375.92 -5.57467 -1.97445 0
M  V30 3888 H 374.85 -0.642647 -0.394361 0
M  V30 3889 H 377.501 -1.80966 -0.303929 0
M  V30 3890 H 375.883 -2.90451 -2.69173 0
M  V30 3891 H 377.057 -4.59199 -0.383843 0
M  V30 3892 H 375.372 -4.13336 -0.504252 0
M  V30 3893 H 377.969 -4.21951 -3.28423 0
M  V30 3894 H 378.312 -2.50745 -3.32314 0
M  V30 3895 H 378.845 -3.47875 -1.92944 0
M  V30 3896 H 375.584 -6.41722 -1.33692 0
M  V30 3897 H 375.104 -5.36277 -2.6864 0
M  V30 3898 H 376.783 -5.94303 -2.5576 0
M  V30 3899 N 376.915 0.57481 -1.46744 0
M  V30 3900 C 377.878 1.66533 -1.57478 0
M  V30 3901 C 378.878 1.54338 -0.451263 0
M  V30 3902 O 380.068 1.58814 -0.715813 0
M  V30 3903 C 377.2 3.05999 -1.50259 0
M  V30 3904 H 378.393 1.58372 -2.54673 0
M  V30 3905 H 375.946 0.793301 -1.34672 0
M  V30 3906 H 376.681 3.19709 -0.543725 0
M  V30 3907 H 376.466 3.16259 -2.31781 0
M  V30 3908 H 377.956 3.8537 -1.60872 0
M  V30 3909 N 378.394 1.34581 0.820102 0
M  V30 3910 C 379.642 1.26845 1.57336 0
M  V30 3911 C 379.963 -0.160667 1.94337 0
M  V30 3912 O 379.233 -1.09396 1.6251 0
M  V30 3913 H 377.813 0.466514 0.583415 0
M  V30 3914 H 380.475 1.68526 0.979027 0
M  V30 3915 H 379.571 1.87513 2.4949 0
M  V30 3916 N 379.872 -1.04064 1.18357 0
M  V30 3917 C 381.12 -1.76915 0.977013 0
M  V30 3918 C 381.441 -1.88624 -0.494577 0
M  V30 3919 O 380.711 -1.41125 -1.3587 0
M  V30 3920 H 379.291 -0.65535 0.358504 0
M  V30 3921 H 381.953 -1.25592 1.49039 0
M  V30 3922 H 381.049 -2.78178 1.41504 0
M  V30 3923 N 381.35 -0.985608 -1.22978 0
M  V30 3924 C 382.3 -0.50118 -2.22423 0
M  V30 3925 C 383.284 0.426649 -1.5514 0
M  V30 3926 O 384.476 0.254656 -1.75159 0
M  V30 3927 C 381.605 0.190003 -3.42774 0
M  V30 3928 C 380.691 -0.757703 -4.17276 0
M  V30 3929 N 381.082 -1.90251 -4.68656 0
M  V30 3930 C 379.38 -0.57209 -4.42316 0
M  V30 3931 C 380.081 -2.49676 -5.25392 0
M  V30 3932 N 379.057 -1.78013 -5.13627 0
M  V30 3933 H 382.859 -1.37441 -2.59783 0
M  V30 3934 H 380.373 -0.846941 -1.38567 0
M  V30 3935 H 382.37 0.55439 -4.13197 0
M  V30 3936 H 381.03 1.05946 -3.06929 0
M  V30 3937 H 382.041 -2.28354 -4.64839 0
M  V30 3938 H 378.718 0.251909 -4.16739 0
M  V30 3939 H 380.108 -3.46384 -5.75732 0
M  V30 3940 N 382.828 1.3818 -0.7579 0
M  V30 3941 C 384.056 2.04301 -0.326937 0
M  V30 3942 C 384.471 1.57163 1.0462 0
M  V30 3943 O 383.828 0.746626 1.66529 0
M  V30 3944 C 383.879 3.59846 -0.345363 0
M  V30 3945 O 383.6 4.05256 -1.66432 0
M  V30 3946 C 385.101 4.4319 0.098927 0
M  V30 3947 H 382.321 0.656443 -0.139012 0
M  V30 3948 H 384.865 1.76786 -1.02796 0
M  V30 3949 H 383.02 3.86182 0.306955 0
M  V30 3950 H 383.434 4.99709 -1.59345 0
M  V30 3951 H 384.908 5.51989 0.0348745 0
M  V30 3952 H 385.385 4.23947 1.14741 0
M  V30 3953 H 385.991 4.22051 -0.52468 0
M  V30 3954 N 384.306 0.507319 1.49211 0
M  V30 3955 C 385.553 -0.0349529 2.0247 0
M  V30 3956 C 385.881 -1.36409 1.38647 0
M  V30 3957 O 385.136 -1.88841 0.513566 0
M  V30 3958 C 385.435 -0.229513 3.56662 0
M  V30 3959 C 385.101 1.02241 4.39156 0
M  V30 3960 C 383.763 1.36557 4.61417 0
M  V30 3961 C 386.115 1.85428 4.871 0
M  V30 3962 C 383.443 2.53999 5.28868 0
M  V30 3963 C 385.795 3.02028 5.55843 0
M  V30 3964 C 384.459 3.36717 5.76349 0
M  V30 3965 H 383.729 -0.0127902 0.74089 0
M  V30 3966 H 386.376 0.668756 1.79443 0
M  V30 3967 H 384.681 -1.0158 3.78403 0
M  V30 3968 H 386.378 -0.663641 3.9547 0
M  V30 3969 H 382.968 0.745124 4.22073 0
M  V30 3970 H 387.152 1.6023 4.69723 0
M  V30 3971 H 382.408 2.81105 5.42946 0
M  V30 3972 H 386.582 3.66808 5.91967 0
M  V30 3973 H 384.209 4.27821 6.28389 0
M  V30 3974 N 385.784 -1.5574 0.241426 0
M  V30 3975 C 387.032 -1.98417 -0.384075 0
M  V30 3976 C 387.353 -1.13078 -1.58866 0
M  V30 3977 O 386.623 -0.212312 -1.94746 0
M  V30 3978 H 385.203 -0.732813 -0.144894 0
M  V30 3979 H 387.865 -1.9193 0.338943 0
M  V30 3980 H 386.961 -3.04219 -0.696939 0
M  V30 3981 N 387.262 0.0317525 -1.57568 0
M  V30 3982 C 388.209 1.0332 -2.06382 0
M  V30 3983 C 389.179 1.36082 -0.952414 0
M  V30 3984 O 390.364 1.46466 -1.2228 0
M  V30 3985 C 387.504 2.32989 -2.54578 0
M  V30 3986 C 386.617 2.0641 -3.79498 0
M  V30 3987 C 385.752 3.2993 -4.16317 0
M  V30 3988 C 384.791 2.98893 -5.34162 0
M  V30 3989 N 383.928 4.14857 -5.66426 0
M  V30 3990 H 388.768 0.609982 -2.9169 0
M  V30 3991 H 386.305 0.289573 -1.44222 0
M  V30 3992 H 388.263 3.0875 -2.80587 0
M  V30 3993 H 386.893 2.73039 -1.7219 0
M  V30 3994 H 385.945 1.21158 -3.6059 0
M  V30 3995 H 387.257 1.79513 -4.65378 0
M  V30 3996 H 386.411 4.1406 -4.4344 0
M  V30 3997 H 385.15 3.59938 -3.29083 0
M  V30 3998 H 384.155 2.13164 -5.06795 0
M  V30 3999 H 385.38 2.70165 -6.23047 0
M  V30 4000 H 383.326 4.44821 -4.82151 0
M  V30 4001 H 383.243 3.91374 -6.4681 0
M  V30 4002 H 384.511 4.99868 -5.98124 0
M  V30 4003 N 388.74 1.54641 0.303973 0
M  V30 4004 C 389.968 1.77768 1.05858 0
M  V30 4005 C 390.383 0.535722 1.8104 0
M  V30 4006 O 389.74 -0.494337 1.75677 0
M  V30 4007 C 389.791 2.9834 2.04146 0
M  V30 4008 O 389.512 4.17736 1.32015 0
M  V30 4009 C 391.013 3.33832 2.91669 0
M  V30 4010 H 388.233 0.592961 0.314067 0
M  V30 4011 H 390.777 2.01583 0.344149 0
M  V30 4012 H 388.932 2.76742 2.71096 0
M  V30 4013 H 389.346 4.85693 1.97998 0
M  V30 4014 H 390.82 4.21448 3.56491 0
M  V30 4015 H 391.297 2.51857 3.59812 0
M  V30 4016 H 391.903 3.57579 2.30254 0
M  V30 4017 N 390.218 -0.567019 1.47046 0
M  V30 4018 C 391.168 -1.67018 1.55207 0
M  V30 4019 C 392.152 -1.55543 0.411714 0
M  V30 4020 O 393.344 -1.64192 0.661064 0
M  V30 4021 C 390.473 -3.05801 1.56014 0
M  V30 4022 C 389.559 -3.22515 2.75399 0
M  V30 4023 N 389.95 -3.09329 4.00186 0
M  V30 4024 C 388.248 -3.53493 2.71954 0
M  V30 4025 C 388.949 -3.2847 4.80086 0
M  V30 4026 N 387.925 -3.54352 4.12233 0
M  V30 4027 H 391.727 -1.55377 2.4947 0
M  V30 4028 H 389.241 -0.771503 1.42904 0
M  V30 4029 H 391.238 -3.84996 1.59949 0
M  V30 4030 H 389.898 -3.18561 0.628396 0
M  V30 4031 H 390.909 -2.86863 4.31196 0
M  V30 4032 H 387.586 -3.7284 1.87873 0
M  V30 4033 H 388.976 -3.23326 5.88991 0
M  V30 4034 N 391.696 -1.35014 -0.812953 0
M  V30 4035 C 392.944 -1.27678 -1.56661 0
M  V30 4036 C 393.265 0.150359 -1.94419 0
M  V30 4037 O 392.535 1.08532 -1.63088 0
M  V30 4038 H 391.115 -0.469602 -0.580933 0
M  V30 4039 H 393.777 -1.69043 -0.970076 0
M  V30 4040 H 392.873 -1.88833 -2.48492 0
M  V30 4041 N 393.175 1.03435 -1.18907 0
M  V30 4042 C 394.138 2.09756 -0.923844 0
M  V30 4043 C 395.138 1.60528 0.093416 0
M  V30 4044 O 396.328 1.73631 -0.140727 0
M  V30 4045 C 393.46 3.38692 -0.387354 0
M  V30 4046 H 394.653 2.34719 -1.86674 0
M  V30 4047 H 392.206 1.19959 -1.00197 0
M  V30 4048 H 392.941 3.19396 0.561845 0
M  V30 4049 H 392.726 3.75742 -1.12074 0
M  V30 4050 H 394.216 4.17016 -0.220694 0
M  V30 4051 N 394.653 0.992116 1.22453 0
M  V30 4052 C 395.901 0.666215 1.90804 0
M  V30 4053 C 396.222 -0.804152 1.77647 0
M  V30 4054 O 395.492 -1.57629 1.16318 0
M  V30 4055 H 394.072 0.243423 0.706225 0
M  V30 4056 H 396.734 1.25845 1.48825 0
M  V30 4057 H 395.83 0.928069 2.97982 0
M  V30 4058 N 396.131 -1.37776 0.765217 0
M  V30 4059 C 397.542 -1.82521 0.392819 0
M  V30 4060 C 397.893 -1.63789 -1.08017 0
M  V30 4061 O 397.018 -1.14542 -1.83601 0
M  V30 4062 C 397.613 -3.31358 0.706214 0
M  V30 4063 C 396.172 -3.74406 0.386952 0
M  V30 4064 C 395.319 -2.60394 0.953422 0
M  V30 4065 H 398.27 -1.2634 0.960412 0
M  V30 4066 H 398.291 -3.80498 -0.0114706 0
M  V30 4067 H 397.803 -3.44959 1.77833 0
M  V30 4068 H 395.904 -3.66377 -0.678112 0
M  V30 4069 H 396.017 -4.70749 0.890636 0
M  V30 4070 H 394.381 -2.51878 0.378064 0
M  V30 4071 H 395.164 -2.76791 2.03081 0
M  V30 4072 N 397.609 -0.515225 -1.4894 0
M  V30 4073 C 398.572 0.244681 -2.2789 0
M  V30 4074 C 399.572 0.881166 -1.34507 0
M  V30 4075 O 400.762 0.743497 -1.57537 0
M  V30 4076 C 397.894 1.35247 -3.12923 0
M  V30 4077 H 399.087 -0.448289 -2.96531 0
M  V30 4078 H 396.64 -0.270656 -1.53939 0
M  V30 4079 H 397.375 2.07916 -2.48881 0
M  V30 4080 H 397.16 0.901374 -3.81599 0
M  V30 4081 H 398.65 1.88737 -3.72516 0
M  V30 4082 N 399.087 1.5561 -0.249682 0
M  V30 4083 C 400.312 2.03865 0.381305 0
M  V30 4084 C 400.737 1.12769 1.50548 0
M  V30 4085 O 400.095 0.121189 1.80895 0
M  V30 4086 C 400.143 3.50101 0.863816 0
M  V30 4087 O 399.247 3.62132 1.97318 0
M  V30 4088 H 398.588 0.658827 0.0827194 0
M  V30 4089 H 401.118 2.01105 -0.376552 0
M  V30 4090 H 401.128 3.90975 1.1663 0
M  V30 4091 H 399.803 4.1588 0.0411816 0
M  V30 4092 H 398.38 3.33155 1.67517 0
M  V30 4093 N 400.565 -0.0233959 1.57583 0
M  V30 4094 C 401.513 -1.04063 2.08023 0
M  V30 4095 C 402.507 -1.37084 0.995204 0
M  V30 4096 O 403.713 -1.35923 1.18004 0
M  V30 4097 H 400.088 -0.353144 0.663922 0
M  V30 4098 H 402.059 -0.589453 2.9252 0
M  V30 4099 C 400.808 -2.33123 2.57971 0
M  V30 4100 H 400.131 -2.08577 3.4108 0
M  V30 4101 H 401.571 -3.02632 2.96967 0
M  V30 4102 C 400.03 -3.02483 1.48342 0
M  V30 4103 O 400.56 -3.92541 0.852898 0
M  V30 4104 N 398.766 -2.63909 1.21658 0
M  V30 4105 H 398.313 -1.90758 1.73116 0
M  V30 4106 H 398.271 -3.10633 0.485218 0
M  V30 4107 N 402.043 -1.548 -0.295768 0
M  V30 4108 C 403.289 -1.74588 -1.03184 0
M  V30 4109 C 403.622 -0.532962 -1.86744 0
M  V30 4110 O 402.897 0.469872 -1.88739 0
M  V30 4111 C 403.18 -3.03791 -1.93347 0
M  V30 4112 C 403.033 -4.35392 -1.12933 0
M  V30 4113 C 404.352 -3.28892 -2.92435 0
M  V30 4114 H 401.471 -0.635221 -0.373715 0
M  V30 4115 H 404.113 -1.87519 -0.30606 0
M  V30 4116 H 402.263 -2.92898 -2.55232 0
M  V30 4117 H 403.935 -4.58211 -0.532943 0
M  V30 4118 H 402.178 -4.31642 -0.432168 0
M  V30 4119 H 402.849 -5.22074 -1.79284 0
M  V30 4120 H 405.325 -3.39429 -2.4068 0
M  V30 4121 H 404.201 -4.20603 -3.52682 0
M  V30 4122 H 404.462 -2.47437 -3.6637 0
M  V30 4123 N 403.521 0.559213 -1.47345 0
M  V30 4124 C 404.769 1.31388 -1.53563 0
M  V30 4125 C 405.09 1.93985 -0.198678 0
M  V30 4126 O 404.36 1.79825 0.777167 0
M  V30 4127 H 402.94 0.487901 -0.565652 0
M  V30 4128 H 405.602 0.65315 -1.8363 0
M  V30 4129 H 404.698 2.10844 -2.30111 0
M  V30 4130 N 404.999 1.35443 0.805782 0
M  V30 4131 C 405.962 1.28301 1.89925 0
M  V30 4132 C 406.962 0.194285 1.59622 0
M  V30 4133 O 408.152 0.448036 1.6834 0
M  V30 4134 C 405.284 0.984997 3.2636 0
M  V30 4135 H 406.477 2.2553 1.97677 0
M  V30 4136 H 404.03 1.19979 1.00173 0
M  V30 4137 H 404.765 0.016603 3.24296 0
M  V30 4138 H 404.55 1.77269 3.4974 0
M  V30 4139 H 406.04 0.960651 4.064 0
M  V30 4140 N 406.477 -1.02803 1.19454 0
M  V30 4141 C 407.387 -2.14575 0.948408 0
M  V30 4142 C 408.403 -1.73757 -0.091871 0
M  V30 4143 O 409.579 -2.01185 0.0929654 0
M  V30 4144 C 406.644 -3.43202 0.491265 0
M  V30 4145 C 405.705 -3.98328 1.60103 0
M  V30 4146 C 404.938 -5.20816 1.16561 0
M  V30 4147 O 405.161 -5.70392 0.0295238 0
M  V30 4148 O 404.095 -5.68801 1.96849 0
M  V30 4149 H 407.921 -2.38202 1.88397 0
M  V30 4150 H 405.506 -1.12989 0.977433 0
M  V30 4151 H 407.388 -4.20687 0.245015 0
M  V30 4152 H 406.063 -3.21018 -0.415851 0
M  V30 4153 H 404.97 -3.22174 1.90144 0
M  V30 4154 H 406.303 -4.24879 2.48473 0
M  V30 4155 N 407.956 -0.998596 -1.21925 0
M  V30 4156 C 409.367 -0.711939 -1.72593 0
M  V30 4157 C 409.718 0.770842 -1.80423 0
M  V30 4158 O 408.843 1.60237 -1.4544 0
M  V30 4159 C 409.438 -1.28567 -3.13458 0
M  V30 4160 C 407.997 -1.04828 -3.61508 0
M  V30 4161 C 407.144 -1.4024 -2.39224 0
M  V30 4162 H 410.095 -1.17027 -1.07193 0
M  V30 4163 H 410.116 -0.667098 -3.74607 0
M  V30 4164 H 409.628 -2.36486 -3.07727 0
M  V30 4165 H 407.729 0.0140383 -3.72597 0
M  V30 4166 H 407.842 -1.71566 -4.47328 0
M  V30 4167 H 406.206 -0.821077 -2.41103 0
M  V30 4168 H 406.989 -2.49176 -2.36149 0
M  V30 4169 N 409.434 1.37368 -0.772513 0
M  V30 4170 C 410.344 2.34053 -0.160081 0
M  V30 4171 C 411.36 1.60216 0.678728 0
M  V30 4172 O 412.536 1.92303 0.59847 0
M  V30 4173 C 409.601 3.3939 0.708182 0
M  V30 4174 C 408.662 4.29048 -0.147172 0
M  V30 4175 C 407.895 5.29354 0.679744 0
M  V30 4176 O 408.118 5.3723 1.91678 0
M  V30 4177 O 407.052 6.01835 0.0885444 0
M  V30 4178 H 410.878 2.88159 -0.959053 0
M  V30 4179 H 408.463 1.39543 -0.533685 0
M  V30 4180 H 410.345 4.03839 1.20384 0
M  V30 4181 H 409.02 2.8761 1.48533 0
M  V30 4182 H 407.927 3.67697 -0.689205 0
M  V30 4183 H 409.26 4.84134 -0.887423 0
M  V30 4184 N 410.912 0.523116 1.48665 0
M  V30 4185 C 411.875 -0.232592 2.28017 0
M  V30 4186 C 412.875 -0.874021 1.34972 0
M  V30 4187 O 414.065 -0.735132 1.57929 0
M  V30 4188 C 411.197 -1.33586 3.13636 0
M  V30 4189 H 412.39 0.464008 2.96289 0
M  V30 4190 H 409.943 0.278816 1.53793 0
M  V30 4191 H 410.678 -2.06593 2.4998 0
M  V30 4192 H 410.463 -0.881125 3.82071 0
M  V30 4193 H 411.953 -1.86759 3.73511 0
M  V30 4194 N 412.39 -1.55475 0.257931 0
M  V30 4195 C 413.353 -2.20551 -0.623706 0
M  V30 4196 C 414.353 -1.17809 -1.09443 0
M  V30 4197 O 415.543 -1.42823 -0.997362 0
M  V30 4198 C 412.675 -2.85784 -1.8585 0
M  V30 4199 H 413.868 -2.99848 -0.0557743 0
M  V30 4200 H 411.421 -1.56298 0.0084422 0
M  V30 4201 H 412.156 -2.10453 -2.46739 0
M  V30 4202 H 411.941 -3.61057 -1.52907 0
M  V30 4203 H 413.431 -3.35553 -2.48584 0
M  V30 4204 N 413.868 0.0150385 -1.57593 0
M  V30 4205 C 415.116 0.701613 -1.8953 0
M  V30 4206 C 415.437 1.75139 -0.857396 0
M  V30 4207 O 414.707 1.95607 0.107194 0
M  V30 4208 H 413.287 0.26213 -0.699498 0
M  V30 4209 H 415.949 -0.0223304 -1.94887 0
M  V30 4210 H 415.045 1.18236 -2.88837 0
M  V30 4211 N 415.346 1.54954 0.287554 0
M  V30 4212 C 416.595 1.74081 1.01877 0
M  V30 4213 C 416.908 0.541135 1.87966 0
M  V30 4214 O 418.114 0.614491 2.64455 0
M  V30 4215 C 416.57 3.08042 1.86113 0
M  V30 4216 C 416.178 4.35531 1.04961 0
M  V30 4217 C 417.922 3.36523 2.58752 0
M  V30 4218 C 415.829 5.60538 1.88551 0
M  V30 4219 H 414.759 0.64884 0.384087 0
M  V30 4220 H 417.41 1.81426 0.275101 0
M  V30 4221 H 415.792 2.94696 2.64519 0
M  V30 4222 H 416.966 4.59751 0.31074 0
M  V30 4223 H 415.281 4.14085 0.43843 0
M  V30 4224 H 417.878 4.27122 3.21668 0
M  V30 4225 H 418.221 2.56 3.28283 0
M  V30 4226 H 418.754 3.50901 1.87386 0
M  V30 4227 H 415.493 6.43767 1.23466 0
M  V30 4228 H 415.013 5.40483 2.60074 0
M  V30 4229 H 416.692 5.98297 2.46273 0
M  V30 4230 N 416.824 -0.551391 1.4764 0
M  V30 4231 C 417.734 -1.68525 1.63207 0
M  V30 4232 C 418.75 -1.6621 0.514815 0
M  V30 4233 O 419.926 -1.85551 0.783113 0
M  V30 4234 C 416.991 -3.05025 1.64805 0
M  V30 4235 C 416.052 -3.18362 2.88 0
M  V30 4236 C 415.285 -4.4835 2.89513 0
M  V30 4237 O 415.508 -5.34163 2.00065 0
M  V30 4238 O 414.442 -4.65602 3.81443 0
M  V30 4239 H 418.268 -1.58333 2.59161 0
M  V30 4240 H 415.853 -0.722063 1.30792 0
M  V30 4241 H 417.735 -3.86245 1.68502 0
M  V30 4242 H 416.41 -3.15587 0.720197 0
M  V30 4243 H 415.317 -2.36518 2.89845 0
M  V30 4244 H 416.65 -3.12707 3.80099 0
M  V30 4245 N 418.302 -1.35869 -0.798587 0
M  V30 4246 C 419.265 -1.29307 -1.89242 0
M  V30 4247 C 420.265 -0.202747 -1.59517 0
M  V30 4248 O 421.455 -0.456957 -1.681 0
M  V30 4249 C 418.587 -1.00229 -3.25833 0
M  V30 4250 H 419.78 -2.26576 -1.96478 0
M  V30 4251 H 417.333 -1.20509 -0.995358 0
M  V30 4252 H 418.068 -0.033801 -3.24282 0
M  V30 4253 H 417.853 -1.79121 -3.48795 0
M  V30 4254 H 419.343 -0.98219 -4.05885 0
M  V30 4255 N 419.78 1.02168 -1.19998 0
M  V30 4256 C 420.712 2.10705 -0.901994 0
M  V30 4257 C 421.725 1.6244 0.108216 0
M  V30 4258 O 422.914 1.78082 -0.12214 0
M  V30 4259 C 420.014 3.37291 -0.329834 0
M  V30 4260 C 419.187 4.14714 -1.39035 0
M  V30 4261 C 418.246 5.19606 -0.830432 0
M  V30 4262 O 417.272 5.48809 -1.50989 0
M  V30 4263 N 418.474 5.79366 0.362696 0
M  V30 4264 H 421.239 2.36856 -1.83628 0
M  V30 4265 H 418.8 1.18518 -1.10296 0
M  V30 4266 H 420.792 4.04657 0.0587633 0
M  V30 4267 H 419.362 3.0843 0.508891 0
M  V30 4268 H 418.582 3.42392 -1.9535 0
M  V30 4269 H 419.87 4.63226 -2.10474 0
M  V30 4270 H 419.268 5.57968 0.932081 0
M  V30 4271 H 417.825 6.48106 0.69299 0
M  V30 4272 N 421.258 1.00505 1.21394 0
M  V30 4273 C 422.506 0.686415 1.90086 0
M  V30 4274 C 422.827 -0.785264 1.7849 0
M  V30 4275 O 422.097 -1.56387 1.17983 0
M  V30 4276 H 420.677 0.2509 0.703604 0
M  V30 4277 H 423.339 1.27417 1.47482 0
M  V30 4278 H 422.435 0.959621 2.96981 0
M  V30 4279 N 422.737 -1.36956 0.779787 0
M  V30 4280 C 423.667 -2.32761 0.185651 0
M  V30 4281 C 424.648 -1.56177 -0.673989 0
M  V30 4282 O 425.833 -1.84378 -0.609797 0
M  V30 4283 C 422.963 -3.40418 -0.687964 0
M  V30 4284 C 421.917 -4.27941 0.0710102 0
M  V30 4285 C 421.243 -5.26681 -0.922573 0
M  V30 4286 C 422.543 -5.07006 1.25467 0
M  V30 4287 H 424.237 -2.82698 0.986008 0
M  V30 4288 H 421.783 -1.3592 0.475592 0
M  V30 4289 H 423.736 -4.06423 -1.11348 0
M  V30 4290 H 422.46 -2.89025 -1.52093 0
M  V30 4291 H 421.119 -3.63478 0.47739 0
M  V30 4292 H 420.767 -4.71565 -1.7503 0
M  V30 4293 H 420.467 -5.86103 -0.419237 0
M  V30 4294 H 421.991 -5.9556 -1.34686 0
M  V30 4295 H 423.405 -5.66105 0.905401 0
M  V30 4296 H 421.802 -5.75793 1.69063 0
M  V30 4297 H 422.872 -4.3921 2.05481 0
M  V30 4298 N 424.215 -0.530993 -1.48385 0
M  V30 4299 C 425.463 0.00273189 -2.021 0
M  V30 4300 C 425.784 1.34672 -1.41027 0
M  V30 4301 O 425.054 1.8724 -0.576012 0
M  V30 4302 H 423.634 0.00399774 -0.746989 0
M  V30 4303 H 426.296 -0.695054 -1.82085 0
M  V30 4304 H 425.392 0.11031 -3.11905 0
M  V30 4305 N 425.693 1.55336 -0.266172 0
M  V30 4306 C 426.939 2.00423 0.346714 0
M  V30 4307 C 427.294 1.15132 1.54151 0
M  V30 4308 O 426.587 0.211289 1.90431 0
M  V30 4309 C 426.781 3.48606 0.787957 0
M  V30 4310 C 426.61 4.48236 -0.362535 0
M  V30 4311 C 425.38 4.98211 -0.843445 0
M  V30 4312 C 427.578 5.00199 -1.19603 0
M  V30 4313 N 425.56 5.81625 -1.96434 0
M  V30 4314 C 426.931 5.80973 -2.16497 0
M  V30 4315 C 428.986 4.82458 -1.2304 0
M  V30 4316 C 427.689 6.45896 -3.1656 0
M  V30 4317 C 429.715 5.48174 -2.21944 0
M  V30 4318 C 429.077 6.28751 -3.17571 0
M  V30 4319 H 425.176 0.776535 0.0922914 0
M  V30 4320 H 427.76 1.90792 -0.388154 0
M  V30 4321 H 425.931 3.58597 1.49207 0
M  V30 4322 H 427.663 3.80538 1.37742 0
M  V30 4323 H 424.418 4.71696 -0.424271 0
M  V30 4324 H 424.842 6.28025 -2.52813 0
M  V30 4325 H 429.484 4.19774 -0.504903 0
M  V30 4326 H 427.202 7.07734 -3.90048 0
M  V30 4327 H 430.788 5.36392 -2.25333 0
M  V30 4328 H 429.668 6.78703 -3.92851 0
M  V30 4329 N 427.171 -0.0066808 1.57599 0
M  V30 4330 C 428.118 -1.00024 2.08 0
M  V30 4331 C 429.088 -1.34549 0.973943 0
M  V30 4332 O 430.273 -1.44502 1.24595 0
M  V30 4333 C 427.413 -2.2891 2.58252 0
M  V30 4334 C 426.526 -2.00346 3.82734 0
M  V30 4335 C 425.661 -3.23265 4.21513 0
M  V30 4336 C 424.7 -2.90357 5.3885 0
M  V30 4337 N 423.837 -4.05793 5.72954 0
M  V30 4338 H 428.677 -0.563499 2.92624 0
M  V30 4339 H 426.214 -0.266592 1.44664 0
M  V30 4340 H 428.172 -3.04247 2.85464 0
M  V30 4341 H 426.802 -2.70265 1.76512 0
M  V30 4342 H 425.854 -1.15406 3.62471 0
M  V30 4343 H 427.166 -1.72086 4.68175 0
M  V30 4344 H 426.32 -4.06953 4.49971 0
M  V30 4345 H 425.059 -3.54657 3.34768 0
M  V30 4346 H 424.064 -2.05075 5.10122 0
M  V30 4347 H 425.289 -2.60219 6.27266 0
M  V30 4348 H 423.235 -4.37094 4.89167 0
M  V30 4349 H 423.152 -3.81034 6.52954 0
M  V30 4350 H 424.42 -4.90289 6.06001 0
M  V30 4351 N 428.649 -1.55105 -0.279332 0
M  V30 4352 C 429.874 -1.7976 -1.03446 0
M  V30 4353 C 430.299 -0.565952 -1.79384 0
M  V30 4354 O 429.657 0.484259 -1.74713 0
M  V30 4355 C 429.705 -3.0179 -1.97371 0
M  V30 4356 O 428.809 -2.76432 -3.06038 0
M  V30 4357 H 428.15 -0.594334 -0.29608 0
M  V30 4358 H 430.68 -2.02235 -0.310165 0
M  V30 4359 H 430.69 -3.30351 -2.39441 0
M  V30 4360 H 429.365 -3.91085 -1.4151 0
M  V30 4361 H 427.942 -2.58949 -2.68328 0
M  V30 4362 N 430.127 0.543554 -1.4793 0
M  V30 4363 C 431.09 1.63156 -1.60975 0
M  V30 4364 C 432.09 1.53346 -0.483899 0
M  V30 4365 O 433.28 1.5726 -0.749339 0
M  V30 4366 C 430.412 3.02743 -1.56716 0
M  V30 4367 H 431.605 1.52934 -2.57975 0
M  V30 4368 H 429.158 0.764557 -1.36324 0
M  V30 4369 H 429.893 3.18484 -0.611418 0
M  V30 4370 H 429.678 3.11272 -2.38438 0
M  V30 4371 H 431.168 3.81871 -1.6901 0
M  V30 4372 N 431.605 1.3629 0.791371 0
M  V30 4373 C 432.835 1.33368 1.57786 0
M  V30 4374 C 433.243 -0.0875188 1.88997 0
M  V30 4375 O 432.586 -1.05427 1.50435 0
M  V30 4376 C 432.648 2.08802 2.92646 0
M  V30 4377 C 432.312 3.57903 2.84174 0
M  V30 4378 C 433.309 4.52191 2.56553 0
M  V30 4379 C 430.994 4.00762 3.02812 0
M  V30 4380 C 432.988 5.87315 2.47669 0
M  V30 4381 C 430.675 5.35977 2.93551 0
M  V30 4382 C 431.673 6.29066 2.66017 0
M  V30 4383 O 431.361 7.61798 2.56746 0
M  V30 4384 H 431.093 0.459166 0.496128 0
M  V30 4385 H 433.647 1.79952 0.990269 0
M  V30 4386 H 431.877 1.56878 3.53449 0
M  V30 4387 H 433.566 1.98762 3.53904 0
M  V30 4388 H 434.332 4.20393 2.41858 0
M  V30 4389 H 430.211 3.2868 3.2325 0
M  V30 4390 H 433.755 6.59943 2.26099 0
M  V30 4391 H 429.652 5.67384 3.07808 0
M  V30 4392 H 430.42 7.71898 2.72242 0
M  V30 4393 N 433.083 -1.0153 1.20538 0
M  V30 4394 C 434.499 -1.27461 0.96051 0
M  V30 4395 C 434.699 -1.98273 -0.359193 0
M  V30 4396 O 433.755 -2.27886 -1.0874 0
M  V30 4397 C 435.068 -2.10837 2.14402 0
M  V30 4398 C 436.616 -2.24099 2.18515 0
M  V30 4399 C 437.091 -3.10852 3.36355 0
M  V30 4400 N 438.582 -3.18441 3.36377 0
M  V30 4401 C 439.317 -3.85795 4.24205 0
M  V30 4402 N 438.813 -4.55264 5.22213 0
M  V30 4403 N 440.606 -3.82331 4.12043 0
M  V30 4404 H 432.757 -0.539907 2.05423 0
M  V30 4405 H 435.02 -0.30092 0.898972 0
M  V30 4406 H 434.726 -1.66144 3.09983 0
M  V30 4407 H 434.6 -3.11576 2.12604 0
M  V30 4408 H 436.987 -2.68016 1.23497 0
M  V30 4409 H 437.068 -1.22865 2.24361 0
M  V30 4410 H 436.712 -2.6764 4.31661 0
M  V30 4411 H 436.642 -4.12177 3.27746 0
M  V30 4412 H 439.133 -2.68978 2.65442 0
M  V30 4413 H 439.446 -5.04331 5.85551 0
M  V30 4414 H 437.791 -4.54085 5.26148 0
M  V30 4415 H 440.982 -3.27207 3.34743 0
M  V30 4416 H 441.155 -4.34547 4.807 0
M  V30 4417 N 434.561 -1.01147 -1.20859 0
M  V30 4418 C 435.789 -0.716911 -1.94082 0
M  V30 4419 C 436.204 0.721568 -1.74467 0
M  V30 4420 O 435.561 1.48889 -1.05539 0
M  V30 4421 C 435.612 -1.03662 -3.46318 0
M  V30 4422 O 435.333 -2.4186 -3.65288 0
M  V30 4423 C 436.834 -0.762386 -4.36695 0
M  V30 4424 H 434.054 -0.26367 -0.617024 0
M  V30 4425 H 436.598 -1.35127 -1.53496 0
M  V30 4426 H 434.753 -0.447757 -3.84804 0
M  V30 4427 H 435.167 -2.53224 -4.59323 0
M  V30 4428 H 436.641 -1.03621 -5.42187 0
M  V30 4429 H 437.118 0.303514 -4.3815 0
M  V30 4430 H 437.724 -1.33316 -4.03865 0
M  V30 4431 N 436.039 1.36541 -0.78704 0
M  V30 4432 C 437.287 1.98911 -0.357633 0
M  V30 4433 C 437.608 1.62778 1.07371 0
M  V30 4434 O 436.878 0.900612 1.73971 0
M  V30 4435 H 435.458 0.735734 -0.129246 0
M  V30 4436 H 438.12 1.66776 -1.00855 0
M  V30 4437 H 437.216 3.08874 -0.447549 0
M  V30 4438 N 437.518 0.538854 1.48102 0
M  V30 4439 C 438.465 -0.219042 2.29758 0
M  V30 4440 C 439.435 -0.925562 1.37922 0
M  V30 4441 O 440.62 -0.924855 1.66886 0
M  V30 4442 C 437.76 -1.25452 3.2149 0
M  V30 4443 C 436.873 -0.555943 4.28408 0
M  V30 4444 C 436.008 -1.57512 5.0731 0
M  V30 4445 C 435.047 -0.860498 6.06021 0
M  V30 4446 N 434.184 -1.82564 6.77949 0
M  V30 4447 H 439.024 0.483449 2.94052 0
M  V30 4448 H 436.561 0.250247 1.44956 0
M  V30 4449 H 438.519 -1.86727 3.7308 0
M  V30 4450 H 437.149 -1.92528 2.591 0
M  V30 4451 H 436.201 0.170938 3.80016 0
M  V30 4452 H 437.513 0.00474616 4.988 0
M  V30 4453 H 436.667 -2.26191 5.62959 0
M  V30 4454 H 435.406 -2.16972 4.36778 0
M  V30 4455 H 434.411 -0.159686 5.49568 0
M  V30 4456 H 435.636 -0.271897 6.78555 0
M  V30 4457 H 433.582 -2.40915 6.10161 0
M  V30 4458 H 433.499 -1.31662 7.44447 0
M  V30 4459 H 434.767 -2.50414 7.38182 0
M  V30 4460 N 438.996 -1.55193 0.274407 0
M  V30 4461 C 440.244 -1.99187 -0.341902 0
M  V30 4462 C 440.565 -1.16422 -1.56431 0
M  V30 4463 O 439.835 -0.253573 -1.94252 0
M  V30 4464 H 438.415 -0.735721 -0.129317 0
M  V30 4465 H 441.077 -1.91168 0.379578 0
M  V30 4466 H 440.173 -3.05629 -0.632253 0
M  V30 4467 N 440.474 -0.00167713 -1.576 0
M  V30 4468 C 441.437 0.974046 -2.07473 0
M  V30 4469 C 442.437 1.27143 -0.984444 0
M  V30 4470 O 443.627 1.21633 -1.24703 0
M  V30 4471 C 440.759 2.29849 -2.51759 0
M  V30 4472 H 441.952 0.54262 -2.9495 0
M  V30 4473 H 439.505 0.245829 -1.54355 0
M  V30 4474 H 440.24 2.77677 -1.67529 0
M  V30 4475 H 440.025 2.09584 -3.31386 0
M  V30 4476 H 441.515 2.9984 -2.90664 0
M  V30 4477 N 441.952 1.55251 0.271103 0
M  V30 4478 C 443.229 1.66664 1.02384 0
M  V30 4479 C 443.609 0.534363 2.04225 0
M  V30 4480 O 442.957 -0.465337 2.23712 0
M  V30 4481 C 443.167 3.05961 1.67895 0
M  V30 4482 C 444.515 3.63772 2.18986 0
M  V30 4483 O 445.539 3.08606 1.77878 0
M  V30 4484 O 444.398 4.60429 2.94393 0
M  V30 4485 H 441.492 0.676957 0.475035 0
M  V30 4486 H 444.038 1.67589 0.26681 0
M  V30 4487 H 442.81 3.79815 0.941071 0
M  V30 4488 H 442.433 3.08943 2.5028 0
M  V30 4489 N 443.43 -0.535701 1.48216 0
M  V30 4490 C 444.393 -1.623 1.61838 0
M  V30 4491 C 445.393 -1.53087 0.492024 0
M  V30 4492 O 446.583 -1.5686 0.757668 0
M  V30 4493 C 443.715 -3.01907 1.58319 0
M  V30 4494 H 444.908 -1.51564 2.58783 0
M  V30 4495 H 442.461 -0.757317 1.36727 0
M  V30 4496 H 443.196 -3.18155 0.628299 0
M  V30 4497 H 442.981 -3.10003 2.40085 0
M  V30 4498 H 444.471 -3.80969 1.71033 0
M  V30 4499 N 444.908 -1.36708 -0.784132 0
M  V30 4500 C 446.157 -1.30559 -1.53744 0
M  V30 4501 C 446.47 0.111374 -1.95283 0
M  V30 4502 O 447.676 0.29527 -2.6989 0
M  V30 4503 C 446.132 -2.29098 -2.77565 0
M  V30 4504 C 445.74 -3.76258 -2.43174 0
M  V30 4505 C 447.484 -2.31936 -3.55536 0
M  V30 4506 C 445.391 -4.6656 -3.63422 0
M  V30 4507 H 444.321 -0.48518 -0.577162 0
M  V30 4508 H 446.972 -1.62101 -0.859981 0
M  V30 4509 H 445.354 -1.90557 -3.47137 0
M  V30 4510 H 446.528 -4.23565 -1.81465 0
M  V30 4511 H 444.843 -3.76246 -1.78403 0
M  V30 4512 H 447.44 -2.9661 -4.44889 0
M  V30 4513 H 447.783 -1.3294 -3.94503 0
M  V30 4514 H 448.316 -2.6912 -2.92949 0
M  V30 4515 H 445.055 -5.66638 -3.29547 0
M  V30 4516 H 444.575 -4.23966 -4.24279 0
M  V30 4517 H 446.254 -4.8309 -4.30387 0
M  V30 4518 N 446.386 1.0089 -1.21074 0
M  V30 4519 C 447.614 1.78191 -1.05145 0
M  V30 4520 C 448.029 1.84537 0.398952 0
M  V30 4521 O 447.386 1.30393 1.27687 0
M  V30 4522 C 447.437 3.22288 -1.63746 0
M  V30 4523 O 447.158 3.16315 -3.03111 0
M  V30 4524 C 448.659 4.16106 -1.52875 0
M  V30 4525 H 445.879 0.560129 -0.369454 0
M  V30 4526 H 448.423 1.26945 -1.60328 0
M  V30 4527 H 446.578 3.70655 -1.12664 0
M  V30 4528 H 446.992 4.06817 -3.31059 0
M  V30 4529 H 448.466 5.15026 -1.98626 0
M  V30 4530 H 448.943 4.36541 -0.482521 0
M  V30 4531 H 449.549 3.73625 -2.03185 0
M  V30 4532 N 447.864 1.01787 1.20321 0
M  V30 4533 C 449.089 0.727009 1.9424 0
M  V30 4534 C 449.514 -0.706179 1.74341 0
M  V30 4535 O 448.872 -1.48609 1.03852 0
M  V30 4536 C 448.92 1.06958 3.44372 0
M  V30 4537 O 448.024 0.181983 4.11998 0
M  V30 4538 H 447.365 0.269626 0.606793 0
M  V30 4539 H 449.895 1.36158 1.52716 0
M  V30 4540 H 449.905 1.02182 3.94997 0
M  V30 4541 H 448.58 2.11378 3.58179 0
M  V30 4542 H 447.157 0.287378 3.71791 0
M  V30 4543 N 449.342 -1.36122 0.79427 0
M  V30 4544 C 450.59 -1.98718 0.368177 0
M  V30 4545 C 450.911 -1.63345 -1.06506 0
M  V30 4546 O 450.181 -0.909825 -1.73491 0
M  V30 4547 H 448.761 -0.735038 0.133146 0
M  V30 4548 H 451.423 -1.66239 1.01739 0
M  V30 4549 H 450.519 -3.08633 0.463923 0
M  V30 4550 N 450.82 -0.546701 -1.47814 0
M  V30 4551 C 451.75 0.195317 -2.32682 0
M  V30 4552 C 452.731 0.918981 -1.43139 0
M  V30 4553 O 453.916 0.901501 -1.72008 0
M  V30 4554 C 451.046 1.23237 -3.247 0
M  V30 4555 C 450 0.625818 -4.234 0
M  V30 4556 C 449.326 1.76674 -5.04669 0
M  V30 4557 C 450.626 -0.413515 -5.2066 0
M  V30 4558 H 452.32 -0.513184 -2.94969 0
M  V30 4559 H 449.866 -0.248241 -1.41844 0
M  V30 4560 H 451.819 1.75955 -3.82907 0
M  V30 4561 H 450.543 1.97067 -2.60446 0
M  V30 4562 H 449.202 0.120023 -3.66403 0
M  V30 4563 H 448.85 2.49383 -4.36826 0
M  V30 4564 H 448.55 1.36673 -5.71484 0
M  V30 4565 H 450.074 2.29738 -5.65732 0
M  V30 4566 H 451.488 0.0272042 -5.73294 0
M  V30 4567 H 449.885 -0.731825 -5.95621 0
M  V30 4568 H 450.955 -1.31325 -4.66778 0
M  V30 4569 N 452.299 1.55045 -0.282633 0
M  V30 4570 C 453.209 2.26491 0.61147 0
M  V30 4571 C 454.225 1.29348 1.16384 0
M  V30 4572 O 455.401 1.62298 1.19253 0
M  V30 4573 C 452.466 2.97779 1.77563 0
M  V30 4574 C 451.527 4.10418 1.25919 0
M  V30 4575 C 450.76 4.78297 2.36786 0
M  V30 4576 O 450.983 4.45426 3.56303 0
M  V30 4577 O 449.917 5.66089 2.04517 0
M  V30 4578 H 453.743 3.03683 0.0324615 0
M  V30 4579 H 451.328 1.49317 -0.0497576 0
M  V30 4580 H 453.21 3.42554 2.45427 0
M  V30 4581 H 451.885 2.23498 2.34159 0
M  V30 4582 H 450.792 3.70082 0.546797 0
M  V30 4583 H 452.125 4.86622 0.738887 0
M  V30 4584 N 453.777 0.010035 1.57597 0
M  V30 4585 C 455.023 -0.673697 1.91283 0
M  V30 4586 C 455.356 -1.72863 0.884979 0
M  V30 4587 O 454.631 -1.94268 -0.0949487 0
M  V30 4588 C 454.914 -1.30766 3.35518 0
M  V30 4589 C 454.767 -0.263578 4.49027 0
M  V30 4590 C 456.086 -2.23105 3.79358 0
M  V30 4591 H 453.205 -0.243439 0.695634 0
M  V30 4592 H 455.847 0.0633864 1.89894 0
M  V30 4593 H 453.997 -1.93588 3.36832 0
M  V30 4594 H 455.669 0.365738 4.59848 0
M  V30 4595 H 453.912 0.413077 4.31829 0
M  V30 4596 H 454.583 -0.746398 5.4693 0
M  V30 4597 H 457.059 -1.70289 3.79659 0
M  V30 4598 H 455.935 -2.64424 4.81011 0
M  V30 4599 H 456.196 -3.11433 3.13787 0
M  V30 4600 N 455.255 -1.55392 -0.262866 0
M  V30 4601 C 456.483 -1.80513 -1.01108 0
M  V30 4602 C 456.898 -0.583533 -1.79556 0
M  V30 4603 O 456.255 0.447585 -1.76926 0
M  V30 4604 C 456.306 -3.03648 -1.96164 0
M  V30 4605 O 456.027 -4.2109 -1.20893 0
M  V30 4606 C 457.528 -3.41448 -2.82715 0
M  V30 4607 H 454.748 -0.601079 -0.298236 0
M  V30 4608 H 457.292 -2.02425 -0.290582 0
M  V30 4609 H 455.447 -2.83832 -2.63663 0
M  V30 4610 H 455.861 -4.90771 -1.85051 0
M  V30 4611 H 457.335 -4.30751 -3.45192 0
M  V30 4612 H 457.812 -2.61308 -3.53008 0
M  V30 4613 H 458.418 -3.63559 -2.20693 0
M  V30 4614 N 456.733 0.527833 -1.48498 0
M  V30 4615 C 457.979 1.28295 -1.57836 0
M  V30 4616 C 458.334 1.9077 -0.249943 0
M  V30 4617 O 457.627 1.76421 0.747402 0
M  V30 4618 C 457.821 2.39275 -2.65485 0
M  V30 4619 C 457.65 1.87679 -4.08664 0
M  V30 4620 C 456.42 1.70187 -4.75778 0
M  V30 4621 C 458.618 1.40409 -4.94762 0
M  V30 4622 N 456.6 1.13238 -6.03366 0
M  V30 4623 C 457.971 0.954216 -6.12613 0
M  V30 4624 C 460.026 1.28732 -4.8097 0
M  V30 4625 C 458.729 0.39915 -7.18192 0
M  V30 4626 C 460.755 0.746244 -5.86673 0
M  V30 4627 C 460.117 0.306457 -7.03733 0
M  V30 4628 H 456.216 0.460408 -0.632099 0
M  V30 4629 H 458.8 0.594913 -1.85388 0
M  V30 4630 H 456.971 3.05572 -2.3975 0
M  V30 4631 H 458.703 3.06308 -2.64495 0
M  V30 4632 H 455.458 1.93772 -4.32145 0
M  V30 4633 H 455.882 0.867687 -6.71417 0
M  V30 4634 H 460.524 1.61338 -3.90807 0
M  V30 4635 H 458.242 0.0607678 -8.08077 0
M  V30 4636 H 461.828 0.659041 -5.78055 0
M  V30 4637 H 460.708 -0.105708 -7.84129 0
M  V30 4638 N 458.211 1.37122 0.776871 0
M  V30 4639 C 459.439 1.3523 1.5659 0
M  V30 4640 C 459.854 -0.0635518 1.88693 0
M  V30 4641 O 459.211 -1.02394 1.51069 0
M  V30 4642 C 459.262 2.18583 2.8793 0
M  V30 4643 O 458.983 3.5465 2.57206 0
M  V30 4644 C 460.484 2.24612 3.82183 0
M  V30 4645 H 457.704 0.4634 0.485285 0
M  V30 4646 H 460.248 1.80392 0.963266 0
M  V30 4647 H 458.403 1.76943 3.4463 0
M  V30 4648 H 458.817 3.98286 3.41275 0
M  V30 4649 H 460.291 2.87267 4.71361 0
M  V30 4650 H 460.768 1.25309 4.20944 0
M  V30 4651 H 461.374 2.66543 3.31414 0
M  V30 4652 N 459.689 -1.00246 1.21608 0
M  V30 4653 C 460.917 -1.77631 1.06089 0
M  V30 4654 C 461.332 -1.84746 -0.38916 0
M  V30 4655 O 460.689 -1.31068 -1.26994 0
M  V30 4656 C 460.74 -3.21415 1.65453 0
M  V30 4657 O 460.461 -3.14703 3.04785 0
M  V30 4658 C 461.962 -4.15289 1.55079 0
M  V30 4659 H 459.182 -0.558162 0.37242 0
M  V30 4660 H 461.726 -1.26093 1.60999 0
M  V30 4661 H 459.881 -3.70053 1.14629 0
M  V30 4662 H 460.295 -4.05056 3.33212 0
M  V30 4663 H 461.769 -5.13965 2.01355 0
M  V30 4664 H 462.246 -4.36279 0.505665 0
M  V30 4665 H 462.852 -3.72543 2.05163 0
M  V30 4666 N 461.167 -1.02423 -1.1978 0
M  V30 4667 C 462.395 -0.737456 -1.93311 0
M  V30 4668 C 462.81 0.703023 -1.75223 0
M  V30 4669 O 462.167 1.47761 -1.07112 0
M  V30 4670 C 462.218 -1.0733 -3.45199 0
M  V30 4671 O 461.939 -2.4572 -3.62702 0
M  V30 4672 C 463.44 -0.80866 -4.35862 0
M  V30 4673 H 460.66 -0.2702 -0.614193 0
M  V30 4674 H 463.204 -1.36747 -1.52054 0
M  V30 4675 H 461.359 -0.488545 -3.84307 0
M  V30 4676 H 461.773 -2.58081 -4.56612 0
M  V30 4677 H 463.247 -1.09365 -5.41057 0
M  V30 4678 H 463.724 0.257025 -4.38447 0
M  V30 4679 H 464.33 -1.37592 -4.02428 0
M  V30 4680 N 462.645 1.35699 -0.801477 0
M  V30 4681 C 464.056 1.81415 -0.441073 0
M  V30 4682 C 464.407 1.66595 1.03636 0
M  V30 4683 O 463.532 1.19369 1.80499 0
M  V30 4684 C 464.127 3.29369 -0.793819 0
M  V30 4685 C 462.686 3.73248 -0.486083 0
M  V30 4686 C 461.833 2.57775 -1.02213 0
M  V30 4687 H 464.784 1.23749 -0.993572 0
M  V30 4688 H 464.805 3.80395 -0.0894158 0
M  V30 4689 H 464.317 3.40123 -1.86917 0
M  V30 4690 H 462.418 3.68046 0.580735 0
M  V30 4691 H 462.531 4.68222 -1.01513 0
M  V30 4692 H 460.895 2.50788 -0.444712 0
M  V30 4693 H 461.678 2.71309 -2.10348 0
M  V30 4694 N 464.123 0.554532 1.47522 0
M  V30 4695 C 465.351 0.034257 2.06872 0
M  V30 4696 C 465.766 -1.25826 1.40759 0
M  V30 4697 O 465.123 -1.75425 0.503217 0
M  V30 4698 C 465.174 -0.167827 3.6111 0
M  V30 4699 O 464.895 1.07351 4.24744 0
M  V30 4700 C 466.396 -0.72569 4.3732 0
M  V30 4701 H 463.616 0.0446275 0.669514 0
M  V30 4702 H 466.16 0.767181 1.89564 0
M  V30 4703 H 464.315 -0.850872 3.7794 0
M  V30 4704 H 464.729 0.869563 5.17242 0
M  V30 4705 H 466.203 -0.816394 5.45929 0
M  V30 4706 H 466.68 -1.73635 4.0342 0
M  V30 4707 H 467.286 -0.0784292 4.25228 0
M  V30 4708 N 465.601 -1.54893 0.290851 0
M  V30 4709 C 466.533 -2.20564 -0.623236 0
M  V30 4710 C 467.546 -1.19519 -1.1054 0
M  V30 4711 O 468.735 -1.46165 -1.02459 0
M  V30 4712 C 465.835 -2.83033 -1.86401 0
M  V30 4713 C 465.008 -4.09916 -1.52604 0
M  V30 4714 C 464.067 -4.56284 -2.62091 0
M  V30 4715 O 463.093 -5.2171 -2.27612 0
M  V30 4716 N 464.295 -4.27746 -3.92446 0
M  V30 4717 H 467.06 -2.99638 -0.0610915 0
M  V30 4718 H 464.621 -1.61508 0.112615 0
M  V30 4719 H 466.613 -3.1099 -2.58973 0
M  V30 4720 H 465.183 -2.0786 -2.33481 0
M  V30 4721 H 464.403 -3.89078 -0.633424 0
M  V30 4722 H 465.691 -4.92554 -1.27547 0
M  V30 4723 H 465.089 -3.7531 -4.23272 0
M  V30 4724 H 463.646 -4.60437 -4.61347 0
M  V30 4725 N 467.08 -0.0183926 -1.57589 0
M  V30 4726 C 468.326 0.657813 -1.92469 0
M  V30 4727 C 468.681 1.70349 -0.894375 0
M  V30 4728 O 467.974 1.91384 0.0910389 0
M  V30 4729 C 468.168 1.32676 -3.31861 0
M  V30 4730 C 467.997 0.347403 -4.48356 0
M  V30 4731 C 466.767 -0.0488653 -5.05276 0
M  V30 4732 C 468.965 -0.393931 -5.12789 0
M  V30 4733 N 466.947 -1.02451 -6.05291 0
M  V30 4734 C 468.318 -1.22367 -6.07804 0
M  V30 4735 C 470.373 -0.455789 -4.95809 0
M  V30 4736 C 469.076 -2.10966 -6.87667 0
M  V30 4737 C 471.102 -1.32908 -5.76272 0
M  V30 4738 C 470.464 -2.14662 -6.70894 0
M  V30 4739 H 466.563 0.21335 -0.752334 0
M  V30 4740 H 469.147 -0.0830547 -1.94523 0
M  V30 4741 H 467.318 2.03782 -3.30647 0
M  V30 4742 H 469.05 1.95913 -3.54119 0
M  V30 4743 H 465.805 0.323356 -4.72495 0
M  V30 4744 H 466.229 -1.50826 -6.59985 0
M  V30 4745 H 470.871 0.162017 -4.22489 0
M  V30 4746 H 468.589 -2.73807 -7.603 0
M  V30 4747 H 472.175 -1.38109 -5.6517 0
M  V30 4748 H 471.055 -2.81143 -7.32071 0
M  V30 4749 N 468.558 1.5553 0.254621 0
M  V30 4750 C 469.783 1.81383 1.00573 0
M  V30 4751 C 470.208 0.594419 1.78461 0
M  V30 4752 O 469.566 -0.456403 1.75461 0
M  V30 4753 C 469.614 3.04892 1.92545 0
M  V30 4754 O 468.718 2.81266 3.01601 0
M  V30 4755 H 468.059 0.598969 0.286587 0
M  V30 4756 H 470.589 2.02703 0.277952 0
M  V30 4757 H 470.599 3.34119 2.34155 0
M  V30 4758 H 469.274 3.93287 1.3527 0
M  V30 4759 H 467.851 2.63185 2.64174 0
M  V30 4760 N 470.036 -0.519951 1.48776 0
M  V30 4761 C 470.986 -1.61995 1.60442 0
M  V30 4762 C 471.97 -1.54155 0.460991 0
M  V30 4763 O 473.162 -1.62006 0.712965 0
M  V30 4764 C 470.291 -3.00683 1.65664 0
M  V30 4765 C 469.377 -3.1359 2.8552 0
M  V30 4766 N 469.768 -2.96441 4.09825 0
M  V30 4767 C 468.066 -3.44662 2.83062 0
M  V30 4768 C 468.767 -3.1303 4.90293 0
M  V30 4769 N 467.743 -3.41058 4.23297 0
M  V30 4770 H 471.545 -1.47362 2.54287 0
M  V30 4771 H 469.059 -0.725649 1.45286 0
M  V30 4772 H 471.056 -3.79712 1.72117 0
M  V30 4773 H 469.716 -3.16401 0.729425 0
M  V30 4774 H 470.727 -2.72999 4.40104 0
M  V30 4775 H 467.404 -3.66675 1.9964 0
M  V30 4776 H 468.794 -3.04424 5.98979 0
M  V30 4777 N 471.514 -1.37532 -0.769588 0
M  V30 4778 C 472.462 -1.33561 -1.90432 0
M  V30 4779 C 473.456 -0.224027 -1.67912 0
M  V30 4780 O 474.662 -0.392174 -1.75676 0
M  V30 4781 H 471.037 -0.416279 -0.626271 0
M  V30 4782 H 473.008 -2.29348 -1.90899 0
M  V30 4783 C 471.757 -1.16162 -3.27722 0
M  V30 4784 H 471.08 -2.00951 -3.45628 0
M  V30 4785 H 472.52 -1.17434 -4.07413 0
M  V30 4786 C 470.979 0.132583 -3.36639 0
M  V30 4787 O 471.509 1.11539 -3.85904 0
M  V30 4788 N 469.715 0.184013 -2.90017 0
M  V30 4789 H 469.262 -0.616415 -2.50116 0
M  V30 4790 H 469.22 1.04956 -2.96364 0
M  V30 4791 N 472.992 0.995999 -1.22138 0
M  V30 4792 C 474.239 1.7351 -1.04406 0
M  V30 4793 C 474.567 1.89884 0.421244 0
M  V30 4794 O 473.822 1.43683 1.32867 0
M  V30 4795 C 474.121 3.14553 -1.6968 0
M  V30 4796 C 473.787 3.18102 -3.19565 0
M  V30 4797 C 472.449 3.18778 -3.60464 0
M  V30 4798 C 474.801 3.14636 -4.15516 0
M  V30 4799 C 472.129 3.13684 -4.95801 0
M  V30 4800 C 474.481 3.11084 -5.50826 0
M  V30 4801 C 473.145 3.10074 -5.91109 0
M  V30 4802 H 472.415 0.634916 -0.38205 0
M  V30 4803 H 475.062 1.1667 -1.51857 0
M  V30 4804 H 473.367 3.74682 -1.14546 0
M  V30 4805 H 475.064 3.70477 -1.53454 0
M  V30 4806 H 471.654 3.18324 -2.86998 0
M  V30 4807 H 475.838 3.13266 -3.84939 0
M  V30 4808 H 471.094 3.11245 -5.26247 0
M  V30 4809 H 475.268 3.07357 -6.24904 0
M  V30 4810 H 472.895 3.05882 -6.95946 0
M  V30 4811 N 474.47 1.03057 1.19235 0
M  V30 4812 C 475.717 0.728019 1.88961 0
M  V30 4813 C 476.045 -0.743515 1.79728 0
M  V30 4814 O 475.3 -1.55729 1.1852 0
M  V30 4815 C 475.599 1.1268 3.39172 0
M  V30 4816 C 475.265 2.5969 3.68608 0
M  V30 4817 C 473.927 2.99854 3.76352 0
M  V30 4818 C 476.279 3.54793 3.81801 0
M  V30 4819 C 473.607 4.34031 3.94758 0
M  V30 4820 C 475.959 4.88675 4.0172 0
M  V30 4821 C 474.623 5.28526 4.07697 0
M  V30 4822 H 473.893 0.266401 0.691456 0
M  V30 4823 H 476.54 1.29373 1.41191 0
M  V30 4824 H 474.845 0.479722 3.88852 0
M  V30 4825 H 476.542 0.870203 3.91444 0
M  V30 4826 H 473.132 2.27575 3.63191 0
M  V30 4827 H 477.316 3.24914 3.7516 0
M  V30 4828 H 472.572 4.6444 3.97625 0
M  V30 4829 H 476.746 5.6228 4.1087 0
M  V30 4830 H 474.373 6.32506 4.21712 0
M  V30 4831 N 475.948 -1.35272 0.808662 0
M  V30 4832 C 476.858 -2.33546 0.222079 0
M  V30 4833 C 477.874 -1.6196 -0.636011 0
M  V30 4834 O 479.05 -1.93822 -0.547274 0
M  V30 4835 C 476.115 -3.41148 -0.61795 0
M  V30 4836 C 475.176 -4.28507 0.260875 0
M  V30 4837 C 474.409 -5.3097 -0.539156 0
M  V30 4838 O 474.632 -5.42123 -1.77367 0
M  V30 4839 O 473.566 -6.01858 0.0710526 0
M  V30 4840 H 477.392 -2.85515 1.03512 0
M  V30 4841 H 474.977 -1.38079 0.570495 0
M  V30 4842 H 476.859 -4.06889 -1.09634 0
M  V30 4843 H 475.534 -2.91447 -1.40855 0
M  V30 4844 H 474.441 -3.6574 0.786451 0
M  V30 4845 H 475.774 -4.81611 1.01547 0
M  V30 4846 N 477.426 -0.562348 -1.47226 0
M  V30 4847 C 478.374 0.195476 -2.31777 0
M  V30 4848 C 479.368 0.90433 -1.43242 0
M  V30 4849 O 480.574 0.825031 -1.59979 0
M  V30 4850 H 476.949 0.0819095 -0.747526 0
M  V30 4851 H 478.92 -0.536753 -2.93533 0
M  V30 4852 C 477.669 1.20902 -3.26003 0
M  V30 4853 H 476.992 0.672997 -3.94095 0
M  V30 4854 H 478.432 1.71006 -3.87986 0
M  V30 4855 C 476.891 2.25955 -2.49891 0
M  V30 4856 O 477.421 3.32969 -2.2471 0
M  V30 4857 N 475.627 2.00019 -2.1081 0
M  V30 4858 H 475.174 1.13006 -2.31489 0
M  V30 4859 H 475.132 2.70523 -1.60201 0
M  V30 4860 N 478.904 1.54736 -0.299062 0
M  V30 4861 C 479.834 2.26409 0.571085 0
M  V30 4862 C 480.815 1.2629 1.13951 0
M  V30 4863 O 482 1.55059 1.16921 0
M  V30 4864 C 479.13 3.00338 1.74396 0
M  V30 4865 C 478.084 4.07588 1.30599 0
M  V30 4866 C 477.41 4.69222 2.56387 0
M  V30 4867 C 478.71 5.20455 0.438645 0
M  V30 4868 H 480.404 2.99388 -0.0266991 0
M  V30 4869 H 477.95 1.43993 -0.0142812 0
M  V30 4870 H 479.903 3.49198 2.35878 0
M  V30 4871 H 478.627 2.24934 2.36796 0
M  V30 4872 H 477.286 3.59575 0.71424 0
M  V30 4873 H 476.934 3.9046 3.17097 0
M  V30 4874 H 476.634 5.41653 2.27784 0
M  V30 4875 H 478.158 5.20844 3.18675 0
M  V30 4876 H 479.572 5.65221 0.959085 0
M  V30 4877 H 477.969 5.99594 0.246466 0
M  V30 4878 H 479.039 4.8192 -0.536738 0
M  V30 4879 N 480.382 0.0267497 1.57577 0
M  V30 4880 C 481.629 -0.652404 1.91703 0
M  V30 4881 C 481.957 -1.72271 0.902936 0
M  V30 4882 O 481.212 -1.955 -0.0884843 0
M  V30 4883 C 481.511 -1.30914 3.3256 0
M  V30 4884 C 481.177 -0.369441 4.49384 0
M  V30 4885 C 479.839 -0.110791 4.81072 0
M  V30 4886 C 482.191 0.275971 5.20469 0
M  V30 4887 C 479.519 0.801116 5.81205 0
M  V30 4888 C 481.871 1.17592 6.21575 0
M  V30 4889 C 480.535 1.44348 6.51705 0
M  V30 4890 H 479.805 -0.238732 0.70149 0
M  V30 4891 H 482.452 0.0880091 1.91298 0
M  V30 4892 H 480.757 -2.12425 3.29216 0
M  V30 4893 H 482.454 -1.84115 3.56234 0
M  V30 4894 H 479.044 -0.581211 4.24641 0
M  V30 4895 H 483.228 0.0892 4.9622 0
M  V30 4896 H 478.484 1.01614 6.02897 0
M  V30 4897 H 482.658 1.68223 6.75777 0
M  V30 4898 H 480.285 2.15176 7.29111 0
M  V30 4899 N 481.861 -1.55662 -0.24637 0
M  V30 4900 C 483.109 -1.77168 -0.972411 0
M  V30 4901 C 483.43 -0.590827 -1.85834 0
M  V30 4902 O 482.7 0.393365 -1.9191 0
M  V30 4903 H 481.28 -0.653405 -0.362038 0
M  V30 4904 H 483.942 -1.93101 -0.264189 0
M  V30 4905 H 483.038 -2.68335 -1.59382 0
M  V30 4906 N 483.339 0.512053 -1.4905 0
M  V30 4907 C 484.569 1.28928 -1.61434 0
M  V30 4908 C 484.977 1.87107 -0.280647 0
M  V30 4909 O 484.32 1.68024 0.742537 0
M  V30 4910 C 484.382 2.466 -2.61588 0
M  V30 4911 C 484.046 2.09375 -4.06216 0
M  V30 4912 C 485.043 1.63994 -4.93358 0
M  V30 4913 C 482.728 2.19348 -4.51876 0
M  V30 4914 C 484.722 1.29076 -6.24194 0
M  V30 4915 C 482.409 1.84041 -5.82728 0
M  V30 4916 C 483.407 1.38978 -6.68711 0
M  V30 4917 O 483.095 1.04144 -7.97126 0
M  V30 4918 H 482.827 0.397668 -0.546659 0
M  V30 4919 H 485.381 0.622507 -1.9574 0
M  V30 4920 H 483.611 3.16318 -2.22441 0
M  V30 4921 H 485.3 3.08642 -2.63619 0
M  V30 4922 H 486.066 1.55744 -4.59313 0
M  V30 4923 H 481.945 2.53376 -3.85125 0
M  V30 4924 H 485.489 0.938303 -6.91261 0
M  V30 4925 H 481.386 1.91938 -6.16304 0
M  V30 4926 H 482.154 1.17387 -8.10039 0
M  V30 4927 N 484.817 1.37938 0.762283 0
M  V30 4928 C 485.727 1.36681 1.90671 0
M  V30 4929 C 486.743 0.265078 1.71969 0
M  V30 4930 O 487.919 0.502055 1.95042 0
M  V30 4931 C 484.984 1.18211 3.25925 0
M  V30 4932 C 484.045 2.3811 3.57214 0
M  V30 4933 C 483.278 2.20512 4.86014 0
M  V30 4934 O 483.501 1.19429 5.57757 0
M  V30 4935 O 482.435 3.08911 5.16583 0
M  V30 4936 H 486.261 2.33091 1.94685 0
M  V30 4937 H 483.846 1.18767 0.906356 0
M  V30 4938 H 485.728 1.09937 4.06807 0
M  V30 4939 H 484.403 0.248807 3.22742 0
M  V30 4940 H 483.31 2.51958 2.76529 0
M  V30 4941 H 484.643 3.30041 3.65149 0
M  V30 4942 N 486.295 -0.989507 1.22664 0
M  V30 4943 C 487.541 -1.73298 1.06487 0
M  V30 4944 C 487.896 -1.88292 -0.395438 0
M  V30 4945 O 487.189 -1.41748 -1.28911 0
M  V30 4946 C 487.383 -3.13649 1.71345 0
M  V30 4947 C 487.212 -3.12341 3.23532 0
M  V30 4948 C 485.982 -3.18044 3.92653 0
M  V30 4949 C 488.18 -2.96226 4.20422 0
M  V30 4950 N 486.162 -3.06526 5.31898 0
M  V30 4951 C 487.533 -2.92773 5.4652 0
M  V30 4952 C 489.588 -2.80642 4.11271 0
M  V30 4953 C 488.291 -2.75332 6.64519 0
M  V30 4954 C 490.317 -2.64563 5.28924 0
M  V30 4955 C 489.679 -2.618 6.53942 0
M  V30 4956 H 485.778 -0.643643 0.444126 0
M  V30 4957 H 488.362 -1.17489 1.55256 0
M  V30 4958 H 486.533 -3.67694 1.25122 0
M  V30 4959 H 488.265 -3.76577 1.48229 0
M  V30 4960 H 485.02 -3.25861 3.43673 0
M  V30 4961 H 485.444 -3.04067 6.04874 0
M  V30 4962 H 490.086 -2.81574 3.15398 0
M  V30 4963 H 487.804 -2.73145 7.60538 0
M  V30 4964 H 491.39 -2.53482 5.23677 0
M  V30 4965 H 490.27 -2.49511 7.43447 0
M  V30 4966 N 487.773 -1.03688 -1.18687 0
M  V30 4967 C 488.683 -0.634908 -2.25845 0
M  V30 4968 C 489.699 0.337065 -1.70704 0
M  V30 4969 O 490.875 0.192943 -2.00474 0
M  V30 4970 C 487.94 -0.000180054 -3.467 0
M  V30 4971 C 487.001 -1.02067 -4.1699 0
M  V30 4972 C 486.234 -0.41614 -5.32075 0
M  V30 4973 O 486.457 0.778712 -5.65059 0
M  V30 4974 O 485.391 -1.14296 -5.90948 0
M  V30 4975 H 489.217 -1.52757 -2.62486 0
M  V30 4976 H 486.802 -0.807533 -1.25695 0
M  V30 4977 H 488.684 0.353342 -4.19916 0
M  V30 4978 H 487.359 0.866367 -3.11891 0
M  V30 4979 H 486.266 -1.42592 -3.45859 0
M  V30 4980 H 487.599 -1.85786 -4.5579 0
M  V30 4981 N 489.251 1.34841 -0.815825 0
M  V30 4982 C 490.181 2.32187 -0.247298 0
M  V30 4983 C 491.162 1.5791 0.632344 0
M  V30 4984 O 492.347 1.8593 0.560698 0
M  V30 4985 C 489.477 3.42122 0.597466 0
M  V30 4986 C 488.431 4.27602 -0.184446 0
M  V30 4987 C 487.757 5.28942 0.782609 0
M  V30 4988 C 489.057 5.03502 -1.38865 0
M  V30 4989 H 490.751 2.79985 -1.06061 0
M  V30 4990 H 488.297 1.34611 -0.511461 0
M  V30 4991 H 490.25 4.09232 1.00533 0
M  V30 4992 H 488.974 2.92956 1.44376 0
M  V30 4993 H 487.633 3.62085 -0.573592 0
M  V30 4994 H 487.281 4.7604 1.62466 0
M  V30 4995 H 486.981 5.87008 0.263695 0
M  V30 4996 H 488.505 5.98922 1.18848 0
M  V30 4997 H 489.919 5.63506 -1.05518 0
M  V30 4998 H 488.316 5.71108 -1.8427 0
M  V30 4999 H 489.386 4.33608 -2.17054 0
M  V30 5000 N 490.729 0.570148 1.46925 0
M  V30 5001 C 491.957 0.0561966 2.06824 0
M  V30 5002 C 492.372 -1.24326 1.42086 0
M  V30 5003 O 491.729 -1.74882 0.521794 0
M  V30 5004 C 491.78 -0.129517 3.61268 0
M  V30 5005 O 491.501 1.1185 4.23581 0
M  V30 5006 C 493.002 -0.679266 4.38065 0
M  V30 5007 H 490.222 0.0517261 0.669003 0
M  V30 5008 H 492.766 0.787243 1.8874 0
M  V30 5009 H 490.921 -0.810739 3.78822 0
M  V30 5010 H 491.335 0.924375 5.1629 0
M  V30 5011 H 492.809 -0.758445 5.46765 0
M  V30 5012 H 493.286 -1.69346 4.05239 0
M  V30 5013 H 493.892 -0.0333237 4.25287 0
M  V30 5014 N 492.207 -1.54576 0.307264 0
M  V30 5015 C 493.154 -2.23751 -0.56604 0
M  V30 5016 C 494.124 -1.22235 -1.12462 0
M  V30 5017 O 495.309 -1.50873 -1.16799 0
M  V30 5018 C 492.449 -2.98661 -1.72903 0
M  V30 5019 C 491.562 -4.14963 -1.20124 0
M  V30 5020 C 490.697 -4.77441 -2.3286 0
M  V30 5021 C 489.736 -5.85875 -1.77247 0
M  V30 5022 N 488.873 -6.42282 -2.8358 0
M  V30 5023 H 493.713 -2.97984 0.0304578 0
M  V30 5024 H 491.25 -1.47076 0.0268015 0
M  V30 5025 H 493.208 -3.40329 -2.41313 0
M  V30 5026 H 491.838 -2.26793 -2.29706 0
M  V30 5027 H 490.89 -3.78193 -0.409198 0
M  V30 5028 H 492.202 -4.93066 -0.754171 0
M  V30 5029 H 491.356 -5.21993 -3.09205 0
M  V30 5030 H 490.095 -3.98684 -2.80896 0
M  V30 5031 H 489.1 -5.40741 -0.993926 0
M  V30 5032 H 490.325 -6.6652 -1.30107 0
M  V30 5033 H 488.271 -5.66406 -3.30939 0
M  V30 5034 H 488.188 -7.1575 -2.43388 0
M  V30 5035 H 489.456 -6.91492 -3.59804 0
M  V30 5036 N 493.685 -0.035106 -1.57561 0
M  V30 5037 C 494.91 0.655802 -1.96759 0
M  V30 5038 C 495.335 1.64523 -0.911809 0
M  V30 5039 O 494.693 1.80857 0.126673 0
M  V30 5040 C 494.741 1.33326 -3.35047 0
M  V30 5041 O 493.845 2.44866 -3.31835 0
M  V30 5042 H 493.186 0.171807 -0.641388 0
M  V30 5043 H 495.716 -0.0987369 -2.04362 0
M  V30 5044 H 495.726 1.68867 -3.71413 0
M  V30 5045 H 494.401 0.608033 -4.11431 0
M  V30 5046 H 492.978 2.11392 -3.07193 0
M  V30 5047 N 495.163 1.55791 0.238111 0
M  V30 5048 C 496.574 1.68383 0.806472 0
M  V30 5049 C 496.925 0.634157 1.85669 0
M  V30 5050 O 496.05 -0.217913 2.153 0
M  V30 5051 C 496.645 3.05268 1.46959 0
M  V30 5052 C 495.204 3.1977 1.98555 0
M  V30 5053 C 494.351 2.64279 0.839763 0
M  V30 5054 H 497.302 1.58694 0.0137535 0
M  V30 5055 H 497.323 3.00203 2.33792 0
M  V30 5056 H 496.835 3.81643 0.704993 0
M  V30 5057 H 494.936 2.48234 2.77868 0
M  V30 5058 H 495.049 4.26788 2.17689 0
M  V30 5059 H 493.413 2.22329 1.24265 0
M  V30 5060 H 494.196 3.43187 0.0881032 0
M  V30 5061 N 496.642 -0.504142 1.49319 0
M  V30 5062 C 497.605 -1.5883 1.65244 0
M  V30 5063 C 498.605 -1.52009 0.524386 0
M  V30 5064 O 499.795 -1.55218 0.79077 0
M  V30 5065 C 496.927 -2.98481 1.64687 0
M  V30 5066 H 498.12 -1.4604 2.61939 0
M  V30 5067 H 495.673 -0.728144 1.38303 0
M  V30 5068 H 496.408 -3.16751 0.695644 0
M  V30 5069 H 496.193 -3.0484 2.46607 0
M  V30 5070 H 497.683 -3.77256 1.79075 0
M  V30 5071 N 498.12 -1.38341 -0.754957 0
M  V30 5072 C 499.368 -1.34208 -1.51105 0
M  V30 5073 C 499.689 0.0677634 -1.94882 0
M  V30 5074 O 498.959 1.01517 -1.67544 0
M  V30 5075 H 497.539 -0.493819 -0.560493 0
M  V30 5076 H 500.201 -1.73005 -0.897507 0
M  V30 5077 H 499.297 -1.99203 -2.4026 0
M  V30 5078 N 499.598 0.982988 -1.23187 0
M  V30 5079 C 500.561 2.05649 -1.01198 0
M  V30 5080 C 501.561 1.6078 0.0252464 0
M  V30 5081 O 502.751 1.72878 -0.214243 0
M  V30 5082 C 499.883 3.36744 -0.530656 0
M  V30 5083 H 501.076 2.2659 -1.96461 0
M  V30 5084 H 498.629 1.15602 -1.05195 0
M  V30 5085 H 499.364 3.21492 0.425873 0
M  V30 5086 H 499.149 3.7065 -1.2791 0
M  V30 5087 H 500.639 4.15705 -0.397366 0
M  V30 5088 N 501.076 1.04316 1.18135 0
M  V30 5089 C 502.026 0.606731 2.19779 0
M  V30 5090 C 503.01 -0.352144 1.56999 0
M  V30 5091 O 504.202 -0.170795 1.76174 0
M  V30 5092 C 501.331 -0.0262443 3.4329 0
M  V30 5093 C 500.417 0.955928 4.13186 0
M  V30 5094 N 500.808 2.12395 4.59045 0
M  V30 5095 C 499.106 0.782473 4.39082 0
M  V30 5096 C 499.807 2.74458 5.12882 0
M  V30 5097 N 498.783 2.02316 5.04548 0
M  V30 5098 H 502.585 1.49679 2.5293 0
M  V30 5099 H 500.099 0.912088 1.34368 0
M  V30 5100 H 502.096 -0.356617 4.15372 0
M  V30 5101 H 500.756 -0.911811 3.11635 0
M  V30 5102 H 501.767 2.50272 4.53414 0
M  V30 5103 H 498.444 -0.0527906 4.17467 0
M  V30 5104 H 499.834 3.73459 5.5855 0
M  V30 5105 N 502.554 -1.34406 0.822964 0
M  V30 5106 C 503.486 -2.28305 0.202375 0
M  V30 5107 C 504.499 -1.5103 -0.60777 0
M  V30 5108 O 505.688 -1.73057 -0.437444 0
M  V30 5109 C 502.788 -3.30836 -0.734911 0
M  V30 5110 C 501.961 -4.37388 0.0324177 0
M  V30 5111 C 501.02 -5.1968 -0.825803 0
M  V30 5112 O 500.046 -5.68556 -0.270771 0
M  V30 5113 N 501.248 -5.39393 -2.14558 0
M  V30 5114 H 504.013 -2.82201 1.00909 0
M  V30 5115 H 501.574 -1.4693 0.67993 0
M  V30 5116 H 503.566 -3.82786 -1.31365 0
M  V30 5117 H 502.136 -2.77334 -1.44238 0
M  V30 5118 H 501.356 -3.86152 0.792469 0
M  V30 5119 H 502.644 -5.05702 0.560633 0
M  V30 5120 H 502.042 -5.01357 -2.62025 0
M  V30 5121 H 500.599 -5.94461 -2.67318 0
M  V30 5122 N 504.032 -0.577932 -1.46621 0
M  V30 5123 C 505.278 -0.0700937 -2.03279 0
M  V30 5124 C 505.633 1.27376 -1.44198 0
M  V30 5125 O 504.926 1.82097 -0.595911 0
M  V30 5126 C 505.12 0.0590832 -3.57351 0
M  V30 5127 C 504.949 -1.2707 -4.31374 0
M  V30 5128 C 503.719 -1.84357 -4.70469 0
M  V30 5129 C 505.917 -2.19278 -4.65211 0
M  V30 5130 N 503.899 -3.11124 -5.29221 0
M  V30 5131 C 505.27 -3.30631 -5.24484 0
M  V30 5132 C 507.325 -2.19018 -4.47142 0
M  V30 5133 C 506.028 -4.41849 -5.67593 0
M  V30 5134 C 508.054 -3.29262 -4.91264 0
M  V30 5135 C 507.416 -4.39335 -5.50604 0
M  V30 5136 H 503.515 -0.0683127 -0.779011 0
M  V30 5137 H 506.099 -0.76978 -1.78836 0
M  V30 5138 H 504.27 0.727929 -3.81518 0
M  V30 5139 H 506.002 0.57087 -4.00653 0
M  V30 5140 H 502.757 -1.37906 -4.53077 0
M  V30 5141 H 503.181 -3.75794 -5.63123 0
M  V30 5142 H 507.823 -1.35191 -4.00604 0
M  V30 5143 H 505.541 -5.26421 -6.13112 0
M  V30 5144 H 509.127 -3.30172 -4.79038 0
M  V30 5145 H 508.007 -5.23233 -5.84121 0
M  V30 5146 N 505.51 1.54411 -0.315457 0
M  V30 5147 C 506.756 2.00716 0.289972 0
M  V30 5148 C 507.089 1.2034 1.5242 0
M  V30 5149 O 506.364 0.283579 1.92422 0
M  V30 5150 C 506.647 3.54507 0.632196 0
M  V30 5151 C 506.5 4.45615 -0.61218 0
M  V30 5152 C 507.819 4.15421 1.45305 0
M  V30 5153 H 504.938 0.729637 0.10392 0
M  V30 5154 H 507.58 1.8506 -0.430427 0
M  V30 5155 H 505.73 3.67979 1.24595 0
M  V30 5156 H 507.402 4.44026 -1.25053 0
M  V30 5157 H 505.645 4.15621 -1.24264 0
M  V30 5158 H 506.316 5.51022 -0.328379 0
M  V30 5159 H 508.792 4.05474 0.934331 0
M  V30 5160 H 507.668 5.23157 1.66127 0
M  V30 5161 H 507.929 3.68223 2.44671 0
M  V30 5162 N 506.988 0.0434614 1.5754 0
M  V30 5163 C 507.951 -0.918696 2.09982 0
M  V30 5164 C 508.951 -1.24488 1.01781 0
M  V30 5165 O 510.141 -1.18284 1.27885 0
M  V30 5166 C 507.273 -2.23093 2.57764 0
M  V30 5167 H 508.466 -0.464229 2.96285 0
M  V30 5168 H 506.019 -0.204818 1.54952 0
M  V30 5169 H 506.754 -2.73137 1.74832 0
M  V30 5170 H 506.539 -2.00724 3.36827 0
M  V30 5171 H 508.029 -2.92028 2.98512 0
M  V30 5172 N 508.466 -1.55915 -0.229846 0
M  V30 5173 C 509.413 -1.91734 -1.28478 0
M  V30 5174 C 510.383 -0.773539 -1.46988 0
M  V30 5175 O 511.568 -1.02871 -1.60693 0
M  V30 5176 C 508.708 -2.23224 -2.63182 0
M  V30 5177 C 507.821 -3.50497 -2.52539 0
M  V30 5178 C 506.956 -3.71474 -3.79711 0
M  V30 5179 C 505.995 -4.92289 -3.63755 0
M  V30 5180 N 505.132 -5.09698 -4.82858 0
M  V30 5181 H 509.972 -2.81692 -0.972308 0
M  V30 5182 H 507.509 -1.39429 -0.468815 0
M  V30 5183 H 509.467 -2.3949 -3.41614 0
M  V30 5184 H 508.097 -1.36451 -2.92542 0
M  V30 5185 H 507.149 -3.4247 -1.65585 0
M  V30 5186 H 508.461 -4.39079 -2.36666 0
M  V30 5187 H 507.615 -3.87791 -4.66586 0
M  V30 5188 H 506.354 -2.81157 -3.985 0
M  V30 5189 H 505.359 -4.7593 -2.75264 0
M  V30 5190 H 506.584 -5.84083 -3.46445 0
M  V30 5191 H 504.53 -4.22322 -5.01976 0
M  V30 5192 H 504.447 -5.92399 -4.69681 0
M  V30 5193 H 505.715 -5.30443 -5.71183 0
M  V30 5194 N 509.944 0.496216 -1.49584 0
M  V30 5195 C 511.192 1.24756 -1.58998 0
M  V30 5196 C 511.513 1.92968 -0.280775 0
M  V30 5197 O 510.783 1.82959 0.700198 0
M  V30 5198 H 509.363 0.463471 -0.585836 0
M  V30 5199 H 512.025 0.574678 -1.86235 0
M  V30 5200 H 511.121 2.00895 -2.38847 0
M  V30 5201 N 511.423 1.38739 0.74761 0
M  V30 5202 C 512.386 1.36241 1.84312 0
M  V30 5203 C 513.386 0.261811 1.58654 0
M  V30 5204 O 514.576 0.519031 1.66288 0
M  V30 5205 C 511.708 1.12253 3.21888 0
M  V30 5206 H 512.901 2.33712 1.87933 0
M  V30 5207 H 510.454 1.2412 0.949946 0
M  V30 5208 H 511.189 0.154133 3.23934 0
M  V30 5209 H 510.974 1.91943 3.41907 0
M  V30 5210 H 512.464 1.13215 4.0196 0
M  V30 5211 N 512.901 -0.976442 1.23707 0
M  V30 5212 C 514.178 -1.69296 0.979699 0
M  V30 5213 C 514.558 -2.0508 -0.500555 0
M  V30 5214 O 513.906 -1.74708 -1.47273 0
M  V30 5215 C 514.116 -2.93143 1.89389 0
M  V30 5216 C 515.464 -3.65572 2.15968 0
M  V30 5217 O 516.488 -3.03184 1.86971 0
M  V30 5218 O 515.347 -4.77859 2.65167 0
M  V30 5219 H 512.441 -0.739708 0.369812 0
M  V30 5220 H 514.987 -1.03131 1.34767 0
M  V30 5221 H 513.759 -2.63327 2.89439 0
M  V30 5222 H 513.382 -3.67044 1.52854 0
M  V30 5223 N 514.379 -1.04941 -1.1758 0
M  V30 5224 C 515.342 -0.652456 -2.19717 0
M  V30 5225 C 516.342 0.294745 -1.58076 0
M  V30 5226 O 517.532 0.0789579 -1.74021 0
M  V30 5227 C 514.664 0.0420712 -3.40874 0
M  V30 5228 H 515.857 -1.55642 -2.5635 0
M  V30 5229 H 513.41 -0.842995 -1.31618 0
M  V30 5230 H 514.145 0.95943 -3.09783 0
M  V30 5231 H 513.93 -0.638844 -3.86861 0
M  V30 5232 H 515.42 0.306 -4.16477 0
M  V30 5233 N 515.857 1.33968 -0.830081 0
M  V30 5234 C 517.103 1.98357 -0.422191 0
M  V30 5235 C 517.436 1.65633 1.01387 0
M  V30 5236 O 516.711 0.931648 1.70735 0
M  V30 5237 C 516.994 3.54492 -0.633043 0
M  V30 5238 C 516.847 3.96934 -2.11574 0
M  V30 5239 C 518.166 4.40039 -0.0735584 0
M  V30 5240 H 515.285 0.720544 -0.154871 0
M  V30 5241 H 517.927 1.58749 -1.04397 0
M  V30 5242 H 516.077 3.88361 -0.103775 0
M  V30 5243 H 517.749 3.73363 -2.7092 0
M  V30 5244 H 515.992 3.46984 -2.60354 0
M  V30 5245 H 516.663 5.05651 -2.21406 0
M  V30 5246 H 519.139 4.12764 -0.52585 0
M  V30 5247 H 518.015 5.48327 -0.250841 0
M  V30 5248 H 518.276 4.30124 1.02202 0
M  V30 5249 N 517.335 0.585699 1.46312 0
M  V30 5250 C 518.584 0.0701192 2.01578 0
M  V30 5251 C 518.897 -1.29889 1.46247 0
M  V30 5252 O 520.103 -1.90598 1.93351 0
M  V30 5253 C 518.559 0.0747499 3.59822 0
M  V30 5254 C 518.167 1.44226 4.24149 0
M  V30 5255 C 519.911 -0.38673 4.22735 0
M  V30 5256 C 517.818 1.40446 5.74481 0
M  V30 5257 H 516.748 0.0224441 0.753666 0
M  V30 5258 H 519.399 0.737789 1.68015 0
M  V30 5259 H 517.781 -0.659144 3.90476 0
M  V30 5260 H 518.955 2.19612 4.05101 0
M  V30 5261 H 517.27 1.84401 3.73343 0
M  V30 5262 H 519.867 -0.433853 5.32937 0
M  V30 5263 H 520.21 -1.40489 3.91878 0
M  V30 5264 H 520.743 0.293195 3.96718 0
M  V30 5265 H 517.482 2.39952 6.10003 0
M  V30 5266 H 517.002 0.692845 5.95785 0
M  V30 5267 H 518.681 1.11865 6.37256 0
M  V30 5268 N 518.813 -1.54241 0.323641 0
M  V30 5269 C 520.224 -1.85975 -0.164405 0
M  V30 5270 C 520.575 -1.24529 -1.51615 0
M  V30 5271 O 519.7 -0.551351 -2.09258 0
M  V30 5272 C 520.295 -3.37424 -0.305091 0
M  V30 5273 C 518.854 -3.69107 -0.737358 0
M  V30 5274 C 518.001 -2.76942 0.140884 0
M  V30 5275 H 520.952 -1.49088 0.543922 0
M  V30 5276 H 520.973 -3.63147 -1.13598 0
M  V30 5277 H 520.485 -3.82116 0.678876 0
M  V30 5278 H 518.586 -3.29947 -1.73107 0
M  V30 5279 H 518.699 -4.76035 -0.541053 0
M  V30 5280 H 517.063 -2.51795 -0.383572 0
M  V30 5281 H 517.846 -3.24461 1.12162 0
M  V30 5282 N 520.291 -0.0518155 -1.57515 0
M  V30 5283 C 521.568 0.661727 -1.84067 0
M  V30 5284 C 521.948 1.88999 -0.940351 0
M  V30 5285 O 521.296 2.285 -0.00155404 0
M  V30 5286 C 521.506 1.01841 -3.3381 0
M  V30 5287 C 522.854 1.40043 -4.00841 0
M  V30 5288 O 523.878 1.11073 -3.38439 0
M  V30 5289 O 522.737 1.94111 -5.10865 0
M  V30 5290 H 519.831 0.326702 -0.759733 0
M  V30 5291 H 522.377 -0.0812277 -1.69505 0
M  V30 5292 H 521.149 0.145202 -3.91031 0
M  V30 5293 H 520.772 1.81879 -3.53562 0
M  V30 5294 N 521.769 1.56035 0.221574 0
M  V30 5295 C 522.732 1.91584 1.2581 0
M  V30 5296 C 523.732 0.794425 1.39805 0
M  V30 5297 O 524.922 1.06217 1.38071 0
M  V30 5298 C 522.054 2.16663 2.63192 0
M  V30 5299 H 523.247 2.8429 0.954935 0
M  V30 5300 H 520.8 1.49316 0.461988 0
M  V30 5301 H 521.535 1.26508 2.98607 0
M  V30 5302 H 521.32 2.98358 2.5441 0
M  V30 5303 H 522.81 2.45262 3.37988 0
M  V30 5304 N 523.247 -0.488276 1.49845 0
M  V30 5305 C 524.494 -1.24157 1.59973 0
M  V30 5306 C 524.822 -1.92293 0.292182 0
M  V30 5307 O 524.077 -1.81942 -0.720813 0
M  V30 5308 C 524.376 -2.32152 2.71735 0
M  V30 5309 C 524.042 -1.81387 4.12807 0
M  V30 5310 C 522.704 -1.67262 4.51195 0
M  V30 5311 C 525.056 -1.43537 5.01045 0
M  V30 5312 C 522.384 -1.13685 5.7558 0
M  V30 5313 C 524.736 -0.914081 6.25961 0
M  V30 5314 C 523.4 -0.759327 6.63167 0
M  V30 5315 H 522.67 -0.454322 0.585383 0
M  V30 5316 H 525.317 -0.540261 1.83721 0
M  V30 5317 H 523.622 -3.08122 2.42008 0
M  V30 5318 H 525.319 -2.90164 2.76778 0
M  V30 5319 H 521.909 -1.93344 3.82513 0
M  V30 5320 H 526.093 -1.53292 4.72033 0
M  V30 5321 H 521.349 -1.00426 6.03096 0
M  V30 5322 H 525.523 -0.612066 6.93705 0
M  V30 5323 H 523.15 -0.342002 7.5943 0
M  V30 5324 N 524.725 -1.39134 -0.740242 0
M  V30 5325 C 526.002 -1.26584 -1.49117 0
M  V30 5326 C 526.382 0.126902 -2.10718 0
M  V30 5327 O 525.73 1.13765 -1.98166 0
M  V30 5328 C 525.94 -2.38619 -2.54681 0
M  V30 5329 C 527.288 -2.77685 -3.21211 0
M  V30 5330 O 528.312 -2.38029 -2.64991 0
M  V30 5331 O 527.171 -3.46115 -4.22926 0
M  V30 5332 H 524.265 -0.495769 -0.661923 0
M  V30 5333 H 526.811 -1.50995 -0.774514 0
M  V30 5334 H 525.583 -3.3175 -2.07504 0
M  V30 5335 H 525.206 -2.15845 -3.33911 0
M  V30 5336 N 526.204 0.969867 -1.24223 0
M  V30 5337 C 527.615 1.52717 -1.07399 0
M  V30 5338 C 527.966 1.92956 0.355298 0
M  V30 5339 O 527.091 1.77112 1.2434 0
M  V30 5340 C 527.686 2.77521 -1.94339 0
M  V30 5341 C 526.245 3.29615 -1.81744 0
M  V30 5342 C 525.392 2.02537 -1.89405 0
M  V30 5343 H 528.343 0.788399 -1.37732 0
M  V30 5344 H 528.364 3.50773 -1.47439 0
M  V30 5345 H 527.876 2.48203 -2.98357 0
M  V30 5346 H 525.977 3.63789 -0.805505 0
M  V30 5347 H 526.09 3.98661 -2.65718 0
M  V30 5348 H 524.454 2.17151 -1.33108 0
M  V30 5349 H 525.237 1.75587 -2.94999 0
M  V30 5350 N 527.682 1.05563 1.17022 0
M  V30 5351 C 528.907 0.788437 1.91829 0
M  V30 5352 C 529.332 -0.650356 1.76499 0
M  V30 5353 O 528.69 -1.45229 1.08527 0
M  V30 5354 C 528.738 1.1786 3.40795 0
M  V30 5355 O 527.842 0.312965 4.11211 0
M  V30 5356 H 527.183 0.288794 0.597908 0
M  V30 5357 H 529.713 1.40948 1.48307 0
M  V30 5358 H 529.723 1.14697 3.91546 0
M  V30 5359 H 528.398 2.22666 3.51273 0
M  V30 5360 H 526.975 0.405515 3.70689 0
M  V30 5361 N 529.16 -1.33526 0.837174 0
M  V30 5362 C 530.107 -2.29248 0.267169 0
M  V30 5363 C 531.077 -1.54252 -0.616071 0
M  V30 5364 O 532.262 -1.82559 -0.554699 0
M  V30 5365 C 529.402 -3.40638 -0.553152 0
M  V30 5366 C 528.515 -4.30548 0.353921 0
M  V30 5367 C 527.65 -5.29051 -0.477339 0
M  V30 5368 C 526.689 -6.106 0.42823 0
M  V30 5369 N 525.826 -7.01152 -0.364801 0
M  V30 5370 H 530.666 -2.77398 1.08877 0
M  V30 5371 H 528.203 -1.36496 0.54838 0
M  V30 5372 H 530.161 -4.03921 -1.04422 0
M  V30 5373 H 528.791 -2.93685 -1.33973 0
M  V30 5374 H 527.843 -3.68001 0.963289 0
M  V30 5375 H 529.155 -4.87631 1.04964 0
M  V30 5376 H 528.309 -5.97853 -1.0323 0
M  V30 5377 H 527.048 -4.72541 -1.2065 0
M  V30 5378 H 526.053 -5.40718 0.995219 0
M  V30 5379 H 527.278 -6.69193 1.15573 0
M  V30 5380 H 525.224 -6.47092 -1.07738 0
M  V30 5381 H 525.141 -7.5551 0.272238 0
M  V30 5382 H 526.409 -7.74263 -0.902054 0
M  V30 5383 N 530.638 -0.59345 -1.46 0
M  V30 5384 C 531.585 0.133618 -2.30413 0
M  V30 5385 C 532.555 0.873736 -1.41262 0
M  V30 5386 O 533.74 0.862279 -1.70204 0
M  V30 5387 C 530.88 1.13434 -3.25924 0
M  V30 5388 C 529.993 0.39656 -4.30176 0
M  V30 5389 C 529.128 1.38575 -5.12806 0
M  V30 5390 C 528.167 0.634984 -6.08797 0
M  V30 5391 N 527.304 1.57276 -6.84258 0
M  V30 5392 H 532.144 -0.592252 -2.92055 0
M  V30 5393 H 529.681 -0.303874 -1.43927 0
M  V30 5394 H 531.639 1.72752 -3.79753 0
M  V30 5395 H 530.269 1.82779 -2.66067 0
M  V30 5396 H 529.321 -0.311861 -3.79119 0
M  V30 5397 H 530.633 -0.189869 -4.98438 0
M  V30 5398 H 529.787 2.05141 -5.70966 0
M  V30 5399 H 528.526 2.00611 -4.44529 0
M  V30 5400 H 527.531 -0.0443925 -5.49782 0
M  V30 5401 H 528.756 0.0198678 -6.79097 0
M  V30 5402 H 526.702 2.18103 -6.18682 0
M  V30 5403 H 526.619 1.03941 -7.48821 0
M  V30 5404 H 527.887 2.22844 -7.46968 0
M  V30 5405 N 532.116 1.54067 -0.331816 0
M  V30 5406 C 533.066 2.21363 0.546101 0
M  V30 5407 C 534.05 1.19698 1.07523 0
M  V30 5408 O 535.242 1.45293 1.01088 0
M  V30 5409 C 532.371 2.98115 1.70242 0
M  V30 5410 C 531.457 4.07127 1.18779 0
M  V30 5411 N 531.848 5.04267 0.393465 0
M  V30 5412 C 530.146 4.21226 1.46576 0
M  V30 5413 C 530.847 5.81585 0.115572 0
M  V30 5414 N 529.823 5.39022 0.703987 0
M  V30 5415 H 533.625 2.93821 -0.0679751 0
M  V30 5416 H 531.139 1.61812 -0.138085 0
M  V30 5417 H 533.136 3.44818 2.34321 0
M  V30 5418 H 531.796 2.27181 2.31989 0
M  V30 5419 H 532.807 5.17888 0.0355757 0
M  V30 5420 H 529.484 3.61509 2.08848 0
M  V30 5421 H 530.874 6.6985 -0.524426 0
M  V30 5422 N 533.594 0.0601682 1.57485 0
M  V30 5423 C 535.01 -0.296422 1.56823 0
M  V30 5424 C 535.21 -1.70831 1.0686 0
M  V30 5425 O 534.266 -2.4174 0.729245 0
M  V30 5426 C 535.579 -0.116681 3.00474 0
M  V30 5427 C 537.127 -0.187103 3.1244 0
M  V30 5428 C 537.602 -0.035783 4.57986 0
M  V30 5429 N 539.093 -0.0917676 4.63109 0
M  V30 5430 C 539.828 0.00107251 5.734 0
M  V30 5431 N 539.324 0.146773 6.92645 0
M  V30 5432 N 541.117 -0.0551577 5.62073 0
M  V30 5433 H 533.268 0.983055 1.88281 0
M  V30 5434 H 535.531 0.382386 0.867459 0
M  V30 5435 H 535.237 0.85712 3.41096 0
M  V30 5436 H 535.111 -0.873929 3.66936 0
M  V30 5437 H 537.498 -1.15138 2.71712 0
M  V30 5438 H 537.579 0.601052 2.48638 0
M  V30 5439 H 537.223 0.925212 4.99402 0
M  V30 5440 H 537.153 -0.843196 5.19806 0
M  V30 5441 H 539.644 -0.203261 3.77353 0
M  V30 5442 H 539.957 0.210076 7.72514 0
M  V30 5443 H 538.302 0.181979 6.94762 0
M  V30 5444 H 541.493 -0.167605 4.678 0
M  V30 5445 H 541.666 0.020652 6.47997 0
M  V30 5446 N 535.072 -1.5615 -0.213296 0
M  V30 5447 C 536.483 -1.69645 -0.779582 0
M  V30 5448 C 536.834 -0.663615 -1.84636 0
M  V30 5449 O 535.959 0.183633 -2.15619 0
M  V30 5450 C 536.554 -3.07567 -1.42084 0
M  V30 5451 C 535.113 -3.22889 -1.93442 0
M  V30 5452 C 534.26 -2.65581 -0.797612 0
M  V30 5453 H 537.211 -1.58696 0.0114951 0
M  V30 5454 H 537.232 -3.03884 -2.28986 0
M  V30 5455 H 536.744 -3.82716 -0.644187 0
M  V30 5456 H 534.845 -2.52623 -2.73884 0
M  V30 5457 H 534.958 -4.30197 -2.10872 0
M  V30 5458 H 533.322 -2.24278 -1.20712 0
M  V30 5459 H 534.105 -3.43284 -0.033494 0
M  V30 5460 N 536.55 0.480323 -1.50102 0
M  V30 5461 C 537.778 1.25657 -1.64371 0
M  V30 5462 C 538.193 1.86011 -0.323316 0
M  V30 5463 O 537.55 1.68803 0.693682 0
M  V30 5464 C 537.601 2.37197 -2.728 0
M  V30 5465 O 537.322 1.7932 -3.9972 0
M  V30 5466 C 538.823 3.2823 -2.9796 0
M  V30 5467 H 536.043 0.380369 -0.552775 0
M  V30 5468 H 538.587 0.574379 -1.96268 0
M  V30 5469 H 536.742 3.01208 -2.43623 0
M  V30 5470 H 537.156 2.52701 -4.59611 0
M  V30 5471 H 538.63 4.02725 -3.77513 0
M  V30 5472 H 539.107 3.86462 -2.08671 0
M  V30 5473 H 539.713 2.69964 -3.28633 0
M  V30 5474 N 538.028 1.39524 0.732853 0
M  V30 5475 C 538.961 1.32806 1.85574 0
M  V30 5476 C 539.939 0.201354 1.61348 0
M  V30 5477 O 541.123 0.38216 1.84585 0
M  V30 5478 C 538.25 1.06271 3.21596 0
M  V30 5479 C 537.296 2.21161 3.64678 0
M  V30 5480 S 538.129 3.83454 3.73796 0
M  V30 5481 C 539.285 3.59149 5.12604 0
M  V30 5482 H 539.518 2.27838 1.9099 0
M  V30 5483 H 537.051 1.25605 0.897927 0
M  V30 5484 H 539.009 0.916461 4.00139 0
M  V30 5485 H 537.67 0.129223 3.13834 0
M  V30 5486 H 536.863 1.98193 4.63396 0
M  V30 5487 H 536.465 2.32 2.93346 0
M  V30 5488 H 538.757 3.16547 5.99003 0
M  V30 5489 H 539.7 4.57335 5.40602 0
M  V30 5490 H 540.108 2.93203 4.82382 0
M  V30 5491 N 539.506 -0.963266 1.24736 0
M  V30 5492 C 540.436 -2.07628 1.06832 0
M  V30 5493 C 541.417 -1.70088 -0.0200566 0
M  V30 5494 O 542.602 -1.93636 0.147854 0
M  V30 5495 C 539.732 -3.40636 0.677069 0
M  V30 5496 C 538.686 -3.9215 1.71471 0
M  V30 5497 C 538.012 -5.21553 1.1784 0
M  V30 5498 C 539.312 -4.19493 3.11164 0
M  V30 5499 H 541.006 -2.22864 1.9993 0
M  V30 5500 H 538.552 -1.07093 0.96266 0
M  V30 5501 H 540.505 -4.17941 0.538792 0
M  V30 5502 H 539.229 -3.25313 -0.289612 0
M  V30 5503 H 537.888 -3.17005 1.84128 0
M  V30 5504 H 537.536 -5.02593 0.202195 0
M  V30 5505 H 537.236 -5.56988 1.87185 0
M  V30 5506 H 538.76 -6.01463 1.05233 0
M  V30 5507 H 540.174 -4.87487 3.01711 0
M  V30 5508 H 538.571 -4.66165 3.77902 0
M  V30 5509 H 539.641 -3.26097 3.58871 0
M  V30 5510 N 540.985 -1.06182 -1.16461 0
M  V30 5511 C 542.213 -0.798583 -1.90867 0
M  V30 5512 C 542.628 0.646921 -1.77371 0
M  V30 5513 O 541.985 1.44279 -1.11758 0
M  V30 5514 C 542.036 -1.18258 -3.4161 0
M  V30 5515 O 541.757 -2.57135 -3.54701 0
M  V30 5516 C 543.258 -0.946917 -4.33069 0
M  V30 5517 H 540.478 -0.289603 -0.605286 0
M  V30 5518 H 543.022 -1.41515 -1.47627 0
M  V30 5519 H 541.177 -0.610562 -3.82558 0
M  V30 5520 H 541.591 -2.72477 -4.4817 0
M  V30 5521 H 543.065 -1.26523 -5.37304 0
M  V30 5522 H 543.542 0.117406 -4.39043 0
M  V30 5523 H 544.148 -1.50326 -3.97847 0
M  V30 5524 N 542.463 1.3308 -0.844243 0
M  V30 5525 C 543.691 2.01808 -0.456203 0
M  V30 5526 C 544.106 1.63498 0.944131 0
M  V30 5527 O 543.463 0.85102 1.61443 0
M  V30 5528 C 543.514 3.56922 -0.573513 0
M  V30 5529 O 543.235 3.93851 -1.91868 0
M  V30 5530 C 544.736 4.42922 -0.183125 0
M  V30 5531 H 541.956 0.646273 -0.180477 0
M  V30 5532 H 544.5 1.69891 -1.1383 0
M  V30 5533 H 542.655 3.87352 0.0607367 0
M  V30 5534 H 543.069 4.88564 -1.90802 0
M  V30 5535 H 544.543 5.51093 -0.316241 0
M  V30 5536 H 545.02 4.30386 0.875477 0
M  V30 5537 H 545.626 4.1786 -0.792027 0
M  V30 5538 N 543.941 0.601185 1.45683 0
M  V30 5539 C 545.218 0.0261659 1.95582 0
M  V30 5540 C 545.598 -1.4399 1.5437 0
M  V30 5541 O 544.946 -2.13919 0.80318 0
M  V30 5542 C 545.156 0.217557 3.48321 0
M  V30 5543 C 546.504 0.0950076 4.24494 0
M  V30 5544 O 547.528 0.147345 3.55895 0
M  V30 5545 O 546.387 -0.025261 5.46494 0
M  V30 5546 H 543.481 -0.0393688 0.826062 0
M  V30 5547 H 546.027 0.670798 1.55879 0
M  V30 5548 H 544.799 1.23601 3.71266 0
M  V30 5549 H 544.422 -0.46264 3.94899 0
M  V30 5550 N 545.419 -1.53889 0.339982 0
M  V30 5551 C 546.349 -2.27843 -0.510856 0
M  V30 5552 C 547.33 -1.29267 -1.10563 0
M  V30 5553 O 548.515 -1.58104 -1.12768 0
M  V30 5554 C 545.645 -3.04857 -1.66372 0
M  V30 5555 C 544.599 -4.10907 -1.19746 0
M  V30 5556 C 543.925 -4.75855 -2.43857 0
M  V30 5557 C 545.225 -5.21435 -0.300501 0
M  V30 5558 H 546.919 -2.99212 0.106067 0
M  V30 5559 H 544.465 -1.43904 0.0524533 0
M  V30 5560 H 546.418 -3.5533 -2.26537 0
M  V30 5561 H 545.142 -2.31133 -2.30749 0
M  V30 5562 H 543.801 -3.61342 -0.618654 0
M  V30 5563 H 543.449 -3.9873 -3.06633 0
M  V30 5564 H 543.149 -5.47502 -2.13343 0
M  V30 5565 H 544.673 -5.2911 -3.04754 0
M  V30 5566 H 546.087 -5.67565 -0.80889 0
M  V30 5567 H 544.484 -6.00036 -0.0874076 0
M  V30 5568 H 545.554 -4.80328 0.664321 0
M  V30 5569 N 546.897 -0.0685191 -1.57451 0
M  V30 5570 C 548.122 0.613919 -1.98106 0
M  V30 5571 C 548.547 1.62551 -0.946501 0
M  V30 5572 O 547.905 1.81085 0.0882824 0
M  V30 5573 C 547.953 1.26189 -3.378 0
M  V30 5574 O 547.057 2.37773 -3.36954 0
M  V30 5575 H 546.398 0.158163 -0.644888 0
M  V30 5576 H 548.928 -0.142063 -2.04106 0
M  V30 5577 H 548.938 1.60951 -3.74912 0
M  V30 5578 H 547.613 0.520625 -4.12629 0
M  V30 5579 H 546.19 2.04829 -3.11608 0
M  V30 5580 N 548.375 1.56261 0.205012 0
M  V30 5581 C 549.305 1.96779 1.257 0
M  V30 5582 C 550.286 0.838309 1.48008 0
M  V30 5583 O 551.471 1.10189 1.59913 0
M  V30 5584 C 548.601 2.29876 2.60335 0
M  V30 5585 C 547.555 3.45469 2.52656 0
M  V30 5586 C 546.881 3.64215 3.91473 0
M  V30 5587 C 548.181 4.79954 2.06014 0
M  V30 5588 H 549.875 2.84904 0.920338 0
M  V30 5589 H 547.421 1.37072 0.441277 0
M  V30 5590 H 549.374 2.56814 3.34102 0
M  V30 5591 H 548.098 1.38622 2.95722 0
M  V30 5592 H 546.757 3.18605 1.81345 0
M  V30 5593 H 546.405 2.70309 4.24196 0
M  V30 5594 H 546.105 4.41973 3.87213 0
M  V30 5595 H 547.629 3.93519 4.66878 0
M  V30 5596 H 549.043 5.05989 2.69533 0
M  V30 5597 H 547.44 5.61111 2.12777 0
M  V30 5598 H 548.51 4.74201 1.01297 0
M  V30 5599 N 549.853 -0.472356 1.50355 0
M  V30 5600 C 551.269 -0.806001 1.37753 0
M  V30 5601 C 551.469 -1.968 0.432649 0
M  V30 5602 O 550.525 -2.52189 -0.12519 0
M  V30 5603 C 551.838 -1.11926 2.79093 0
M  V30 5604 C 553.386 -1.22579 2.87999 0
M  V30 5605 C 553.861 -1.57218 4.3017 0
M  V30 5606 N 555.352 -1.64212 4.33115 0
M  V30 5607 C 556.087 -1.92517 5.40116 0
M  V30 5608 N 555.583 -2.1885 6.57325 0
M  V30 5609 N 557.376 -1.94008 5.27558 0
M  V30 5610 H 549.527 0.293451 2.10363 0
M  V30 5611 H 551.79 0.0687672 0.945503 0
M  V30 5612 H 551.496 -0.338504 3.50067 0
M  V30 5613 H 551.37 -2.05577 3.16256 0
M  V30 5614 H 553.757 -1.99722 2.17245 0
M  V30 5615 H 553.838 -0.269107 2.54381 0
M  V30 5616 H 553.482 -0.806154 5.01461 0
M  V30 5617 H 553.412 -2.54034 4.61275 0
M  V30 5618 H 555.903 -1.45906 3.48597 0
M  V30 5619 H 556.216 -2.39718 7.3468 0
M  V30 5620 H 554.561 -2.16245 6.60502 0
M  V30 5621 H 557.752 -1.72931 4.34986 0
M  V30 5622 H 557.925 -2.15731 6.11035 0
M  V30 5623 N 551.331 -1.39911 -0.725443 0
M  V30 5624 C 552.578 -1.37654 -1.48518 0
M  V30 5625 C 552.906 0.0243982 -1.94485 0
M  V30 5626 O 552.161 1.00708 -1.67799 0
M  V30 5627 C 552.46 -2.30368 -2.7325 0
M  V30 5628 C 552.126 -3.77817 -2.461 0
M  V30 5629 C 550.788 -4.17991 -2.38405 0
M  V30 5630 C 553.14 -4.71036 -2.23103 0
M  V30 5631 C 550.468 -5.49433 -2.05768 0
M  V30 5632 C 552.82 -6.02766 -1.9198 0
M  V30 5633 C 551.484 -6.41993 -1.82761 0
M  V30 5634 H 550.754 -0.503713 -0.543465 0
M  V30 5635 H 553.401 -1.7249 -0.831822 0
M  V30 5636 H 551.706 -1.88683 -3.43375 0
M  V30 5637 H 553.403 -2.2591 -3.31309 0
M  V30 5638 H 549.993 -3.45982 -2.52972 0
M  V30 5639 H 554.177 -4.40823 -2.2801 0
M  V30 5640 H 549.433 -5.78738 -1.9716 0
M  V30 5641 H 553.607 -6.74519 -1.73197 0
M  V30 5642 H 551.234 -7.43761 -1.57237 0
M  V30 5643 N 552.809 0.956637 -1.25245 0
M  V30 5644 C 554.086 1.67716 -1.00651 0
M  V30 5645 C 554.466 2.0585 0.467866 0
M  V30 5646 O 553.814 1.77029 1.44475 0
M  V30 5647 C 554.024 2.90093 -1.94028 0
M  V30 5648 C 555.372 3.6209 -2.21756 0
M  V30 5649 O 556.396 3.00171 -1.9177 0
M  V30 5650 O 555.255 4.7358 -2.72735 0
M  V30 5651 H 552.349 0.733731 -0.381533 0
M  V30 5652 H 554.895 1.00974 -1.3639 0
M  V30 5653 H 553.667 2.58689 -2.93591 0
M  V30 5654 H 553.29 3.64566 -1.58674 0
M  V30 5655 N 554.287 1.06798 1.15896 0
M  V30 5656 C 555.698 0.811355 1.68149 0
M  V30 5657 C 556.049 -0.664339 1.8461 0
M  V30 5658 O 555.174 -1.51485 1.54535 0
M  V30 5659 C 555.769 1.46624 3.05429 0
M  V30 5660 C 554.328 1.25726 3.54781 0
M  V30 5661 C 553.475 1.53949 2.3064 0
M  V30 5662 H 556.426 1.23078 1.00187 0
M  V30 5663 H 556.447 0.88437 3.7008 0
M  V30 5664 H 555.959 2.54025 2.93416 0
M  V30 5665 H 554.06 0.20322 3.72045 0
M  V30 5666 H 554.173 1.97354 4.36564 0
M  V30 5667 H 552.537 0.96025 2.35905 0
M  V30 5668 H 553.32 2.6252 2.2122 0
M  V30 5669 N 555.766 -1.3263 0.851289 0
M  V30 5670 C 556.729 -2.27247 0.298541 0
M  V30 5671 C 557.729 -1.51467 -0.539847 0
M  V30 5672 O 558.919 -1.7061 -0.351843 0
M  V30 5673 C 556.051 -3.35964 -0.578004 0
M  V30 5674 H 557.244 -2.7765 1.13359 0
M  V30 5675 H 554.797 -1.43245 0.625354 0
M  V30 5676 H 555.532 -2.90823 -1.435 0
M  V30 5677 H 555.317 -3.92094 0.0220539 0
M  V30 5678 H 556.807 -4.06472 -0.957626 0
M  V30 5679 N 557.244 -0.608902 -1.45362 0
M  V30 5680 C 558.474 -0.110852 -2.06302 0
M  V30 5681 C 558.882 1.21062 -1.45398 0
M  V30 5682 O 558.225 1.74861 -0.562976 0
M  V30 5683 C 558.287 0.101793 -3.59356 0
M  V30 5684 C 557.951 -1.13808 -4.42602 0
M  V30 5685 C 558.948 -2.05653 -4.77496 0
M  V30 5686 C 556.633 -1.36727 -4.83333 0
M  V30 5687 C 558.627 -3.18745 -5.51978 0
M  V30 5688 C 556.314 -2.5012 -5.57569 0
M  V30 5689 C 557.312 -3.40957 -5.91809 0
M  V30 5690 O 557 -4.52376 -6.64538 0
M  V30 5691 H 556.732 -0.0666001 -0.672711 0
M  V30 5692 H 559.286 -0.836942 -1.87575 0
M  V30 5693 H 557.516 0.88279 -3.76489 0
M  V30 5694 H 559.205 0.551607 -4.02134 0
M  V30 5695 H 559.971 -1.89172 -4.46586 0
M  V30 5696 H 555.85 -0.669216 -4.56117 0
M  V30 5697 H 559.394 -3.8967 -5.78622 0
M  V30 5698 H 555.291 -2.66553 -5.87894 0
M  V30 5699 H 556.059 -4.51075 -6.82989 0
M  V30 5700 N 558.722 1.53707 -0.348139 0
M  V30 5701 C 559.632 2.28881 0.514857 0
M  V30 5702 C 560.648 1.34168 1.10793 0
M  V30 5703 O 561.824 1.6721 1.12262 0
M  V30 5704 C 558.889 3.05042 1.64774 0
M  V30 5705 C 557.95 4.15389 1.08398 0
M  V30 5706 C 557.183 4.87909 2.16287 0
M  V30 5707 O 557.406 4.60137 3.3709 0
M  V30 5708 O 556.34 5.74254 1.80323 0
M  V30 5709 H 560.166 3.03547 -0.0963699 0
M  V30 5710 H 557.751 1.48972 -0.113043 0
M  V30 5711 H 559.633 3.52656 2.30677 0
M  V30 5712 H 558.308 2.33228 2.24469 0
M  V30 5713 H 557.215 3.72068 0.389341 0
M  V30 5714 H 558.548 4.89318 0.531829 0
M  V30 5715 N 560.2 0.0768682 1.57412 0
M  V30 5716 C 561.147 -0.888577 2.13009 0
M  V30 5717 C 562.117 -1.29198 1.0439 0
M  V30 5718 O 563.302 -1.37694 1.3208 0
M  V30 5719 C 560.442 -2.14899 2.70023 0
M  V30 5720 C 559.555 -1.79777 3.92816 0
M  V30 5721 C 558.69 -3.00467 4.38056 0
M  V30 5722 C 557.729 -2.61385 5.53484 0
M  V30 5723 N 556.866 -3.74851 5.93659 0
M  V30 5724 H 561.706 -0.407593 2.95199 0
M  V30 5725 H 559.243 -0.189534 1.45874 0
M  V30 5726 H 561.201 -2.88688 3.0119 0
M  V30 5727 H 559.831 -2.60529 1.9059 0
M  V30 5728 H 558.883 -0.960301 3.68079 0
M  V30 5729 H 560.195 -1.47027 4.76639 0
M  V30 5730 H 559.349 -3.82529 4.7091 0
M  V30 5731 H 558.088 -3.36413 3.53097 0
M  V30 5732 H 557.093 -1.77746 5.20275 0
M  V30 5733 H 558.318 -2.26603 6.40178 0
M  V30 5734 H 556.264 -4.1055 5.11649 0
M  V30 5735 H 556.181 -3.45887 6.72234 0
M  V30 5736 H 557.449 -4.57477 6.31138 0
M  V30 5737 N 561.678 -1.56367 -0.196722 0
M  V30 5738 C 562.927 -1.79724 -0.915539 0
M  V30 5739 C 563.24 -0.649804 -1.84491 0
M  V30 5740 O 564.446 -0.767631 -2.60422 0
M  V30 5741 C 562.902 -3.18369 -1.67836 0
M  V30 5742 C 562.51 -4.4091 -0.793897 0
M  V30 5743 C 564.254 -3.51037 -2.38691 0
M  V30 5744 C 562.161 -5.70577 -1.55549 0
M  V30 5745 H 561.091 -0.67013 -0.345604 0
M  V30 5746 H 563.742 -1.82721 -0.168856 0
M  V30 5747 H 562.124 -3.09617 -2.46887 0
M  V30 5748 H 563.298 -4.60781 -0.042163 0
M  V30 5749 H 561.613 -4.15937 -0.19626 0
M  V30 5750 H 564.21 -4.4515 -2.96219 0
M  V30 5751 H 564.553 -2.74704 -3.12799 0
M  V30 5752 H 565.086 -3.61229 -1.66608 0
M  V30 5753 H 561.825 -6.49871 -0.857226 0
M  V30 5754 H 561.345 -5.54726 -2.2812 0
M  V30 5755 H 563.024 -6.11637 -2.10971 0
M  V30 5756 N 563.156 0.464375 -1.50603 0
M  V30 5757 C 564.381 1.24372 -1.65971 0
M  V30 5758 C 564.806 1.84901 -0.345453 0
M  V30 5759 O 564.164 1.67596 0.691457 0
M  V30 5760 C 564.212 2.32331 -2.7578 0
M  V30 5761 O 563.316 3.37146 -2.375 0
M  V30 5762 H 562.657 0.365604 -0.554283 0
M  V30 5763 H 565.187 0.55183 -1.97018 0
M  V30 5764 H 565.197 2.77539 -2.99059 0
M  V30 5765 H 563.872 1.87648 -3.71162 0
M  V30 5766 H 562.449 2.97602 -2.24694 0
M  V30 5767 N 564.634 1.40294 0.718013 0
M  V30 5768 C 566.05 1.2227 1.02577 0
M  V30 5769 C 566.25 0.0961976 2.0127 0
M  V30 5770 O 565.306 -0.546695 2.46511 0
M  V30 5771 C 566.619 2.56348 1.57182 0
M  V30 5772 C 568.167 2.6334 1.69178 0
M  V30 5773 C 568.642 3.9768 2.27188 0
M  V30 5774 N 570.133 3.99409 2.34578 0
M  V30 5775 C 570.868 5.00141 2.8044 0
M  V30 5776 N 570.364 6.11268 3.26073 0
M  V30 5777 N 572.157 4.87511 2.79802 0
M  V30 5778 H 564.308 2.12304 0.0637899 0
M  V30 5779 H 566.571 0.943632 0.0909036 0
M  V30 5780 H 566.277 3.3942 0.921262 0
M  V30 5781 H 566.151 2.77266 2.55741 0
M  V30 5782 H 568.538 1.80641 2.33351 0
M  V30 5783 H 568.619 2.46255 0.692247 0
M  V30 5784 H 568.263 4.80817 1.63638 0
M  V30 5785 H 568.193 4.12093 3.27852 0
M  V30 5786 H 570.684 3.19162 2.02346 0
M  V30 5787 H 570.997 6.84023 3.59628 0
M  V30 5788 H 569.342 6.14837 3.24038 0
M  V30 5789 H 572.533 3.9979 2.43487 0
M  V30 5790 H 572.706 5.66158 3.15228 0
M  V30 5791 N 566.112 -0.949982 1.2575 0
M  V30 5792 C 567.528 -1.22191 1.02672 0
M  V30 5793 C 567.728 -1.99898 -0.253588 0
M  V30 5794 O 566.784 -2.33329 -0.965076 0
M  V30 5795 C 568.097 -1.99175 2.25277 0
M  V30 5796 C 569.645 -2.12201 2.30087 0
M  V30 5797 C 570.12 -2.92586 3.5236 0
M  V30 5798 N 571.611 -3.00163 3.52784 0
M  V30 5799 C 572.346 -3.62766 4.44059 0
M  V30 5800 N 571.842 -4.26943 5.45611 0
M  V30 5801 N 573.635 -3.59953 4.3173 0
M  V30 5802 H 565.786 -0.430258 2.07996 0
M  V30 5803 H 568.049 -0.252844 0.91366 0
M  V30 5804 H 567.755 -1.49479 3.18354 0
M  V30 5805 H 567.629 -2.99868 2.28821 0
M  V30 5806 H 570.016 -2.61093 1.3753 0
M  V30 5807 H 570.097 -1.10799 2.30559 0
M  V30 5808 H 569.741 -2.44383 4.45241 0
M  V30 5809 H 569.671 -3.94224 3.49134 0
M  V30 5810 H 572.162 -2.54529 2.79327 0
M  V30 5811 H 572.475 -4.72583 6.11461 0
M  V30 5812 H 570.82 -4.25557 5.49478 0
M  V30 5813 H 574.011 -3.09003 3.51617 0
M  V30 5814 H 574.184 -4.08455 5.03059 0
M  V30 5815 N 567.59 -1.07411 -1.15328 0
M  V30 5816 C 568.837 -0.797649 -1.86128 0
M  V30 5817 C 569.165 0.676298 -1.82364 0
M  V30 5818 O 568.42 1.51223 -1.24218 0
M  V30 5819 C 568.719 -1.25191 -3.34757 0
M  V30 5820 C 568.385 -2.73191 -3.58716 0
M  V30 5821 C 567.047 -3.13616 -3.64964 0
M  V30 5822 C 569.399 -3.68718 -3.6837 0
M  V30 5823 C 566.727 -4.48383 -3.78377 0
M  V30 5824 C 569.079 -5.03248 -3.83306 0
M  V30 5825 C 567.743 -5.43293 -3.878 0
M  V30 5826 H 567.013 -0.29188 -0.681092 0
M  V30 5827 H 569.66 -1.34524 -1.36292 0
M  V30 5828 H 567.965 -0.623712 -3.86804 0
M  V30 5829 H 569.662 -1.01489 -3.87945 0
M  V30 5830 H 566.252 -2.40898 -3.54494 0
M  V30 5831 H 570.436 -3.38614 -3.62842 0
M  V30 5832 H 565.692 -4.78877 -3.80114 0
M  V30 5833 H 569.866 -5.77142 -3.89718 0
M  V30 5834 H 567.493 -6.47721 -3.97946 0
M  V30 5835 N 569.068 1.32177 -0.85831 0
M  V30 5836 C 570.018 2.26307 -0.277307 0
M  V30 5837 C 571.002 1.50123 0.578946 0
M  V30 5838 O 572.194 1.71754 0.427731 0
M  V30 5839 C 569.323 3.39181 0.530232 0
M  V30 5840 C 568.409 4.22746 -0.338613 0
M  V30 5841 N 568.8 4.85265 -1.4266 0
M  V30 5842 C 567.098 4.45813 -0.129 0
M  V30 5843 C 567.799 5.47634 -1.96142 0
M  V30 5844 N 566.775 5.28794 -1.26007 0
M  V30 5845 H 570.577 2.72173 -1.10902 0
M  V30 5846 H 568.091 1.46308 -0.704816 0
M  V30 5847 H 570.088 4.05628 0.962904 0
M  V30 5848 H 568.748 2.9486 1.35969 0
M  V30 5849 H 569.759 4.85259 -1.80953 0
M  V30 5850 H 566.436 4.12163 0.665451 0
M  V30 5851 H 567.826 6.0735 -2.8736 0
M  V30 5852 N 570.547 0.616602 1.45037 0
M  V30 5853 C 571.457 -0.0985401 2.34393 0
M  V30 5854 C 572.473 -0.850971 1.51771 0
M  V30 5855 O 573.649 -0.806521 1.84546 0
M  V30 5856 C 570.714 -1.07748 3.29532 0
M  V30 5857 C 569.775 -0.326022 4.2806 0
M  V30 5858 C 569.008 -1.25833 5.18654 0
M  V30 5859 O 569.231 -2.49652 5.12864 0
M  V30 5860 O 568.165 -0.750512 5.97203 0
M  V30 5861 H 571.991 0.636016 2.96966 0
M  V30 5862 H 569.576 0.376832 1.44569 0
M  V30 5863 H 571.458 -1.64107 3.88133 0
M  V30 5864 H 570.133 -1.79291 2.69512 0
M  V30 5865 H 569.04 0.280253 3.73049 0
M  V30 5866 H 570.373 0.349091 4.9096 0
M  V30 5867 N 572.025 -1.5352 0.356285 0
M  V30 5868 C 572.973 -2.26945 -0.50978 0
M  V30 5869 C 573.967 -1.29569 -1.09125 0
M  V30 5870 O 575.173 -1.47231 -1.03552 0
M  V30 5871 H 571.548 -0.729368 -0.183102 0
M  V30 5872 H 573.519 -2.98111 0.131374 0
M  V30 5873 C 572.268 -3.06466 -1.64237 0
M  V30 5874 H 571.591 -3.81233 -1.20423 0
M  V30 5875 H 573.031 -3.61035 -2.22327 0
M  V30 5876 C 571.49 -2.16737 -2.57928 0
M  V30 5877 O 572.02 -1.77195 -3.60507 0
M  V30 5878 N 570.226 -1.81558 -2.26903 0
M  V30 5879 H 569.773 -2.13913 -1.43524 0
M  V30 5880 H 569.731 -1.21806 -2.89846 0
M  V30 5881 N 573.503 -0.0852151 -1.57369 0
M  V30 5882 C 574.914 0.445428 -1.81309 0
M  V30 5883 C 575.265 1.68795 -1.00013 0
M  V30 5884 O 574.39 2.15211 -0.226573 0
M  V30 5885 C 574.985 0.814887 -3.28854 0
M  V30 5886 C 573.544 1.29032 -3.53592 0
M  V30 5887 C 572.691 0.282089 -2.75861 0
M  V30 5888 H 575.642 -0.310771 -1.55627 0
M  V30 5889 H 575.663 1.67524 -3.41637 0
M  V30 5890 H 575.175 -0.0896309 -3.87996 0
M  V30 5891 H 573.276 2.21289 -2.9977 0
M  V30 5892 H 573.389 1.25898 -4.62262 0
M  V30 5893 H 571.753 0.762182 -2.43029 0
M  V30 5894 H 572.536 -0.614936 -3.37748 0
M  V30 5895 N 574.981 1.5647 0.188427 0
M  V30 5896 C 575.891 1.98285 1.2538 0
M  V30 5897 C 576.907 0.891535 1.49424 0
M  V30 5898 O 578.083 1.19782 1.61908 0
M  V30 5899 C 575.148 2.31965 2.57669 0
M  V30 5900 C 574.209 3.54838 2.41638 0
M  V30 5901 C 573.442 3.86901 3.67618 0
M  V30 5902 O 573.665 3.20163 4.72072 0
M  V30 5903 O 572.599 4.80309 3.62749 0
M  V30 5904 H 576.425 2.89145 0.928912 0
M  V30 5905 H 574.01 1.44112 0.393955 0
M  V30 5906 H 575.892 2.54673 3.35737 0
M  V30 5907 H 574.567 1.44271 2.89771 0
M  V30 5908 H 573.474 3.37369 1.61658 0
M  V30 5909 H 574.807 4.43019 2.14465 0
M  V30 5910 N 576.459 -0.456382 1.50847 0
M  V30 5911 C 577.391 -1.57033 1.66953 0
M  V30 5912 C 578.404 -1.53207 0.550593 0
M  V30 5913 O 579.593 -1.58328 0.824285 0
M  V30 5914 C 576.693 -2.95937 1.65149 0
M  V30 5915 C 575.866 -3.24475 2.93317 0
M  V30 5916 C 574.925 -4.43007 2.83957 0
M  V30 5917 O 573.951 -4.42592 3.57912 0
M  V30 5918 N 575.153 -5.45503 1.9851 0
M  V30 5919 H 577.918 -1.43629 2.63042 0
M  V30 5920 H 575.479 -0.645037 1.48495 0
M  V30 5921 H 577.471 -3.73224 1.56481 0
M  V30 5922 H 576.041 -3.03036 0.767343 0
M  V30 5923 H 575.261 -2.35664 3.16 0
M  V30 5924 H 576.549 -3.4036 3.78196 0
M  V30 5925 H 575.947 -5.48668 1.37766 0
M  V30 5926 H 574.504 -6.21716 1.95735 0
M  V30 5927 N 577.937 -1.40673 -0.710563 0
M  V30 5928 C 579.184 -1.39222 -1.47049 0
M  V30 5929 C 579.512 0.0037691 -1.945 0
M  V30 5930 O 578.767 0.989224 -1.68857 0
M  V30 5931 C 579.066 -2.33253 -2.70791 0
M  V30 5932 C 578.732 -3.80406 -2.42079 0
M  V30 5933 C 577.394 -4.20496 -2.33959 0
M  V30 5934 C 579.746 -4.73375 -2.18094 0
M  V30 5935 C 577.074 -5.51584 -1.99929 0
M  V30 5936 C 579.426 -6.04768 -1.85576 0
M  V30 5937 C 578.09 -6.43895 -1.75941 0
M  V30 5938 H 577.36 -0.509449 -0.538092 0
M  V30 5939 H 580.007 -1.73363 -0.81348 0
M  V30 5940 H 578.312 -1.92314 -3.41354 0
M  V30 5941 H 580.009 -2.29412 -3.28894 0
M  V30 5942 H 576.599 -3.48645 -2.49288 0
M  V30 5943 H 580.783 -4.43217 -2.23321 0
M  V30 5944 H 576.039 -5.80797 -1.91011 0
M  V30 5945 H 580.213 -6.76318 -1.66033 0
M  V30 5946 H 577.84 -7.45387 -1.4934 0
M  V30 5947 N 579.415 0.9433 -1.26252 0
M  V30 5948 C 580.378 2.02326 -1.07689 0
M  V30 5949 C 581.378 1.60779 -0.0259174 0
M  V30 5950 O 582.568 1.72108 -0.269134 0
M  V30 5951 C 579.7 3.34886 -0.63752 0
M  V30 5952 H 580.893 2.20225 -2.0357 0
M  V30 5953 H 578.446 1.12197 -1.08819 0
M  V30 5954 H 579.181 3.22684 0.323377 0
M  V30 5955 H 578.966 3.66393 -1.39637 0
M  V30 5956 H 580.456 4.14231 -0.529418 0
M  V30 5957 N 580.893 1.08022 1.14757 0
M  V30 5958 C 582.17 0.720386 1.81851 0
M  V30 5959 C 582.55 -0.796375 1.95502 0
M  V30 5960 O 581.898 -1.71339 1.51179 0
M  V30 5961 C 582.108 1.44273 3.17783 0
M  V30 5962 C 583.456 1.59925 3.93331 0
M  V30 5963 O 584.48 1.40407 3.2736 0
M  V30 5964 O 583.339 1.92096 5.11626 0
M  V30 5965 H 580.433 0.257142 0.786007 0
M  V30 5966 H 582.979 1.18155 1.21809 0
M  V30 5967 H 581.751 2.47618 3.02987 0
M  V30 5968 H 581.374 0.97279 3.85516 0
M  V30 5969 N 582.371 -1.3172 0.865308 0
M  V30 5970 C 583.334 -2.26918 0.322627 0
M  V30 5971 C 584.334 -1.52031 -0.523751 0
M  V30 5972 O 585.524 -1.70973 -0.333727 0
M  V30 5973 C 582.656 -3.36558 -0.542338 0
M  V30 5974 H 583.849 -2.76432 1.16298 0
M  V30 5975 H 581.402 -1.42573 0.640512 0
M  V30 5976 H 582.137 -2.92329 -1.40407 0
M  V30 5977 H 581.922 -3.92048 0.0636395 0
M  V30 5978 H 583.412 -4.07465 -0.91446 0
M  V30 5979 N 583.85 -0.624285 -1.44708 0
M  V30 5980 C 585.096 -0.126051 -2.02107 0
M  V30 5981 C 585.425 1.2496 -1.49048 0
M  V30 5982 O 584.68 1.84163 -0.662005 0
M  V30 5983 C 584.979 -0.0546353 -3.57358 0
M  V30 5984 C 584.644 -1.36815 -4.29642 0
M  V30 5985 C 583.307 -1.72792 -4.49106 0
M  V30 5986 C 585.659 -2.23549 -4.70824 0
M  V30 5987 C 582.986 -2.95222 -5.07012 0
M  V30 5988 C 585.339 -3.45243 -5.30085 0
M  V30 5989 C 584.003 -3.81452 -5.47769 0
M  V30 5990 H 583.273 -0.0461252 -0.739563 0
M  V30 5991 H 585.92 -0.809236 -1.73562 0
M  V30 5992 H 584.225 0.711891 -3.85278 0
M  V30 5993 H 585.922 0.347282 -3.99493 0
M  V30 5994 H 582.512 -1.07817 -4.14817 0
M  V30 5995 H 586.696 -1.9705 -4.55505 0
M  V30 5996 H 581.952 -3.23361 -5.18891 0
M  V30 5997 H 586.125 -4.12689 -5.60946 0
M  V30 5998 H 583.753 -4.76403 -5.92405 0
M  V30 5999 N 585.328 1.53329 -0.364422 0
M  V30 6000 C 586.291 2.24323 0.470292 0
M  V30 6001 C 587.291 1.25068 1.01067 0
M  V30 6002 O 588.481 1.49354 0.896605 0
M  V30 6003 C 585.613 2.97908 1.65722 0
M  V30 6004 H 586.806 2.9952 -0.150917 0
M  V30 6005 H 584.359 1.55868 -0.116092 0
M  V30 6006 H 585.094 2.2695 2.31655 0
M  V30 6007 H 584.879 3.70732 1.27671 0
M  V30 6008 H 586.369 3.5188 2.24878 0
M  V30 6009 N 586.806 0.0935595 1.57322 0
M  V30 6010 C 588.222 -0.263091 1.57417 0
M  V30 6011 C 588.422 -1.68526 1.1046 0
M  V30 6012 O 587.478 -2.40139 0.780357 0
M  V30 6013 C 588.791 -0.0529201 3.00653 0
M  V30 6014 C 590.339 -0.120788 3.12767 0
M  V30 6015 C 590.814 0.0613707 4.57959 0
M  V30 6016 N 592.305 0.00648534 4.632 0
M  V30 6017 C 593.04 0.122699 5.73269 0
M  V30 6018 N 592.536 0.29366 6.92177 0
M  V30 6019 N 594.329 0.0640787 5.62063 0
M  V30 6020 H 586.48 1.02277 1.86154 0
M  V30 6021 H 588.743 0.4007 0.859153 0
M  V30 6022 H 588.449 0.929279 3.39201 0
M  V30 6023 H 588.323 -0.795899 3.68708 0
M  V30 6024 H 590.71 -1.09349 2.74093 0
M  V30 6025 H 590.791 0.653656 2.47307 0
M  V30 6026 H 590.435 1.03093 4.97327 0
M  V30 6027 H 590.365 -0.732748 5.21477 0
M  V30 6028 H 592.856 -0.123173 3.77699 0
M  V30 6029 H 593.169 0.37389 7.71895 0
M  V30 6030 H 591.514 0.329307 6.94219 0
M  V30 6031 H 594.705 -0.0683396 4.6805 0
M  V30 6032 H 594.878 0.158097 6.47807 0
M  V30 6033 N 588.284 -1.56567 -0.180126 0
M  V30 6034 C 589.247 -1.94852 -1.20686 0
M  V30 6035 C 590.247 -0.831212 -1.3765 0
M  V30 6036 O 591.437 -1.09841 -1.35206 0
M  V30 6037 C 588.569 -2.23565 -2.57355 0
M  V30 6038 H 589.762 -2.86722 -0.879225 0
M  V30 6039 H 587.315 -1.50489 -0.422237 0
M  V30 6040 H 588.05 -1.34381 -2.95148 0
M  V30 6041 H 587.835 -3.04999 -2.46411 0
M  V30 6042 H 589.325 -2.54137 -3.31367 0
M  V30 6043 N 589.762 0.448376 -1.51087 0
M  V30 6044 C 591.008 1.19748 -1.64414 0
M  V30 6045 C 591.363 1.89177 -0.350715 0
M  V30 6046 O 590.656 1.80135 0.652834 0
M  V30 6047 C 590.85 2.24866 -2.77795 0
M  V30 6048 C 590.679 1.65753 -4.18038 0
M  V30 6049 C 589.449 1.44728 -4.8413 0
M  V30 6050 C 591.647 1.13985 -5.0151 0
M  V30 6051 N 589.629 0.810962 -6.0852 0
M  V30 6052 C 591 0.628141 -6.1681 0
M  V30 6053 C 593.055 1.03055 -4.87118 0
M  V30 6054 C 591.758 0.0178906 -7.19298 0
M  V30 6055 C 593.784 0.434212 -5.89804 0
M  V30 6056 C 593.146 -0.0670069 -7.04368 0
M  V30 6057 H 589.245 0.426254 -0.655615 0
M  V30 6058 H 591.829 0.495806 -1.88281 0
M  V30 6059 H 590 2.92434 -2.55611 0
M  V30 6060 H 591.732 2.91857 -2.8036 0
M  V30 6061 H 588.487 1.70593 -4.41809 0
M  V30 6062 H 588.911 0.510563 -6.75072 0
M  V30 6063 H 593.553 1.40395 -3.9881 0
M  V30 6064 H 591.271 -0.367662 -8.07263 0
M  V30 6065 H 594.857 0.3517 -5.80736 0
M  V30 6066 H 593.737 -0.521209 -7.82466 0
M  V30 6067 N 591.24 1.41047 0.703093 0
M  V30 6068 C 592.487 1.4 1.46309 0
M  V30 6069 C 592.815 0.00654574 1.94499 0
M  V30 6070 O 592.07 -0.980255 1.6938 0
M  V30 6071 C 592.369 2.34686 2.6955 0
M  V30 6072 C 592.035 3.81684 2.40058 0
M  V30 6073 C 590.697 4.21731 2.31725 0
M  V30 6074 C 593.049 4.74525 2.15581 0
M  V30 6075 C 590.377 5.52637 1.97001 0
M  V30 6076 C 592.729 6.05744 1.82366 0
M  V30 6077 C 591.393 6.44819 1.72524 0
M  V30 6078 H 590.663 0.512295 0.535382 0
M  V30 6079 H 593.31 1.73792 0.804275 0
M  V30 6080 H 591.615 1.94122 3.40329 0
M  V30 6081 H 593.312 2.31152 3.27673 0
M  V30 6082 H 589.902 3.49963 2.47435 0
M  V30 6083 H 594.086 4.44395 2.20968 0
M  V30 6084 H 589.342 5.81802 1.87928 0
M  V30 6085 H 593.516 6.77189 1.62444 0
M  V30 6086 H 591.143 7.46168 1.45385 0
M  V30 6087 N 592.718 -0.936591 1.26751 0
M  V30 6088 C 593.665 -2.03597 1.08706 0
M  V30 6089 C 594.635 -1.66097 -0.00926542 0
M  V30 6090 O 595.82 -1.90199 0.151377 0
M  V30 6091 C 592.96 -3.3727 0.73094 0
M  V30 6092 C 592.073 -3.87778 1.90399 0
M  V30 6093 C 591.208 -5.09859 1.49056 0
M  V30 6094 C 590.247 -5.5264 2.63164 0
M  V30 6095 N 589.384 -6.65921 2.22471 0
M  V30 6096 H 594.224 -2.18364 2.02784 0
M  V30 6097 H 591.761 -1.06985 1.00958 0
M  V30 6098 H 593.719 -4.14128 0.505328 0
M  V30 6099 H 592.349 -3.22337 -0.172868 0
M  V30 6100 H 591.401 -3.07279 2.2424 0
M  V30 6101 H 592.713 -4.15464 2.76028 0
M  V30 6102 H 591.867 -5.9419 1.22567 0
M  V30 6103 H 590.606 -4.8393 0.60524 0
M  V30 6104 H 589.611 -4.66863 2.90377 0
M  V30 6105 H 590.836 -5.80568 3.52303 0
M  V30 6106 H 588.782 -6.41667 1.36379 0
M  V30 6107 H 588.699 -6.93216 3.01641 0
M  V30 6108 H 589.967 -7.53616 1.99205 0
M  V30 6109 N 594.196 -1.08629 -1.14182 0
M  V30 6110 C 595.126 -0.740003 -2.21464 0
M  V30 6111 C 596.107 0.278591 -1.67803 0
M  V30 6112 O 597.292 0.148461 -1.93632 0
M  V30 6113 C 594.422 -0.150952 -3.46972 0
M  V30 6114 C 593.376 -1.09815 -4.13672 0
M  V30 6115 C 592.702 -0.3712 -5.3341 0
M  V30 6116 C 594.002 -2.43722 -4.61949 0
M  V30 6117 H 595.696 -1.63697 -2.50686 0
M  V30 6118 H 593.242 -0.788526 -1.20492 0
M  V30 6119 H 595.195 0.103325 -4.21273 0
M  V30 6120 H 593.919 0.781164 -3.1712 0
M  V30 6121 H 592.578 -1.33756 -3.41328 0
M  V30 6122 H 592.226 0.564792 -4.99819 0
M  V30 6123 H 591.926 -1.00267 -5.78982 0
M  V30 6124 H 593.45 -0.12503 -6.10472 0
M  V30 6125 H 594.864 -2.24034 -5.27714 0
M  V30 6126 H 593.261 -3.02582 -5.18232 0
M  V30 6127 H 594.331 -3.05082 -3.76899 0
M  V30 6128 N 595.674 1.31259 -0.872281 0
M  V30 6129 C 596.902 2.00795 -0.498907 0
M  V30 6130 C 597.317 1.65464 0.909238 0
M  V30 6131 O 596.674 0.885073 1.59602 0
M  V30 6132 C 596.725 3.55625 -0.649092 0
M  V30 6133 O 596.446 3.89692 -2.00179 0
M  V30 6134 C 597.947 4.42434 -0.277034 0
M  V30 6135 H 595.167 0.642299 -0.194145 0
M  V30 6136 H 597.711 1.67438 -1.17408 0
M  V30 6137 H 595.866 3.87394 -0.0214402 0
M  V30 6138 H 596.28 4.84407 -2.01122 0
M  V30 6139 H 597.754 5.50299 -0.433064 0
M  V30 6140 H 598.231 4.32146 0.783989 0
M  V30 6141 H 598.837 4.16086 -0.880483 0
M  V30 6142 N 597.152 0.631951 1.44375 0
M  V30 6143 C 598.102 -0.0943862 2.27805 0
M  V30 6144 C 599.086 -0.815359 1.38711 0
M  V30 6145 O 600.278 -0.701331 1.62513 0
M  V30 6146 C 597.407 -1.07472 3.26044 0
M  V30 6147 C 596.493 -0.353329 4.22626 0
M  V30 6148 N 596.884 0.618512 5.02004 0
M  V30 6149 C 595.182 -0.597662 4.41977 0
M  V30 6150 C 595.883 1.0448 5.7224 0
M  V30 6151 N 594.859 0.383413 5.42246 0
M  V30 6152 H 598.661 0.651672 2.86584 0
M  V30 6153 H 596.175 0.45752 1.55822 0
M  V30 6154 H 598.172 -1.60969 3.84571 0
M  V30 6155 H 596.832 -1.82107 2.68825 0
M  V30 6156 H 597.843 0.996356 5.08226 0
M  V30 6157 H 594.52 -1.32682 3.95856 0
M  V30 6158 H 595.91 1.84773 6.45994 0
M  V30 6159 N 598.631 -1.53133 0.372548 0
M  V30 6160 C 600.047 -1.59585 0.02178 0
M  V30 6161 C 600.247 -1.38736 -1.46132 0
M  V30 6162 O 599.303 -1.19599 -2.22379 0
M  V30 6163 C 600.616 -2.9678 0.483959 0
M  V30 6164 C 602.164 -3.09909 0.438775 0
M  V30 6165 C 602.639 -4.49527 0.876876 0
M  V30 6166 N 604.13 -4.55663 0.832214 0
M  V30 6167 C 604.865 -5.61896 1.14281 0
M  V30 6168 N 604.361 -6.75852 1.52303 0
M  V30 6169 N 606.154 -5.51916 1.06515 0
M  V30 6170 H 598.305 -1.64936 1.33827 0
M  V30 6171 H 600.568 -0.773947 0.547458 0
M  V30 6172 H 600.274 -3.17198 1.51915 0
M  V30 6173 H 600.148 -3.7699 -0.125784 0
M  V30 6174 H 602.535 -2.89197 -0.587294 0
M  V30 6175 H 602.616 -2.31691 1.0841 0
M  V30 6176 H 602.26 -4.70979 1.90109 0
M  V30 6177 H 602.19 -5.26186 0.208727 0
M  V30 6178 H 604.681 -3.73844 0.552195 0
M  V30 6179 H 604.994 -7.52862 1.7441 0
M  V30 6180 H 603.339 -6.77226 1.56175 0
M  V30 6181 H 606.53 -4.6177 0.767235 0
M  V30 6182 H 606.703 -6.34609 1.31053 0
M  V30 6183 N 600.109 -0.101901 -1.5727 0
M  V30 6184 C 601.386 0.602832 -1.86079 0
M  V30 6185 C 601.766 1.85912 -1 0
M  V30 6186 O 601.114 2.28379 -0.0742488 0
M  V30 6187 C 601.324 0.911694 -3.36881 0
M  V30 6188 C 602.672 1.2722 -4.05093 0
M  V30 6189 O 603.696 1.0025 -3.41802 0
M  V30 6190 O 602.555 1.7776 -5.16782 0
M  V30 6191 H 599.649 0.302366 -0.769743 0
M  V30 6192 H 602.195 -0.135113 -1.69161 0
M  V30 6193 H 600.967 0.0207256 -3.91295 0
M  V30 6194 H 600.59 1.70538 -3.59169 0
M  V30 6195 N 601.587 1.56661 0.17182 0
M  V30 6196 C 602.52 1.91474 1.24149 0
M  V30 6197 C 603.498 0.777485 1.42807 0
M  V30 6198 O 604.682 1.03075 1.57822 0
M  V30 6199 C 601.809 2.16523 2.60453 0
M  V30 6200 C 600.855 3.39209 2.58533 0
M  V30 6201 S 601.688 4.93594 2.07665 0
M  V30 6202 C 602.844 5.21737 3.45747 0
M  V30 6203 H 603.077 2.81903 0.944346 0
M  V30 6204 H 600.61 1.49743 0.376364 0
M  V30 6205 H 602.568 2.31635 3.38903 0
M  V30 6206 H 601.229 1.26802 2.87368 0
M  V30 6207 H 600.422 3.53935 3.58812 0
M  V30 6208 H 600.024 3.2321 1.88178 0
M  V30 6209 H 602.316 5.13684 4.41741 0
M  V30 6210 H 603.259 6.23361 3.35896 0
M  V30 6211 H 603.667 4.49307 3.41736 0
M  V30 6212 N 603.065 -0.440357 1.51323 0
M  V30 6213 C 604.313 -1.18769 1.63518 0
M  V30 6214 C 604.634 -1.91793 0.352201 0
M  V30 6215 O 603.904 -1.85432 -0.631811 0
M  V30 6216 H 602.484 -0.441408 0.602634 0
M  V30 6217 H 605.146 -0.505162 1.8824 0
M  V30 6218 H 604.242 -1.91892 2.46138 0
M  V30 6219 N 604.543 -1.41418 -0.695603 0
M  V30 6220 C 605.954 -1.36335 -1.27552 0
M  V30 6221 C 606.305 -0.0464336 -1.96145 0
M  V30 6222 O 605.43 0.855304 -1.9878 0
M  V30 6223 C 606.025 -2.46941 -2.3196 0
M  V30 6224 C 604.584 -2.45256 -2.85529 0
M  V30 6225 C 603.731 -2.2679 -1.59566 0
M  V30 6226 H 606.682 -1.50934 -0.490362 0
M  V30 6227 H 606.703 -2.15997 -3.1325 0
M  V30 6228 H 606.215 -3.42775 -1.82008 0
M  V30 6229 H 604.316 -1.53179 -3.39657 0
M  V30 6230 H 604.429 -3.41565 -3.35961 0
M  V30 6231 H 602.793 -1.74667 -1.85374 0
M  V30 6232 H 603.576 -3.24651 -1.1161 0
M  V30 6233 N 606.021 0.929856 -1.27246 0
M  V30 6234 C 607.437 1.20542 -1.04603 0
M  V30 6235 C 607.637 2.00276 0.221754 0
M  V30 6236 O 606.693 2.34835 0.927833 0
M  V30 6237 C 608.006 1.95566 -2.28417 0
M  V30 6238 C 609.554 2.08513 -2.33433 0
M  V30 6239 C 610.029 2.86943 -3.5697 0
M  V30 6240 N 611.52 2.94512 -3.57515 0
M  V30 6241 C 612.255 3.55656 -4.49774 0
M  V30 6242 N 611.751 4.18209 -5.52334 0
M  V30 6243 N 613.544 3.53038 -4.37402 0
M  V30 6244 H 605.695 0.397113 -2.08655 0
M  V30 6245 H 607.958 0.238277 -0.917566 0
M  V30 6246 H 607.664 1.44395 -3.20691 0
M  V30 6247 H 607.538 2.9619 -2.33563 0
M  V30 6248 H 609.925 2.58872 -1.41666 0
M  V30 6249 H 610.006 1.07117 -2.32292 0
M  V30 6250 H 609.65 2.37268 -4.49072 0
M  V30 6251 H 609.58 3.8862 -3.55362 0
M  V30 6252 H 612.071 2.50053 -2.83341 0
M  V30 6253 H 612.384 4.62796 -6.18902 0
M  V30 6254 H 610.729 4.16761 -5.56179 0
M  V30 6255 H 613.92 3.0337 -3.56489 0
M  V30 6256 H 614.093 4.004 -5.09493 0
M  V30 6257 N 607.499 1.09233 1.13605 0
M  V30 6258 C 608.462 0.733553 2.17144 0
M  V30 6259 C 609.462 -0.235873 1.59061 0
M  V30 6260 O 610.652 -0.0143167 1.74194 0
M  V30 6261 C 607.784 0.084471 3.40795 0
M  V30 6262 H 608.977 1.65049 2.50397 0
M  V30 6263 H 606.53 0.891264 1.28399 0
M  V30 6264 H 607.265 -0.843795 3.1313 0
M  V30 6265 H 607.05 0.781985 3.84223 0
M  V30 6266 H 608.54 -0.151216 4.17326 0
M  V30 6267 N 608.977 -1.30795 0.87923 0
M  V30 6268 C 610.393 -1.48981 0.57243 0
M  V30 6269 C 610.593 -1.80719 -0.891236 0
M  V30 6270 O 609.649 -1.89136 -1.67283 0
M  V30 6271 C 610.962 -2.61721 1.48063 0
M  V30 6272 C 612.51 -2.75603 1.48365 0
M  V30 6273 C 612.985 -3.91449 2.37763 0
M  V30 6274 N 614.476 -3.98751 2.35695 0
M  V30 6275 C 615.211 -4.87684 3.01583 0
M  V30 6276 N 614.707 -5.81454 3.76674 0
M  V30 6277 N 616.5 -4.81005 2.90844 0
M  V30 6278 H 608.651 -1.08465 1.82617 0
M  V30 6279 H 610.914 -0.536813 0.781368 0
M  V30 6280 H 610.62 -2.45073 2.52254 0
M  V30 6281 H 610.494 -3.58071 1.18596 0
M  V30 6282 H 612.881 -2.9166 0.44927 0
M  V30 6283 H 612.962 -1.79891 1.81859 0
M  V30 6284 H 612.606 -3.76149 3.41283 0
M  V30 6285 H 612.536 -4.86487 2.01589 0
M  V30 6286 H 615.027 -3.31668 1.81121 0
M  V30 6287 H 615.34 -6.46063 4.24054 0
M  V30 6288 H 613.685 -5.81403 3.80782 0
M  V30 6289 H 616.876 -4.06728 2.31711 0
M  V30 6290 H 617.049 -5.50107 3.42471 0
M  V30 6291 N 610.455 -0.639598 -1.44038 0
M  V30 6292 C 611.685 -0.154586 -2.06021 0
M  V30 6293 C 612.093 1.17951 -1.47933 0
M  V30 6294 O 611.436 1.73627 -0.59994 0
M  V30 6295 C 611.498 0.0255459 -3.59491 0
M  V30 6296 C 611.162 -1.2317 -4.40089 0
M  V30 6297 C 612.159 -2.15735 -4.73027 0
M  V30 6298 C 609.844 -1.46949 -4.80324 0
M  V30 6299 C 611.838 -3.30382 -5.45093 0
M  V30 6300 C 609.525 -2.61891 -5.52138 0
M  V30 6301 C 610.523 -3.53433 -5.84443 0
M  V30 6302 O 610.211 -4.6637 -6.54793 0
M  V30 6303 H 609.943 -0.0808543 -0.671147 0
M  V30 6304 H 612.497 -0.876541 -1.85758 0
M  V30 6305 H 610.727 0.802733 -3.78276 0
M  V30 6306 H 612.416 0.466184 -4.03214 0
M  V30 6307 H 613.182 -1.98602 -4.42473 0
M  V30 6308 H 609.061 -0.765815 -4.54595 0
M  V30 6309 H 612.605 -4.01856 -5.70226 0
M  V30 6310 H 608.502 -2.78964 -5.82108 0
M  V30 6311 H 609.27 -4.6546 -6.73267 0
M  V30 6312 N 611.933 1.52934 -0.380664 0
M  V30 6313 C 612.863 2.29118 0.450268 0
M  V30 6314 C 613.844 1.32153 1.07096 0
M  V30 6315 O 615.029 1.61038 1.08537 0
M  V30 6316 C 612.159 3.09161 1.58231 0
M  V30 6317 C 611.113 4.13938 1.0881 0
M  V30 6318 C 610.439 4.82153 2.31155 0
M  V30 6319 C 611.739 5.22048 0.162146 0
M  V30 6320 H 613.433 2.98826 -0.185361 0
M  V30 6321 H 610.979 1.43715 -0.0905886 0
M  V30 6322 H 612.932 3.61211 2.17036 0
M  V30 6323 H 611.656 2.3717 2.2454 0
M  V30 6324 H 610.315 3.62855 0.522633 0
M  V30 6325 H 609.963 4.06719 2.95953 0
M  V30 6326 H 609.663 5.52966 1.98752 0
M  V30 6327 H 611.187 5.37004 2.90618 0
M  V30 6328 H 612.601 5.6951 0.658126 0
M  V30 6329 H 610.998 6.00057 -0.0717122 0
M  V30 6330 H 612.068 4.78398 -0.791438 0
M  V30 6331 N 613.412 0.11024 1.57214 0
M  V30 6332 C 614.66 -0.548783 1.94506 0
M  V30 6333 C 614.981 -1.67772 0.99386 0
M  V30 6334 O 614.251 -1.9584 0.0485841 0
M  V30 6335 H 612.831 -0.205715 0.718116 0
M  V30 6336 H 615.493 0.177127 1.94093 0
M  V30 6337 H 614.589 -0.949096 2.97319 0
M  V30 6338 N 614.89 -1.56749 -0.16351 0
M  V30 6339 C 616.301 -1.72039 -0.725216 0
M  V30 6340 C 616.652 -0.72202 -1.82432 0
M  V30 6341 O 615.777 0.114942 -2.16095 0
M  V30 6342 C 616.372 -3.11932 -1.32227 0
M  V30 6343 C 614.931 -3.28879 -1.83072 0
M  V30 6344 C 614.078 -2.67984 -0.712716 0
M  V30 6345 H 617.029 -1.58579 0.0619772 0
M  V30 6346 H 617.05 -3.11015 -2.19202 0
M  V30 6347 H 616.562 -3.84572 -0.522103 0
M  V30 6348 H 614.663 -2.61209 -2.65708 0
M  V30 6349 H 614.776 -4.36688 -1.97079 0
M  V30 6350 H 613.14 -2.28005 -1.13515 0
M  V30 6351 H 613.923 -3.43216 0.0757361 0
M  V30 6352 N 616.368 0.432326 -1.51554 0
M  V30 6353 C 617.278 1.55023 -1.76082 0
M  V30 6354 C 618.294 1.61593 -0.645265 0
M  V30 6355 O 619.47 1.78742 -0.928086 0
M  V30 6356 C 616.535 2.90964 -1.88523 0
M  V30 6357 C 615.596 2.9447 -3.12388 0
M  V30 6358 C 614.829 4.23926 -3.24225 0
M  V30 6359 O 615.052 5.16576 -2.4188 0
M  V30 6360 O 613.986 4.33818 -4.17235 0
M  V30 6361 H 617.812 1.37238 -2.70923 0
M  V30 6362 H 615.397 0.615845 -1.36117 0
M  V30 6363 H 617.279 3.71633 -1.98662 0
M  V30 6364 H 615.954 3.08865 -0.9687 0
M  V30 6365 H 614.861 2.12737 -3.07723 0
M  V30 6366 H 616.194 2.81514 -4.03746 0
M  V30 6367 N 617.846 1.41785 0.688094 0
M  V30 6368 C 619.092 1.41753 1.4503 0
M  V30 6369 C 619.425 0.0290745 1.94178 0
M  V30 6370 O 618.7 -0.944456 1.7003 0
M  V30 6371 C 618.983 2.43069 2.65686 0
M  V30 6372 C 618.836 3.91053 2.22256 0
M  V30 6373 C 620.155 2.41543 3.67893 0
M  V30 6374 H 617.274 0.516202 0.526027 0
M  V30 6375 H 619.916 1.73111 0.783105 0
M  V30 6376 H 618.066 2.1646 3.2261 0
M  V30 6377 H 619.738 4.28594 1.70602 0
M  V30 6378 H 617.981 4.05559 1.53963 0
M  V30 6379 H 618.652 4.57501 3.08863 0
M  V30 6380 H 621.128 2.65175 3.20658 0
M  V30 6381 H 620.004 3.14434 4.49914 0
M  V30 6382 H 620.265 1.43666 4.18106 0
M  V30 6383 N 619.324 -0.923095 1.27737 0
M  V30 6384 C 620.735 -1.48626 1.12993 0
M  V30 6385 C 621.086 -1.94142 -0.283439 0
M  V30 6386 O 620.211 -1.81605 -1.17681 0
M  V30 6387 C 620.806 -2.70117 2.04505 0
M  V30 6388 C 619.365 -3.22642 1.93853 0
M  V30 6389 C 618.512 -1.95368 1.96791 0
M  V30 6390 H 621.463 -0.736737 1.40563 0
M  V30 6391 H 621.484 -3.4506 1.60356 0
M  V30 6392 H 620.996 -2.36959 3.07363 0
M  V30 6393 H 619.097 -3.60549 0.939968 0
M  V30 6394 H 619.21 -3.88525 2.80331 0
M  V30 6395 H 617.574 -2.12061 1.41076 0
M  V30 6396 H 618.357 -1.64517 3.01312 0
M  V30 6397 N 620.802 -1.09834 -1.13024 0
M  V30 6398 C 621.765 -0.745058 -2.16752 0
M  V30 6399 C 622.765 0.227435 -1.59183 0
M  V30 6400 O 623.955 0.0050786 -1.74199 0
M  V30 6401 C 621.087 -0.102543 -3.40746 0
M  V30 6402 H 622.28 -1.66375 -2.49518 0
M  V30 6403 H 619.833 -0.898061 -1.27924 0
M  V30 6404 H 620.568 0.827177 -3.13573 0
M  V30 6405 H 620.353 -0.80235 -3.83803 0
M  V30 6406 H 621.843 0.129082 -4.174 0
M  V30 6407 N 622.28 1.30327 -0.886154 0
M  V30 6408 C 623.19 2.31854 -0.357866 0
M  V30 6409 C 624.206 1.65392 0.540502 0
M  V30 6410 O 625.382 1.96683 0.433339 0
M  V30 6411 C 622.447 3.44171 0.417999 0
M  V30 6412 C 621.508 4.26257 -0.510263 0
M  V30 6413 C 620.741 5.3321 0.228669 0
M  V30 6414 O 620.964 5.51542 1.45458 0
M  V30 6415 O 619.898 6.0042 -0.421832 0
M  V30 6416 H 623.724 2.78995 -1.19982 0
M  V30 6417 H 621.309 1.34518 -0.650028 0
M  V30 6418 H 623.191 4.12588 0.857251 0
M  V30 6419 H 621.866 2.99164 1.23623 0
M  V30 6420 H 620.773 3.60533 -0.99835 0
M  V30 6421 H 622.106 4.74871 -1.29454 0
M  V30 6422 N 623.758 0.647228 1.43697 0
M  V30 6423 C 625.004 0.158422 2.0218 0
M  V30 6424 C 625.337 -1.22233 1.50907 0
M  V30 6425 O 624.612 -1.81478 0.699702 0
M  V30 6426 C 624.895 0.1627 3.59732 0
M  V30 6427 C 624.748 1.57694 4.21251 0
M  V30 6428 C 626.067 -0.504138 4.37203 0
M  V30 6429 H 623.186 0.059042 0.734631 0
M  V30 6430 H 625.828 0.826772 1.71069 0
M  V30 6431 H 623.978 -0.406414 3.86368 0
M  V30 6432 H 625.65 2.19618 4.05667 0
M  V30 6433 H 623.893 2.12603 3.7813 0
M  V30 6434 H 624.564 1.53183 5.3032 0
M  V30 6435 H 627.04 -0.0199841 4.16095 0
M  V30 6436 H 625.916 -0.470394 5.46881 0
M  V30 6437 H 626.177 -1.57726 4.13007 0
M  V30 6438 N 625.236 -1.5273 0.388769 0
M  V30 6439 C 626.166 -2.29353 -0.438111 0
M  V30 6440 C 627.147 -1.32719 -1.06394 0
M  V30 6441 O 628.332 -1.61612 -1.07681 0
M  V30 6442 C 625.462 -3.09995 -1.56589 0
M  V30 6443 C 624.416 -4.14509 -1.06613 0
M  V30 6444 C 623.742 -4.83372 -2.28594 0
M  V30 6445 C 625.042 -5.22127 -0.134459 0
M  V30 6446 H 626.736 -2.98723 0.201206 0
M  V30 6447 H 624.282 -1.43665 0.0982089 0
M  V30 6448 H 626.235 -3.62357 -2.15118 0
M  V30 6449 H 624.959 -2.38357 -2.23279 0
M  V30 6450 H 623.618 -3.63128 -0.503383 0
M  V30 6451 H 623.266 -4.08283 -2.93792 0
M  V30 6452 H 622.966 -5.54012 -1.95817 0
M  V30 6453 H 624.49 -5.38538 -2.87766 0
M  V30 6454 H 625.904 -5.69851 -0.627914 0
M  V30 6455 H 624.301 -6.00011 0.103534 0
M  V30 6456 H 625.371 -4.77971 0.816798 0
M  V30 6457 N 626.714 -0.118576 -1.57153 0
M  V30 6458 C 627.644 0.828436 -2.1831 0
M  V30 6459 C 628.625 1.27758 -1.12303 0
M  V30 6460 O 629.81 1.34026 -1.40537 0
M  V30 6461 C 626.94 2.07876 -2.78217 0
M  V30 6462 C 625.894 1.76742 -3.89803 0
M  V30 6463 C 625.22 3.08801 -4.36516 0
M  V30 6464 C 626.52 1.03606 -5.11921 0
M  V30 6465 H 628.214 0.318824 -2.97698 0
M  V30 6466 H 625.76 0.151911 -1.43196 0
M  V30 6467 H 627.713 2.74584 -3.19659 0
M  V30 6468 H 626.437 2.61161 -1.96118 0
M  V30 6469 H 625.096 1.12424 -3.48936 0
M  V30 6470 H 624.744 3.6002 -3.51276 0
M  V30 6471 H 624.444 2.88743 -5.11763 0
M  V30 6472 H 625.968 3.76627 -4.80608 0
M  V30 6473 H 627.382 1.60467 -5.50385 0
M  V30 6474 H 625.779 0.936454 -5.92748 0
M  V30 6475 H 626.849 0.0227421 -4.84895 0
M  V30 6476 N 628.193 1.56834 0.155195 0
M  V30 6477 C 629.439 1.84058 0.865687 0
M  V30 6478 C 629.794 0.701418 1.79159 0
M  V30 6479 O 629.087 -0.301162 1.89218 0
M  V30 6480 C 629.281 3.15239 1.68402 0
M  V30 6481 C 629.11 4.41807 0.838847 0
M  V30 6482 C 627.88 5.02744 0.507645 0
M  V30 6483 C 630.078 5.14009 0.172946 0
M  V30 6484 N 628.06 6.1289 -0.351978 0
M  V30 6485 C 629.431 6.17581 -0.547158 0
M  V30 6486 C 631.486 4.97814 0.0927721 0
M  V30 6487 C 630.189 7.06711 -1.33985 0
M  V30 6488 C 632.215 5.874 -0.686638 0
M  V30 6489 C 631.577 6.90447 -1.39505 0
M  V30 6490 H 627.676 0.724276 0.294871 0
M  V30 6491 H 630.26 1.94255 0.131583 0
M  V30 6492 H 628.431 3.06205 2.38942 0
M  V30 6493 H 630.163 3.304 2.33705 0
M  V30 6494 H 626.918 4.66064 0.841517 0
M  V30 6495 H 627.342 6.72577 -0.772573 0
M  V30 6496 H 631.984 4.18138 0.626112 0
M  V30 6497 H 629.702 7.8582 -1.88448 0
M  V30 6498 H 633.288 5.76938 -0.750555 0
M  V30 6499 H 632.168 7.58571 -1.98847 0
M  V30 6500 N 629.671 -0.424282 1.51781 0
M  V30 6501 C 630.603 -1.53457 1.70246 0
M  V30 6502 C 631.616 -1.52004 0.582967 0
M  V30 6503 O 632.805 -1.56544 0.857683 0
M  V30 6504 C 629.905 -2.92368 1.71389 0
M  V30 6505 C 629.078 -3.1818 3.00133 0
M  V30 6506 C 628.137 -4.36884 2.9329 0
M  V30 6507 O 627.163 -4.34901 3.67219 0
M  V30 6508 N 628.365 -5.4117 2.10036 0
M  V30 6509 H 631.13 -1.38017 2.66029 0
M  V30 6510 H 628.691 -0.613394 1.4983 0
M  V30 6511 H 630.683 -3.6982 1.64362 0
M  V30 6512 H 629.253 -3.0134 0.831449 0
M  V30 6513 H 628.473 -2.28908 3.20928 0
M  V30 6514 H 629.761 -3.32261 3.85331 0
M  V30 6515 H 629.159 -5.45623 1.49373 0
M  V30 6516 H 627.716 -6.17425 2.08878 0
M  V30 6517 N 631.149 -1.42148 -0.680565 0
M  V30 6518 C 632.426 -1.32795 -1.43614 0
M  V30 6519 C 632.806 0.037415 -2.11067 0
M  V30 6520 O 632.154 1.05258 -2.02813 0
M  V30 6521 C 632.364 -2.49206 -2.44331 0
M  V30 6522 C 633.712 -2.91059 -3.09144 0
M  V30 6523 O 634.736 -2.49054 -2.54657 0
M  V30 6524 O 633.595 -3.63741 -4.07866 0
M  V30 6525 H 630.689 -0.523397 -0.640301 0
M  V30 6526 H 633.235 -1.54144 -0.709775 0
M  V30 6527 H 632.007 -3.40252 -1.93247 0
M  V30 6528 H 631.63 -2.29813 -3.24456 0
M  V30 6529 N 632.627 0.916307 -1.28225 0
M  V30 6530 C 634.038 1.48024 -1.13779 0
M  V30 6531 C 634.389 1.94289 0.273139 0
M  V30 6532 O 633.514 1.82226 1.16716 0
M  V30 6533 C 634.109 2.69029 -2.05935 0
M  V30 6534 C 632.668 3.2161 -1.95561 0
M  V30 6535 C 631.815 1.94321 -1.97825 0
M  V30 6536 H 634.766 0.729272 -1.40951 0
M  V30 6537 H 634.787 3.44204 -1.62184 0
M  V30 6538 H 634.299 2.35325 -3.08616 0
M  V30 6539 H 632.4 3.60045 -0.959076 0
M  V30 6540 H 632.513 3.87032 -2.82388 0
M  V30 6541 H 630.877 2.1131 -1.42198 0
M  V30 6542 H 631.66 1.62917 -3.0218 0
M  V30 6543 N 634.105 1.10431 1.1244 0
M  V30 6544 C 635.354 0.841539 1.83306 0
M  V30 6545 C 635.667 -0.634961 1.85007 0
M  V30 6546 O 636.873 -1.01363 2.51869 0
M  V30 6547 C 635.329 1.45565 3.29149 0
M  V30 6548 C 634.937 2.96544 3.35806 0
M  V30 6549 C 636.681 1.27227 4.04986 0
M  V30 6550 C 634.588 3.5099 4.75983 0
M  V30 6551 H 633.518 0.311156 0.686803 0
M  V30 6552 H 636.169 1.32829 1.26604 0
M  V30 6553 H 634.551 0.896574 3.85717 0
M  V30 6554 H 635.725 3.58766 2.89177 0
M  V30 6555 H 634.04 3.14036 2.73442 0
M  V30 6556 H 636.637 1.65348 5.08492 0
M  V30 6557 H 636.98 0.213834 4.1575 0
M  V30 6558 H 637.513 1.79941 3.54776 0
M  V30 6559 H 634.252 4.56499 4.70413 0
M  V30 6560 H 633.772 2.93535 5.23065 0
M  V30 6561 H 635.451 3.48808 5.44924 0
M  V30 6562 N 635.583 -1.29855 0.893053 0
M  V30 6563 C 636.994 -1.77946 0.564998 0
M  V30 6564 C 637.345 -1.73339 -0.919134 0
M  V30 6565 O 636.47 -1.3152 -1.71847 0
M  V30 6566 C 637.065 -3.23118 1.01883 0
M  V30 6567 C 635.624 -3.69013 0.742051 0
M  V30 6568 C 634.771 -2.50121 1.19727 0
M  V30 6569 H 637.722 -1.16611 1.07646 0
M  V30 6570 H 637.743 -3.78875 0.351249 0
M  V30 6571 H 637.255 -3.26439 2.09903 0
M  V30 6572 H 635.356 -3.71173 -0.325816 0
M  V30 6573 H 635.469 -4.60117 1.33527 0
M  V30 6574 H 633.833 -2.47128 0.616418 0
M  V30 6575 H 634.616 -2.56174 2.28538 0
M  V30 6576 N 637.061 -0.65484 -1.43351 0
M  V30 6577 C 638.024 0.0263562 -2.29185 0
M  V30 6578 C 639.024 0.748951 -1.42293 0
M  V30 6579 O 640.214 0.589957 -1.63906 0
M  V30 6580 C 637.346 1.04806 -3.2439 0
M  V30 6581 H 638.539 -0.728883 -2.90908 0
M  V30 6582 H 636.092 -0.416149 -1.50658 0
M  V30 6583 H 636.827 1.83247 -2.67565 0
M  V30 6584 H 636.612 0.533554 -3.88453 0
M  V30 6585 H 638.102 1.52372 -3.88809 0
M  V30 6586 N 638.539 1.52521 -0.396863 0
M  V30 6587 C 639.785 2.01971 0.183169 0
M  V30 6588 C 640.118 1.2825 1.45827 0
M  V30 6589 O 639.393 0.385179 1.90648 0
M  V30 6590 C 639.676 3.5736 0.443391 0
M  V30 6591 C 639.529 4.41743 -0.84753 0
M  V30 6592 C 640.848 4.22539 1.2308 0
M  V30 6593 H 637.967 0.734119 0.0650976 0
M  V30 6594 H 640.609 1.82519 -0.527918 0
M  V30 6595 H 638.759 3.74066 1.04914 0
M  V30 6596 H 640.431 4.36773 -1.48414 0
M  V30 6597 H 638.674 4.0845 -1.4612 0
M  V30 6598 H 639.345 5.48507 -0.620003 0
M  V30 6599 H 641.821 4.09857 0.718084 0
M  V30 6600 H 640.697 5.31227 1.38162 0
M  V30 6601 H 640.958 3.80675 2.24808 0
M  V30 6602 N 640.017 0.126909 1.57088 0
M  V30 6603 C 641.294 -0.573152 1.87014 0
M  V30 6604 C 641.674 -1.84297 1.02945 0
M  V30 6605 O 641.022 -2.28232 0.110573 0
M  V30 6606 C 641.232 -0.857984 3.38289 0
M  V30 6607 C 642.58 -1.20759 4.07066 0
M  V30 6608 O 643.604 -0.947992 3.43353 0
M  V30 6609 O 642.463 -1.69516 5.19545 0
M  V30 6610 H 639.557 -0.290082 0.774456 0
M  V30 6611 H 642.103 0.162008 1.68925 0
M  V30 6612 H 640.875 0.0415286 3.91278 0
M  V30 6613 H 640.498 -1.64803 3.61837 0
M  V30 6614 N 641.495 -1.56914 -0.146875 0
M  V30 6615 C 642.445 -1.94693 -1.18653 0
M  V30 6616 C 643.429 -0.81821 -1.38543 0
M  V30 6617 O 644.621 -1.08167 -1.40103 0
M  V30 6618 C 641.75 -2.33117 -2.52014 0
M  V30 6619 C 640.836 -3.5256 -2.35717 0
M  V30 6620 N 641.227 -4.69091 -1.89175 0
M  V30 6621 C 639.525 -3.57647 -2.66467 0
M  V30 6622 C 640.226 -5.51187 -1.85924 0
M  V30 6623 N 639.202 -4.92899 -2.29242 0
M  V30 6624 H 643.004 -2.82264 -0.81879 0
M  V30 6625 H 640.518 -1.58474 -0.354929 0
M  V30 6626 H 642.515 -2.58387 -3.27172 0
M  V30 6627 H 641.175 -1.46898 -2.89571 0
M  V30 6628 H 642.186 -4.92844 -1.59139 0
M  V30 6629 H 638.863 -2.81967 -3.07898 0
M  V30 6630 H 640.253 -6.54613 -1.51431 0
M  V30 6631 N 642.974 0.416227 -1.52004 0
M  V30 6632 C 644.385 0.995319 -1.57957 0
M  V30 6633 C 644.736 1.91744 -0.415754 0
M  V30 6634 O 643.861 2.11349 0.464808 0
M  V30 6635 C 644.456 1.81191 -2.86278 0
M  V30 6636 C 643.015 2.34115 -2.94732 0
M  V30 6637 C 642.162 1.139 -2.52828 0
M  V30 6638 H 645.113 0.196716 -1.57476 0
M  V30 6639 H 645.134 2.66859 -2.71231 0
M  V30 6640 H 644.646 1.14051 -3.70963 0
M  V30 6641 H 642.747 3.04647 -2.14525 0
M  V30 6642 H 642.86 2.65466 -3.98829 0
M  V30 6643 H 641.224 1.49081 -2.06511 0
M  V30 6644 H 642.007 0.483383 -3.3988 0
M  V30 6645 N 644.452 1.42507 0.673017 0
M  V30 6646 C 645.382 1.48916 1.79851 0
M  V30 6647 C 646.363 0.345566 1.66553 0
M  V30 6648 O 647.548 0.560116 1.85947 0
M  V30 6649 C 644.678 1.39258 3.18158 0
M  V30 6650 C 643.632 2.51662 3.46194 0
M  V30 6651 C 642.958 2.27062 4.84094 0
M  V30 6652 C 644.258 3.93968 3.42909 0
M  V30 6653 H 645.952 2.43114 1.74745 0
M  V30 6654 H 643.498 1.17013 0.839288 0
M  V30 6655 H 645.451 1.42349 3.96629 0
M  V30 6656 H 644.175 0.415542 3.23946 0
M  V30 6657 H 642.834 2.47891 2.70084 0
M  V30 6658 H 642.482 1.27648 4.86534 0
M  V30 6659 H 642.182 3.02398 5.03815 0
M  V30 6660 H 643.706 2.31905 5.64847 0
M  V30 6661 H 645.12 3.99332 4.11347 0
M  V30 6662 H 643.517 4.6917 3.74165 0
M  V30 6663 H 644.587 4.20512 2.41449 0
M  V30 6664 N 645.93 -0.909495 1.28709 0
M  V30 6665 C 647.179 -1.65365 1.15487 0
M  V30 6666 C 647.492 -1.93364 -0.294941 0
M  V30 6667 O 648.698 -2.65905 -0.548338 0
M  V30 6668 C 647.154 -2.97923 2.01916 0
M  V30 6669 C 646.762 -2.77556 3.51663 0
M  V30 6670 C 648.506 -3.75814 1.97393 0
M  V30 6671 C 646.413 -4.0578 4.30229 0
M  V30 6672 H 645.343 -0.620323 0.42862 0
M  V30 6673 H 647.994 -1.00894 1.53273 0
M  V30 6674 H 646.376 -3.63552 1.5699 0
M  V30 6675 H 647.55 -2.2058 4.04575 0
M  V30 6676 H 645.865 -2.13072 3.57756 0
M  V30 6677 H 648.462 -4.70866 2.53357 0
M  V30 6678 H 648.805 -4.05277 0.951643 0
M  V30 6679 H 649.338 -3.1701 2.40311 0
M  V30 6680 H 646.077 -3.81488 5.33055 0
M  V30 6681 H 645.597 -4.62351 3.82089 0
M  V30 6682 H 647.276 -4.74004 4.40374 0
M  V30 6683 N 647.408 -1.11026 -1.11852 0
M  V30 6684 C 648.685 -0.768347 -1.79877 0
M  V30 6685 C 649.065 0.744261 -1.97545 0
M  V30 6686 O 648.413 1.67271 -1.55669 0
M  V30 6687 C 648.623 -1.52648 -3.13846 0
M  V30 6688 C 649.971 -1.70297 -3.88953 0
M  V30 6689 O 650.995 -1.49037 -3.23522 0
M  V30 6690 O 649.854 -2.05593 -5.06353 0
M  V30 6691 H 646.948 -0.277891 -0.778913 0
M  V30 6692 H 649.494 -1.21343 -1.18633 0
M  V30 6693 H 648.266 -2.55564 -2.96315 0
M  V30 6694 H 647.889 -1.07466 -3.82801 0
M  V30 6695 N 648.886 1.2938 -0.899927 0
M  V30 6696 C 649.849 2.25983 -0.382677 0
M  V30 6697 C 650.849 1.53366 0.483259 0
M  V30 6698 O 652.039 1.71798 0.28828 0
M  V30 6699 C 649.171 3.37878 0.452915 0
M  V30 6700 H 650.364 2.73252 -1.23586 0
M  V30 6701 H 647.917 1.40825 -0.678088 0
M  V30 6702 H 648.652 2.95949 1.32608 0
M  V30 6703 H 648.437 3.91742 -0.167562 0
M  V30 6704 H 649.927 4.09746 0.806107 0
M  V30 6705 N 650.364 0.662433 1.43002 0
M  V30 6706 C 651.327 -0.0142016 2.29196 0
M  V30 6707 C 652.327 -0.741394 1.42688 0
M  V30 6708 O 653.517 -0.581257 1.64216 0
M  V30 6709 C 650.649 -1.03084 3.24941 0
M  V30 6710 H 651.842 0.7443 2.90517 0
M  V30 6711 H 649.395 0.424133 1.50435 0
M  V30 6712 H 650.13 -1.81826 2.68533 0
M  V30 6713 H 649.915 -0.512946 3.8873 0
M  V30 6714 H 651.405 -1.50308 3.89612 0
M  V30 6715 N 651.842 -1.52309 0.404946 0
M  V30 6716 C 653.119 -1.94237 -0.230544 0
M  V30 6717 C 653.499 -1.34154 -1.6299 0
M  V30 6718 O 652.847 -0.515713 -2.22604 0
M  V30 6719 C 653.057 -3.48166 -0.241106 0
M  V30 6720 C 654.405 -4.22074 -0.462488 0
M  V30 6721 O 655.429 -3.54754 -0.320644 0
M  V30 6722 O 654.288 -5.41443 -0.741708 0
M  V30 6723 H 651.382 -0.813766 -0.147358 0
M  V30 6724 H 653.928 -1.6333 0.460587 0
M  V30 6725 H 652.7 -3.84269 0.738467 0
M  V30 6726 H 652.323 -3.85422 -0.97651 0
M  V30 6727 N 653.32 -0.135238 -1.57019 0
M  V30 6728 C 654.283 0.794707 -2.14981 0
M  V30 6729 C 655.283 1.18342 -1.08866 0
M  V30 6730 O 656.473 1.10627 -1.34563 0
M  V30 6731 C 653.605 2.07685 -2.70333 0
M  V30 6732 H 654.798 0.290696 -2.98488 0
M  V30 6733 H 652.351 0.114128 -1.55883 0
M  V30 6734 H 653.086 2.6248 -1.9046 0
M  V30 6735 H 652.871 1.80745 -3.47957 0
M  V30 6736 H 654.361 2.74127 -3.1503 0
M  V30 6737 N 654.798 1.5699 0.138552 0
M  V30 6738 C 655.761 1.97984 1.15478 0
M  V30 6739 C 656.761 0.867416 1.35398 0
M  V30 6740 O 657.951 1.13387 1.32246 0
M  V30 6741 C 655.083 2.3031 2.51337 0
M  V30 6742 H 656.276 2.88953 0.802896 0
M  V30 6743 H 653.829 1.51555 0.382189 0
M  V30 6744 H 654.564 1.42159 2.91481 0
M  V30 6745 H 654.349 3.11425 2.38237 0
M  V30 6746 H 655.839 2.62834 3.24512 0
M  V30 6747 N 656.276 -0.40816 1.52223 0
M  V30 6748 C 657.186 -1.52202 1.78526 0
M  V30 6749 C 658.202 -1.60546 0.670892 0
M  V30 6750 O 659.378 -1.77242 0.956404 0
M  V30 6751 C 656.443 -2.87928 1.93128 0
M  V30 6752 C 655.504 -2.89463 3.17033 0
M  V30 6753 C 654.737 -4.18715 3.30929 0
M  V30 6754 O 654.96 -5.12662 2.50067 0
M  V30 6755 O 653.894 -4.27125 4.24084 0
M  V30 6756 H 657.72 -1.32911 2.73072 0
M  V30 6757 H 655.305 -0.594112 1.37079 0
M  V30 6758 H 657.187 -3.68426 2.04549 0
M  V30 6759 H 655.862 -3.07285 1.01772 0
M  V30 6760 H 654.769 -2.07815 3.11069 0
M  V30 6761 H 656.102 -2.75055 4.08174 0
M  V30 6762 N 657.755 -1.42862 -0.66545 0
M  V30 6763 C 658.685 -1.49867 -1.79059 0
M  V30 6764 C 659.666 -0.354394 -1.66367 0
M  V30 6765 O 660.851 -0.569969 -1.85647 0
M  V30 6766 C 657.981 -1.40943 -3.17415 0
M  V30 6767 C 656.935 -2.53495 -3.44854 0
M  V30 6768 C 656.261 -2.29626 -4.82883 0
M  V30 6769 C 657.561 -3.95781 -3.40815 0
M  V30 6770 H 659.255 -2.44037 -1.73453 0
M  V30 6771 H 656.801 -1.17456 -0.833071 0
M  V30 6772 H 658.754 -1.4445 -3.95869 0
M  V30 6773 H 657.478 -0.432716 -3.23721 0
M  V30 6774 H 656.137 -2.4932 -2.68766 0
M  V30 6775 H 655.785 -1.30226 -4.8585 0
M  V30 6776 H 655.485 -3.05065 -5.02204 0
M  V30 6777 H 657.009 -2.34897 -5.63609 0
M  V30 6778 H 658.423 -4.01508 -4.09224 0
M  V30 6779 H 656.82 -4.71148 -3.71672 0
M  V30 6780 H 657.89 -4.21786 -2.39216 0
M  V30 6781 N 659.233 0.902656 -1.29189 0
M  V30 6782 C 660.18 2.00643 -1.14066 0
M  V30 6783 C 661.15 1.66064 -0.0347756 0
M  V30 6784 O 662.335 1.8973 -0.201752 0
M  V30 6785 C 659.475 3.35214 -0.820104 0
M  V30 6786 C 658.588 3.82594 -2.00614 0
M  V30 6787 C 657.723 5.05727 -1.62522 0
M  V30 6788 C 656.762 5.45469 -2.77724 0
M  V30 6789 N 655.899 6.59789 -2.40048 0
M  V30 6790 H 660.739 2.1291 -2.08502 0
M  V30 6791 H 658.276 1.04271 -1.03759 0
M  V30 6792 H 660.234 4.12643 -0.614949 0
M  V30 6793 H 658.864 3.22682 0.0873452 0
M  V30 6794 H 657.916 3.01226 -2.32308 0
M  V30 6795 H 659.228 4.07999 -2.86946 0
M  V30 6796 H 658.382 5.90732 -1.38277 0
M  V30 6797 H 657.121 4.82155 -0.733333 0
M  V30 6798 H 656.126 4.59 -3.02653 0
M  V30 6799 H 657.351 5.71024 -3.67572 0
M  V30 6800 H 655.297 6.37826 -1.53343 0
M  V30 6801 H 655.214 6.84975 -3.19914 0
M  V30 6802 H 656.482 7.4807 -2.19116 0
M  V30 6803 N 660.711 1.11618 1.11262 0
M  V30 6804 C 661.674 0.779447 2.15539 0
M  V30 6805 C 662.674 -0.202081 1.59525 0
M  V30 6806 O 663.864 0.0226356 1.74185 0
M  V30 6807 C 660.996 0.15674 3.40539 0
M  V30 6808 H 662.189 1.70324 2.4684 0
M  V30 6809 H 659.742 0.918298 1.26479 0
M  V30 6810 H 660.477 -0.777186 3.1485 0
M  V30 6811 H 660.262 0.863308 3.82478 0
M  V30 6812 H 661.752 -0.062661 4.17553 0
M  V30 6813 N 662.189 -1.289 0.906776 0
M  V30 6814 C 663.136 -2.2751 0.388313 0
M  V30 6815 C 664.106 -1.57301 -0.533439 0
M  V30 6816 O 665.291 -1.85243 -0.457148 0
M  V30 6817 C 662.431 -3.43091 -0.37181 0
M  V30 6818 C 661.544 -4.28066 0.581647 0
M  V30 6819 C 660.679 -5.30837 -0.19623 0
M  V30 6820 C 659.718 -6.07472 0.751294 0
M  V30 6821 N 658.855 -7.021 0.00737727 0
M  V30 6822 H 663.695 -2.71237 1.23428 0
M  V30 6823 H 661.232 -1.33397 0.619962 0
M  V30 6824 H 663.19 -4.08888 -0.828641 0
M  V30 6825 H 661.82 -3.00374 -1.18218 0
M  V30 6826 H 660.872 -3.62378 1.157 0
M  V30 6827 H 662.184 -4.81382 1.30665 0
M  V30 6828 H 661.338 -6.02485 -0.71394 0
M  V30 6829 H 660.077 -4.78272 -0.954324 0
M  V30 6830 H 659.082 -5.34682 1.28044 0
M  V30 6831 H 660.307 -6.62126 1.50883 0
M  V30 6832 H 658.253 -6.51894 -0.732854 0
M  V30 6833 H 658.17 -7.53004 0.672334 0
M  V30 6834 H 659.438 -7.77956 -0.490365 0
M  V30 6835 N 663.667 -0.670007 -1.42649 0
M  V30 6836 C 664.913 -0.190568 -2.01903 0
M  V30 6837 C 665.246 1.19817 -1.52832 0
M  V30 6838 O 664.521 1.80342 -0.728485 0
M  V30 6839 C 664.804 -0.21991 -3.59428 0
M  V30 6840 C 664.657 -1.64376 -4.18689 0
M  V30 6841 C 665.976 0.434519 -4.3795 0
M  V30 6842 H 663.095 -0.0707219 -0.733599 0
M  V30 6843 H 665.737 -0.853883 -1.69732 0
M  V30 6844 H 663.887 0.344894 -3.86966 0
M  V30 6845 H 665.559 -2.26044 -4.02122 0
M  V30 6846 H 663.802 -2.18591 -3.747 0
M  V30 6847 H 664.473 -1.61601 -5.27815 0
M  V30 6848 H 666.949 -0.0462156 -4.16074 0
M  V30 6849 H 665.825 0.38333 -5.4756 0
M  V30 6850 H 666.086 1.51135 -4.15464 0
M  V30 6851 N 665.145 1.52092 -0.413018 0
M  V30 6852 C 666.075 2.30021 0.401567 0
M  V30 6853 C 667.056 1.34395 1.04269 0
M  V30 6854 O 668.241 1.63304 1.05097 0
M  V30 6855 C 665.371 3.12447 1.51638 0
M  V30 6856 C 664.325 4.16153 1.00005 0
M  V30 6857 C 663.651 4.86948 2.20875 0
M  V30 6858 C 664.951 5.22275 0.0513757 0
M  V30 6859 H 666.645 2.98365 -0.248704 0
M  V30 6860 H 664.191 1.4349 -0.121052 0
M  V30 6861 H 666.144 3.65733 2.09326 0
M  V30 6862 H 664.868 2.41879 2.19458 0
M  V30 6863 H 663.527 3.63882 0.445549 0
M  V30 6864 H 663.175 4.12905 2.8726 0
M  V30 6865 H 662.875 5.57057 1.86978 0
M  V30 6866 H 664.399 5.43048 2.79162 0
M  V30 6867 H 665.813 5.70778 0.537176 0
M  V30 6868 H 664.21 5.9977 -0.198977 0
M  V30 6869 H 665.28 4.76611 -0.892736 0
M  V30 6870 N 666.623 0.143563 1.56945 0
M  V30 6871 C 667.586 -0.783295 2.154 0
M  V30 6872 C 668.586 -1.17763 1.09492 0
M  V30 6873 O 669.776 -1.09912 1.35148 0
M  V30 6874 C 666.908 -2.06248 2.7143 0
M  V30 6875 H 668.101 -0.274863 2.98638 0
M  V30 6876 H 665.654 -0.105859 1.55941 0
M  V30 6877 H 666.389 -2.61466 1.91849 0
M  V30 6878 H 666.174 -1.78897 3.4891 0
M  V30 6879 H 667.664 -2.72453 3.16479 0
M  V30 6880 N 668.101 -1.57061 -0.130224 0
M  V30 6881 C 669.326 -1.88802 -0.858409 0
M  V30 6882 C 669.751 -0.734353 -1.73173 0
M  V30 6883 O 669.109 0.315529 -1.78533 0
M  V30 6884 C 669.157 -3.19228 -1.67708 0
M  V30 6885 O 668.261 -3.04343 -2.78297 0
M  V30 6886 H 667.602 -0.619849 -0.238083 0
M  V30 6887 H 670.132 -2.04271 -0.115995 0
M  V30 6888 H 670.142 -3.51669 -2.06864 0
M  V30 6889 H 668.817 -4.02793 -1.0359 0
M  V30 6890 H 667.394 -2.83346 -2.42425 0
M  V30 6891 N 669.579 0.400081 -1.52437 0
M  V30 6892 C 670.827 1.14392 -1.6661 0
M  V30 6893 C 671.148 1.90792 -0.402927 0
M  V30 6894 O 670.418 1.87042 0.582425 0
M  V30 6895 H 668.998 0.425275 -0.614125 0
M  V30 6896 H 671.66 0.455076 -1.89513 0
M  V30 6897 H 670.756 1.85298 -2.51139 0
M  V30 6898 N 671.057 1.43213 0.657864 0
M  V30 6899 C 671.987 1.50815 1.78262 0
M  V30 6900 C 672.968 0.363211 1.66177 0
M  V30 6901 O 674.153 0.579806 1.85343 0
M  V30 6902 C 671.283 1.42625 3.16663 0
M  V30 6903 C 670.237 2.5532 3.43505 0
M  V30 6904 C 669.563 2.32184 4.81658 0
M  V30 6905 C 670.863 3.97583 3.38711 0
M  V30 6906 H 672.557 2.44954 1.72157 0
M  V30 6907 H 670.103 1.17896 0.82683 0
M  V30 6908 H 672.056 1.46548 3.95097 0
M  V30 6909 H 670.78 0.449877 3.23487 0
M  V30 6910 H 669.439 2.50742 2.6744 0
M  V30 6911 H 669.087 1.32801 4.85153 0
M  V30 6912 H 668.787 3.07724 5.00579 0
M  V30 6913 H 670.311 2.37883 5.62356 0
M  V30 6914 H 671.725 4.03673 4.07089 0
M  V30 6915 H 670.122 4.73112 3.69168 0
M  V30 6916 H 671.192 4.23049 2.36976 0
M  V30 6917 N 672.536 -0.895792 1.29666 0
M  V30 6918 C 673.764 -1.68001 1.20761 0
M  V30 6919 C 674.179 -1.87379 -0.231187 0
M  V30 6920 O 673.536 -1.41359 -1.15429 0
M  V30 6921 C 673.587 -3.06236 1.92098 0
M  V30 6922 O 673.308 -2.8774 3.30359 0
M  V30 6923 C 674.809 -4.00652 1.89717 0
M  V30 6924 H 672.029 -0.524591 0.418384 0
M  V30 6925 H 674.573 -1.11995 1.71106 0
M  V30 6926 H 672.728 -3.59007 1.45578 0
M  V30 6927 H 673.142 -3.75359 3.66342 0
M  V30 6928 H 674.616 -4.95051 2.44189 0
M  V30 6929 H 675.093 -4.30424 0.873595 0
M  V30 6930 H 675.699 -3.53815 2.35998 0
M  V30 6931 N 674.014 -1.12206 -1.10668 0
M  V30 6932 C 675.26 -0.877172 -1.82848 0
M  V30 6933 C 675.593 0.595571 -1.84842 0
M  V30 6934 O 674.868 1.44013 -1.30731 0
M  V30 6935 C 675.151 -1.44957 -3.29635 0
M  V30 6936 C 675.004 -2.99051 -3.35989 0
M  V30 6937 C 676.323 -1.10714 -4.25946 0
M  V30 6938 H 673.442 -0.320103 -0.663854 0
M  V30 6939 H 676.084 -1.38827 -1.2972 0
M  V30 6940 H 674.234 -1.01488 -3.7501 0
M  V30 6941 H 675.906 -3.51182 -2.99113 0
M  V30 6942 H 674.149 -3.34705 -2.75962 0
M  V30 6943 H 674.82 -3.34194 -4.39339 0
M  V30 6944 H 677.296 -1.48254 -3.88793 0
M  V30 6945 H 676.172 -1.5343 -5.2702 0
M  V30 6946 H 676.433 -0.019 -4.42096 0
M  V30 6947 N 675.492 1.28418 -0.913599 0
M  V30 6948 C 676.717 1.99643 -0.561899 0
M  V30 6949 C 677.142 1.67819 0.849608 0
M  V30 6950 O 676.5 0.910503 1.56779 0
M  V30 6951 C 676.548 3.52116 -0.777622 0
M  V30 6952 O 675.652 4.12076 0.163457 0
M  V30 6953 H 674.993 0.627229 -0.217898 0
M  V30 6954 H 677.523 1.63575 -1.229 0
M  V30 6955 H 677.533 4.02163 -0.687666 0
M  V30 6956 H 676.208 3.74613 -1.8066 0
M  V30 6957 H 674.785 3.72892 0.0247827 0
M  V30 6958 N 676.97 0.677563 1.42291 0
M  V30 6959 C 677.902 -0.0380218 2.29168 0
M  V30 6960 C 678.915 -0.762714 1.43828 0
M  V30 6961 O 680.104 -0.616413 1.67519 0
M  V30 6962 C 677.204 -1.07761 3.21311 0
M  V30 6963 C 676.377 -0.42618 4.35319 0
M  V30 6964 C 675.436 -1.36592 5.08162 0
M  V30 6965 O 674.462 -0.865174 5.62586 0
M  V30 6966 N 675.664 -2.69909 5.13935 0
M  V30 6967 H 678.429 0.707766 2.91223 0
M  V30 6968 H 675.99 0.52219 1.53247 0
M  V30 6969 H 677.982 -1.70761 3.6691 0
M  V30 6970 H 676.552 -1.72511 2.60689 0
M  V30 6971 H 675.772 0.383385 3.92331 0
M  V30 6972 H 677.06 0.0275277 5.08793 0
M  V30 6973 H 676.458 -3.13129 4.71134 0
M  V30 6974 H 675.015 -3.2815 5.6317 0
M  V30 6975 N 678.448 -1.51871 0.421078 0
M  V30 6976 C 679.378 -2.30231 -0.389363 0
M  V30 6977 C 680.359 -1.34946 -1.03555 0
M  V30 6978 O 681.544 -1.63859 -1.04229 0
M  V30 6979 C 678.674 -3.13247 -1.49979 0
M  V30 6980 C 677.628 -4.16677 -0.977966 0
M  V30 6981 C 676.954 -4.88112 -2.1829 0
M  V30 6982 C 678.254 -5.22295 -0.0236775 0
M  V30 6983 H 679.948 -2.98229 0.264524 0
M  V30 6984 H 677.494 -1.43424 0.12866 0
M  V30 6985 H 679.447 -3.66838 -2.07383 0
M  V30 6986 H 678.171 -2.4304 -2.18173 0
M  V30 6987 H 676.83 -3.64114 -0.426245 0
M  V30 6988 H 676.478 -4.14423 -2.85066 0
M  V30 6989 H 676.178 -5.58041 -1.84021 0
M  V30 6990 H 677.702 -5.44521 -2.76278 0
M  V30 6991 H 679.116 -5.71055 -0.506899 0
M  V30 6992 H 677.513 -5.99656 0.230782 0
M  V30 6993 H 678.583 -4.76131 0.917999 0
M  V30 6994 N 679.926 -0.151884 -1.56866 0
M  V30 6995 C 681.172 0.498742 -1.96572 0
M  V30 6996 C 681.505 1.64194 -1.03702 0
M  V30 6997 O 680.78 1.94334 -0.0803432 0
M  V30 6998 C 681.063 1.00027 -3.45929 0
M  V30 6999 C 680.916 -0.141767 -4.49577 0
M  V30 7000 C 682.235 1.88044 -3.97904 0
M  V30 7001 H 679.354 0.17982 -0.714726 0
M  V30 7002 H 681.996 -0.234097 -1.88552 0
M  V30 7003 H 680.146 1.62476 -3.52894 0
M  V30 7004 H 681.818 -0.778269 -4.54687 0
M  V30 7005 H 680.061 -0.80019 -4.26356 0
M  V30 7006 H 680.732 0.250947 -5.51429 0
M  V30 7007 H 683.208 1.35416 -3.93449 0
M  V30 7008 H 682.084 2.20043 -5.02864 0
M  V30 7009 H 682.345 2.81916 -3.40552 0
M  V30 7010 N 681.404 1.57128 0.121893 0
M  V30 7011 C 682.629 1.89254 0.848385 0
M  V30 7012 C 683.054 0.743527 1.72781 0
M  V30 7013 O 682.412 -0.306056 1.78698 0
M  V30 7014 C 682.46 3.20113 1.66012 0
M  V30 7015 O 681.564 3.05815 2.76679 0
M  V30 7016 H 680.905 0.621103 0.234793 0
M  V30 7017 H 683.435 2.0433 0.10516 0
M  V30 7018 H 683.445 3.52761 2.04996 0
M  V30 7019 H 682.12 4.03336 1.01452 0
M  V30 7020 H 680.697 2.84627 2.40918 0
M  V30 7021 N 682.882 -0.391992 1.52647 0
M  V30 7022 C 684.11 -1.1586 1.71418 0
M  V30 7023 C 684.525 -1.8381 0.431216 0
M  V30 7024 O 683.882 -1.7256 -0.594085 0
M  V30 7025 C 683.933 -2.20888 2.86165 0
M  V30 7026 O 683.654 -1.5571 4.09495 0
M  V30 7027 C 685.155 -3.103 3.1659 0
M  V30 7028 H 682.375 -0.347494 0.574011 0
M  V30 7029 H 684.919 -0.458972 1.99283 0
M  V30 7030 H 683.074 -2.86492 2.6077 0
M  V30 7031 H 683.488 -2.25474 4.73563 0
M  V30 7032 H 684.962 -3.8003 4.00351 0
M  V30 7033 H 685.439 -3.73639 2.30848 0
M  V30 7034 H 686.045 -2.50345 3.43813 0
M  V30 7035 N 684.36 -1.4356 -0.65026 0
M  V30 7036 C 685.323 -1.48615 -1.74489 0
M  V30 7037 C 686.323 -0.370483 -1.56474 0
M  V30 7038 O 687.513 -0.632351 -1.62317 0
M  V30 7039 C 684.645 -1.34161 -3.13391 0
M  V30 7040 H 685.838 -2.46103 -1.71387 0
M  V30 7041 H 683.391 -1.30369 -0.862186 0
M  V30 7042 H 684.126 -0.376918 -3.22102 0
M  V30 7043 H 683.911 -2.1504 -3.27872 0
M  V30 7044 H 685.401 -1.40637 -3.93206 0
M  V30 7045 N 685.838 0.888903 -1.30139 0
M  V30 7046 C 687.084 1.64288 -1.19922 0
M  V30 7047 C 687.439 1.90839 0.244561 0
M  V30 7048 O 686.732 1.51544 1.17239 0
M  V30 7049 C 686.926 2.99041 -1.95728 0
M  V30 7050 C 686.755 2.85644 -3.47329 0
M  V30 7051 C 685.525 2.85836 -4.16685 0
M  V30 7052 C 687.723 2.6188 -4.42632 0
M  V30 7053 N 685.705 2.63289 -5.54574 0
M  V30 7054 C 687.076 2.48418 -5.68057 0
M  V30 7055 C 689.131 2.47073 -4.32272 0
M  V30 7056 C 687.834 2.21655 -6.84296 0
M  V30 7057 C 689.86 2.21695 -5.48275 0
M  V30 7058 C 689.222 2.09007 -6.72678 0
M  V30 7059 H 685.321 0.606315 -0.493868 0
M  V30 7060 H 687.905 1.0478 -1.64102 0
M  V30 7061 H 686.076 3.56589 -1.53945 0
M  V30 7062 H 687.808 3.63607 -1.77685 0
M  V30 7063 H 684.563 2.97521 -3.68481 0
M  V30 7064 H 684.987 2.55039 -6.27124 0
M  V30 7065 H 689.629 2.55621 -3.36776 0
M  V30 7066 H 687.347 2.11845 -7.79838 0
M  V30 7067 H 690.933 2.11067 -5.42164 0
M  V30 7068 H 689.813 1.89643 -7.60924 0
M  V30 7069 N 687.317 1.12792 1.10072 0
M  V30 7070 C 688.28 0.802264 2.14701 0
M  V30 7071 C 689.28 -0.18515 1.59731 0
M  V30 7072 O 690.47 0.041109 1.74151 0
M  V30 7073 C 687.602 0.19285 3.40354 0
M  V30 7074 H 688.795 1.72932 2.45019 0
M  V30 7075 H 686.348 0.931662 1.25498 0
M  V30 7076 H 687.083 -0.743748 3.15656 0
M  V30 7077 H 686.868 0.903827 3.81541 0
M  V30 7078 H 688.358 -0.0183704 4.17596 0
M  V30 7079 N 688.795 -1.27931 0.920396 0
M  V30 7080 C 689.758 -2.25345 0.41858 0
M  V30 7081 C 690.758 -1.54116 -0.458798 0
M  V30 7082 O 691.948 -1.72235 -0.260912 0
M  V30 7083 C 689.08 -3.38556 -0.399104 0
M  V30 7084 H 690.273 -2.71251 1.27918 0
M  V30 7085 H 687.826 -1.39728 0.700406 0
M  V30 7086 H 688.561 -2.98021 -1.27882 0
M  V30 7087 H 688.346 -3.91426 0.229863 0
M  V30 7088 H 689.836 -4.10976 -0.740817 0
M  V30 7089 N 690.273 -0.685099 -1.4193 0
M  V30 7090 C 691.236 -0.0222632 -2.29189 0
M  V30 7091 C 692.236 0.7186 -1.4385 0
M  V30 7092 O 693.426 0.555058 -1.6512 0
M  V30 7093 C 690.558 0.979013 -3.2654 0
M  V30 7094 H 691.751 -0.790424 -2.89296 0
M  V30 7095 H 689.304 -0.448012 -1.49742 0
M  V30 7096 H 690.039 1.77531 -2.71392 0
M  V30 7097 H 689.824 0.451037 -3.89497 0
M  V30 7098 H 691.314 1.44091 -3.91954 0
M  V30 7099 N 691.751 1.51645 -0.429126 0
M  V30 7100 C 692.976 2.06917 0.141399 0
M  V30 7101 C 693.401 1.29527 1.36398 0
M  V30 7102 O 692.759 0.33094 1.78254 0
M  V30 7103 C 692.807 3.57776 0.4504 0
M  V30 7104 O 691.911 3.82639 1.53821 0
M  V30 7105 H 691.252 0.663978 0.0054647 0
M  V30 7106 H 693.782 1.95355 -0.608093 0
M  V30 7107 H 693.792 4.01894 0.703249 0
M  V30 7108 H 692.467 4.13532 -0.443213 0
M  V30 7109 H 691.044 3.5039 1.27597 0
M  V30 7110 N 693.229 0.160201 1.56784 0
M  V30 7111 C 694.457 -0.494165 2.00912 0
M  V30 7112 C 694.872 -1.57548 1.04038 0
M  V30 7113 O 694.229 -1.82457 0.0394581 0
M  V30 7114 C 694.28 -1.08271 3.44905 0
M  V30 7115 O 694.001 -0.0445704 4.38077 0
M  V30 7116 C 695.502 -1.8164 4.04378 0
M  V30 7117 H 692.722 -0.127498 0.658776 0
M  V30 7118 H 695.266 0.258665 2.02858 0
M  V30 7119 H 693.421 -1.78609 3.4377 0
M  V30 7120 H 693.835 -0.477544 5.22322 0
M  V30 7121 H 695.309 -2.18094 5.07089 0
M  V30 7122 H 695.786 -2.70727 3.45838 0
M  V30 7123 H 696.392 -1.15969 4.09184 0
M  V30 7124 N 694.707 -1.5719 -0.113559 0
M  V30 7125 C 695.954 -1.85138 -0.820382 0
M  V30 7126 C 696.282 -0.74608 -1.79622 0
M  V30 7127 O 695.537 0.262077 -1.93937 0
M  V30 7128 C 695.836 -3.19593 -1.59984 0
M  V30 7129 C 695.502 -4.44315 -0.767809 0
M  V30 7130 C 694.164 -4.78179 -0.538379 0
M  V30 7131 C 696.516 -5.2086 -0.188203 0
M  V30 7132 C 693.844 -5.86028 0.28082 0
M  V30 7133 C 696.196 -6.29572 0.618217 0
M  V30 7134 C 694.86 -6.61964 0.857912 0
M  V30 7135 H 694.13 -0.677467 -0.300199 0
M  V30 7136 H 696.777 -1.91322 -0.0825443 0
M  V30 7137 H 695.082 -3.0901 -2.40874 0
M  V30 7138 H 696.779 -3.3844 -2.1508 0
M  V30 7139 H 693.369 -4.17786 -0.956724 0
M  V30 7140 H 697.553 -4.95045 -0.352658 0
M  V30 7141 H 692.809 -6.09547 0.475693 0
M  V30 7142 H 696.983 -6.88064 1.0743 0
M  V30 7143 H 694.61 -7.45365 1.49451 0
M  V30 7144 N 696.185 0.383891 -1.52853 0
M  V30 7145 C 697.601 0.724316 -1.42218 0
M  V30 7146 C 697.801 1.93943 -0.546654 0
M  V30 7147 O 696.857 2.5249 -0.0220562 0
M  V30 7148 C 698.17 0.954635 -2.85144 0
M  V30 7149 C 699.718 1.05579 -2.94656 0
M  V30 7150 C 700.193 1.3187 -4.38605 0
M  V30 7151 N 701.684 1.38681 -4.41952 0
M  V30 7152 C 702.419 1.60699 -5.50421 0
M  V30 7153 N 701.915 1.80154 -6.68967 0
M  V30 7154 N 703.708 1.6292 -5.37972 0
M  V30 7155 H 695.859 -0.4156 -2.08294 0
M  V30 7156 H 698.122 -0.123776 -0.939885 0
M  V30 7157 H 697.828 0.133829 -3.51445 0
M  V30 7158 H 697.702 1.86788 -3.27704 0
M  V30 7159 H 700.089 1.86716 -2.2852 0
M  V30 7160 H 700.17 0.120338 -2.55517 0
M  V30 7161 H 699.814 0.512416 -5.05309 0
M  V30 7162 H 699.744 2.26708 -4.75301 0
M  V30 7163 H 702.235 1.25334 -3.56511 0
M  V30 7164 H 702.548 1.96476 -7.47407 0
M  V30 7165 H 700.893 1.77368 -6.71986 0
M  V30 7166 H 704.084 1.47276 -4.44328 0
M  V30 7167 H 704.257 1.79739 -6.22574 0
M  V30 7168 N 697.663 1.43903 0.642637 0
M  V30 7169 C 698.911 1.45791 1.39962 0
M  V30 7170 C 699.232 0.0873144 1.94804 0
M  V30 7171 O 698.502 -0.878825 1.75081 0
M  V30 7172 H 697.082 0.536797 0.519479 0
M  V30 7173 H 699.744 1.7959 0.757189 0
M  V30 7174 H 698.84 2.17665 2.2367 0
M  V30 7175 N 699.141 -0.881989 1.30609 0
M  V30 7176 C 700.366 -1.67236 1.22665 0
M  V30 7177 C 700.791 -1.8696 -0.206777 0
M  V30 7178 O 700.149 -1.4027 -1.14865 0
M  V30 7179 C 700.197 -3.02446 1.96363 0
M  V30 7180 O 699.301 -3.91614 1.29276 0
M  V30 7181 H 698.642 -0.510902 0.424117 0
M  V30 7182 H 701.172 -1.10055 1.72479 0
M  V30 7183 H 701.182 -3.52468 2.055 0
M  V30 7184 H 699.857 -2.8741 3.00613 0
M  V30 7185 H 698.434 -3.50055 1.28514 0
M  V30 7186 N 700.619 -1.13374 -1.09472 0
M  V30 7187 C 701.896 -0.806329 -1.78207 0
M  V30 7188 C 702.276 0.702191 -1.99079 0
M  V30 7189 O 701.624 1.63931 -1.59182 0
M  V30 7190 C 701.834 -1.59271 -3.10538 0
M  V30 7191 C 703.182 -1.78509 -3.85253 0
M  V30 7192 O 704.206 -1.55866 -3.20288 0
M  V30 7193 O 703.065 -2.16287 -5.01879 0
M  V30 7194 H 700.159 -0.29435 -0.772843 0
M  V30 7195 H 702.705 -1.23833 -1.16033 0
M  V30 7196 H 701.477 -2.61792 -2.90828 0
M  V30 7197 H 701.1 -1.15562 -3.80436 0
M  V30 7198 N 702.098 1.27442 -0.927168 0
M  V30 7199 C 703.045 2.26863 -0.424459 0
M  V30 7200 C 704.015 1.5813 0.508346 0
M  V30 7201 O 705.2 1.85946 0.42762 0
M  V30 7202 C 702.34 3.43639 0.31718 0
M  V30 7203 C 701.453 4.27087 -0.649675 0
M  V30 7204 C 700.588 5.31082 0.111753 0
M  V30 7205 C 699.627 6.062 -0.847843 0
M  V30 7206 N 698.764 7.01999 -0.119074 0
M  V30 7207 H 703.604 2.69239 -1.27728 0
M  V30 7208 H 701.141 1.32394 -0.641106 0
M  V30 7209 H 703.099 4.10155 0.763486 0
M  V30 7210 H 701.729 3.02217 1.13424 0
M  V30 7211 H 700.781 3.60491 -1.21451 0
M  V30 7212 H 702.093 4.79242 -1.38307 0
M  V30 7213 H 701.247 6.03544 0.618 0
M  V30 7214 H 699.986 4.7973 0.878114 0
M  V30 7215 H 698.991 5.32577 -1.36534 0
M  V30 7216 H 700.216 6.59642 -1.61398 0
M  V30 7217 H 698.162 6.52977 0.629051 0
M  V30 7218 H 698.079 7.5184 -0.792046 0
M  V30 7219 H 699.347 7.78638 0.366537 0
M  V30 7220 N 703.576 0.692616 1.41565 0
M  V30 7221 C 704.992 0.363878 1.55397 0
M  V30 7222 C 705.192 -1.1294 1.66874 0
M  V30 7223 O 704.248 -1.91517 1.64552 0
M  V30 7224 C 705.561 1.10982 2.7947 0
M  V30 7225 C 707.109 1.09387 2.93263 0
M  V30 7226 C 707.584 1.8215 4.20221 0
M  V30 7227 N 709.075 1.79105 4.27172 0
M  V30 7228 C 709.81 2.32247 5.2426 0
M  V30 7229 N 709.306 2.93847 6.27396 0
M  V30 7230 N 711.099 2.22519 5.1618 0
M  V30 7231 H 703.25 1.66116 1.3236 0
M  V30 7232 H 705.513 0.700848 0.63837 0
M  V30 7233 H 705.219 2.1647 2.77188 0
M  V30 7234 H 705.093 0.686492 3.709 0
M  V30 7235 H 707.48 0.0472638 2.95062 0
M  V30 7236 H 707.561 1.55623 2.03015 0
M  V30 7237 H 707.205 2.86789 4.19183 0
M  V30 7238 H 707.135 1.33351 5.09436 0
M  V30 7239 H 709.626 1.34191 3.53272 0
M  V30 7240 H 709.939 3.31972 6.97864 0
M  V30 7241 H 708.284 2.97924 6.27906 0
M  V30 7242 H 711.475 1.7407 4.34531 0
M  V30 7243 H 711.648 2.64239 5.91677 0
M  V30 7244 N 705.054 -1.51416 0.437162 0
M  V30 7245 C 706.302 -2.01687 -0.129108 0
M  V30 7246 C 706.623 -1.32329 -1.43227 0
M  V30 7247 O 705.893 -0.457796 -1.90476 0
M  V30 7248 H 704.473 -0.745277 -0.0507023 0
M  V30 7249 H 707.135 -1.86075 0.579828 0
M  V30 7250 H 706.231 -3.10605 -0.305141 0
M  V30 7251 N 706.532 -0.168513 -1.56696 0
M  V30 7252 C 707.78 0.476216 -1.96409 0
M  V30 7253 C 708.101 1.63968 -1.05544 0
M  V30 7254 O 707.371 1.95525 -0.121235 0
M  V30 7255 H 705.951 0.178921 -0.725256 0
M  V30 7256 H 708.613 -0.249042 -1.93302 0
M  V30 7257 H 707.709 0.838094 -3.00637 0
M  V30 7258 N 708.01 1.57248 0.105221 0
M  V30 7259 C 708.973 2.00388 1.11252 0
M  V30 7260 C 709.973 0.89594 1.33527 0
M  V30 7261 O 711.163 1.16166 1.29811 0
M  V30 7262 C 708.295 2.35589 2.46395 0
M  V30 7263 H 709.488 2.90591 0.741424 0
M  V30 7264 H 707.041 1.52332 0.349956 0
M  V30 7265 H 707.776 1.4831 2.884 0
M  V30 7266 H 707.561 3.16408 2.31578 0
M  V30 7267 H 709.051 2.69658 3.18864 0
M  V30 7268 N 709.488 -0.375779 1.53054 0
M  V30 7269 C 710.436 -1.48015 1.79428 0
M  V30 7270 C 711.43 -1.55893 0.662854 0
M  V30 7271 O 712.636 -1.58901 0.845599 0
M  V30 7272 H 709.011 -0.492887 0.56795 0
M  V30 7273 H 710.982 -1.22971 2.71884 0
M  V30 7274 C 709.731 -2.84984 1.99197 0
M  V30 7275 H 709.054 -2.79677 2.85693 0
M  V30 7276 H 710.494 -3.61462 2.21633 0
M  V30 7277 C 708.953 -3.28025 0.768183 0
M  V30 7278 O 709.483 -4.01671 -0.0480482 0
M  V30 7279 N 707.689 -2.84454 0.594521 0
M  V30 7280 H 707.236 -2.24688 1.25988 0
M  V30 7281 H 707.194 -3.13609 -0.222916 0
M  V30 7282 N 710.966 -1.44241 -0.634997 0
M  V30 7283 C 712.214 -1.46531 -1.39187 0
M  V30 7284 C 712.535 -0.0976441 -1.94755 0
M  V30 7285 O 711.805 0.869528 -1.75545 0
M  V30 7286 H 710.385 -0.539544 -0.516625 0
M  V30 7287 H 713.047 -1.79989 -0.747655 0
M  V30 7288 H 712.143 -2.18848 -2.22513 0
M  V30 7289 N 712.444 0.87505 -1.31075 0
M  V30 7290 C 713.407 1.96333 -1.18263 0
M  V30 7291 C 714.407 1.60416 -0.111106 0
M  V30 7292 O 715.597 1.7044 -0.359987 0
M  V30 7293 C 712.729 3.31036 -0.81414 0
M  V30 7294 H 713.922 2.09125 -2.14958 0
M  V30 7295 H 711.475 1.06271 -1.14614 0
M  V30 7296 H 712.21 3.23944 0.151875 0
M  V30 7297 H 711.995 3.58476 -1.58862 0
M  V30 7298 H 713.485 4.10842 -0.748249 0
M  V30 7299 N 713.922 1.13953 1.08869 0
M  V30 7300 C 715.338 0.878924 1.33218 0
M  V30 7301 C 715.538 -0.482478 1.95638 0
M  V30 7302 O 714.594 -1.22778 2.2064 0
M  V30 7303 C 715.907 2.00798 2.23832 0
M  V30 7304 C 717.455 2.04073 2.37325 0
M  V30 7305 C 717.93 3.16258 3.31278 0
M  V30 7306 N 719.421 3.15805 3.38853 0
M  V30 7307 C 720.156 3.99249 4.11567 0
M  V30 7308 N 719.652 4.92721 4.87029 0
M  V30 7309 N 721.445 3.87327 4.0735 0
M  V30 7310 H 713.596 2.01645 0.66731 0
M  V30 7311 H 715.859 0.878395 0.356547 0
M  V30 7312 H 715.565 2.98986 1.85203 0
M  V30 7313 H 715.439 1.92704 3.24261 0
M  V30 7314 H 717.826 1.06495 2.75214 0
M  V30 7315 H 717.907 2.16239 1.36654 0
M  V30 7316 H 717.551 4.14079 2.9411 0
M  V30 7317 H 717.481 3.0133 4.31866 0
M  V30 7318 H 719.972 2.48102 2.8505 0
M  V30 7319 H 720.285 5.52867 5.39961 0
M  V30 7320 H 718.63 4.96723 4.86098 0
M  V30 7321 H 721.821 3.13627 3.475 0
M  V30 7322 H 721.994 4.52585 4.63757 0
M  V30 7323 N 715.4 -1.26948 0.933913 0
M  V30 7324 C 716.649 -1.93378 0.573409 0
M  V30 7325 C 716.962 -1.74148 -0.890614 0
M  V30 7326 O 718.168 -2.34971 -1.36017 0
M  V30 7327 C 716.624 -3.46449 0.974747 0
M  V30 7328 C 716.232 -3.74425 2.45988 0
M  V30 7329 C 717.976 -4.18924 0.685791 0
M  V30 7330 C 715.883 -5.209 2.8003 0
M  V30 7331 H 714.813 -0.723952 0.210736 0
M  V30 7332 H 717.464 -1.44143 1.13557 0
M  V30 7333 H 715.846 -3.94528 0.341181 0
M  V30 7334 H 717.02 -3.37079 3.14188 0
M  V30 7335 H 715.335 -3.15167 2.72138 0
M  V30 7336 H 717.932 -5.26786 0.916546 0
M  V30 7337 H 718.275 -4.14587 -0.377217 0
M  V30 7338 H 718.808 -3.76687 1.27874 0
M  V30 7339 H 715.547 -5.30332 3.85264 0
M  V30 7340 H 715.067 -5.59369 2.16485 0
M  V30 7341 H 716.746 -5.88837 2.68105 0
M  V30 7342 N 716.879 -0.700114 -1.41195 0
M  V30 7343 C 718.295 -0.372114 -1.55201 0
M  V30 7344 C 718.495 1.12053 -1.6747 0
M  V30 7345 O 717.551 1.90642 -1.65566 0
M  V30 7346 C 718.864 -1.12462 -2.78878 0
M  V30 7347 C 720.412 -1.10941 -2.92679 0
M  V30 7348 C 720.887 -1.84376 -4.19249 0
M  V30 7349 N 722.378 -1.81368 -4.26216 0
M  V30 7350 C 723.113 -2.35024 -5.23021 0
M  V30 7351 N 722.609 -2.9717 -6.25829 0
M  V30 7352 N 724.402 -2.25254 -5.14992 0
M  V30 7353 H 716.553 -1.66816 -1.31477 0
M  V30 7354 H 718.816 -0.704223 -0.634644 0
M  V30 7355 H 718.522 -2.17937 -2.76037 0
M  V30 7356 H 718.396 -0.706152 -3.70531 0
M  V30 7357 H 720.783 -0.062911 -2.95033 0
M  V30 7358 H 720.864 -1.56698 -2.02187 0
M  V30 7359 H 720.508 -2.89008 -4.17656 0
M  V30 7360 H 720.438 -1.3605 -5.08722 0
M  V30 7361 H 722.929 -1.36062 -3.52556 0
M  V30 7362 H 723.242 -3.35668 -6.96094 0
M  V30 7363 H 721.587 -3.01249 -6.26318 0
M  V30 7364 H 724.778 -1.76372 -4.33602 0
M  V30 7365 H 724.951 -2.67373 -5.90268 0
M  V30 7366 N 718.357 1.51182 -0.445186 0
M  V30 7367 C 719.287 2.30821 0.352686 0
M  V30 7368 C 720.268 1.36576 1.01395 0
M  V30 7369 O 721.453 1.65497 1.01609 0
M  V30 7370 C 718.583 3.15593 1.44976 0
M  V30 7371 C 717.537 4.1818 0.911553 0
M  V30 7372 C 716.863 4.91523 2.10497 0
M  V30 7373 C 718.163 5.22266 -0.059418 0
M  V30 7374 H 719.857 2.97771 -0.311936 0
M  V30 7375 H 717.403 1.43201 -0.151461 0
M  V30 7376 H 719.356 3.70091 2.01521 0
M  V30 7377 H 718.08 2.4648 2.14278 0
M  V30 7378 H 716.739 3.64746 0.368264 0
M  V30 7379 H 716.387 4.18906 2.78437 0
M  V30 7380 H 716.087 5.60898 1.7512 0
M  V30 7381 H 717.611 5.48847 2.6758 0
M  V30 7382 H 719.025 5.71789 0.415985 0
M  V30 7383 H 717.422 5.99213 -0.326152 0
M  V30 7384 H 718.492 4.7461 -0.993631 0
M  V30 7385 N 719.835 0.176821 1.56605 0
M  V30 7386 C 720.798 -0.737429 2.17013 0
M  V30 7387 C 721.798 -1.15414 1.11965 0
M  V30 7388 O 722.988 -1.0702 1.37449 0
M  V30 7389 C 720.12 -2.00445 2.75744 0
M  V30 7390 H 721.313 -0.211455 2.99154 0
M  V30 7391 H 718.866 -0.0727582 1.56131 0
M  V30 7392 H 719.601 -2.57338 1.97352 0
M  V30 7393 H 719.386 -1.71456 3.52626 0
M  V30 7394 H 720.876 -2.65679 3.22187 0
M  V30 7395 N 721.313 -1.57302 -0.09688 0
M  V30 7396 C 722.724 -1.7496 -0.651595 0
M  V30 7397 C 723.075 -0.798746 -1.79205 0
M  V30 7398 O 722.2 0.0231858 -2.16388 0
M  V30 7399 C 722.795 -3.17259 -1.18878 0
M  V30 7400 C 721.354 -3.36348 -1.68958 0
M  V30 7401 C 720.501 -2.70766 -0.598413 0
M  V30 7402 H 723.452 -1.58173 0.12918 0
M  V30 7403 H 723.473 -3.20033 -2.05814 0
M  V30 7404 H 722.985 -3.8644 -0.358523 0
M  V30 7405 H 721.086 -2.72243 -2.5439 0
M  V30 7406 H 721.199 -4.44654 -1.7838 0
M  V30 7407 H 719.563 -2.32615 -1.03743 0
M  V30 7408 H 720.346 -3.42586 0.221238 0
M  V30 7409 N 722.791 0.367657 -1.53252 0
M  V30 7410 C 723.723 1.47032 -1.75824 0
M  V30 7411 C 724.736 1.49736 -0.63898 0
M  V30 7412 O 725.925 1.53253 -0.915193 0
M  V30 7413 C 723.025 2.85805 -1.82122 0
M  V30 7414 C 722.198 3.06822 -3.11736 0
M  V30 7415 C 721.257 4.25698 -3.09302 0
M  V30 7416 O 720.283 4.20972 -3.83107 0
M  V30 7417 N 721.485 5.33002 -2.29977 0
M  V30 7418 H 724.25 1.28048 -2.70968 0
M  V30 7419 H 721.811 0.557363 -1.52004 0
M  V30 7420 H 723.803 3.63465 -1.77975 0
M  V30 7421 H 722.373 2.98046 -0.942716 0
M  V30 7422 H 721.593 2.1684 -3.29202 0
M  V30 7423 H 722.881 3.17731 -3.97397 0
M  V30 7424 H 722.279 5.39703 -1.69521 0
M  V30 7425 H 720.836 6.09247 -2.3165 0
M  V30 7426 N 724.269 1.44576 0.627338 0
M  V30 7427 C 725.216 1.51734 1.73912 0
M  V30 7428 C 726.186 0.364745 1.62046 0
M  V30 7429 O 727.371 0.575503 1.81914 0
M  V30 7430 C 724.511 1.47116 3.12171 0
M  V30 7431 C 723.624 2.72778 3.34986 0
M  V30 7432 C 722.759 2.59968 4.63239 0
M  V30 7433 C 721.798 3.80776 4.79245 0
M  V30 7434 N 720.935 3.66618 5.98778 0
M  V30 7435 H 725.775 2.46722 1.6713 0
M  V30 7436 H 723.312 1.22444 0.815224 0
M  V30 7437 H 725.27 1.42429 3.92135 0
M  V30 7438 H 723.9 0.556928 3.17959 0
M  V30 7439 H 722.952 2.87637 2.48936 0
M  V30 7440 H 724.264 3.62441 3.42692 0
M  V30 7441 H 723.418 2.53135 5.51369 0
M  V30 7442 H 722.157 1.67872 4.57898 0
M  V30 7443 H 721.162 3.87989 3.89544 0
M  V30 7444 H 722.387 4.73913 4.86398 0
M  V30 7445 H 720.333 2.77277 5.9452 0
M  V30 7446 H 720.25 4.499 6.07557 0
M  V30 7447 H 721.518 3.63684 6.89459 0
M  V30 7448 N 725.747 -0.868086 1.31537 0
M  V30 7449 C 727.024 -1.60384 1.11965 0
M  V30 7450 C 727.404 -2.08584 -0.324949 0
M  V30 7451 O 726.752 -1.86561 -1.31937 0
M  V30 7452 C 726.962 -2.76038 2.13551 0
M  V30 7453 C 728.31 -3.45954 2.46173 0
M  V30 7454 O 729.334 -2.86247 2.11993 0
M  V30 7455 O 728.193 -4.53666 3.04711 0
M  V30 7456 H 725.287 -0.705705 0.431172 0
M  V30 7457 H 727.833 -0.913385 1.43022 0
M  V30 7458 H 726.605 -2.37849 3.10714 0
M  V30 7459 H 726.228 -3.52769 1.83411 0
M  V30 7460 N 727.225 -1.14528 -1.08264 0
M  V30 7461 C 728.471 -0.925721 -1.81113 0
M  V30 7462 C 728.826 0.54185 -1.84612 0
M  V30 7463 O 728.119 1.39628 -1.31205 0
M  V30 7464 C 728.313 -1.46226 -3.26117 0
M  V30 7465 C 728.142 -2.98047 -3.36746 0
M  V30 7466 C 726.912 -3.66508 -3.4785 0
M  V30 7467 C 729.11 -3.95903 -3.28277 0
M  V30 7468 N 727.092 -5.06227 -3.47285 0
M  V30 7469 C 728.463 -5.21883 -3.34721 0
M  V30 7470 C 730.518 -3.88002 -3.12024 0
M  V30 7471 C 729.221 -6.40886 -3.26585 0
M  V30 7472 C 731.247 -5.06553 -3.05219 0
M  V30 7473 C 730.609 -6.31403 -3.12266 0
M  V30 7474 H 726.708 -0.392294 -0.676483 0
M  V30 7475 H 729.292 -1.45567 -1.293 0
M  V30 7476 H 727.463 -0.959076 -3.76373 0
M  V30 7477 H 729.195 -1.18247 -3.8704 0
M  V30 7478 H 725.95 -3.17067 -3.51804 0
M  V30 7479 H 726.374 -5.79172 -3.50555 0
M  V30 7480 H 731.016 -2.9235 -3.05436 0
M  V30 7481 H 728.734 -7.36781 -3.31934 0
M  V30 7482 H 732.32 -5.02191 -2.93761 0
M  V30 7483 H 731.2 -7.21596 -3.07032 0
M  V30 7484 N 728.703 1.26451 -0.940633 0
M  V30 7485 C 729.613 2.30128 -0.455881 0
M  V30 7486 C 730.629 1.67536 0.469867 0
M  V30 7487 O 731.805 1.98344 0.349529 0
M  V30 7488 C 728.87 3.45634 0.271648 0
M  V30 7489 C 727.931 4.23709 -0.690594 0
M  V30 7490 C 727.164 5.337 0.00231047 0
M  V30 7491 O 727.387 5.57215 1.21935 0
M  V30 7492 O 726.321 5.98091 -0.676111 0
M  V30 7493 H 730.147 2.73655 -1.31707 0
M  V30 7494 H 727.732 1.3164 -0.706497 0
M  V30 7495 H 729.614 4.15853 0.681486 0
M  V30 7496 H 728.289 3.04138 1.10824 0
M  V30 7497 H 727.196 3.55974 -1.15037 0
M  V30 7498 H 728.529 4.68953 -1.49478 0
M  V30 7499 N 730.181 0.707592 1.40822 0
M  V30 7500 C 731.144 0.0587224 2.29125 0
M  V30 7501 C 732.144 -0.695624 1.44975 0
M  V30 7502 O 733.334 -0.528718 1.65983 0
M  V30 7503 C 730.466 -0.926939 3.28056 0
M  V30 7504 H 731.659 0.836349 2.88002 0
M  V30 7505 H 729.212 0.471778 1.4901 0
M  V30 7506 H 729.947 -1.7319 2.74182 0
M  V30 7507 H 729.732 -0.389015 3.90165 0
M  V30 7508 H 731.222 -1.37837 3.94196 0
M  V30 7509 N 731.66 -1.50943 0.453197 0
M  V30 7510 C 732.608 -2.29728 -0.364419 0
M  V30 7511 C 733.602 -1.36246 -1.00664 0
M  V30 7512 O 734.808 -1.53518 -0.939794 0
M  V30 7513 H 731.183 -0.739536 -0.136347 0
M  V30 7514 H 733.154 -2.96672 0.320696 0
M  V30 7515 C 731.903 -3.1629 -1.44415 0
M  V30 7516 H 731.226 -3.88119 -0.959343 0
M  V30 7517 H 732.666 -3.74444 -1.98917 0
M  V30 7518 C 731.125 -2.32702 -2.43622 0
M  V30 7519 O 731.655 -1.99763 -3.48508 0
M  V30 7520 N 729.861 -1.95621 -2.14897 0
M  V30 7521 H 729.408 -2.22607 -1.29629 0
M  V30 7522 H 729.366 -1.39993 -2.81513 0
M  V30 7523 N 733.138 -0.185124 -1.56509 0
M  V30 7524 C 734.07 0.771401 -2.15829 0
M  V30 7525 C 735.083 1.18392 -1.11747 0
M  V30 7526 O 736.272 1.12137 -1.38879 0
M  V30 7527 C 733.372 2.05169 -2.69739 0
M  V30 7528 C 732.545 1.80056 -3.98621 0
M  V30 7529 C 731.604 2.92435 -4.37456 0
M  V30 7530 O 730.63 2.62473 -5.05071 0
M  V30 7531 N 731.832 4.20554 -4.00143 0
M  V30 7532 H 734.597 0.264184 -2.98533 0
M  V30 7533 H 732.158 -0.00281069 -1.619 0
M  V30 7534 H 734.15 2.7947 -2.92709 0
M  V30 7535 H 732.72 2.47041 -1.91545 0
M  V30 7536 H 731.94 0.895862 -3.83885 0
M  V30 7537 H 733.228 1.60662 -4.82768 0
M  V30 7538 H 732.626 4.47753 -3.45736 0
M  V30 7539 H 731.183 4.91514 -4.28085 0
M  V30 7540 N 734.616 1.57351 0.0885366 0
M  V30 7541 C 736.027 1.75303 0.642308 0
M  V30 7542 C 736.378 0.808238 1.78779 0
M  V30 7543 O 735.503 -0.01171 2.16397 0
M  V30 7544 C 736.098 3.17885 1.17194 0
M  V30 7545 C 734.657 3.37239 1.67172 0
M  V30 7546 C 733.804 2.7108 0.584045 0
M  V30 7547 H 736.755 1.58103 -0.137567 0
M  V30 7548 H 736.776 3.2112 2.04114 0
M  V30 7549 H 736.288 3.86625 0.338024 0
M  V30 7550 H 734.389 2.73588 2.52943 0
M  V30 7551 H 734.502 4.45594 1.76019 0
M  V30 7552 H 732.866 2.33161 1.02508 0
M  V30 7553 H 733.649 3.42464 -0.239403 0
M  V30 7554 N 736.094 -0.359525 1.53444 0
M  V30 7555 C 737.004 -1.46445 1.83278 0
M  V30 7556 C 738.02 -1.5833 0.721629 0
M  V30 7557 O 739.196 -1.7411 1.01231 0
M  V30 7558 C 736.261 -2.81638 2.02191 0
M  V30 7559 C 735.322 -2.7923 3.26082 0
M  V30 7560 C 734.555 -4.07974 3.44082 0
M  V30 7561 O 734.778 -5.04447 2.66251 0
M  V30 7562 O 733.712 -4.13417 4.37458 0
M  V30 7563 H 737.538 -1.24156 2.77162 0
M  V30 7564 H 735.123 -0.550201 1.389 0
M  V30 7565 H 737.005 -3.61732 2.16167 0
M  V30 7566 H 735.68 -3.03892 1.11496 0
M  V30 7567 H 734.587 -1.97813 3.17523 0
M  V30 7568 H 735.92 -2.6193 4.16718 0
M  V30 7569 N 737.572 -1.44907 -0.619662 0
M  V30 7570 C 738.504 -1.48652 -1.74457 0
M  V30 7571 C 739.517 -0.378596 -1.58337 0
M  V30 7572 O 740.706 -0.644987 -1.6644 0
M  V30 7573 C 737.806 -1.31568 -3.12319 0
M  V30 7574 C 736.979 -2.55816 -3.54792 0
M  V30 7575 C 736.038 -2.33465 -4.71573 0
M  V30 7576 O 735.064 -3.07015 -4.79302 0
M  V30 7577 N 736.266 -1.37254 -5.6404 0
M  V30 7578 H 739.031 -2.45632 -1.71712 0
M  V30 7579 H 736.592 -1.40492 -0.804582 0
M  V30 7580 H 738.584 -1.14445 -3.88181 0
M  V30 7581 H 737.154 -0.429095 -3.09641 0
M  V30 7582 H 736.374 -2.88137 -2.69018 0
M  V30 7583 H 737.662 -3.38431 -3.79924 0
M  V30 7584 H 737.06 -0.765309 -5.60499 0
M  V30 7585 H 735.617 -1.26106 -6.39485 0
M  V30 7586 N 739.05 0.861098 -1.31996 0
M  V30 7587 C 739.98 1.98482 -1.22993 0
M  V30 7588 C 740.961 1.6971 -0.115168 0
M  V30 7589 O 742.146 1.91849 -0.30126 0
M  V30 7590 C 739.276 3.34179 -0.945615 0
M  V30 7591 C 738.23 3.77284 -2.02091 0
M  V30 7592 C 737.556 5.1054 -1.58912 0
M  V30 7593 C 738.856 3.93439 -3.43515 0
M  V30 7594 H 740.55 2.06271 -2.17008 0
M  V30 7595 H 738.096 0.991043 -1.04472 0
M  V30 7596 H 740.049 4.12338 -0.869206 0
M  V30 7597 H 738.773 3.26586 0.0301849 0
M  V30 7598 H 737.432 3.01371 -2.08737 0
M  V30 7599 H 737.08 4.99397 -0.600942 0
M  V30 7600 H 736.78 5.40352 -2.30854 0
M  V30 7601 H 738.304 5.91199 -1.52696 0
M  V30 7602 H 739.718 4.6197 -3.39495 0
M  V30 7603 H 738.115 4.34661 -4.13751 0
M  V30 7604 H 739.185 2.96548 -3.8365 0
M  V30 7605 N 740.528 1.15101 1.07655 0
M  V30 7606 C 741.491 0.847625 2.12951 0
M  V30 7607 C 742.491 -0.151227 1.60087 0
M  V30 7608 O 743.681 0.0780399 1.74025 0
M  V30 7609 C 740.813 0.265 3.39868 0
M  V30 7610 H 742.006 1.7809 2.41296 0
M  V30 7611 H 739.559 0.958072 1.23494 0
M  V30 7612 H 740.294 -0.676625 3.17163 0
M  V30 7613 H 740.079 0.984554 3.79538 0
M  V30 7614 H 741.569 0.0702121 4.17541 0
M  V30 7615 N 742.006 -1.2595 0.947325 0
M  V30 7616 C 742.969 -2.24407 0.466285 0
M  V30 7617 C 743.969 -1.55054 -0.426005 0
M  V30 7618 O 745.159 -1.7275 -0.224319 0
M  V30 7619 C 742.291 -3.39326 -0.327201 0
M  V30 7620 H 743.484 -2.68477 1.33642 0
M  V30 7621 H 741.037 -1.38211 0.729887 0
M  V30 7622 H 741.772 -3.00667 -1.21532 0
M  V30 7623 H 741.557 -3.9085 0.312839 0
M  V30 7624 H 743.047 -4.12455 -0.653477 0
M  V30 7625 N 743.484 -0.715051 -1.40445 0
M  V30 7626 C 744.73 -0.254705 -2.01194 0
M  V30 7627 C 745.063 1.14894 -1.56567 0
M  V30 7628 O 744.338 1.77933 -0.785491 0
M  V30 7629 C 744.621 -0.334148 -3.58546 0
M  V30 7630 C 744.474 -1.77613 -4.13248 0
M  V30 7631 C 745.793 0.294968 -4.3911 0
M  V30 7632 H 742.912 -0.094025 -0.730978 0
M  V30 7633 H 745.554 -0.907449 -1.66929 0
M  V30 7634 H 743.704 0.221609 -3.87867 0
M  V30 7635 H 745.376 -2.38723 -3.94727 0
M  V30 7636 H 743.619 -2.30402 -3.67556 0
M  V30 7637 H 744.29 -1.78311 -5.22407 0
M  V30 7638 H 746.766 -0.178563 -4.15717 0
M  V30 7639 H 745.642 0.208934 -5.48502 0
M  V30 7640 H 745.903 1.37841 -4.20062 0
M  V30 7641 N 744.962 1.50701 -0.461195 0
M  V30 7642 C 745.892 2.31182 0.328184 0
M  V30 7643 C 746.873 1.37644 0.999408 0
M  V30 7644 O 748.058 1.66565 0.99848 0
M  V30 7645 C 745.188 3.17113 1.41621 0
M  V30 7646 C 744.142 4.19124 0.867148 0
M  V30 7647 C 743.468 4.93728 2.05272 0
M  V30 7648 C 744.768 5.22174 -0.114808 0
M  V30 7649 H 746.462 2.97423 -0.343501 0
M  V30 7650 H 744.008 1.43033 -0.166641 0
M  V30 7651 H 745.961 3.72208 1.97584 0
M  V30 7652 H 744.685 2.48739 2.11652 0
M  V30 7653 H 743.344 3.65116 0.329557 0
M  V30 7654 H 742.992 4.21835 2.73978 0
M  V30 7655 H 742.692 5.62724 1.69161 0
M  V30 7656 H 744.216 5.51654 2.61744 0
M  V30 7657 H 745.63 5.72198 0.355316 0
M  V30 7658 H 744.027 5.98833 -0.389689 0
M  V30 7659 H 745.097 4.7353 -1.04391 0
M  V30 7660 N 746.441 0.193421 1.56409 0
M  V30 7661 C 747.351 -0.740112 2.2262 0
M  V30 7662 C 748.367 -1.23597 1.22474 0
M  V30 7663 O 749.543 -1.28348 1.55206 0
M  V30 7664 C 746.608 -1.94317 2.87127 0
M  V30 7665 C 745.669 -1.49205 4.02538 0
M  V30 7666 C 744.902 -2.63776 4.63959 0
M  V30 7667 O 745.125 -3.81215 4.24301 0
M  V30 7668 O 744.059 -2.36585 5.53454 0
M  V30 7669 H 747.885 -0.206238 3.02999 0
M  V30 7670 H 745.47 -0.0357938 1.49357 0
M  V30 7671 H 747.352 -2.64633 3.27944 0
M  V30 7672 H 746.027 -2.46568 2.09728 0
M  V30 7673 H 744.934 -0.757738 3.66346 0
M  V30 7674 H 746.267 -1.01622 4.81595 0
M  V30 7675 N 747.919 -1.57396 -0.0801906 0
M  V30 7676 C 749.147 -1.91055 -0.794075 0
M  V30 7677 C 749.562 -0.788583 -1.71542 0
M  V30 7678 O 748.919 0.238587 -1.80934 0
M  V30 7679 C 748.97 -3.24418 -1.59484 0
M  V30 7680 O 748.691 -4.323 -0.710532 0
M  V30 7681 C 750.192 -3.72037 -2.41046 0
M  V30 7682 H 747.412 -0.63171 -0.226238 0
M  V30 7683 H 749.956 -2.04431 -0.0529685 0
M  V30 7684 H 748.111 -3.12595 -2.2883 0
M  V30 7685 H 748.525 -5.08976 -1.26663 0
M  V30 7686 H 749.999 -4.68006 -2.92702 0
M  V30 7687 H 750.476 -3.00624 -3.2019 0
M  V30 7688 H 751.082 -3.86777 -1.76871 0
M  V30 7689 N 749.397 0.351382 -1.53633 0
M  V30 7690 C 750.327 1.43688 -1.84055 0
M  V30 7691 C 751.308 1.55251 -0.695073 0
M  V30 7692 O 752.493 1.69587 -0.946257 0
M  V30 7693 C 749.623 2.80843 -2.04315 0
M  V30 7694 C 748.577 2.84094 -3.20117 0
M  V30 7695 C 747.903 4.2406 -3.25696 0
M  V30 7696 C 749.203 2.50334 -4.58399 0
M  V30 7697 H 750.897 1.18478 -2.74961 0
M  V30 7698 H 748.443 0.568509 -1.32303 0
M  V30 7699 H 750.396 3.56821 -2.2418 0
M  V30 7700 H 749.12 3.07471 -1.10132 0
M  V30 7701 H 747.779 2.10568 -3.00094 0
M  V30 7702 H 747.427 4.47785 -2.29123 0
M  V30 7703 H 747.127 4.27147 -4.03509 0
M  V30 7704 H 748.651 5.0189 -3.47762 0
M  V30 7705 H 750.065 3.16025 -4.78332 0
M  V30 7706 H 748.462 2.64717 -5.38558 0
M  V30 7707 H 749.532 1.45542 -4.62543 0
M  V30 7708 N 750.875 1.45233 0.611969 0
M  V30 7709 C 751.785 1.56098 1.7513 0
M  V30 7710 C 752.801 0.445646 1.68196 0
M  V30 7711 O 753.977 0.705718 1.88631 0
M  V30 7712 C 751.042 1.52052 3.11579 0
M  V30 7713 C 750.103 2.74589 3.29999 0
M  V30 7714 C 749.336 2.70726 4.59938 0
M  V30 7715 O 749.559 1.77806 5.41979 0
M  V30 7716 O 748.493 3.61864 4.80976 0
M  V30 7717 H 752.319 2.52392 1.68914 0
M  V30 7718 H 749.904 1.27695 0.775528 0
M  V30 7719 H 751.786 1.52387 3.92882 0
M  V30 7720 H 750.461 0.589085 3.18295 0
M  V30 7721 H 749.368 2.79817 2.48301 0
M  V30 7722 H 750.701 3.66843 3.28157 0
M  V30 7723 N 752.353 -0.854086 1.3245 0
M  V30 7724 C 753.316 -1.94427 1.21371 0
M  V30 7725 C 754.316 -1.60219 0.136613 0
M  V30 7726 O 755.506 -1.69846 0.387057 0
M  V30 7727 C 752.638 -3.29698 0.866701 0
M  V30 7728 H 753.831 -2.05679 2.18257 0
M  V30 7729 H 751.384 -1.04434 1.1629 0
M  V30 7730 H 752.119 -3.24145 -0.100319 0
M  V30 7731 H 751.904 -3.55903 1.64545 0
M  V30 7732 H 753.394 -4.09599 0.813515 0
M  V30 7733 N 753.831 -1.1567 -1.07043 0
M  V30 7734 C 755.08 -0.928039 -1.79082 0
M  V30 7735 C 755.393 0.545968 -1.87826 0
M  V30 7736 O 756.599 0.892308 -2.56418 0
M  V30 7737 C 755.055 -1.61103 -3.21829 0
M  V30 7738 C 754.663 -3.12228 -3.21275 0
M  V30 7739 C 756.407 -1.46404 -3.98455 0
M  V30 7740 C 754.314 -3.733 -4.58695 0
M  V30 7741 H 753.244 -0.34357 -0.671175 0
M  V30 7742 H 755.895 -1.38718 -1.20123 0
M  V30 7743 H 754.277 -1.07958 -3.81 0
M  V30 7744 H 755.451 -3.72155 -2.71731 0
M  V30 7745 H 753.766 -3.26725 -2.58147 0
M  V30 7746 H 756.363 -1.8942 -5.00024 0
M  V30 7747 H 756.706 -0.41195 -4.14257 0
M  V30 7748 H 757.239 -1.96663 -3.45787 0
M  V30 7749 H 753.978 -4.78423 -4.48098 0
M  V30 7750 H 753.498 -3.18157 -5.08465 0
M  V30 7751 H 755.177 -3.7441 -5.27661 0
M  V30 7752 N 755.309 1.25446 -0.953992 0
M  V30 7753 C 756.725 1.4539 -0.658316 0
M  V30 7754 C 756.925 1.85607 0.784356 0
M  V30 7755 O 755.981 1.98568 1.55972 0
M  V30 7756 C 757.294 2.52643 -1.6307 0
M  V30 7757 C 758.842 2.66484 -1.64181 0
M  V30 7758 C 759.317 3.76921 -2.60182 0
M  V30 7759 N 760.808 3.84331 -2.58542 0
M  V30 7760 C 761.543 4.69271 -3.29503 0
M  V30 7761 N 761.039 5.58503 -4.09934 0
M  V30 7762 N 762.832 4.6323 -3.18393 0
M  V30 7763 H 754.983 0.976337 -1.8863 0
M  V30 7764 H 757.246 0.490343 -0.811337 0
M  V30 7765 H 756.952 2.29949 -2.66114 0
M  V30 7766 H 756.826 3.50547 -1.39271 0
M  V30 7767 H 759.213 2.88545 -0.618552 0
M  V30 7768 H 759.294 1.68982 -1.92038 0
M  V30 7769 H 758.938 3.55612 -3.62633 0
M  V30 7770 H 758.868 4.73906 -2.29609 0
M  V30 7771 H 761.359 3.20544 -2.0015 0
M  V30 7772 H 761.672 6.20241 -4.61 0
M  V30 7773 H 760.017 5.58214 -4.14032 0
M  V30 7774 H 763.208 3.92527 -2.5503 0
M  V30 7775 H 763.381 5.29204 -3.73961 0
M  V30 7776 N 756.787 0.722489 1.40064 0
M  V30 7777 C 758.015 0.274838 2.05066 0
M  V30 7778 C 758.43 -1.08586 1.54449 0
M  V30 7779 O 757.787 -1.68375 0.704003 0
M  V30 7780 C 757.838 0.253673 3.60609 0
M  V30 7781 O 757.559 1.56064 4.0936 0
M  V30 7782 C 759.06 -0.211684 4.42794 0
M  V30 7783 H 756.28 0.12226 0.659768 0
M  V30 7784 H 758.824 0.982632 1.79345 0
M  V30 7785 H 756.979 -0.405137 3.85276 0
M  V30 7786 H 757.393 1.46576 5.03603 0
M  V30 7787 H 758.867 -0.175341 5.51721 0
M  V30 7788 H 759.344 -1.25493 4.2089 0
M  V30 7789 H 759.95 0.4171 4.2325 0
M  V30 7790 N 758.265 -1.50454 0.469181 0
M  V30 7791 C 759.228 -2.2703 -0.314643 0
M  V30 7792 C 760.228 -1.31734 -0.922111 0
M  V30 7793 O 761.418 -1.55176 -0.791588 0
M  V30 7794 C 758.55 -3.08616 -1.44806 0
M  V30 7795 H 759.743 -2.97769 0.356892 0
M  V30 7796 H 757.296 -1.54698 0.223191 0
M  V30 7797 H 758.031 -2.42369 -2.1547 0
M  V30 7798 H 757.816 -3.78647 -1.01829 0
M  V30 7799 H 759.306 -3.66536 -2.00103 0
M  V30 7800 N 759.743 -0.201713 -1.56304 0
M  V30 7801 C 760.99 0.435307 -1.97766 0
M  V30 7802 C 761.318 1.61169 -1.0888 0
M  V30 7803 O 760.573 1.95272 -0.12934 0
M  V30 7804 C 760.872 0.931432 -3.45049 0
M  V30 7805 C 760.538 -0.132287 -4.50706 0
M  V30 7806 C 759.2 -0.424552 -4.79323 0
M  V30 7807 C 761.552 -0.852703 -5.14177 0
M  V30 7808 C 758.88 -1.4421 -5.68701 0
M  V30 7809 C 761.232 -1.85944 -6.04655 0
M  V30 7810 C 759.896 -2.15884 -6.31625 0
M  V30 7811 H 759.166 0.15929 -0.723676 0
M  V30 7812 H 761.813 -0.300069 -1.89134 0
M  V30 7813 H 760.118 1.7452 -3.50785 0
M  V30 7814 H 761.815 1.43383 -3.74489 0
M  V30 7815 H 758.405 0.105671 -4.2847 0
M  V30 7816 H 762.589 -0.640139 -4.92154 0
M  V30 7817 H 757.845 -1.6799 -5.87869 0
M  V30 7818 H 762.019 -2.42286 -6.52894 0
M  V30 7819 H 759.646 -2.94875 -7.0068 0
M  V30 7820 N 761.222 1.57436 0.0718424 0
M  V30 7821 C 762.17 2.04725 1.10411 0
M  V30 7822 C 763.164 0.952579 1.4008 0
M  V30 7823 O 764.37 1.13769 1.39487 0
M  V30 7824 H 760.745 0.652749 0.373393 0
M  V30 7825 H 762.716 2.90569 0.679126 0
M  V30 7826 C 761.465 2.5068 2.40946 0
M  V30 7827 H 760.788 3.34505 2.18967 0
M  V30 7828 H 762.228 2.87521 3.11621 0
M  V30 7829 C 760.687 1.38971 3.06902 0
M  V30 7830 O 761.217 0.731786 3.94978 0
M  V30 7831 N 759.423 1.13485 2.67525 0
M  V30 7832 H 758.97 1.67168 1.95991 0
M  V30 7833 H 758.928 0.389467 3.11978 0
M  V30 7834 N 762.7 -0.34323 1.53817 0
M  V30 7835 C 763.948 -1.0813 1.70741 0
M  V30 7836 C 764.269 -1.89165 0.473461 0
M  V30 7837 O 763.539 -1.89075 -0.512605 0
M  V30 7838 H 762.119 -0.40219 0.629486 0
M  V30 7839 H 764.781 -0.384426 1.91071 0
M  V30 7840 H 763.877 -1.7585 2.57843 0
M  V30 7841 N 764.178 -1.45556 -0.604258 0
M  V30 7842 C 765.141 -1.54091 -1.69672 0
M  V30 7843 C 766.141 -0.420076 -1.55216 0
M  V30 7844 O 767.331 -0.683671 -1.60224 0
M  V30 7845 C 764.463 -1.44063 -3.08964 0
M  V30 7846 H 765.656 -2.51431 -1.6347 0
M  V30 7847 H 763.209 -1.33046 -0.820273 0
M  V30 7848 H 763.944 -0.479201 -3.2074 0
M  V30 7849 H 763.729 -2.25362 -3.20865 0
M  V30 7850 H 765.219 -1.53075 -3.88533 0
M  V30 7851 N 765.656 0.84705 -1.32902 0
M  V30 7852 C 766.588 1.96308 -1.18304 0
M  V30 7853 C 767.601 1.62386 -0.116082 0
M  V30 7854 O 768.79 1.74713 -0.365751 0
M  V30 7855 C 765.89 3.29556 -0.790305 0
M  V30 7856 C 765.063 3.91668 -1.94717 0
M  V30 7857 C 764.122 5.0326 -1.53674 0
M  V30 7858 O 763.148 5.22847 -2.24989 0
M  V30 7859 N 764.35 5.78852 -0.437075 0
M  V30 7860 H 767.115 2.09369 -2.14441 0
M  V30 7861 H 764.676 1.02233 -1.25539 0
M  V30 7862 H 766.668 4.01624 -0.49799 0
M  V30 7863 H 765.238 3.12497 0.0801286 0
M  V30 7864 H 764.458 3.12292 -2.40557 0
M  V30 7865 H 765.746 4.299 -2.72146 0
M  V30 7866 H 765.144 5.65484 0.156316 0
M  V30 7867 H 763.701 6.51479 -0.204399 0
M  V30 7868 N 767.134 1.16236 1.06428 0
M  V30 7869 C 768.55 0.906983 1.31324 0
M  V30 7870 C 768.75 -0.440872 1.96618 0
M  V30 7871 O 767.806 -1.1807 2.23194 0
M  V30 7872 C 769.119 2.05501 2.19522 0
M  V30 7873 C 770.667 2.09061 2.32943 0
M  V30 7874 C 771.142 3.23214 3.24495 0
M  V30 7875 N 772.633 3.22922 3.32078 0
M  V30 7876 C 773.368 4.07889 4.03006 0
M  V30 7877 N 772.864 5.02941 4.76469 0
M  V30 7878 N 774.657 3.95881 3.99043 0
M  V30 7879 H 766.808 2.03015 0.624388 0
M  V30 7880 H 769.071 0.88576 0.337835 0
M  V30 7881 H 768.777 3.02847 1.78819 0
M  V30 7882 H 768.651 1.99538 3.201 0
M  V30 7883 H 771.038 1.12308 2.72893 0
M  V30 7884 H 771.119 2.19089 1.32037 0
M  V30 7885 H 770.763 4.20225 2.85261 0
M  V30 7886 H 770.693 3.10423 4.25377 0
M  V30 7887 H 773.184 2.54093 2.79724 0
M  V30 7888 H 773.497 5.64196 5.28112 0
M  V30 7889 H 771.842 5.06922 4.75453 0
M  V30 7890 H 775.033 3.20927 3.40769 0
M  V30 7891 H 775.206 4.62321 4.54052 0
M  V30 7892 N 768.612 -1.24939 0.960631 0
M  V30 7893 C 769.86 -1.92437 0.617441 0
M  V30 7894 C 770.181 -1.75543 -0.849101 0
M  V30 7895 O 769.451 -1.12269 -1.60538 0
M  V30 7896 H 768.031 -0.712192 0.225371 0
M  V30 7897 H 770.693 -1.5198 1.22017 0
M  V30 7898 H 769.789 -3.00247 0.851933 0
M  V30 7899 N 770.09 -0.729906 -1.39679 0
M  V30 7900 C 771.338 -0.275077 -2.00219 0
M  V30 7901 C 771.659 1.1401 -1.58199 0
M  V30 7902 O 770.929 1.77546 -0.827904 0
M  V30 7903 H 769.509 -0.0987127 -0.740449 0
M  V30 7904 H 772.171 -0.93873 -1.70804 0
M  V30 7905 H 771.267 -0.319446 -3.10461 0
M  V30 7906 N 771.568 1.50203 -0.477153 0
M  V30 7907 C 772.515 2.28656 0.31386 0
M  V30 7908 C 773.485 1.33977 0.981802 0
M  V30 7909 O 774.67 1.62919 0.993072 0
M  V30 7910 C 771.81 3.16027 1.38639 0
M  V30 7911 C 770.923 4.25743 0.732615 0
M  V30 7912 C 770.058 5.00363 1.78355 0
M  V30 7913 C 769.097 6.01945 1.11035 0
M  V30 7914 N 768.234 6.6982 2.10441 0
M  V30 7915 H 773.074 2.958 -0.361445 0
M  V30 7916 H 770.611 1.45867 -0.190093 0
M  V30 7917 H 772.569 3.6504 2.01994 0
M  V30 7918 H 771.199 2.50917 2.03077 0
M  V30 7919 H 770.251 3.80398 -0.0136546 0
M  V30 7920 H 771.563 4.98393 0.201513 0
M  V30 7921 H 770.717 5.53124 2.49276 0
M  V30 7922 H 769.456 4.27432 2.34847 0
M  V30 7923 H 768.461 5.48438 0.386797 0
M  V30 7924 H 769.686 6.76851 0.552248 0
M  V30 7925 H 767.632 5.99677 2.65939 0
M  V30 7926 H 767.549 7.38366 1.62332 0
M  V30 7927 H 768.817 7.27196 2.80724 0
M  V30 7928 N 773.046 0.209999 1.56195 0
M  V30 7929 C 773.978 -0.736967 2.17029 0
M  V30 7930 C 774.991 -1.16599 1.13616 0
M  V30 7931 O 776.18 -1.09914 1.40646 0
M  V30 7932 C 773.28 -2.00852 2.72969 0
M  V30 7933 C 772.453 -1.73691 4.01435 0
M  V30 7934 C 771.512 -2.85439 4.42053 0
M  V30 7935 O 770.538 -2.54405 5.09183 0
M  V30 7936 N 771.74 -4.14135 4.06783 0
M  V30 7937 H 774.505 -0.216656 2.98916 0
M  V30 7938 H 772.066 0.0285672 1.61875 0
M  V30 7939 H 774.058 -2.74778 2.97118 0
M  V30 7940 H 772.628 -2.43963 1.95451 0
M  V30 7941 H 771.848 -0.834676 3.85262 0
M  V30 7942 H 773.136 -1.52961 4.85263 0
M  V30 7943 H 772.534 -4.42196 3.52816 0
M  V30 7944 H 771.091 -4.84642 4.35851 0
M  V30 7945 N 774.524 -1.57472 -0.0634922 0
M  V30 7946 C 775.77 -1.87932 -0.762194 0
M  V30 7947 C 776.103 -0.803377 -1.76804 0
M  V30 7948 O 775.378 0.185468 -1.93614 0
M  V30 7949 C 775.661 -3.29053 -1.46275 0
M  V30 7950 C 775.514 -4.47309 -0.472755 0
M  V30 7951 C 776.833 -3.68537 -2.40558 0
M  V30 7952 H 773.952 -0.683521 -0.275624 0
M  V30 7953 H 776.594 -1.89983 -0.0252651 0
M  V30 7954 H 774.744 -3.27435 -2.0909 0
M  V30 7955 H 776.416 -4.61053 0.150828 0
M  V30 7956 H 774.659 -4.33286 0.211187 0
M  V30 7957 H 775.33 -5.42853 -1.00072 0
M  V30 7958 H 777.806 -3.71302 -1.87814 0
M  V30 7959 H 776.682 -4.68152 -2.86574 0
M  V30 7960 H 776.943 -2.98917 -3.25731 0
M  V30 7961 N 776.003 0.335068 -1.53997 0
M  V30 7962 C 777.228 1.09859 -1.75914 0
M  V30 7963 C 777.653 1.81308 -0.500915 0
M  V30 7964 O 777.011 1.72854 0.54693 0
M  V30 7965 C 777.059 2.08122 -2.94478 0
M  V30 7966 O 776.163 3.15805 -2.65219 0
M  V30 7967 H 775.504 0.317313 -0.583274 0
M  V30 7968 H 778.034 0.382872 -2.00986 0
M  V30 7969 H 778.044 2.51195 -3.21504 0
M  V30 7970 H 776.719 1.55517 -3.8573 0
M  V30 7971 H 775.296 2.77489 -2.49107 0
M  V30 7972 N 777.481 1.45874 0.596531 0
M  V30 7973 C 778.411 1.5824 1.71705 0
M  V30 7974 C 779.392 0.433366 1.64487 0
M  V30 7975 O 780.577 0.657895 1.82717 0
M  V30 7976 C 777.707 1.55927 3.10329 0
M  V30 7977 C 776.661 2.69659 3.32367 0
M  V30 7978 C 775.987 2.52403 4.71377 0
M  V30 7979 C 777.287 4.11591 3.21544 0
M  V30 7980 H 778.981 2.52035 1.61613 0
M  V30 7981 H 776.527 1.21297 0.776082 0
M  V30 7982 H 778.48 1.63173 3.88526 0
M  V30 7983 H 777.204 0.586674 3.21288 0
M  V30 7984 H 775.863 2.61859 2.56564 0
M  V30 7985 H 775.511 1.53258 4.79083 0
M  V30 7986 H 775.211 3.28679 4.87077 0
M  V30 7987 H 776.735 2.6152 5.5176 0
M  V30 7988 H 778.149 4.20576 3.89601 0
M  V30 7989 H 776.546 4.88344 3.4877 0
M  V30 7990 H 777.616 4.32719 2.1882 0
M  V30 7991 N 778.959 -0.83999 1.33349 0
M  V30 7992 C 779.922 -1.93128 1.23426 0
M  V30 7993 C 780.922 -1.60065 0.153599 0
M  V30 7994 O 782.112 -1.69425 0.405049 0
M  V30 7995 C 779.244 -3.28761 0.901622 0
M  V30 7996 H 780.437 -2.03352 2.20427 0
M  V30 7997 H 777.99 -1.03194 1.17391 0
M  V30 7998 H 778.725 -3.24233 -0.0659337 0
M  V30 7999 H 778.51 -3.54138 1.68311 0
M  V30 8000 H 780 -4.08714 0.856913 0
M  V30 8001 N 780.437 -1.16799 -1.0581 0
M  V30 8002 C 781.714 -0.862616 -1.75551 0
M  V30 8003 C 782.094 0.6385 -2.01212 0
M  V30 8004 O 781.442 1.58784 -1.64317 0
M  V30 8005 C 781.652 -1.6907 -3.05314 0
M  V30 8006 C 783 -1.90675 -3.79379 0
M  V30 8007 O 784.024 -1.65976 -3.15167 0
M  V30 8008 O 782.883 -2.32145 -4.94743 0
M  V30 8009 H 779.977 -0.318789 -0.763088 0
M  V30 8010 H 782.523 -1.27461 -1.12034 0
M  V30 8011 H 781.295 -2.70912 -2.82352 0
M  V30 8012 H 780.918 -1.27606 -3.76567 0
M  V30 8013 N 781.915 1.24427 -0.967243 0
M  V30 8014 C 782.845 2.2773 -0.515899 0
M  V30 8015 C 783.826 1.64197 0.444227 0
M  V30 8016 O 785.011 1.91193 0.340451 0
M  V30 8017 C 782.141 3.46751 0.195149 0
M  V30 8018 C 781.095 4.22548 -0.680953 0
M  V30 8019 C 780.421 5.34456 0.161561 0
M  V30 8020 C 781.721 4.83914 -1.96532 0
M  V30 8021 H 783.415 2.65735 -1.37933 0
M  V30 8022 H 780.961 1.27742 -0.664681 0
M  V30 8023 H 782.914 4.18153 0.522117 0
M  V30 8024 H 781.638 3.07771 1.09292 0
M  V30 8025 H 780.297 3.52946 -0.991186 0
M  V30 8026 H 779.945 4.91716 1.05947 0
M  V30 8027 H 779.645 5.86087 -0.421418 0
M  V30 8028 H 781.169 6.08685 0.483211 0
M  V30 8029 H 782.583 5.47392 -1.70396 0
M  V30 8030 H 780.98 5.45775 -2.49499 0
M  V30 8031 H 782.05 4.05393 -2.66053 0
M  V30 8032 N 783.393 0.737304 1.3929 0
M  V30 8033 C 784.642 0.283129 1.99703 0
M  V30 8034 C 784.955 -1.13677 1.59176 0
M  V30 8035 O 786.161 -1.69058 2.12442 0
M  V30 8036 C 784.617 0.455262 3.57009 0
M  V30 8037 C 784.225 1.88319 4.06497 0
M  V30 8038 C 785.969 0.0629786 4.24453 0
M  V30 8039 C 783.876 2.00475 5.56385 0
M  V30 8040 H 782.806 0.102106 0.747054 0
M  V30 8041 H 785.457 0.911515 1.5926 0
M  V30 8042 H 783.839 -0.242057 3.9526 0
M  V30 8043 H 785.013 2.61265 3.79575 0
M  V30 8044 H 783.328 2.2289 3.51723 0
M  V30 8045 H 785.925 0.132787 5.34535 0
M  V30 8046 H 786.268 -0.982128 4.04549 0
M  V30 8047 H 786.801 0.71154 3.91385 0
M  V30 8048 H 783.54 3.03182 5.81172 0
M  V30 8049 H 783.06 1.31969 5.85102 0
M  V30 8050 H 784.739 1.787 6.21832 0
M  V30 8051 N 784.871 -1.49948 0.485112 0
M  V30 8052 C 786.117 -2.02695 -0.0651022 0
M  V30 8053 C 786.45 -1.36534 -1.38102 0
M  V30 8054 O 785.725 -0.495677 -1.88078 0
M  V30 8055 C 786.008 -3.59337 -0.234285 0
M  V30 8056 C 785.861 -4.3605 1.10364 0
M  V30 8057 C 787.18 -4.28996 -0.982351 0
M  V30 8058 H 784.299 -0.736666 -0.0221856 0
M  V30 8059 H 786.941 -1.7913 0.633433 0
M  V30 8060 H 785.091 -3.79546 -0.829262 0
M  V30 8061 H 786.763 -4.27377 1.73627 0
M  V30 8062 H 785.006 -3.99236 1.69686 0
M  V30 8063 H 785.677 -5.43959 0.938743 0
M  V30 8064 H 788.153 -4.13346 -0.477904 0
M  V30 8065 H 787.029 -5.38379 -1.06955 0
M  V30 8066 H 787.29 -3.93135 -2.02231 0
M  V30 8067 N 786.349 -0.21828 -1.56081 0
M  V30 8068 C 787.279 0.687922 -2.23136 0
M  V30 8069 C 788.26 1.20357 -1.202 0
M  V30 8070 O 789.445 1.24817 -1.48776 0
M  V30 8071 C 786.575 1.89762 -2.90874 0
M  V30 8072 C 785.529 1.51595 -4.00254 0
M  V30 8073 C 784.855 2.80415 -4.55271 0
M  V30 8074 C 786.155 0.708404 -5.17474 0
M  V30 8075 H 787.849 0.128854 -2.99123 0
M  V30 8076 H 785.395 0.0605354 -1.43873 0
M  V30 8077 H 787.348 2.53699 -3.36474 0
M  V30 8078 H 786.072 2.4816 -2.1233 0
M  V30 8079 H 784.731 0.900058 -3.55379 0
M  V30 8080 H 784.379 3.36951 -3.73461 0
M  V30 8081 H 784.079 2.55613 -5.2909 0
M  V30 8082 H 785.603 3.453 -5.03587 0
M  V30 8083 H 787.017 1.2514 -5.59476 0
M  V30 8084 H 785.414 0.557593 -5.97504 0
M  V30 8085 H 786.484 -0.285679 -4.84058 0
M  V30 8086 N 787.827 1.57504 0.0551401 0
M  V30 8087 C 788.79 2.03826 1.04821 0
M  V30 8088 C 789.79 0.937968 1.30609 0
M  V30 8089 O 790.98 1.20237 1.2605 0
M  V30 8090 C 788.112 2.43309 2.38775 0
M  V30 8091 H 789.305 2.92802 0.6486 0
M  V30 8092 H 786.858 1.53368 0.301315 0
M  V30 8093 H 787.593 1.5741 2.83536 0
M  V30 8094 H 787.378 3.23615 2.21395 0
M  V30 8095 H 788.868 2.79666 3.10124 0
M  V30 8096 N 789.305 -0.326896 1.54172 0
M  V30 8097 C 790.553 -1.06313 1.71878 0
M  V30 8098 C 790.874 -1.88652 0.493498 0
M  V30 8099 O 790.144 -1.89608 -0.492522 0
M  V30 8100 H 788.724 -0.39549 0.633716 0
M  V30 8101 H 791.386 -0.364139 1.91468 0
M  V30 8102 H 790.482 -1.73105 2.59694 0
M  V30 8103 N 790.784 -1.46188 -0.588786 0
M  V30 8104 C 792.024 -1.52738 -1.35833 0
M  V30 8105 C 792.388 -0.172403 -1.91224 0
M  V30 8106 O 793.589 -0.112633 -2.68564 0
M  V30 8107 C 791.86 -2.59085 -2.4619 0
M  V30 8108 S 793.419 -2.84997 -3.3365 0
M  V30 8109 H 790.237 -0.539713 -0.462851 0
M  V30 8110 H 792.839 -1.83386 -0.677489 0
M  V30 8111 H 791.543 -3.56177 -2.03878 0
M  V30 8112 H 791.074 -2.3015 -3.19053 0
M  V30 8113 H 793.089 -2.19804 -4.4486 0
M  V30 8114 N 792.262 0.832906 -1.33792 0
M  V30 8115 C 793.225 1.92471 -1.24449 0
M  V30 8116 C 794.225 1.59981 -0.162085 0
M  V30 8117 O 795.415 1.69208 -0.414029 0
M  V30 8118 C 792.547 3.28278 -0.919044 0
M  V30 8119 H 793.74 2.0218 -2.21502 0
M  V30 8120 H 791.293 1.0257 -1.17936 0
M  V30 8121 H 792.028 3.24263 0.048738 0
M  V30 8122 H 791.813 3.53241 -1.70187 0
M  V30 8123 H 793.303 4.08253 -0.878576 0
M  V30 8124 N 793.74 1.17359 1.05189 0
M  V30 8125 C 794.988 0.960087 1.77839 0
M  V30 8126 C 795.309 -0.512554 1.88143 0
M  V30 8127 O 794.579 -1.3721 1.39822 0
M  V30 8128 H 793.159 0.352234 0.658741 0
M  V30 8129 H 795.821 1.47834 1.27008 0
M  V30 8130 H 794.917 1.38843 2.79516 0
M  V30 8131 N 795.218 -1.23913 0.973828 0
M  V30 8132 C 796.464 -1.92436 0.640026 0
M  V30 8133 C 796.797 -1.75875 -0.823512 0
M  V30 8134 O 796.072 -1.11563 -1.59323 0
M  V30 8135 C 796.355 -3.4526 1.0231 0
M  V30 8136 C 796.208 -3.70961 2.54378 0
M  V30 8137 C 797.527 -4.36495 0.562155 0
M  V30 8138 H 794.646 -0.698868 0.233992 0
M  V30 8139 H 797.288 -1.46163 1.21393 0
M  V30 8140 H 795.438 -3.84802 0.534751 0
M  V30 8141 H 797.11 -3.40941 3.10737 0
M  V30 8142 H 795.353 -3.15899 2.97305 0
M  V30 8143 H 796.024 -4.77912 2.76232 0
M  V30 8144 H 798.5 -4.04363 0.981333 0
M  V30 8145 H 797.376 -5.42142 0.858689 0
M  V30 8146 H 797.637 -4.38818 -0.537659 0
M  V30 8147 N 796.696 -0.74468 -1.38897 0
M  V30 8148 C 797.606 -0.112892 -2.34328 0
M  V30 8149 C 798.622 0.71087 -1.58816 0
M  V30 8150 O 799.798 0.637092 -1.91058 0
M  V30 8151 C 796.863 0.776417 -3.37894 0
M  V30 8152 C 795.924 -0.0606999 -4.29257 0
M  V30 8153 C 795.157 0.786258 -5.27877 0
M  V30 8154 O 795.38 2.02463 -5.33259 0
M  V30 8155 O 794.314 0.209781 -6.01534 0
M  V30 8156 H 798.14 -0.900801 -2.90033 0
M  V30 8157 H 795.725 -0.505462 -1.4059 0
M  V30 8158 H 797.607 1.28496 -4.01331 0
M  V30 8159 H 796.282 1.54297 -2.84559 0
M  V30 8160 H 795.189 -0.614984 -3.69011 0
M  V30 8161 H 796.522 -0.789702 -4.85824 0
M  V30 8162 N 798.174 1.49689 -0.493057 0
M  V30 8163 C 799.106 2.26867 0.326195 0
M  V30 8164 C 800.119 1.33083 0.937697 0
M  V30 8165 O 801.308 1.58427 0.822382 0
M  V30 8166 C 798.408 3.0519 1.4735 0
M  V30 8167 C 797.581 4.26491 0.970767 0
M  V30 8168 C 796.64 4.86926 1.99473 0
M  V30 8169 O 795.666 5.47221 1.56647 0
M  V30 8170 N 796.868 4.75871 3.32456 0
M  V30 8171 H 799.633 2.97816 -0.335547 0
M  V30 8172 H 797.194 1.58602 -0.325129 0
M  V30 8173 H 799.186 3.42496 2.15589 0
M  V30 8174 H 797.756 2.369 2.03954 0
M  V30 8175 H 796.976 3.94036 0.113529 0
M  V30 8176 H 798.264 5.05092 0.613156 0
M  V30 8177 H 797.662 4.2797 3.69944 0
M  V30 8178 H 796.219 5.17383 3.96431 0
M  V30 8179 N 799.652 0.226554 1.55963 0
M  V30 8180 C 800.615 -0.668015 2.19249 0
M  V30 8181 C 801.615 -1.11794 1.1558 0
M  V30 8182 O 802.805 -1.02593 1.40784 0
M  V30 8183 C 799.937 -1.91571 2.81981 0
M  V30 8184 H 801.13 -0.116175 2.99675 0
M  V30 8185 H 798.683 -0.0230497 1.56283 0
M  V30 8186 H 799.418 -2.50929 2.05439 0
M  V30 8187 H 799.203 -1.6015 3.57903 0
M  V30 8188 H 800.693 -2.55294 3.30477 0
M  V30 8189 N 801.13 -1.57531 -0.0467866 0
M  V30 8190 C 802.093 -2.04379 -1.03738 0
M  V30 8191 C 803.093 -0.944881 -1.3011 0
M  V30 8192 O 804.283 -1.20904 -1.25411 0
M  V30 8193 C 801.415 -2.44572 -2.37482 0
M  V30 8194 H 802.608 -2.93142 -0.633063 0
M  V30 8195 H 800.161 -1.53526 -0.293177 0
M  V30 8196 H 800.896 -1.58911 -2.82697 0
M  V30 8197 H 800.681 -3.24785 -2.19675 0
M  V30 8198 H 802.171 -2.81307 -3.08636 0
M  V30 8199 N 802.608 0.318715 -1.54344 0
M  V30 8200 C 803.555 1.39242 -1.84066 0
M  V30 8201 C 804.525 1.51175 -0.688134 0
M  V30 8202 O 805.71 1.66318 -0.935039 0
M  V30 8203 C 802.85 2.75528 -2.07794 0
M  V30 8204 C 801.963 2.72187 -3.35467 0
M  V30 8205 C 801.098 4.00352 -3.4913 0
M  V30 8206 C 800.137 3.91338 -4.7066 0
M  V30 8207 N 799.274 5.11242 -4.81224 0
M  V30 8208 H 804.114 1.13196 -2.75664 0
M  V30 8209 H 801.651 0.547857 -1.36517 0
M  V30 8210 H 803.609 3.54763 -2.19543 0
M  V30 8211 H 802.239 2.99873 -1.19482 0
M  V30 8212 H 801.291 1.84917 -3.3243 0
M  V30 8213 H 802.603 2.61411 -4.24812 0
M  V30 8214 H 801.757 4.88019 -3.60448 0
M  V30 8215 H 800.496 4.1394 -2.57886 0
M  V30 8216 H 799.501 3.02055 -4.59394 0
M  V30 8217 H 800.726 3.7931 -5.63294 0
M  V30 8218 H 798.672 5.25327 -3.92897 0
M  V30 8219 H 798.589 5.0282 -5.64543 0
M  V30 8220 H 799.857 6.0061 -4.96879 0
M  V30 8221 N 804.086 1.46499 0.581025 0
M  V30 8222 C 805.034 1.57562 1.71105 0
M  V30 8223 C 806.028 0.44403 1.63477 0
M  V30 8224 O 807.234 0.620964 1.6895 0
M  V30 8225 H 803.609 0.495415 0.565746 0
M  V30 8226 H 805.58 2.5257 1.58905 0
M  V30 8227 C 804.329 1.58465 3.0949 0
M  V30 8228 H 803.652 2.44877 3.16031 0
M  V30 8229 H 805.092 1.70261 3.88313 0
M  V30 8230 C 803.551 0.313596 3.35437 0
M  V30 8231 O 804.081 -0.595456 3.97262 0
M  V30 8232 N 802.287 0.200986 2.89904 0
M  V30 8233 H 801.834 0.941643 2.39773 0
M  V30 8234 H 801.792 -0.648577 3.07638 0
M  V30 8235 N 805.565 -0.825799 1.34232 0
M  V30 8236 C 806.528 -1.91808 1.25468 0
M  V30 8237 C 807.528 -1.59893 0.170567 0
M  V30 8238 O 808.718 -1.68986 0.422996 0
M  V30 8239 C 805.85 -3.27786 0.93644 0
M  V30 8240 H 807.043 -2.01003 2.22571 0
M  V30 8241 H 804.596 -1.01944 1.18479 0
M  V30 8242 H 805.331 -3.24285 -0.0315408 0
M  V30 8243 H 805.116 -3.52333 1.72057 0
M  V30 8244 H 806.606 -4.07782 0.900214 0
M  V30 8245 N 807.043 -1.17915 -1.04565 0
M  V30 8246 C 808.291 -0.969505 -1.77327 0
M  V30 8247 C 808.612 0.502569 -1.88412 0
M  V30 8248 O 807.882 1.36467 -1.40547 0
M  V30 8249 H 806.462 -0.355723 -0.656864 0
M  V30 8250 H 809.124 -1.48506 -1.26223 0
M  V30 8251 H 808.22 -1.40324 -2.78775 0
M  V30 8252 N 808.521 1.23394 -0.980386 0
M  V30 8253 C 809.471 2.22634 -0.491747 0
M  V30 8254 C 810.455 1.54958 0.433222 0
M  V30 8255 O 811.647 1.75049 0.262078 0
M  V30 8256 C 808.776 3.4269 0.204531 0
M  V30 8257 C 807.862 4.17594 -0.740007 0
M  V30 8258 N 808.253 4.69458 -1.88263 0
M  V30 8259 C 806.551 4.42554 -0.553335 0
M  V30 8260 C 807.252 5.26446 -2.47446 0
M  V30 8261 N 806.228 5.14377 -1.75834 0
M  V30 8262 H 810.03 2.60363 -1.36339 0
M  V30 8263 H 807.544 1.38924 -0.841059 0
M  V30 8264 H 809.541 4.12959 0.571901 0
M  V30 8265 H 808.201 3.06477 1.07246 0
M  V30 8266 H 809.212 4.65803 -2.26381 0
M  V30 8267 H 805.889 4.16629 0.269573 0
M  V30 8268 H 807.279 5.77195 -3.43941 0
M  V30 8269 N 809.999 0.752036 1.385 0
M  V30 8270 C 810.962 0.131587 2.28822 0
M  V30 8271 C 811.962 -0.649149 1.47115 0
M  V30 8272 O 813.152 -0.475645 1.67581 0
M  V30 8273 C 810.284 -0.822101 3.30839 0
M  V30 8274 H 811.477 0.927551 2.85196 0
M  V30 8275 H 809.03 0.518945 1.47434 0
M  V30 8276 H 809.765 -1.6438 2.79553 0
M  V30 8277 H 809.55 -0.264689 3.91206 0
M  V30 8278 H 811.04 -1.25226 3.98382 0
M  V30 8279 N 811.477 -1.49425 0.500989 0
M  V30 8280 C 812.723 -2.02753 -0.0436 0
M  V30 8281 C 813.056 -1.37991 -1.36646 0
M  V30 8282 O 812.331 -0.515597 -1.87542 0
M  V30 8283 C 812.614 -3.59565 -0.19616 0
M  V30 8284 C 812.467 -4.34855 1.14982 0
M  V30 8285 C 813.786 -4.30014 -0.936795 0
M  V30 8286 H 810.905 -0.73686 -0.0143711 0
M  V30 8287 H 813.547 -1.78448 0.652397 0
M  V30 8288 H 811.697 -3.80405 -0.788959 0
M  V30 8289 H 813.369 -4.25512 1.7815 0
M  V30 8290 H 811.612 -3.97414 1.73911 0
M  V30 8291 H 812.283 -5.42933 0.996385 0
M  V30 8292 H 814.759 -4.1383 -0.434036 0
M  V30 8293 H 813.635 -5.39483 -1.01238 0
M  V30 8294 H 813.896 -3.95257 -1.9805 0
M  V30 8295 N 812.955 -0.234822 -1.55841 0
M  V30 8296 C 814.183 0.397745 -2.03041 0
M  V30 8297 C 814.598 1.52405 -1.11437 0
M  V30 8298 O 813.955 1.82061 -0.126466 0
M  V30 8299 C 814.006 0.916919 -3.49678 0
M  V30 8300 O 813.727 -0.164493 -4.37791 0
M  V30 8301 C 815.228 1.62139 -4.12584 0
M  V30 8302 H 812.448 0.0959214 -0.664108 0
M  V30 8303 H 814.992 -0.355156 -2.01392 0
M  V30 8304 H 813.147 1.62004 -3.519 0
M  V30 8305 H 813.561 0.227794 -5.24005 0
M  V30 8306 H 815.035 1.93651 -5.16917 0
M  V30 8307 H 815.512 2.53918 -3.58361 0
M  V30 8308 H 816.118 0.963145 -4.14251 0
M  V30 8309 N 814.433 1.57553 0.0384317 0
M  V30 8310 C 815.679 1.89121 0.732199 0
M  V30 8311 C 816.012 0.831404 1.75503 0
M  V30 8312 O 815.287 -0.154642 1.93884 0
M  V30 8313 C 815.57 3.31338 1.41021 0
M  V30 8314 C 815.423 4.48004 0.401532 0
M  V30 8315 C 816.742 3.72318 2.34665 0
M  V30 8316 H 813.861 0.687819 0.264715 0
M  V30 8317 H 816.503 1.89999 -0.00496279 0
M  V30 8318 H 814.653 3.3072 2.03854 0
M  V30 8319 H 816.325 4.60755 -0.224159 0
M  V30 8320 H 814.568 4.32895 -0.280092 0
M  V30 8321 H 815.239 5.44377 0.91423 0
M  V30 8322 H 817.715 3.74243 1.81883 0
M  V30 8323 H 816.591 4.72652 2.7909 0
M  V30 8324 H 816.852 3.04062 3.20934 0
M  V30 8325 N 815.911 -0.310526 1.54511 0
M  V30 8326 C 817.322 -0.884142 1.64438 0
M  V30 8327 C 817.673 -1.88425 0.546855 0
M  V30 8328 O 816.798 -2.14049 -0.31811 0
M  V30 8329 C 817.393 -1.6104 2.9808 0
M  V30 8330 C 815.952 -2.13255 3.1016 0
M  V30 8331 C 815.099 -0.96213 2.60074 0
M  V30 8332 H 818.05 -0.0877666 1.58457 0
M  V30 8333 H 818.071 -2.47541 2.8897 0
M  V30 8334 H 817.583 -0.882255 3.77939 0
M  V30 8335 H 815.684 -2.89145 2.35002 0
M  V30 8336 H 815.797 -2.37361 4.16169 0
M  V30 8337 H 814.161 -1.34501 2.16291 0
M  V30 8338 H 814.944 -0.248098 3.42402 0
M  V30 8339 N 817.389 -1.46805 -0.573248 0
M  V30 8340 C 818.636 -1.52604 -1.3311 0
M  V30 8341 C 818.964 -0.181633 -1.9365 0
M  V30 8342 O 818.219 0.823775 -1.77517 0
M  V30 8343 C 818.518 -2.58001 -2.47326 0
M  V30 8344 C 818.184 -4.01747 -2.04719 0
M  V30 8345 C 816.846 -4.40881 -1.92814 0
M  V30 8346 C 819.198 -4.92008 -1.71982 0
M  V30 8347 C 816.526 -5.68129 -1.46445 0
M  V30 8348 C 818.878 -6.19703 -1.27089 0
M  V30 8349 C 817.542 -6.57733 -1.13768 0
M  V30 8350 H 816.812 -0.558417 -0.487084 0
M  V30 8351 H 819.459 -1.80327 -0.644538 0
M  V30 8352 H 817.764 -2.23974 -3.2147 0
M  V30 8353 H 819.461 -2.59715 -3.05531 0
M  V30 8354 H 816.051 -3.70819 -2.14922 0
M  V30 8355 H 820.235 -4.62485 -1.8006 0
M  V30 8356 H 815.491 -5.96359 -1.34783 0
M  V30 8357 H 819.665 -6.89064 -1.00814 0
M  V30 8358 H 817.292 -7.56228 -0.776142 0
M  V30 8359 N 818.867 0.818669 -1.34668 0
M  V30 8360 C 819.83 1.9114 -1.26483 0
M  V30 8361 C 820.83 1.598 -0.179044 0
M  V30 8362 O 822.02 1.6876 -0.431952 0
M  V30 8363 C 819.152 3.27285 -0.95381 0
M  V30 8364 H 820.345 1.9982 -2.23634 0
M  V30 8365 H 817.898 1.01314 -1.19018 0
M  V30 8366 H 818.633 3.24297 0.0143428 0
M  V30 8367 H 818.418 3.51416 -1.73924 0
M  V30 8368 H 819.908 4.07299 -0.921827 0
M  V30 8369 N 820.346 1.18468 1.03938 0
M  V30 8370 C 821.757 0.984808 1.58614 0
M  V30 8371 C 822.108 -0.465165 1.90606 0
M  V30 8372 O 821.233 -1.34274 1.69704 0
M  V30 8373 C 821.828 1.78135 2.8819 0
M  V30 8374 C 820.387 1.62579 3.39478 0
M  V30 8375 C 819.534 1.77501 2.13046 0
M  V30 8376 H 822.485 1.32993 0.865944 0
M  V30 8377 H 822.506 1.27119 3.58638 0
M  V30 8378 H 822.018 2.83661 2.64874 0
M  V30 8379 H 820.119 0.59595 3.67803 0
M  V30 8380 H 820.232 2.42463 4.13217 0
M  V30 8381 H 818.596 1.2046 2.24414 0
M  V30 8382 H 819.379 2.84464 1.92185 0
M  V30 8383 N 821.824 -1.22873 0.986916 0
M  V30 8384 C 823.072 -1.91084 0.658121 0
M  V30 8385 C 823.393 -1.77304 -0.811675 0
M  V30 8386 O 822.663 -1.15649 -1.58121 0
M  V30 8387 H 821.243 -0.707251 0.240427 0
M  V30 8388 H 823.905 -1.49357 1.25213 0
M  V30 8389 H 823.001 -2.98373 0.915428 0
M  V30 8390 N 823.302 -0.75937 -1.38099 0
M  V30 8391 C 824.718 -0.437606 -1.53483 0
M  V30 8392 C 824.918 1.04849 -1.72072 0
M  V30 8393 O 823.974 1.83448 -1.73502 0
M  V30 8394 C 825.287 -1.24189 -2.73857 0
M  V30 8395 C 826.835 -1.23255 -2.8771 0
M  V30 8396 C 827.31 -2.01992 -4.11051 0
M  V30 8397 N 828.801 -1.99282 -4.1814 0
M  V30 8398 C 829.536 -2.56996 -5.12583 0
M  V30 8399 N 829.032 -3.23446 -6.12662 0
M  V30 8400 N 830.825 -2.46894 -5.04975 0
M  V30 8401 H 822.976 -1.72242 -1.24283 0
M  V30 8402 H 825.239 -0.730507 -0.604205 0
M  V30 8403 H 824.945 -2.29449 -2.66545 0
M  V30 8404 H 824.819 -0.862672 -3.67203 0
M  V30 8405 H 827.206 -0.187988 -2.94501 0
M  V30 8406 H 827.287 -1.65132 -1.95359 0
M  V30 8407 H 826.931 -3.06462 -4.05023 0
M  V30 8408 H 826.861 -1.57505 -5.02494 0
M  V30 8409 H 829.352 -1.50893 -3.46467 0
M  V30 8410 H 829.665 -3.6489 -6.81231 0
M  V30 8411 H 828.01 -3.27543 -6.12977 0
M  V30 8412 H 831.201 -1.94604 -4.25731 0
M  V30 8413 H 831.374 -2.92168 -5.78396 0
M  V30 8414 N 824.78 1.49157 -0.508906 0
M  V30 8415 C 825.743 2.27784 0.25434 0
M  V30 8416 C 826.743 1.34132 0.88686 0
M  V30 8417 O 827.933 1.5722 0.750168 0
M  V30 8418 C 825.065 3.12347 1.36573 0
M  V30 8419 H 826.258 2.96718 -0.435714 0
M  V30 8420 H 823.811 1.54052 -0.264128 0
M  V30 8421 H 824.546 2.47997 2.08969 0
M  V30 8422 H 824.331 3.81213 0.917543 0
M  V30 8423 H 825.821 3.71712 1.90315 0
M  V30 8424 N 826.258 0.243083 1.55714 0
M  V30 8425 C 827.535 -0.432851 1.90751 0
M  V30 8426 C 827.915 -1.76153 1.16333 0
M  V30 8427 O 827.263 -2.26783 0.279565 0
M  V30 8428 C 827.473 -0.604685 3.43722 0
M  V30 8429 C 828.821 -0.90231 4.14902 0
M  V30 8430 O 829.845 -0.690689 3.49439 0
M  V30 8431 O 828.704 -1.3051 5.30688 0
M  V30 8432 H 825.798 -0.231835 0.79384 0
M  V30 8433 H 828.344 0.286867 1.67258 0
M  V30 8434 H 827.116 0.331655 3.89892 0
M  V30 8435 H 826.739 -1.37509 3.73065 0
M  V30 8436 N 827.736 -1.57571 -0.0300757 0
M  V30 8437 C 828.699 -2.05468 -1.01565 0
M  V30 8438 C 829.699 -0.958628 -1.29101 0
M  V30 8439 O 830.889 -1.22228 -1.24121 0
M  V30 8440 C 828.021 -2.47077 -2.34874 0
M  V30 8441 H 829.214 -2.93797 -0.601936 0
M  V30 8442 H 826.767 -1.53828 -0.276878 0
M  V30 8443 H 827.502 -1.61901 -2.80996 0
M  V30 8444 H 827.287 -3.27097 -2.16218 0
M  V30 8445 H 828.777 -2.84564 -3.05635 0
M  V30 8446 N 829.214 0.302327 -1.54673 0
M  V30 8447 C 830.439 1.06103 -1.78205 0
M  V30 8448 C 830.864 1.80204 -0.53926 0
M  V30 8449 O 830.222 1.73975 0.510142 0
M  V30 8450 C 830.27 2.01829 -2.98827 0
M  V30 8451 O 829.374 3.10108 -2.71858 0
M  V30 8452 H 828.715 0.30487 -0.589873 0
M  V30 8453 H 831.245 0.340153 -2.01753 0
M  V30 8454 H 831.255 2.44319 -3.2676 0
M  V30 8455 H 829.93 1.473 -3.88942 0
M  V30 8456 H 828.507 2.72142 -2.54937 0
M  V30 8457 N 830.692 1.47107 0.565454 0
M  V30 8458 C 831.624 1.55024 1.6882 0
M  V30 8459 C 832.637 0.4371 1.56822 0
M  V30 8460 O 833.826 0.706315 1.63931 0
M  V30 8461 C 830.926 1.43069 3.0722 0
M  V30 8462 C 830.099 2.68807 3.45053 0
M  V30 8463 C 829.158 2.50806 4.62583 0
M  V30 8464 O 828.184 3.24593 4.67577 0
M  V30 8465 N 829.386 1.58093 5.58558 0
M  V30 8466 H 832.151 2.51836 1.62477 0
M  V30 8467 H 829.712 1.43382 0.751885 0
M  V30 8468 H 831.704 1.28773 3.83666 0
M  V30 8469 H 830.274 0.543721 3.07835 0
M  V30 8470 H 829.494 2.97923 2.58138 0
M  V30 8471 H 830.782 3.52298 3.67101 0
M  V30 8472 H 830.18 0.972807 5.57273 0
M  V30 8473 H 828.737 1.49753 6.34364 0
M  V30 8474 N 832.17 -0.811516 1.35101 0
M  V30 8475 C 833.08 -1.95475 1.29718 0
M  V30 8476 C 834.096 -1.72813 0.202909 0
M  V30 8477 O 835.272 -1.96725 0.431414 0
M  V30 8478 C 832.337 -3.29975 1.06385 0
M  V30 8479 C 831.398 -3.65566 2.25077 0
M  V30 8480 C 830.631 -4.93648 2.02848 0
M  V30 8481 O 830.854 -5.617 0.992442 0
M  V30 8482 O 829.788 -5.27384 2.90087 0
M  V30 8483 H 833.614 -2.02961 2.25921 0
M  V30 8484 H 831.199 -0.948583 1.15422 0
M  V30 8485 H 833.081 -4.10506 0.951999 0
M  V30 8486 H 831.756 -3.2343 0.132294 0
M  V30 8487 H 830.663 -2.85432 2.41825 0
M  V30 8488 H 831.996 -3.7681 3.16662 0
M  V30 8489 N 833.648 -1.19017 -1.03309 0
M  V30 8490 C 834.58 -0.881847 -2.11556 0
M  V30 8491 C 835.593 0.123711 -1.62329 0
M  V30 8492 O 836.782 -0.105141 -1.7819 0
M  V30 8493 C 833.882 -0.297634 -3.37591 0
M  V30 8494 C 833.055 -1.35072 -4.16022 0
M  V30 8495 C 832.114 -0.780812 -5.20375 0
M  V30 8496 O 831.14 -1.45745 -5.50224 0
M  V30 8497 N 832.342 0.417964 -5.78993 0
M  V30 8498 H 835.107 -1.81359 -2.38598 0
M  V30 8499 H 832.668 -1.0916 -1.19565 0
M  V30 8500 H 834.66 0.097374 -4.04583 0
M  V30 8501 H 833.23 0.538299 -3.0793 0
M  V30 8502 H 832.45 -1.92074 -3.4424 0
M  V30 8503 H 833.738 -2.06044 -4.65213 0
M  V30 8504 H 833.136 0.985281 -5.57054 0
M  V30 8505 H 831.693 0.754802 -6.47415 0
M  V30 8506 N 835.127 1.22348 -0.993418 0
M  V30 8507 C 836.355 1.95125 -0.688021 0
M  V30 8508 C 836.77 1.73377 0.747388 0
M  V30 8509 O 836.127 1.03317 1.50439 0
M  V30 8510 C 836.178 3.47819 -0.985097 0
M  V30 8511 O 835.899 3.68838 -2.3641 0
M  V30 8512 C 837.4 4.37779 -0.697474 0
M  V30 8513 H 834.62 0.62087 -0.254481 0
M  V30 8514 H 837.164 1.55485 -1.32833 0
M  V30 8515 H 835.319 3.85426 -0.390583 0
M  V30 8516 H 835.733 4.63032 -2.46377 0
M  V30 8517 H 837.207 5.43666 -0.955604 0
M  V30 8518 H 837.684 4.37651 0.368524 0
M  V30 8519 H 838.29 4.05799 -1.27306 0
M  V30 8520 N 836.605 0.766683 1.37694 0
M  V30 8521 C 837.882 0.25366 1.93948 0
M  V30 8522 C 838.262 -1.25041 1.70082 0
M  V30 8523 O 837.61 -2.03115 1.04674 0
M  V30 8524 C 837.82 0.621549 3.43421 0
M  V30 8525 C 839.168 0.588504 4.20502 0
M  V30 8526 O 840.192 0.560632 3.5176 0
M  V30 8527 O 839.051 0.61107 5.43073 0
M  V30 8528 H 836.145 0.0570586 0.825029 0
M  V30 8529 H 838.691 0.847693 1.47011 0
M  V30 8530 H 837.463 1.65979 3.54354 0
M  V30 8531 H 837.086 0.000197027 3.976 0
M  V30 8532 N 838.083 -1.48885 0.516809 0
M  V30 8533 C 839.329 -2.02788 -0.0220928 0
M  V30 8534 C 839.662 -1.39433 -1.35175 0
M  V30 8535 O 838.937 -0.535459 -1.86984 0
M  V30 8536 C 839.22 -3.59753 -0.158012 0
M  V30 8537 C 839.073 -4.33611 1.19588 0
M  V30 8538 C 840.392 -4.30984 -0.891133 0
M  V30 8539 H 837.511 -0.736971 -0.00655488 0
M  V30 8540 H 840.153 -1.77746 0.671287 0
M  V30 8541 H 838.303 -3.8122 -0.748568 0
M  V30 8542 H 839.975 -4.23598 1.82653 0
M  V30 8543 H 838.218 -3.95547 1.78116 0
M  V30 8544 H 838.889 -5.41846 1.05391 0
M  V30 8545 H 841.365 -4.14267 -0.39012 0
M  V30 8546 H 840.241 -5.40527 -0.955107 0
M  V30 8547 H 840.502 -3.97336 -1.93847 0
M  V30 8548 N 839.561 -0.251338 -1.55583 0
M  V30 8549 C 840.471 0.656978 -2.25213 0
M  V30 8550 C 841.487 1.18966 -1.26977 0
M  V30 8551 O 842.663 1.22499 -1.59862 0
M  V30 8552 C 839.728 1.83527 -2.94141 0
M  V30 8553 C 838.789 1.34162 -4.07798 0
M  V30 8554 C 838.022 2.46375 -4.73429 0
M  V30 8555 O 838.245 3.65205 -4.38157 0
M  V30 8556 O 837.179 2.15881 -5.61853 0
M  V30 8557 H 841.005 0.0936395 -3.03556 0
M  V30 8558 H 838.59 -0.0196638 -1.49387 0
M  V30 8559 H 840.472 2.52279 -3.3754 0
M  V30 8560 H 839.147 2.38614 -2.18735 0
M  V30 8561 H 838.054 0.621249 -3.68906 0
M  V30 8562 H 839.387 0.836779 -4.85035 0
M  V30 8563 N 841.039 1.57585 0.0217189 0
M  V30 8564 C 842.264 1.94267 0.726309 0
M  V30 8565 C 842.689 0.851904 1.67703 0
M  V30 8566 O 842.047 -0.191792 1.80283 0
M  V30 8567 C 842.095 3.30023 1.45318 0
M  V30 8568 O 841.199 3.22791 2.5667 0
M  V30 8569 H 840.54 0.634777 0.194818 0
M  V30 8570 H 843.07 2.04585 -0.0249985 0
M  V30 8571 H 843.08 3.65084 1.82147 0
M  V30 8572 H 841.755 4.08972 0.755962 0
M  V30 8573 H 840.332 2.99373 2.2233 0
M  V30 8574 N 842.517 -0.29412 1.54831 0
M  V30 8575 C 843.45 -1.38779 1.81151 0
M  V30 8576 C 844.428 -1.48464 0.663124 0
M  V30 8577 O 845.612 -1.65418 0.903835 0
M  V30 8578 C 842.739 -2.76627 1.95436 0
M  V30 8579 C 841.785 -2.84333 3.17895 0
M  V30 8580 S 842.618 -2.45726 4.75793 0
M  V30 8581 C 843.774 -3.85589 4.93023 0
M  V30 8582 H 844.007 -1.16246 2.73631 0
M  V30 8583 H 841.54 -0.492611 1.46331 0
M  V30 8584 H 843.498 -3.56021 2.04351 0
M  V30 8585 H 842.159 -2.96425 1.03881 0
M  V30 8586 H 841.352 -3.85457 3.24713 0
M  V30 8587 H 840.954 -2.1294 3.07461 0
M  V30 8588 H 843.246 -4.80656 4.77468 0
M  V30 8589 H 844.189 -3.83737 5.95107 0
M  V30 8590 H 844.597 -3.75911 4.21131 0
M  V30 8591 N 843.995 -1.47404 -0.557645 0
M  V30 8592 C 844.958 -1.59411 -1.64684 0
M  V30 8593 C 845.958 -0.469244 -1.53801 0
M  V30 8594 O 847.148 -0.734298 -1.57967 0
M  V30 8595 C 844.28 -1.5382 -3.04224 0
M  V30 8596 H 845.473 -2.56504 -1.55389 0
M  V30 8597 H 843.026 -1.35588 -0.777531 0
M  V30 8598 H 843.761 -0.581 -3.19053 0
M  V30 8599 H 843.546 -2.35456 -3.13533 0
M  V30 8600 H 845.036 -1.65358 -3.83466 0
M  V30 8601 N 845.473 0.80434 -1.35529 0
M  V30 8602 C 846.719 1.56385 -1.29118 0
M  V30 8603 C 847.052 1.9374 0.133536 0
M  V30 8604 O 846.327 1.6153 1.08344 0
M  V30 8605 C 846.61 2.85097 -2.19981 0
M  V30 8606 C 846.463 2.54204 -3.7108 0
M  V30 8607 C 847.782 3.86817 -2.09907 0
M  V30 8608 H 844.901 0.567382 -0.470368 0
M  V30 8609 H 847.543 0.925235 -1.6595 0
M  V30 8610 H 845.693 3.39594 -1.88701 0
M  V30 8611 H 847.365 2.05872 -4.12813 0
M  V30 8612 H 845.608 1.87364 -3.91251 0
M  V30 8613 H 846.279 3.46068 -4.30048 0
M  V30 8614 H 848.755 3.41725 -2.37409 0
M  V30 8615 H 847.631 4.7465 -2.75678 0
M  V30 8616 H 847.892 4.28663 -1.08171 0
M  V30 8617 N 846.951 1.19563 1.02676 0
M  V30 8618 C 847.881 0.959024 2.12897 0
M  V30 8619 C 848.862 -0.108382 1.69754 0
M  V30 8620 O 850.047 0.0470698 1.94143 0
M  V30 8621 C 847.177 0.499211 3.43693 0
M  V30 8622 C 846.131 1.5087 4.00528 0
M  V30 8623 C 845.457 0.905884 5.2697 0
M  V30 8624 C 846.757 2.88954 4.3509 0
M  V30 8625 H 848.451 1.88084 2.32948 0
M  V30 8626 H 845.997 0.905731 1.11949 0
M  V30 8627 H 847.95 0.320965 4.20176 0
M  V30 8628 H 846.674 -0.458205 3.2337 0
M  V30 8629 H 845.333 1.67413 3.26142 0
M  V30 8630 H 844.981 -0.0591506 5.02965 0
M  V30 8631 H 844.681 1.58 5.65959 0
M  V30 8632 H 846.205 0.73848 6.06118 0
M  V30 8633 H 847.619 2.75981 5.02501 0
M  V30 8634 H 846.016 3.53177 4.85166 0
M  V30 8635 H 847.086 3.41447 3.44299 0
M  V30 8636 N 848.429 -1.21819 0.999893 0
M  V30 8637 C 849.339 -2.27691 0.565159 0
M  V30 8638 C 850.355 -1.69587 -0.389398 0
M  V30 8639 O 851.531 -1.99786 -0.254499 0
M  V30 8640 C 848.596 -3.46537 -0.106432 0
M  V30 8641 C 847.657 -4.19932 0.891964 0
M  V30 8642 C 846.89 -5.33103 0.252327 0
M  V30 8643 O 847.113 -5.62398 -0.952103 0
M  V30 8644 O 846.047 -5.94184 0.960698 0
M  V30 8645 H 849.873 -2.67059 1.44613 0
M  V30 8646 H 847.458 -1.28119 0.768499 0
M  V30 8647 H 849.34 -4.18631 -0.482301 0
M  V30 8648 H 848.015 -3.09079 -0.961865 0
M  V30 8649 H 846.922 -3.5008 1.3189 0
M  V30 8650 H 848.255 -4.61287 1.71682 0
M  V30 8651 N 849.908 -0.773975 -1.37286 0
M  V30 8652 C 851.319 -0.404433 -1.82267 0
M  V30 8653 C 851.67 1.06971 -1.64474 0
M  V30 8654 O 850.795 1.82867 -1.15708 0
M  V30 8655 C 851.39 -0.727298 -3.30902 0
M  V30 8656 C 849.949 -0.410784 -3.74152 0
M  V30 8657 C 849.096 -0.969983 -2.59782 0
M  V30 8658 H 852.047 -0.968437 -1.25726 0
M  V30 8659 H 852.068 -0.0127575 -3.80498 0
M  V30 8660 H 851.58 -1.80026 -3.4382 0
M  V30 8661 H 849.681 0.65477 -3.66802 0
M  V30 8662 H 849.794 -0.920592 -4.70172 0
M  V30 8663 H 848.158 -0.394094 -2.51633 0
M  V30 8664 H 848.941 -2.04839 -2.75492 0
M  V30 8665 N 851.386 1.48609 -0.524698 0
M  V30 8666 C 852.632 2.02797 0.0113382 0
M  V30 8667 C 852.965 1.40147 1.34433 0
M  V30 8668 O 852.24 0.545368 1.86698 0
M  V30 8669 C 852.523 3.59832 0.138931 0
M  V30 8670 C 852.376 4.32971 -1.21886 0
M  V30 8671 C 853.695 4.3145 0.868265 0
M  V30 8672 H 850.814 0.736995 0.00264645 0
M  V30 8673 H 853.456 1.77388 -0.680704 0
M  V30 8674 H 851.606 3.81612 0.72834 0
M  V30 8675 H 853.278 4.22624 -1.84897 0
M  V30 8676 H 851.521 3.94597 -1.80211 0
M  V30 8677 H 852.192 5.41279 -1.08263 0
M  V30 8678 H 854.668 4.14468 0.368145 0
M  V30 8679 H 853.544 5.41025 0.926428 0
M  V30 8680 H 853.805 3.98358 1.91737 0
M  V30 8681 N 852.864 0.259585 1.55447 0
M  V30 8682 C 853.827 -0.621359 2.20617 0
M  V30 8683 C 854.827 -1.09317 1.17925 0
M  V30 8684 O 856.017 -0.995842 1.42929 0
M  V30 8685 C 853.149 -1.85546 2.85982 0
M  V30 8686 H 854.342 -0.0525833 2.99854 0
M  V30 8687 H 851.895 0.0101055 1.56297 0
M  V30 8688 H 852.63 -2.46515 2.10715 0
M  V30 8689 H 852.415 -1.52523 3.61219 0
M  V30 8690 H 853.905 -2.48227 3.35817 0
M  V30 8691 N 854.342 -1.57594 -0.0133615 0
M  V30 8692 C 855.619 -1.81173 -0.737273 0
M  V30 8693 C 855.999 -0.861395 -1.92726 0
M  V30 8694 O 855.347 0.0929324 -2.28311 0
M  V30 8695 C 855.557 -3.29314 -1.15557 0
M  V30 8696 C 856.905 -3.94707 -1.56498 0
M  V30 8697 O 857.929 -3.33557 -1.24973 0
M  V30 8698 O 856.788 -5.02402 -2.15069 0
M  V30 8699 H 853.882 -0.745575 -0.357837 0
M  V30 8700 H 856.428 -1.69696 0.0110674 0
M  V30 8701 H 855.2 -3.90096 -0.30677 0
M  V30 8702 H 854.823 -3.45739 -1.96343 0
M  V30 8703 N 855.82 0.285905 -1.54985 0
M  V30 8704 C 857.068 1.01718 -1.74636 0
M  V30 8705 C 857.389 1.87277 -0.543342 0
M  V30 8706 O 856.659 1.90847 0.442078 0
M  V30 8707 H 855.239 0.378549 -0.643979 0
M  V30 8708 H 857.901 0.313247 -1.92366 0
M  V30 8709 H 856.997 1.66159 -2.64192 0
M  V30 8710 N 857.298 1.47698 0.54982 0
M  V30 8711 C 858.545 1.54702 1.30665 0
M  V30 8712 C 858.873 0.212418 1.93337 0
M  V30 8713 O 858.128 -0.79543 1.78805 0
M  V30 8714 C 858.427 2.61903 2.4319 0
M  V30 8715 C 858.093 4.04953 1.98302 0
M  V30 8716 C 856.755 4.43893 1.85776 0
M  V30 8717 C 859.107 4.94682 1.64133 0
M  V30 8718 C 856.435 5.70387 1.37388 0
M  V30 8719 C 858.787 6.21646 1.17214 0
M  V30 8720 C 857.451 6.5946 1.0329 0
M  V30 8721 H 856.721 0.566096 0.478139 0
M  V30 8722 H 859.368 1.8133 0.615767 0
M  V30 8723 H 857.673 2.2906 3.17866 0
M  V30 8724 H 859.37 2.64543 3.0136 0
M  V30 8725 H 855.96 3.74191 2.08995 0
M  V30 8726 H 860.144 4.65291 1.72679 0
M  V30 8727 H 855.4 5.98427 1.25278 0
M  V30 8728 H 859.574 6.90581 0.898391 0
M  V30 8729 H 857.201 7.57367 0.655735 0
M  V30 8730 N 858.776 -0.797141 1.35954 0
M  V30 8731 C 860.192 -1.09408 1.16198 0
M  V30 8732 C 860.392 -2.01491 -0.0191682 0
M  V30 8733 O 859.448 -2.42977 -0.686902 0
M  V30 8734 C 860.761 -1.71597 2.46931 0
M  V30 8735 C 862.309 -1.83974 2.53224 0
M  V30 8736 C 862.784 -2.49579 3.84024 0
M  V30 8737 N 864.275 -2.57055 3.85327 0
M  V30 8738 C 865.01 -3.08608 4.83268 0
M  V30 8739 N 864.506 -3.60527 5.91601 0
M  V30 8740 N 866.299 -3.07249 4.70696 0
M  V30 8741 H 858.45 -0.185209 2.11591 0
M  V30 8742 H 860.713 -0.144768 0.936881 0
M  V30 8743 H 860.419 -1.11404 3.3359 0
M  V30 8744 H 860.293 -2.71193 2.62172 0
M  V30 8745 H 862.68 -2.43308 1.66988 0
M  V30 8746 H 862.761 -0.83207 2.41889 0
M  V30 8747 H 862.405 -1.90892 4.70662 0
M  V30 8748 H 862.335 -3.50902 3.92651 0
M  V30 8749 H 864.826 -2.20283 3.07057 0
M  V30 8750 H 865.139 -3.98192 6.62317 0
M  V30 8751 H 863.484 -3.587 5.95281 0
M  V30 8752 H 866.675 -2.65972 3.85197 0
M  V30 8753 H 866.848 -3.47119 5.47186 0
M  V30 8754 N 860.254 -1.20106 -1.0204 0
M  V30 8755 C 861.202 -0.943231 -2.12617 0
M  V30 8756 C 862.196 0.104042 -1.6908 0
M  V30 8757 O 863.402 -0.0459732 -1.79941 0
M  V30 8758 H 859.777 -0.28767 -0.694802 0
M  V30 8759 H 861.748 -1.88221 -2.3155 0
M  V30 8760 C 860.497 -0.50771 -3.43973 0
M  V30 8761 H 859.82 -1.30514 -3.77897 0
M  V30 8762 H 861.26 -0.366486 -4.22413 0
M  V30 8763 C 859.719 0.77939 -3.27761 0
M  V30 8764 O 860.249 1.83876 -3.57145 0
M  V30 8765 N 858.455 0.739931 -2.81022 0
M  V30 8766 H 858.002 -0.122426 -2.57309 0
M  V30 8767 H 857.96 1.60147 -2.70556 0
M  V30 8768 N 861.732 1.21287 -1.00634 0
M  V30 8769 C 862.962 1.94103 -0.70765 0
M  V30 8770 C 863.37 1.74382 0.733991 0
M  V30 8771 O 862.713 1.04843 1.50843 0
M  V30 8772 C 862.775 3.46705 -0.950581 0
M  V30 8773 C 862.439 3.90176 -2.37932 0
M  V30 8774 C 863.436 3.96769 -3.35961 0
M  V30 8775 C 861.121 4.22453 -2.71733 0
M  V30 8776 C 863.115 4.35034 -4.65858 0
M  V30 8777 C 860.802 4.60394 -4.01846 0
M  V30 8778 C 861.8 4.66656 -4.9872 0
M  V30 8779 O 861.488 5.03732 -6.26505 0
M  V30 8780 H 861.22 0.62405 -0.259881 0
M  V30 8781 H 863.774 1.55015 -1.34757 0
M  V30 8782 H 862.004 3.85868 -0.253492 0
M  V30 8783 H 863.693 4.00741 -0.645069 0
M  V30 8784 H 864.459 3.72009 -3.11182 0
M  V30 8785 H 860.338 4.16776 -1.97025 0
M  V30 8786 H 863.882 4.39836 -5.4147 0
M  V30 8787 H 859.779 4.84609 -4.26409 0
M  V30 8788 H 860.547 5.21761 -6.30641 0
M  V30 8789 N 863.21 0.781244 1.36873 0
M  V30 8790 C 864.14 0.188128 2.32741 0
M  V30 8791 C 865.121 -0.672326 1.56249 0
M  V30 8792 O 866.306 -0.607835 1.84442 0
M  V30 8793 C 863.436 -0.684341 3.40491 0
M  V30 8794 C 862.39 0.0755641 4.27933 0
M  V30 8795 C 861.716 -0.916968 5.26779 0
M  V30 8796 C 863.016 1.26006 5.06873 0
M  V30 8797 H 864.71 0.989016 2.82593 0
M  V30 8798 H 862.256 0.477038 1.35869 0
M  V30 8799 H 864.209 -1.10915 4.06541 0
M  V30 8800 H 862.933 -1.51785 2.89187 0
M  V30 8801 H 861.592 0.481258 3.63427 0
M  V30 8802 H 861.24 -1.74528 4.71751 0
M  V30 8803 H 860.94 -0.413 5.86147 0
M  V30 8804 H 862.464 -1.34052 5.95703 0
M  V30 8805 H 863.878 0.911425 5.66009 0
M  V30 8806 H 862.275 1.69676 5.75613 0
M  V30 8807 H 863.345 2.05948 4.38991 0
M  V30 8808 N 864.689 -1.48329 0.532571 0
M  V30 8809 C 865.636 -2.29663 -0.228779 0
M  V30 8810 C 866.606 -1.37529 -0.931401 0
M  V30 8811 O 867.791 -1.66493 -0.931921 0
M  V30 8812 C 864.931 -3.20955 -1.26814 0
M  V30 8813 C 864.044 -4.28168 -0.574099 0
M  V30 8814 C 863.179 -5.06638 -1.59661 0
M  V30 8815 C 862.218 -6.05651 -0.88618 0
M  V30 8816 N 861.355 -6.77169 -1.85436 0
M  V30 8817 H 866.195 -2.94255 0.47098 0
M  V30 8818 H 863.732 -1.45061 0.2441 0
M  V30 8819 H 865.69 -3.72285 -1.88307 0
M  V30 8820 H 864.32 -2.58281 -1.93625 0
M  V30 8821 H 863.372 -3.80085 0.154827 0
M  V30 8822 H 864.684 -4.98797 -0.0163984 0
M  V30 8823 H 863.838 -5.61995 -2.28576 0
M  V30 8824 H 862.577 -4.35854 -2.18821 0
M  V30 8825 H 861.582 -5.49495 -0.182981 0
M  V30 8826 H 862.807 -6.78434 -0.300659 0
M  V30 8827 H 860.753 -6.09134 -2.43499 0
M  V30 8828 H 860.67 -7.43882 -1.34816 0
M  V30 8829 H 861.938 -7.37114 -2.53541 0
M  V30 8830 N 866.167 -0.267825 -1.55308 0
M  V30 8831 C 867.415 0.350343 -1.9904 0
M  V30 8832 C 867.736 1.56924 -1.15758 0
M  V30 8833 O 867.006 1.94358 -0.245336 0
M  V30 8834 H 865.586 0.132435 -0.735167 0
M  V30 8835 H 868.248 -0.371471 -1.91327 0
M  V30 8836 H 867.344 0.645203 -3.05358 0
M  V30 8837 N 867.645 1.57599 0.00500368 0
M  V30 8838 C 868.592 2.08106 0.998025 0
M  V30 8839 C 869.562 0.975374 1.34446 0
M  V30 8840 O 870.747 1.24749 1.44369 0
M  V30 8841 C 867.887 2.58496 2.28635 0
M  V30 8842 C 867 3.82947 1.99939 0
M  V30 8843 C 866.135 4.21857 3.22816 0
M  V30 8844 C 865.174 5.39159 2.89783 0
M  V30 8845 N 864.311 5.73386 4.05183 0
M  V30 8846 H 869.151 2.92684 0.560385 0
M  V30 8847 H 866.688 1.44692 0.265053 0
M  V30 8848 H 868.646 2.85787 3.03943 0
M  V30 8849 H 867.276 1.768 2.70077 0
M  V30 8850 H 866.328 3.62594 1.1502 0
M  V30 8851 H 867.64 4.68358 1.71588 0
M  V30 8852 H 866.794 4.50404 4.06474 0
M  V30 8853 H 865.533 3.35145 3.54301 0
M  V30 8854 H 864.538 5.1034 2.04532 0
M  V30 8855 H 865.763 6.27543 2.59551 0
M  V30 8856 H 863.709 4.89632 4.36574 0
M  V30 8857 H 863.626 6.53359 3.80339 0
M  V30 8858 H 864.894 6.06522 4.89644 0
M  V30 8859 N 869.123 -0.277682 1.55134 0
M  V30 8860 C 870.353 -1.02677 1.79279 0
M  V30 8861 C 870.761 -1.80599 0.563962 0
M  V30 8862 O 870.104 -1.77416 -0.476378 0
M  V30 8863 C 870.166 -2.03617 2.96277 0
M  V30 8864 C 869.83 -1.44676 4.33495 0
M  V30 8865 C 870.827 -0.864811 5.12657 0
M  V30 8866 C 868.512 -1.47537 4.80144 0
M  V30 8867 C 870.506 -0.319322 6.366 0
M  V30 8868 C 868.193 -0.926016 6.04043 0
M  V30 8869 C 869.191 -0.348988 6.82108 0
M  V30 8870 O 868.879 0.191964 8.03671 0
M  V30 8871 H 868.611 -0.309232 0.601125 0
M  V30 8872 H 871.165 -0.315308 2.02965 0
M  V30 8873 H 869.395 -2.78509 2.68272 0
M  V30 8874 H 871.084 -2.64616 3.07788 0
M  V30 8875 H 871.85 -0.835438 4.7775 0
M  V30 8876 H 867.729 -1.91389 4.19394 0
M  V30 8877 H 871.273 0.131709 6.97476 0
M  V30 8878 H 867.17 -0.952613 6.38432 0
M  V30 8879 H 867.938 0.0808779 8.1846 0
M  V30 8880 N 870.601 -1.47988 -0.541979 0
M  V30 8881 C 872.017 -1.33843 -0.869383 0
M  V30 8882 C 872.217 -0.340374 -1.98604 0
M  V30 8883 O 871.273 0.242696 -2.51331 0
M  V30 8884 C 872.586 -2.73568 -1.24823 0
M  V30 8885 C 874.134 -2.81967 -1.3588 0
M  V30 8886 C 874.609 -4.22368 -1.77114 0
M  V30 8887 N 876.1 -4.24983 -1.84237 0
M  V30 8888 C 876.835 -5.30547 -2.17503 0
M  V30 8889 N 876.331 -6.46401 -2.49275 0
M  V30 8890 N 878.124 -5.17933 -2.18406 0
M  V30 8891 H 870.275 -2.11503 0.195001 0
M  V30 8892 H 872.538 -0.947681 0.0245862 0
M  V30 8893 H 872.244 -3.48107 -0.501435 0
M  V30 8894 H 872.118 -3.06322 -2.20106 0
M  V30 8895 H 874.505 -2.07692 -2.09638 0
M  V30 8896 H 874.586 -2.52848 -0.387478 0
M  V30 8897 H 874.23 -4.97155 -1.0392 0
M  V30 8898 H 874.16 -4.48922 -2.75275 0
M  V30 8899 H 876.651 -3.41411 -1.62009 0
M  V30 8900 H 876.964 -7.22698 -2.73729 0
M  V30 8901 H 875.309 -6.49696 -2.46821 0
M  V30 8902 H 878.5 -4.26445 -1.93034 0
M  V30 8903 H 878.673 -6.00307 -2.44 0
M  V30 8904 N 872.079 0.78992 -1.36375 0
M  V30 8905 C 873.325 1.55007 -1.3077 0
M  V30 8906 C 873.658 1.93871 0.112979 0
M  V30 8907 O 872.933 1.6267 1.06625 0
M  V30 8908 C 873.216 2.82748 -2.22993 0
M  V30 8909 C 873.069 2.50253 -3.73756 0
M  V30 8910 C 874.388 3.84569 -2.13998 0
M  V30 8911 H 871.507 0.562362 -0.476359 0
M  V30 8912 H 874.149 0.907582 -1.66922 0
M  V30 8913 H 872.299 3.37573 -1.92292 0
M  V30 8914 H 873.971 2.01482 -4.14973 0
M  V30 8915 H 872.214 1.83203 -3.93216 0
M  V30 8916 H 872.885 3.41487 -4.33694 0
M  V30 8917 H 875.361 3.39188 -2.4102 0
M  V30 8918 H 874.237 4.717 -2.80697 0
M  V30 8919 H 874.498 4.27491 -1.12711 0
M  V30 8920 N 873.557 1.20646 1.01402 0
M  V30 8921 C 874.968 1.01823 1.56489 0
M  V30 8922 C 875.319 -0.42463 1.9155 0
M  V30 8923 O 874.444 -1.30644 1.72514 0
M  V30 8924 C 875.039 1.84208 2.84347 0
M  V30 8925 C 873.598 1.69743 3.35953 0
M  V30 8926 C 872.745 1.8198 2.09233 0
M  V30 8927 H 875.696 1.348 0.837539 0
M  V30 8928 H 875.717 1.34698 3.55861 0
M  V30 8929 H 875.229 2.89215 2.58798 0
M  V30 8930 H 873.33 0.673833 3.66456 0
M  V30 8931 H 873.443 2.51173 4.07981 0
M  V30 8932 H 871.807 1.25193 2.21808 0
M  V30 8933 H 872.59 2.88477 1.86107 0
M  V30 8934 N 875.035 -1.20752 1.01276 0
M  V30 8935 C 875.998 -2.2162 0.584583 0
M  V30 8936 C 876.998 -1.57094 -0.343215 0
M  V30 8937 O 878.188 -1.73696 -0.132433 0
M  V30 8938 C 875.32 -3.40583 -0.146872 0
M  V30 8939 H 876.513 -2.61015 1.47686 0
M  V30 8940 H 874.066 -1.34148 0.802123 0
M  V30 8941 H 874.801 -3.06686 -1.05424 0
M  V30 8942 H 874.586 -3.88642 0.51958 0
M  V30 8943 H 876.076 -4.15339 -0.433924 0
M  V30 8944 N 876.513 -0.788492 -1.36457 0
M  V30 8945 C 877.423 -0.187385 -2.3385 0
M  V30 8946 C 878.439 0.659984 -1.60998 0
M  V30 8947 O 879.615 0.575986 -1.92988 0
M  V30 8948 C 876.68 0.668525 -3.40194 0
M  V30 8949 C 875.741 -0.197234 -4.28847 0
M  V30 8950 C 874.974 0.61792 -5.30111 0
M  V30 8951 O 875.197 1.85396 -5.3943 0
M  V30 8952 O 874.131 0.0183016 -6.01897 0
M  V30 8953 H 877.957 -0.992617 -2.87021 0
M  V30 8954 H 875.542 -0.549934 -1.3891 0
M  V30 8955 H 877.424 1.15663 -4.05216 0
M  V30 8956 H 876.099 1.45166 -2.89324 0
M  V30 8957 H 875.006 -0.73207 -3.66867 0
M  V30 8958 H 876.339 -0.943863 -4.83065 0
M  V30 8959 N 877.991 1.48044 -0.54043 0
M  V30 8960 C 879.237 2.02797 -0.0101718 0
M  V30 8961 C 879.57 1.41565 1.32939 0
M  V30 8962 O 878.845 0.565139 1.86109 0
M  V30 8963 C 879.128 3.59959 0.100758 0
M  V30 8964 C 878.981 4.31654 -1.26471 0
M  V30 8965 C 880.3 4.32347 0.822455 0
M  V30 8966 H 877.419 0.736982 -0.00517052 0
M  V30 8967 H 880.061 1.76656 -0.69948 0
M  V30 8968 H 878.211 3.82363 0.687824 0
M  V30 8969 H 879.883 4.20639 -1.89369 0
M  V30 8970 H 878.126 3.92663 -1.84386 0
M  V30 8971 H 878.797 5.401 -1.13998 0
M  V30 8972 H 881.273 4.14835 0.324164 0
M  V30 8973 H 880.149 5.41978 0.868993 0
M  V30 8974 H 880.41 4.00369 1.87501 0
M  V30 8975 N 879.47 0.276058 1.55163 0
M  V30 8976 C 880.4 -0.604633 2.25536 0
M  V30 8977 C 881.381 -1.15813 1.24585 0
M  V30 8978 O 882.566 -1.1921 1.53306 0
M  V30 8979 C 879.696 -1.78836 2.97716 0
M  V30 8980 C 878.65 -1.36635 4.05604 0
M  V30 8981 C 877.976 -2.63325 4.65364 0
M  V30 8982 C 879.276 -0.515858 5.19746 0
M  V30 8983 H 880.97 -0.0177483 2.99395 0
M  V30 8984 H 878.516 -0.00709627 1.43998 0
M  V30 8985 H 880.469 -2.41036 3.45658 0
M  V30 8986 H 879.193 -2.40109 2.21394 0
M  V30 8987 H 877.852 -0.767541 3.58475 0
M  V30 8988 H 877.5 -3.22858 3.85709 0
M  V30 8989 H 877.2 -2.358 5.38212 0
M  V30 8990 H 878.724 -3.26372 5.16056 0
M  V30 8991 H 880.138 -1.04289 5.63735 0
M  V30 8992 H 878.535 -0.335449 5.99162 0
M  V30 8993 H 879.605 0.465137 4.82664 0
M  V30 8994 N 880.948 -1.576 0.00335426 0
M  V30 8995 C 881.878 -2.11668 -0.985839 0
M  V30 8996 C 882.859 -1.02661 -1.35627 0
M  V30 8997 O 884.044 -1.30361 -1.43943 0
M  V30 8998 C 881.174 -2.62273 -2.27662 0
M  V30 8999 C 880.128 -3.75837 -2.0477 0
M  V30 9000 C 879.454 -4.12769 -3.39891 0
M  V30 9001 C 880.754 -5.02975 -1.40759 0
M  V30 9002 H 882.448 -2.9457 -0.535637 0
M  V30 9003 H 879.994 -1.41702 -0.256204 0
M  V30 9004 H 881.947 -2.98727 -2.97221 0
M  V30 9005 H 880.671 -1.76498 -2.74802 0
M  V30 9006 H 879.33 -3.39782 -1.37636 0
M  V30 9007 H 878.978 -3.24013 -3.8474 0
M  V30 9008 H 878.678 -4.89281 -3.25389 0
M  V30 9009 H 880.202 -4.51784 -4.1076 0
M  V30 9010 H 881.616 -5.37179 -2.00279 0
M  V30 9011 H 880.013 -5.84315 -1.36734 0
M  V30 9012 H 881.083 -4.83431 -0.377218 0
M  V30 9013 N 882.426 0.269451 -1.5528 0
M  V30 9014 C 883.672 1.00206 -1.76314 0
M  V30 9015 C 884.005 1.85812 -0.564581 0
M  V30 9016 O 883.28 1.89509 0.437769 0
M  V30 9017 C 883.563 1.88163 -3.07029 0
M  V30 9018 C 883.416 1.05527 -4.37246 0
M  V30 9019 C 884.735 2.8681 -3.33808 0
M  V30 9020 H 881.854 0.36288 -0.641473 0
M  V30 9021 H 884.496 0.274188 -1.88011 0
M  V30 9022 H 882.646 2.50224 -2.97187 0
M  V30 9023 H 884.318 0.455094 -4.5905 0
M  V30 9024 H 882.561 0.358842 -4.32313 0
M  V30 9025 H 883.232 1.70397 -5.25042 0
M  V30 9026 H 885.708 2.34884 -3.43466 0
M  V30 9027 H 884.584 3.45492 -4.26528 0
M  V30 9028 H 884.845 3.62118 -2.5362 0
M  V30 9029 N 883.904 1.48273 0.534124 0
M  V30 9030 C 885.181 1.46567 1.29528 0
M  V30 9031 C 885.561 0.17509 2.10373 0
M  V30 9032 O 884.909 -0.843228 2.12372 0
M  V30 9033 C 885.119 2.72519 2.18023 0
M  V30 9034 C 886.467 3.2068 2.78298 0
M  V30 9035 O 887.491 2.73408 2.28313 0
M  V30 9036 O 886.35 4.02924 3.69208 0
M  V30 9037 H 883.444 0.585151 0.584403 0
M  V30 9038 H 885.99 1.60502 0.551119 0
M  V30 9039 H 884.762 3.57965 1.5804 0
M  V30 9040 H 884.385 2.61285 2.99693 0
M  V30 9041 N 885.382 -0.782676 1.36792 0
M  V30 9042 C 886.329 -1.89558 1.31667 0
M  V30 9043 C 887.299 -1.65076 0.184147 0
M  V30 9044 O 888.484 -1.87143 0.371753 0
M  V30 9045 C 885.624 -3.26469 1.11858 0
M  V30 9046 C 884.737 -3.62978 2.34245 0
M  V30 9047 C 883.872 -4.89041 2.07394 0
M  V30 9048 C 882.911 -5.18249 3.25706 0
M  V30 9049 N 882.048 -6.35497 2.98476 0
M  V30 9050 H 886.888 -1.93274 2.26824 0
M  V30 9051 H 884.425 -0.945057 1.12726 0
M  V30 9052 H 886.383 -4.05431 0.983968 0
M  V30 9053 H 885.013 -3.22158 0.203531 0
M  V30 9054 H 884.065 -2.79087 2.58485 0
M  V30 9055 H 885.377 -3.80507 3.22514 0
M  V30 9056 H 884.531 -5.75883 1.90901 0
M  V30 9057 H 883.27 -4.73594 1.16446 0
M  V30 9058 H 882.275 -4.29887 3.4275 0
M  V30 9059 H 883.5 -5.35611 4.1749 0
M  V30 9060 H 881.446 -6.21429 2.10146 0
M  V30 9061 H 881.363 -6.5339 3.80286 0
M  V30 9062 H 882.631 -7.25304 2.85577 0
M  V30 9063 N 886.86 -1.21182 -1.00761 0
M  V30 9064 C 887.823 -0.970339 -2.07646 0
M  V30 9065 C 888.823 0.0576345 -1.60697 0
M  V30 9066 O 890.013 -0.179369 -1.73274 0
M  V30 9067 C 887.145 -0.462703 -3.37745 0
M  V30 9068 H 888.338 -1.91856 -2.30502 0
M  V30 9069 H 885.891 -1.02844 -1.17698 0
M  V30 9070 H 886.626 0.490559 -3.20568 0
M  V30 9071 H 886.411 -1.20416 -3.73152 0
M  V30 9072 H 887.901 -0.313531 -4.16421 0
M  V30 9073 N 888.338 1.20213 -1.01915 0
M  V30 9074 C 889.27 2.2251 -0.549725 0
M  V30 9075 C 890.283 1.58558 0.369235 0
M  V30 9076 O 891.472 1.77715 0.167176 0
M  V30 9077 C 888.572 3.38189 0.219432 0
M  V30 9078 C 887.745 4.31729 -0.702066 0
M  V30 9079 C 886.804 5.26196 0.0199624 0
M  V30 9080 O 885.83 5.65993 -0.60339 0
M  V30 9081 N 887.032 5.65895 1.29397 0
M  V30 9082 H 889.797 2.63412 -1.42948 0
M  V30 9083 H 887.358 1.3478 -0.896987 0
M  V30 9084 H 889.35 3.98392 0.711763 0
M  V30 9085 H 887.92 2.96156 1.00051 0
M  V30 9086 H 887.14 3.69455 -1.37466 0
M  V30 9087 H 888.428 4.91145 -1.3287 0
M  V30 9088 H 887.826 5.35579 1.8213 0
M  V30 9089 H 886.383 6.28395 1.73098 0
M  V30 9090 N 889.816 0.795718 1.36037 0
M  V30 9091 C 890.746 0.212803 2.32528 0
M  V30 9092 C 891.727 -0.655716 1.56953 0
M  V30 9093 O 892.912 -0.588238 1.85077 0
M  V30 9094 C 890.042 -0.648189 3.41198 0
M  V30 9095 C 888.996 0.120948 4.27829 0
M  V30 9096 C 888.322 -0.861044 5.27722 0
M  V30 9097 C 889.622 1.31375 5.05508 0
M  V30 9098 H 891.316 1.01893 2.81528 0
M  V30 9099 H 888.862 0.491422 1.35355 0
M  V30 9100 H 890.815 -1.06597 4.07695 0
M  V30 9101 H 889.539 -1.48709 2.9078 0
M  V30 9102 H 888.198 0.519777 3.62897 0
M  V30 9103 H 887.846 -1.69515 4.73575 0
M  V30 9104 H 887.546 -0.350808 5.86552 0
M  V30 9105 H 889.07 -1.27726 5.97092 0
M  V30 9106 H 890.484 0.971406 5.6501 0
M  V30 9107 H 888.881 1.75772 5.73781 0
M  V30 9108 H 889.951 2.10593 4.36782 0
M  V30 9109 N 891.294 -1.47756 0.548274 0
M  V30 9110 C 892.224 -2.32702 -0.19284 0
M  V30 9111 C 893.205 -1.43237 -0.917457 0
M  V30 9112 O 894.39 -1.72103 -0.89967 0
M  V30 9113 C 891.52 -3.24831 -1.22891 0
M  V30 9114 C 890.474 -4.23466 -0.621312 0
M  V30 9115 C 889.8 -5.04856 -1.76137 0
M  V30 9116 C 891.1 -5.20616 0.419055 0
M  V30 9117 H 892.794 -2.94914 0.516323 0
M  V30 9118 H 890.34 -1.41818 0.24975 0
M  V30 9119 H 892.293 -3.83094 -1.75547 0
M  V30 9120 H 891.017 -2.60656 -1.9679 0
M  V30 9121 H 889.676 -3.66416 -0.116123 0
M  V30 9122 H 889.324 -4.37091 -2.48918 0
M  V30 9123 H 889.024 -5.71629 -1.36065 0
M  V30 9124 H 890.548 -5.65976 -2.29136 0
M  V30 9125 H 891.962 -5.73296 -0.0211034 0
M  V30 9126 H 890.359 -5.95543 0.738163 0
M  V30 9127 H 891.429 -4.66638 1.31822 0
M  V30 9128 N 892.772 -0.284283 -1.55015 0
M  V30 9129 C 894 0.332948 -2.04203 0
M  V30 9130 C 894.415 1.48783 -1.16229 0
M  V30 9131 O 893.772 1.81567 -0.184323 0
M  V30 9132 C 893.823 0.805207 -3.52418 0
M  V30 9133 O 893.544 -0.303689 -4.37046 0
M  V30 9134 C 895.045 1.48931 -4.17534 0
M  V30 9135 H 892.265 0.0747447 -0.666824 0
M  V30 9136 H 894.809 -0.419048 -2.00161 0
M  V30 9137 H 892.964 1.50727 -3.56876 0
M  V30 9138 H 893.378 0.0609703 -5.24465 0
M  V30 9139 H 894.852 1.77108 -5.22816 0
M  V30 9140 H 895.329 2.42389 -3.66257 0
M  V30 9141 H 895.935 0.830867 -4.17105 0
M  V30 9142 N 894.251 1.57596 -0.0117121 0
M  V30 9143 C 895.181 2.12188 0.9746 0
M  V30 9144 C 896.162 1.03379 1.35081 0
M  V30 9145 O 897.347 1.31123 1.4325 0
M  V30 9146 C 894.477 2.63477 2.26268 0
M  V30 9147 C 893.431 3.76917 2.02774 0
M  V30 9148 C 892.757 4.14566 3.37697 0
M  V30 9149 C 894.057 5.03715 1.38089 0
M  V30 9150 H 895.751 2.9485 0.520007 0
M  V30 9151 H 893.297 1.41836 0.248685 0
M  V30 9152 H 895.25 3.00299 2.95633 0
M  V30 9153 H 893.974 1.77953 2.73862 0
M  V30 9154 H 892.633 3.40507 1.35832 0
M  V30 9155 H 892.281 3.26048 3.83016 0
M  V30 9156 H 891.981 4.91 3.22789 0
M  V30 9157 H 893.505 4.53956 4.08358 0
M  V30 9158 H 894.919 5.38233 1.97428 0
M  V30 9159 H 893.316 5.85032 1.33634 0
M  V30 9160 H 894.386 4.83624 0.351575 0
M  V30 9161 N 895.729 -0.261212 1.5542 0
M  V30 9162 C 896.954 -1.01341 1.80955 0
M  V30 9163 C 897.379 -1.78711 0.586849 0
M  V30 9164 O 896.737 -1.75266 -0.463837 0
M  V30 9165 C 896.785 -1.93835 3.04073 0
M  V30 9166 O 895.889 -3.02791 2.79985 0
M  V30 9167 H 895.23 -0.289123 0.597749 0
M  V30 9168 H 897.76 -0.286543 2.02584 0
M  V30 9169 H 897.77 -2.3557 3.33123 0
M  V30 9170 H 896.445 -1.36936 3.9271 0
M  V30 9171 H 895.022 -2.65287 2.62063 0
M  V30 9172 N 897.207 -1.48554 -0.526253 0
M  V30 9173 C 898.17 -1.62868 -1.61266 0
M  V30 9174 C 899.17 -0.501762 -1.52771 0
M  V30 9175 O 900.36 -0.76764 -1.56374 0
M  V30 9176 C 897.492 -1.60238 -3.00893 0
M  V30 9177 H 898.685 -2.59742 -1.49913 0
M  V30 9178 H 896.238 -1.37207 -0.748595 0
M  V30 9179 H 896.973 -0.648545 -3.17749 0
M  V30 9180 H 896.758 -2.42054 -3.08468 0
M  V30 9181 H 898.248 -1.73455 -3.79872 0
M  V30 9182 N 898.685 0.775411 -1.37205 0
M  V30 9183 C 900.096 1.35147 -1.28811 0
M  V30 9184 C 900.447 1.96089 0.0659168 0
M  V30 9185 O 899.572 1.93558 0.967684 0
M  V30 9186 C 900.167 2.45715 -2.33258 0
M  V30 9187 C 898.726 2.99099 -2.2851 0
M  V30 9188 C 897.873 1.72286 -2.17285 0
M  V30 9189 H 900.824 0.575954 -1.4788 0
M  V30 9190 H 900.845 3.251 -1.97712 0
M  V30 9191 H 900.357 2.01331 -3.31795 0
M  V30 9192 H 898.458 3.47868 -1.33485 0
M  V30 9193 H 898.571 3.54962 -3.21774 0
M  V30 9194 H 896.935 1.95068 -1.6377 0
M  V30 9195 H 897.718 1.3001 -3.1773 0
M  V30 9196 N 900.163 1.21714 1.00117 0
M  V30 9197 C 901.073 0.99597 2.12409 0
M  V30 9198 C 902.089 -0.0531431 1.73919 0
M  V30 9199 O 903.265 0.137757 2.00928 0
M  V30 9200 C 900.33 0.567593 3.42022 0
M  V30 9201 C 899.391 1.68936 3.94663 0
M  V30 9202 C 898.624 1.28133 5.1809 0
M  V30 9203 O 898.847 0.156574 5.70185 0
M  V30 9204 O 897.781 2.0947 5.64275 0
M  V30 9205 H 901.607 1.93657 2.33946 0
M  V30 9206 H 899.192 1.00236 1.10784 0
M  V30 9207 H 901.074 0.338664 4.20037 0
M  V30 9208 H 899.749 -0.34424 3.21864 0
M  V30 9209 H 898.656 1.97274 3.17858 0
M  V30 9210 H 899.989 2.57876 4.19238 0
M  V30 9211 N 901.641 -1.19671 1.02551 0
M  V30 9212 C 902.574 -2.21522 0.547998 0
M  V30 9213 C 903.552 -1.57363 -0.409349 0
M  V30 9214 O 904.736 -1.85638 -0.327248 0
M  V30 9215 C 901.863 -3.38101 -0.201375 0
M  V30 9216 C 900.909 -4.20601 0.706886 0
M  V30 9217 S 901.742 -4.89066 2.18116 0
M  V30 9218 C 902.898 -6.09058 1.4422 0
M  V30 9219 H 903.131 -2.61684 1.41099 0
M  V30 9220 H 900.664 -1.29864 0.835153 0
M  V30 9221 H 902.622 -4.05674 -0.627607 0
M  V30 9222 H 901.283 -2.96381 -1.04005 0
M  V30 9223 H 900.476 -5.03836 0.128554 0
M  V30 9224 H 900.078 -3.58329 1.07129 0
M  V30 9225 H 902.37 -6.73588 0.726975 0
M  V30 9226 H 903.313 -6.71368 2.25102 0
M  V30 9227 H 903.721 -5.56599 0.941176 0
M  V30 9228 N 903.119 -0.802921 -1.35613 0
M  V30 9229 C 904.347 -0.39393 -2.03115 0
M  V30 9230 C 904.762 0.993961 -1.60517 0
M  V30 9231 O 904.119 1.63984 -0.800973 0
M  V30 9232 C 904.17 -0.463486 -3.58516 0
M  V30 9233 O 903.891 -1.79666 -3.99565 0
M  V30 9234 C 905.392 -0.0468377 -4.43275 0
M  V30 9235 H 902.612 -0.160519 -0.651517 0
M  V30 9236 H 905.156 -1.08552 -1.73311 0
M  V30 9237 H 903.311 0.179821 -3.86982 0
M  V30 9238 H 903.725 -1.75688 -4.942 0
M  V30 9239 H 905.199 -0.146626 -5.51805 0
M  V30 9240 H 905.676 1.00741 -4.2749 0
M  V30 9241 H 906.282 -0.663158 -4.20098 0
M  V30 9242 N 904.597 1.47463 -0.556102 0
M  V30 9243 C 905.843 2.02775 -0.0316806 0
M  V30 9244 C 906.176 1.42967 1.3143 0
M  V30 9245 O 905.451 0.584847 1.85499 0
M  V30 9246 C 905.734 3.60046 0.0625742 0
M  V30 9247 C 905.587 4.30288 -1.31043 0
M  V30 9248 C 906.906 4.33195 0.776553 0
M  V30 9249 H 904.025 0.736886 -0.0129869 0
M  V30 9250 H 906.667 1.75904 -0.718177 0
M  V30 9251 H 904.817 3.83071 0.647231 0
M  V30 9252 H 906.489 4.18607 -1.9382 0
M  V30 9253 H 904.732 3.90685 -1.8854 0
M  V30 9254 H 905.403 5.38861 -1.1972 0
M  V30 9255 H 907.879 4.15156 0.280147 0
M  V30 9256 H 906.755 5.42869 0.81146 0
M  V30 9257 H 907.016 4.02336 1.83244 0
M  V30 9258 N 906.075 0.2925 1.54862 0
M  V30 9259 C 907.005 -0.580677 2.26165 0
M  V30 9260 C 907.986 -1.14485 1.25806 0
M  V30 9261 O 909.171 -1.17577 1.54562 0
M  V30 9262 C 906.301 -1.75668 2.99596 0
M  V30 9263 C 905.255 -1.32325 4.07031 0
M  V30 9264 C 904.581 -2.58374 4.68131 0
M  V30 9265 C 905.881 -0.460703 5.20264 0
M  V30 9266 H 907.575 0.0140075 2.99397 0
M  V30 9267 H 905.121 0.00817706 1.43998 0
M  V30 9268 H 907.074 -2.37356 3.48195 0
M  V30 9269 H 905.798 -2.37747 2.23928 0
M  V30 9270 H 904.457 -0.729477 3.59269 0
M  V30 9271 H 904.105 -3.18749 3.89112 0
M  V30 9272 H 903.805 -2.30078 5.40683 0
M  V30 9273 H 905.329 -3.2088 5.19489 0
M  V30 9274 H 906.743 -0.983037 5.64809 0
M  V30 9275 H 905.14 -0.271881 5.99484 0
M  V30 9276 H 906.21 0.516304 4.82143 0
M  V30 9277 N 907.553 -1.57587 0.0200696 0
M  V30 9278 C 908.483 -2.12702 -0.963333 0
M  V30 9279 C 909.464 -1.04094 -1.34531 0
M  V30 9280 O 910.649 -1.31881 -1.42552 0
M  V30 9281 C 907.779 -2.64673 -2.24868 0
M  V30 9282 C 906.733 -3.77987 -2.00772 0
M  V30 9283 C 906.059 -4.16351 -3.35494 0
M  V30 9284 C 907.359 -5.0444 -1.35416 0
M  V30 9285 H 909.053 -2.95121 -0.504363 0
M  V30 9286 H 906.599 -1.41966 -0.24116 0
M  V30 9287 H 908.552 -3.01862 -2.94036 0
M  V30 9288 H 907.276 -1.79403 -2.72914 0
M  V30 9289 H 905.935 -3.41223 -1.34025 0
M  V30 9290 H 905.583 -3.28075 -3.81282 0
M  V30 9291 H 905.283 -4.92705 -3.20181 0
M  V30 9292 H 906.807 -4.56115 -4.05945 0
M  V30 9293 H 908.221 -5.39273 -1.94571 0
M  V30 9294 H 906.618 -5.85732 -1.30529 0
M  V30 9295 H 907.688 -4.83803 -0.325923 0
M  V30 9296 N 909.032 0.252966 -1.55557 0
M  V30 9297 C 910.28 0.979912 -1.76754 0
M  V30 9298 C 910.601 1.86083 -0.582944 0
M  V30 9299 O 909.871 1.91742 0.401497 0
M  V30 9300 H 908.451 0.364805 -0.651864 0
M  V30 9301 H 911.113 0.272372 -1.92987 0
M  V30 9302 H 910.209 1.60518 -2.67657 0
M  V30 9303 N 910.51 1.48831 0.518367 0
M  V30 9304 C 911.758 1.57128 1.27103 0
M  V30 9305 C 912.079 0.252098 1.93364 0
M  V30 9306 O 911.349 -0.727281 1.819 0
M  V30 9307 H 909.929 0.578891 0.472116 0
M  V30 9308 H 912.591 1.85361 0.602262 0
M  V30 9309 H 911.687 2.35838 2.04418 0
M  V30 9310 N 911.988 -0.768124 1.37614 0
M  V30 9311 C 912.918 -1.89537 1.36374 0
M  V30 9312 C 913.899 -1.68513 0.231803 0
M  V30 9313 O 915.084 -1.89318 0.432705 0
M  V30 9314 C 912.214 -3.26871 1.17358 0
M  V30 9315 C 911.168 -3.62466 2.27602 0
M  V30 9316 C 910.494 -4.9838 1.93705 0
M  V30 9317 C 911.794 -3.68841 3.69802 0
M  V30 9318 H 913.488 -1.90832 2.30702 0
M  V30 9319 H 911.034 -0.91672 1.11051 0
M  V30 9320 H 912.987 -4.05371 1.15119 0
M  V30 9321 H 911.711 -3.26018 0.194865 0
M  V30 9322 H 910.37 -2.86276 2.29002 0
M  V30 9323 H 910.018 -4.94071 0.943539 0
M  V30 9324 H 909.718 -5.23165 2.6753 0
M  V30 9325 H 911.242 -5.79276 1.93059 0
M  V30 9326 H 912.656 -4.37485 3.70513 0
M  V30 9327 H 911.053 -4.05126 4.42711 0
M  V30 9328 H 912.123 -2.69415 4.03167 0
M  V30 9329 N 913.466 -1.22244 -0.994698 0
M  V30 9330 C 914.882 -0.982006 -1.25813 0
M  V30 9331 C 915.082 0.325488 -1.98854 0
M  V30 9332 O 914.138 1.04857 -2.29698 0
M  V30 9333 C 915.451 -2.1795 -2.07167 0
M  V30 9334 C 916.999 -2.22287 -2.20358 0
M  V30 9335 C 917.474 -3.41583 -3.05098 0
M  V30 9336 N 918.965 -3.41734 -3.12686 0
M  V30 9337 C 919.7 -4.30692 -3.78539 0
M  V30 9338 N 919.196 -5.29865 -4.46335 0
M  V30 9339 N 920.989 -4.18473 -3.75283 0
M  V30 9340 H 913.14 -2.0631 -0.504963 0
M  V30 9341 H 915.403 -0.90395 -0.285618 0
M  V30 9342 H 915.109 -3.12758 -1.60858 0
M  V30 9343 H 914.983 -2.17862 -3.07922 0
M  V30 9344 H 917.37 -1.28028 -2.65881 0
M  V30 9345 H 917.451 -2.26414 -1.19039 0
M  V30 9346 H 917.095 -4.36141 -2.60275 0
M  V30 9347 H 917.025 -3.34695 -4.06555 0
M  V30 9348 H 919.516 -2.69969 -2.64433 0
M  V30 9349 H 919.829 -5.94027 -4.9432 0
M  V30 9350 H 918.174 -5.3378 -4.45089 0
M  V30 9351 H 921.365 -3.40249 -3.21478 0
M  V30 9352 H 921.538 -4.88007 -4.26326 0
M  V30 9353 N 914.944 1.19125 -1.03184 0
M  V30 9354 C 916.19 1.89163 -0.731111 0
M  V30 9355 C 916.523 1.79604 0.738662 0
M  V30 9356 O 915.798 1.19037 1.53819 0
M  V30 9357 C 916.081 3.39986 -1.18666 0
M  V30 9358 C 915.934 3.58401 -2.71788 0
M  V30 9359 C 917.253 4.33316 -0.769772 0
M  V30 9360 H 914.372 0.686908 -0.267069 0
M  V30 9361 H 917.014 1.40205 -1.28229 0
M  V30 9362 H 915.164 3.81813 -0.717736 0
M  V30 9363 H 916.836 3.25727 -3.26649 0
M  V30 9364 H 915.079 3.01355 -3.12038 0
M  V30 9365 H 915.75 4.64189 -2.98719 0
M  V30 9366 H 918.226 3.9922 -1.17314 0
M  V30 9367 H 917.102 5.37427 -1.11637 0
M  V30 9368 H 917.363 4.40884 0.327681 0
M  V30 9369 N 916.422 0.810101 1.35185 0
M  V30 9370 C 917.352 0.237453 2.32289 0
M  V30 9371 C 918.333 -0.639032 1.5764 0
M  V30 9372 O 919.518 -0.568575 1.8569 0
M  V30 9373 C 916.648 -0.611964 3.41866 0
M  V30 9374 C 915.602 0.166318 4.27677 0
M  V30 9375 C 914.928 -0.805024 5.28605 0
M  V30 9376 C 916.228 1.36729 5.04086 0
M  V30 9377 H 917.922 1.04874 2.80432 0
M  V30 9378 H 915.468 0.505751 1.34826 0
M  V30 9379 H 917.421 -1.02267 4.08802 0
M  V30 9380 H 916.145 -1.45617 2.92341 0
M  V30 9381 H 914.804 0.558238 3.62325 0
M  V30 9382 H 914.452 -1.64483 4.75347 0
M  V30 9383 H 914.152 -0.288577 5.86891 0
M  V30 9384 H 915.676 -1.21386 5.98413 0
M  V30 9385 H 917.09 1.03128 5.63948 0
M  V30 9386 H 915.487 1.81848 5.71884 0
M  V30 9387 H 916.557 2.15214 4.34524 0
M  V30 9388 N 917.9 -1.47166 0.563914 0
M  V30 9389 C 919.148 -2.02056 0.0422873 0
M  V30 9390 C 919.469 -1.43992 -1.31497 0
M  V30 9391 O 918.739 -0.617578 -1.85911 0
M  V30 9392 H 917.319 -0.746893 0.0126427 0
M  V30 9393 H 919.981 -1.80492 0.735441 0
M  V30 9394 H 919.077 -3.12073 -0.0408044 0
M  V30 9395 N 919.378 -0.300708 -1.54705 0
M  V30 9396 C 920.341 0.562648 -2.22187 0
M  V30 9397 C 921.341 1.06152 -1.20782 0
M  V30 9398 O 922.531 0.957596 -1.45519 0
M  V30 9399 C 919.663 1.77899 -2.908 0
M  V30 9400 H 920.856 -0.0269361 -2.99888 0
M  V30 9401 H 918.409 -0.0515412 -1.56215 0
M  V30 9402 H 919.144 2.40841 -2.17177 0
M  V30 9403 H 918.929 1.42892 -3.65136 0
M  V30 9404 H 920.419 2.39236 -3.42281 0
M  V30 9405 N 920.856 1.57574 -0.0284266 0
M  V30 9406 C 921.804 2.11332 0.971675 0
M  V30 9407 C 922.798 1.03974 1.33738 0
M  V30 9408 O 924.004 1.22409 1.31969 0
M  V30 9409 H 920.379 0.675174 0.331125 0
M  V30 9410 H 922.35 2.943 0.49296 0
M  V30 9411 C 921.099 2.65496 2.24516 0
M  V30 9412 H 920.422 3.47753 1.9725 0
M  V30 9413 H 921.862 3.06757 2.92705 0
M  V30 9414 C 920.321 1.58207 2.97443 0
M  V30 9415 O 920.851 0.981496 3.89525 0
M  V30 9416 N 919.057 1.30269 2.59766 0
M  V30 9417 H 918.604 1.79294 1.84963 0
M  V30 9418 H 918.562 0.587085 3.0887 0
M  V30 9419 N 922.334 -0.244713 1.55689 0
M  V30 9420 C 923.58 -0.973886 1.77886 0
M  V30 9421 C 923.913 -1.8489 0.594071 0
M  V30 9422 O 923.188 -1.90182 -0.407564 0
M  V30 9423 C 923.471 -1.83255 3.09983 0
M  V30 9424 C 923.324 -0.985571 4.3887 0
M  V30 9425 C 924.643 -2.81464 3.38329 0
M  V30 9426 H 921.762 -0.352629 0.647165 0
M  V30 9427 H 924.404 -0.244243 1.88424 0
M  V30 9428 H 922.554 -2.45464 3.01131 0
M  V30 9429 H 924.226 -0.382005 4.59716 0
M  V30 9430 H 922.469 -0.29002 4.32829 0
M  V30 9431 H 923.14 -1.62022 5.27686 0
M  V30 9432 H 925.616 -2.2939 3.47159 0
M  V30 9433 H 924.492 -3.38663 4.31971 0
M  V30 9434 H 924.753 -3.58037 2.59349 0
M  V30 9435 N 923.813 -1.49104 -0.510467 0
M  V30 9436 C 925.061 -1.578 -1.26268 0
M  V30 9437 C 925.382 -0.262349 -1.93227 0
M  V30 9438 O 924.652 0.717624 -1.82283 0
M  V30 9439 H 923.232 -0.581387 -0.46904 0
M  V30 9440 H 925.894 -1.85678 -0.592423 0
M  V30 9441 H 924.99 -2.36919 -2.03165 0
M  V30 9442 N 925.291 0.760815 -1.38019 0
M  V30 9443 C 926.223 1.88387 -1.30549 0
M  V30 9444 C 927.236 1.61319 -0.219119 0
M  V30 9445 O 928.425 1.72033 -0.476122 0
M  V30 9446 C 925.525 3.23863 -0.998291 0
M  V30 9447 C 924.698 3.78492 -2.19232 0
M  V30 9448 C 923.757 4.92468 -1.85368 0
M  V30 9449 O 922.783 5.0748 -2.57785 0
M  V30 9450 N 923.985 5.74901 -0.804319 0
M  V30 9451 H 926.75 1.95308 -2.27322 0
M  V30 9452 H 924.311 0.940423 -1.31786 0
M  V30 9453 H 926.303 3.97644 -0.7524 0
M  V30 9454 H 924.873 3.12374 -0.11877 0
M  V30 9455 H 924.093 2.96361 -2.5993 0
M  V30 9456 H 925.381 4.11722 -2.98935 0
M  V30 9457 H 924.779 5.65333 -0.203628 0
M  V30 9458 H 923.336 6.48861 -0.618301 0
M  V30 9459 N 926.769 1.22769 0.988202 0
M  V30 9460 C 927.994 1.08239 1.76915 0
M  V30 9461 C 928.419 -0.362519 1.84574 0
M  V30 9462 O 927.777 -1.26202 1.30165 0
M  V30 9463 C 927.825 1.70363 3.17819 0
M  V30 9464 O 926.929 0.960484 4.01059 0
M  V30 9465 H 926.27 0.379872 0.544604 0
M  V30 9466 H 928.8 1.62663 1.24104 0
M  V30 9467 H 928.81 1.7528 3.6843 0
M  V30 9468 H 927.485 2.75505 3.1156 0
M  V30 9469 H 926.062 0.987667 3.59582 0
M  V30 9470 N 928.247 -1.18576 1.03814 0
M  V30 9471 C 929.663 -1.4051 0.756909 0
M  V30 9472 C 929.863 -1.9057 -0.654631 0
M  V30 9473 O 928.919 -2.0884 -1.41922 0
M  V30 9474 C 930.232 -2.4081 1.80087 0
M  V30 9475 C 931.78 -2.54541 1.82148 0
M  V30 9476 C 932.255 -3.58102 2.85529 0
M  V30 9477 N 933.746 -3.65607 2.84404 0
M  V30 9478 C 934.481 -4.45458 3.61047 0
M  V30 9479 N 933.977 -5.28937 4.47434 0
M  V30 9480 N 935.77 -4.40196 3.49548 0
M  V30 9481 H 927.921 -0.844075 1.94908 0
M  V30 9482 H 930.184 -0.433287 0.843188 0
M  V30 9483 H 929.89 -2.1107 2.81322 0
M  V30 9484 H 929.764 -3.4012 1.63089 0
M  V30 9485 H 932.151 -2.83598 0.815855 0
M  V30 9486 H 932.232 -1.55352 2.03223 0
M  V30 9487 H 931.876 -3.29786 3.86269 0
M  V30 9488 H 931.806 -4.56963 2.6171 0
M  V30 9489 H 934.297 -3.05994 2.21756 0
M  V30 9490 H 934.61 -5.8701 5.02632 0
M  V30 9491 H 932.955 -5.28366 4.51503 0
M  V30 9492 H 936.146 -3.74026 2.81464 0
M  V30 9493 H 936.319 -5.02186 4.09528 0
M  V30 9494 N 929.725 -0.817259 -1.34754 0
M  V30 9495 C 930.675 -0.207585 -2.27053 0
M  V30 9496 C 931.659 0.624836 -1.48272 0
M  V30 9497 O 932.851 0.480344 -1.70358 0
M  V30 9498 C 929.98 0.634281 -3.3739 0
M  V30 9499 C 929.066 -0.208456 -4.23587 0
M  V30 9500 N 929.457 -1.2767 -4.89422 0
M  V30 9501 C 927.755 0.00815096 -4.45999 0
M  V30 9502 C 928.456 -1.79209 -5.53407 0
M  V30 9503 N 927.432 -1.09686 -5.32419 0
M  V30 9504 H 931.234 -1.0248 -2.75454 0
M  V30 9505 H 928.748 -0.659492 -1.48406 0
M  V30 9506 H 930.745 1.08718 -4.02475 0
M  V30 9507 H 929.405 1.44972 -2.90539 0
M  V30 9508 H 930.416 -1.65945 -4.90594 0
M  V30 9509 H 927.093 0.791879 -4.09921 0
M  V30 9510 H 928.483 -2.68548 -6.15899 0
M  V30 9511 N 931.203 1.46865 -0.571711 0
M  V30 9512 C 932.451 2.0203 -0.0530022 0
M  V30 9513 C 932.772 1.44687 1.30731 0
M  V30 9514 O 932.042 0.627429 1.85581 0
M  V30 9515 H 930.622 0.746815 -0.0166035 0
M  V30 9516 H 933.284 1.80099 -0.745003 0
M  V30 9517 H 932.38 3.12091 0.0242538 0
M  V30 9518 N 932.681 0.308908 1.54543 0
M  V30 9519 C 933.927 -0.298478 2.00592 0
M  V30 9520 C 934.26 -1.52929 1.19692 0
M  V30 9521 O 933.535 -1.9254 0.27542 0
M  V30 9522 C 933.818 -0.647218 3.54236 0
M  V30 9523 C 933.671 0.593284 4.4587 0
M  V30 9524 C 934.99 -1.47064 4.14801 0
M  V30 9525 H 932.109 -0.107012 0.72919 0
M  V30 9526 H 934.751 0.422578 1.85241 0
M  V30 9527 H 932.901 -1.26153 3.67447 0
M  V30 9528 H 934.573 1.2317 4.44552 0
M  V30 9529 H 932.816 1.22501 4.16144 0
M  V30 9530 H 933.487 0.305018 5.51157 0
M  V30 9531 H 935.963 -0.951511 4.05075 0
M  V30 9532 H 934.839 -1.68343 5.22448 0
M  V30 9533 H 935.1 -2.4623 3.67183 0
M  V30 9534 N 934.159 -1.57557 0.0367827 0
M  V30 9535 C 935.406 -1.92114 -0.640185 0
M  V30 9536 C 935.734 -0.913887 -1.71693 0
M  V30 9537 O 934.989 0.0760343 -1.95552 0
M  V30 9538 C 935.288 -3.33387 -1.28794 0
M  V30 9539 C 934.954 -4.4961 -0.340819 0
M  V30 9540 C 933.616 -4.81133 -0.0801574 0
M  V30 9541 C 935.968 -5.20283 0.309106 0
M  V30 9542 C 933.296 -5.80683 0.838107 0
M  V30 9543 C 935.648 -6.20813 1.21547 0
M  V30 9544 C 934.312 -6.50773 1.48495 0
M  V30 9545 H 933.582 -0.702996 -0.23426 0
M  V30 9546 H 936.229 -1.91238 0.100188 0
M  V30 9547 H 934.534 -3.30561 -2.10324 0
M  V30 9548 H 936.231 -3.57399 -1.81843 0
M  V30 9549 H 932.821 -4.25002 -0.554161 0
M  V30 9550 H 937.005 -4.96153 0.120794 0
M  V30 9551 H 932.261 -6.02238 1.05451 0
M  V30 9552 H 936.435 -6.74692 1.72522 0
M  V30 9553 H 934.062 -7.27727 2.19814 0
M  V30 9554 N 935.637 0.236453 -1.55816 0
M  V30 9555 C 936.865 0.980295 -1.82203 0
M  V30 9556 C 937.28 1.7854 -0.613926 0
M  V30 9557 O 936.637 1.77661 0.417491 0
M  V30 9558 C 936.688 1.90982 -3.06933 0
M  V30 9559 O 936.409 1.13728 -4.23081 0
M  V30 9560 C 937.91 2.76879 -3.46198 0
M  V30 9561 H 935.13 0.28799 -0.606055 0
M  V30 9562 H 937.674 0.256182 -2.02889 0
M  V30 9563 H 935.829 2.58808 -2.88266 0
M  V30 9564 H 936.243 1.76694 -4.93842 0
M  V30 9565 H 937.717 3.37831 -4.36548 0
M  V30 9566 H 938.194 3.48522 -2.67262 0
M  V30 9567 H 938.8 2.1449 -3.67252 0
M  V30 9568 N 937.115 1.49373 0.502552 0
M  V30 9569 C 938.078 1.65413 1.58654 0
M  V30 9570 C 939.078 0.526003 1.51953 0
M  V30 9571 O 940.268 0.792421 1.55133 0
M  V30 9572 C 937.4 1.65005 2.98306 0
M  V30 9573 H 938.593 2.62095 1.45762 0
M  V30 9574 H 936.146 1.38381 0.726672 0
M  V30 9575 H 936.881 0.699014 3.16677 0
M  V30 9576 H 936.666 2.46931 3.04578 0
M  V30 9577 H 938.156 1.79477 3.77065 0
M  V30 9578 N 938.594 -0.753485 1.38421 0
M  V30 9579 C 940.01 -1.05656 1.1962 0
M  V30 9580 C 940.21 -2.0145 0.0449443 0
M  V30 9581 O 939.266 -2.45039 -0.609253 0
M  V30 9582 C 940.579 -1.63655 2.52265 0
M  V30 9583 C 942.127 -1.75825 2.58949 0
M  V30 9584 C 942.602 -2.37236 3.91769 0
M  V30 9585 N 944.093 -2.44666 3.9331 0
M  V30 9586 C 944.828 -2.93077 4.92842 0
M  V30 9587 N 944.324 -3.41523 6.02772 0
M  V30 9588 N 946.117 -2.92118 4.80232 0
M  V30 9589 H 938.268 -0.117799 2.12073 0
M  V30 9590 H 940.531 -0.114889 0.941012 0
M  V30 9591 H 940.237 -1.00734 3.36965 0
M  V30 9592 H 940.111 -2.62715 2.70667 0
M  V30 9593 H 942.498 -2.37873 1.74644 0
M  V30 9594 H 942.579 -0.754693 2.44414 0
M  V30 9595 H 942.223 -1.75822 4.76497 0
M  V30 9596 H 942.153 -3.38233 4.03616 0
M  V30 9597 H 944.644 -2.10403 3.1391 0
M  V30 9598 H 944.957 -3.76919 6.74649 0
M  V30 9599 H 943.302 -3.3958 6.06391 0
M  V30 9600 H 946.493 -2.53582 3.93464 0
M  V30 9601 H 946.666 -3.29535 5.57952 0
M  V30 9602 N 940.072 -1.23292 -0.981677 0
M  V30 9603 C 940.982 -1.02964 -2.10798 0
M  V30 9604 C 941.998 0.0254674 -1.73981 0
M  V30 9605 O 943.174 -0.169706 -2.00684 0
M  V30 9606 C 940.239 -0.621934 -3.41076 0
M  V30 9607 C 939.3 -1.75194 -3.91926 0
M  V30 9608 C 938.533 -1.36359 -5.15986 0
M  V30 9609 O 938.756 -0.247265 -5.69864 0
M  V30 9610 O 937.69 -2.18421 -5.60871 0
M  V30 9611 H 941.516 -1.97354 -2.30836 0
M  V30 9612 H 939.101 -1.01986 -1.09175 0
M  V30 9613 H 940.983 -0.405446 -4.19445 0
M  V30 9614 H 939.658 0.29299 -3.22371 0
M  V30 9615 H 938.565 -2.02305 -3.1468 0
M  V30 9616 H 939.898 -2.64513 -4.15083 0
M  V30 9617 N 941.55 1.18024 -1.04442 0
M  V30 9618 C 942.482 2.21294 -0.596799 0
M  V30 9619 C 943.495 1.59305 0.33552 0
M  V30 9620 O 944.684 1.7803 0.129443 0
M  V30 9621 C 941.784 3.38578 0.147648 0
M  V30 9622 C 940.957 4.30143 -0.793484 0
M  V30 9623 C 940.016 5.2612 -0.0916561 0
M  V30 9624 O 939.042 5.64586 -0.72331 0
M  V30 9625 N 940.244 5.68512 1.17364 0
M  V30 9626 H 943.009 2.6032 -1.48504 0
M  V30 9627 H 940.57 1.32847 -0.925374 0
M  V30 9628 H 942.562 3.99812 0.627098 0
M  V30 9629 H 941.132 2.98212 0.937466 0
M  V30 9630 H 940.352 3.66456 -1.45272 0
M  V30 9631 H 941.64 4.88216 -1.43258 0
M  V30 9632 H 941.038 5.39322 1.70729 0
M  V30 9633 H 939.595 6.31925 1.5973 0
M  V30 9634 N 943.028 0.824394 1.34319 0
M  V30 9635 C 943.991 0.252696 2.27803 0
M  V30 9636 C 944.991 -0.570254 1.50349 0
M  V30 9637 O 946.181 -0.386145 1.69866 0
M  V30 9638 C 943.313 -0.645575 3.34731 0
M  V30 9639 H 944.506 1.07742 2.79878 0
M  V30 9640 H 942.059 0.596367 1.44475 0
M  V30 9641 H 942.794 -1.4933 2.87873 0
M  V30 9642 H 942.579 -0.0569478 3.92059 0
M  V30 9643 H 944.069 -1.03933 4.0446 0
M  V30 9644 N 944.506 -1.46559 0.579492 0
M  V30 9645 C 945.436 -2.33059 -0.143437 0
M  V30 9646 C 946.417 -1.4515 -0.886868 0
M  V30 9647 O 947.602 -1.73973 -0.862961 0
M  V30 9648 C 944.732 -3.27364 -1.15973 0
M  V30 9649 C 943.686 -4.24689 -0.531348 0
M  V30 9650 C 943.012 -5.08479 -1.65388 0
M  V30 9651 C 944.312 -5.1961 0.529391 0
M  V30 9652 H 946.006 -2.93753 0.578762 0
M  V30 9653 H 943.552 -1.41256 0.279775 0
M  V30 9654 H 945.505 -3.86732 -1.67382 0
M  V30 9655 H 944.229 -2.64771 -1.91217 0
M  V30 9656 H 942.888 -3.6658 -0.0383749 0
M  V30 9657 H 942.536 -4.42273 -2.3959 0
M  V30 9658 H 942.236 -5.74387 -1.23909 0
M  V30 9659 H 943.76 -5.70709 -2.17079 0
M  V30 9660 H 945.174 -5.73212 0.100506 0
M  V30 9661 H 943.571 -5.93843 0.86432 0
M  V30 9662 H 944.641 -4.63737 1.4169 0
M  V30 9663 N 945.984 -0.3171 -1.54377 0
M  V30 9664 C 947.212 0.289558 -2.04864 0
M  V30 9665 C 947.627 1.46284 -1.19359 0
M  V30 9666 O 946.984 1.81135 -0.222795 0
M  V30 9667 C 947.035 0.730273 -3.54047 0
M  V30 9668 O 946.756 -0.396325 -4.36304 0
M  V30 9669 C 948.257 1.40041 -4.20599 0
M  V30 9670 H 945.477 0.0605836 -0.668259 0
M  V30 9671 H 948.021 -0.461411 -1.99227 0
M  V30 9672 H 946.176 1.43123 -3.59992 0
M  V30 9673 H 946.59 -0.0502901 -5.24476 0
M  V30 9674 H 948.064 1.65979 -5.26455 0
M  V30 9675 H 948.541 2.34565 -3.71316 0
M  V30 9676 H 949.147 0.742206 -4.18774 0
M  V30 9677 N 947.462 1.57535 -0.0451378 0
M  V30 9678 C 948.41 2.12351 0.949205 0
M  V30 9679 C 949.404 1.05386 1.32628 0
M  V30 9680 O 950.61 1.23802 1.30664 0
M  V30 9681 H 946.985 0.678648 0.323945 0
M  V30 9682 H 948.956 2.94806 0.461718 0
M  V30 9683 C 947.705 2.67862 2.21687 0
M  V30 9684 H 947.028 3.49826 1.93551 0
M  V30 9685 H 948.468 3.09844 2.89435 0
M  V30 9686 C 946.927 1.61353 2.95748 0
M  V30 9687 O 947.457 1.02276 3.88462 0
M  V30 9688 N 945.663 1.33017 2.5837 0
M  V30 9689 H 945.21 1.81246 1.83051 0
M  V30 9690 H 945.168 0.619812 3.0823 0
M  V30 9691 N 948.94 -0.228186 1.55939 0
M  V30 9692 C 950.217 -0.977492 1.69424 0
M  V30 9693 C 950.597 -2.02674 0.590479 0
M  V30 9694 O 949.945 -2.2491 -0.403467 0
M  V30 9695 C 950.155 -1.59394 3.10475 0
M  V30 9696 C 951.503 -2.08871 3.69673 0
M  V30 9697 O 952.527 -1.693 3.13394 0
M  V30 9698 O 951.386 -2.81584 4.68372 0
M  V30 9699 H 948.48 -0.456185 0.6898 0
M  V30 9700 H 951.026 -0.220492 1.68261 0
M  V30 9701 H 949.798 -0.835971 3.82266 0
M  V30 9702 H 949.421 -2.41665 3.15727 0
M  V30 9703 N 950.418 -1.49637 -0.494624 0
M  V30 9704 C 951.665 -1.59445 -1.24834 0
M  V30 9705 C 951.993 -0.284028 -1.92415 0
M  V30 9706 O 951.248 0.728519 -1.81634 0
M  V30 9707 C 951.547 -2.70749 -2.33302 0
M  V30 9708 C 951.213 -4.12034 -1.83135 0
M  V30 9709 C 949.875 -4.50482 -1.69173 0
M  V30 9710 C 952.227 -5.00432 -1.4566 0
M  V30 9711 C 949.555 -5.75093 -1.16124 0
M  V30 9712 C 951.907 -6.25568 -0.940608 0
M  V30 9713 C 950.571 -6.62839 -0.787432 0
M  V30 9714 H 949.841 -0.583451 -0.456799 0
M  V30 9715 H 952.488 -1.8349 -0.548044 0
M  V30 9716 H 950.793 -2.407 -3.09145 0
M  V30 9717 H 952.49 -2.75546 -2.91334 0
M  V30 9718 H 949.08 -3.8169 -1.94964 0
M  V30 9719 H 953.264 -4.71379 -1.55291 0
M  V30 9720 H 948.52 -6.02665 -1.02982 0
M  V30 9721 H 952.694 -6.93439 -0.641467 0
M  V30 9722 H 950.321 -7.59279 -0.374191 0
M  V30 9723 N 951.896 0.746133 -1.38819 0
M  V30 9724 C 953.143 1.50545 -1.35434 0
M  V30 9725 C 953.471 1.94427 0.0532669 0
M  V30 9726 O 952.726 1.66285 1.03188 0
M  V30 9727 C 953.025 2.76639 -2.26286 0
M  V30 9728 C 952.691 2.51682 -3.74122 0
M  V30 9729 C 951.353 2.44584 -4.14406 0
M  V30 9730 C 953.705 2.30071 -4.67672 0
M  V30 9731 C 951.033 2.13902 -5.46318 0
M  V30 9732 C 953.385 2.00907 -5.99849 0
M  V30 9733 C 952.049 1.92271 -6.39209 0
M  V30 9734 H 951.319 0.550883 -0.49559 0
M  V30 9735 H 953.966 0.857337 -1.71237 0
M  V30 9736 H 952.271 3.46138 -1.83564 0
M  V30 9737 H 953.968 3.34626 -2.20967 0
M  V30 9738 H 950.558 2.5808 -3.42188 0
M  V30 9739 H 954.742 2.34528 -4.3739 0
M  V30 9740 H 949.998 2.0573 -5.75748 0
M  V30 9741 H 954.172 1.83191 -6.71874 0
M  V30 9742 H 951.799 1.68261 -7.41345 0
M  V30 9743 N 953.375 1.23811 0.975125 0
M  V30 9744 C 954.621 1.07495 1.71967 0
M  V30 9745 C 954.954 -0.386451 1.90316 0
M  V30 9746 O 954.229 -1.28591 1.45927 0
M  V30 9747 C 954.512 1.80694 3.11483 0
M  V30 9748 C 954.365 3.3454 3.00671 0
M  V30 9749 C 955.684 1.57367 4.11003 0
M  V30 9750 H 952.803 0.3919 0.624166 0
M  V30 9751 H 955.445 1.52383 1.13487 0
M  V30 9752 H 953.595 1.42538 3.61407 0
M  V30 9753 H 955.267 3.8225 2.5823 0
M  V30 9754 H 953.51 3.63301 2.37054 0
M  V30 9755 H 954.181 3.80951 3.99475 0
M  V30 9756 H 956.657 1.90545 3.69908 0
M  V30 9757 H 955.533 2.11052 5.06703 0
M  V30 9758 H 955.794 0.510221 4.39146 0
M  V30 9759 N 954.853 -1.17469 1.05066 0
M  V30 9760 C 955.801 -2.23495 0.644418 0
M  V30 9761 C 956.795 -1.66081 -0.333685 0
M  V30 9762 O 958.001 -1.78887 -0.199886 0
M  V30 9763 H 954.376 -0.727546 0.190214 0
M  V30 9764 H 956.347 -2.55058 1.5488 0
M  V30 9765 C 955.096 -3.47684 0.0338051 0
M  V30 9766 H 954.419 -3.92167 0.777513 0
M  V30 9767 H 955.859 -4.23464 -0.213086 0
M  V30 9768 C 954.318 -3.14067 -1.21915 0
M  V30 9769 O 954.848 -3.28728 -2.3087 0
M  V30 9770 N 953.054 -2.68304 -1.11631 0
M  V30 9771 H 952.601 -2.56574 -0.229673 0
M  V30 9772 H 952.559 -2.46184 -1.95553 0
M  V30 9773 N 956.331 -0.831506 -1.3388 0
M  V30 9774 C 957.261 -0.274378 -2.31882 0
M  V30 9775 C 958.242 0.613872 -1.58637 0
M  V30 9776 O 959.427 0.538961 -1.86571 0
M  V30 9777 C 956.557 0.557498 -3.42796 0
M  V30 9778 C 955.511 -0.234337 -4.27358 0
M  V30 9779 C 954.837 0.720825 -5.29819 0
M  V30 9780 C 956.137 -1.44732 -5.01847 0
M  V30 9781 H 957.831 -1.09322 -2.78728 0
M  V30 9782 H 955.377 -0.527136 -1.34005 0
M  V30 9783 H 957.33 0.957501 -4.10378 0
M  V30 9784 H 956.054 1.40947 -2.94621 0
M  V30 9785 H 954.713 -0.61581 -3.61391 0
M  V30 9786 H 954.361 1.569 -4.77903 0
M  V30 9787 H 954.061 0.195171 -5.87276 0
M  V30 9788 H 955.585 1.1185 -6.00268 0
M  V30 9789 H 956.999 -1.12087 -5.62236 0
M  V30 9790 H 955.396 -1.90923 -5.68919 0
M  V30 9791 H 956.466 -2.22099 -4.31045 0
M  V30 9792 N 957.809 1.4625 -0.587256 0
M  V30 9793 C 958.739 2.33132 0.131076 0
M  V30 9794 C 959.72 1.45619 0.879158 0
M  V30 9795 O 960.905 1.74428 0.853723 0
M  V30 9796 C 958.035 3.27975 1.14236 0
M  V30 9797 C 956.989 4.24965 0.508819 0
M  V30 9798 C 956.315 5.09349 1.62689 0
M  V30 9799 C 957.615 5.19322 -0.55694 0
M  V30 9800 H 959.309 2.93442 -0.594333 0
M  V30 9801 H 956.855 1.41106 -0.287263 0
M  V30 9802 H 958.808 3.87614 1.65328 0
M  V30 9803 H 957.532 2.65781 1.8981 0
M  V30 9804 H 956.191 3.66595 0.0189337 0
M  V30 9805 H 955.839 4.43537 2.37242 0
M  V30 9806 H 955.539 5.75036 1.20861 0
M  V30 9807 H 957.063 5.71852 2.14049 0
M  V30 9808 H 958.477 5.73151 -0.130903 0
M  V30 9809 H 956.874 5.93376 -0.895801 0
M  V30 9810 H 957.944 4.62979 -1.44148 0
M  V30 9811 N 959.287 0.325282 1.54207 0
M  V30 9812 C 960.564 -0.33113 1.92777 0
M  V30 9813 C 960.944 -1.69739 1.25506 0
M  V30 9814 O 960.292 -2.24983 0.399385 0
M  V30 9815 C 960.502 -0.421636 3.46444 0
M  V30 9816 C 961.85 -0.681111 4.19101 0
M  V30 9817 O 962.874 -0.504488 3.52609 0
M  V30 9818 O 961.733 -1.02196 5.3686 0
M  V30 9819 H 958.827 -0.18943 0.805013 0
M  V30 9820 H 961.373 0.375123 1.65502 0
M  V30 9821 H 960.145 0.537862 3.87586 0
M  V30 9822 H 959.768 -1.1754 3.79829 0
M  V30 9823 N 960.765 -1.57509 0.0534917 0
M  V30 9824 C 961.698 -2.0723 -0.955554 0
M  V30 9825 C 962.676 -0.973313 -1.30251 0
M  V30 9826 O 963.86 -1.24541 -1.41498 0
M  V30 9827 C 960.987 -2.51473 -2.2689 0
M  V30 9828 C 960.033 -3.7263 -2.07482 0
M  V30 9829 S 960.866 -5.18177 -1.35104 0
M  V30 9830 C 962.022 -5.65736 -2.67757 0
M  V30 9831 H 962.255 -2.92494 -0.532407 0
M  V30 9832 H 959.788 -1.53581 -0.158831 0
M  V30 9833 H 961.746 -2.77626 -3.02381 0
M  V30 9834 H 960.407 -1.66511 -2.66332 0
M  V30 9835 H 959.6 -4.01515 -3.04633 0
M  V30 9836 H 959.202 -3.46756 -1.4013 0
M  V30 9837 H 961.494 -5.71463 -3.63918 0
M  V30 9838 H 962.437 -6.64914 -2.43506 0
M  V30 9839 H 962.845 -4.93475 -2.74123 0
M  V30 9840 N 962.243 0.219913 -1.56058 0
M  V30 9841 C 963.491 0.942199 -1.78793 0
M  V30 9842 C 963.812 1.84804 -0.622284 0
M  V30 9843 O 963.082 1.9255 0.360735 0
M  V30 9844 H 961.662 0.350895 -0.659455 0
M  V30 9845 H 964.324 0.231376 -1.93522 0
M  V30 9846 H 963.42 1.54804 -2.71002 0
M  V30 9847 N 963.721 1.49897 0.486681 0
M  V30 9848 C 964.949 1.63837 1.26353 0
M  V30 9849 C 965.364 0.315428 1.86146 0
M  V30 9850 O 964.721 -0.700831 1.68507 0
M  V30 9851 C 964.772 2.71792 2.38351 0
M  V30 9852 O 964.493 3.98956 1.81013 0
M  V30 9853 C 965.994 2.96566 3.2949 0
M  V30 9854 H 963.214 0.551158 0.382709 0
M  V30 9855 H 965.758 1.96023 0.582694 0
M  V30 9856 H 963.913 2.42344 3.02238 0
M  V30 9857 H 964.327 4.58536 2.54647 0
M  V30 9858 H 965.801 3.75803 4.04322 0
M  V30 9859 H 966.278 2.07031 3.87343 0
M  V30 9860 H 966.884 3.27485 2.71355 0
M  V30 9861 N 965.199 -0.738761 1.39212 0
M  V30 9862 C 966.109 -1.88324 1.39897 0
M  V30 9863 C 967.125 -1.71494 0.294229 0
M  V30 9864 O 968.301 -1.94162 0.535087 0
M  V30 9865 C 965.366 -3.23871 1.23726 0
M  V30 9866 C 964.427 -3.53121 2.44139 0
M  V30 9867 C 963.66 -4.82202 2.2873 0
M  V30 9868 O 963.883 -5.55649 1.28879 0
M  V30 9869 O 962.817 -5.11265 3.17634 0
M  V30 9870 H 966.643 -1.90701 2.36362 0
M  V30 9871 H 964.228 -0.886067 1.20288 0
M  V30 9872 H 966.11 -4.04882 1.16826 0
M  V30 9873 H 964.785 -3.22274 0.303551 0
M  V30 9874 H 963.692 -2.72212 2.56615 0
M  V30 9875 H 965.025 -3.59495 3.36191 0
M  V30 9876 N 966.677 -1.24326 -0.968545 0
M  V30 9877 C 967.923 -1.09413 -1.71465 0
M  V30 9878 C 968.278 0.363422 -1.88937 0
M  V30 9879 O 967.571 1.26486 -1.43916 0
M  V30 9880 C 967.765 -1.76644 -3.10695 0
M  V30 9881 C 967.594 -3.28787 -3.06805 0
M  V30 9882 C 966.364 -3.97995 -3.11333 0
M  V30 9883 C 968.562 -4.25389 -2.89047 0
M  V30 9884 N 966.544 -5.37024 -2.97453 0
M  V30 9885 C 967.915 -5.51411 -2.83454 0
M  V30 9886 C 969.97 -4.15976 -2.73621 0
M  V30 9887 C 968.673 -6.69096 -2.64013 0
M  V30 9888 C 970.699 -5.33338 -2.55547 0
M  V30 9889 C 970.061 -6.58291 -2.50663 0
M  V30 9890 H 966.16 -0.454986 -0.636012 0
M  V30 9891 H 968.744 -1.57228 -1.14837 0
M  V30 9892 H 966.915 -1.31344 -3.65518 0
M  V30 9893 H 968.647 -1.54599 -3.74007 0
M  V30 9894 H 965.402 -3.49155 -3.19981 0
M  V30 9895 H 965.826 -6.09948 -2.93756 0
M  V30 9896 H 970.468 -3.20131 -2.76181 0
M  V30 9897 H 968.186 -7.65064 -2.60197 0
M  V30 9898 H 971.772 -5.27904 -2.44557 0
M  V30 9899 H 970.652 -7.47575 -2.36856 0
M  V30 9900 N 968.156 1.1691 -1.05688 0
M  V30 9901 C 969.103 2.21095 -0.662246 0
M  V30 9902 C 970.073 1.62623 0.338083 0
M  V30 9903 O 971.258 1.89428 0.228362 0
M  V30 9904 C 968.398 3.45066 -0.0484018 0
M  V30 9905 C 967.511 4.17809 -1.09817 0
M  V30 9906 C 966.646 5.29281 -0.451114 0
M  V30 9907 C 965.685 5.93817 -1.48484 0
M  V30 9908 N 964.822 6.96793 -0.861588 0
M  V30 9909 H 969.662 2.54204 -1.55513 0
M  V30 9910 H 967.199 1.24863 -0.777665 0
M  V30 9911 H 969.157 4.15932 0.324978 0
M  V30 9912 H 967.787 3.12526 0.807918 0
M  V30 9913 H 966.839 3.45608 -1.58932 0
M  V30 9914 H 968.151 4.61907 -1.88265 0
M  V30 9915 H 967.305 6.06695 -0.0244251 0
M  V30 9916 H 966.044 4.8633 0.365306 0
M  V30 9917 H 965.049 5.1513 -1.92149 0
M  V30 9918 H 966.274 6.38848 -2.30325 0
M  V30 9919 H 964.22 6.55967 -0.0657688 0
M  V30 9920 H 964.137 7.39229 -1.58354 0
M  V30 9921 H 965.405 7.78142 -0.45984 0
M  V30 9922 N 969.634 0.838594 1.33437 0
M  V30 9923 C 971.045 0.490934 1.8013 0
M  V30 9924 C 971.396 -0.990024 1.6939 0
M  V30 9925 O 970.521 -1.77139 1.24302 0
M  V30 9926 C 971.116 0.884347 3.27055 0
M  V30 9927 C 969.675 0.588829 3.71766 0
M  V30 9928 C 968.822 1.09282 2.54858 0
M  V30 9929 H 971.773 1.02732 1.20962 0
M  V30 9930 H 971.794 0.194283 3.80004 0
M  V30 9931 H 971.306 1.96225 3.34839 0
M  V30 9932 H 969.407 -0.479018 3.69508 0
M  V30 9933 H 969.52 1.14387 4.65245 0
M  V30 9934 H 967.884 0.513702 2.49466 0
M  V30 9935 H 968.667 2.1775 2.65405 0
M  V30 9936 N 971.112 -1.45937 0.595003 0
M  V30 9937 C 972.34 -2.06698 0.091293 0
M  V30 9938 C 972.755 -1.44176 -1.21897 0
M  V30 9939 O 972.112 -0.551402 -1.73971 0
M  V30 9940 C 972.163 -3.61436 -0.0681801 0
M  V30 9941 O 971.884 -4.21622 1.19023 0
M  V30 9942 C 973.385 -4.39155 -0.604814 0
M  V30 9943 H 970.605 -0.668029 0.0630737 0
M  V30 9944 H 973.149 -1.87376 0.819165 0
M  V30 9945 H 971.304 -3.80143 -0.746324 0
M  V30 9946 H 971.718 -5.14647 1.01187 0
M  V30 9947 H 973.192 -5.47973 -0.665532 0
M  V30 9948 H 973.669 -4.08055 -1.62444 0
M  V30 9949 H 974.275 -4.25282 0.0388658 0
M  V30 9950 N 972.59 -0.333456 -1.54032 0
M  V30 9951 C 973.553 0.515392 -2.2333 0
M  V30 9952 C 974.553 1.03566 -1.23007 0
M  V30 9953 O 975.743 0.926514 -1.47517 0
M  V30 9954 C 972.875 1.7169 -2.94508 0
M  V30 9955 H 974.068 -0.0905407 -2.99763 0
M  V30 9956 H 971.621 -0.0846651 -1.56071 0
M  V30 9957 H 972.356 2.3618 -2.22237 0
M  V30 9958 H 972.141 1.35115 -3.68085 0
M  V30 9959 H 973.631 2.31922 -3.47278 0
M  V30 9960 N 974.068 1.57479 -0.061844 0
M  V30 9961 C 975.031 2.1104 0.894127 0
M  V30 9962 C 976.031 1.03227 1.23292 0
M  V30 9963 O 977.221 1.29256 1.16784 0
M  V30 9964 C 974.353 2.6035 2.20069 0
M  V30 9965 H 975.546 2.96807 0.429619 0
M  V30 9966 H 973.099 1.55181 0.18672 0
M  V30 9967 H 973.834 1.78008 2.71079 0
M  V30 9968 H 973.619 3.39146 1.9678 0
M  V30 9969 H 975.109 3.019 2.88525 0
M  V30 9970 N 975.546 -0.211634 1.56173 0
M  V30 9971 C 976.823 -0.959467 1.70451 0
M  V30 9972 C 977.203 -2.02036 0.611942 0
M  V30 9973 O 976.551 -2.25325 -0.37959 0
M  V30 9974 C 976.761 -1.56092 3.12148 0
M  V30 9975 C 978.109 -2.04939 3.71867 0
M  V30 9976 O 979.133 -1.65966 3.15172 0
M  V30 9977 O 977.992 -2.766 4.71333 0
M  V30 9978 H 975.086 -0.448844 0.6946 0
M  V30 9979 H 977.632 -0.202633 1.68486 0
M  V30 9980 H 976.404 -0.79538 3.83131 0
M  V30 9981 H 976.027 -2.38303 3.18273 0
M  V30 9982 N 977.024 -1.50153 -0.478725 0
M  V30 9983 C 977.987 -1.67916 -1.56003 0
M  V30 9984 C 978.987 -0.550111 -1.51097 0
M  V30 9985 O 980.177 -0.817001 -1.53853 0
M  V30 9986 C 977.309 -1.6973 -2.95643 0
M  V30 9987 H 978.502 -2.6438 -1.41573 0
M  V30 9988 H 976.055 -1.39519 -0.704565 0
M  V30 9989 H 976.79 -0.749306 -3.15525 0
M  V30 9990 H 976.575 -2.51745 -3.00611 0
M  V30 9991 H 978.065 -1.85453 -3.74162 0
M  V30 9992 N 978.502 0.731368 -1.39602 0
M  V30 9993 C 979.779 1.48308 -1.27531 0
M  V30 9994 C 980.159 2.10795 0.113482 0
M  V30 9995 O 979.507 1.98886 1.12501 0
M  V30 9996 C 979.717 2.53156 -2.40235 0
M  V30 9997 C 981.065 3.19436 -2.79725 0
M  V30 9998 O 982.089 2.6347 -2.39712 0
M  V30 9999 O 980.948 4.20714 -3.48801 0
M  V30 10000 H 978.042 0.658753 -0.499973 0
M  V30 10001 H 980.588 0.764884 -1.51485 0
M  V30 10002 H 979.36 2.05387 -3.33064 0
M  V30 10003 H 978.983 3.3253 -2.17966 0
M  V30 10004 N 979.98 1.24838 0.961938 0
M  V30 10005 C 981.226 1.09313 1.70817 0
M  V30 10006 C 981.559 -0.366244 1.90715 0
M  V30 10007 O 980.834 -1.27036 1.47282 0
M  V30 10008 C 981.117 1.83988 3.09549 0
M  V30 10009 C 980.97 3.3771 2.97106 0
M  V30 10010 C 982.289 1.61718 4.09311 0
M  V30 10011 H 979.408 0.398498 0.619974 0
M  V30 10012 H 982.05 1.53579 1.11864 0
M  V30 10013 H 980.2 1.46363 3.59875 0
M  V30 10014 H 981.872 3.84967 2.54161 0
M  V30 10015 H 980.115 3.65795 2.33187 0
M  V30 10016 H 980.786 3.85166 3.95412 0
M  V30 10017 H 983.262 1.94458 3.67866 0
M  V30 10018 H 982.138 2.16415 5.04436 0
M  V30 10019 H 982.399 0.55677 4.3858 0
M  V30 10020 N 981.458 -1.16348 1.06306 0
M  V30 10021 C 982.705 -1.86881 0.779852 0
M  V30 10022 C 983.033 -1.8171 -0.693668 0
M  V30 10023 O 982.288 -1.22769 -1.52401 0
M  V30 10024 C 982.587 -3.35936 1.21991 0
M  V30 10025 C 982.253 -3.61307 2.69756 0
M  V30 10026 C 980.915 -3.6794 3.10119 0
M  V30 10027 C 983.267 -3.71871 3.65187 0
M  V30 10028 C 980.595 -3.82639 4.44752 0
M  V30 10029 C 982.947 -3.88091 4.99568 0
M  V30 10030 C 981.611 -3.92967 5.39568 0
M  V30 10031 H 980.881 -0.683847 0.285368 0
M  V30 10032 H 983.528 -1.37569 1.33218 0
M  V30 10033 H 981.833 -3.87381 0.586774 0
M  V30 10034 H 983.53 -3.88895 0.977821 0
M  V30 10035 H 980.12 -3.56777 2.37504 0
M  V30 10036 H 984.304 -3.66057 3.35136 0
M  V30 10037 H 979.56 -3.84666 4.75228 0
M  V30 10038 H 983.734 -3.95207 5.73397 0
M  V30 10039 H 981.361 -4.04109 6.43895 0
M  V30 10040 N 982.937 -0.845659 -1.3299 0
M  V30 10041 C 983.847 -0.2864 -2.32845 0
M  V30 10042 C 984.863 0.591105 -1.63652 0
M  V30 10043 O 986.039 0.493615 -1.95257 0
M  V30 10044 C 983.104 0.523636 -3.42723 0
M  V30 10045 C 982.165 -0.378945 -4.27624 0
M  V30 10046 C 981.398 0.392526 -5.32255 0
M  V30 10047 O 981.621 1.6235 -5.46808 0
M  V30 10048 O 980.555 -0.237 -6.01433 0
M  V30 10049 H 984.381 -1.11346 -2.82552 0
M  V30 10050 H 981.966 -0.608356 -1.36453 0
M  V30 10051 H 983.848 0.983718 -4.09757 0
M  V30 10052 H 982.523 1.32764 -2.95221 0
M  V30 10053 H 981.43 -0.887012 -3.63432 0
M  V30 10054 H 982.763 -1.1479 -4.78627 0
M  V30 10055 N 984.415 1.45619 -0.602734 0
M  V30 10056 C 985.663 2.01873 -0.095844 0
M  V30 10057 C 985.984 1.47427 1.27633 0
M  V30 10058 O 985.254 0.666652 1.84208 0
M  V30 10059 H 983.834 0.746295 -0.0324408 0
M  V30 10060 H 986.496 1.78478 -0.783037 0
M  V30 10061 H 985.592 3.12072 -0.0419507 0
M  V30 10062 N 985.893 0.34162 1.53853 0
M  V30 10063 C 987.309 -0.0103769 1.59597 0
M  V30 10064 C 987.509 -1.48897 1.35764 0
M  V30 10065 O 986.565 -2.24743 1.15095 0
M  V30 10066 C 987.878 0.424067 2.97695 0
M  V30 10067 C 989.426 0.376247 3.1073 0
M  V30 10068 C 989.901 0.786129 4.51203 0
M  V30 10069 N 991.392 0.74024 4.57247 0
M  V30 10070 C 992.127 1.02937 5.64085 0
M  V30 10071 N 991.623 1.38655 6.78783 0
M  V30 10072 N 993.416 0.953734 5.5395 0
M  V30 10073 H 985.567 1.30477 1.67599 0
M  V30 10074 H 987.83 0.531753 0.78482 0
M  V30 10075 H 987.536 1.45493 3.20195 0
M  V30 10076 H 987.41 -0.201713 3.7666 0
M  V30 10077 H 989.797 -0.645441 2.87955 0
M  V30 10078 H 989.878 1.0372 2.33828 0
M  V30 10079 H 989.522 1.80582 4.74713 0
M  V30 10080 H 989.452 0.102671 5.265 0
M  V30 10081 H 991.943 0.476763 3.7488 0
M  V30 10082 H 992.256 1.59206 7.56223 0
M  V30 10083 H 990.601 1.42498 6.80235 0
M  V30 10084 H 993.792 0.674044 4.63222 0
M  V30 10085 H 993.965 1.18241 6.37121 0
M  V30 10086 N 987.371 -1.57444 0.0701946 0
M  V30 10087 C 988.648 -1.84826 -0.6402 0
M  V30 10088 C 989.028 -0.962344 -1.87889 0
M  V30 10089 O 988.376 -0.0282209 -2.28483 0
M  V30 10090 C 988.586 -3.34976 -0.979382 0
M  V30 10091 C 989.934 -4.02448 -1.35355 0
M  V30 10092 O 990.958 -3.39713 -1.07116 0
M  V30 10093 O 989.817 -5.13096 -1.88136 0
M  V30 10094 H 986.911 -0.763494 -0.317813 0
M  V30 10095 H 989.457 -1.69399 0.101004 0
M  V30 10096 H 988.229 -3.91173 -0.0995576 0
M  V30 10097 H 987.852 -3.5566 -1.7774 0
M  V30 10098 N 988.849 0.203349 -1.56283 0
M  V30 10099 C 990.265 0.55384 -1.49682 0
M  V30 10100 C 990.465 1.86261 -0.768701 0
M  V30 10101 O 989.521 2.50517 -0.315824 0
M  V30 10102 C 990.834 0.616216 -2.94318 0
M  V30 10103 C 992.382 0.705611 -3.04943 0
M  V30 10104 C 992.857 0.79917 -4.50974 0
M  V30 10105 N 994.348 0.862916 -4.55091 0
M  V30 10106 C 995.083 0.955334 -5.65386 0
M  V30 10107 N 994.579 1.01057 -6.8539 0
M  V30 10108 N 996.372 0.991884 -5.53279 0
M  V30 10109 H 988.523 -0.655244 -2.0204 0
M  V30 10110 H 990.786 -0.232344 -0.919087 0
M  V30 10111 H 990.492 -0.27619 -3.50614 0
M  V30 10112 H 990.366 1.47371 -3.4722 0
M  V30 10113 H 992.753 1.58845 -2.48701 0
M  V30 10114 H 992.834 -0.177921 -2.5518 0
M  V30 10115 H 992.478 -0.0792841 -5.07838 0
M  V30 10116 H 992.408 1.69838 -4.9846 0
M  V30 10117 H 994.899 0.829812 -3.68677 0
M  V30 10118 H 995.212 1.08137 -7.65197 0
M  V30 10119 H 993.557 0.979384 -6.88065 0
M  V30 10120 H 996.748 0.945514 -4.58451 0
M  V30 10121 H 996.921 1.06045 -6.39264 0
M  V30 10122 N 990.327 1.50405 0.470755 0
M  V30 10123 C 991.29 1.68741 1.5511 0
M  V30 10124 C 992.29 0.558116 1.50804 0
M  V30 10125 O 993.48 0.825149 1.53418 0
M  V30 10126 C 990.612 1.71295 2.94739 0
M  V30 10127 H 991.805 2.65127 1.40169 0
M  V30 10128 H 989.358 1.39891 0.697156 0
M  V30 10129 H 990.093 0.766029 3.15123 0
M  V30 10130 H 989.878 2.53336 2.99271 0
M  V30 10131 H 991.368 1.87434 3.73173 0
M  V30 10132 N 991.805 -0.723954 1.39988 0
M  V30 10133 C 993.033 -1.51313 1.4111 0
M  V30 10134 C 993.448 -1.88798 0.00853333 0
M  V30 10135 O 992.805 -1.54868 -0.965516 0
M  V30 10136 C 992.856 -2.79375 2.29416 0
M  V30 10137 O 992.577 -2.43478 3.64211 0
M  V30 10138 C 994.078 -3.7333 2.3904 0
M  V30 10139 H 991.298 -0.46724 0.481589 0
M  V30 10140 H 993.842 -0.893694 1.83938 0
M  V30 10141 H 991.997 -3.37624 1.89971 0
M  V30 10142 H 992.411 -3.25821 4.11024 0
M  V30 10143 H 993.885 -4.60051 3.05053 0
M  V30 10144 H 994.362 -4.15854 1.41289 0
M  V30 10145 H 994.968 -3.20996 2.79001 0
M  V30 10146 N 993.283 -1.25346 -0.955304 0
M  V30 10147 C 994.531 -1.09837 -1.69647 0
M  V30 10148 C 994.852 0.361425 -1.91621 0
M  V30 10149 O 994.122 1.25666 -1.50283 0
M  V30 10150 H 992.702 -0.403467 -0.628668 0
M  V30 10151 H 995.364 -1.57459 -1.14859 0
M  V30 10152 H 994.46 -1.60616 -2.67598 0
M  V30 10153 N 994.761 1.15782 -1.06922 0
M  V30 10154 C 995.671 2.24008 -0.696948 0
M  V30 10155 C 996.687 1.71569 0.289862 0
M  V30 10156 O 997.863 2.00929 0.137585 0
M  V30 10157 C 994.928 3.46568 -0.0957895 0
M  V30 10158 C 993.989 4.14017 -1.13528 0
M  V30 10159 C 993.222 5.30725 -0.562713 0
M  V30 10160 O 993.445 5.66992 0.62259 0
M  V30 10161 O 992.379 5.87572 -1.30549 0
M  V30 10162 H 996.205 2.58174 -1.59938 0
M  V30 10163 H 993.79 1.2342 -0.841889 0
M  V30 10164 H 995.672 4.20731 0.237407 0
M  V30 10165 H 994.347 3.14161 0.780027 0
M  V30 10166 H 993.254 3.41795 -1.52076 0
M  V30 10167 H 994.587 4.50493 -1.98285 0
M  V30 10168 N 996.239 0.8527 1.3254 0
M  V30 10169 C 997.169 0.311234 2.31416 0
M  V30 10170 C 998.15 -0.588557 1.59593 0
M  V30 10171 O 999.335 -0.509211 1.87405 0
M  V30 10172 C 996.465 -0.502892 3.4364 0
M  V30 10173 C 995.419 0.302296 4.26931 0
M  V30 10174 C 994.745 -0.636445 5.30899 0
M  V30 10175 C 996.045 1.52697 4.99481 0
M  V30 10176 H 997.739 1.13742 2.76953 0
M  V30 10177 H 995.285 0.548389 1.33149 0
M  V30 10178 H 997.238 -0.892092 4.11849 0
M  V30 10179 H 995.962 -1.36242 2.96826 0
M  V30 10180 H 994.621 0.673226 3.60365 0
M  V30 10181 H 994.269 -1.49277 4.80339 0
M  V30 10182 H 993.969 -0.101716 5.87512 0
M  V30 10183 H 995.493 -1.02286 6.01972 0
M  V30 10184 H 996.907 1.21017 5.60382 0
M  V30 10185 H 995.304 1.9995 5.65809 0
M  V30 10186 H 996.374 2.28929 4.27457 0
M  V30 10187 N 997.718 -1.45297 0.610449 0
M  V30 10188 C 998.665 -2.30553 -0.106718 0
M  V30 10189 C 999.635 -1.42272 -0.85719 0
M  V30 10190 O 1000.82 -1.71199 -0.842357 0
M  V30 10191 C 997.96 -3.27226 -1.09623 0
M  V30 10192 C 997.073 -4.3061 -0.346329 0
M  V30 10193 C 996.208 -5.14389 -1.32581 0
M  V30 10194 C 995.247 -6.09497 -0.563892 0
M  V30 10195 N 994.384 -6.86047 -1.4928 0
M  V30 10196 H 999.224 -2.91344 0.626296 0
M  V30 10197 H 996.761 -1.43563 0.32065 0
M  V30 10198 H 998.719 -3.81744 -1.68308 0
M  V30 10199 H 997.349 -2.68182 -1.79662 0
M  V30 10200 H 996.401 -3.7873 0.356084 0
M  V30 10201 H 997.713 -4.98183 0.248026 0
M  V30 10202 H 996.867 -5.73321 -1.98464 0
M  V30 10203 H 995.606 -4.4684 -1.9541 0
M  V30 10204 H 994.611 -5.49693 0.108551 0
M  V30 10205 H 995.836 -6.79074 0.0593872 0
M  V30 10206 H 993.782 -6.21185 -2.10868 0
M  V30 10207 H 993.699 -7.49983 -0.951953 0
M  V30 10208 H 994.967 -7.49518 -2.14112 0
M  V30 10209 N 999.196 -0.349774 -1.5367 0
M  V30 10210 C 1000.44 0.237837 -2.02005 0
M  V30 10211 C 1000.8 1.477 -1.23298 0
M  V30 10212 O 1000.09 1.8901 -0.313947 0
M  V30 10213 C 1000.28 0.598311 -3.52356 0
M  V30 10214 C 1000.11 -0.604368 -4.4562 0
M  V30 10215 C 998.883 -1.1116 -4.92922 0
M  V30 10216 C 1001.08 -1.46474 -4.93001 0
M  V30 10217 N 999.063 -2.27595 -5.70152 0
M  V30 10218 C 1000.43 -2.47593 -5.68417 0
M  V30 10219 C 1002.49 -1.48947 -4.75099 0
M  V30 10220 C 1001.19 -3.51021 -6.27835 0
M  V30 10221 C 1003.22 -2.51259 -5.35372 0
M  V30 10222 C 1002.58 -3.51103 -6.1066 0
M  V30 10223 H 998.679 0.0501688 -0.780389 0
M  V30 10224 H 1001.26 -0.490748 -1.88414 0
M  V30 10225 H 999.434 1.29599 -3.6614 0
M  V30 10226 H 1001.17 1.16965 -3.87429 0
M  V30 10227 H 997.921 -0.678699 -4.68712 0
M  V30 10228 H 998.345 -2.864 -6.13436 0
M  V30 10229 H 1002.99 -0.731138 -4.1643 0
M  V30 10230 H 1000.7 -4.27745 -6.85609 0
M  V30 10231 H 1004.29 -2.54006 -5.23423 0
M  V30 10232 H 1003.17 -4.28974 -6.56469 0
M  V30 10233 N 1000.67 1.57404 -0.0785433 0
M  V30 10234 C 1001.9 1.98074 0.597862 0
M  V30 10235 C 1002.32 0.95714 1.6274 0
M  V30 10236 O 1001.67 -0.0553728 1.82416 0
M  V30 10237 C 1001.72 3.38815 1.26041 0
M  V30 10238 O 1001.45 4.37254 0.27207 0
M  V30 10239 C 1002.95 3.94397 2.024 0
M  V30 10240 H 1000.17 0.651263 0.161546 0
M  V30 10241 H 1002.71 2.03927 -0.152941 0
M  V30 10242 H 1000.87 3.34028 1.96225 0
M  V30 10243 H 1001.28 5.19136 0.74822 0
M  V30 10244 H 1002.75 4.95075 2.4414 0
M  V30 10245 H 1003.23 3.31308 2.88326 0
M  V30 10246 H 1003.84 4.02607 1.37068 0
M  V30 10247 N 1002.15 -0.195058 1.56388 0
M  V30 10248 C 1003.4 -0.913636 1.8027 0
M  V30 10249 C 1003.72 -1.83791 0.651606 0
M  V30 10250 O 1002.99 -1.931 -0.330057 0
M  V30 10251 H 1001.57 -0.34036 0.664954 0
M  V30 10252 H 1004.23 -0.200559 1.93865 0
M  V30 10253 H 1003.33 -1.50473 2.7343 0
M  V30 10254 N 1003.63 -1.50653 -0.462772 0
M  V30 10255 C 1004.86 -1.65826 -1.23731 0
M  V30 10256 C 1005.27 -0.345002 -1.85621 0
M  V30 10257 O 1004.63 0.673935 -1.69601 0
M  V30 10258 C 1004.68 -2.7555 -2.33997 0
M  V30 10259 O 1004.4 -4.01785 -1.74643 0
M  V30 10260 C 1005.9 -3.0177 -3.2473 0
M  V30 10261 H 1003.12 -0.557177 -0.373892 0
M  V30 10262 H 1005.67 -1.96925 -0.551434 0
M  V30 10263 H 1003.82 -2.47122 -2.98345 0
M  V30 10264 H 1004.24 -4.62529 -2.4732 0
M  V30 10265 H 1005.71 -3.82188 -3.98292 0
M  V30 10266 H 1006.19 -2.13167 -3.84001 0
M  V30 10267 H 1006.79 -3.31761 -2.66111 0
M  V30 10268 N 1005.11 0.71652 -1.4037 0
M  V30 10269 C 1006.52 1.02447 -1.22379 0
M  V30 10270 C 1006.72 2.0126 -0.0983394 0
M  V30 10271 O 1005.78 2.46569 0.544071 0
M  V30 10272 C 1007.09 1.56909 -2.56515 0
M  V30 10273 C 1008.64 1.68898 -2.6352 0
M  V30 10274 C 1009.12 2.26765 -3.97922 0
M  V30 10275 N 1010.61 2.34152 -3.99658 0
M  V30 10276 C 1011.34 2.79907 -5.00439 0
M  V30 10277 N 1010.84 3.25422 -6.11615 0
M  V30 10278 N 1012.63 2.79283 -4.87809 0
M  V30 10279 H 1004.78 0.0615306 -2.12311 0
M  V30 10280 H 1007.05 0.0898994 -0.943728 0
M  V30 10281 H 1006.75 0.917649 -3.39517 0
M  V30 10282 H 1006.63 2.55446 -2.77538 0
M  V30 10283 H 1009.01 2.33159 -1.8089 0
M  V30 10284 H 1009.09 0.689626 -2.46329 0
M  V30 10285 H 1008.74 1.63126 -4.80991 0
M  V30 10286 H 1008.67 3.27413 -4.12442 0
M  V30 10287 H 1011.16 2.02006 -3.19378 0
M  V30 10288 H 1011.47 3.58899 -6.84406 0
M  V30 10289 H 1009.82 3.23383 -6.15181 0
M  V30 10290 H 1013.01 2.43061 -4.00049 0
M  V30 10291 H 1013.18 3.14626 -5.66493 0
M  V30 10292 N 1006.59 1.25851 0.948643 0
M  V30 10293 C 1007.83 1.11119 1.69648 0
M  V30 10294 C 1008.17 -0.345995 1.91093 0
M  V30 10295 O 1007.44 -1.25467 1.48621 0
M  V30 10296 C 1007.72 1.87261 3.0758 0
M  V30 10297 C 1007.58 3.40842 2.93507 0
M  V30 10298 C 1008.9 1.6605 4.07573 0
M  V30 10299 H 1006.01 0.405052 0.615713 0
M  V30 10300 H 1008.66 1.54756 1.10229 0
M  V30 10301 H 1006.81 1.50172 3.58303 0
M  V30 10302 H 1008.48 3.87641 2.50064 0
M  V30 10303 H 1006.72 3.68248 2.29294 0
M  V30 10304 H 1007.39 3.89339 3.91305 0
M  V30 10305 H 1009.87 1.98348 3.65783 0
M  V30 10306 H 1008.74 2.21753 5.02113 0
M  V30 10307 H 1009.01 0.603256 4.37965 0
M  V30 10308 N 1008.06 -1.15214 1.07534 0
M  V30 10309 C 1009.34 -1.82155 0.71267 0
M  V30 10310 C 1009.72 -1.95163 -0.804655 0
M  V30 10311 O 1009.07 -1.50451 -1.71979 0
M  V30 10312 C 1009.28 -3.18392 1.42925 0
M  V30 10313 C 1010.63 -3.94005 1.58256 0
M  V30 10314 O 1011.65 -3.27952 1.39018 0
M  V30 10315 O 1010.51 -5.12436 1.89925 0
M  V30 10316 H 1007.6 -0.78709 0.253808 0
M  V30 10317 H 1010.15 -1.22309 1.17638 0
M  V30 10318 H 1008.92 -3.04034 2.46331 0
M  V30 10319 H 1008.55 -3.85925 0.956439 0
M  V30 10320 N 1009.54 -0.859717 -1.32086 0
M  V30 10321 C 1010.47 -0.323502 -2.31248 0
M  V30 10322 C 1011.45 0.580085 -1.59903 0
M  V30 10323 O 1012.64 0.499265 -1.87673 0
M  V30 10324 C 1009.77 0.484661 -3.43902 0
M  V30 10325 C 1008.72 -0.324933 -4.26765 0
M  V30 10326 C 1008.05 0.608281 -5.31229 0
M  V30 10327 C 1009.35 -1.55344 -4.98664 0
M  V30 10328 H 1011.04 -1.15209 -2.76346 0
M  V30 10329 H 1008.59 -0.555442 -1.32856 0
M  V30 10330 H 1010.54 0.870238 -4.12316 0
M  V30 10331 H 1009.27 1.34666 -2.97544 0
M  V30 10332 H 1007.92 -0.692328 -3.60003 0
M  V30 10333 H 1007.57 1.46727 -4.81124 0
M  V30 10334 H 1007.27 0.0705571 -5.87558 0
M  V30 10335 H 1008.8 0.990925 -6.02506 0
M  V30 10336 H 1010.21 -1.23987 -5.59732 0
M  V30 10337 H 1008.61 -2.02947 -5.64741 0
M  V30 10338 H 1009.68 -2.31192 -4.26237 0
M  V30 10339 N 1011.02 1.44971 -0.618145 0
M  V30 10340 C 1012.27 2.02458 -0.117656 0
M  V30 10341 C 1012.6 1.48413 1.25248 0
M  V30 10342 O 1011.87 0.662997 1.82851 0
M  V30 10343 C 1012.16 3.59987 -0.0901897 0
M  V30 10344 C 1012.01 4.24343 -1.49175 0
M  V30 10345 C 1013.33 4.36099 0.592121 0
M  V30 10346 H 1010.45 0.735672 -0.0442291 0
M  V30 10347 H 1013.09 1.727 -0.792138 0
M  V30 10348 H 1011.24 3.85471 0.484175 0
M  V30 10349 H 1012.91 4.10009 -2.114 0
M  V30 10350 H 1011.16 3.82337 -2.04941 0
M  V30 10351 H 1011.83 5.33298 -1.42468 0
M  V30 10352 H 1014.3 4.1597 0.103813 0
M  V30 10353 H 1013.18 5.45822 0.580481 0
M  V30 10354 H 1013.44 4.09746 1.66015 0
M  V30 10355 N 1012.5 0.357919 1.53482 0
M  V30 10356 C 1013.75 -0.234163 2.01142 0
M  V30 10357 C 1014.07 -1.49399 1.2454 0
M  V30 10358 O 1013.33 -1.92981 0.325111 0
M  V30 10359 C 1013.63 -0.579617 3.52669 0
M  V30 10360 C 1013.29 0.584988 4.47089 0
M  V30 10361 C 1011.96 0.904558 4.72622 0
M  V30 10362 C 1014.31 1.3656 5.02992 0
M  V30 10363 C 1011.64 2.00685 5.5131 0
M  V30 10364 C 1013.99 2.45824 5.82884 0
M  V30 10365 C 1012.65 2.78325 6.06706 0
M  V30 10366 H 1011.92 -0.0856863 0.736029 0
M  V30 10367 H 1014.57 0.488801 1.85157 0
M  V30 10368 H 1012.87 -1.38349 3.66561 0
M  V30 10369 H 1014.57 -1.04985 3.87013 0
M  V30 10370 H 1011.16 0.32587 4.27359 0
M  V30 10371 H 1015.34 1.13196 4.83219 0
M  V30 10372 H 1010.6 2.26272 5.67988 0
M  V30 10373 H 1014.77 3.06732 6.25211 0
M  V30 10374 H 1012.4 3.63862 6.67464 0
M  V30 10375 N 1013.98 -1.5736 0.0868897 0
M  V30 10376 C 1015.22 -1.9367 -0.577598 0
M  V30 10377 C 1015.55 -0.968844 -1.69229 0
M  V30 10378 O 1014.82 -0.0195061 -1.9589 0
M  V30 10379 H 1013.4 -0.714983 -0.216353 0
M  V30 10380 H 1016.06 -1.94335 0.148294 0
M  V30 10381 H 1015.15 -2.95877 -0.993128 0
M  V30 10382 N 1015.45 0.186762 -1.56489 0
M  V30 10383 C 1016.68 0.925916 -1.85584 0
M  V30 10384 C 1017.1 1.75708 -0.671446 0
M  V30 10385 O 1016.46 1.7728 0.379687 0
M  V30 10386 C 1016.51 1.79107 -3.12975 0
M  V30 10387 O 1015.61 2.89088 -2.94112 0
M  V30 10388 H 1014.96 0.260275 -0.610863 0
M  V30 10389 H 1017.49 0.189561 -2.0372 0
M  V30 10390 H 1017.5 2.19408 -3.43983 0
M  V30 10391 H 1016.17 1.18044 -3.98796 0
M  V30 10392 H 1014.75 2.52482 -2.74422 0
M  V30 10393 N 1016.93 1.50896 0.454776 0
M  V30 10394 C 1017.88 1.67333 1.54867 0
M  V30 10395 C 1018.87 0.527576 1.52005 0
M  V30 10396 O 1020.06 0.782726 1.58753 0
M  V30 10397 C 1017.19 1.7858 2.93196 0
M  V30 10398 C 1016.27 2.98884 3.0088 0
M  V30 10399 N 1016.66 4.22326 2.78343 0
M  V30 10400 C 1014.96 2.97779 3.32029 0
M  V30 10401 C 1015.66 5.03439 2.91418 0
M  V30 10402 N 1014.64 4.37725 3.22332 0
M  V30 10403 H 1018.44 2.60453 1.36167 0
M  V30 10404 H 1015.96 1.48304 0.661797 0
M  V30 10405 H 1017.95 1.88463 3.7187 0
M  V30 10406 H 1016.61 0.866296 3.1293 0
M  V30 10407 H 1017.62 4.51557 2.53607 0
M  V30 10408 H 1014.3 2.15393 3.57648 0
M  V30 10409 H 1015.69 6.11648 2.78095 0
M  V30 10410 N 1018.41 -0.709066 1.40748 0
M  V30 10411 C 1019.64 -1.50313 1.42901 0
M  V30 10412 C 1020.06 -1.88072 0.032213 0
M  V30 10413 O 1019.42 -1.53716 -0.96131 0
M  V30 10414 C 1019.47 -2.75074 2.33166 0
M  V30 10415 O 1018.57 -3.72036 1.7794 0
M  V30 10416 H 1017.91 -0.452934 0.485538 0
M  V30 10417 H 1020.44 -0.872712 1.85054 0
M  V30 10418 H 1020.45 -3.23532 2.48578 0
M  V30 10419 H 1019.13 -2.46927 3.34664 0
M  V30 10420 H 1017.7 -3.30911 1.71908 0
M  V30 10421 N 1019.89 -1.26353 -0.941956 0
M  V30 10422 C 1020.82 -1.03634 -2.04432 0
M  V30 10423 C 1021.83 0.00295864 -1.628 0
M  V30 10424 O 1023.02 -0.237029 -1.76919 0
M  V30 10425 C 1020.12 -0.547231 -3.34453 0
M  V30 10426 C 1019.3 -1.65559 -4.04857 0
M  V30 10427 C 1018.36 -1.16466 -5.13149 0
M  V30 10428 O 1017.38 -1.86158 -5.37898 0
M  V30 10429 N 1018.58 -0.0126703 -5.80499 0
M  V30 10430 H 1021.35 -1.98558 -2.24488 0
M  V30 10431 H 1018.91 -1.17728 -1.11138 0
M  V30 10432 H 1020.9 -0.203004 -4.04191 0
M  V30 10433 H 1019.47 0.308401 -3.11075 0
M  V30 10434 H 1018.69 -2.17079 -3.29044 0
M  V30 10435 H 1019.98 -2.39985 -4.48647 0
M  V30 10436 H 1019.38 0.569358 -5.62828 0
M  V30 10437 H 1017.93 0.272486 -6.5123 0
M  V30 10438 N 1021.37 1.14642 -1.08144 0
M  V30 10439 C 1022.3 2.21775 -0.730609 0
M  V30 10440 C 1023.28 1.67683 0.285702 0
M  V30 10441 O 1024.46 1.93567 0.156667 0
M  V30 10442 C 1021.59 3.47033 -0.136242 0
M  V30 10443 C 1020.55 4.14134 -1.0806 0
M  V30 10444 C 1019.87 5.33563 -0.348585 0
M  V30 10445 C 1021.17 4.62978 -2.41761 0
M  V30 10446 H 1022.87 2.51378 -1.62633 0
M  V30 10447 H 1020.41 1.20825 -0.783411 0
M  V30 10448 H 1022.37 4.21226 0.121182 0
M  V30 10449 H 1021.09 3.16786 0.7946 0
M  V30 10450 H 1019.75 3.41892 -1.32308 0
M  V30 10451 H 1019.4 4.99575 0.585974 0
M  V30 10452 H 1019.1 5.79402 -0.978122 0
M  V30 10453 H 1020.62 6.10519 -0.0991508 0
M  V30 10454 H 1022.04 5.28659 -2.21795 0
M  V30 10455 H 1020.43 5.1951 -3.00383 0
M  V30 10456 H 1021.5 3.78189 -3.03482 0
M  V30 10457 N 1022.85 0.866709 1.31628 0
M  V30 10458 C 1024.26 0.558188 1.49521 0
M  V30 10459 C 1024.46 -0.90844 1.7986 0
M  V30 10460 O 1023.52 -1.6908 1.87531 0
M  V30 10461 C 1024.83 1.45559 2.63122 0
M  V30 10462 C 1026.38 1.45728 2.77006 0
M  V30 10463 C 1026.85 2.34017 3.937 0
M  V30 10464 N 1028.34 2.31879 4.00982 0
M  V30 10465 C 1029.08 2.96915 4.90539 0
M  V30 10466 N 1028.58 3.71109 5.85021 0
M  V30 10467 N 1030.37 2.86241 4.83759 0
M  V30 10468 H 1022.52 1.81574 1.10203 0
M  V30 10469 H 1024.78 0.77621 0.544244 0
M  V30 10470 H 1024.49 2.49904 2.47469 0
M  V30 10471 H 1024.36 1.15174 3.59186 0
M  V30 10472 H 1026.75 0.421419 2.92075 0
M  V30 10473 H 1026.83 1.80134 1.81619 0
M  V30 10474 H 1026.47 3.37678 3.79389 0
M  V30 10475 H 1026.4 1.96937 4.88388 0
M  V30 10476 H 1028.9 1.77948 3.33381 0
M  V30 10477 H 1029.21 4.1787 6.5008 0
M  V30 10478 H 1027.55 3.75217 5.8501 0
M  V30 10479 H 1030.74 2.27819 4.08921 0
M  V30 10480 H 1030.92 3.37206 5.5335 0
M  V30 10481 N 1024.32 -1.44642 0.625825 0
M  V30 10482 C 1025.29 -2.29085 -0.072526 0
M  V30 10483 C 1026.29 -1.40755 -0.777467 0
M  V30 10484 O 1027.48 -1.62684 -0.622861 0
M  V30 10485 C 1024.61 -3.22212 -1.1132 0
M  V30 10486 H 1025.8 -2.92317 0.670124 0
M  V30 10487 H 1023.35 -1.51466 0.38571 0
M  V30 10488 H 1024.09 -2.63819 -1.88601 0
M  V30 10489 H 1023.87 -3.87299 -0.611709 0
M  V30 10490 H 1025.36 -3.8566 -1.60175 0
M  V30 10491 N 1025.8 -0.366053 -1.5329 0
M  V30 10492 C 1026.73 0.47211 -2.28677 0
M  V30 10493 C 1027.71 1.08353 -1.31125 0
M  V30 10494 O 1028.9 1.10069 -1.59995 0
M  V30 10495 C 1026.03 1.61174 -3.07637 0
M  V30 10496 C 1024.98 1.12755 -4.12881 0
M  V30 10497 C 1024.31 2.35745 -4.79925 0
M  V30 10498 C 1025.61 0.211954 -5.2187 0
M  V30 10499 H 1027.3 -0.156838 -2.98989 0
M  V30 10500 H 1024.85 -0.0768709 -1.43795 0
M  V30 10501 H 1026.8 2.20473 -3.59123 0
M  V30 10502 H 1025.52 2.26793 -2.35016 0
M  V30 10503 H 1024.18 0.557234 -3.6234 0
M  V30 10504 H 1023.83 2.99821 -4.03877 0
M  V30 10505 H 1023.53 2.04019 -5.51044 0
M  V30 10506 H 1025.06 2.95729 -5.34207 0
M  V30 10507 H 1026.47 0.71244 -5.68856 0
M  V30 10508 H 1024.87 -0.0144501 -6.00098 0
M  V30 10509 H 1025.94 -0.745753 -4.79131 0
M  V30 10510 N 1027.28 1.57312 -0.0952337 0
M  V30 10511 C 1028.24 2.12889 0.849161 0
M  V30 10512 C 1029.24 1.05819 1.21075 0
M  V30 10513 O 1030.43 1.31704 1.14016 0
M  V30 10514 C 1027.56 2.6496 2.14498 0
M  V30 10515 H 1028.76 2.97651 0.366566 0
M  V30 10516 H 1026.31 1.55542 0.153762 0
M  V30 10517 H 1027.05 1.83718 2.67242 0
M  V30 10518 H 1026.83 3.43244 1.89542 0
M  V30 10519 H 1028.32 3.07952 2.82056 0
M  V30 10520 N 1028.76 -0.17846 1.56586 0
M  V30 10521 C 1029.67 -1.24115 1.9908 0
M  V30 10522 C 1030.68 -1.48854 0.901031 0
M  V30 10523 O 1031.86 -1.61142 1.2081 0
M  V30 10524 C 1028.92 -2.56187 2.33601 0
M  V30 10525 C 1027.99 -2.39373 3.56369 0
M  V30 10526 C 1027.22 -3.65147 3.89234 0
M  V30 10527 O 1027.44 -4.70024 3.23162 0
M  V30 10528 O 1026.38 -3.59683 4.82609 0
M  V30 10529 H 1030.2 -0.910482 2.89731 0
M  V30 10530 H 1027.79 -0.38477 1.4436 0
M  V30 10531 H 1029.67 -3.34109 2.56806 0
M  V30 10532 H 1028.34 -2.88847 1.46113 0
M  V30 10533 H 1027.25 -1.59506 3.38391 0
M  V30 10534 H 1028.58 -2.1164 4.44375 0
M  V30 10535 N 1030.24 -1.51135 -0.446768 0
M  V30 10536 C 1031.48 -1.63578 -1.19875 0
M  V30 10537 C 1031.81 -0.346478 -1.91084 0
M  V30 10538 O 1031.09 0.653447 -1.83195 0
M  V30 10539 C 1031.37 -2.83275 -2.22323 0
M  V30 10540 C 1031.23 -4.22155 -1.55259 0
M  V30 10541 C 1032.54 -2.98496 -3.23401 0
M  V30 10542 H 1029.66 -0.595333 -0.434452 0
M  V30 10543 H 1032.31 -1.83593 -0.48923 0
M  V30 10544 H 1030.46 -2.6634 -2.82834 0
M  V30 10545 H 1032.13 -4.50736 -0.981571 0
M  V30 10546 H 1030.37 -4.25288 -0.855122 0
M  V30 10547 H 1031.04 -5.01882 -2.29823 0
M  V30 10548 H 1033.52 -3.14079 -2.72935 0
M  V30 10549 H 1032.39 -3.83828 -3.92386 0
M  V30 10550 H 1032.65 -2.10157 -3.88956 0
M  V30 10551 N 1031.71 0.701592 -1.41122 0
M  V30 10552 C 1032.94 1.48833 -1.43291 0
M  V30 10553 C 1033.35 1.89168 -0.0348668 0
M  V30 10554 O 1032.69 1.56937 0.9548 0
M  V30 10555 C 1032.76 2.78533 -2.27287 0
M  V30 10556 C 1032.42 2.60438 -3.75528 0
M  V30 10557 C 1033.42 2.26778 -4.67833 0
M  V30 10558 C 1031.1 2.76266 -4.19503 0
M  V30 10559 C 1033.1 2.09176 -6.021 0
M  V30 10560 C 1030.78 2.58281 -5.53836 0
M  V30 10561 C 1031.78 2.24786 -6.4495 0
M  V30 10562 O 1031.47 2.06952 -7.76805 0
M  V30 10563 H 1031.2 0.465401 -0.490284 0
M  V30 10564 H 1033.76 0.871843 -1.85979 0
M  V30 10565 H 1031.99 3.42566 -1.79403 0
M  V30 10566 H 1033.67 3.40312 -2.21229 0
M  V30 10567 H 1034.44 2.1417 -4.35151 0
M  V30 10568 H 1030.32 3.01322 -3.48893 0
M  V30 10569 H 1033.86 1.82955 -6.73181 0
M  V30 10570 H 1029.76 2.70478 -5.86099 0
M  V30 10571 H 1030.53 2.21762 -7.87886 0
M  V30 10572 N 1033.19 1.2685 0.935242 0
M  V30 10573 C 1034.44 1.12522 1.67878 0
M  V30 10574 C 1034.76 -0.330894 1.92172 0
M  V30 10575 O 1034.03 -1.23259 1.52263 0
M  V30 10576 H 1032.61 0.413418 0.622169 0
M  V30 10577 H 1035.27 1.59267 1.12339 0
M  V30 10578 H 1034.37 1.64853 2.65009 0
M  V30 10579 N 1034.67 -1.14067 1.0875 0
M  V30 10580 C 1035.9 -1.89582 0.841038 0
M  V30 10581 C 1036.32 -1.78226 -0.601436 0
M  V30 10582 O 1035.68 -1.12491 -1.42181 0
M  V30 10583 C 1035.73 -3.37415 1.27213 0
M  V30 10584 O 1034.83 -4.10191 0.426246 0
M  V30 10585 H 1034.17 -0.589716 0.305173 0
M  V30 10586 H 1036.7 -1.44364 1.44984 0
M  V30 10587 H 1036.71 -3.88234 1.25451 0
M  V30 10588 H 1035.39 -3.44999 2.32268 0
M  V30 10589 H 1033.96 -3.69429 0.507585 0
M  V30 10590 N 1036.15 -0.873678 -1.31166 0
M  V30 10591 C 1037.11 -0.337069 -2.26708 0
M  V30 10592 C 1038.11 0.51406 -1.52362 0
M  V30 10593 O 1039.3 0.322834 -1.71182 0
M  V30 10594 C 1036.43 0.520897 -3.36897 0
M  V30 10595 H 1037.63 -1.18056 -2.75686 0
M  V30 10596 H 1035.18 -0.649577 -1.42163 0
M  V30 10597 H 1035.91 1.38543 -2.93217 0
M  V30 10598 H 1035.7 -0.0886015 -3.92 0
M  V30 10599 H 1037.19 0.888497 -4.08039 0
M  V30 10600 N 1037.63 1.44308 -0.633487 0
M  V30 10601 C 1038.9 1.95476 -0.0697262 0
M  V30 10602 C 1039.28 1.57539 1.40516 0
M  V30 10603 O 1038.63 0.850632 2.12077 0
M  V30 10604 C 1038.84 3.4775 -0.295093 0
M  V30 10605 C 1040.19 4.24177 -0.189542 0
M  V30 10606 O 1041.21 3.55479 -0.226586 0
M  V30 10607 O 1040.07 5.46415 -0.096479 0
M  V30 10608 H 1037.17 0.826734 0.0209582 0
M  V30 10609 H 1039.71 1.54347 -0.705354 0
M  V30 10610 H 1038.48 3.6842 -1.31841 0
M  V30 10611 H 1038.11 3.95832 0.37456 0
M  V30 10612 N 1039.1 0.374177 1.53094 0
M  V30 10613 C 1040.07 -0.455999 2.24618 0
M  V30 10614 C 1041.07 -1.00269 1.25709 0
M  V30 10615 O 1042.26 -0.887077 1.49922 0
M  V30 10616 C 1039.39 -1.63822 2.98957 0
M  V30 10617 H 1040.58 0.169986 2.99418 0
M  V30 10618 H 1038.14 0.126015 1.55791 0
M  V30 10619 H 1038.87 -2.30205 2.28421 0
M  V30 10620 H 1038.66 -1.25308 3.71538 0
M  V30 10621 H 1040.15 -2.22633 3.53305 0
M  V30 10622 N 1040.58 -1.57259 0.103575 0
M  V30 10623 C 1041.51 -2.1153 -0.882472 0
M  V30 10624 C 1042.53 -1.05446 -1.24036 0
M  V30 10625 O 1043.72 -1.32867 -1.192 0
M  V30 10626 C 1040.82 -2.58717 -2.18903 0
M  V30 10627 C 1039.99 -3.8873 -2.00519 0
M  V30 10628 C 1039.05 -4.21675 -3.14764 0
M  V30 10629 O 1038.07 -4.90755 -2.88355 0
M  V30 10630 N 1039.28 -3.77757 -4.40772 0
M  V30 10631 H 1042.04 -2.96758 -0.418901 0
M  V30 10632 H 1039.6 -1.61696 -0.0812921 0
M  V30 10633 H 1041.59 -2.77797 -2.94297 0
M  V30 10634 H 1040.16 -1.78454 -2.56657 0
M  V30 10635 H 1039.38 -3.78714 -1.09406 0
M  V30 10636 H 1040.67 -4.73771 -1.85522 0
M  V30 10637 H 1040.07 -3.22011 -4.65108 0
M  V30 10638 H 1038.63 -4.01975 -5.13088 0
M  V30 10639 N 1042.06 0.170153 -1.56679 0
M  V30 10640 C 1042.97 1.23057 -1.99735 0
M  V30 10641 C 1043.99 1.48374 -0.908912 0
M  V30 10642 O 1045.16 1.60499 -1.21663 0
M  V30 10643 C 1042.23 2.54944 -2.34956 0
M  V30 10644 C 1041.29 2.3748 -3.57634 0
M  V30 10645 C 1040.52 3.63078 -3.91165 0
M  V30 10646 O 1040.74 4.68304 -3.2565 0
M  V30 10647 O 1039.68 3.57119 -4.8451 0
M  V30 10648 H 1043.5 0.895104 -2.9021 0
M  V30 10649 H 1041.09 0.377109 -1.44562 0
M  V30 10650 H 1042.97 3.32742 -2.58574 0
M  V30 10651 H 1041.65 2.88068 -1.47643 0
M  V30 10652 H 1040.55 1.57709 -3.39232 0
M  V30 10653 H 1041.89 2.0928 -4.45491 0
M  V30 10654 N 1043.54 1.5137 0.438746 0
M  V30 10655 C 1044.49 1.72582 1.53245 0
M  V30 10656 C 1045.46 0.567488 1.56105 0
M  V30 10657 O 1046.64 0.80176 1.73137 0
M  V30 10658 C 1043.78 1.85551 2.90972 0
M  V30 10659 C 1042.89 3.13094 2.97652 0
M  V30 10660 C 1042.03 3.16666 4.26493 0
M  V30 10661 C 1041.07 4.38529 4.27035 0
M  V30 10662 N 1040.2 4.39659 5.47398 0
M  V30 10663 H 1045.04 2.65941 1.3446 0
M  V30 10664 H 1042.58 1.31801 0.653206 0
M  V30 10665 H 1044.54 1.91053 3.70884 0
M  V30 10666 H 1043.17 0.956025 3.08318 0
M  V30 10667 H 1042.22 3.16909 2.10412 0
M  V30 10668 H 1043.53 4.03009 2.93914 0
M  V30 10669 H 1042.69 3.21075 5.14777 0
M  V30 10670 H 1041.43 2.24637 4.32885 0
M  V30 10671 H 1040.43 4.34297 3.37144 0
M  V30 10672 H 1041.66 5.31821 4.22307 0
M  V30 10673 H 1039.6 3.50499 5.54514 0
M  V30 10674 H 1039.52 5.23382 5.45534 0
M  V30 10675 H 1040.79 4.48259 6.37718 0
M  V30 10676 N 1045.02 -0.694098 1.41492 0
M  V30 10677 C 1046.26 -1.45415 1.40929 0
M  V30 10678 C 1046.59 -1.94491 0.0189301 0
M  V30 10679 O 1045.85 -1.7 -0.96945 0
M  V30 10680 C 1046.15 -2.6805 2.36398 0
M  V30 10681 C 1045.81 -2.37623 3.83205 0
M  V30 10682 C 1044.47 -2.29035 4.23198 0
M  V30 10683 C 1046.83 -2.12555 4.75888 0
M  V30 10684 C 1044.15 -1.93478 5.5388 0
M  V30 10685 C 1046.51 -1.78506 6.06892 0
M  V30 10686 C 1045.17 -1.68415 6.45905 0
M  V30 10687 H 1044.44 -0.53211 0.515694 0
M  V30 10688 H 1047.09 -0.793193 1.74301 0
M  V30 10689 H 1045.39 -3.39086 1.96285 0
M  V30 10690 H 1047.09 -3.26194 2.33234 0
M  V30 10691 H 1043.68 -2.45202 3.51531 0
M  V30 10692 H 1047.86 -2.18133 4.45793 0
M  V30 10693 H 1043.12 -1.84219 5.82986 0
M  V30 10694 H 1047.29 -1.58128 6.7821 0
M  V30 10695 H 1044.92 -1.40631 7.47079 0
M  V30 10696 N 1046.49 -1.27344 -0.928501 0
M  V30 10697 C 1047.74 -1.13804 -1.67859 0
M  V30 10698 C 1048.07 0.31555 -1.91619 0
M  V30 10699 O 1047.35 1.23087 -1.50599 0
M  V30 10700 C 1047.63 -1.9213 -3.04562 0
M  V30 10701 C 1047.48 -3.45468 -2.88048 0
M  V30 10702 C 1048.8 -1.72513 -4.04879 0
M  V30 10703 H 1045.92 -0.414796 -0.609191 0
M  V30 10704 H 1048.56 -1.5649 -1.07753 0
M  V30 10705 H 1046.71 -1.55853 -3.55868 0
M  V30 10706 H 1048.39 -3.9157 -2.43865 0
M  V30 10707 H 1046.63 -3.71849 -2.23407 0
M  V30 10708 H 1047.3 -3.95515 -3.85061 0
M  V30 10709 H 1049.78 -2.04143 -3.62581 0
M  V30 10710 H 1048.65 -2.29713 -4.98521 0
M  V30 10711 H 1048.91 -0.672856 -4.3695 0
M  V30 10712 N 1047.97 1.13488 -1.09353 0
M  V30 10713 C 1049.39 1.36739 -0.823086 0
M  V30 10714 C 1049.59 1.93476 0.562963 0
M  V30 10715 O 1048.64 2.15374 1.31796 0
M  V30 10716 C 1049.96 2.31943 -1.91371 0
M  V30 10717 C 1051.51 2.4556 -1.94085 0
M  V30 10718 C 1051.98 3.44072 -3.02289 0
M  V30 10719 N 1053.47 3.51622 -3.01524 0
M  V30 10720 C 1054.21 4.27724 -3.8189 0
M  V30 10721 N 1053.7 5.06987 -4.72161 0
M  V30 10722 N 1055.5 4.23018 -3.70152 0
M  V30 10723 H 1047.65 0.75012 -1.98713 0
M  V30 10724 H 1049.91 0.392564 -0.862901 0
M  V30 10725 H 1049.62 1.97408 -2.91072 0
M  V30 10726 H 1049.49 3.31952 -1.79131 0
M  V30 10727 H 1051.88 2.79382 -0.950234 0
M  V30 10728 H 1051.96 1.45479 -2.10403 0
M  V30 10729 H 1051.6 3.10981 -4.01564 0
M  V30 10730 H 1051.53 4.43956 -2.83214 0
M  V30 10731 H 1054.02 2.95066 -2.36103 0
M  V30 10732 H 1054.34 5.6236 -5.30067 0
M  V30 10733 H 1052.68 5.06222 -4.76197 0
M  V30 10734 H 1055.87 3.60171 -2.98989 0
M  V30 10735 H 1056.04 4.82075 -4.33022 0
M  V30 10736 N 1049.45 0.880621 1.30701 0
M  V30 10737 C 1050.73 0.41712 1.91101 0
M  V30 10738 C 1051.11 -1.10177 1.80067 0
M  V30 10739 O 1050.46 -1.93513 1.21511 0
M  V30 10740 C 1050.67 0.910364 3.36917 0
M  V30 10741 C 1052.01 0.942764 4.14001 0
M  V30 10742 O 1053.04 0.856733 3.45743 0
M  V30 10743 O 1051.9 1.06913 5.3594 0
M  V30 10744 H 1048.99 0.126775 0.817225 0
M  V30 10745 H 1051.54 0.969236 1.39298 0
M  V30 10746 H 1050.31 1.95414 3.39012 0
M  V30 10747 H 1049.93 0.337164 3.96168 0
M  V30 10748 N 1050.93 -1.4397 0.641131 0
M  V30 10749 C 1052.18 -2.01946 0.149629 0
M  V30 10750 C 1052.5 -1.50496 -1.23212 0
M  V30 10751 O 1051.76 -0.683453 -1.83378 0
M  V30 10752 C 1052.06 -3.5727 0.0963368 0
M  V30 10753 C 1051.72 -4.28016 1.4182 0
M  V30 10754 C 1050.39 -4.47059 1.78021 0
M  V30 10755 C 1052.74 -4.68183 2.29028 0
M  V30 10756 C 1050.07 -5.03532 3.01119 0
M  V30 10757 C 1052.42 -5.26019 3.51406 0
M  V30 10758 C 1051.08 -5.4328 3.87818 0
M  V30 10759 H 1050.35 -0.738974 0.0547531 0
M  V30 10760 H 1053 -1.72605 0.829436 0
M  V30 10761 H 1051.3 -3.86083 -0.666879 0
M  V30 10762 H 1053 -3.99871 -0.300635 0
M  V30 10763 H 1049.59 -4.13531 1.12651 0
M  V30 10764 H 1053.78 -4.53175 2.02353 0
M  V30 10765 H 1049.03 -5.15082 3.29395 0
M  V30 10766 H 1053.21 -5.56092 4.19208 0
M  V30 10767 H 1050.83 -5.86805 4.83284 0
M  V30 10768 N 1052.41 -0.382291 -1.52893 0
M  V30 10769 C 1053.65 0.202433 -2.01787 0
M  V30 10770 C 1053.99 1.47044 -1.26853 0
M  V30 10771 O 1053.26 1.91007 -0.366969 0
M  V30 10772 C 1053.54 0.477471 -3.5692 0
M  V30 10773 C 1053.4 -0.805339 -4.42532 0
M  V30 10774 C 1054.72 1.27106 -4.21346 0
M  V30 10775 H 1051.84 0.0720998 -0.733465 0
M  V30 10776 H 1054.48 -0.510478 -1.83014 0
M  V30 10777 H 1052.63 1.08478 -3.73048 0
M  V30 10778 H 1054.3 -1.4424 -4.3817 0
M  V30 10779 H 1052.54 -1.42216 -4.09826 0
M  V30 10780 H 1053.21 -0.567635 -5.49074 0
M  V30 10781 H 1055.69 0.757161 -4.09153 0
M  V30 10782 H 1054.57 1.43225 -5.29885 0
M  V30 10783 H 1054.83 2.28431 -3.78513 0
M  V30 10784 N 1053.89 1.57202 -0.111913 0
M  V30 10785 C 1054.85 2.13778 0.826534 0
M  V30 10786 C 1055.85 1.07097 1.19945 0
M  V30 10787 O 1057.04 1.32906 1.12613 0
M  V30 10788 C 1054.17 2.6722 2.11675 0
M  V30 10789 H 1055.36 2.98023 0.334975 0
M  V30 10790 H 1052.92 1.55696 0.137256 0
M  V30 10791 H 1053.65 1.86542 2.65278 0
M  V30 10792 H 1053.44 3.45235 1.8589 0
M  V30 10793 H 1054.93 3.10926 2.78774 0
M  V30 10794 N 1055.36 -0.161842 1.56767 0
M  V30 10795 C 1056.61 -0.878224 1.82798 0
M  V30 10796 C 1056.94 -1.81481 0.691242 0
M  V30 10797 O 1056.22 -1.92075 -0.30618 0
M  V30 10798 C 1056.5 -1.66565 3.19262 0
M  V30 10799 C 1056.35 -0.751551 4.43477 0
M  V30 10800 C 1057.67 -2.63134 3.52773 0
M  V30 10801 H 1054.79 -0.317828 0.664947 0
M  V30 10802 H 1057.43 -0.14402 1.89453 0
M  V30 10803 H 1055.58 -2.29157 3.13719 0
M  V30 10804 H 1057.26 -0.137783 4.61094 0
M  V30 10805 H 1055.5 -0.0601785 4.33758 0
M  V30 10806 H 1056.17 -1.33823 5.35533 0
M  V30 10807 H 1058.65 -2.10666 3.5883 0
M  V30 10808 H 1057.52 -3.15289 4.49315 0
M  V30 10809 H 1057.78 -3.43786 2.77963 0
M  V30 10810 N 1056.84 -1.516 -0.430713 0
M  V30 10811 C 1058.09 -1.65801 -1.17821 0
M  V30 10812 C 1058.44 -0.372769 -1.88754 0
M  V30 10813 O 1057.74 0.631767 -1.80885 0
M  V30 10814 C 1057.93 -2.804 -2.21609 0
M  V30 10815 C 1057.76 -4.19944 -1.60863 0
M  V30 10816 C 1056.53 -4.85786 -1.39068 0
M  V30 10817 C 1058.73 -5.02806 -1.08124 0
M  V30 10818 N 1056.71 -6.09425 -0.73989 0
M  V30 10819 C 1058.08 -6.17501 -0.556114 0
M  V30 10820 C 1060.13 -4.88288 -0.973635 0
M  V30 10821 C 1058.84 -7.1927 0.0660558 0
M  V30 10822 C 1060.86 -5.9027 -0.36535 0
M  V30 10823 C 1060.23 -7.04242 0.149205 0
M  V30 10824 H 1056.32 -0.660545 -0.418574 0
M  V30 10825 H 1058.91 -1.88847 -0.473799 0
M  V30 10826 H 1057.08 -2.59006 -2.89431 0
M  V30 10827 H 1058.81 -2.83747 -2.88565 0
M  V30 10828 H 1055.57 -4.4377 -1.65425 0
M  V30 10829 H 1055.99 -6.75622 -0.431745 0
M  V30 10830 H 1060.63 -4.00421 -1.35731 0
M  V30 10831 H 1058.35 -8.06779 0.461848 0
M  V30 10832 H 1061.94 -5.81107 -0.283902 0
M  V30 10833 H 1060.82 -7.81804 0.61249 0
M  V30 10834 N 1058.32 0.686584 -1.41858 0
M  V30 10835 C 1059.27 1.82167 -1.4463 0
M  V30 10836 C 1060.26 1.66286 -0.323313 0
M  V30 10837 O 1061.47 1.73038 -0.495773 0
M  V30 10838 H 1057.84 0.600454 -0.452724 0
M  V30 10839 H 1059.81 1.76947 -2.40276 0
M  V30 10840 C 1058.56 3.20248 -1.35412 0
M  V30 10841 H 1057.89 3.33089 -2.21115 0
M  V30 10842 H 1059.33 3.99723 -1.41413 0
M  V30 10843 C 1057.78 3.36832 -0.0674972 0
M  V30 10844 O 1058.31 3.91845 0.884325 0
M  V30 10845 N 1056.52 2.90598 0.011519 0
M  V30 10846 H 1056.07 2.46016 -0.76381 0
M  V30 10847 H 1056.03 3.02072 0.871774 0
M  V30 10848 N 1059.8 1.27835 0.921735 0
M  V30 10849 C 1060.74 1.11075 2.02314 0
M  V30 10850 C 1061.71 0.0101195 1.66097 0
M  V30 10851 O 1062.9 0.173564 1.90009 0
M  V30 10852 C 1060.04 0.770251 3.36394 0
M  V30 10853 C 1059.15 1.94912 3.8553 0
M  V30 10854 C 1058.29 1.54996 5.08084 0
M  V30 10855 C 1057.33 2.69595 5.49531 0
M  V30 10856 N 1056.46 2.30227 6.6328 0
M  V30 10857 H 1061.3 2.05319 2.15982 0
M  V30 10858 H 1058.84 1.022 1.058 0
M  V30 10859 H 1060.8 0.553624 4.1351 0
M  V30 10860 H 1059.43 -0.135238 3.22517 0
M  V30 10861 H 1058.48 2.27811 3.04641 0
M  V30 10862 H 1059.79 2.80858 4.12214 0
M  V30 10863 H 1058.95 1.29493 5.9272 0
M  V30 10864 H 1057.69 0.661676 4.83191 0
M  V30 10865 H 1056.69 2.95806 4.63442 0
M  V30 10866 H 1057.92 3.59054 5.76417 0
M  V30 10867 H 1055.86 1.43858 6.40032 0
M  V30 10868 H 1055.78 3.09711 6.89649 0
M  V30 10869 H 1057.05 2.07987 7.5124 0
M  V30 10870 N 1061.28 -1.12907 1.09954 0
M  V30 10871 C 1062.52 -1.84579 0.840155 0
M  V30 10872 C 1062.85 -1.83605 -0.632692 0
M  V30 10873 O 1062.13 -1.27803 -1.46617 0
M  V30 10874 C 1062.41 -3.32489 1.38286 0
M  V30 10875 C 1062.27 -3.41946 2.92221 0
M  V30 10876 C 1063.58 -4.28091 1.0211 0
M  V30 10877 H 1060.7 -0.670169 0.306663 0
M  V30 10878 H 1063.35 -1.3249 1.36185 0
M  V30 10879 H 1061.5 -3.76978 0.939123 0
M  V30 10880 H 1063.17 -3.06128 3.45085 0
M  V30 10881 H 1061.41 -2.8265 3.29077 0
M  V30 10882 H 1062.08 -4.45983 3.25274 0
M  V30 10883 H 1064.56 -3.91701 1.4039 0
M  V30 10884 H 1063.43 -5.30005 1.42781 0
M  V30 10885 H 1063.69 -4.42044 -0.0700753 0
M  V30 10886 N 1062.75 -0.88754 -1.30232 0
M  V30 10887 C 1063.69 -0.300814 -2.26209 0
M  V30 10888 C 1064.66 0.580088 -1.519 0
M  V30 10889 O 1065.85 0.529611 -1.80907 0
M  V30 10890 C 1062.98 0.572336 -3.33829 0
M  V30 10891 C 1062.02 -0.239589 -4.25827 0
M  V30 10892 S 1062.85 -1.62953 -5.10104 0
M  V30 10893 C 1064.01 -0.762979 -6.21232 0
M  V30 10894 H 1064.24 -1.11435 -2.75626 0
M  V30 10895 H 1061.78 -0.687123 -1.38268 0
M  V30 10896 H 1063.73 1.07036 -3.963 0
M  V30 10897 H 1062.4 1.35999 -2.83131 0
M  V30 10898 H 1061.59 0.426854 -5.02189 0
M  V30 10899 H 1061.19 -0.670325 -3.67944 0
M  V30 10900 H 1063.48 0.0189354 -6.77497 0
M  V30 10901 H 1064.43 -1.49829 -6.92067 0
M  V30 10902 H 1064.83 -0.322747 -5.63577 0
M  V30 10903 N 1064.23 1.43628 -0.648757 0
M  V30 10904 C 1065.18 2.32529 0.057536 0
M  V30 10905 C 1066.17 1.48358 0.817699 0
M  V30 10906 O 1067.38 1.64595 0.728605 0
M  V30 10907 H 1063.76 0.75107 0.037388 0
M  V30 10908 H 1065.73 2.89829 -0.710062 0
M  V30 10909 C 1064.48 3.32605 1.01336 0
M  V30 10910 H 1063.8 3.97395 0.437855 0
M  V30 10911 H 1065.24 3.97453 1.47672 0
M  V30 10912 C 1063.7 2.62865 2.10722 0
M  V30 10913 O 1064.23 2.4408 3.19042 0
M  V30 10914 N 1062.43 2.22312 1.87152 0
M  V30 10915 H 1061.98 2.3779 0.990644 0
M  V30 10916 H 1061.94 1.75979 2.60536 0
M  V30 10917 N 1065.71 0.390394 1.52688 0
M  V30 10918 C 1066.64 -0.43567 2.294 0
M  V30 10919 C 1067.62 -1.06253 1.32832 0
M  V30 10920 O 1068.81 -1.07509 1.61726 0
M  V30 10921 C 1065.94 -1.56259 3.10162 0
M  V30 10922 C 1064.89 -1.06172 4.14622 0
M  V30 10923 C 1064.22 -2.2808 4.83615 0
M  V30 10924 C 1065.52 -0.128902 5.22141 0
M  V30 10925 H 1067.21 0.204384 2.98702 0
M  V30 10926 H 1064.76 0.0997377 1.43654 0
M  V30 10927 H 1066.71 -2.14732 3.62585 0
M  V30 10928 H 1065.43 -2.23025 2.38595 0
M  V30 10929 H 1064.09 -0.499518 3.63181 0
M  V30 10930 H 1063.74 -2.93358 4.08595 0
M  V30 10931 H 1063.44 -1.95227 5.5422 0
M  V30 10932 H 1064.96 -2.87193 5.38844 0
M  V30 10933 H 1066.38 -0.621849 5.69917 0
M  V30 10934 H 1064.78 0.109919 5.99999 0
M  V30 10935 H 1065.85 0.821884 4.77884 0
M  V30 10936 N 1067.19 -1.57141 0.120249 0
M  V30 10937 C 1068.47 -1.8677 -0.581075 0
M  V30 10938 C 1068.85 -1.02163 -1.84732 0
M  V30 10939 O 1068.19 -0.100897 -2.28277 0
M  V30 10940 C 1068.4 -3.37923 -0.872316 0
M  V30 10941 C 1069.75 -4.0655 -1.22483 0
M  V30 10942 O 1070.78 -3.42948 -0.962539 0
M  V30 10943 O 1069.63 -5.18821 -1.71717 0
M  V30 10944 H 1066.73 -0.773219 -0.293362 0
M  V30 10945 H 1069.27 -1.68992 0.154846 0
M  V30 10946 H 1068.05 -3.91292 0.0249416 0
M  V30 10947 H 1067.67 -3.61135 -1.66335 0
M  V30 10948 N 1068.67 0.153526 -1.5685 0
M  V30 10949 C 1070.08 0.505939 -1.51368 0
M  V30 10950 C 1070.28 1.83721 -0.82757 0
M  V30 10951 O 1069.34 2.49385 -0.395364 0
M  V30 10952 C 1070.65 0.522269 -2.9613 0
M  V30 10953 C 1072.2 0.608238 -3.07033 0
M  V30 10954 C 1072.67 0.655292 -4.53288 0
M  V30 10955 N 1074.17 0.717695 -4.57606 0
M  V30 10956 C 1074.9 0.774977 -5.68139 0
M  V30 10957 N 1074.4 0.792003 -6.88258 0
M  V30 10958 N 1076.19 0.81536 -5.56155 0
M  V30 10959 H 1068.34 -0.71919 -1.99853 0
M  V30 10960 H 1070.6 -0.261466 -0.91123 0
M  V30 10961 H 1070.31 -0.387595 -3.49558 0
M  V30 10962 H 1070.18 1.3625 -3.51733 0
M  V30 10963 H 1072.57 1.50852 -2.53629 0
M  V30 10964 H 1072.65 -0.259014 -2.54485 0
M  V30 10965 H 1072.3 -0.240809 -5.07329 0
M  V30 10966 H 1072.23 1.53894 -5.03611 0
M  V30 10967 H 1074.72 0.7121 -3.7113 0
M  V30 10968 H 1075.03 0.837378 -7.6825 0
M  V30 10969 H 1073.37 0.759986 -6.90832 0
M  V30 10970 H 1076.57 0.799183 -4.61227 0
M  V30 10971 H 1076.74 0.856537 -6.42314 0
M  V30 10972 N 1070.14 1.51827 0.422667 0
M  V30 10973 C 1071.39 1.6522 1.17084 0
M  V30 10974 C 1071.72 0.375508 1.90841 0
M  V30 10975 O 1070.97 -0.641029 1.84903 0
M  V30 10976 C 1071.27 2.81572 2.20119 0
M  V30 10977 C 1070.94 4.20303 1.63268 0
M  V30 10978 C 1069.6 4.5804 1.47488 0
M  V30 10979 C 1071.95 5.06812 1.21618 0
M  V30 10980 C 1069.28 5.79979 0.885531 0
M  V30 10981 C 1071.63 6.29343 0.641071 0
M  V30 10982 C 1070.3 6.65841 0.470286 0
M  V30 10983 H 1069.57 0.604581 0.428442 0
M  V30 10984 H 1072.21 1.85896 0.459874 0
M  V30 10985 H 1070.52 2.55175 2.97309 0
M  V30 10986 H 1072.22 2.89132 2.77856 0
M  V30 10987 H 1068.81 3.90557 1.76531 0
M  V30 10988 H 1072.99 4.78251 1.32624 0
M  V30 10989 H 1068.25 6.06892 0.741105 0
M  V30 10990 H 1072.42 6.9571 0.309888 0
M  V30 10991 H 1070.05 7.60199 0.0115038 0
M  V30 10992 N 1071.62 -0.679052 1.4222 0
M  V30 10993 C 1072.9 -1.43473 1.32947 0
M  V30 10994 C 1073.28 -2.11071 -0.0351689 0
M  V30 10995 O 1072.63 -2.02925 -1.05042 0
M  V30 10996 C 1072.84 -2.44065 2.49466 0
M  V30 10997 C 1074.19 -3.08834 2.91387 0
M  V30 10998 O 1075.21 -2.54392 2.49325 0
M  V30 10999 O 1074.07 -4.07478 3.64175 0
M  V30 11000 H 1071.16 -0.639743 0.524078 0
M  V30 11001 H 1073.71 -0.708134 1.54219 0
M  V30 11002 H 1072.48 -1.92884 3.40457 0
M  V30 11003 H 1072.1 -3.24212 2.30158 0
M  V30 11004 N 1073.1 -1.28322 -0.914942 0
M  V30 11005 C 1074.03 -1.14681 -2.03398 0
M  V30 11006 C 1075.01 -0.0448939 -1.70041 0
M  V30 11007 O 1076.2 -0.221672 -1.92931 0
M  V30 11008 C 1073.33 -0.806623 -3.37803 0
M  V30 11009 C 1072.28 -1.86318 -3.85318 0
M  V30 11010 C 1071.61 -1.37665 -5.16674 0
M  V30 11011 C 1072.91 -3.26953 -4.07307 0
M  V30 11012 H 1074.6 -2.08293 -2.15068 0
M  V30 11013 H 1072.15 -1.00284 -1.03339 0
M  V30 11014 H 1074.1 -0.69796 -4.1558 0
M  V30 11015 H 1072.82 0.165203 -3.26182 0
M  V30 11016 H 1071.48 -1.96096 -3.09745 0
M  V30 11017 H 1071.13 -0.393927 -5.01455 0
M  V30 11018 H 1070.83 -2.08313 -5.49435 0
M  V30 11019 H 1072.35 -1.28119 -5.97007 0
M  V30 11020 H 1073.77 -3.20102 -4.75613 0
M  V30 11021 H 1072.17 -3.95424 -4.51398 0
M  V30 11022 H 1073.24 -3.71059 -3.12159 0
M  V30 11023 N 1074.58 1.12322 -1.10551 0
M  V30 11024 C 1075.54 2.16273 -0.758844 0
M  V30 11025 C 1076.54 1.59325 0.217294 0
M  V30 11026 O 1077.73 1.74199 -0.00601346 0
M  V30 11027 C 1074.86 3.40674 -0.124238 0
M  V30 11028 H 1076.06 2.48454 -1.6796 0
M  V30 11029 H 1073.61 1.2735 -0.906188 0
M  V30 11030 H 1074.34 3.14094 0.807194 0
M  V30 11031 H 1074.13 3.83284 -0.826772 0
M  V30 11032 H 1075.62 4.17474 0.102502 0
M  V30 11033 O 1076.1 1.02707 1.24633 0
M  V30 11034 H 1076.79 0.69186 1.80923 0
M  V30 END ATOM
M  V30 BEGIN BOND
M  V30 END BOND
M  V30 END CTAB
M  END
$$$$
