drugbank_target|P48068 Ribonuclease (DB03315)
 OpenBabel12092119563D

  0  0  0     0  0            999 V3000
M  V30 BEGIN CTAB
M  V30 COUNTS 2530 2558 0 0 0
M  V30 BEGIN ATOM
M  V30 1 H -0.908 1.98254 -0.117106 0
M  V30 2 N 0 1.576 0 0
M  V30 3 C 0.933 2.03868 1.02534 0
M  V30 4 C 1.911 0.928543 1.3348 0
M  V30 5 O 3.095 1.19667 1.45644 0
M  V30 6 C 0.222 2.43627 2.35294 0
M  V30 7 C -0.732 3.65373 2.2001 0
M  V30 8 S 0.101 5.13292 1.52614 0
M  V30 9 C 1.257 5.56322 2.86805 0
M  V30 10 H 1.49 2.90518 0.631377 0
M  V30 11 H -0.977 1.52953 0.210867 0
M  V30 12 H 0.981 2.67203 3.11629 0
M  V30 13 H -0.358 1.57376 2.7183 0
M  V30 14 H -1.165 3.90944 3.18086 0
M  V30 15 H -1.563 3.418 1.51819 0
M  V30 16 H 0.729 5.58782 3.83104 0
M  V30 17 H 1.672 6.56266 2.65933 0
M  V30 18 H 2.08 4.83886 2.90714 0
M  V30 19 N 1.4781 -0.272755 1.55222 0
M  V30 20 C 2.4251 -1.33716 1.88119 0
M  V30 21 C 3.3951 -1.49066 0.73271 0
M  V30 22 O 4.5801 -1.63469 0.984002 0
M  V30 23 C 1.7201 -2.69238 2.15882 0
M  V30 24 C 0.8331 -2.62108 3.43399 0
M  V30 25 C -0.0319 -3.89811 3.60861 0
M  V30 26 C -0.9929 -3.77193 4.8207 0
M  V30 27 N -1.8559 -4.9673 4.96189 0
M  V30 28 H 2.9841 -1.04962 2.78903 0
M  V30 29 H 0.5211 -0.507088 1.38083 0
M  V30 30 H 2.4791 -3.48089 2.29978 0
M  V30 31 H 1.1091 -2.96194 1.28331 0
M  V30 32 H 0.1611 -1.74967 3.37773 0
M  V30 33 H 1.4731 -2.48685 4.32386 0
M  V30 34 H 0.6271 -4.77103 3.74777 0
M  V30 35 H -0.6339 -4.06102 2.7006 0
M  V30 36 H -1.6289 -2.88284 4.68159 0
M  V30 37 H -0.4039 -3.62421 5.74307 0
M  V30 38 H -2.4579 -5.13431 4.08319 0
M  V30 39 H -2.5409 -4.85839 5.79221 0
M  V30 40 H -1.2729 -5.85594 5.1449 0
M  V30 41 N 2.9562 -1.48159 -0.537278 0
M  V30 42 C 3.9032 -1.62138 -1.64256 0
M  V30 43 C 4.8732 -0.463668 -1.59497 0
M  V30 44 O 6.0582 -0.686241 -1.78032 0
M  V30 45 C 3.1982 -1.66028 -3.02537 0
M  V30 46 C 2.3112 -2.92855 -3.17585 0
M  V30 47 C 1.4462 -2.87952 -4.46382 0
M  V30 48 C 0.4852 -4.09516 -4.54932 0
M  V30 49 N -0.3778 -4.02733 -5.75109 0
M  V30 50 H 4.4622 -2.56529 -1.51647 0
M  V30 51 H 1.9992 -1.27224 -0.738414 0
M  V30 52 H 3.9572 -1.66265 -3.82638 0
M  V30 53 H 2.5872 -0.751331 -3.13934 0
M  V30 54 H 1.6392 -3.02395 -2.30784 0
M  V30 55 H 2.9512 -3.82822 -3.19764 0
M  V30 56 H 2.1052 -2.8655 -5.34765 0
M  V30 57 H 0.8442 -1.95702 -4.46712 0
M  V30 58 H -0.1508 -4.11201 -3.64957 0
M  V30 59 H 1.0742 -5.02917 -4.56346 0
M  V30 60 H -0.9798 -3.13299 -5.76351 0
M  V30 61 H -1.0628 -4.86397 -5.78752 0
M  V30 62 H 0.2052 -4.05379 -6.65799 0
M  V30 63 N 4.4343 0.785586 -1.36625 0
M  V30 64 C 5.6833 1.53883 -1.30396 0
M  V30 65 C 5.9963 1.95271 0.113452 0
M  V30 66 O 7.2023 2.69858 0.298142 0
M  V30 67 C 5.6583 2.77808 -2.28802 0
M  V30 68 C 5.2663 2.43574 -3.75999 0
M  V30 69 C 7.0103 3.55783 -2.31558 0
M  V30 70 C 4.9173 3.63919 -4.66173 0
M  V30 71 H 3.8473 0.577678 -0.484566 0
M  V30 72 H 6.4983 0.861705 -1.62009 0
M  V30 73 H 4.8803 3.47339 -1.90188 0
M  V30 74 H 6.0543 1.81916 -4.23371 0
M  V30 75 H 4.3693 1.78803 -3.76056 0
M  V30 76 H 6.9663 4.45205 -2.96137 0
M  V30 77 H 7.3093 3.94644 -1.3252 0
M  V30 78 H 7.8423 2.93235 -2.68809 0
M  V30 79 H 4.5813 3.3015 -5.66287 0
M  V30 80 H 4.1013 4.2473 -4.23515 0
M  V30 81 H 5.7803 4.30901 -4.82632 0
M  V30 82 N 5.9124 1.20967 1.01018 0
M  V30 83 C 7.1374 1.0503 1.78839 0
M  V30 84 C 7.5624 -0.395752 1.8389 0
M  V30 85 O 6.9204 -1.28529 1.27867 0
M  V30 86 C 6.9684 1.64602 3.2084 0
M  V30 87 O 6.0724 0.887988 4.02726 0
M  V30 88 H 5.4134 0.369987 0.551367 0
M  V30 89 H 7.9434 1.60399 1.27018 0
M  V30 90 H 7.9534 1.68607 3.71532 0
M  V30 91 H 6.6284 2.69841 3.16479 0
M  V30 92 H 5.2054 0.922648 3.61305 0
M  V30 93 N 7.3905 -1.2043 1.01659 0
M  V30 94 C 8.6155 -1.94318 0.724942 0
M  V30 95 C 9.0405 -1.74266 -0.708034 0
M  V30 96 O 8.3985 -1.03694 -1.48719 0
M  V30 97 C 8.4465 -3.44486 1.06591 0
M  V30 98 O 7.5505 -4.12017 0.177599 0
M  V30 99 H 6.8915 -0.60708 0.26898 0
M  V30 100 H 9.4215 -1.52861 1.35995 0
M  V30 101 H 9.4315 -3.95106 1.01762 0
M  V30 102 H 8.1065 -3.58404 2.10997 0
M  V30 103 H 6.6835 -3.71821 0.283421 0
M  V30 104 N 8.8686 -0.792821 -1.36206 0
M  V30 105 C 10.1146 -0.36733 -1.99446 0
M  V30 106 C 10.4476 1.05917 -1.62774 0
M  V30 107 O 9.7226 1.7324 -0.88421 0
M  V30 108 C 10.0056 -0.535044 -3.56103 0
M  V30 109 C 9.8586 -2.00548 -4.02617 0
M  V30 110 C 11.1776 0.0478191 -4.40074 0
M  V30 111 H 8.2966 -0.134941 -0.724541 0
M  V30 112 H 10.9386 -0.999794 -1.61568 0
M  V30 113 H 9.0886 0.00336329 -3.885 0
M  V30 114 H 10.7606 -2.60521 -3.80692 0
M  V30 115 H 9.0036 -2.50686 -3.54032 0
M  V30 116 H 9.6746 -2.07377 -5.11565 0
M  V30 117 H 12.1506 -0.411822 -4.14057 0
M  V30 118 H 11.0266 -0.0995336 -5.4881 0
M  V30 119 H 11.2876 1.14025 -4.27142 0
M  V30 120 N 10.3467 1.47872 -0.545128 0
M  V30 121 C 11.5937 2.02493 -0.0165858 0
M  V30 122 C 11.9217 1.42073 1.32836 0
M  V30 123 O 11.1767 0.561459 1.87473 0
M  V30 124 C 11.4757 3.57131 0.13867 0
M  V30 125 C 11.1417 4.36411 -1.13384 0
M  V30 126 C 9.8037 4.57792 -1.48256 0
M  V30 127 C 12.1557 4.82223 -1.97764 0
M  V30 128 C 9.4837 5.22233 -2.67376 0
M  V30 129 C 11.8357 5.47977 -3.16076 0
M  V30 130 C 10.4997 5.67593 -3.51275 0
M  V30 131 H 9.7697 0.740975 -0.00606918 0
M  V30 132 H 12.4167 1.77683 -0.714207 0
M  V30 133 H 10.7217 3.80865 0.919172 0
M  V30 134 H 12.4187 3.97031 0.562782 0
M  V30 135 H 9.0087 4.2004 -0.852297 0
M  V30 136 H 13.1927 4.65493 -1.72132 0
M  V30 137 H 8.4487 5.35616 -2.94831 0
M  V30 138 H 12.6227 5.8244 -3.81755 0
M  V30 139 H 10.2497 6.17298 -4.43675 0
M  V30 140 N 11.8248 0.280983 1.55075 0
M  V30 141 C 13.0528 -0.337293 2.04132 0
M  V30 142 C 13.4678 -1.4903 1.15912 0
M  V30 143 O 12.8248 -1.81606 0.180459 0
M  V30 144 C 12.8758 -0.812706 3.52246 0
M  V30 145 O 12.5968 0.294387 4.3711 0
M  V30 146 C 14.0978 -1.4982 4.17216 0
M  V30 147 H 11.3178 -0.0761638 0.666663 0
M  V30 148 H 13.8618 0.414787 2.00249 0
M  V30 149 H 12.0168 -1.51486 3.56554 0
M  V30 150 H 12.4308 -0.0721325 5.2445 0
M  V30 151 H 13.9048 -1.7822 5.22438 0
M  V30 152 H 14.3818 -2.43168 3.65741 0
M  V30 153 H 14.9878 -0.839742 4.16927 0
M  V30 154 N 13.3029 -1.57598 0.00835791 0
M  V30 155 C 14.2359 -2.04409 -1.01451 0
M  V30 156 C 15.2139 -0.935609 -1.32985 0
M  V30 157 O 16.3979 -1.20437 -1.45007 0
M  V30 158 C 13.5249 -2.44872 -2.33999 0
M  V30 159 C 12.5709 -3.66535 -2.18069 0
M  V30 160 S 13.4039 -5.14095 -1.4989 0
M  V30 161 C 14.5599 -5.57835 -2.8385 0
M  V30 162 H 14.7929 -2.90849 -0.615961 0
M  V30 163 H 12.3259 -1.53063 -0.202752 0
M  V30 164 H 14.2839 -2.68852 -3.10208 0
M  V30 165 H 12.9449 -1.58815 -2.70992 0
M  V30 166 H 12.1379 -3.92626 -3.16008 0
M  V30 167 H 11.7399 -3.426 -1.50004 0
M  V30 168 H 14.0319 -5.60806 -3.80136 0
M  V30 169 H 14.9749 -6.57667 -2.62449 0
M  V30 170 H 15.3829 -4.85421 -2.88144 0
M  V30 171 N 14.781 0.264519 -1.55364 0
M  V30 172 C 16.028 0.994986 -1.7637 0
M  V30 173 C 16.356 1.85976 -0.5695 0
M  V30 174 O 15.611 1.90509 0.44776 0
M  V30 175 C 15.91 1.9004 -3.02687 0
M  V30 176 C 15.576 1.19243 -4.34847 0
M  V30 177 C 14.238 0.996709 -4.70764 0
M  V30 178 C 16.59 0.689296 -5.16622 0
M  V30 179 C 13.918 0.285261 -5.86006 0
M  V30 180 C 16.27 -0.00860079 -6.32599 0
M  V30 181 C 14.934 -0.215963 -6.67151 0
M  V30 182 H 14.204 0.364091 -0.645383 0
M  V30 183 H 16.851 0.266543 -1.89636 0
M  V30 184 H 15.156 2.69533 -2.84357 0
M  V30 185 H 16.853 2.46695 -3.16137 0
M  V30 186 H 13.443 1.3549 -4.06621 0
M  V30 187 H 17.627 0.828108 -4.89342 0
M  V30 188 H 12.883 0.113961 -6.11294 0
M  V30 189 H 17.057 -0.406186 -6.95214 0
M  V30 190 H 14.684 -0.769217 -7.56298 0
M  V30 191 N 16.2591 1.48442 0.529413 0
M  V30 192 C 17.2221 1.62524 1.61612 0
M  V30 193 C 18.2221 0.498509 1.52877 0
M  V30 194 O 19.4121 0.76431 1.56537 0
M  V30 195 C 16.5441 1.59597 3.01233 0
M  V30 196 H 17.7371 2.59423 1.50465 0
M  V30 197 H 15.2901 1.37047 0.751514 0
M  V30 198 H 16.0251 0.641781 3.17886 0
M  V30 199 H 15.8101 2.41397 3.08982 0
M  V30 200 H 17.3001 1.72646 3.80241 0
M  V30 201 N 17.7372 -0.778329 1.37039 0
M  V30 202 C 18.6672 -1.90546 1.34962 0
M  V30 203 C 19.6482 -1.68681 0.219274 0
M  V30 204 O 20.8332 -1.89634 0.418624 0
M  V30 205 C 17.9632 -3.27734 1.14925 0
M  V30 206 C 16.9172 -3.64147 2.24902 0
M  V30 207 C 16.2432 -4.99806 1.89996 0
M  V30 208 C 17.5432 -3.71579 3.67051 0
M  V30 209 H 19.2372 -1.92541 2.29277 0
M  V30 210 H 16.7832 -0.924948 1.10366 0
M  V30 211 H 18.7362 -4.06215 1.12104 0
M  V30 212 H 17.4602 -3.26154 0.170631 0
M  V30 213 H 16.1192 -2.8797 2.26868 0
M  V30 214 H 15.7672 -4.94759 0.906796 0
M  V30 215 H 15.4672 -5.25139 2.63634 0
M  V30 216 H 16.9912 -5.80694 1.88749 0
M  V30 217 H 18.4052 -4.40227 3.67251 0
M  V30 218 H 16.8022 -4.08405 4.39688 0
M  V30 219 H 17.8722 -2.72404 4.01154 0
M  V30 220 N 19.2153 -1.21501 -1.00376 0
M  V30 221 C 20.4643 -1.02718 -1.73586 0
M  V30 222 C 20.7773 0.439589 -1.90596 0
M  V30 223 O 21.9833 0.746848 -2.61026 0
M  V30 224 C 20.4393 -1.78929 -3.1227 0
M  V30 225 C 20.0473 -3.29783 -3.03228 0
M  V30 226 C 21.7913 -1.68557 -3.89601 0
M  V30 227 C 19.6983 -3.98479 -4.36999 0
M  V30 228 H 18.6283 -0.380733 -0.650814 0
M  V30 229 H 21.2793 -1.45248 -1.1214 0
M  V30 230 H 19.6613 -1.29192 -3.74333 0
M  V30 231 H 20.8353 -3.86832 -2.50395 0
M  V30 232 H 19.1503 -3.40711 -2.39385 0
M  V30 233 H 21.7473 -2.17211 -4.88593 0
M  V30 234 H 22.0903 -0.644021 -4.11288 0
M  V30 235 H 22.6233 -2.15778 -3.34193 0
M  V30 236 H 19.3623 -5.02841 -4.20513 0
M  V30 237 H 18.8823 -3.46219 -4.89788 0
M  V30 238 H 20.5613 -4.03462 -5.05794 0
M  V30 239 N 20.6934 1.19889 -1.02296 0
M  V30 240 C 21.6564 2.21116 -0.603351 0
M  V30 241 C 22.6564 1.5738 0.329884 0
M  V30 242 O 23.8464 1.73802 0.117702 0
M  V30 243 C 20.9784 3.40696 0.117992 0
M  V30 244 H 22.1714 2.59754 -1.49893 0
M  V30 245 H 19.7244 1.33463 -0.813468 0
M  V30 246 H 20.4594 3.07569 1.0282 0
M  V30 247 H 20.2444 3.88188 -0.552511 0
M  V30 248 H 21.7344 4.15692 0.398696 0
M  V30 249 N 22.1715 0.800033 1.35784 0
M  V30 250 C 23.1345 0.211565 2.28221 0
M  V30 251 C 24.1345 -0.59728 1.49296 0
M  V30 252 O 25.3245 -0.416721 1.69142 0
M  V30 253 C 22.4565 -0.705846 3.33513 0
M  V30 254 H 23.6495 1.02677 2.81776 0
M  V30 255 H 21.2025 0.570211 1.45528 0
M  V30 256 H 21.9375 -1.54498 2.85133 0
M  V30 257 H 21.7225 -0.127655 3.91892 0
M  V30 258 H 23.2125 -1.11211 4.02519 0
M  V30 259 N 23.6496 -1.47581 0.552962 0
M  V30 260 C 24.8986 -2.01684 0.0251995 0
M  V30 261 C 25.2116 -1.43317 -1.33115 0
M  V30 262 O 26.4176 -1.89057 -1.94858 0
M  V30 263 C 24.8736 -3.599 -0.00542052 0
M  V30 264 C 24.4816 -4.27257 1.34742 0
M  V30 265 C 26.2256 -4.21768 -0.4808 0
M  V30 266 C 24.1326 -5.77467 1.27614 0
M  V30 267 H 23.0626 -0.753979 0.00565033 0
M  V30 268 H 25.7136 -1.69616 0.70018 0
M  V30 269 H 24.0956 -3.88911 -0.745961 0
M  V30 270 H 25.2696 -4.09893 2.10534 0
M  V30 271 H 23.5846 -3.77358 1.76039 0
M  V30 272 H 26.1816 -5.31838 -0.55246 0
M  V30 273 H 26.5246 -3.88651 -1.49184 0
M  V30 274 H 27.0576 -3.97273 0.204752 0
M  V30 275 H 23.7966 -6.15196 2.26304 0
M  V30 276 H 23.3166 -5.9718 0.55996 0
M  V30 277 H 24.9956 -6.3959 0.976421 0
M  V30 278 N 25.1277 -0.289203 -1.54924 0
M  V30 279 C 26.0577 0.58549 -2.2604 0
M  V30 280 C 27.0387 1.14753 -1.25562 0
M  V30 281 O 28.2237 1.17906 -1.54311 0
M  V30 282 C 25.3537 1.76305 -2.99222 0
M  V30 283 C 24.3077 1.33191 -4.06748 0
M  V30 284 C 23.6337 2.5937 -4.6758 0
M  V30 285 C 24.9337 0.471775 -5.20165 0
M  V30 286 H 26.6277 -0.00763532 -2.99399 0
M  V30 287 H 24.1737 -0.00511229 -1.43999 0
M  V30 288 H 26.1267 2.38097 -3.47689 0
M  V30 289 H 24.8507 2.38223 -2.23422 0
M  V30 290 H 23.5097 0.737121 -3.59113 0
M  V30 291 H 23.1577 3.19576 -3.88433 0
M  V30 292 H 22.8577 2.31228 -5.40192 0
M  V30 293 H 24.3817 3.21985 -5.18804 0
M  V30 294 H 25.7957 0.995056 -5.64599 0
M  V30 295 H 24.1927 0.284639 -5.99425 0
M  V30 296 H 25.2627 -0.506041 -4.82252 0
M  V30 297 N 26.6058 1.57591 -0.0167156 0
M  V30 298 C 27.8528 1.91283 0.664597 0
M  V30 299 C 28.1808 0.891949 1.72842 0
M  V30 300 O 27.4358 -0.100931 1.9544 0
M  V30 301 C 27.7348 3.3172 1.33029 0
M  V30 302 C 27.4008 4.4914 0.398047 0
M  V30 303 C 26.0628 4.80992 0.141421 0
M  V30 304 C 28.4148 5.20634 -0.242825 0
M  V30 305 C 25.7428 5.81703 -0.764092 0
M  V30 306 C 28.0948 6.22311 -1.13632 0
M  V30 307 C 26.7588 6.52611 -1.40196 0
M  V30 308 H 26.0288 0.699956 0.243193 0
M  V30 309 H 28.6758 1.9135 -0.0758267 0
M  V30 310 H 26.9808 3.27856 2.14517 0
M  V30 311 H 28.6778 3.55055 1.86379 0
M  V30 312 H 25.2678 4.24262 0.608238 0
M  V30 313 H 29.4518 4.96267 -0.0576019 0
M  V30 314 H 24.7078 6.03532 -0.977732 0
M  V30 315 H 28.8818 6.76834 -1.63917 0
M  V30 316 H 26.5088 7.30467 -2.10529 0
M  V30 317 N 28.0839 -0.256276 1.55502 0
M  V30 318 C 29.3089 -1.00766 1.81276 0
M  V30 319 C 29.7339 -1.78524 0.59252 0
M  V30 320 O 29.0919 -1.75413 -0.45827 0
M  V30 321 C 29.1399 -1.92869 3.04687 0
M  V30 322 O 28.2439 -3.019 2.80945 0
M  V30 323 H 27.5849 -0.287224 0.598664 0
M  V30 324 H 30.1149 -0.280109 2.02674 0
M  V30 325 H 30.1249 -2.34511 3.33869 0
M  V30 326 H 28.7999 -1.35689 3.93143 0
M  V30 327 H 27.3769 -2.64454 2.62904 0
M  V30 328 N 29.562 -1.4872 -0.521534 0
M  V30 329 C 30.81 -1.56857 -1.27437 0
M  V30 330 C 31.131 -0.247982 -1.93417 0
M  V30 331 O 30.401 0.731151 -1.81744 0
M  V30 332 H 28.981 -0.577885 -0.473347 0
M  V30 333 H 31.643 -1.85233 -0.606205 0
M  V30 334 H 30.739 -2.35402 -2.0492 0
M  V30 335 N 31.0401 0.771051 -1.3745 0
M  V30 336 C 32.2871 1.52963 -1.32697 0
M  V30 337 C 32.6151 1.94299 0.0883274 0
M  V30 338 O 31.8701 1.64397 1.0617 0
M  V30 339 C 32.1691 2.80676 -2.2126 0
M  V30 340 C 31.8351 2.58389 -3.69521 0
M  V30 341 C 30.4971 2.52019 -4.09927 0
M  V30 342 C 32.8491 2.38469 -4.63446 0
M  V30 343 C 30.1771 2.23721 -5.42371 0
M  V30 344 C 32.5291 2.11694 -5.96128 0
M  V30 345 C 31.1931 2.03769 -6.35637 0
M  V30 346 H 30.4631 0.559732 -0.485573 0
M  V30 347 H 33.1101 0.888083 -1.69662 0
M  V30 348 H 31.4151 3.49392 -1.77291 0
M  V30 349 H 33.1121 3.38557 -2.14895 0
M  V30 350 H 29.7021 2.6421 -3.37478 0
M  V30 351 H 33.8861 2.4238 -4.33089 0
M  V30 352 H 29.1421 2.16081 -5.71943 0
M  V30 353 H 33.3161 1.9528 -6.6846 0
M  V30 354 H 30.9431 1.81606 -7.38189 0
M  V30 355 N 32.5182 1.22032 0.997298 0
M  V30 356 C 33.7672 1.03637 1.73038 0
M  V30 357 C 34.0802 -0.429475 1.90827 0
M  V30 358 O 35.2862 -0.732995 2.61418 0
M  V30 359 C 33.7422 1.80582 3.11317 0
M  V30 360 C 33.3502 3.31387 3.01474 0
M  V30 361 C 35.0942 1.70621 3.88701 0
M  V30 362 C 33.0012 4.00791 4.3488 0
M  V30 363 H 31.9312 0.384179 0.648785 0
M  V30 364 H 34.5822 1.4584 1.11368 0
M  V30 365 H 32.9642 1.31175 3.73643 0
M  V30 366 H 34.1382 3.88155 2.4834 0
M  V30 367 H 32.4532 3.41976 2.37575 0
M  V30 368 H 35.0502 2.19799 4.87434 0
M  V30 369 H 35.3932 0.665823 4.10941 0
M  V30 370 H 35.9262 2.17547 3.33044 0
M  V30 371 H 32.6652 5.05064 4.1784 0
M  V30 372 H 32.1852 3.48811 4.87945 0
M  V30 373 H 33.8642 4.06139 5.03647 0
M  V30 374 N 33.9963 -1.19345 1.0293 0
M  V30 375 C 35.4073 -1.70725 0.755633 0
M  V30 376 C 35.7583 -1.82326 -0.724676 0
M  V30 377 O 34.8833 -1.49471 -1.56484 0
M  V30 378 C 35.4783 -3.10084 1.36503 0
M  V30 379 C 34.0373 -3.58723 1.13994 0
M  V30 380 C 33.1843 -2.35577 1.46283 0
M  V30 381 H 36.1353 -1.0418 1.19718 0
M  V30 382 H 36.1563 -3.72787 0.762217 0
M  V30 383 H 35.6683 -3.01609 2.44241 0
M  V30 384 H 33.7693 -3.72512 0.0807901 0
M  V30 385 H 33.8823 -4.42816 1.82894 0
M  V30 386 H 32.2463 -2.38935 0.88217 0
M  V30 387 H 33.0293 -2.29731 2.55105 0
M  V30 388 N 35.4744 -0.807222 -1.35358 0
M  V30 389 C 36.4064 -0.175717 -2.28525 0
M  V30 390 C 37.4194 0.625354 -1.5031 0
M  V30 391 O 38.6084 0.457611 -1.72535 0
M  V30 392 C 35.7084 0.773471 -3.29956 0
M  V30 393 C 34.8814 0.0186296 -4.37396 0
M  V30 394 C 33.9404 0.886395 -5.18681 0
M  V30 395 O 32.9664 0.337106 -5.68201 0
M  V30 396 N 34.1684 2.20839 -5.36852 0
M  V30 397 H 36.9334 -0.976091 -2.83359 0
M  V30 398 H 34.4944 -0.662737 -1.47714 0
M  V30 399 H 36.4864 1.35824 -3.81227 0
M  V30 400 H 35.0564 1.47465 -2.75632 0
M  V30 401 H 34.2764 -0.747349 -3.87051 0
M  V30 402 H 35.5644 -0.501577 -5.06322 0
M  V30 403 H 34.9624 2.67858 -4.98265 0
M  V30 404 H 33.5194 2.74237 -5.91301 0
M  V30 405 N 36.9525 1.47285 -0.560781 0
M  V30 406 C 37.8845 2.28118 0.222438 0
M  V30 407 C 38.8975 1.37219 0.876056 0
M  V30 408 O 40.0865 1.62011 0.749307 0
M  V30 409 C 37.1865 3.1159 1.33285 0
M  V30 410 C 36.3595 4.30473 0.77534 0
M  V30 411 C 35.4185 4.95513 1.77069 0
M  V30 412 O 34.4445 5.53792 1.31539 0
M  V30 413 N 35.6465 4.90531 3.10418 0
M  V30 414 H 38.4115 2.95976 -0.470958 0
M  V30 415 H 35.9725 1.56955 -0.39709 0
M  V30 416 H 37.9645 3.51967 1.99752 0
M  V30 417 H 36.5345 2.45951 1.92943 0
M  V30 418 H 35.7545 3.94144 -0.0662113 0
M  V30 419 H 37.0425 5.07362 0.382272 0
M  V30 420 H 36.4405 4.44389 3.5005 0
M  V30 421 H 34.9975 5.34917 3.72434 0
M  V30 422 N 38.4306 0.297415 1.54768 0
M  V30 423 C 39.3936 -0.567375 2.22066 0
M  V30 424 C 40.3936 -1.06409 1.20556 0
M  V30 425 O 41.5836 -0.960691 1.45315 0
M  V30 426 C 38.7156 -1.78517 2.90421 0
M  V30 427 H 39.9086 0.0205534 2.99893 0
M  V30 428 H 37.4616 0.0482163 1.56226 0
M  V30 429 H 38.1966 -2.41303 2.16664 0
M  V30 430 H 37.9816 -1.43669 3.64831 0
M  V30 431 H 39.4716 -2.39964 3.41771 0
M  V30 432 N 39.9087 -1.5758 0.0250728 0
M  V30 433 C 41.1387 -1.95646 -0.663783 0
M  V30 434 C 41.5467 -0.899935 -1.66427 0
M  V30 435 O 40.8897 0.127191 -1.83259 0
M  V30 436 C 40.9517 -3.29835 -1.43 0
M  V30 437 C 40.6157 -4.53197 -0.588305 0
M  V30 438 C 41.6127 -5.19726 0.13469 0
M  V30 439 C 39.2977 -4.99529 -0.526897 0
M  V30 440 C 41.2917 -6.30902 0.90781 0
M  V30 441 C 38.9787 -6.10589 0.24993 0
M  V30 442 C 39.9767 -6.76134 0.965994 0
M  V30 443 O 39.6647 -7.85062 1.7301 0
M  V30 444 H 39.3967 -0.649282 -0.188174 0
M  V30 445 H 41.9507 -2.05245 0.0799006 0
M  V30 446 H 40.1807 -3.16716 -2.21873 0
M  V30 447 H 41.8697 -3.52833 -2.00658 0
M  V30 448 H 42.6357 -4.84904 0.0965562 0
M  V30 449 H 38.5147 -4.48319 -1.07381 0
M  V30 450 H 42.0587 -6.81995 1.46724 0
M  V30 451 H 37.9557 -6.44849 0.289795 0
M  V30 452 H 38.7237 -8.01708 1.64944 0
M  V30 453 N 41.3868 0.248026 -1.55636 0
M  V30 454 C 42.3498 1.29044 -1.89421 0
M  V30 455 C 43.3498 1.41134 -0.770581 0
M  V30 456 O 44.5398 1.39854 -1.03858 0
M  V30 457 C 41.6718 2.66831 -2.12165 0
M  V30 458 H 42.8648 1.00305 -2.82629 0
M  V30 459 H 40.4178 0.487265 -1.48511 0
M  V30 460 H 41.1528 3.00711 -1.21422 0
M  V30 461 H 40.9378 2.59438 -2.93997 0
M  V30 462 H 42.4278 3.42103 -2.3949 0
M  V30 463 N 42.8649 1.48995 0.513639 0
M  V30 464 C 43.7749 1.67443 1.64317 0
M  V30 465 C 44.7909 0.556947 1.64846 0
M  V30 466 O 45.9669 0.830082 1.83498 0
M  V30 467 C 43.0319 1.72515 3.00732 0
M  V30 468 C 42.0929 2.96009 3.1093 0
M  V30 469 C 41.3259 3.00829 4.40837 0
M  V30 470 O 41.5489 2.13594 5.28898 0
M  V30 471 O 40.4829 3.93168 4.55744 0
M  V30 472 H 44.3089 2.63106 1.51687 0
M  V30 473 H 41.8939 1.32588 0.688543 0
M  V30 474 H 43.7759 1.78277 3.81831 0
M  V30 475 H 42.4509 0.800278 3.13651 0
M  V30 476 H 41.3579 2.9577 2.29065 0
M  V30 477 H 42.6909 3.87934 3.02933 0
M  V30 478 N 44.343 -0.763751 1.37857 0
M  V30 479 C 45.571 -1.55293 1.36718 0
M  V30 480 C 45.986 -1.88745 -0.0455434 0
M  V30 481 O 45.343 -1.52039 -1.00947 0
M  V30 482 C 45.394 -2.85831 2.2132 0
M  V30 483 O 45.115 -2.5381 3.57089 0
M  V30 484 C 46.616 -3.80023 2.28249 0
M  V30 485 H 43.836 -0.480841 0.468009 0
M  V30 486 H 46.38 -0.946009 1.81303 0
M  V30 487 H 44.535 -3.42926 1.80223 0
M  V30 488 H 44.949 -3.37459 4.01524 0
M  V30 489 H 46.423 -4.68599 2.91752 0
M  V30 490 H 46.9 -4.1973 1.2932 0
M  V30 491 H 47.506 -3.28855 2.69693 0
M  V30 492 N 45.8211 -1.22559 -0.990812 0
M  V30 493 C 47.0491 -1.07779 -1.76611 0
M  V30 494 C 47.4641 0.371513 -1.85109 0
M  V30 495 O 46.8211 1.25737 -1.32274 0
M  V30 496 C 46.8721 -1.68512 -3.19822 0
M  V30 497 O 46.5931 -3.07774 -3.1178 0
M  V30 498 C 48.0941 -1.59035 -4.13791 0
M  V30 499 H 45.3141 -0.377729 -0.554583 0
M  V30 500 H 47.8581 -1.62195 -1.24551 0
M  V30 501 H 46.0131 -1.18154 -3.68942 0
M  V30 502 H 46.4271 -3.37062 -4.01858 0
M  V30 503 H 47.9011 -2.0625 -5.1202 0
M  V30 504 H 48.3781 -0.547273 -4.35777 0
M  V30 505 H 48.9841 -2.08709 -3.70568 0
M  V30 506 N 47.2992 1.18797 -1.03562 0
M  V30 507 C 48.2292 2.24472 -0.643019 0
M  V30 508 C 49.2102 1.66433 0.351283 0
M  V30 509 O 50.3952 1.92803 0.232505 0
M  V30 510 C 47.5252 3.473 4.24935e-05 0
M  V30 511 C 46.4792 4.18055 -0.917257 0
M  V30 512 C 45.8052 5.34519 -0.138941 0
M  V30 513 C 47.1052 4.72109 -2.23407 0
M  V30 514 H 48.7992 2.57566 -1.52643 0
M  V30 515 H 46.3452 1.23806 -0.735394 0
M  V30 516 H 48.2982 4.20426 0.286383 0
M  V30 517 H 47.0222 3.13424 0.918299 0
M  V30 518 H 45.6812 3.46821 -1.1879 0
M  V30 519 H 45.3292 4.96891 0.781562 0
M  V30 520 H 45.0292 5.82794 -0.750005 0
M  V30 521 H 46.5532 6.10438 0.1405 0
M  V30 522 H 47.9672 5.36955 -2.00879 0
M  V30 523 H 46.3642 5.30897 -2.79765 0
M  V30 524 H 47.4342 3.89807 -2.88407 0
M  V30 525 N 48.7773 0.814389 1.34928 0
M  V30 526 C 50.0053 0.411136 2.02774 0
M  V30 527 C 50.4203 -0.980316 1.61354 0
M  V30 528 O 49.7773 -1.63299 0.814847 0
M  V30 529 C 49.8283 0.493865 3.58111 0
M  V30 530 O 49.5493 1.83047 3.98027 0
M  V30 531 C 51.0503 0.0844174 4.4322 0
M  V30 532 H 48.2703 0.166037 0.650133 0
M  V30 533 H 50.8143 1.10018 1.72384 0
M  V30 534 H 48.9693 -0.147006 3.87121 0
M  V30 535 H 49.3833 1.79872 4.92693 0
M  V30 536 H 50.8573 0.193404 5.51661 0
M  V30 537 H 51.3343 -0.97113 4.28329 0
M  V30 538 H 51.9403 0.69875 4.19521 0
M  V30 539 N 50.2554 -1.46986 0.568584 0
M  V30 540 C 51.6664 -1.86188 0.138219 0
M  V30 541 C 52.0174 -1.47388 -1.29504 0
M  V30 542 O 51.1424 -0.88219 -1.97602 0
M  V30 543 C 51.7374 -3.3792 0.244065 0
M  V30 544 C 50.2964 -3.76171 -0.131335 0
M  V30 545 C 49.4434 -2.71027 0.586465 0
M  V30 546 H 52.3944 -1.38342 0.777645 0
M  V30 547 H 52.4154 -3.76729 -0.534351 0
M  V30 548 H 51.9274 -3.66128 1.28731 0
M  V30 549 H 50.0284 -3.5358 -1.17526 0
M  V30 550 H 50.1414 -4.78523 0.235146 0
M  V30 551 H 48.5054 -2.54684 0.0282722 0
M  V30 552 H 49.2884 -3.02077 1.63109 0
M  V30 553 N 51.7335 -0.305618 -1.54608 0
M  V30 554 C 52.9615 0.304775 -2.04643 0
M  V30 555 C 53.3765 1.47167 -1.18268 0
M  V30 556 O 52.7335 1.81296 -0.209328 0
M  V30 557 C 52.7845 0.756564 -3.53495 0
M  V30 558 O 52.5055 -0.36389 -4.36586 0
M  V30 559 C 54.0065 1.43163 -4.19546 0
M  V30 560 H 51.2265 0.0655481 -0.667791 0
M  V30 561 H 53.7705 -0.446592 -1.99564 0
M  V30 562 H 51.9255 1.45794 -3.58919 0
M  V30 563 H 52.3395 -0.0113121 -5.24499 0
M  V30 564 H 53.8135 1.69886 -5.25207 0
M  V30 565 H 54.2905 2.37318 -3.69563 0
M  V30 566 H 54.8965 0.773307 -4.18211 0
M  V30 567 N 53.2116 1.57565 -0.0334293 0
M  V30 568 C 54.1746 2.09393 0.932048 0
M  V30 569 C 55.1746 1.00986 1.25134 0
M  V30 570 O 56.3646 1.27129 1.19096 0
M  V30 571 C 53.4966 2.56338 2.2473 0
M  V30 572 H 54.6896 2.95984 0.483085 0
M  V30 573 H 52.2426 1.54819 0.21468 0
M  V30 574 H 52.9776 1.7309 2.74245 0
M  V30 575 H 52.7626 3.35542 2.02865 0
M  V30 576 H 54.2526 2.96646 2.93923 0
M  V30 577 N 54.6897 -0.239769 1.55765 0
M  V30 578 C 55.9177 -0.98417 1.81994 0
M  V30 579 C 56.3327 -1.7867 0.610124 0
M  V30 580 O 55.6897 -1.77571 -0.421271 0
M  V30 581 C 55.7407 -1.91635 3.06526 0
M  V30 582 O 55.4617 -1.14629 4.22838 0
M  V30 583 C 56.9627 -2.77616 3.45607 0
M  V30 584 H 54.1827 -0.28928 0.605441 0
M  V30 585 H 56.7267 -0.260499 2.02834 0
M  V30 586 H 54.8817 -2.5942 2.87715 0
M  V30 587 H 55.2957 -1.77745 4.93464 0
M  V30 588 H 56.7697 -3.38759 4.35828 0
M  V30 589 H 57.2467 -3.4909 2.6652 0
M  V30 590 H 57.8527 -2.15271 3.66795 0
M  V30 591 N 56.1678 -1.49265 -0.50573 0
M  V30 592 C 57.1158 -1.66065 -1.62866 0
M  V30 593 C 58.1098 -0.526636 -1.61006 0
M  V30 594 O 59.3158 -0.706126 -1.65571 0
M  V30 595 H 55.6908 -0.52356 -0.539805 0
M  V30 596 H 57.6618 -2.60329 -1.45848 0
M  V30 597 C 56.4108 -1.74008 -3.01026 0
M  V30 598 H 55.7338 -2.6064 -3.03161 0
M  V30 599 H 57.1738 -1.89798 -3.79147 0
M  V30 600 C 55.6328 -0.483868 -3.33407 0
M  V30 601 O 56.1628 0.392548 -3.99777 0
M  V30 602 N 54.3688 -0.348236 -2.88506 0
M  V30 603 H 53.9158 -1.06242 -2.34671 0
M  V30 604 H 53.8738 0.491204 -3.10539 0
M  V30 605 N 57.6459 0.756429 -1.3826 0
M  V30 606 C 58.5929 1.87011 -1.35261 0
M  V30 607 C 59.5629 1.64695 -0.215616 0
M  V30 608 O 60.7479 1.864 -0.407399 0
M  V30 609 C 57.8879 3.24275 -1.18068 0
M  V30 610 C 57.0009 3.58442 -2.41129 0
M  V30 611 C 56.1359 4.84994 -2.16689 0
M  V30 612 C 55.1749 5.11939 -3.35537 0
M  V30 613 N 54.3119 6.29685 -3.10549 0
M  V30 614 H 59.1519 1.8891 -2.30472 0
M  V30 615 H 56.6889 0.923373 -1.14509 0
M  V30 616 H 58.6469 4.03479 -1.06116 0
M  V30 617 H 57.2769 3.21711 -0.264973 0
M  V30 618 H 56.3289 2.74103 -2.63764 0
M  V30 619 H 57.6409 3.74283 -3.29717 0
M  V30 620 H 56.7949 5.72135 -2.01857 0
M  V30 621 H 55.5339 4.71286 -1.25462 0
M  V30 622 H 54.5389 4.23268 -3.50891 0
M  V30 623 H 55.7639 5.27546 -4.27635 0
M  V30 624 H 53.7099 6.17306 -2.21967 0
M  V30 625 H 53.6269 6.46014 -3.92686 0
M  V30 626 H 54.8949 7.19722 -2.99367 0
M  V30 627 N 59.124 1.23083 0.984299 0
M  V30 628 C 60.352 1.08714 1.76037 0
M  V30 629 C 60.767 -0.361691 1.85303 0
M  V30 630 O 60.124 -1.25034 1.32939 0
M  V30 631 C 60.175 1.70206 3.18923 0
M  V30 632 O 59.896 3.09423 3.10144 0
M  V30 633 C 61.397 1.61227 4.12941 0
M  V30 634 H 58.617 0.380664 0.552572 0
M  V30 635 H 61.161 1.62853 1.23689 0
M  V30 636 H 59.316 1.20109 3.6831 0
M  V30 637 H 59.73 3.39188 4.00065 0
M  V30 638 H 61.204 2.08962 5.10919 0
M  V30 639 H 61.681 0.570375 4.35481 0
M  V30 640 H 62.287 2.10671 3.69456 0
M  V30 641 N 60.6021 -1.18246 1.0419 0
M  V30 642 C 61.5651 -2.20128 0.638452 0
M  V30 643 C 62.5651 -1.57885 -0.304805 0
M  V30 644 O 63.7551 -1.73967 -0.0900369 0
M  V30 645 C 60.8871 -3.4084 -0.0637751 0
M  V30 646 H 62.0801 -2.57336 1.54007 0
M  V30 647 H 59.6331 -1.32152 0.834598 0
M  V30 648 H 60.3681 -3.09166 -0.979136 0
M  V30 649 H 60.1531 -3.8726 0.614198 0
M  V30 650 H 61.6431 -4.16274 -0.332512 0
M  V30 651 N 62.0802 -0.821533 -1.34494 0
M  V30 652 C 63.3052 -0.420873 -2.03085 0
M  V30 653 C 63.7302 0.964915 -1.61465 0
M  V30 654 O 63.0882 1.62763 -0.798607 0
M  V30 655 C 63.1362 -0.529414 -3.56693 0
M  V30 656 O 62.2402 0.451302 -4.09923 0
M  V30 657 H 61.5812 -0.173489 -0.640935 0
M  V30 658 H 64.1112 -1.11157 -1.71771 0
M  V30 659 H 64.1212 -0.404671 -4.05988 0
M  V30 660 H 62.7962 -1.54014 -3.86332 0
M  V30 661 H 61.3732 0.285558 -3.71805 0
M  V30 662 N 63.5583 1.46682 -0.576371 0
M  V30 663 C 64.8073 2.01619 -0.0572825 0
M  V30 664 C 65.1203 1.45417 1.30818 0
M  V30 665 O 66.3263 1.92133 1.91825 0
M  V30 666 C 64.7823 3.59863 -0.0518371 0
M  V30 667 C 64.3903 4.25059 -1.41523 0
M  V30 668 C 66.1343 4.2248 0.413639 0
M  V30 669 C 64.0413 5.75364 -1.36785 0
M  V30 670 H 62.9713 0.753794 -0.0176448 0
M  V30 671 H 65.6223 1.68481 -0.727076 0
M  V30 672 H 64.0043 3.90048 0.683994 0
M  V30 673 H 65.1783 4.06491 -2.17029 0
M  V30 674 H 63.4933 3.7451 -1.8202 0
M  V30 675 H 66.0903 5.3265 0.467779 0
M  V30 676 H 66.4333 3.90976 1.42982 0
M  V30 677 H 66.9663 3.96897 -0.267929 0
M  V30 678 H 63.7053 6.11518 -2.36063 0
M  V30 679 H 63.2253 5.96214 -0.654895 0
M  V30 680 H 64.9043 6.37955 -1.07805 0
M  V30 681 N 65.0364 0.313813 1.54444 0
M  V30 682 C 65.9684 -0.590425 2.21465 0
M  V30 683 C 66.9814 -1.08753 1.21147 0
M  V30 684 O 68.1704 -1.00278 1.4767 0
M  V30 685 C 65.2704 -1.82179 2.85769 0
M  V30 686 C 64.4434 -1.46502 4.12136 0
M  V30 687 C 63.5024 -2.55288 4.60124 0
M  V30 688 O 62.5284 -2.19842 5.25032 0
M  V30 689 N 63.7304 -3.86053 4.33525 0
M  V30 690 H 66.4954 -0.0166033 2.99695 0
M  V30 691 H 64.0564 0.136578 1.61323 0
M  V30 692 H 66.0484 -2.54328 3.14801 0
M  V30 693 H 64.6184 -2.30369 2.11303 0
M  V30 694 H 63.8384 -0.575595 3.89975 0
M  V30 695 H 65.1264 -1.20221 4.94393 0
M  V30 696 H 64.5244 -4.17654 3.81552 0
M  V30 697 H 63.0814 -4.54461 4.67235 0
M  V30 698 N 66.5145 -1.57545 0.0417849 0
M  V30 699 C 67.4445 -2.14009 -0.933929 0
M  V30 700 C 68.4255 -1.05938 -1.33083 0
M  V30 701 O 69.6105 -1.33833 -1.40721 0
M  V30 702 C 66.7405 -2.67747 -2.21199 0
M  V30 703 C 65.6945 -3.80718 -1.95544 0
M  V30 704 C 65.0205 -4.20935 -3.29724 0
M  V30 705 C 66.3205 -5.06258 -1.28452 0
M  V30 706 H 68.0145 -2.95788 -0.463645 0
M  V30 707 H 65.5605 -1.42285 -0.221573 0
M  V30 708 H 67.5135 -3.05886 -2.89848 0
M  V30 709 H 66.2375 -1.83147 -2.70416 0
M  V30 710 H 64.8965 -3.43037 -1.2931 0
M  V30 711 H 64.5445 -3.33298 -3.76724 0
M  V30 712 H 64.2445 -4.9707 -3.13361 0
M  V30 713 H 65.7685 -4.61666 -3.9962 0
M  V30 714 H 67.1825 -5.41903 -1.8712 0
M  V30 715 H 65.5795 -5.87475 -1.22445 0
M  V30 716 H 66.6495 -4.84207 -0.259219 0
M  V30 717 N 67.9926 0.231505 -1.5589 0
M  V30 718 C 69.2206 0.974505 -1.82513 0
M  V30 719 C 69.6356 1.78344 -0.619591 0
M  V30 720 O 68.9926 1.77792 0.411848 0
M  V30 721 C 69.0436 1.90007 -3.07538 0
M  V30 722 O 68.7646 1.12385 -4.2344 0
M  V30 723 C 70.2656 2.75779 -3.47075 0
M  V30 724 H 67.4856 0.286065 -0.606966 0
M  V30 725 H 70.0296 0.249739 -2.02969 0
M  V30 726 H 68.1846 2.57891 -2.89086 0
M  V30 727 H 68.5986 1.75125 -4.944 0
M  V30 728 H 70.0726 3.36443 -4.37619 0
M  V30 729 H 70.5496 3.47672 -2.68367 0
M  V30 730 H 71.1556 2.13323 -3.67931 0
M  V30 731 N 69.4707 1.49531 0.497807 0
M  V30 732 C 70.6957 1.63159 1.28039 0
M  V30 733 C 71.1207 0.30418 1.85624 0
M  V30 734 O 70.4787 -0.728618 1.66015 0
M  V30 735 C 70.5267 2.70537 2.38416 0
M  V30 736 O 69.6307 2.29931 3.42353 0
M  V30 737 H 68.9717 0.546001 0.377861 0
M  V30 738 H 71.5017 1.9574 0.59558 0
M  V30 739 H 71.5117 2.92802 2.84132 0
M  V30 740 H 70.1867 3.6689 1.95869 0
M  V30 741 H 68.7637 2.18009 3.02533 0
M  V30 742 N 70.9488 -0.749086 1.3866 0
M  V30 743 C 72.2258 -1.4992 1.25632 0
M  V30 744 C 72.6058 -2.10633 -0.140317 0
M  V30 745 O 71.9538 -1.97437 -1.15025 0
M  V30 746 C 72.1638 -2.56195 2.36992 0
M  V30 747 C 73.5118 -3.22972 2.75634 0
M  V30 748 O 74.5358 -2.66502 2.36337 0
M  V30 749 O 73.3948 -4.25122 3.43415 0
M  V30 750 H 70.4888 -0.665067 0.491544 0
M  V30 751 H 73.0348 -0.784113 1.50498 0
M  V30 752 H 71.8068 -2.09612 3.30422 0
M  V30 753 H 71.4298 -3.35279 2.13714 0
M  V30 754 N 72.4269 -1.23603 -0.977757 0
M  V30 755 C 73.6729 -1.07129 -1.72195 0
M  V30 756 C 74.0059 0.390501 -1.90233 0
M  V30 757 O 73.2809 1.28902 -1.45653 0
M  V30 758 C 73.5639 -1.80031 -3.11867 0
M  V30 759 C 73.4169 -3.33899 -3.01383 0
M  V30 760 C 74.7359 -1.56492 -4.11337 0
M  V30 761 H 71.8549 -0.390571 -0.624999 0
M  V30 762 H 74.4969 -1.52142 -1.13811 0
M  V30 763 H 72.6469 -1.41768 -3.6171 0
M  V30 764 H 74.3189 -3.81699 -2.59043 0
M  V30 765 H 72.5619 -3.62796 -2.37827 0
M  V30 766 H 73.2329 -3.801 -4.00285 0
M  V30 767 H 75.7089 -1.89757 -3.70313 0
M  V30 768 H 74.5849 -2.09973 -5.07151 0
M  V30 769 H 74.8459 -0.500874 -4.39254 0
M  V30 770 N 73.905 1.17692 -1.04816 0
M  V30 771 C 74.855 2.1952 -0.616042 0
M  V30 772 C 75.839 1.57147 0.345485 0
M  V30 773 O 77.031 1.76245 0.163325 0
M  V30 774 C 74.16 3.43298 0.0116917 0
M  V30 775 C 73.246 4.12777 -0.973435 0
M  V30 776 N 73.637 4.5814 -2.14339 0
M  V30 777 C 71.935 4.38747 -0.80108 0
M  V30 778 C 72.636 5.11713 -2.7663 0
M  V30 779 N 71.612 5.03686 -2.04453 0
M  V30 780 H 75.414 2.52293 -1.5075 0
M  V30 781 H 72.928 1.3398 -0.917776 0
M  V30 782 H 74.925 4.15519 0.339006 0
M  V30 783 H 73.585 3.12018 0.898593 0
M  V30 784 H 74.596 4.52349 -2.52191 0
M  V30 785 H 71.273 4.17485 0.0350934 0
M  V30 786 H 72.663 5.56962 -3.75823 0
M  V30 787 N 75.3831 0.828654 1.34056 0
M  V30 788 C 76.6111 0.43262 2.02326 0
M  V30 789 C 77.0261 -0.963147 1.62385 0
M  V30 790 O 76.3831 -1.62425 0.832121 0
M  V30 791 C 76.4341 0.53182 3.57567 0
M  V30 792 O 76.1551 1.87258 3.96063 0
M  V30 793 C 77.6561 0.131422 4.43105 0
M  V30 794 H 74.8761 0.172923 0.648335 0
M  V30 795 H 77.4201 1.1184 1.71208 0
M  V30 796 H 75.5751 -0.105938 3.87255 0
M  V30 797 H 75.9891 1.85087 4.90758 0
M  V30 798 H 77.4631 0.251904 5.51425 0
M  V30 799 H 77.9401 -0.925645 4.29335 0
M  V30 800 H 78.5461 0.743207 4.18756 0
M  V30 801 N 76.8612 -1.46375 0.584142 0
M  V30 802 C 77.7912 -2.33103 -0.136037 0
M  V30 803 C 78.7722 -1.45431 -0.882255 0
M  V30 804 O 79.9572 -1.74246 -0.857434 0
M  V30 805 C 77.0872 -3.27731 -1.14933 0
M  V30 806 C 76.0412 -4.24855 -0.517862 0
M  V30 807 C 75.3672 -5.09001 -1.63773 0
M  V30 808 C 76.6672 -5.19439 0.545886 0
M  V30 809 H 78.3612 -2.93568 0.588086 0
M  V30 810 H 75.9072 -1.41166 0.284259 0
M  V30 811 H 77.8602 -3.87261 -1.66153 0
M  V30 812 H 76.5842 -2.65377 -1.90375 0
M  V30 813 H 75.2432 -3.6659 -0.0267361 0
M  V30 814 H 74.8912 -4.43031 -2.38185 0
M  V30 815 H 74.5912 -5.74777 -1.22085 0
M  V30 816 H 76.1152 -5.71396 -2.15266 0
M  V30 817 H 77.5292 -5.73177 0.118704 0
M  V30 818 H 75.9262 -5.93566 0.88317 0
M  V30 819 H 76.9962 -4.63285 1.43162 0
M  V30 820 N 78.3393 -0.321999 -1.54275 0
M  V30 821 C 79.3023 0.531975 -2.22941 0
M  V30 822 C 80.3023 1.04478 -1.22234 0
M  V30 823 O 81.4923 0.937452 -1.46825 0
M  V30 824 C 78.6243 1.73874 -2.93224 0
M  V30 825 H 79.8173 -0.0682612 -2.99822 0
M  V30 826 H 77.3703 -0.0730644 -1.56129 0
M  V30 827 H 78.1053 2.37825 -2.20476 0
M  V30 828 H 77.8903 1.37847 -3.6707 0
M  V30 829 H 79.3803 2.34496 -3.45545 0
M  V30 830 N 79.8174 1.5752 -0.0501392 0
M  V30 831 C 81.0634 1.92936 0.624798 0
M  V30 832 C 81.3964 0.928685 1.70555 0
M  V30 833 O 80.6714 -0.0454779 1.94447 0
M  V30 834 C 80.9544 3.38737 1.22185 0
M  V30 835 C 80.8074 4.49552 0.149218 0
M  V30 836 C 82.1264 3.84913 2.13378 0
M  V30 837 H 79.2454 0.701604 0.225657 0
M  V30 838 H 81.8874 1.89671 -0.111693 0
M  V30 839 H 80.0374 3.4165 1.84953 0
M  V30 840 H 81.7094 4.58768 -0.482648 0
M  V30 841 H 79.9524 4.30638 -0.522841 0
M  V30 842 H 80.6234 5.48653 0.606966 0
M  V30 843 H 83.0994 3.8387 1.60572 0
M  V30 844 H 81.9754 4.87584 2.52097 0
M  V30 845 H 82.2364 3.21611 3.03346 0
M  V30 846 N 81.2955 -0.223234 1.56011 0
M  V30 847 C 82.5445 -0.945912 1.78144 0
M  V30 848 C 82.8575 -1.85567 0.618396 0
M  V30 849 O 84.0635 -2.61688 0.723318 0
M  V30 850 C 82.5195 -1.73216 3.15475 0
M  V30 851 C 82.1275 -0.868619 4.39499 0
M  V30 852 C 83.8715 -2.44615 3.46935 0
M  V30 853 C 81.7785 -1.65212 5.67855 0
M  V30 854 H 80.7085 -0.356929 0.664167 0
M  V30 855 H 83.3595 -0.199845 1.82409 0
M  V30 856 H 81.7415 -2.52107 3.05382 0
M  V30 857 H 82.9155 -0.120366 4.60643 0
M  V30 858 H 81.2305 -0.26683 4.15544 0
M  V30 859 H 83.8275 -3.03732 4.40058 0
M  V30 860 H 84.1705 -3.17417 2.69355 0
M  V30 861 H 84.7035 -1.72715 3.58349 0
M  V30 862 H 81.4425 -0.967407 6.48322 0
M  V30 863 H 80.9625 -2.37503 5.50774 0
M  V30 864 H 82.6415 -2.21322 6.07968 0
M  V30 865 N 82.7736 -1.49793 -0.48987 0
M  V30 866 C 83.7216 -1.67783 -1.61095 0
M  V30 867 C 84.7156 -0.543683 -1.60438 0
M  V30 868 O 85.9216 -0.723647 -1.64813 0
M  V30 869 H 82.2966 -0.529255 -0.534222 0
M  V30 870 H 84.2676 -2.61861 -1.43078 0
M  V30 871 C 83.0166 -1.77191 -2.99164 0
M  V30 872 H 82.3396 -2.63841 -3.0038 0
M  V30 873 H 83.7796 -1.93809 -3.77113 0
M  V30 874 C 82.2386 -0.519203 -3.32875 0
M  V30 875 O 82.7686 0.350124 -4.00171 0
M  V30 876 N 80.9746 -0.378816 -2.8812 0
M  V30 877 H 80.5216 -1.08725 -2.33531 0
M  V30 878 H 80.4796 0.458239 -3.11043 0
M  V30 879 N 84.2517 0.741722 -1.39055 0
M  V30 880 C 85.4797 1.53098 -1.39171 0
M  V30 881 C 85.8947 1.88794 0.0155099 0
M  V30 882 O 85.2517 1.53626 0.985159 0
M  V30 883 C 85.3027 2.82274 -2.2584 0
M  V30 884 O 85.0237 2.48097 -3.61081 0
M  V30 885 C 86.5247 3.76343 -2.34266 0
M  V30 886 H 83.7447 0.473335 -0.4756 0
M  V30 887 H 86.2887 0.917045 -1.82785 0
M  V30 888 H 84.4437 3.40015 -1.85656 0
M  V30 889 H 84.8577 3.31029 -4.06842 0
M  V30 890 H 86.3317 4.63898 -2.9917 0
M  V30 891 H 86.8087 4.17619 -1.35982 0
M  V30 892 H 87.4147 3.24523 -2.74891 0
M  V30 893 N 85.7298 1.2412 0.971189 0
M  V30 894 C 86.9768 1.07881 1.71371 0
M  V30 895 C 87.3048 -0.382901 1.90694 0
M  V30 896 O 86.5598 -1.29945 1.46331 0
M  V30 897 C 86.8588 1.75983 3.11071 0
M  V30 898 C 86.5248 3.25909 3.11599 0
M  V30 899 C 85.1868 3.66813 3.11451 0
M  V30 900 C 87.5388 4.21771 3.062 0
M  V30 901 C 84.8668 5.02021 3.03631 0
M  V30 902 C 87.2188 5.56982 2.99923 0
M  V30 903 C 85.8828 5.97237 2.98102 0
M  V30 904 H 85.1528 0.394764 0.62709 0
M  V30 905 H 87.7998 1.54176 1.13587 0
M  V30 906 H 86.1048 1.22072 3.72298 0
M  V30 907 H 87.8018 1.60887 3.6731 0
M  V30 908 H 84.3918 2.93353 3.12477 0
M  V30 909 H 88.5758 3.91172 3.05447 0
M  V30 910 H 83.8318 5.32411 3.0058 0
M  V30 911 H 88.0058 6.30969 2.94704 0
M  V30 912 H 85.6328 7.01967 2.91798 0
M  V30 913 N 87.2079 -1.17134 1.05439 0
M  V30 914 C 88.4849 -1.83411 0.679699 0
M  V30 915 C 88.8649 -1.9368 -0.839726 0
M  V30 916 O 88.2129 -1.47325 -1.74664 0
M  V30 917 C 88.4229 -3.20918 1.37159 0
M  V30 918 C 89.7709 -3.96796 1.51123 0
M  V30 919 O 90.7949 -3.30406 1.3308 0
M  V30 920 O 89.6539 -5.15778 1.80651 0
M  V30 921 H 86.7479 -0.79154 0.239569 0
M  V30 922 H 89.2939 -1.24411 1.15413 0
M  V30 923 H 88.0659 -3.08428 2.40807 0
M  V30 924 H 87.6889 -3.87587 0.886674 0
M  V30 925 N 88.686 -0.835752 -1.33615 0
M  V30 926 C 89.934 -0.429109 -1.97492 0
M  V30 927 C 90.255 1.01433 -1.66543 0
M  V30 928 O 89.525 1.70611 -0.962744 0
M  V30 929 H 88.105 -0.155686 -0.730596 0
M  V30 930 H 90.767 -1.06802 -1.63031 0
M  V30 931 H 89.863 -0.55861 -3.0706 0
M  V30 932 N 90.1641 1.46063 -0.591896 0
M  V30 933 C 91.4101 2.02638 -0.0811191 0
M  V30 934 C 91.7431 1.4613 1.27905 0
M  V30 935 O 91.0181 0.629908 1.84017 0
M  V30 936 C 91.3011 3.60091 -0.0252436 0
M  V30 937 C 91.1541 4.26965 -1.41496 0
M  V30 938 C 92.4731 4.3496 0.670685 0
M  V30 939 H 89.5921 0.73635 -0.0309524 0
M  V30 940 H 92.2341 1.741 -0.760859 0
M  V30 941 H 90.3841 3.84535 0.553624 0
M  V30 942 H 92.0561 4.13756 -2.0397 0
M  V30 943 H 90.2991 3.85971 -1.98011 0
M  V30 944 H 90.9701 5.35781 -1.32825 0
M  V30 945 H 93.4461 4.15716 0.178825 0
M  V30 946 H 92.3221 5.44686 0.678837 0
M  V30 947 H 92.5831 4.06685 1.73379 0
M  V30 948 N 91.6422 0.330177 1.54103 0
M  V30 949 C 92.6052 -0.520144 2.2322 0
M  V30 950 C 93.6052 -1.03828 1.22786 0
M  V30 951 O 94.7952 -0.929652 1.4732 0
M  V30 952 C 91.9272 -1.72317 2.94142 0
M  V30 953 H 93.1202 0.0841605 2.99782 0
M  V30 954 H 90.6732 0.0813433 1.56088 0
M  V30 955 H 91.4082 -2.36653 2.21734 0
M  V30 956 H 91.1932 -1.35898 3.67796 0
M  V30 957 H 92.6832 -2.3266 3.46784 0
M  V30 958 N 93.1203 -1.57491 0.0584922 0
M  V30 959 C 94.3973 -1.84346 -0.653918 0
M  V30 960 C 94.7773 -0.948355 -1.88599 0
M  V30 961 O 94.1253 -0.0112403 -2.28497 0
M  V30 962 C 94.3353 -3.34239 -1.00425 0
M  V30 963 C 95.6833 -4.01431 -1.38342 0
M  V30 964 O 96.7073 -3.38907 -1.09637 0
M  V30 965 O 95.5663 -5.11683 -1.91943 0
M  V30 966 H 92.6603 -0.761112 -0.323478 0
M  V30 967 H 95.2063 -1.6947 0.0884125 0
M  V30 968 H 93.9783 -3.91089 -0.128625 0
M  V30 969 H 93.6013 -3.54329 -1.80378 0
M  V30 970 N 94.5984 0.214957 -1.56127 0
M  V30 971 C 95.8284 0.953707 -1.8327 0
M  V30 972 C 96.2364 1.78181 -0.636262 0
M  V30 973 O 95.5794 1.79191 0.404516 0
M  V30 974 C 95.6414 1.91516 -3.0424 0
M  V30 975 C 95.3054 1.27094 -4.38972 0
M  V30 976 C 96.3024 0.657575 -5.15725 0
M  V30 977 C 93.9874 1.28073 -4.85698 0
M  V30 978 C 95.9814 0.0625968 -6.37369 0
M  V30 979 C 93.6684 0.681914 -6.07283 0
M  V30 980 C 94.6664 0.0739046 -6.8296 0
M  V30 981 O 94.3544 -0.515582 -8.02245 0
M  V30 982 H 94.0864 0.284764 -0.613095 0
M  V30 983 H 96.6404 0.233283 -2.04071 0
M  V30 984 H 94.8704 2.67475 -2.79274 0
M  V30 985 H 96.5594 2.52001 -3.18198 0
M  V30 986 H 97.3254 0.642288 -4.80728 0
M  V30 987 H 93.2044 1.74337 -4.26764 0
M  V30 988 H 96.7484 -0.412593 -6.96379 0
M  V30 989 H 92.6454 0.694636 -6.41752 0
M  V30 990 H 93.4134 -0.410544 -8.1747 0
M  V30 991 N 96.0765 1.50051 0.48192 0
M  V30 992 C 97.0065 1.71046 1.58951 0
M  V30 993 C 97.9875 0.559288 1.60642 0
M  V30 994 O 99.1725 0.797243 1.77081 0
M  V30 995 C 96.3025 1.79462 2.97339 0
M  V30 996 C 95.2565 2.94558 3.10515 0
M  V30 997 C 94.5825 2.88105 4.50444 0
M  V30 998 C 95.8825 4.35227 2.88747 0
M  V30 999 H 97.5765 2.6378 1.41635 0
M  V30 1000 H 95.1225 1.26936 0.679942 0
M  V30 1001 H 97.0755 1.92734 3.74742 0
M  V30 1002 H 95.7995 0.833412 3.15788 0
M  V30 1003 H 94.4585 2.80918 2.35543 0
M  V30 1004 H 94.1065 1.89853 4.65795 0
M  V30 1005 H 93.8065 3.65366 4.60197 0
M  V30 1006 H 95.3305 3.03412 5.29881 0
M  V30 1007 H 96.7445 4.49449 3.55905 0
M  V30 1008 H 95.1415 5.13856 3.09955 0
M  V30 1009 H 96.2115 4.48347 1.84696 0
M  V30 1010 N 97.5546 -0.734337 1.39446 0
M  V30 1011 C 98.8036 -1.48937 1.36017 0
M  V30 1012 C 99.1166 -1.95557 -0.0409005 0
M  V30 1013 O 100.323 -2.70779 -0.19778 0
M  V30 1014 C 98.7786 -2.69125 2.38955 0
M  V30 1015 C 98.3866 -2.29452 3.8478 0
M  V30 1016 C 100.131 -3.46944 2.44603 0
M  V30 1017 C 98.0376 -3.46366 4.79358 0
M  V30 1018 H 96.9676 -0.559296 0.505672 0
M  V30 1019 H 99.6186 -0.800983 1.65095 0
M  V30 1020 H 98.0006 -3.40041 2.02948 0
M  V30 1021 H 99.1746 -1.66077 4.29831 0
M  V30 1022 H 97.4896 -1.64723 3.82433 0
M  V30 1023 H 100.087 -4.33907 3.12456 0
M  V30 1024 H 100.43 -3.89454 1.47076 0
M  V30 1025 H 100.963 -2.83056 2.79507 0
M  V30 1026 H 97.7016 -3.08905 5.78151 0
M  V30 1027 H 97.2216 -4.08719 4.38986 0
M  V30 1028 H 98.9006 -4.12691 4.98292 0
M  V30 1029 N 99.0327 -1.24633 -0.964593 0
M  V30 1030 C 100.449 -1.01239 -1.2338 0
M  V30 1031 C 100.649 0.2769 -1.99588 0
M  V30 1032 O 99.7047 0.992241 -2.32187 0
M  V30 1033 C 101.018 -2.22937 -2.01791 0
M  V30 1034 C 102.566 -2.27594 -2.14872 0
M  V30 1035 C 103.041 -3.48921 -2.96678 0
M  V30 1036 N 104.532 -3.49257 -3.04259 0
M  V30 1037 C 105.267 -4.39795 -3.67924 0
M  V30 1038 N 104.763 -5.40591 -4.33281 0
M  V30 1039 N 106.556 -4.275 -3.64966 0
M  V30 1040 H 98.7067 -2.0748 -0.454502 0
M  V30 1041 H 100.97 -0.910647 -0.26349 0
M  V30 1042 H 100.676 -3.16587 -1.53184 0
M  V30 1043 H 100.55 -2.25306 -3.02518 0
M  V30 1044 H 102.937 -1.34473 -2.6268 0
M  V30 1045 H 103.018 -2.2925 -1.13482 0
M  V30 1046 H 102.662 -4.42359 -2.49562 0
M  V30 1047 H 102.592 -3.4451 -3.98272 0
M  V30 1048 H 105.083 -2.76337 -2.57771 0
M  V30 1049 H 105.396 -6.05904 -4.79687 0
M  V30 1050 H 103.741 -5.44475 -4.3194 0
M  V30 1051 H 106.932 -3.47987 -3.13086 0
M  V30 1052 H 107.105 -4.98258 -4.14298 0
M  V30 1053 N 100.511 1.16574 -1.06058 0
M  V30 1054 C 101.741 1.90675 -0.795397 0
M  V30 1055 C 102.149 1.77547 0.653735 0
M  V30 1056 O 101.492 1.11611 1.45907 0
M  V30 1057 C 101.554 3.42011 -1.10764 0
M  V30 1058 C 101.218 3.78924 -2.55471 0
M  V30 1059 C 102.215 3.81042 -3.53699 0
M  V30 1060 C 99.8998 4.09626 -2.90708 0
M  V30 1061 C 101.894 4.13346 -4.85205 0
M  V30 1062 C 99.5808 4.41597 -4.22416 0
M  V30 1063 C 100.579 4.43436 -5.19474 0
M  V30 1064 O 100.267 4.74649 -6.48817 0
M  V30 1065 H 99.9988 0.611554 -0.288058 0
M  V30 1066 H 102.553 1.48711 -1.41683 0
M  V30 1067 H 100.783 3.84312 -0.429128 0
M  V30 1068 H 102.472 3.97384 -0.827077 0
M  V30 1069 H 103.238 3.57437 -3.27817 0
M  V30 1070 H 99.1168 4.07361 -2.15819 0
M  V30 1071 H 102.661 4.14696 -5.60957 0
M  V30 1072 H 98.5578 4.64667 -4.48056 0
M  V30 1073 H 99.3258 4.9247 -6.5377 0
M  V30 1074 N 101.989 0.842826 1.3317 0
M  V30 1075 C 102.936 0.276885 2.29133 0
M  V30 1076 C 103.906 -0.609527 1.54512 0
M  V30 1077 O 105.091 -0.546955 1.82792 0
M  V30 1078 C 102.231 -0.538707 3.40869 0
M  V30 1079 C 101.344 0.372169 4.30394 0
M  V30 1080 C 100.479 -0.454908 5.29249 0
M  V30 1081 C 99.5179 0.45411 6.10413 0
M  V30 1082 N 98.6549 -0.335075 7.013 0
M  V30 1083 H 103.495 1.10052 2.76934 0
M  V30 1084 H 101.032 0.554161 1.36262 0
M  V30 1085 H 102.99 -1.02709 4.0436 0
M  V30 1086 H 101.62 -1.32727 2.9425 0
M  V30 1087 H 100.672 0.97888 3.6759 0
M  V30 1088 H 101.984 1.0703 4.87182 0
M  V30 1089 H 101.138 -1.00695 5.98285 0
M  V30 1090 H 99.8769 -1.18646 4.73048 0
M  V30 1091 H 98.8819 1.01813 5.40291 0
M  V30 1092 H 100.107 1.18409 6.68697 0
M  V30 1093 H 98.0529 -1.04994 6.47543 0
M  V30 1094 H 97.9699 0.304262 7.55387 0
M  V30 1095 H 99.2379 -0.869224 7.74638 0
M  V30 1096 N 103.467 -1.45747 0.599634 0
M  V30 1097 C 104.883 -1.57424 0.26264 0
M  V30 1098 C 105.083 -1.59222 -1.23493 0
M  V30 1099 O 104.139 -1.51825 -2.01756 0
M  V30 1100 C 105.452 -2.86061 0.926795 0
M  V30 1101 C 107 -2.99722 0.901967 0
M  V30 1102 C 107.475 -4.31119 1.54598 0
M  V30 1103 N 108.966 -4.37858 1.5111 0
M  V30 1104 C 109.701 -5.3818 1.97863 0
M  V30 1105 N 109.197 -6.45083 2.52666 0
M  V30 1106 N 110.99 -5.29487 1.88679 0
M  V30 1107 H 103.141 -1.42823 1.57211 0
M  V30 1108 H 105.404 -0.68235 0.658105 0
M  V30 1109 H 105.11 -2.90605 1.98095 0
M  V30 1110 H 104.984 -3.74563 0.445238 0
M  V30 1111 H 107.371 -2.9475 -0.143617 0
M  V30 1112 H 107.452 -2.12652 1.42171 0
M  V30 1113 H 107.096 -4.36849 2.59085 0
M  V30 1114 H 107.026 -5.16992 1.00132 0
M  V30 1115 H 109.517 -3.61209 1.11068 0
M  V30 1116 H 109.83 -7.17869 2.86155 0
M  V30 1117 H 108.175 -6.45856 2.56701 0
M  V30 1118 H 111.366 -4.44877 1.4561 0
M  V30 1119 H 111.539 -6.07524 2.25429 0
M  V30 1120 N 104.945 -0.338344 -1.53925 0
M  V30 1121 C 105.875 0.51328 -2.27789 0
M  V30 1122 C 106.856 1.107 -1.29149 0
M  V30 1123 O 108.041 1.12937 -1.57984 0
M  V30 1124 C 105.171 1.66697 -3.04679 0
M  V30 1125 C 104.125 1.20183 -4.1078 0
M  V30 1126 C 103.451 2.44363 -4.75595 0
M  V30 1127 C 104.751 0.30605 -5.21403 0
M  V30 1128 H 106.445 -0.102883 -2.99223 0
M  V30 1129 H 103.991 -0.0509219 -1.4391 0
M  V30 1130 H 105.944 2.26915 -3.55088 0
M  V30 1131 H 104.668 2.30995 -2.30887 0
M  V30 1132 H 103.327 0.622499 -3.61276 0
M  V30 1133 H 102.975 3.07057 -3.98403 0
M  V30 1134 H 102.675 2.13925 -5.47275 0
M  V30 1135 H 104.199 3.05317 -5.28786 0
M  V30 1136 H 105.613 0.814929 -5.67478 0
M  V30 1137 H 104.01 0.0937929 -6.00027 0
M  V30 1138 H 105.08 -0.65921 -4.80398 0
M  V30 1139 N 106.423 1.57458 -0.0668435 0
M  V30 1140 C 107.834 1.80776 0.466558 0
M  V30 1141 C 108.185 0.980361 1.69951 0
M  V30 1142 O 107.31 0.201441 2.1546 0
M  V30 1143 C 107.905 3.27881 0.85321 0
M  V30 1144 C 106.464 3.52062 1.3315 0
M  V30 1145 C 105.611 2.75513 0.314264 0
M  V30 1146 H 108.562 1.5598 -0.292588 0
M  V30 1147 H 108.583 3.39659 1.715 0
M  V30 1148 H 108.095 3.88075 -0.0443439 0
M  V30 1149 H 106.196 2.97167 2.24772 0
M  V30 1150 H 106.309 4.60762 1.31285 0
M  V30 1151 H 104.673 2.42123 0.790492 0
M  V30 1152 H 105.456 3.38442 -0.575477 0
M  V30 1153 N 107.901 -0.206675 1.56239 0
M  V30 1154 C 109.178 -0.954051 1.70755 0
M  V30 1155 C 109.558 -2.01841 0.618353 0
M  V30 1156 O 108.906 -2.25444 -0.372434 0
M  V30 1157 C 109.116 -1.551 3.12642 0
M  V30 1158 C 110.464 -2.03757 3.72516 0
M  V30 1159 O 111.488 -1.64965 3.15698 0
M  V30 1160 O 110.347 -2.75103 4.72208 0
M  V30 1161 H 107.441 -0.446636 0.696021 0
M  V30 1162 H 109.987 -0.197283 1.68549 0
M  V30 1163 H 108.759 -0.783212 3.83382 0
M  V30 1164 H 108.382 -2.37291 3.19028 0
M  V30 1165 N 109.379 -1.50304 -0.473955 0
M  V30 1166 C 110.327 -1.69482 -1.59307 0
M  V30 1167 C 111.321 -0.560669 -1.59853 0
M  V30 1168 O 112.527 -0.741087 -1.64036 0
M  V30 1169 H 108.902 -0.534892 -0.528578 0
M  V30 1170 H 110.873 -2.63364 -1.40293 0
M  V30 1171 C 109.622 -1.80354 -2.97267 0
M  V30 1172 H 108.945 -2.67012 -2.97564 0
M  V30 1173 H 110.385 -1.97798 -3.75036 0
M  V30 1174 C 108.844 -0.55448 -3.32306 0
M  V30 1175 O 109.374 0.307661 -4.0052 0
M  V30 1176 N 107.58 -0.409354 -2.87702 0
M  V30 1177 H 107.127 -1.11196 -2.32364 0
M  V30 1178 H 107.085 0.425223 -3.11511 0
M  V30 1179 N 110.857 0.726932 -1.39834 0
M  V30 1180 C 112.087 1.51393 -1.40583 0
M  V30 1181 C 112.495 1.892 -0.000740625 0
M  V30 1182 O 111.838 1.55189 0.982951 0
M  V30 1183 C 111.9 2.82588 -2.22226 0
M  V30 1184 C 111.564 2.67169 -3.70769 0
M  V30 1185 C 112.561 2.3518 -4.63666 0
M  V30 1186 C 110.246 2.83788 -4.14451 0
M  V30 1187 C 112.24 2.20002 -5.98229 0
M  V30 1188 C 109.927 2.68229 -5.49087 0
M  V30 1189 C 110.925 2.36382 -6.4079 0
M  V30 1190 O 110.613 2.2093 -7.72946 0
M  V30 1191 H 110.345 0.474168 -0.48181 0
M  V30 1192 H 112.899 0.905247 -1.84376 0
M  V30 1193 H 111.129 3.45746 -1.73195 0
M  V30 1194 H 112.818 3.44247 -2.15055 0
M  V30 1195 H 113.584 2.21984 -4.31217 0
M  V30 1196 H 109.463 3.07566 -3.43401 0
M  V30 1197 H 113.007 1.95067 -6.69772 0
M  V30 1198 H 108.904 2.81006 -5.81125 0
M  V30 1199 H 109.672 2.35937 -7.83757 0
M  V30 1200 N 112.336 1.25143 0.95797 0
M  V30 1201 C 113.585 1.0909 1.69654 0
M  V30 1202 C 113.898 -0.368548 1.92097 0
M  V30 1203 O 115.104 -0.649455 2.63618 0
M  V30 1204 C 113.56 1.90395 3.05414 0
M  V30 1205 C 113.168 3.4081 2.90779 0
M  V30 1206 C 114.912 1.82901 3.83076 0
M  V30 1207 C 112.819 4.14423 4.21909 0
M  V30 1208 H 111.749 0.404625 0.636235 0
M  V30 1209 H 114.4 1.4931 1.06672 0
M  V30 1210 H 112.782 1.42996 3.69281 0
M  V30 1211 H 113.956 3.95859 2.35865 0
M  V30 1212 H 112.271 3.49361 2.26575 0
M  V30 1213 H 114.868 2.35196 4.80195 0
M  V30 1214 H 115.211 0.796224 4.08615 0
M  V30 1215 H 115.744 2.28033 3.25954 0
M  V30 1216 H 112.483 5.18102 4.01561 0
M  V30 1217 H 112.003 3.64159 4.76601 0
M  V30 1218 H 113.682 4.21956 4.90471 0
M  V30 1219 N 113.814 -1.1601 1.06675 0
M  V30 1220 C 115.042 -1.90527 0.806667 0
M  V30 1221 C 115.457 -1.77643 -0.639396 0
M  V30 1222 O 114.814 -1.12369 -1.43803 0
M  V30 1223 C 114.865 -3.41106 1.19705 0
M  V30 1224 O 114.586 -3.53608 2.58636 0
M  V30 1225 C 116.087 -4.32663 0.965266 0
M  V30 1226 H 113.307 -0.604053 0.292166 0
M  V30 1227 H 115.851 -1.47026 1.4214 0
M  V30 1228 H 114.006 -3.82296 0.626774 0
M  V30 1229 H 114.42 -4.47011 2.74375 0
M  V30 1230 H 115.894 -5.36763 1.288 0
M  V30 1231 H 116.371 -4.39089 -0.0987936 0
M  V30 1232 H 116.977 -3.97206 1.52011 0
M  V30 1233 N 115.292 -0.849877 -1.32721 0
M  V30 1234 C 116.239 -0.289033 -2.28983 0
M  V30 1235 C 117.209 0.601324 -1.54833 0
M  V30 1236 O 118.394 0.537253 -1.8308 0
M  V30 1237 C 115.534 0.520623 -3.4115 0
M  V30 1238 C 114.647 -0.394989 -4.3019 0
M  V30 1239 C 113.782 0.426834 -5.29482 0
M  V30 1240 C 112.821 -0.486476 -6.10164 0
M  V30 1241 N 111.958 0.297879 -7.01468 0
M  V30 1242 H 116.798 -1.11519 -2.76347 0
M  V30 1243 H 114.335 -0.56138 -1.35967 0
M  V30 1244 H 116.293 1.00563 -4.04899 0
M  V30 1245 H 114.923 1.31165 -2.9495 0
M  V30 1246 H 113.975 -0.99836 -3.67065 0
M  V30 1247 H 115.287 -1.09612 -4.86607 0
M  V30 1248 H 114.441 0.975205 -5.98811 0
M  V30 1249 H 113.18 1.16136 -4.73671 0
M  V30 1250 H 112.185 -1.04677 -5.39743 0
M  V30 1251 H 113.41 -1.21953 -6.6806 0
M  V30 1252 H 111.356 1.01558 -6.48091 0
M  V30 1253 H 111.273 -0.344318 -7.55216 0
M  V30 1254 H 112.541 0.828131 -7.75089 0
M  V30 1255 N 116.77 1.45427 -0.607355 0
M  V30 1256 C 117.995 2.07124 -0.107006 0
M  V30 1257 C 118.42 1.44906 1.19933 0
M  V30 1258 O 117.778 0.541687 1.73019 0
M  V30 1259 C 117.826 3.60595 0.0194119 0
M  V30 1260 O 116.93 3.98285 1.0697 0
M  V30 1261 H 116.271 0.659868 -0.0739597 0
M  V30 1262 H 118.801 1.86683 -0.837297 0
M  V30 1263 H 118.811 4.07419 0.2177 0
M  V30 1264 H 117.486 4.05266 -0.934453 0
M  V30 1265 H 116.063 3.63133 0.847889 0
M  V30 1266 N 118.248 0.346503 1.53744 0
M  V30 1267 C 119.18 -0.543316 2.22667 0
M  V30 1268 C 120.193 -1.06159 1.23427 0
M  V30 1269 O 121.382 -0.971235 1.49764 0
M  V30 1270 C 118.482 -1.76076 2.89569 0
M  V30 1271 C 117.655 -1.37727 4.15151 0
M  V30 1272 C 116.714 -2.45471 4.65436 0
M  V30 1273 O 115.74 -2.08655 5.29577 0
M  V30 1274 N 116.942 -3.7677 4.41616 0
M  V30 1275 H 119.707 0.0469703 2.99663 0
M  V30 1276 H 117.268 0.170766 1.60997 0
M  V30 1277 H 119.26 -2.47593 3.20125 0
M  V30 1278 H 117.83 -2.25835 2.16142 0
M  V30 1279 H 117.05 -0.492746 3.91108 0
M  V30 1280 H 118.338 -1.09708 4.96832 0
M  V30 1281 H 117.736 -4.09467 3.90325 0
M  V30 1282 H 116.293 -4.44448 4.7677 0
M  V30 1283 N 119.726 -1.57421 0.075193 0
M  V30 1284 C 120.689 -2.11791 -0.876203 0
M  V30 1285 C 121.689 -1.04268 -1.22412 0
M  V30 1286 O 122.879 -1.30242 -1.15684 0
M  V30 1287 C 120.011 -2.62207 -2.17854 0
M  V30 1288 H 121.204 -2.9716 -0.40444 0
M  V30 1289 H 118.757 -1.55333 -0.173557 0
M  V30 1290 H 119.492 -1.803 -2.6956 0
M  V30 1291 H 119.277 -3.40802 -1.93897 0
M  V30 1292 H 120.767 -3.04335 -2.85955 0
M  V30 1293 N 121.204 0.198386 -1.56346 0
M  V30 1294 C 122.429 0.939682 -1.84891 0
M  V30 1295 C 122.854 1.76202 -0.658369 0
M  V30 1296 O 122.212 1.76993 0.392851 0
M  V30 1297 C 122.26 1.81428 -3.11635 0
M  V30 1298 O 121.364 2.91265 -2.91956 0
M  V30 1299 H 120.705 0.264807 -0.608912 0
M  V30 1300 H 123.235 0.204695 -2.03573 0
M  V30 1301 H 123.245 2.21958 -3.42343 0
M  V30 1302 H 121.92 1.21004 -3.97908 0
M  V30 1303 H 120.497 2.54514 -2.72538 0
M  V30 1304 N 122.682 1.50554 0.465978 0
M  V30 1305 C 123.645 1.69233 1.54574 0
M  V30 1306 C 124.645 0.562901 1.50626 0
M  V30 1307 O 125.835 0.830016 1.53155 0
M  V30 1308 C 122.967 1.7223 2.94193 0
M  V30 1309 H 124.16 2.65571 1.39327 0
M  V30 1310 H 121.713 1.40111 0.692711 0
M  V30 1311 H 122.448 0.77603 3.14878 0
M  V30 1312 H 122.233 2.54285 2.98466 0
M  V30 1313 H 123.723 1.88618 3.72576 0
M  V30 1314 N 124.16 -0.719506 1.40217 0
M  V30 1315 C 125.09 -1.8465 1.42922 0
M  V30 1316 C 126.071 -1.67599 0.29062 0
M  V30 1317 O 127.256 -1.87688 0.498677 0
M  V30 1318 C 124.386 -3.22565 1.28722 0
M  V30 1319 C 123.34 -3.54281 2.40144 0
M  V30 1320 C 122.666 -4.91298 2.11023 0
M  V30 1321 C 123.966 -3.55676 3.82481 0
M  V30 1322 H 125.66 -1.82644 2.37237 0
M  V30 1323 H 123.206 -0.877305 1.1419 0
M  V30 1324 H 125.159 -4.01095 1.29232 0
M  V30 1325 H 123.883 -3.25137 0.308811 0
M  V30 1326 H 122.542 -2.78088 2.38877 0
M  V30 1327 H 122.19 -4.90468 1.11582 0
M  V30 1328 H 121.89 -5.13485 2.8567 0
M  V30 1329 H 123.414 -5.72166 2.13209 0
M  V30 1330 H 124.828 -4.24254 3.85592 0
M  V30 1331 H 123.225 -3.89388 4.56614 0
M  V30 1332 H 124.295 -2.55144 4.12346 0
M  V30 1333 N 125.638 -1.25649 -0.95132 0
M  V30 1334 C 126.886 -1.10375 -1.69298 0
M  V30 1335 C 127.207 0.355339 -1.91735 0
M  V30 1336 O 126.477 1.25188 -1.50681 0
M  V30 1337 H 125.057 -0.405461 -0.627384 0
M  V30 1338 H 127.719 -1.57823 -1.14358 0
M  V30 1339 H 126.815 -1.61465 -2.67087 0
M  V30 1340 N 127.117 1.15442 -1.07289 0
M  V30 1341 C 128.363 1.8672 -0.806679 0
M  V30 1342 C 128.718 1.80723 0.660084 0
M  V30 1343 O 128.011 1.21902 1.47819 0
M  V30 1344 C 128.205 3.3489 -1.24834 0
M  V30 1345 C 128.034 3.55313 -2.7565 0
M  V30 1346 C 126.804 3.7082 -3.4325 0
M  V30 1347 C 129.002 3.53188 -3.73848 0
M  V30 1348 N 126.984 3.7929 -4.82713 0
M  V30 1349 C 128.355 3.67765 -4.99149 0
M  V30 1350 C 130.41 3.36459 -3.67015 0
M  V30 1351 C 129.113 3.6734 -6.18428 0
M  V30 1352 C 131.139 3.37333 -4.85758 0
M  V30 1353 C 130.501 3.52438 -6.09891 0
M  V30 1354 H 126.6 0.700433 -0.347733 0
M  V30 1355 H 129.184 1.38441 -1.36902 0
M  V30 1356 H 127.355 3.81786 -0.713713 0
M  V30 1357 H 129.087 3.93875 -0.929745 0
M  V30 1358 H 125.842 3.71568 -2.93656 0
M  V30 1359 H 126.266 3.8727 -5.55294 0
M  V30 1360 H 130.908 3.237 -2.71989 0
M  V30 1361 H 128.626 3.78878 -7.13777 0
M  V30 1362 H 132.212 3.25617 -4.82146 0
M  V30 1363 H 131.092 3.53047 -7.00234 0
M  V30 1364 N 128.595 0.856903 1.32268 0
M  V30 1365 C 129.841 0.462069 1.97466 0
M  V30 1366 C 130.174 -0.980298 1.67642 0
M  V30 1367 O 129.449 -1.68824 0.965858 0
M  V30 1368 C 129.732 0.704336 3.53145 0
M  V30 1369 C 129.585 2.19529 3.9259 0
M  V30 1370 C 130.904 0.1622 4.39801 0
M  V30 1371 H 128.023 0.169357 0.717278 0
M  V30 1372 H 130.665 1.07574 1.56614 0
M  V30 1373 H 128.815 0.181999 3.88073 0
M  V30 1374 H 130.487 2.78387 3.67829 0
M  V30 1375 H 128.73 2.67292 3.41668 0
M  V30 1376 H 129.401 2.31549 5.01088 0
M  V30 1377 H 131.877 0.608905 4.11621 0
M  V30 1378 H 130.753 0.361265 5.4771 0
M  V30 1379 H 131.014 -0.935158 4.32096 0
M  V30 1380 N 130.073 -1.45103 0.615059 0
M  V30 1381 C 131.036 -2.29025 -0.0895485 0
M  V30 1382 C 132.036 -1.40174 -0.787906 0
M  V30 1383 O 133.226 -1.62217 -0.634933 0
M  V30 1384 C 130.358 -3.21376 -1.13711 0
M  V30 1385 H 131.551 -2.92807 0.648382 0
M  V30 1386 H 129.104 -1.51749 0.374444 0
M  V30 1387 H 129.839 -2.6241 -1.90556 0
M  V30 1388 H 129.624 -3.86834 -0.640475 0
M  V30 1389 H 131.114 -3.84459 -1.63036 0
M  V30 1390 N 131.551 -0.354651 -1.53558 0
M  V30 1391 C 132.776 0.242153 -2.05981 0
M  V30 1392 C 133.201 1.42553 -1.2272 0
M  V30 1393 O 132.559 1.79656 -0.243604 0
M  V30 1394 C 132.607 0.624367 -3.55154 0
M  V30 1395 O 131.711 1.72301 -3.74681 0
M  V30 1396 H 131.052 0.0378432 -0.662921 0
M  V30 1397 H 133.582 -0.512087 -1.98088 0
M  V30 1398 H 133.592 0.898433 -3.97985 0
M  V30 1399 H 132.267 -0.240989 -4.15201 0
M  V30 1400 H 130.844 1.44535 -3.4375 0
M  V30 1401 N 133.029 1.57378 -0.0835403 0
M  V30 1402 C 133.976 2.13384 0.879539 0
M  V30 1403 C 134.946 1.04936 1.28754 0
M  V30 1404 O 136.131 1.32662 1.37133 0
M  V30 1405 C 133.271 2.70932 2.13752 0
M  V30 1406 C 132.384 3.93575 1.7811 0
M  V30 1407 C 131.519 4.39326 2.98607 0
M  V30 1408 C 130.558 5.54587 2.59037 0
M  V30 1409 N 129.695 5.95243 3.72331 0
M  V30 1410 H 134.535 2.9537 0.395076 0
M  V30 1411 H 132.072 1.45953 0.183349 0
M  V30 1412 H 134.03 3.02411 2.87408 0
M  V30 1413 H 132.66 1.91693 2.59718 0
M  V30 1414 H 131.712 3.68483 0.94469 0
M  V30 1415 H 133.024 4.77258 1.45005 0
M  V30 1416 H 132.178 4.72528 3.80529 0
M  V30 1417 H 130.917 3.5452 3.34913 0
M  V30 1418 H 129.922 5.21024 1.75539 0
M  V30 1419 H 131.147 6.41133 2.23887 0
M  V30 1420 H 129.093 5.13385 4.08378 0
M  V30 1421 H 129.01 6.73694 3.43034 0
M  V30 1422 H 130.278 6.33072 4.54797 0
M  V30 1423 N 134.507 -0.190092 1.56449 0
M  V30 1424 C 135.755 -0.907908 1.80559 0
M  V30 1425 C 136.076 -1.83583 0.657438 0
M  V30 1426 O 135.346 -1.93203 -0.323924 0
M  V30 1427 H 133.926 -0.338247 0.666032 0
M  V30 1428 H 136.588 -0.194403 1.93928 0
M  V30 1429 H 135.684 -1.49604 2.73907 0
M  V30 1430 N 135.985 -1.50799 -0.457987 0
M  V30 1431 C 136.933 -1.71162 -1.575 0
M  V30 1432 C 137.927 -0.577592 -1.59249 0
M  V30 1433 O 139.133 -0.758443 -1.63241 0
M  V30 1434 H 135.508 -0.540468 -0.522875 0
M  V30 1435 H 137.479 -2.64837 -1.37492 0
M  V30 1436 C 136.228 -1.83496 -2.95338 0
M  V30 1437 H 135.551 -2.70153 -2.94716 0
M  V30 1438 H 136.991 -2.01765 -3.72917 0
M  V30 1439 C 135.45 -0.589694 -3.31699 0
M  V30 1440 O 135.98 0.265163 -4.00824 0
M  V30 1441 N 134.186 -0.439845 -2.87252 0
M  V30 1442 H 133.733 -1.13655 -2.31172 0
M  V30 1443 H 133.691 0.392159 -3.11945 0
M  V30 1444 N 137.463 0.71206 -1.40597 0
M  V30 1445 C 138.393 1.83889 -1.43899 0
M  V30 1446 C 139.374 1.67442 -0.299504 0
M  V30 1447 O 140.559 1.87421 -0.508624 0
M  V30 1448 C 137.689 3.21877 -1.30431 0
M  V30 1449 C 136.643 3.53002 -2.42019 0
M  V30 1450 C 135.969 4.90172 -2.13626 0
M  V30 1451 C 137.269 3.53643 -3.84362 0
M  V30 1452 H 138.963 1.81383 -2.38203 0
M  V30 1453 H 136.509 0.871237 -1.14654 0
M  V30 1454 H 138.462 4.00404 -1.31357 0
M  V30 1455 H 137.186 3.24968 -0.326049 0
M  V30 1456 H 135.845 2.76818 -2.40349 0
M  V30 1457 H 135.493 4.89869 -1.14182 0
M  V30 1458 H 135.193 5.11962 -2.88389 0
M  V30 1459 H 136.717 5.71028 -2.1624 0
M  V30 1460 H 138.131 4.22203 -3.87837 0
M  V30 1461 H 136.528 3.86961 -4.58673 0
M  V30 1462 H 137.598 2.52954 -4.13693 0
M  V30 1463 N 138.941 1.26152 0.944643 0
M  V30 1464 C 139.904 1.07474 2.0244 0
M  V30 1465 C 140.904 0.0242064 1.60782 0
M  V30 1466 O 142.094 0.267302 1.72137 0
M  V30 1467 C 139.226 0.633956 3.34953 0
M  V30 1468 H 140.419 2.03336 2.20442 0
M  V30 1469 H 137.972 1.087 1.12312 0
M  V30 1470 H 138.707 -0.326811 3.22649 0
M  V30 1471 H 138.492 1.39247 3.66542 0
M  V30 1472 H 139.982 0.52501 4.14287 0
M  V30 1473 N 140.419 -1.14872 1.07899 0
M  V30 1474 C 141.329 -2.2341 0.715915 0
M  V30 1475 C 142.345 -1.71808 -0.275306 0
M  V30 1476 O 143.521 -2.01039 -0.120545 0
M  V30 1477 C 140.586 -3.46474 0.125168 0
M  V30 1478 C 139.647 -4.13039 1.17034 0
M  V30 1479 C 138.88 -5.30229 0.607688 0
M  V30 1480 O 139.103 -5.675 -0.574497 0
M  V30 1481 O 138.037 -5.86444 1.35526 0
M  V30 1482 H 141.863 -2.56808 1.62121 0
M  V30 1483 H 139.448 -1.22702 0.852322 0
M  V30 1484 H 141.33 -4.20917 -0.201729 0
M  V30 1485 H 140.005 -3.14811 -0.753364 0
M  V30 1486 H 138.912 -3.40493 1.54968 0
M  V30 1487 H 140.245 -4.48796 2.02097 0
M  V30 1488 N 141.898 -0.863906 -1.31812 0
M  V30 1489 C 143.144 -0.472535 -1.97218 0
M  V30 1490 C 143.477 0.971394 -1.68159 0
M  V30 1491 O 142.752 1.68309 -0.974798 0
M  V30 1492 C 143.035 -0.723054 -3.52766 0
M  V30 1493 C 142.888 -2.21608 -3.91421 0
M  V30 1494 C 144.207 -0.185522 -4.39709 0
M  V30 1495 H 141.326 -0.173158 -0.71637 0
M  V30 1496 H 143.968 -1.08403 -1.56041 0
M  V30 1497 H 142.118 -0.202577 -3.87971 0
M  V30 1498 H 143.79 -2.80334 -3.66347 0
M  V30 1499 H 142.033 -2.691 -3.40246 0
M  V30 1500 H 142.704 -2.34203 -4.99853 0
M  V30 1501 H 145.18 -0.630726 -4.11292 0
M  V30 1502 H 144.056 -0.390306 -5.47511 0
M  V30 1503 H 144.317 0.912229 -4.32586 0
M  V30 1504 N 143.376 1.44774 -0.622745 0
M  V30 1505 C 144.339 2.29069 0.0774015 0
M  V30 1506 C 145.339 1.4059 0.780461 0
M  V30 1507 O 146.529 1.62551 0.626322 0
M  V30 1508 C 143.661 3.21974 1.12006 0
M  V30 1509 H 144.854 2.92459 -0.663901 0
M  V30 1510 H 142.407 1.51548 -0.382486 0
M  V30 1511 H 143.142 2.63417 1.89162 0
M  V30 1512 H 142.927 3.87168 0.619951 0
M  V30 1513 H 144.417 3.85318 1.60995 0
M  V30 1514 N 144.854 0.36279 1.53368 0
M  V30 1515 C 146.265 -0.117022 1.86333 0
M  V30 1516 C 146.616 -1.48397 1.28347 0
M  V30 1517 O 145.741 -2.07787 0.604428 0
M  V30 1518 C 146.336 -0.21912 3.38091 0
M  V30 1519 C 144.895 -0.643184 3.70864 0
M  V30 1520 C 144.042 0.211318 2.76494 0
M  V30 1521 H 146.993 0.581687 1.47655 0
M  V30 1522 H 147.014 -1.04319 3.6592 0
M  V30 1523 H 146.526 0.775902 3.80265 0
M  V30 1524 H 144.627 -1.64654 3.34245 0
M  V30 1525 H 144.74 -0.41973 4.77258 0
M  V30 1526 H 143.104 -0.319367 2.5269 0
M  V30 1527 H 143.887 1.20383 3.21501 0
M  V30 1528 N 146.332 -1.57332 0.0918853 0
M  V30 1529 C 147.58 -1.93853 -0.571446 0
M  V30 1530 C 147.901 -0.974212 -1.6892 0
M  V30 1531 O 147.171 -0.0257254 -1.95883 0
M  V30 1532 H 145.751 -0.715666 -0.214082 0
M  V30 1533 H 148.413 -1.94287 0.154464 0
M  V30 1534 H 147.509 -2.96191 -0.983729 0
M  V30 1535 N 147.81 0.181792 -1.56548 0
M  V30 1536 C 148.757 1.22521 -1.95595 0
M  V30 1537 C 149.727 1.4454 -0.818373 0
M  V30 1538 O 150.912 1.57454 -1.07763 0
M  V30 1539 C 148.052 2.56193 -2.31212 0
M  V30 1540 C 147.165 2.41641 -3.58097 0
M  V30 1541 C 146.3 3.68108 -3.82975 0
M  V30 1542 C 145.339 3.48445 -5.03242 0
M  V30 1543 N 144.476 4.66956 -5.24306 0
M  V30 1544 H 149.316 0.885226 -2.84548 0
M  V30 1545 H 146.853 0.425718 -1.40805 0
M  V30 1546 H 148.811 3.34088 -2.49882 0
M  V30 1547 H 147.441 2.88208 -1.45382 0
M  V30 1548 H 146.493 1.54976 -3.474 0
M  V30 1549 H 147.805 2.23052 -4.46149 0
M  V30 1550 H 146.959 4.54441 -4.01956 0
M  V30 1551 H 145.698 3.89666 -2.93278 0
M  V30 1552 H 144.703 2.60499 -4.8417 0
M  V30 1553 H 145.928 3.2832 -5.9446 0
M  V30 1554 H 143.874 4.88752 -4.37559 0
M  V30 1555 H 143.791 4.51242 -6.06561 0
M  V30 1556 H 145.059 5.54602 -5.47756 0
M  V30 1557 N 149.288 1.51039 0.449983 0
M  V30 1558 C 150.513 1.6715 1.22783 0
M  V30 1559 C 150.938 0.363081 1.84563 0
M  V30 1560 O 150.296 -0.675433 1.68249 0
M  V30 1561 C 150.344 2.77985 2.29689 0
M  V30 1562 O 149.448 2.40707 3.34864 0
M  V30 1563 H 148.789 0.557746 0.360299 0
M  V30 1564 H 151.319 1.97535 0.533005 0
M  V30 1565 H 151.329 3.01693 2.74673 0
M  V30 1566 H 150.004 3.72935 1.84098 0
M  V30 1567 H 148.581 2.27523 2.95445 0
M  V30 1568 N 150.766 -0.704594 1.40972 0
M  V30 1569 C 152.015 -1.46018 1.39146 0
M  V30 1570 C 152.328 -1.956 0.000589254 0
M  V30 1571 O 153.534 -2.71137 -0.1403 0
M  V30 1572 C 151.99 -2.63996 2.4461 0
M  V30 1573 C 151.598 -2.21238 3.89561 0
M  V30 1574 C 153.342 -3.41677 2.51907 0
M  V30 1575 C 151.249 -3.3612 4.86598 0
M  V30 1576 H 150.179 -0.548444 0.517422 0
M  V30 1577 H 152.83 -0.765784 1.66757 0
M  V30 1578 H 151.212 -3.3566 2.10115 0
M  V30 1579 H 152.386 -1.56923 4.33257 0
M  V30 1580 H 150.701 -1.56574 3.85841 0
M  V30 1581 H 153.298 -4.27182 3.2159 0
M  V30 1582 H 153.641 -3.86247 1.55303 0
M  V30 1583 H 154.174 -2.77064 2.85448 0
M  V30 1584 H 150.913 -2.96572 5.84573 0
M  V30 1585 H 150.433 -3.99315 4.47557 0
M  V30 1586 H 152.112 -4.02029 5.06934 0
M  V30 1587 N 152.244 -1.26651 -0.937939 0
M  V30 1588 C 153.492 -1.12165 -1.68118 0
M  V30 1589 C 153.813 0.334983 -1.92101 0
M  V30 1590 O 153.083 1.23583 -1.52 0
M  V30 1591 H 151.663 -0.412093 -0.623048 0
M  V30 1592 H 154.325 -1.59027 -1.12678 0
M  V30 1593 H 153.421 -1.64289 -2.6536 0
M  V30 1594 N 153.722 1.14298 -1.08507 0
M  V30 1595 C 154.97 1.84993 -0.813763 0
M  V30 1596 C 155.291 1.83405 0.662393 0
M  V30 1597 O 154.561 1.28319 1.48024 0
M  V30 1598 H 153.141 0.684966 -0.298045 0
M  V30 1599 H 155.803 1.385 -1.37126 0
M  V30 1600 H 154.899 2.89788 -1.15884 0
M  V30 1601 N 155.201 0.870884 1.31352 0
M  V30 1602 C 156.478 0.402907 1.91405 0
M  V30 1603 C 156.858 -1.11512 1.79244 0
M  V30 1604 O 156.206 -1.94411 1.2007 0
M  V30 1605 C 156.416 0.885301 3.37585 0
M  V30 1606 C 157.764 0.911971 4.14691 0
M  V30 1607 O 158.788 0.831016 3.46371 0
M  V30 1608 O 157.647 1.02927 5.3672 0
M  V30 1609 H 154.741 0.120698 0.818145 0
M  V30 1610 H 157.287 0.958857 1.40014 0
M  V30 1611 H 156.059 1.92889 3.40455 0
M  V30 1612 H 155.682 0.307714 3.96407 0
M  V30 1613 N 156.679 -1.44442 0.630414 0
M  V30 1614 C 157.925 -2.02351 0.134816 0
M  V30 1615 C 158.258 -1.4947 -1.23986 0
M  V30 1616 O 157.533 -0.678475 -1.82283 0
M  V30 1617 C 157.816 -3.59898 0.120707 0
M  V30 1618 C 157.669 -4.23063 1.52767 0
M  V30 1619 C 158.988 -4.36585 -0.555127 0
M  V30 1620 H 156.107 -0.73527 0.0504646 0
M  V30 1621 H 158.749 -1.72022 0.806751 0
M  V30 1622 H 156.899 -3.85868 -0.451477 0
M  V30 1623 H 158.571 -4.08202 2.14869 0
M  V30 1624 H 156.814 -3.80586 2.08175 0
M  V30 1625 H 157.485 -5.32071 1.46984 0
M  V30 1626 H 159.961 -4.16044 -0.0685429 0
M  V30 1627 H 158.837 -5.46294 -0.534185 0
M  V30 1628 H 159.098 -4.11138 -1.62535 0
M  V30 1629 N 158.157 -0.370918 -1.53173 0
M  V30 1630 C 159.404 0.217102 -2.01333 0
M  V30 1631 C 159.732 1.48338 -1.25802 0
M  V30 1632 O 158.987 1.92698 -0.34146 0
M  V30 1633 C 159.286 0.549696 -3.53147 0
M  V30 1634 C 158.952 -0.622872 -4.46577 0
M  V30 1635 C 157.614 -0.944595 -4.71838 0
M  V30 1636 C 159.966 -1.40819 -5.01816 0
M  V30 1637 C 157.294 -2.05351 -5.49589 0
M  V30 1638 C 159.646 -2.50757 -5.80778 0
M  V30 1639 C 158.31 -2.83458 -6.04324 0
M  V30 1640 H 157.58 0.0794431 -0.736729 0
M  V30 1641 H 160.227 -0.504481 -1.84736 0
M  V30 1642 H 158.532 1.35237 -3.6772 0
M  V30 1643 H 160.229 1.017 -3.87889 0
M  V30 1644 H 156.819 -0.36209 -4.27068 0
M  V30 1645 H 161.003 -1.17289 -4.82242 0
M  V30 1646 H 156.259 -2.3108 -5.6605 0
M  V30 1647 H 160.433 -3.12022 -6.22588 0
M  V30 1648 H 158.06 -3.69508 -6.64355 0
M  V30 1649 N 159.635 1.57281 -0.100228 0
M  V30 1650 C 160.86 1.99302 0.573881 0
M  V30 1651 C 161.285 0.979059 1.60611 0
M  V30 1652 O 160.643 -0.0517803 1.81226 0
M  V30 1653 C 160.691 3.40274 1.19358 0
M  V30 1654 O 159.795 3.41676 2.30935 0
M  V30 1655 H 159.136 0.647944 0.145138 0
M  V30 1656 H 161.666 2.03779 -0.183156 0
M  V30 1657 H 161.676 3.78078 1.53365 0
M  V30 1658 H 160.351 4.13594 0.437385 0
M  V30 1659 H 158.928 3.15672 1.98509 0
M  V30 1660 N 161.113 -0.173488 1.56642 0
M  V30 1661 C 162.061 -1.23417 1.97157 0
M  V30 1662 C 163.055 -1.45946 0.860013 0
M  V30 1663 O 164.261 -1.46551 1.04512 0
M  V30 1664 H 160.636 -0.414818 0.62724 0
M  V30 1665 H 162.607 -0.865582 2.8557 0
M  V30 1666 C 161.356 -2.5665 2.34576 0
M  V30 1667 H 160.679 -2.40137 3.19647 0
M  V30 1668 H 162.119 -3.2956 2.6677 0
M  V30 1669 C 160.578 -3.15245 1.18836 0
M  V30 1670 O 161.108 -3.98883 0.474869 0
M  V30 1671 N 159.314 -2.74303 0.959497 0
M  V30 1672 H 158.861 -2.0639 1.54146 0
M  V30 1673 H 158.819 -3.13844 0.186932 0
M  V30 1674 N 162.591 -1.51276 -0.441967 0
M  V30 1675 C 164.007 -1.39349 -0.778083 0
M  V30 1676 C 164.207 -0.472212 -1.95889 0
M  V30 1677 O 163.263 0.0743551 -2.5239 0
M  V30 1678 C 164.576 -2.81292 -1.0628 0
M  V30 1679 C 166.124 -2.9041 -1.16751 0
M  V30 1680 C 166.599 -4.33251 -1.48519 0
M  V30 1681 N 168.09 -4.36336 -1.55453 0
M  V30 1682 C 168.825 -5.43885 -1.81596 0
M  V30 1683 N 168.321 -6.61601 -2.05562 0
M  V30 1684 N 170.114 -5.3136 -1.8334 0
M  V30 1685 H 162.265 -2.09729 0.335774 0
M  V30 1686 H 164.528 -0.943925 0.0878028 0
M  V30 1687 H 164.234 -3.50678 -0.267905 0
M  V30 1688 H 164.108 -3.20334 -1.99163 0
M  V30 1689 H 166.495 -2.21225 -1.95304 0
M  V30 1690 H 166.576 -2.54871 -0.217801 0
M  V30 1691 H 166.22 -5.02984 -0.704958 0
M  V30 1692 H 166.15 -4.66299 -2.44689 0
M  V30 1693 H 168.641 -3.51466 -1.38853 0
M  V30 1694 H 168.954 -7.39361 -2.24867 0
M  V30 1695 H 167.299 -6.64725 -2.02894 0
M  V30 1696 H 170.49 -4.38382 -1.64132 0
M  V30 1697 H 170.663 -6.15258 -2.03377 0
M  V30 1698 N 164.069 0.697108 -1.41344 0
M  V30 1699 C 164.979 1.84088 -1.45427 0
M  V30 1700 C 165.995 1.70545 -0.34501 0
M  V30 1701 O 167.171 1.92488 -0.592492 0
M  V30 1702 C 164.236 3.20056 -1.33286 0
M  V30 1703 C 163.297 3.45718 -2.54514 0
M  V30 1704 C 162.53 4.75199 -2.42944 0
M  V30 1705 O 162.753 5.51579 -1.45318 0
M  V30 1706 O 161.687 5.0161 -3.32672 0
M  V30 1707 H 165.513 1.836 -2.41919 0
M  V30 1708 H 163.098 0.849966 -1.22866 0
M  V30 1709 H 164.98 4.01236 -1.28794 0
M  V30 1710 H 163.655 3.2123 -0.39909 0
M  V30 1711 H 162.562 2.64474 -2.64583 0
M  V30 1712 H 163.895 3.49356 -3.46715 0
M  V30 1713 N 165.547 1.27147 0.931209 0
M  V30 1714 C 166.795 1.13055 1.6752 0
M  V30 1715 C 167.116 -0.324791 1.92276 0
M  V30 1716 O 166.386 -1.22775 1.52654 0
M  V30 1717 H 164.966 0.415391 0.620854 0
M  V30 1718 H 167.628 1.59623 1.11833 0
M  V30 1719 H 166.724 1.65694 2.64485 0
M  V30 1720 N 167.025 -1.13721 1.09112 0
M  V30 1721 C 168.441 -1.36914 0.820174 0
M  V30 1722 C 168.641 -1.93356 -0.567079 0
M  V30 1723 O 167.697 -2.15093 -1.32255 0
M  V30 1724 C 169.01 -2.3235 1.90877 0
M  V30 1725 C 170.558 -2.45973 1.93562 0
M  V30 1726 C 171.033 -3.44714 3.01556 0
M  V30 1727 N 172.524 -3.52263 3.00775 0
M  V30 1728 C 173.259 -4.28536 3.80978 0
M  V30 1729 N 172.755 -5.07991 4.71081 0
M  V30 1730 N 174.548 -4.23804 3.69251 0
M  V30 1731 H 166.699 -0.754348 1.98553 0
M  V30 1732 H 168.962 -0.3944 0.862063 0
M  V30 1733 H 168.668 -1.98027 2.90651 0
M  V30 1734 H 168.542 -3.32332 1.78424 0
M  V30 1735 H 170.929 -2.79584 0.944286 0
M  V30 1736 H 171.01 -1.45926 2.10093 0
M  V30 1737 H 170.654 -3.11835 4.00901 0
M  V30 1738 H 170.584 -4.44558 2.82269 0
M  V30 1739 H 173.075 -2.95567 2.35475 0
M  V30 1740 H 173.388 -5.63487 5.28869 0
M  V30 1741 H 171.733 -5.07235 4.75119 0
M  V30 1742 H 174.924 -3.60806 2.98222 0
M  V30 1743 H 175.097 -4.82995 4.31995 0
M  V30 1744 N 168.503 -0.877838 -1.30888 0
M  V30 1745 C 169.433 -0.35534 -2.3078 0
M  V30 1746 C 170.414 0.557994 -1.60687 0
M  V30 1747 O 171.599 0.473355 -1.88343 0
M  V30 1748 C 168.729 0.437221 -3.44537 0
M  V30 1749 C 167.683 -0.383715 -4.26276 0
M  V30 1750 C 167.009 0.535014 -5.32017 0
M  V30 1751 C 168.309 -1.62201 -4.96476 0
M  V30 1752 H 170.003 -1.19007 -2.74732 0
M  V30 1753 H 167.549 -0.573698 -1.32078 0
M  V30 1754 H 169.502 0.813334 -4.13477 0
M  V30 1755 H 168.226 1.30553 -2.99372 0
M  V30 1756 H 166.885 -0.741874 -3.59015 0
M  V30 1757 H 166.533 1.40083 -4.831 0
M  V30 1758 H 166.233 -0.0104211 -5.87599 0
M  V30 1759 H 167.757 0.907799 -6.03814 0
M  V30 1760 H 169.171 -1.31689 -5.5797 0
M  V30 1761 H 167.568 -2.10711 -5.61891 0
M  V30 1762 H 168.638 -2.37044 -4.23011 0
M  V30 1763 N 169.982 1.44106 -0.638065 0
M  V30 1764 C 171.393 1.85316 -0.226894 0
M  V30 1765 C 171.744 1.53399 1.22324 0
M  V30 1766 O 170.869 0.975463 1.93167 0
M  V30 1767 C 171.464 3.3637 -0.405013 0
M  V30 1768 C 170.023 3.76369 -0.0482902 0
M  V30 1769 C 169.17 2.67921 -0.715108 0
M  V30 1770 H 172.121 1.34474 -0.842764 0
M  V30 1771 H 172.142 3.7885 0.354 0
M  V30 1772 H 171.654 3.59569 -1.46053 0
M  V30 1773 H 169.755 3.58784 1.00522 0
M  V30 1774 H 169.868 4.76856 -0.463187 0
M  V30 1775 H 168.232 2.54259 -0.149753 0
M  V30 1776 H 169.015 2.93951 -1.77335 0
M  V30 1777 N 171.46 0.379036 1.52974 0
M  V30 1778 C 172.685 -0.209353 2.06341 0
M  V30 1779 C 173.11 -1.40583 1.24972 0
M  V30 1780 O 172.468 -1.79246 0.272155 0
M  V30 1781 C 172.516 -0.567786 3.56102 0
M  V30 1782 O 171.62 -1.66318 3.77375 0
M  V30 1783 H 170.961 -0.0272919 0.663439 0
M  V30 1784 H 173.491 0.543536 1.97248 0
M  V30 1785 H 173.501 -0.835003 3.99364 0
M  V30 1786 H 172.176 0.307013 4.14765 0
M  V30 1787 H 170.753 -1.39048 3.46006 0
M  V30 1788 N 172.938 -1.57226 0.108567 0
M  V30 1789 C 173.901 -2.13602 -0.831082 0
M  V30 1790 C 174.901 -1.06841 -1.20173 0
M  V30 1791 O 176.091 -1.32666 -1.12895 0
M  V30 1792 C 173.223 -2.66769 -2.12243 0
M  V30 1793 H 174.416 -2.97951 -0.341317 0
M  V30 1794 H 171.969 -1.55667 -0.14057 0
M  V30 1795 H 172.704 -1.85977 -2.65675 0
M  V30 1796 H 172.489 -3.44839 -1.86625 0
M  V30 1797 H 173.979 -3.10332 -2.79435 0
M  V30 1798 N 174.416 0.165178 -1.56732 0
M  V30 1799 C 175.641 0.900253 -1.86843 0
M  V30 1800 C 176.066 1.74766 -0.695596 0
M  V30 1801 O 175.424 1.77786 0.35522 0
M  V30 1802 C 175.472 1.74777 -3.15413 0
M  V30 1803 O 174.576 2.85007 -2.98068 0
M  V30 1804 H 173.917 0.251832 -0.614391 0
M  V30 1805 H 176.447 0.161468 -2.03962 0
M  V30 1806 H 176.457 2.14646 -3.46974 0
M  V30 1807 H 175.132 1.12537 -4.00385 0
M  V30 1808 H 173.709 2.48676 -2.77875 0
M  V30 1809 N 175.894 1.51508 0.433938 0
M  V30 1810 C 177.142 1.6402 1.18075 0
M  V30 1811 C 177.463 0.360328 1.91642 0
M  V30 1812 O 176.733 -0.623945 1.85698 0
M  V30 1813 H 175.313 0.6045 0.43885 0
M  V30 1814 H 177.975 1.88452 0.497178 0
M  V30 1815 H 177.071 2.46949 1.90847 0
M  V30 1816 N 177.372 -0.689602 1.41712 0
M  V30 1817 C 178.788 -1.00093 1.24312 0
M  V30 1818 C 178.988 -2.01036 0.136729 0
M  V30 1819 O 178.044 -2.47562 -0.496918 0
M  V30 1820 C 179.357 -1.51985 2.59463 0
M  V30 1821 C 180.905 -1.63838 2.66695 0
M  V30 1822 C 181.38 -2.1913 4.02177 0
M  V30 1823 N 182.871 -2.26483 4.04054 0
M  V30 1824 C 183.606 -2.70306 5.0569 0
M  V30 1825 N 183.102 -3.13691 6.17713 0
M  V30 1826 N 184.895 -2.69923 4.9305 0
M  V30 1827 H 177.046 -0.0210029 2.1239 0
M  V30 1828 H 179.309 -0.0718733 0.945272 0
M  V30 1829 H 179.015 -0.85269 3.41207 0
M  V30 1830 H 178.889 -2.50103 2.82362 0
M  V30 1831 H 181.276 -2.29664 1.85306 0
M  V30 1832 H 181.357 -0.642492 2.476 0
M  V30 1833 H 181.001 -1.53918 4.84016 0
M  V30 1834 H 180.931 -3.19482 4.18615 0
M  V30 1835 H 183.422 -1.95874 3.23174 0
M  V30 1836 H 183.735 -3.45773 6.9113 0
M  V30 1837 H 182.08 -3.11585 6.21241 0
M  V30 1838 H 185.271 -2.35382 4.04614 0
M  V30 1839 H 185.444 -3.03758 5.72394 0
M  V30 1840 N 178.85 -1.27639 -0.924453 0
M  V30 1841 C 180.078 -1.16989 -1.70649 0
M  V30 1842 C 180.493 0.272869 -1.86818 0
M  V30 1843 O 179.85 1.18549 -1.38753 0
M  V30 1844 C 179.901 -1.85229 -3.10439 0
M  V30 1845 O 179.622 -3.23868 -2.95028 0
M  V30 1846 C 181.123 -1.80746 -4.04779 0
M  V30 1847 H 178.343 -0.406595 -0.53378 0
M  V30 1848 H 180.887 -1.68569 -1.15778 0
M  V30 1849 H 179.042 -1.37545 -3.6216 0
M  V30 1850 H 179.456 -3.57889 -3.83426 0
M  V30 1851 H 180.93 -2.33101 -5.00368 0
M  V30 1852 H 181.407 -0.777499 -4.32263 0
M  V30 1853 H 182.013 -2.28059 -3.58984 0
M  V30 1854 N 180.328 1.1314 -1.09713 0
M  V30 1855 C 181.574 1.84967 -0.846104 0
M  V30 1856 C 181.929 1.82082 0.621601 0
M  V30 1857 O 181.222 1.2501 1.452 0
M  V30 1858 C 181.416 3.32167 -1.3191 0
M  V30 1859 C 181.245 3.49386 -2.83125 0
M  V30 1860 C 180.015 3.63456 -3.51038 0
M  V30 1861 C 182.213 3.45179 -3.81256 0
M  V30 1862 N 180.195 3.68966 -4.9065 0
M  V30 1863 C 181.566 3.57094 -5.06837 0
M  V30 1864 C 183.621 3.28598 -3.74069 0
M  V30 1865 C 182.324 3.5414 -6.26081 0
M  V30 1866 C 184.35 3.26953 -4.92804 0
M  V30 1867 C 183.712 3.39422 -6.17229 0
M  V30 1868 H 179.811 0.692899 -0.362512 0
M  V30 1869 H 182.395 1.35506 -1.39808 0
M  V30 1870 H 180.566 3.80186 -0.794535 0
M  V30 1871 H 182.298 3.91815 -1.01308 0
M  V30 1872 H 179.053 3.65256 -3.01471 0
M  V30 1873 H 179.477 3.75404 -5.63383 0
M  V30 1874 H 184.119 3.17858 -2.78794 0
M  V30 1875 H 181.837 3.63653 -7.21653 0
M  V30 1876 H 185.423 3.15316 -4.88945 0
M  V30 1877 H 184.303 3.38114 -7.07565 0
M  V30 1878 N 181.806 0.884767 1.30421 0
M  V30 1879 C 183.222 0.57874 1.48737 0
M  V30 1880 C 183.422 -0.883567 1.81095 0
M  V30 1881 O 182.478 -1.6648 1.89844 0
M  V30 1882 C 183.791 1.49171 2.61091 0
M  V30 1883 C 185.339 1.49532 2.74971 0
M  V30 1884 C 185.814 2.39421 3.90438 0
M  V30 1885 N 187.305 2.37383 3.97748 0
M  V30 1886 C 188.04 3.03647 4.86401 0
M  V30 1887 N 187.536 3.79136 5.79852 0
M  V30 1888 N 189.329 2.9288 4.79768 0
M  V30 1889 H 181.48 1.83075 1.0769 0
M  V30 1890 H 183.743 0.783637 0.533495 0
M  V30 1891 H 183.449 2.53291 2.44001 0
M  V30 1892 H 183.323 1.20113 3.57565 0
M  V30 1893 H 185.71 0.46163 2.91467 0
M  V30 1894 H 185.791 1.8262 1.79119 0
M  V30 1895 H 185.435 3.42874 3.74699 0
M  V30 1896 H 185.365 2.03649 4.85628 0
M  V30 1897 H 187.856 1.82525 3.30897 0
M  V30 1898 H 188.169 4.26789 6.4426 0
M  V30 1899 H 186.514 3.83243 5.79784 0
M  V30 1900 H 189.705 2.33433 4.05742 0
M  V30 1901 H 189.878 3.448 5.4865 0
M  V30 1902 N 183.284 -1.43765 0.645699 0
M  V30 1903 C 184.194 -2.34544 -0.0512957 0
M  V30 1904 C 185.21 -1.53455 -0.82022 0
M  V30 1905 O 186.386 -1.86133 -0.769176 0
M  V30 1906 C 183.451 -3.31636 -1.01087 0
M  V30 1907 C 182.512 -4.2863 -0.239712 0
M  V30 1908 C 181.745 -5.21084 -1.15358 0
M  V30 1909 O 181.968 -5.1779 -2.39269 0
M  V30 1910 O 180.902 -5.98593 -0.630038 0
M  V30 1911 H 184.728 -2.95624 0.695718 0
M  V30 1912 H 182.313 -1.43781 0.405882 0
M  V30 1913 H 184.195 -3.9136 -1.56254 0
M  V30 1914 H 182.87 -2.73069 -1.73824 0
M  V30 1915 H 181.777 -3.72408 0.355356 0
M  V30 1916 H 183.11 -4.90157 0.447936 0
M  V30 1917 N 184.763 -0.387143 -1.52771 0
M  V30 1918 C 185.726 0.436939 -2.24997 0
M  V30 1919 C 186.726 0.991991 -1.26555 0
M  V30 1920 O 187.916 0.874335 -1.50669 0
M  V30 1921 C 185.048 1.61281 -3.00335 0
M  V30 1922 H 186.241 -0.195365 -2.99263 0
M  V30 1923 H 183.794 -0.139218 -1.55679 0
M  V30 1924 H 184.529 2.2826 -2.30364 0
M  V30 1925 H 184.314 1.22154 -3.72587 0
M  V30 1926 H 185.804 2.19629 -3.5518 0
M  V30 1927 N 186.241 1.57166 -0.116904 0
M  V30 1928 C 187.518 1.86645 0.585049 0
M  V30 1929 C 187.898 1.0177 1.84949 0
M  V30 1930 O 187.246 0.0960379 2.28298 0
M  V30 1931 C 187.456 3.37736 0.879507 0
M  V30 1932 C 188.804 4.06289 1.23348 0
M  V30 1933 O 189.828 3.42743 0.969836 0
M  V30 1934 O 188.687 5.18455 1.7282 0
M  V30 1935 H 185.781 0.772593 0.295007 0
M  V30 1936 H 188.327 1.69025 -0.151249 0
M  V30 1937 H 187.099 3.91296 -0.0166136 0
M  V30 1938 H 186.722 3.6078 1.67103 0
M  V30 1939 N 187.719 -0.156864 1.56817 0
M  V30 1940 C 188.968 -0.869504 1.81996 0
M  V30 1941 C 189.281 -1.82777 0.696545 0
M  V30 1942 O 190.487 -2.58384 0.833658 0
M  V30 1943 C 188.943 -1.59679 3.22538 0
M  V30 1944 C 188.551 -0.681431 4.42787 0
M  V30 1945 C 190.295 -2.2968 3.56997 0
M  V30 1946 C 188.202 -1.40978 5.74351 0
M  V30 1947 H 187.132 -0.328438 0.678708 0
M  V30 1948 H 189.783 -0.1223 1.83092 0
M  V30 1949 H 188.165 -2.38927 3.158 0
M  V30 1950 H 189.339 0.0751166 4.60739 0
M  V30 1951 H 187.654 -0.0903431 4.16302 0
M  V30 1952 H 190.251 -2.84794 4.52544 0
M  V30 1953 H 190.594 -3.05707 2.82576 0
M  V30 1954 H 191.127 -1.57361 3.65352 0
M  V30 1955 H 187.866 -0.691561 6.51842 0
M  V30 1956 H 187.386 -2.13929 5.60352 0
M  V30 1957 H 189.065 -1.95337 6.16808 0
M  V30 1958 N 189.197 -1.51736 -0.425897 0
M  V30 1959 C 190.145 -1.74464 -1.53834 0
M  V30 1960 C 191.139 -0.611241 -1.57988 0
M  V30 1961 O 192.345 -0.792899 -1.61596 0
M  V30 1962 H 188.72 -0.551437 -0.511293 0
M  V30 1963 H 190.691 -2.67694 -1.31843 0
M  V30 1964 C 189.44 -1.8972 -2.91379 0
M  V30 1965 H 188.763 -2.76344 -2.88919 0
M  V30 1966 H 190.203 -2.09629 -3.68553 0
M  V30 1967 C 188.662 -0.65992 -3.30374 0
M  V30 1968 O 189.192 0.180083 -4.01296 0
M  V30 1969 N 187.398 -0.500677 -2.86254 0
M  V30 1970 H 186.945 -1.18532 -2.28709 0
M  V30 1971 H 186.903 0.325903 -3.12706 0
M  V30 1972 N 190.675 0.682077 -1.42076 0
M  V30 1973 C 191.905 1.46844 -1.45329 0
M  V30 1974 C 192.313 1.89102 -0.0609328 0
M  V30 1975 O 191.656 1.58238 0.933082 0
M  V30 1976 C 191.718 2.75375 -2.31104 0
M  V30 1977 C 191.382 2.55238 -3.79081 0
M  V30 1978 C 192.379 2.20309 -4.70914 0
M  V30 1979 C 190.064 2.70459 -4.2327 0
M  V30 1980 C 192.058 2.00859 -6.04925 0
M  V30 1981 C 189.745 2.50624 -5.57343 0
M  V30 1982 C 190.743 2.15876 -6.47986 0
M  V30 1983 O 190.431 1.96227 -7.79583 0
M  V30 1984 H 190.163 0.4586 -0.496651 0
M  V30 1985 H 192.717 0.846131 -1.87162 0
M  V30 1986 H 190.947 3.40061 -1.84107 0
M  V30 1987 H 192.636 3.37231 -2.25898 0
M  V30 1988 H 193.402 2.08153 -4.38061 0
M  V30 1989 H 189.281 2.96485 -3.53012 0
M  V30 1990 H 192.825 1.7366 -6.75639 0
M  V30 1991 H 188.722 2.62375 -5.89771 0
M  V30 1992 H 189.49 2.10883 -7.90867 0
M  V30 1993 N 192.153 1.28127 0.917671 0
M  V30 1994 C 193.399 1.15223 1.66888 0
M  V30 1995 C 193.732 -0.299293 1.9188 0
M  V30 1996 O 193.007 -1.21805 1.51637 0
M  V30 1997 C 193.29 1.94706 3.02922 0
M  V30 1998 C 193.143 3.47898 2.85109 0
M  V30 1999 C 194.462 1.75939 4.03402 0
M  V30 2000 H 191.581 0.419946 0.605652 0
M  V30 2001 H 194.223 1.57398 1.06423 0
M  V30 2002 H 192.373 1.58864 3.54534 0
M  V30 2003 H 194.045 3.93624 2.40537 0
M  V30 2004 H 192.288 3.7373 2.20246 0
M  V30 2005 H 192.959 3.98765 3.81694 0
M  V30 2006 H 195.435 2.07209 3.60837 0
M  V30 2007 H 194.311 2.33931 4.96556 0
M  V30 2008 H 194.572 0.709877 4.36364 0
M  V30 2009 N 193.631 -1.12557 1.10312 0
M  V30 2010 C 194.856 -1.88405 0.867085 0
M  V30 2011 C 195.281 -1.79038 -0.576817 0
M  V30 2012 O 194.639 -1.14439 -1.40618 0
M  V30 2013 C 194.687 -3.3563 1.31851 0
M  V30 2014 O 193.791 -4.09565 0.482734 0
M  V30 2015 H 193.132 -0.585455 0.313271 0
M  V30 2016 H 195.662 -1.42352 1.4696 0
M  V30 2017 H 195.672 -3.86469 1.3079 0
M  V30 2018 H 194.347 -3.41765 2.37001 0
M  V30 2019 H 192.924 -3.68695 0.558448 0
M  V30 2020 N 195.109 -0.891671 -1.2995 0
M  V30 2021 C 196.357 -0.512486 -1.95494 0
M  V30 2022 C 196.678 0.942776 -1.70695 0
M  V30 2023 O 195.948 1.66374 -1.03424 0
M  V30 2024 H 194.528 -0.186533 -0.723336 0
M  V30 2025 H 197.19 -1.13621 -1.58355 0
M  V30 2026 H 196.286 -0.688342 -3.04415 0
M  V30 2027 N 196.587 1.43421 -0.653314 0
M  V30 2028 C 197.834 2.01812 -0.166745 0
M  V30 2029 C 198.162 1.51535 1.21931 0
M  V30 2030 O 197.417 0.698975 1.82792 0
M  V30 2031 C 197.716 3.57176 -0.126623 0
M  V30 2032 C 197.382 4.26798 -1.45444 0
M  V30 2033 C 196.044 4.45534 -1.81805 0
M  V30 2034 C 198.396 4.66225 -2.32989 0
M  V30 2035 C 195.724 5.00961 -3.05377 0
M  V30 2036 C 198.076 5.23021 -3.55853 0
M  V30 2037 C 196.74 5.39973 -3.9241 0
M  V30 2038 H 196.01 0.738484 -0.0610162 0
M  V30 2039 H 198.657 1.71896 -0.84404 0
M  V30 2040 H 196.962 3.86634 0.634123 0
M  V30 2041 H 198.659 4.00112 0.266723 0
M  V30 2042 H 195.249 4.12561 -1.16153 0
M  V30 2043 H 199.433 4.51443 -2.06187 0
M  V30 2044 H 194.689 5.12271 -3.3375 0
M  V30 2045 H 198.863 5.52518 -4.23907 0
M  V30 2046 H 196.49 5.82687 -4.88242 0
M  V30 2047 N 198.065 0.39524 1.52563 0
M  V30 2048 C 199.481 0.0454682 1.59535 0
M  V30 2049 C 199.681 -1.44056 1.4089 0
M  V30 2050 O 198.737 -2.20579 1.22888 0
M  V30 2051 C 200.05 0.527963 2.96029 0
M  V30 2052 C 201.598 0.484733 3.09224 0
M  V30 2053 C 202.073 0.943512 4.48176 0
M  V30 2054 N 203.564 0.899765 4.54377 0
M  V30 2055 C 204.299 1.22609 5.60138 0
M  V30 2056 N 203.795 1.62319 6.73516 0
M  V30 2057 N 205.588 1.14696 5.50274 0
M  V30 2058 H 197.739 1.36261 1.62931 0
M  V30 2059 H 200.002 0.558887 0.765735 0
M  V30 2060 H 199.708 1.56607 3.14908 0
M  V30 2061 H 199.582 -0.0698056 3.77135 0
M  V30 2062 H 201.969 -0.544298 2.90037 0
M  V30 2063 H 202.05 1.11838 2.30056 0
M  V30 2064 H 201.694 1.9708 4.68104 0
M  V30 2065 H 201.624 0.286817 5.25818 0
M  V30 2066 H 204.115 0.607632 3.72983 0
M  V30 2067 H 204.428 1.85567 7.5019 0
M  V30 2068 H 202.773 1.66211 6.74833 0
M  V30 2069 H 205.964 0.835701 4.6058 0
M  V30 2070 H 206.137 1.40459 6.32594 0
M  V30 2071 N 199.544 -1.57102 0.125237 0
M  V30 2072 C 200.492 -2.16905 -0.839927 0
M  V30 2073 C 201.486 -1.11998 -1.27094 0
M  V30 2074 O 202.692 -1.3029 -1.24195 0
M  V30 2075 H 199.067 -0.694252 -0.288995 0
M  V30 2076 H 201.038 -2.96774 -0.311115 0
M  V30 2077 C 199.787 -2.78795 -2.07771 0
M  V30 2078 H 199.11 -3.59221 -1.755 0
M  V30 2079 H 200.55 -3.2417 -2.73295 0
M  V30 2080 C 199.009 -1.76193 -2.87155 0
M  V30 2081 O 199.539 -1.21909 -3.82755 0
M  V30 2082 N 197.745 -1.45991 -2.51267 0
M  V30 2083 H 197.292 -1.90325 -1.73592 0
M  V30 2084 H 197.25 -0.775844 -3.04677 0
M  V30 2085 N 201.022 0.148545 -1.56898 0
M  V30 2086 C 201.985 1.16736 -1.97244 0
M  V30 2087 C 202.985 1.35947 -0.858777 0
M  V30 2088 O 204.175 1.32966 -1.12542 0
M  V30 2089 C 201.307 2.52798 -2.28705 0
M  V30 2090 H 202.5 0.821279 -2.88435 0
M  V30 2091 H 200.053 0.391831 -1.51309 0
M  V30 2092 H 200.788 2.92381 -1.403 0
M  V30 2093 H 200.573 2.40216 -3.09901 0
M  V30 2094 H 202.063 3.26179 -2.60762 0
M  V30 2095 N 202.5 1.5196 0.417844 0
M  V30 2096 C 203.777 1.56146 1.17803 0
M  V30 2097 C 204.157 0.337275 2.08388 0
M  V30 2098 O 203.505 -0.676447 2.18258 0
M  V30 2099 C 203.715 2.88566 1.96293 0
M  V30 2100 C 205.063 3.41244 2.52662 0
M  V30 2101 O 206.087 2.90247 2.06483 0
M  V30 2102 O 204.946 4.30273 3.36938 0
M  V30 2103 H 202.04 0.628598 0.537395 0
M  V30 2104 H 204.586 1.64283 0.425331 0
M  V30 2105 H 203.358 3.69116 1.2988 0
M  V30 2106 H 202.981 2.83681 2.78587 0
M  V30 2107 N 203.978 -0.674533 1.42435 0
M  V30 2108 C 205.394 -0.98769 1.25367 0
M  V30 2109 C 205.594 -2.00879 0.158044 0
M  V30 2110 O 204.65 -2.48075 -0.470633 0
M  V30 2111 C 205.963 -1.49224 2.6106 0
M  V30 2112 C 207.511 -1.61 2.68417 0
M  V30 2113 C 207.986 -2.14852 4.04478 0
M  V30 2114 N 209.477 -2.22185 4.06434 0
M  V30 2115 C 210.212 -2.64928 5.08528 0
M  V30 2116 N 209.708 -3.07121 6.21006 0
M  V30 2117 N 211.501 -2.64679 4.95885 0
M  V30 2118 H 203.652 0.00152503 2.124 0
M  V30 2119 H 205.915 -0.0618434 0.945981 0
M  V30 2120 H 205.621 -0.816453 3.42092 0
M  V30 2121 H 205.495 -2.47094 2.84999 0
M  V30 2122 H 207.882 -2.27686 1.87732 0
M  V30 2123 H 207.963 -0.616195 2.48267 0
M  V30 2124 H 207.607 -1.48775 4.85622 0
M  V30 2125 H 207.537 -3.15024 4.2198 0
M  V30 2126 H 210.028 -1.92435 3.25234 0
M  V30 2127 H 210.341 -3.38423 6.94759 0
M  V30 2128 H 208.686 -3.04978 6.24511 0
M  V30 2129 H 211.877 -2.31078 4.07088 0
M  V30 2130 H 212.05 -2.9767 5.75584 0
M  V30 2131 N 205.456 -1.28612 -0.910864 0
M  V30 2132 C 206.386 -1.15326 -2.03032 0
M  V30 2133 C 207.367 -0.0502924 -1.70026 0
M  V30 2134 O 208.552 -0.227797 -1.92859 0
M  V30 2135 C 205.682 -0.817343 -3.37545 0
M  V30 2136 C 204.636 -1.8754 -3.84724 0
M  V30 2137 C 203.962 -1.39305 -5.16235 0
M  V30 2138 C 205.262 -3.28244 -4.06267 0
M  V30 2139 H 206.956 -2.08975 -2.14406 0
M  V30 2140 H 204.502 -1.00612 -1.03021 0
M  V30 2141 H 206.455 -0.711151 -4.15356 0
M  V30 2142 H 205.179 0.154846 -3.26233 0
M  V30 2143 H 203.838 -1.97079 -3.09121 0
M  V30 2144 H 203.486 -0.409846 -5.01328 0
M  V30 2145 H 203.186 -2.10057 -5.48771 0
M  V30 2146 H 204.71 -1.30014 -5.96598 0
M  V30 2147 H 206.124 -3.21611 -4.74594 0
M  V30 2148 H 204.521 -3.96855 -4.5014 0
M  V30 2149 H 205.591 -3.72048 -3.10979 0
M  V30 2150 N 206.934 1.1197 -1.10907 0
M  V30 2151 C 208.18 1.8386 -0.855773 0
M  V30 2152 C 208.513 1.84134 0.617103 0
M  V30 2153 O 207.788 1.29041 1.45529 0
M  V30 2154 C 208.071 3.31305 -1.411 0
M  V30 2155 C 207.924 3.39456 -2.9511 0
M  V30 2156 C 209.243 4.2721 -1.05736 0
M  V30 2157 H 206.362 0.667545 -0.312334 0
M  V30 2158 H 209.004 1.31331 -1.37303 0
M  V30 2159 H 207.154 3.76169 -0.97105 0
M  V30 2160 H 208.826 3.03191 -3.47668 0
M  V30 2161 H 207.069 2.79849 -3.31462 0
M  V30 2162 H 207.74 4.43209 -3.29044 0
M  V30 2163 H 210.216 3.90497 -1.43706 0
M  V30 2164 H 209.092 5.28775 -1.47269 0
M  V30 2165 H 209.353 4.42088 0.0325958 0
M  V30 2166 N 208.412 0.89855 1.29475 0
M  V30 2167 C 209.642 0.538479 1.99459 0
M  V30 2168 C 210.05 -0.880922 1.67441 0
M  V30 2169 O 209.393 -1.59283 0.915127 0
M  V30 2170 C 209.455 0.649564 3.53583 0
M  V30 2171 C 209.119 2.03573 4.09154 0
M  V30 2172 C 210.116 3.00675 4.24135 0
M  V30 2173 C 207.801 2.3448 4.44212 0
M  V30 2174 C 209.795 4.26809 4.73405 0
M  V30 2175 C 207.482 3.60857 4.93179 0
M  V30 2176 C 208.48 4.56836 5.0773 0
M  V30 2177 O 208.168 5.80969 5.55635 0
M  V30 2178 H 207.9 0.205372 0.644048 0
M  V30 2179 H 210.454 1.20958 1.66007 0
M  V30 2180 H 208.684 -0.0785592 3.8662 0
M  V30 2181 H 210.373 0.29881 4.04799 0
M  V30 2182 H 211.139 2.78112 3.97339 0
M  V30 2183 H 207.018 1.60534 4.32145 0
M  V30 2184 H 210.562 5.0173 4.84678 0
M  V30 2185 H 206.459 3.83251 5.19412 0
M  V30 2186 H 207.227 5.83542 5.73952 0
M  V30 2187 N 209.89 -1.43072 0.660911 0
M  V30 2188 C 211.115 -2.06584 0.183805 0
M  V30 2189 C 211.54 -1.49257 -1.14472 0
M  V30 2190 O 210.898 -0.605528 -1.70889 0
M  V30 2191 C 210.946 -3.60418 0.114434 0
M  V30 2192 O 210.05 -4.01981 -0.921137 0
M  V30 2193 H 209.391 -0.656669 0.0983994 0
M  V30 2194 H 211.921 -1.83447 0.906006 0
M  V30 2195 H 211.931 -4.07946 -0.0663394 0
M  V30 2196 H 210.606 -4.01519 1.08422 0
M  V30 2197 H 209.183 -3.66029 -0.71253 0
M  V30 2198 N 211.368 -0.403325 -1.52352 0
M  V30 2199 C 212.593 0.176499 -2.06648 0
M  V30 2200 C 213.018 1.38577 -1.27193 0
M  V30 2201 O 212.376 1.7879 -0.300637 0
M  V30 2202 C 212.424 0.511061 -3.5696 0
M  V30 2203 O 211.528 1.60294 -3.79973 0
M  V30 2204 H 210.869 0.0167337 -0.663789 0
M  V30 2205 H 213.399 -0.574848 -1.96359 0
M  V30 2206 H 213.409 0.771362 -4.00642 0
M  V30 2207 H 212.084 -0.37296 -4.14224 0
M  V30 2208 H 210.661 1.33526 -3.48174 0
M  V30 2209 N 212.846 1.57033 -0.133567 0
M  V30 2210 C 214.123 1.87256 0.56522 0
M  V30 2211 C 214.503 1.03726 1.83859 0
M  V30 2212 O 213.851 0.120247 2.28183 0
M  V30 2213 C 214.061 3.3865 0.843636 0
M  V30 2214 C 215.409 4.07574 1.19032 0
M  V30 2215 O 216.433 3.43752 0.933429 0
M  V30 2216 O 215.292 5.20259 1.67312 0
M  V30 2217 H 212.386 0.775678 0.286796 0
M  V30 2218 H 214.932 1.68855 -0.169168 0
M  V30 2219 H 213.704 3.91257 -0.0581149 0
M  V30 2220 H 213.327 3.62532 1.63268 0
M  V30 2221 N 214.325 -0.140222 1.56975 0
M  V30 2222 C 215.571 -0.848084 1.84876 0
M  V30 2223 C 215.926 -1.78481 0.718481 0
M  V30 2224 O 215.219 -1.89497 -0.283093 0
M  V30 2225 C 215.413 -1.65386 3.16832 0
M  V30 2226 C 215.242 -0.79665 4.42587 0
M  V30 2227 C 214.012 -0.459648 5.03205 0
M  V30 2228 C 216.21 -0.12389 5.14151 0
M  V30 2229 N 214.192 0.410446 6.12526 0
M  V30 2230 C 215.563 0.606064 6.17031 0
M  V30 2231 C 217.618 -0.0452654 4.97879 0
M  V30 2232 C 216.321 1.40723 7.054 0
M  V30 2233 C 218.347 0.742658 5.86718 0
M  V30 2234 C 217.709 1.46087 6.89085 0
M  V30 2235 H 213.808 -0.287946 0.727056 0
M  V30 2236 H 216.392 -0.11304 1.94372 0
M  V30 2237 H 214.563 -2.36009 3.08471 0
M  V30 2238 H 216.295 -2.30541 3.32615 0
M  V30 2239 H 213.05 -0.797006 4.66846 0
M  V30 2240 H 213.474 0.836716 6.7181 0
M  V30 2241 H 218.116 -0.586184 4.18717 0
M  V30 2242 H 215.834 1.95938 7.83986 0
M  V30 2243 H 219.42 0.805574 5.76196 0
M  V30 2244 H 218.3 2.06077 7.56639 0
M  V30 2245 N 215.803 -1.52179 -0.40978 0
M  V30 2246 C 216.733 -1.78435 -1.5061 0
M  V30 2247 C 217.714 -0.635295 -1.57791 0
M  V30 2248 O 218.899 -0.880823 -1.73076 0
M  V30 2249 C 216.029 -1.93444 -2.88439 0
M  V30 2250 C 214.983 -3.09038 -2.96108 0
M  V30 2251 C 214.309 -3.09268 -4.36185 0
M  V30 2252 C 215.609 -4.48508 -2.67652 0
M  V30 2253 H 217.303 -2.70237 -1.28889 0
M  V30 2254 H 214.849 -1.30036 -0.618605 0
M  V30 2255 H 216.802 -2.10394 -3.65119 0
M  V30 2256 H 215.526 -0.983129 -3.11452 0
M  V30 2257 H 214.185 -2.91837 -2.21872 0
M  V30 2258 H 213.833 -2.11861 -4.56206 0
M  V30 2259 H 213.533 -3.86907 -4.42241 0
M  V30 2260 H 215.057 -3.28348 -5.14801 0
M  V30 2261 H 216.471 -4.65918 -3.34056 0
M  V30 2262 H 214.868 -5.28059 -2.85085 0
M  V30 2263 H 215.938 -4.56649 -1.63095 0
M  V30 2264 N 217.281 0.66697 -1.42791 0
M  V30 2265 C 218.53 1.42278 -1.42968 0
M  V30 2266 C 218.843 1.9553 -0.0524489 0
M  V30 2267 O 220.049 2.71414 0.068363 0
M  V30 2268 C 218.505 2.57418 -2.51524 0
M  V30 2269 C 218.113 2.10832 -3.9529 0
M  V30 2270 C 219.857 3.34878 -2.60877 0
M  V30 2271 C 217.764 3.23101 -4.95338 0
M  V30 2272 H 216.694 0.534533 -0.531781 0
M  V30 2273 H 219.345 0.721302 -1.68729 0
M  V30 2274 H 217.727 3.29971 -2.18941 0
M  V30 2275 H 218.901 1.4538 -4.37266 0
M  V30 2276 H 217.216 1.46289 -3.89857 0
M  V30 2277 H 219.813 4.18505 -3.32802 0
M  V30 2278 H 220.156 3.81993 -1.6549 0
M  V30 2279 H 220.689 2.69398 -2.92693 0
M  V30 2280 H 217.428 2.80969 -5.9223 0
M  V30 2281 H 216.948 3.87309 -4.57987 0
M  V30 2282 H 218.627 3.88447 -5.17415 0
M  V30 2283 N 218.759 1.29093 0.90403 0
M  V30 2284 C 219.989 1.19516 1.68522 0
M  V30 2285 C 220.397 -0.24738 1.87576 0
M  V30 2286 O 219.74 -1.17798 1.40959 0
M  V30 2287 C 219.802 1.83249 3.0929 0
M  V30 2288 C 219.466 3.32531 3.13484 0
M  V30 2289 C 220.463 4.28821 2.93953 0
M  V30 2290 C 218.148 3.73656 3.35688 0
M  V30 2291 C 220.142 5.64212 2.96553 0
M  V30 2292 C 217.829 5.0917 3.37919 0
M  V30 2293 C 218.827 6.04258 3.18373 0
M  V30 2294 O 218.515 7.37298 3.20385 0
M  V30 2295 H 218.247 0.415467 0.533257 0
M  V30 2296 H 220.801 1.70912 1.13922 0
M  V30 2297 H 219.031 1.26358 3.65473 0
M  V30 2298 H 220.72 1.68054 3.69476 0
M  V30 2299 H 221.486 3.98382 2.76616 0
M  V30 2300 H 217.365 3.00101 3.49943 0
M  V30 2301 H 220.909 6.38407 2.81216 0
M  V30 2302 H 216.806 5.39256 3.54787 0
M  V30 2303 H 217.574 7.46048 3.36681 0
M  V30 2304 N 220.237 -1.11381 1.11499 0
M  V30 2305 C 221.184 -2.17439 0.773887 0
M  V30 2306 C 222.154 -1.64132 -0.254899 0
M  V30 2307 O 223.339 -1.90345 -0.13168 0
M  V30 2308 C 220.479 -3.44373 0.223917 0
M  V30 2309 C 219.592 -4.1168 1.30934 0
M  V30 2310 C 218.727 -5.263 0.71984 0
M  V30 2311 C 217.766 -5.85493 1.78507 0
M  V30 2312 N 216.903 -6.91507 1.21502 0
M  V30 2313 H 221.743 -2.45962 1.68246 0
M  V30 2314 H 219.28 -1.20744 0.840191 0
M  V30 2315 H 221.238 -4.17047 -0.112921 0
M  V30 2316 H 219.868 -3.16232 -0.647851 0
M  V30 2317 H 218.92 -3.37073 1.76312 0
M  V30 2318 H 220.232 -4.51729 2.11524 0
M  V30 2319 H 219.386 -6.05785 0.333094 0
M  V30 2320 H 218.125 -4.87559 -0.117377 0
M  V30 2321 H 217.13 -5.04686 2.18111 0
M  V30 2322 H 218.355 -6.26301 2.62533 0
M  V30 2323 H 216.301 -6.54783 0.399455 0
M  V30 2324 H 216.218 -7.30214 1.95763 0
M  V30 2325 H 217.486 -7.74795 0.855181 0
M  V30 2326 N 221.715 -0.905404 -1.28997 0
M  V30 2327 C 222.943 -0.549846 -1.9946 0
M  V30 2328 C 223.358 0.866834 -1.67724 0
M  V30 2329 O 222.715 1.57298 -0.925404 0
M  V30 2330 C 222.766 -0.739387 -3.53858 0
M  V30 2331 O 222.487 -2.10031 -3.84472 0
M  V30 2332 C 223.988 -0.389541 -4.41585 0
M  V30 2333 H 221.208 -0.210429 -0.637151 0
M  V30 2334 H 223.752 -1.21632 -1.64396 0
M  V30 2335 H 221.907 -0.120023 -3.87214 0
M  V30 2336 H 222.321 -2.13385 -4.79132 0
M  V30 2337 H 223.795 -0.572972 -5.49018 0
M  V30 2338 H 224.272 0.673756 -4.34001 0
M  V30 2339 H 224.878 -0.986089 -4.1371 0
M  V30 2340 N 223.193 1.4272 -0.668489 0
M  V30 2341 C 224.421 2.05966 -0.196348 0
M  V30 2342 C 224.836 1.50191 1.14403 0
M  V30 2343 O 224.193 0.639208 1.7094 0
M  V30 2344 C 224.244 3.61314 -0.115815 0
M  V30 2345 O 223.965 4.1502 -1.40322 0
M  V30 2346 C 225.466 4.41663 0.380579 0
M  V30 2347 H 222.686 0.663954 -0.0969829 0
M  V30 2348 H 225.23 1.82966 -0.913446 0
M  V30 2349 H 223.385 3.83448 0.551931 0
M  V30 2350 H 223.799 5.08832 -1.27243 0
M  V30 2351 H 225.273 5.5065 0.385848 0
M  V30 2352 H 225.75 4.15792 1.41471 0
M  V30 2353 H 226.356 4.24534 -0.255209 0
M  V30 2354 N 224.671 0.411399 1.52136 0
M  V30 2355 C 225.948 -0.222308 1.94333 0
M  V30 2356 C 226.328 -1.6242 1.34844 0
M  V30 2357 O 225.676 -2.22384 0.525145 0
M  V30 2358 C 225.886 -0.226345 3.48265 0
M  V30 2359 C 227.234 -0.444592 4.22266 0
M  V30 2360 O 228.258 -0.305602 3.54887 0
M  V30 2361 O 227.117 -0.718749 5.41753 0
M  V30 2362 H 224.211 -0.143907 0.814383 0
M  V30 2363 H 226.757 0.467506 1.63133 0
M  V30 2364 H 225.529 0.75475 3.83952 0
M  V30 2365 H 225.152 -0.960163 3.85832 0
M  V30 2366 N 226.149 -1.5696 0.141893 0
M  V30 2367 C 227.099 -2.13074 -0.811383 0
M  V30 2368 C 228.083 -1.05726 -1.21288 0
M  V30 2369 O 229.275 -1.31914 -1.18015 0
M  V30 2370 C 226.404 -2.75186 -2.0525 0
M  V30 2371 C 225.49 -3.8965 -1.67432 0
M  V30 2372 N 225.881 -4.95733 -1.0041 0
M  V30 2373 C 224.179 -4.00262 -1.96739 0
M  V30 2374 C 224.88 -5.75858 -0.822345 0
M  V30 2375 N 223.856 -5.26452 -1.3546 0
M  V30 2376 H 227.658 -2.92465 -0.290031 0
M  V30 2377 H 225.172 -1.6229 -0.0598218 0
M  V30 2378 H 227.169 -3.13745 -2.74535 0
M  V30 2379 H 225.829 -1.97266 -2.57907 0
M  V30 2380 H 226.84 -5.13607 -0.665441 0
M  V30 2381 H 223.517 -3.33412 -2.51282 0
M  V30 2382 H 224.907 -6.71254 -0.294496 0
M  V30 2383 N 227.627 0.131896 -1.57047 0
M  V30 2384 C 228.857 0.855219 -1.88068 0
M  V30 2385 C 229.265 1.74557 -0.729817 0
M  V30 2386 O 228.608 1.81083 0.308962 0
M  V30 2387 C 228.67 1.75119 -3.13964 0
M  V30 2388 C 228.334 1.03646 -4.45091 0
M  V30 2389 C 229.331 0.383276 -5.18485 0
M  V30 2390 C 227.016 1.02148 -4.91804 0
M  V30 2391 C 229.01 -0.275347 -6.36805 0
M  V30 2392 C 226.697 0.359047 -6.10044 0
M  V30 2393 C 227.695 -0.288222 -6.82392 0
M  V30 2394 O 227.383 -0.94011 -7.98384 0
M  V30 2395 H 227.115 0.251864 -0.627328 0
M  V30 2396 H 229.669 0.124782 -2.05021 0
M  V30 2397 H 227.899 2.52295 -2.9306 0
M  V30 2398 H 229.588 2.3478 -3.31109 0
M  V30 2399 H 230.354 0.386562 -4.83457 0
M  V30 2400 H 226.233 1.5147 -4.35405 0
M  V30 2401 H 229.777 -0.781148 -6.93213 0
M  V30 2402 H 225.674 0.35348 -6.44531 0
M  V30 2403 H 226.442 -0.84329 -8.14144 0
M  V30 2404 N 229.106 1.52395 0.401703 0
M  V30 2405 C 230.069 1.75636 1.47257 0
M  V30 2406 C 231.069 0.62628 1.48103 0
M  V30 2407 O 232.259 0.894227 1.49497 0
M  V30 2408 C 229.391 1.84553 2.86624 0
M  V30 2409 H 230.584 2.71241 1.27938 0
M  V30 2410 H 228.137 1.42923 0.632662 0
M  V30 2411 H 228.872 0.908882 3.11303 0
M  V30 2412 H 228.657 2.66715 2.87412 0
M  V30 2413 H 230.147 2.04251 3.64241 0
M  V30 2414 N 230.584 -0.659388 1.43143 0
M  V30 2415 C 231.812 -1.44723 1.47861 0
M  V30 2416 C 232.227 -1.88563 0.0945886 0
M  V30 2417 O 231.584 -1.59108 -0.893915 0
M  V30 2418 C 231.635 -2.68627 2.41913 0
M  V30 2419 O 231.356 -2.26623 3.74932 0
M  V30 2420 C 232.857 -3.62045 2.55809 0
M  V30 2421 H 230.077 -0.444801 0.502387 0
M  V30 2422 H 232.621 -0.808916 1.87821 0
M  V30 2423 H 230.776 -3.28613 2.05164 0
M  V30 2424 H 231.19 -3.06745 4.2545 0
M  V30 2425 H 232.664 -4.45666 3.25708 0
M  V30 2426 H 233.141 -4.08981 1.60099 0
M  V30 2427 H 233.747 -3.07944 2.93344 0
M  V30 2428 N 232.062 -1.29571 -0.897171 0
M  V30 2429 C 233.309 -1.17689 -1.6479 0
M  V30 2430 C 233.637 0.27107 -1.92602 0
M  V30 2431 O 232.892 1.21193 -1.53658 0
M  V30 2432 C 233.191 -1.9382 -3.00281 0
M  V30 2433 C 232.857 -3.43522 -2.92068 0
M  V30 2434 C 231.519 -3.84348 -2.89535 0
M  V30 2435 C 233.871 -4.38906 -2.81089 0
M  V30 2436 C 231.199 -5.18869 -2.73846 0
M  V30 2437 C 233.551 -5.73521 -2.66939 0
M  V30 2438 C 232.215 -6.13601 -2.62774 0
M  V30 2439 H 231.485 -0.430654 -0.603008 0
M  V30 2440 H 234.132 -1.60536 -1.04404 0
M  V30 2441 H 232.437 -1.4357 -3.64547 0
M  V30 2442 H 234.134 -1.82028 -3.57305 0
M  V30 2443 H 230.724 -3.11072 -2.94842 0
M  V30 2444 H 234.908 -4.08315 -2.82121 0
M  V30 2445 H 230.164 -5.4903 -2.69027 0
M  V30 2446 H 234.338 -6.47078 -2.57416 0
M  V30 2447 H 231.965 -7.17786 -2.50375 0
M  V30 2448 N 233.54 1.10788 -1.12088 0
M  V30 2449 C 234.768 1.86461 -0.896651 0
M  V30 2450 C 235.183 1.80492 0.553912 0
M  V30 2451 O 234.54 1.19102 1.38278 0
M  V30 2452 C 234.591 3.35006 -1.35843 0
M  V30 2453 O 234.312 3.40866 -2.75213 0
M  V30 2454 C 235.813 4.27565 -1.1706 0
M  V30 2455 H 233.033 0.589425 -0.320654 0
M  V30 2456 H 235.577 1.40076 -1.48993 0
M  V30 2457 H 233.732 3.7887 -0.808458 0
M  V30 2458 H 234.146 4.33411 -2.9539 0
M  V30 2459 H 235.62 5.30007 -1.54263 0
M  V30 2460 H 236.097 4.3906 -0.110814 0
M  V30 2461 H 236.703 3.89501 -1.70789 0
M  V30 2462 N 235.018 0.912232 1.28515 0
M  V30 2463 C 236.434 0.610159 1.47476 0
M  V30 2464 C 236.634 -0.844955 1.82928 0
M  V30 2465 O 235.69 -1.62416 1.93332 0
M  V30 2466 C 237.003 1.54675 2.57868 0
M  V30 2467 C 238.551 1.55331 2.71738 0
M  V30 2468 C 239.026 2.47649 3.85272 0
M  V30 2469 N 240.517 2.45767 3.92623 0
M  V30 2470 C 241.252 3.13896 4.79851 0
M  V30 2471 N 240.748 3.9135 5.71679 0
M  V30 2472 N 242.541 3.02991 4.73448 0
M  V30 2473 H 234.692 1.85318 1.03783 0
M  V30 2474 H 236.955 0.794777 0.516753 0
M  V30 2475 H 236.661 2.5841 2.38574 0
M  V30 2476 H 236.535 1.27671 3.54937 0
M  V30 2477 H 238.922 0.52335 2.90422 0
M  V30 2478 H 239.003 1.86378 1.75205 0
M  V30 2479 H 238.647 3.50745 3.67342 0
M  V30 2480 H 238.577 2.13904 4.81199 0
M  V30 2481 H 241.068 1.89503 3.26951 0
M  V30 2482 H 241.381 4.40359 6.35062 0
M  V30 2483 H 239.726 3.95455 5.71524 0
M  V30 2484 H 242.917 2.41987 4.007 0
M  V30 2485 H 243.09 3.5636 5.41213 0
M  V30 2486 N 236.496 -1.42363 0.676048 0
M  V30 2487 C 237.745 -2.00745 0.196037 0
M  V30 2488 C 238.058 -1.54083 -1.20489 0
M  V30 2489 O 239.264 -2.04891 -1.78134 0
M  V30 2490 C 237.72 -3.58651 0.299616 0
M  V30 2491 C 237.328 -4.143 1.70468 0
M  V30 2492 C 239.072 -4.24326 -0.121619 0
M  V30 2493 C 236.979 -5.64574 1.76096 0
M  V30 2494 H 235.909 -0.750787 0.0695301 0
M  V30 2495 H 238.56 -1.63072 0.841412 0
M  V30 2496 H 236.942 -3.93833 -0.413673 0
M  V30 2497 H 238.116 -3.90575 2.44515 0
M  V30 2498 H 236.431 -3.61081 2.07387 0
M  V30 2499 H 239.028 -5.34607 -0.0997362 0
M  V30 2500 H 239.371 -3.99897 -1.15708 0
M  V30 2501 H 239.904 -3.94108 0.540706 0
M  V30 2502 H 236.643 -5.93804 2.77628 0
M  V30 2503 H 236.163 -5.90286 1.06406 0
M  V30 2504 H 237.842 -6.29013 1.51496 0
M  V30 2505 N 237.974 -0.419461 -1.51915 0
M  V30 2506 C 239.39 -0.0708431 -1.59443 0
M  V30 2507 C 239.59 1.41796 -1.43164 0
M  V30 2508 O 238.646 2.18596 -1.26381 0
M  V30 2509 C 239.959 -0.574991 -2.95151 0
M  V30 2510 C 241.507 -0.533867 -3.08413 0
M  V30 2511 C 241.982 -1.01469 -4.46618 0
M  V30 2512 N 243.473 -0.971939 -4.52888 0
M  V30 2513 C 244.208 -1.31505 -5.58116 0
M  V30 2514 N 243.704 -1.73014 -6.70849 0
M  V30 2515 N 245.497 -1.23436 -5.48379 0
M  V30 2516 H 237.648 -1.38836 -1.60743 0
M  V30 2517 H 239.911 -0.570998 -0.756747 0
M  V30 2518 H 239.617 -1.61597 -3.12377 0
M  V30 2519 H 239.491 0.00979777 -3.77199 0
M  V30 2520 H 241.878 0.498086 -2.90866 0
M  V30 2521 H 241.959 -1.15484 -2.28248 0
M  V30 2522 H 241.603 -2.04502 -4.6491 0
M  V30 2523 H 241.533 -0.370433 -5.25295 0
M  V30 2524 H 244.024 -0.666893 -3.71969 0
M  V30 2525 H 244.337 -1.97479 -7.47143 0
M  V30 2526 H 242.682 -1.76926 -6.72103 0
M  V30 2527 H 245.873 -0.908869 -4.59192 0
M  V30 2528 H 246.046 -1.50506 -6.30279 0
M  V30 2529 O 239.491 1.58856 -0.291037 0
M  V30 2530 H 240.182 1.91728 0.275667 0
M  V30 END ATOM
M  V30 BEGIN BOND
M  V30 END BOND
M  V30 END CTAB
M  END
$$$$
