drugbank_target|O14949 Cytochrome b-c1 complex subunit 8 (DB04141; DB04799; DB07401; DB07763; DB07778; DB08330; DB08453; DB08690)
 OpenBabel12092120423D

  0  0  0     0  0            999 V3000
M  V30 BEGIN CTAB
M  V30 COUNTS 1398 1419 0 0 0
M  V30 BEGIN ATOM
M  V30 1 H -0.908 1.98254 -0.117106 0
M  V30 2 N 0 1.576 0 0
M  V30 3 C 0.933 2.03868 1.02534 0
M  V30 4 C 1.911 0.928543 1.3348 0
M  V30 5 O 3.095 1.19667 1.45644 0
M  V30 6 C 0.222 2.43627 2.35294 0
M  V30 7 C -0.732 3.65373 2.2001 0
M  V30 8 S 0.101 5.13292 1.52614 0
M  V30 9 C 1.257 5.56322 2.86805 0
M  V30 10 H 1.49 2.90518 0.631377 0
M  V30 11 H -0.977 1.52953 0.210867 0
M  V30 12 H 0.981 2.67203 3.11629 0
M  V30 13 H -0.358 1.57376 2.7183 0
M  V30 14 H -1.165 3.90944 3.18086 0
M  V30 15 H -1.563 3.418 1.51819 0
M  V30 16 H 0.729 5.58782 3.83104 0
M  V30 17 H 1.672 6.56266 2.65933 0
M  V30 18 H 2.08 4.83886 2.90714 0
M  V30 19 N 1.4781 -0.272755 1.55222 0
M  V30 20 C 2.7261 -1.00234 1.75492 0
M  V30 21 C 3.0471 -1.8681 0.5592 0
M  V30 22 O 2.3171 -1.91215 -0.425882 0
M  V30 23 H 0.8971 -0.373076 0.647166 0
M  V30 24 H 3.5591 -0.296926 1.92625 0
M  V30 25 H 2.6551 -1.63913 2.65592 0
M  V30 26 N 2.9562 -1.48159 -0.537278 0
M  V30 27 C 4.3722 -1.34118 -0.865129 0
M  V30 28 C 4.5722 -0.346678 -1.98495 0
M  V30 29 O 3.6282 0.234715 -2.51407 0
M  V30 30 C 4.9412 -2.73963 -1.23954 0
M  V30 31 C 6.4892 -2.82397 -1.34984 0
M  V30 32 C 6.9642 -4.22928 -1.75772 0
M  V30 33 N 8.4552 -4.25566 -1.82887 0
M  V30 34 C 9.1902 -5.31235 -2.15817 0
M  V30 35 N 8.6862 -6.47189 -2.47222 0
M  V30 36 N 10.4792 -5.18624 -2.16761 0
M  V30 37 H 2.6302 -2.1144 0.201715 0
M  V30 38 H 4.8932 -0.947598 0.0275949 0
M  V30 39 H 4.5992 -3.48264 -0.490381 0
M  V30 40 H 4.4732 -3.0702 -2.19132 0
M  V30 41 H 6.8602 -2.08356 -2.08978 0
M  V30 42 H 6.9412 -2.5297 -0.379448 0
M  V30 43 H 6.5852 -4.97482 -1.02341 0
M  V30 44 H 6.5152 -4.49794 -2.73848 0
M  V30 45 H 9.0062 -3.41924 -1.60924 0
M  V30 46 H 9.3192 -7.23564 -2.71433 0
M  V30 47 H 7.6642 -6.50476 -2.44757 0
M  V30 48 H 10.8552 -4.27056 -1.91679 0
M  V30 49 H 11.0282 -6.01078 -2.42093 0
M  V30 50 N 4.4343 0.785586 -1.36625 0
M  V30 51 C 5.3443 1.92964 -1.33425 0
M  V30 52 C 6.3603 1.72394 -0.235851 0
M  V30 53 O 7.5363 1.95866 -0.468878 0
M  V30 54 C 4.6013 3.27884 -1.12662 0
M  V30 55 C 3.6623 3.61204 -2.32013 0
M  V30 56 C 2.8953 4.89687 -2.12231 0
M  V30 57 O 3.1183 5.59704 -1.09945 0
M  V30 58 O 2.0523 5.21752 -3.00098 0
M  V30 59 H 5.8783 1.98613 -2.29753 0
M  V30 60 H 3.4633 0.926384 -1.17211 0
M  V30 61 H 5.3453 4.08614 -1.03016 0
M  V30 62 H 4.0203 3.23118 -0.193991 0
M  V30 63 H 2.9273 2.80765 -2.47228 0
M  V30 64 H 4.2603 3.70698 -3.23796 0
M  V30 65 N 5.9124 1.20967 1.01018 0
M  V30 66 C 7.1594 1.02374 1.74716 0
M  V30 67 C 7.4874 -0.443375 1.89379 0
M  V30 68 O 6.7424 -1.34535 1.42123 0
M  V30 69 C 7.0414 1.65997 3.16512 0
M  V30 70 C 6.7074 3.15831 3.2181 0
M  V30 71 C 5.3694 3.56719 3.22963 0
M  V30 72 C 7.7214 4.11816 3.19464 0
M  V30 73 C 5.0494 4.92107 3.19449 0
M  V30 74 C 7.4014 5.47158 3.17491 0
M  V30 75 C 6.0654 5.87451 3.16951 0
M  V30 76 H 5.3354 0.374614 0.639332 0
M  V30 77 H 7.9824 1.50485 1.18434 0
M  V30 78 H 6.2874 1.10166 3.75993 0
M  V30 79 H 7.9844 1.49119 3.72242 0
M  V30 80 H 4.5744 2.83263 3.21652 0
M  V30 81 H 8.7584 3.81257 3.17737 0
M  V30 82 H 4.0144 5.22579 3.17366 0
M  V30 83 H 8.1884 6.21274 3.14629 0
M  V30 84 H 5.8154 6.92329 3.13983 0
M  V30 85 N 7.3905 -1.2043 1.01659 0
M  V30 86 C 8.6385 -1.89423 0.704522 0
M  V30 87 C 8.9595 -1.79231 -0.768197 0
M  V30 88 O 8.2295 -1.1947 -1.55254 0
M  V30 89 H 6.8095 -0.701178 0.257602 0
M  V30 90 H 9.4715 -1.4626 1.28818 0
M  V30 91 H 8.5675 -2.96052 0.987916 0
M  V30 92 N 8.8686 -0.792821 -1.36206 0
M  V30 93 C 9.8166 -0.181555 -2.3189 0
M  V30 94 C 10.8106 0.661025 -1.55971 0
M  V30 95 O 12.0166 0.555728 -1.71206 0
M  V30 96 H 8.3916 -0.0399382 -0.750939 0
M  V30 97 H 10.3626 -1.00394 -2.81005 0
M  V30 98 C 9.1116 0.666444 -3.41253 0
M  V30 99 H 8.4346 0.0274489 -3.99791 0
M  V30 100 H 9.8746 1.06076 -4.10517 0
M  V30 101 C 8.3336 1.82614 -2.83114 0
M  V30 102 O 8.8636 2.9229 -2.75553 0
M  V30 103 N 7.0696 1.63333 -2.40356 0
M  V30 104 H 6.6166 0.741217 -2.46706 0
M  V30 105 H 6.5746 2.41087 -2.01803 0
M  V30 106 N 10.3467 1.47872 -0.545128 0
M  V30 107 C 11.2767 2.32661 0.197793 0
M  V30 108 C 12.2577 1.43041 0.920504 0
M  V30 109 O 13.4427 1.71912 0.90333 0
M  V30 110 C 10.5727 3.24569 1.23582 0
M  V30 111 C 9.5267 4.23333 0.630323 0
M  V30 112 C 8.8527 5.0448 1.77211 0
M  V30 113 C 10.1527 5.20704 -0.407974 0
M  V30 114 H 11.8467 2.95024 -0.510045 0
M  V30 115 H 9.3927 1.4187 -0.246731 0
M  V30 116 H 11.3457 3.8272 1.76362 0
M  V30 117 H 10.0697 2.60236 1.97344 0
M  V30 118 H 8.7287 3.6639 0.123922 0
M  V30 119 H 8.3767 4.36561 2.49847 0
M  V30 120 H 8.0767 5.71339 1.37281 0
M  V30 121 H 9.6007 5.65487 2.3034 0
M  V30 122 H 11.0147 5.7329 0.033305 0
M  V30 123 H 9.4117 5.95699 -0.725486 0
M  V30 124 H 10.4817 4.66917 -1.30828 0
M  V30 125 N 11.8248 0.280983 1.55075 0
M  V30 126 C 13.0528 -0.337293 2.04132 0
M  V30 127 C 13.4678 -1.4903 1.15912 0
M  V30 128 O 12.8248 -1.81606 0.180459 0
M  V30 129 C 12.8758 -0.812706 3.52246 0
M  V30 130 O 12.5968 0.294387 4.3711 0
M  V30 131 C 14.0978 -1.4982 4.17216 0
M  V30 132 H 11.3178 -0.0761638 0.666663 0
M  V30 133 H 13.8618 0.414787 2.00249 0
M  V30 134 H 12.0168 -1.51486 3.56554 0
M  V30 135 H 12.4308 -0.0721325 5.2445 0
M  V30 136 H 13.9048 -1.7822 5.22438 0
M  V30 137 H 14.3818 -2.43168 3.65741 0
M  V30 138 H 14.9878 -0.839742 4.16927 0
M  V30 139 N 13.3029 -1.57598 0.00835791 0
M  V30 140 C 14.7189 -1.55764 -0.347822 0
M  V30 141 C 14.9189 -1.01186 -1.74252 0
M  V30 142 O 13.9749 -0.649371 -2.44007 0
M  V30 143 C 15.2879 -2.99927 -0.215407 0
M  V30 144 C 16.8359 -3.11656 -0.289725 0
M  V30 145 C 17.3109 -4.57621 -0.18634 0
M  V30 146 N 18.8019 -4.62557 -0.243978 0
M  V30 147 C 19.5369 -5.73094 -0.18745 0
M  V30 148 N 19.0329 -6.92753 -0.0810331 0
M  V30 149 N 20.8259 -5.61588 -0.239925 0
M  V30 150 H 12.9769 -1.91411 0.92062 0
M  V30 151 H 15.2399 -0.879562 0.353659 0
M  V30 152 H 14.9459 -3.43729 0.744512 0
M  V30 153 H 14.8199 -3.63865 -0.994097 0
M  V30 154 H 17.2069 -2.67779 -1.24009 0
M  V30 155 H 17.2879 -2.5048 0.51898 0
M  V30 156 H 16.9319 -5.02174 0.760519 0
M  V30 157 H 16.8619 -5.16752 -1.01364 0
M  V30 158 H 19.3529 -3.76481 -0.327217 0
M  V30 159 H 19.6659 -7.72787 -0.0440241 0
M  V30 160 H 18.0109 -6.94984 -0.0465419 0
M  V30 161 H 21.2019 -4.66996 -0.321317 0
M  V30 162 H 21.3749 -6.47714 -0.192407 0
M  V30 163 N 14.781 0.264519 -1.55364 0
M  V30 164 C 15.714 1.35297 -1.83766 0
M  V30 165 C 16.692 1.47171 -0.691336 0
M  V30 166 O 17.876 1.63663 -0.935238 0
M  V30 167 C 15.003 2.72847 -2.00679 0
M  V30 168 C 14.049 2.78214 -3.23263 0
M  V30 169 S 14.882 2.36601 -4.80396 0
M  V30 170 C 16.038 3.7611 -5.00292 0
M  V30 171 H 16.271 1.11003 -2.758 0
M  V30 172 H 13.804 0.464596 -1.47244 0
M  V30 173 H 15.762 3.52057 -2.11108 0
M  V30 174 H 14.423 2.94388 -1.09518 0
M  V30 175 H 13.616 3.7919 -3.3201 0
M  V30 176 H 13.218 2.07034 -3.11469 0
M  V30 177 H 15.51 4.71457 -4.86554 0
M  V30 178 H 16.453 3.7231 -6.02321 0
M  V30 179 H 16.861 3.67806 -4.28228 0
M  V30 180 N 16.2591 1.48442 0.529413 0
M  V30 181 C 17.6751 1.34575 0.858004 0
M  V30 182 C 17.8751 0.3572 1.98309 0
M  V30 183 O 16.9311 -0.221379 2.51528 0
M  V30 184 C 18.2441 2.74617 1.22499 0
M  V30 185 C 19.7921 2.83109 1.33484 0
M  V30 186 C 20.2671 4.23854 1.73526 0
M  V30 187 N 21.7581 4.2653 1.80628 0
M  V30 188 C 22.4931 5.32372 2.12997 0
M  V30 189 N 21.9891 6.48491 2.43786 0
M  V30 190 N 23.7821 5.19766 2.14008 0
M  V30 191 H 15.9331 2.1133 -0.212925 0
M  V30 192 H 18.1961 0.947439 -0.0326199 0
M  V30 193 H 17.9021 3.4852 0.471905 0
M  V30 194 H 17.7761 3.08177 2.17501 0
M  V30 195 H 20.1631 2.09462 2.0787 0
M  V30 196 H 20.2441 2.53168 0.366027 0
M  V30 197 H 19.8881 4.98018 0.997013 0
M  V30 198 H 19.8181 4.5124 2.71459 0
M  V30 199 H 22.3091 3.42772 1.59108 0
M  V30 200 H 22.6221 7.24993 2.67592 0
M  V30 201 H 20.9671 6.51765 2.41304 0
M  V30 202 H 24.1581 4.28066 1.89412 0
M  V30 203 H 24.3311 6.02354 2.38902 0
M  V30 204 N 17.7372 -0.778329 1.37039 0
M  V30 205 C 18.6872 -1.88142 1.28789 0
M  V30 206 C 19.6712 -1.59923 0.177063 0
M  V30 207 O 20.8632 -1.72165 0.410873 0
M  V30 208 C 17.9922 -3.25518 1.09055 0
M  V30 209 C 17.0782 -3.5971 2.24654 0
M  V30 210 N 17.4692 -3.65131 3.50018 0
M  V30 211 C 15.7672 -3.89837 2.16663 0
M  V30 212 C 16.4682 -3.95882 4.26207 0
M  V30 213 N 15.4442 -4.11441 3.55271 0
M  V30 214 H 19.2462 -1.90575 2.23737 0
M  V30 215 H 16.7602 -0.974435 1.29917 0
M  V30 216 H 18.7572 -4.04423 1.0123 0
M  V30 217 H 17.4172 -3.24353 0.15018 0
M  V30 218 H 18.4282 -3.475 3.84011 0
M  V30 219 H 15.1052 -3.96533 1.30645 0
M  V30 220 H 16.4952 -4.06907 5.34674 0
M  V30 221 N 19.2153 -1.21501 -1.00376 0
M  V30 222 C 20.4613 -1.03452 -1.74429 0
M  V30 223 C 20.7943 0.430764 -1.89362 0
M  V30 224 O 20.0693 1.31962 -1.42886 0
M  V30 225 C 20.3523 -1.73375 -3.15615 0
M  V30 226 C 20.2053 -3.27431 -3.08397 0
M  V30 227 C 21.5243 -1.47732 -4.14564 0
M  V30 228 H 18.6433 -0.377226 -0.633143 0
M  V30 229 H 21.2853 -1.49693 -1.17013 0
M  V30 230 H 19.4353 -1.34064 -3.64636 0
M  V30 231 H 21.1073 -3.76119 -2.67081 0
M  V30 232 H 19.3503 -3.5767 -2.45468 0
M  V30 233 H 20.0213 -3.71524 -4.08258 0
M  V30 234 H 22.4973 -1.8186 -3.74254 0
M  V30 235 H 21.3733 -1.99169 -5.11491 0
M  V30 236 H 21.6343 -0.407589 -4.40217 0
M  V30 237 N 20.6934 1.19889 -1.02296 0
M  V30 238 C 21.9424 1.88743 -0.711257 0
M  V30 239 C 22.2554 1.80112 0.762817 0
M  V30 240 O 23.4614 2.44161 1.18733 0
M  V30 241 C 21.9174 3.38525 -1.22185 0
M  V30 242 C 21.5254 3.55727 -2.72328 0
M  V30 243 C 23.2694 4.12893 -0.985864 0
M  V30 244 C 21.1764 4.99369 -3.16835 0
M  V30 245 H 20.1064 0.706885 -0.262353 0
M  V30 246 H 22.7574 1.35586 -1.23648 0
M  V30 247 H 21.1394 3.91044 -0.624571 0
M  V30 248 H 22.3134 3.13564 -3.3766 0
M  V30 249 H 20.6284 2.94739 -2.9414 0
M  V30 250 H 23.2254 5.18813 -1.29374 0
M  V30 251 H 23.5684 4.16228 0.0775055 0
M  V30 252 H 24.1014 3.66494 -1.54684 0
M  V30 253 H 20.8404 5.01193 -4.22476 0
M  V30 254 H 20.3604 5.42317 -2.56228 0
M  V30 255 H 22.0394 5.67988 -3.09837 0
M  V30 256 N 22.1715 0.800033 1.35784 0
M  V30 257 C 23.3965 0.388511 2.03729 0
M  V30 258 C 23.8215 -0.990481 1.5991 0
M  V30 259 O 23.1795 -1.64013 0.772612 0
M  V30 260 C 23.2275 0.4726 3.5749 0
M  V30 261 O 22.3315 -0.51646 4.09153 0
M  V30 262 H 21.6725 0.163271 0.643614 0
M  V30 263 H 24.2025 1.0841 1.73518 0
M  V30 264 H 24.2125 0.34003 4.06581 0
M  V30 265 H 22.8875 1.47848 3.88734 0
M  V30 266 H 21.4645 -0.344673 3.71304 0
M  V30 267 N 23.6496 -1.47581 0.552962 0
M  V30 268 C 24.8796 -2.06575 0.0320091 0
M  V30 269 C 25.2876 -1.4067 -1.26525 0
M  V30 270 O 24.6306 -0.495808 -1.76883 0
M  V30 271 C 24.6926 -3.58705 -0.238913 0
M  V30 272 C 24.3566 -4.46625 0.968272 0
M  V30 273 C 25.3536 -4.85 1.87274 0
M  V30 274 C 23.0386 -4.88201 1.18175 0
M  V30 275 C 25.0326 -5.63745 2.9744 0
M  V30 276 C 22.7196 -5.66712 2.28651 0
M  V30 277 C 23.7176 -6.04394 3.18114 0
M  V30 278 O 23.4056 -6.81324 4.26676 0
M  V30 279 H 23.1376 -0.674763 0.0408689 0
M  V30 280 H 25.6916 -1.90634 0.764719 0
M  V30 281 H 23.9216 -3.72844 -1.02588 0
M  V30 282 H 25.6106 -3.99735 -0.704731 0
M  V30 283 H 26.3766 -4.53482 1.71984 0
M  V30 284 H 22.2556 -4.58339 0.494593 0
M  V30 285 H 25.7996 -5.93077 3.67296 0
M  V30 286 H 21.6966 -5.97642 2.43915 0
M  V30 287 H 22.4646 -6.99712 4.24671 0
M  V30 288 N 25.1277 -0.289203 -1.54924 0
M  V30 289 C 26.3527 0.329299 -2.04769 0
M  V30 290 C 26.7777 1.4763 -1.16564 0
M  V30 291 O 26.1357 1.80527 -0.167186 0
M  V30 292 C 26.1837 0.774438 -3.52186 0
M  V30 293 O 25.2877 1.88038 -3.67036 0
M  V30 294 H 24.6287 0.0659259 -0.660719 0
M  V30 295 H 27.1587 -0.42761 -2.00082 0
M  V30 296 H 27.1687 1.06642 -3.93816 0
M  V30 297 H 25.8437 -0.0646707 -4.1585 0
M  V30 298 H 24.4207 1.58985 -3.3731 0
M  V30 299 N 26.6058 1.57591 -0.0167156 0
M  V30 300 C 27.5358 2.12496 0.967858 0
M  V30 301 C 28.5168 1.03807 1.34752 0
M  V30 302 O 29.7018 1.31577 1.42833 0
M  V30 303 C 26.8318 2.64194 2.25431 0
M  V30 304 C 25.7858 3.77559 2.01576 0
M  V30 305 C 25.1118 4.15636 3.36379 0
M  V30 306 C 26.4118 5.04151 1.36489 0
M  V30 307 H 28.1058 2.95013 0.510643 0
M  V30 308 H 25.6518 1.41915 0.244181 0
M  V30 309 H 27.6048 3.01236 2.94678 0
M  V30 310 H 26.3288 1.78821 2.73296 0
M  V30 311 H 24.9878 3.40937 1.34751 0
M  V30 312 H 24.6358 3.27263 3.81979 0
M  V30 313 H 24.3358 4.92022 3.21229 0
M  V30 314 H 25.8598 4.5525 4.06915 0
M  V30 315 H 27.2738 5.38857 1.95718 0
M  V30 316 H 25.6708 5.85453 1.31776 0
M  V30 317 H 26.7408 4.83733 0.336219 0
M  V30 318 N 28.0839 -0.256276 1.55502 0
M  V30 319 C 29.3089 -1.00766 1.81276 0
M  V30 320 C 29.7339 -1.78524 0.59252 0
M  V30 321 O 29.0919 -1.75413 -0.45827 0
M  V30 322 C 29.1399 -1.92869 3.04687 0
M  V30 323 O 28.2439 -3.019 2.80945 0
M  V30 324 H 27.5849 -0.287224 0.598664 0
M  V30 325 H 30.1149 -0.280109 2.02674 0
M  V30 326 H 30.1249 -2.34511 3.33869 0
M  V30 327 H 28.7999 -1.35689 3.93143 0
M  V30 328 H 27.3769 -2.64454 2.62904 0
M  V30 329 N 29.562 -1.4872 -0.521534 0
M  V30 330 C 30.973 -1.50607 -1.10337 0
M  V30 331 C 31.324 -0.280612 -1.94183 0
M  V30 332 O 30.449 0.611507 -2.0758 0
M  V30 333 C 31.044 -2.72903 -2.00772 0
M  V30 334 C 29.603 -2.77634 -2.54158 0
M  V30 335 C 28.75 -2.44241 -1.31307 0
M  V30 336 H 31.701 -1.55714 -0.306388 0
M  V30 337 H 31.722 -2.519 -2.85178 0
M  V30 338 H 31.234 -3.62077 -1.39721 0
M  V30 339 H 29.335 -1.92689 -3.18907 0
M  V30 340 H 29.448 -3.79283 -2.92714 0
M  V30 341 H 27.812 -1.95577 -1.63161 0
M  V30 342 H 28.595 -3.35666 -0.719943 0
M  V30 343 N 31.0401 0.771051 -1.3745 0
M  V30 344 C 32.2871 1.52963 -1.32697 0
M  V30 345 C 32.6151 1.94299 0.0883274 0
M  V30 346 O 31.8701 1.64397 1.0617 0
M  V30 347 C 32.1691 2.80676 -2.2126 0
M  V30 348 C 31.8351 2.58389 -3.69521 0
M  V30 349 C 30.4971 2.52019 -4.09927 0
M  V30 350 C 32.8491 2.38469 -4.63446 0
M  V30 351 C 30.1771 2.23721 -5.42371 0
M  V30 352 C 32.5291 2.11694 -5.96128 0
M  V30 353 C 31.1931 2.03769 -6.35637 0
M  V30 354 H 30.4631 0.559732 -0.485573 0
M  V30 355 H 33.1101 0.888083 -1.69662 0
M  V30 356 H 31.4151 3.49392 -1.77291 0
M  V30 357 H 33.1121 3.38557 -2.14895 0
M  V30 358 H 29.7021 2.6421 -3.37478 0
M  V30 359 H 33.8861 2.4238 -4.33089 0
M  V30 360 H 29.1421 2.16081 -5.71943 0
M  V30 361 H 33.3161 1.9528 -6.6846 0
M  V30 362 H 30.9431 1.81606 -7.38189 0
M  V30 363 N 32.5182 1.22032 0.997298 0
M  V30 364 C 33.4282 1.00271 2.12092 0
M  V30 365 C 34.4442 -0.047621 1.73935 0
M  V30 366 O 35.6202 0.144136 2.00884 0
M  V30 367 C 32.6852 0.578449 3.4184 0
M  V30 368 C 31.7462 1.70189 3.94125 0
M  V30 369 C 30.9792 1.29778 5.17681 0
M  V30 370 O 31.2022 0.174676 5.70132 0
M  V30 371 O 30.1362 2.11261 5.63607 0
M  V30 372 H 33.9622 1.94398 2.3333 0
M  V30 373 H 31.5472 1.00587 1.10465 0
M  V30 374 H 33.4292 0.351998 4.19927 0
M  V30 375 H 32.1042 -0.334019 3.21972 0
M  V30 376 H 31.0112 1.98282 3.1723 0
M  V30 377 H 32.3442 2.59206 4.18417 0
M  V30 378 N 33.9963 -1.19345 1.0293 0
M  V30 379 C 34.9283 -2.22036 0.56857 0
M  V30 380 C 35.9413 -1.58865 -0.355779 0
M  V30 381 O 37.1303 -1.77851 -0.152103 0
M  V30 382 C 34.2303 -3.38363 -0.190752 0
M  V30 383 C 33.4033 -4.31118 0.738643 0
M  V30 384 C 32.4623 -5.26194 0.0246497 0
M  V30 385 O 31.4883 -5.65461 0.651354 0
M  V30 386 N 32.6903 -5.66971 -1.24594 0
M  V30 387 H 35.4553 -2.6219 1.45177 0
M  V30 388 H 33.0163 -1.34015 0.908381 0
M  V30 389 H 35.0083 -3.98981 -0.677961 0
M  V30 390 H 33.5783 -2.96994 -0.975366 0
M  V30 391 H 32.7983 -3.68276 1.40593 0
M  V30 392 H 34.0863 -4.90001 1.37029 0
M  V30 393 H 33.4843 -5.37104 -1.77583 0
M  V30 394 H 32.0413 -6.2984 -1.67764 0
M  V30 395 N 35.4744 -0.807222 -1.35358 0
M  V30 396 C 36.8904 -0.491038 -1.51858 0
M  V30 397 C 37.0904 0.987648 -1.75635 0
M  V30 398 O 36.1464 1.77265 -1.79815 0
M  V30 399 C 37.4594 -1.33695 -2.69344 0
M  V30 400 C 39.0074 -1.33246 -2.83222 0
M  V30 401 C 39.4824 -2.1625 -4.03733 0
M  V30 402 N 40.9734 -2.1379 -4.10911 0
M  V30 403 C 41.7084 -2.74772 -5.03277 0
M  V30 404 N 41.2044 -3.44684 -6.0097 0
M  V30 405 N 42.9974 -2.6441 -4.96028 0
M  V30 406 H 35.1484 -1.76485 -1.18181 0
M  V30 407 H 37.4114 -0.751199 -0.578276 0
M  V30 408 H 37.1174 -2.38634 -2.58354 0
M  V30 409 H 36.9914 -0.990618 -3.6396 0
M  V30 410 H 39.3784 -0.290911 -2.93663 0
M  V30 411 H 39.4594 -1.71866 -1.89461 0
M  V30 412 H 39.1034 -3.20445 -3.94052 0
M  V30 413 H 39.0334 -1.74989 -4.96675 0
M  V30 414 H 41.5244 -1.62923 -3.40976 0
M  V30 415 H 41.8374 -3.88501 -6.68047 0
M  V30 416 H 40.1824 -3.48788 -6.01142 0
M  V30 417 H 43.3734 -2.0938 -4.18662 0
M  V30 418 H 43.5464 -3.12225 -5.6782 0
M  V30 419 N 36.9525 1.47285 -0.560781 0
M  V30 420 C 37.9155 2.28535 0.174488 0
M  V30 421 C 38.9155 1.37153 0.839388 0
M  V30 422 O 40.1055 1.59748 0.694702 0
M  V30 423 C 37.2375 3.16934 1.25561 0
M  V30 424 H 38.4305 2.95012 -0.539262 0
M  V30 425 H 35.9835 1.53034 -0.317865 0
M  V30 426 H 36.7185 2.55157 2.00164 0
M  V30 427 H 36.5035 3.8419 0.783604 0
M  V30 428 H 37.9935 3.78143 1.77193 0
M  V30 429 N 38.4306 0.297415 1.54768 0
M  V30 430 C 39.6606 -0.315165 2.04182 0
M  V30 431 C 40.0686 -1.4834 1.17439 0
M  V30 432 O 39.4116 -1.82695 0.191891 0
M  V30 433 C 39.4736 -0.837583 3.49607 0
M  V30 434 C 39.1376 0.204912 4.5654 0
M  V30 435 C 40.1346 1.03214 5.09552 0
M  V30 436 C 37.8196 0.345578 5.0111 0
M  V30 437 C 39.8136 1.986 6.05671 0
M  V30 438 C 37.5006 1.30289 5.97049 0
M  V30 439 C 38.4986 2.12159 6.49213 0
M  V30 440 O 38.1866 3.06268 7.43273 0
M  V30 441 H 37.9186 -0.0729646 0.672051 0
M  V30 442 H 40.4726 0.433907 2.00765 0
M  V30 443 H 38.7026 -1.63712 3.50336 0
M  V30 444 H 40.3916 -1.36566 3.82236 0
M  V30 445 H 41.1576 0.934312 4.75916 0
M  V30 446 H 37.0366 -0.28171 4.60138 0
M  V30 447 H 40.5806 2.62542 6.46311 0
M  V30 448 H 36.4776 1.40145 6.30103 0
M  V30 449 H 37.2456 3.01205 7.61064 0
M  V30 450 N 39.9087 -1.5758 0.0250728 0
M  V30 451 C 41.3197 -1.79476 -0.514323 0
M  V30 452 C 41.6707 -0.934956 -1.72491 0
M  V30 453 O 40.7957 -0.144245 -2.15919 0
M  V30 454 C 41.3907 -3.25503 -0.939842 0
M  V30 455 C 39.9497 -3.48408 -1.42438 0
M  V30 456 C 39.0967 -2.74583 -0.387201 0
M  V30 457 H 42.0477 -1.567 0.25113 0
M  V30 458 H 42.0687 -3.34992 -1.80445 0
M  V30 459 H 41.5807 -3.88056 -0.0585628 0
M  V30 460 H 39.6817 -2.91103 -2.32572 0
M  V30 461 H 39.7947 -4.57119 -1.43455 0
M  V30 462 H 38.1587 -2.39942 -0.854409 0
M  V30 463 H 38.9417 -3.39849 0.485543 0
M  V30 464 N 41.3868 0.248026 -1.55636 0
M  V30 465 C 42.3368 1.30994 -1.86614 0
M  V30 466 C 43.3208 1.43543 -0.726918 0
M  V30 467 O 44.5128 1.46804 -0.988818 0
M  V30 468 C 41.6418 2.6656 -2.16335 0
M  V30 469 C 40.7278 2.58019 -3.36581 0
M  V30 470 N 41.1188 2.1911 -4.55878 0
M  V30 471 C 39.4168 2.89035 -3.39669 0
M  V30 472 C 40.1178 2.21174 -5.38012 0
M  V30 473 N 39.0938 2.60632 -4.77045 0
M  V30 474 H 42.8958 0.999583 -2.76379 0
M  V30 475 H 40.4098 0.456652 -1.55848 0
M  V30 476 H 42.4068 3.43194 -2.36692 0
M  V30 477 H 41.0668 2.98463 -1.27867 0
M  V30 478 H 42.0778 1.90672 -4.81523 0
M  V30 479 H 38.7548 3.25485 -2.61469 0
M  V30 480 H 40.1448 1.9344 -6.43452 0
M  V30 481 N 42.8649 1.48995 0.513639 0
M  V30 482 C 44.1109 1.58076 1.27042 0
M  V30 483 C 44.4439 0.261026 1.92438 0
M  V30 484 O 43.7189 -0.734393 1.80103 0
M  V30 485 C 44.0019 2.73091 2.34719 0
M  V30 486 C 43.8549 4.14821 1.73907 0
M  V30 487 C 45.1739 2.83796 3.36375 0
M  V30 488 H 42.2929 0.575391 0.460536 0
M  V30 489 H 44.9349 1.81232 0.570516 0
M  V30 490 H 43.0849 2.53479 2.94416 0
M  V30 491 H 44.7569 4.45917 1.18135 0
M  V30 492 H 42.9999 4.21058 1.0437 0
M  V30 493 H 43.6709 4.91147 2.51949 0
M  V30 494 H 46.1469 3.01611 2.86653 0
M  V30 495 H 45.0229 3.65971 4.09093 0
M  V30 496 H 45.2839 1.92624 3.9793 0
M  V30 497 N 44.343 -0.763751 1.37857 0
M  V30 498 C 45.59 -1.52257 1.33506 0
M  V30 499 C 45.918 -1.94343 -0.078022 0
M  V30 500 O 45.173 -1.64958 -1.05297 0
M  V30 501 C 45.472 -2.79499 2.22745 0
M  V30 502 C 45.138 -2.56426 3.70886 0
M  V30 503 C 43.8 -2.49842 4.11257 0
M  V30 504 C 46.152 -2.36008 4.64704 0
M  V30 505 C 43.48 -2.20841 5.43549 0
M  V30 506 C 45.832 -2.0853 5.97242 0
M  V30 507 C 44.496 -2.00396 6.36709 0
M  V30 508 H 43.766 -0.557149 0.488534 0
M  V30 509 H 46.413 -0.879073 1.70131 0
M  V30 510 H 44.718 -3.48447 1.79142 0
M  V30 511 H 46.415 -3.37413 2.16688 0
M  V30 512 H 43.005 -2.62416 3.38874 0
M  V30 513 H 47.189 -2.40079 4.34368 0
M  V30 514 H 42.445 -2.13045 5.73081 0
M  V30 515 H 46.619 -1.91732 6.69486 0
M  V30 516 H 44.246 -1.77688 7.39142 0
M  V30 517 N 45.8211 -1.22559 -0.990812 0
M  V30 518 C 47.0491 -1.07779 -1.76611 0
M  V30 519 C 47.4641 0.371513 -1.85109 0
M  V30 520 O 46.8211 1.25737 -1.32274 0
M  V30 521 C 46.8721 -1.68512 -3.19822 0
M  V30 522 O 46.5931 -3.07774 -3.1178 0
M  V30 523 C 48.0941 -1.59035 -4.13791 0
M  V30 524 H 45.3141 -0.377729 -0.554583 0
M  V30 525 H 47.8581 -1.62195 -1.24551 0
M  V30 526 H 46.0131 -1.18154 -3.68942 0
M  V30 527 H 46.4271 -3.37062 -4.01858 0
M  V30 528 H 47.9011 -2.0625 -5.1202 0
M  V30 529 H 48.3781 -0.547273 -4.35777 0
M  V30 530 H 48.9841 -2.08709 -3.70568 0
M  V30 531 N 47.2992 1.18797 -1.03562 0
M  V30 532 C 48.2462 2.22253 -0.622259 0
M  V30 533 C 49.2162 1.61987 0.36736 0
M  V30 534 O 50.4012 1.88986 0.262492 0
M  V30 535 C 47.5412 3.45097 0.0138462 0
M  V30 536 C 46.6542 4.19722 -1.02263 0
M  V30 537 C 45.7892 5.30009 -0.355573 0
M  V30 538 C 44.8282 5.96399 -1.37749 0
M  V30 539 N 43.9652 6.98234 -0.735766 0
M  V30 540 H 48.8052 2.56968 -1.50903 0
M  V30 541 H 46.3422 1.26245 -0.755017 0
M  V30 542 H 48.3002 4.15279 0.399948 0
M  V30 543 H 46.9302 3.11018 0.864158 0
M  V30 544 H 45.9822 3.48418 -1.52673 0
M  V30 545 H 47.2942 4.65227 -1.79903 0
M  V30 546 H 46.4482 6.0664 0.0850095 0
M  V30 547 H 45.1872 4.85592 0.452967 0
M  V30 548 H 44.1922 5.18512 -1.82826 0
M  V30 549 H 45.4172 6.42899 -2.18764 0
M  V30 550 H 43.3632 6.55979 0.0525597 0
M  V30 551 H 43.2802 7.41965 -1.44995 0
M  V30 552 H 44.5482 7.78845 -0.31941 0
M  V30 553 N 48.7773 0.814389 1.34928 0
M  V30 554 C 50.0253 0.397636 1.9815 0
M  V30 555 C 50.3463 -1.04069 1.64908 0
M  V30 556 O 49.6163 -1.72121 0.93548 0
M  V30 557 H 48.1963 0.144043 0.732981 0
M  V30 558 H 50.8583 1.04195 1.6471 0
M  V30 559 H 49.9543 0.509688 3.0791 0
M  V30 560 N 50.2554 -1.46986 0.568584 0
M  V30 561 C 51.5044 -2.01646 0.0465894 0
M  V30 562 C 51.8174 -1.44721 -1.31587 0
M  V30 563 O 53.0234 -1.91113 -1.92842 0
M  V30 564 C 51.4794 -3.59885 0.032752 0
M  V30 565 C 51.0874 -4.25804 1.39266 0
M  V30 566 C 52.8314 -4.22255 -0.436038 0
M  V30 567 C 50.7384 -5.76081 1.33732 0
M  V30 568 H 49.6684 -0.753876 0.013647 0
M  V30 569 H 52.3194 -1.68864 0.718131 0
M  V30 570 H 50.7014 -3.8968 -0.704669 0
M  V30 571 H 51.8754 -4.07637 2.1487 0
M  V30 572 H 50.1904 -3.7547 1.80032 0
M  V30 573 H 52.7874 -5.32394 -0.49602 0
M  V30 574 H 53.1304 -3.90212 -1.45053 0
M  V30 575 H 53.6634 -3.97033 0.246877 0
M  V30 576 H 50.4024 -6.12761 2.32817 0
M  V30 577 H 49.9224 -5.96553 0.623267 0
M  V30 578 H 51.6014 -6.38518 1.0442 0
M  V30 579 N 51.7335 -0.305618 -1.54608 0
M  V30 580 C 53.1445 0.186098 -1.8577 0
M  V30 581 C 53.4955 1.53058 -1.22751 0
M  V30 582 O 52.6205 2.09888 -0.526893 0
M  V30 583 C 53.2155 0.344449 -3.37044 0
M  V30 584 C 51.7745 0.780384 -3.68221 0
M  V30 585 C 50.9215 -0.108554 -2.77087 0
M  V30 586 H 53.8725 -0.526485 -1.49712 0
M  V30 587 H 53.8935 1.17828 -3.61796 0
M  V30 588 H 53.4055 -0.634235 -3.82883 0
M  V30 589 H 51.5065 1.76945 -3.27904 0
M  V30 590 H 51.6195 0.596572 -4.75371 0
M  V30 591 H 49.9835 0.412931 -2.5133 0
M  V30 592 H 50.7665 -1.08368 -3.25747 0
M  V30 593 N 53.2116 1.57565 -0.0334293 0
M  V30 594 C 54.1596 2.1164 0.96496 0
M  V30 595 C 55.1536 1.04398 1.33407 0
M  V30 596 O 56.3596 1.22828 1.3158 0
M  V30 597 H 52.7346 0.676222 0.32898 0
M  V30 598 H 54.7056 2.94455 0.483614 0
M  V30 599 C 53.4546 2.66207 2.23672 0
M  V30 600 H 52.7776 3.48378 1.96145 0
M  V30 601 H 54.2176 3.07685 2.9173 0
M  V30 602 C 52.6766 1.59151 2.96939 0
M  V30 603 O 53.2066 0.993858 3.89211 0
M  V30 604 N 51.4126 1.31093 2.59351 0
M  V30 605 H 50.9596 1.7988 1.84393 0
M  V30 606 H 50.9176 0.596889 3.08682 0
M  V30 607 N 54.6897 -0.239769 1.55765 0
M  V30 608 C 55.9357 -0.968234 1.78194 0
M  V30 609 C 56.2687 -1.84701 0.599938 0
M  V30 610 O 55.5437 -1.9031 -0.401524 0
M  V30 611 C 55.8267 -1.8227 3.10564 0
M  V30 612 C 55.6797 -0.971633 4.3918 0
M  V30 613 C 56.9987 -2.80388 3.39221 0
M  V30 614 H 54.1177 -0.350572 0.648281 0
M  V30 615 H 56.7597 -0.238259 1.885 0
M  V30 616 H 54.9097 -2.44507 3.01908 0
M  V30 617 H 56.5817 -0.367408 4.59835 0
M  V30 618 H 54.8247 -0.276276 4.32919 0
M  V30 619 H 55.4957 -1.60346 5.28198 0
M  V30 620 H 57.9717 -2.28287 3.47885 0
M  V30 621 H 56.8477 -3.3729 4.33044 0
M  V30 622 H 57.1087 -3.57212 2.60484 0
M  V30 623 N 56.1678 -1.49265 -0.50573 0
M  V30 624 C 57.0978 -1.68495 -1.61653 0
M  V30 625 C 58.0788 -0.53366 -1.61512 0
M  V30 626 O 59.2638 -0.76897 -1.78327 0
M  V30 627 C 56.3938 -1.74709 -3.00157 0
M  V30 628 C 55.3478 -2.89581 -3.15162 0
M  V30 629 C 54.6738 -2.80903 -4.5497 0
M  V30 630 C 55.9738 -4.30578 -2.95634 0
M  V30 631 H 57.6678 -2.61493 -1.45814 0
M  V30 632 H 55.2138 -1.25838 -0.70005 0
M  V30 633 H 57.1668 -1.86748 -3.77761 0
M  V30 634 H 55.8908 -0.783067 -3.17074 0
M  V30 635 H 54.5498 -2.77136 -2.39982 0
M  V30 636 H 54.1978 -1.82419 -4.68756 0
M  V30 637 H 53.8978 -3.57999 -4.65951 0
M  V30 638 H 55.4218 -2.94944 -5.34641 0
M  V30 639 H 56.8358 -4.4373 -3.63011 0
M  V30 640 H 55.2328 -5.0886 -3.18091 0
M  V30 641 H 56.3028 -4.45352 -1.91806 0
M  V30 642 N 57.6459 0.756429 -1.3826 0
M  V30 643 C 59.0619 1.0591 -1.19395 0
M  V30 644 C 59.2619 2.01459 -0.0406567 0
M  V30 645 O 58.3179 2.44909 0.614467 0
M  V30 646 C 59.6309 1.64191 -2.51916 0
M  V30 647 C 61.1789 1.76376 -2.58574 0
M  V30 648 C 61.6539 2.38069 -3.91264 0
M  V30 649 N 63.1449 2.45503 -3.92788 0
M  V30 650 C 63.8799 2.94126 -4.92217 0
M  V30 651 N 63.3759 3.42805 -6.02043 0
M  V30 652 N 65.1689 2.9314 -4.7961 0
M  V30 653 H 57.3199 0.122313 -2.12048 0
M  V30 654 H 59.5829 0.116892 -0.940766 0
M  V30 655 H 59.2889 1.01451 -3.3675 0
M  V30 656 H 59.1629 2.6329 -2.70108 0
M  V30 657 H 61.5499 2.38244 -1.74137 0
M  V30 658 H 61.6309 0.759894 -2.44252 0
M  V30 659 H 61.2749 1.76835 -4.76121 0
M  V30 660 H 61.2049 3.39091 -4.02895 0
M  V30 661 H 63.6959 2.1107 -3.13461 0
M  V30 662 H 64.0089 3.78354 -6.73846 0
M  V30 663 H 62.3539 3.4087 -6.05667 0
M  V30 664 H 65.5449 2.54419 -3.92923 0
M  V30 665 H 65.7179 3.30721 -5.5725 0
M  V30 666 N 59.124 1.23083 0.984299 0
M  V30 667 C 60.54 0.992637 1.24975 0
M  V30 668 C 60.74 -0.308618 1.99123 0
M  V30 669 O 59.796 -1.02905 2.30579 0
M  V30 670 C 61.109 2.19698 2.05312 0
M  V30 671 C 62.657 2.24147 2.18465 0
M  V30 672 C 63.132 3.44157 3.02192 0
M  V30 673 N 64.623 3.44372 3.09777 0
M  V30 674 C 65.358 4.33886 3.74874 0
M  V30 675 N 64.854 5.3363 4.41827 0
M  V30 676 N 66.647 4.21639 3.71721 0
M  V30 677 H 58.798 2.06731 0.487453 0
M  V30 678 H 61.061 0.906339 0.277944 0
M  V30 679 H 60.767 3.1411 1.58201 0
M  V30 680 H 60.641 2.20465 3.06064 0
M  V30 681 H 63.028 1.30277 2.64786 0
M  V30 682 H 63.109 2.27415 1.17115 0
M  V30 683 H 62.753 4.38332 2.56568 0
M  V30 684 H 62.683 3.3813 4.03702 0
M  V30 685 H 65.174 2.72201 2.62135 0
M  V30 686 H 65.487 5.98196 4.89266 0
M  V30 687 H 63.832 5.37534 4.40548 0
M  V30 688 H 67.023 3.42962 3.18582 0
M  V30 689 H 67.196 4.91604 4.22173 0
M  V30 690 N 60.6021 -1.18246 1.0419 0
M  V30 691 C 61.8511 -1.87588 0.741194 0
M  V30 692 C 62.1641 -1.81303 -0.734066 0
M  V30 693 O 63.3701 -2.46019 -1.14834 0
M  V30 694 C 61.8261 -3.36538 1.27555 0
M  V30 695 C 61.4341 -3.51349 2.77953 0
M  V30 696 C 63.1781 -4.11273 1.05143 0
M  V30 697 C 61.0851 -4.94265 3.2474 0
M  V30 698 H 60.0151 -0.702622 0.273565 0
M  V30 699 H 62.6661 -1.33601 1.25789 0
M  V30 700 H 61.0481 -3.9 0.686703 0
M  V30 701 H 62.2221 -3.08153 3.42605 0
M  V30 702 H 60.5371 -2.90022 2.98791 0
M  V30 703 H 63.1341 -5.16689 1.37611 0
M  V30 704 H 63.4771 -4.16298 -0.0112774 0
M  V30 705 H 64.0101 -3.63987 1.60495 0
M  V30 706 H 60.7491 -4.94408 4.30396 0
M  V30 707 H 60.2691 -5.38172 2.64823 0
M  V30 708 H 61.9481 -5.62987 3.18834 0
M  V30 709 N 62.0802 -0.821533 -1.34494 0
M  V30 710 C 63.4962 -0.507117 -1.51329 0
M  V30 711 C 63.6962 0.968964 -1.76673 0
M  V30 712 O 62.7522 1.75348 -1.81685 0
M  V30 713 C 64.0652 -1.36544 -2.67911 0
M  V30 714 C 65.6132 -1.36242 -2.81793 0
M  V30 715 C 66.0882 -2.2052 -4.01416 0
M  V30 716 N 67.5792 -2.18136 -4.08621 0
M  V30 717 C 68.3142 -2.80095 -5.00334 0
M  V30 718 N 67.8102 -3.51039 -5.9728 0
M  V30 719 N 69.6032 -2.69656 -4.93196 0
M  V30 720 H 61.7542 -1.77729 -1.16302 0
M  V30 721 H 64.0172 -0.757291 -0.570276 0
M  V30 722 H 63.7232 -2.41361 -2.55808 0
M  V30 723 H 63.5972 -1.02917 -3.62888 0
M  V30 724 H 65.9842 -0.322041 -2.93338 0
M  V30 725 H 66.0652 -1.73866 -1.87628 0
M  V30 726 H 65.7092 -3.24607 -3.90631 0
M  V30 727 H 65.6392 -1.80247 -4.94791 0
M  V30 728 H 68.1302 -1.6653 -3.39229 0
M  V30 729 H 68.4432 -3.95565 -6.63889 0
M  V30 730 H 66.7882 -3.55145 -5.97409 0
M  V30 731 H 69.9792 -2.13808 -4.16418 0
M  V30 732 H 70.1522 -3.1823 -5.64476 0
M  V30 733 N 63.5583 1.46682 -0.576371 0
M  V30 734 C 64.4683 2.34032 0.163141 0
M  V30 735 C 65.4843 1.49367 0.892501 0
M  V30 736 O 66.6603 1.82252 0.857106 0
M  V30 737 C 63.7253 3.26435 1.16795 0
M  V30 738 C 62.7863 4.26998 0.443944 0
M  V30 739 C 62.0193 5.14986 1.40088 0
M  V30 740 O 62.2423 5.05785 2.637 0
M  V30 741 O 61.1763 5.94906 0.914917 0
M  V30 742 H 65.0023 2.98607 -0.55388 0
M  V30 743 H 62.5873 1.45554 -0.336821 0
M  V30 744 H 64.4693 3.83459 1.74748 0
M  V30 745 H 63.1443 2.64465 1.86655 0
M  V30 746 H 62.0513 3.7368 -0.177271 0
M  V30 747 H 63.3843 4.91736 -0.213566 0
M  V30 748 N 65.0364 0.313813 1.54444 0
M  V30 749 C 66.2614 -0.296681 2.05267 0
M  V30 750 C 66.6864 -1.45757 1.18897 0
M  V30 751 O 66.0444 -1.80239 0.195886 0
M  V30 752 C 66.0924 -0.71831 3.53373 0
M  V30 753 O 65.1964 -1.82175 3.69981 0
M  V30 754 H 64.5374 -0.0554061 0.661684 0
M  V30 755 H 67.0674 0.459387 1.99376 0
M  V30 756 H 67.0774 -1.00364 3.95463 0
M  V30 757 H 65.7524 0.130821 4.15694 0
M  V30 758 H 64.3294 -1.53598 3.39797 0
M  V30 759 N 66.5145 -1.57545 0.0417849 0
M  V30 760 C 67.7615 -1.92317 -0.634082 0
M  V30 761 C 68.0895 -0.919334 -1.71402 0
M  V30 762 O 67.3445 0.0698253 -1.95575 0
M  V30 763 C 67.6435 -3.33794 -1.27735 0
M  V30 764 C 67.3095 -4.49716 -0.326543 0
M  V30 765 C 65.9715 -4.81156 -0.0648814 0
M  V30 766 C 68.3235 -5.20182 0.325623 0
M  V30 767 C 65.6515 -5.80414 0.856539 0
M  V30 768 C 68.0035 -6.20424 1.23518 0
M  V30 769 C 66.6675 -6.50298 1.5056 0
M  V30 770 H 65.9375 -0.703736 -0.232027 0
M  V30 771 H 68.5845 -1.91205 0.106259 0
M  V30 772 H 66.8895 -3.31228 -2.09274 0
M  V30 773 H 68.5865 -3.57975 -1.80707 0
M  V30 774 H 65.1765 -4.25176 -0.540665 0
M  V30 775 H 69.3605 -4.96112 0.136546 0
M  V30 776 H 64.6165 -6.019 1.07363 0
M  V30 777 H 68.7905 -6.74141 1.74664 0
M  V30 778 H 66.4175 -7.27025 2.22123 0
M  V30 779 N 67.9926 0.231505 -1.5589 0
M  V30 780 C 69.2396 0.957352 -1.78441 0
M  V30 781 C 69.5676 1.84726 -0.60882 0
M  V30 782 O 68.8226 1.91416 0.40725 0
M  V30 783 C 69.1216 1.83577 -3.0665 0
M  V30 784 C 68.7876 1.09993 -4.37278 0
M  V30 785 C 67.4496 0.896629 -4.72773 0
M  V30 786 C 69.8016 0.579558 -5.17968 0
M  V30 787 C 67.1296 0.160896 -5.86479 0
M  V30 788 C 69.4816 -0.142783 -6.32439 0
M  V30 789 C 68.1456 -0.357427 -6.66542 0
M  V30 790 H 67.4156 0.35032 -0.65296 0
M  V30 791 H 70.0626 0.226259 -1.90159 0
M  V30 792 H 68.3676 2.63441 -2.90011 0
M  V30 793 H 70.0646 2.39934 -3.21298 0
M  V30 794 H 66.6546 1.26835 -4.09403 0
M  V30 795 H 70.8386 0.724125 -4.90989 0
M  V30 796 H 66.0946 -0.0157293 -6.11398 0
M  V30 797 H 70.2686 -0.553559 -6.94196 0
M  V30 798 H 67.8956 -0.929466 -7.54497 0
M  V30 799 N 69.4707 1.49531 0.497807 0
M  V30 800 C 70.8867 1.36365 0.829266 0
M  V30 801 C 71.0867 0.399184 1.97506 0
M  V30 802 O 70.1427 -0.167977 2.51941 0
M  V30 803 C 71.4557 2.77153 1.16647 0
M  V30 804 C 73.0037 2.85877 1.27449 0
M  V30 805 C 73.4787 4.2744 1.64497 0
M  V30 806 N 74.9697 4.30265 1.7154 0
M  V30 807 C 75.7047 5.3677 2.01656 0
M  V30 808 N 75.2007 6.53516 2.29976 0
M  V30 809 N 76.9937 5.24189 2.02934 0
M  V30 810 H 69.1447 2.10831 -0.257703 0
M  V30 811 H 71.4077 0.946534 -0.0527091 0
M  V30 812 H 71.1137 3.49442 0.397872 0
M  V30 813 H 70.9877 3.12722 2.10915 0
M  V30 814 H 73.3747 2.13824 2.0338 0
M  V30 815 H 73.4557 2.53887 0.312244 0
M  V30 816 H 73.0997 5.00021 0.891151 0
M  V30 817 H 73.0297 4.56896 2.61827 0
M  V30 818 H 75.5207 3.4607 1.51802 0
M  V30 819 H 75.8337 7.30506 2.52153 0
M  V30 820 H 74.1787 6.56737 2.27425 0
M  V30 821 H 77.3697 4.31988 1.80289 0
M  V30 822 H 77.5427 6.07286 2.26071 0
M  V30 823 N 70.9488 -0.749086 1.3866 0
M  V30 824 C 72.1948 -1.51056 1.35314 0
M  V30 825 C 72.5278 -1.94121 -0.0553751 0
M  V30 826 O 71.8028 -1.65763 -1.01749 0
M  V30 827 C 72.0858 -2.76003 2.31288 0
M  V30 828 C 71.9388 -2.39047 3.8102 0
M  V30 829 C 73.2578 -3.78046 2.2532 0
M  V30 830 H 70.3768 -0.547972 0.492844 0
M  V30 831 H 73.0188 -0.857628 1.69543 0
M  V30 832 H 71.1688 -3.31716 2.02229 0
M  V30 833 H 72.8408 -1.89074 4.20771 0
M  V30 834 H 71.0838 -1.71449 3.98482 0
M  V30 835 H 71.7548 -3.28462 4.4364 0
M  V30 836 H 74.2308 -3.31884 2.50983 0
M  V30 837 H 73.1068 -4.63159 2.94576 0
M  V30 838 H 73.3678 -4.23957 1.25352 0
M  V30 839 N 72.4269 -1.23603 -0.977757 0
M  V30 840 C 73.6729 -1.07129 -1.72195 0
M  V30 841 C 74.0059 0.390501 -1.90233 0
M  V30 842 O 73.2809 1.28902 -1.45653 0
M  V30 843 C 73.5639 -1.80031 -3.11867 0
M  V30 844 C 73.4169 -3.33899 -3.01383 0
M  V30 845 C 74.7359 -1.56492 -4.11337 0
M  V30 846 H 71.8549 -0.390571 -0.624999 0
M  V30 847 H 74.4969 -1.52142 -1.13811 0
M  V30 848 H 72.6469 -1.41768 -3.6171 0
M  V30 849 H 74.3189 -3.81699 -2.59043 0
M  V30 850 H 72.5619 -3.62796 -2.37827 0
M  V30 851 H 73.2329 -3.801 -4.00285 0
M  V30 852 H 75.7089 -1.89757 -3.70313 0
M  V30 853 H 74.5849 -2.09973 -5.07151 0
M  V30 854 H 74.8459 -0.500874 -4.39254 0
M  V30 855 N 73.905 1.17692 -1.04816 0
M  V30 856 C 75.316 1.69501 -0.782698 0
M  V30 857 C 75.667 1.83456 0.695577 0
M  V30 858 O 74.792 1.51942 1.54086 0
M  V30 859 C 75.387 3.07874 -1.41419 0
M  V30 860 C 73.946 3.56864 -1.19686 0
M  V30 861 C 73.093 2.3322 -1.50012 0
M  V30 862 H 76.044 1.02262 -1.2136 0
M  V30 863 H 76.065 3.71528 -0.821428 0
M  V30 864 H 75.577 2.97685 -2.49009 0
M  V30 865 H 73.678 3.72337 -0.140043 0
M  V30 866 H 73.791 4.39851 -1.89916 0
M  V30 867 H 72.155 2.37501 -0.920071 0
M  V30 868 H 72.938 2.25644 -2.58727 0
M  V30 869 N 75.3831 0.828654 1.34056 0
M  V30 870 C 76.3151 0.212052 2.28217 0
M  V30 871 C 77.3281 -0.601362 1.51286 0
M  V30 872 O 78.5171 -0.430104 1.73241 0
M  V30 873 C 75.6171 -0.72088 3.31144 0
M  V30 874 C 74.7901 0.0509587 4.3737 0
M  V30 875 C 73.8491 -0.803766 5.20025 0
M  V30 876 O 72.8751 -0.246667 5.68665 0
M  V30 877 N 74.0771 -2.1227 5.40298 0
M  V30 878 H 76.8421 1.02105 2.81771 0
M  V30 879 H 74.4031 0.686153 1.46641 0
M  V30 880 H 76.3951 -1.29742 3.8334 0
M  V30 881 H 74.9651 -1.43061 2.77943 0
M  V30 882 H 74.1851 0.808831 3.85813 0
M  V30 883 H 75.4731 0.582065 5.0546 0
M  V30 884 H 74.8711 -2.59898 5.02464 0
M  V30 885 H 73.4281 -2.64796 5.95589 0
M  V30 886 N 76.8612 -1.46375 0.584142 0
M  V30 887 C 78.1082 -2.02378 0.0702675 0
M  V30 888 C 78.4362 -1.45545 -1.29023 0
M  V30 889 O 77.6912 -0.610967 -1.85918 0
M  V30 890 C 77.9902 -3.57373 -0.0439342 0
M  V30 891 C 77.6562 -4.33252 1.24915 0
M  V30 892 C 76.3182 -4.53701 1.60341 0
M  V30 893 C 78.6702 -4.7681 2.1048 0
M  V30 894 C 75.9982 -5.1496 2.81128 0
M  V30 895 C 78.3502 -5.39404 3.30494 0
M  V30 896 C 77.0142 -5.5808 3.66201 0
M  V30 897 H 76.2842 -0.740554 0.0257127 0
M  V30 898 H 78.9312 -1.75727 0.761065 0
M  V30 899 H 77.2362 -3.83169 -0.817869 0
M  V30 900 H 78.9332 -3.98384 -0.457318 0
M  V30 901 H 75.5232 -4.17633 0.963364 0
M  V30 902 H 79.7072 -4.60766 1.84414 0
M  V30 903 H 74.9632 -5.27611 3.08928 0
M  V30 904 H 79.1372 -5.72114 3.97063 0
M  V30 905 H 76.7642 -6.05318 4.59885 0
M  V30 906 N 78.3393 -0.321999 -1.54275 0
M  V30 907 C 79.5853 0.281461 -2.00837 0
M  V30 908 C 79.9183 1.51909 -1.20985 0
M  V30 909 O 79.1933 1.923 -0.291733 0
M  V30 910 C 79.4763 0.617162 -3.54772 0
M  V30 911 C 79.3293 -0.631064 -4.45351 0
M  V30 912 C 80.6483 1.43542 -4.16033 0
M  V30 913 H 77.7673 0.100826 -0.730071 0
M  V30 914 H 80.4093 -0.438268 -1.84876 0
M  V30 915 H 78.5593 1.23034 -3.68504 0
M  V30 916 H 80.2313 -1.26934 -4.43492 0
M  V30 917 H 78.4743 -1.26025 -4.15091 0
M  V30 918 H 79.1453 -0.351735 -5.50878 0
M  V30 919 H 81.6213 0.917134 -4.05867 0
M  V30 920 H 80.4973 1.63907 -5.23856 0
M  V30 921 H 80.7583 2.43108 -3.69257 0
M  V30 922 N 79.8174 1.5752 -0.0501392 0
M  V30 923 C 81.0634 1.92936 0.624798 0
M  V30 924 C 81.3964 0.928685 1.70555 0
M  V30 925 O 80.6714 -0.0454779 1.94447 0
M  V30 926 C 80.9544 3.38737 1.22185 0
M  V30 927 C 80.8074 4.49552 0.149218 0
M  V30 928 C 82.1264 3.84913 2.13378 0
M  V30 929 H 79.2454 0.701604 0.225657 0
M  V30 930 H 81.8874 1.89671 -0.111693 0
M  V30 931 H 80.0374 3.4165 1.84953 0
M  V30 932 H 81.7094 4.58768 -0.482648 0
M  V30 933 H 79.9524 4.30638 -0.522841 0
M  V30 934 H 80.6234 5.48653 0.606966 0
M  V30 935 H 83.0994 3.8387 1.60572 0
M  V30 936 H 81.9754 4.87584 2.52097 0
M  V30 937 H 82.2364 3.21611 3.03346 0
M  V30 938 N 81.2955 -0.223234 1.56011 0
M  V30 939 C 82.5425 -0.947875 1.78946 0
M  V30 940 C 82.8705 -1.844 0.618608 0
M  V30 941 O 82.1255 -1.91629 -0.397093 0
M  V30 942 C 82.4245 -1.81948 3.0762 0
M  V30 943 C 82.0905 -1.07672 4.37856 0
M  V30 944 C 80.7525 -0.871544 4.73242 0
M  V30 945 C 83.1045 -0.552081 5.18268 0
M  V30 946 C 80.4325 -0.129791 5.86556 0
M  V30 947 C 82.7845 0.17632 6.32354 0
M  V30 948 C 81.4485 0.39277 6.66343 0
M  V30 949 H 80.7185 -0.346852 0.654809 0
M  V30 950 H 83.3655 -0.216171 1.90276 0
M  V30 951 H 81.6705 -2.61899 2.91404 0
M  V30 952 H 83.3675 -2.38227 3.22566 0
M  V30 953 H 79.9575 -1.24662 4.1007 0
M  V30 954 H 84.1415 -0.698076 4.91366 0
M  V30 955 H 79.3975 0.048153 6.11381 0
M  V30 956 H 83.5715 0.590367 6.93893 0
M  V30 957 H 81.1985 0.969466 7.53993 0
M  V30 958 N 82.7736 -1.49793 -0.48987 0
M  V30 959 C 84.0036 -1.6333 -1.26518 0
M  V30 960 C 84.4116 -0.308392 -1.8667 0
M  V30 961 O 83.7546 0.717512 -1.69108 0
M  V30 962 C 83.8166 -2.6522 -2.4269 0
M  V30 963 C 83.4806 -4.09279 -2.03321 0
M  V30 964 C 84.4776 -4.95738 -1.56652 0
M  V30 965 C 82.1626 -4.55082 -2.12616 0
M  V30 966 C 84.1566 -6.26041 -1.19795 0
M  V30 967 C 81.8436 -5.85396 -1.75371 0
M  V30 968 C 82.8416 -6.707 -1.29036 0
M  V30 969 O 82.5296 -7.98584 -0.92299 0
M  V30 970 H 82.2616 -0.552502 -0.389509 0
M  V30 971 H 84.8156 -1.96642 -0.593381 0
M  V30 972 H 83.0456 -2.27112 -3.12981 0
M  V30 973 H 84.7346 -2.68171 -3.04695 0
M  V30 974 H 85.5006 -4.61575 -1.48908 0
M  V30 975 H 81.3796 -3.88844 -2.47631 0
M  V30 976 H 84.9236 -6.92578 -0.835582 0
M  V30 977 H 80.8206 -6.19085 -1.82768 0
M  V30 978 H 81.5886 -8.11692 -1.05349 0
M  V30 979 N 84.2517 0.741722 -1.39055 0
M  V30 980 C 85.1817 1.869 -1.39966 0
M  V30 981 C 86.1627 1.6804 -0.26392 0
M  V30 982 O 87.3477 1.88458 -0.468755 0
M  V30 983 C 84.4777 3.24572 -1.23574 0
M  V30 984 C 83.4317 3.58056 -2.34477 0
M  V30 985 C 82.7577 4.94593 -2.0318 0
M  V30 986 C 84.0577 3.61716 -3.76774 0
M  V30 987 H 85.7517 1.86395 -2.34302 0
M  V30 988 H 83.2977 0.895361 -1.1278 0
M  V30 989 H 85.2507 4.031 -1.22834 0
M  V30 990 H 83.9747 3.25587 -0.257045 0
M  V30 991 H 82.6337 2.81854 -2.34423 0
M  V30 992 H 82.2817 4.92181 -1.03765 0
M  V30 993 H 81.9817 5.17964 -2.77465 0
M  V30 994 H 83.5057 5.75486 -2.04079 0
M  V30 995 H 84.9197 4.30335 -3.78794 0
M  V30 996 H 83.3167 3.96603 -4.50362 0
M  V30 997 H 84.3867 2.61672 -4.08235 0
M  V30 998 N 85.7298 1.2412 0.971189 0
M  V30 999 C 86.9788 1.07284 1.70801 0
M  V30 1000 C 87.2918 -0.388902 1.91695 0
M  V30 1001 O 88.4978 -0.677379 2.62914 0
M  V30 1002 C 86.9538 1.87145 3.07416 0
M  V30 1003 C 86.5618 3.37707 2.94377 0
M  V30 1004 C 88.3058 1.78828 3.84995 0
M  V30 1005 C 86.2128 4.09925 4.26281 0
M  V30 1006 H 85.1428 0.397854 0.64049 0
M  V30 1007 H 87.7938 1.4817 1.0825 0
M  V30 1008 H 86.1758 1.39071 3.70777 0
M  V30 1009 H 87.3498 3.93335 2.4005 0
M  V30 1010 H 85.6648 3.46938 2.30267 0
M  V30 1011 H 88.2618 2.30089 4.82662 0
M  V30 1012 H 88.6048 0.75284 4.09436 0
M  V30 1013 H 89.1378 2.24563 3.28354 0
M  V30 1014 H 85.8768 5.13813 4.07033 0
M  V30 1015 H 85.3968 3.59083 4.80437 0
M  V30 1016 H 87.0758 4.1673 4.94919 0
M  V30 1017 N 87.2079 -1.17134 1.05439 0
M  V30 1018 C 88.4379 -1.91094 0.785274 0
M  V30 1019 C 88.8459 -1.77198 -0.663142 0
M  V30 1020 O 88.1889 -1.10835 -1.46497 0
M  V30 1021 C 88.2509 -3.42594 1.08949 0
M  V30 1022 C 87.9149 -3.80274 2.53458 0
M  V30 1023 C 88.9119 -3.82912 3.51673 0
M  V30 1024 C 86.5969 -4.11162 2.88532 0
M  V30 1025 C 88.5909 -4.15913 4.83006 0
M  V30 1026 C 86.2779 -4.43831 4.20068 0
M  V30 1027 C 87.2759 -4.46185 5.17115 0
M  V30 1028 O 86.9639 -4.78083 6.46291 0
M  V30 1029 H 86.6959 -0.613073 0.284811 0
M  V30 1030 H 89.2499 -1.49461 1.40893 0
M  V30 1031 H 87.4799 -3.84534 0.408741 0
M  V30 1032 H 89.1689 -3.97817 0.805991 0
M  V30 1033 H 89.9349 -3.5917 3.25917 0
M  V30 1034 H 85.8139 -4.085 2.13656 0
M  V30 1035 H 89.3579 -4.17665 5.5875 0
M  V30 1036 H 85.2549 -4.67037 4.45586 0
M  V30 1037 H 86.0229 -4.9593 6.51149 0
M  V30 1038 N 88.686 -0.835752 -1.33615 0
M  V30 1039 C 89.914 -0.443344 -2.02094 0
M  V30 1040 C 90.329 0.954522 -1.62894 0
M  V30 1041 O 89.686 1.61982 -0.840723 0
M  V30 1042 C 89.737 -0.550775 -3.5728 0
M  V30 1043 O 89.458 -1.89356 -3.95065 0
M  V30 1044 C 90.959 -0.154919 -4.43029 0
M  V30 1045 H 88.179 -0.176359 -0.647409 0
M  V30 1046 H 90.723 -1.12746 -1.70612 0
M  V30 1047 H 88.878 0.0853997 -3.87306 0
M  V30 1048 H 89.292 -1.87687 -4.89769 0
M  V30 1049 H 90.766 -0.281144 -5.51284 0
M  V30 1050 H 91.243 0.902863 -4.2982 0
M  V30 1051 H 91.849 -0.765404 -4.18356 0
M  V30 1052 N 90.1641 1.46063 -0.591896 0
M  V30 1053 C 91.4101 2.03203 -0.0894879 0
M  V30 1054 C 91.7651 1.45407 1.25994 0
M  V30 1055 O 91.0581 0.61326 1.8152 0
M  V30 1056 C 91.2521 3.57391 0.0249813 0
M  V30 1057 C 91.0811 4.30142 -1.3118 0
M  V30 1058 C 89.8511 4.68688 -1.88838 0
M  V30 1059 C 92.0491 4.63098 -2.23708 0
M  V30 1060 N 90.0311 5.26228 -3.1616 0
M  V30 1061 C 91.4021 5.21305 -3.3562 0
M  V30 1062 C 93.4571 4.45031 -2.23274 0
M  V30 1063 C 92.1601 5.63351 -4.47245 0
M  V30 1064 C 94.1861 4.881 -3.33935 0
M  V30 1065 C 93.5481 5.46386 -4.44569 0
M  V30 1066 H 89.6471 0.778323 -0.0757431 0
M  V30 1067 H 92.2311 1.78094 -0.78681 0
M  V30 1068 H 90.4021 3.82195 0.69149 0
M  V30 1069 H 92.1341 4.0118 0.532613 0
M  V30 1070 H 88.8891 4.5174 -1.42223 0
M  V30 1071 H 89.3131 5.59512 -3.8115 0
M  V30 1072 H 93.9551 3.99295 -1.39008 0
M  V30 1073 H 91.6731 6.08061 -5.32247 0
M  V30 1074 H 95.2591 4.75866 -3.34728 0
M  V30 1075 H 94.1391 5.79102 -5.28782 0
M  V30 1076 N 91.6422 0.330177 1.54103 0
M  V30 1077 C 92.8902 -0.269871 2.0029 0
M  V30 1078 C 93.2112 -1.52133 1.21986 0
M  V30 1079 O 92.4812 -1.93212 0.323438 0
M  V30 1080 H 91.0612 -0.10271 0.739905 0
M  V30 1081 H 93.7232 0.448249 1.89675 0
M  V30 1082 H 92.8192 -0.52166 3.07709 0
M  V30 1083 N 93.1203 -1.57491 0.0584922 0
M  V30 1084 C 94.3483 -1.97296 -0.623037 0
M  V30 1085 C 94.7633 -0.936338 -1.63946 0
M  V30 1086 O 94.1203 0.0785981 -1.82331 0
M  V30 1087 C 94.1713 -3.37183 -1.30345 0
M  V30 1088 O 93.8923 -4.36872 -0.32773 0
M  V30 1089 C 95.3933 -3.91788 -2.07406 0
M  V30 1090 H 92.6133 -0.649153 -0.169826 0
M  V30 1091 H 95.1573 -2.04106 0.12696 0
M  V30 1092 H 93.3123 -3.31502 -2.00463 0
M  V30 1093 H 93.7263 -5.18141 -0.814269 0
M  V30 1094 H 95.2003 -4.91926 -2.50425 0
M  V30 1095 H 95.6773 -3.27609 -2.92521 0
M  V30 1096 H 96.2833 -4.00829 -1.42184 0
M  V30 1097 N 94.5984 0.214957 -1.56127 0
M  V30 1098 C 95.5084 1.28727 -1.96129 0
M  V30 1099 C 96.5244 1.50916 -0.866044 0
M  V30 1100 O 97.7004 1.63918 -1.17016 0
M  V30 1101 C 94.7654 2.61569 -2.27558 0
M  V30 1102 C 93.8264 2.47625 -3.50685 0
M  V30 1103 C 93.0594 3.74132 -3.80606 0
M  V30 1104 O 93.2824 4.77438 -3.12104 0
M  V30 1105 O 92.2164 3.70849 -4.74083 0
M  V30 1106 H 96.0424 0.977855 -2.87527 0
M  V30 1107 H 93.6274 0.418358 -1.43423 0
M  V30 1108 H 95.5094 3.40012 -2.48938 0
M  V30 1109 H 94.1844 2.92178 -1.39332 0
M  V30 1110 H 93.0914 1.67361 -3.34576 0
M  V30 1111 H 94.4244 2.21954 -4.39315 0
M  V30 1112 N 96.0765 1.50051 0.48192 0
M  V30 1113 C 96.9865 1.7089 1.60728 0
M  V30 1114 C 98.0025 0.591788 1.63627 0
M  V30 1115 O 99.1785 0.868817 1.81696 0
M  V30 1116 C 96.2435 1.78855 2.97005 0
M  V30 1117 C 95.3045 3.02537 3.04581 0
M  V30 1118 C 94.5375 3.10112 4.34357 0
M  V30 1119 O 94.7605 2.24765 5.24249 0
M  V30 1120 O 93.6945 4.02747 4.47301 0
M  V30 1121 H 97.5205 2.66264 1.46072 0
M  V30 1122 H 95.1055 1.34018 0.660264 0
M  V30 1123 H 96.9875 1.86336 3.77964 0
M  V30 1124 H 95.6625 0.866628 3.11883 0
M  V30 1125 H 94.5695 3.00563 2.22739 0
M  V30 1126 H 95.9025 3.94272 2.94636 0
M  V30 1127 N 97.5546 -0.734337 1.39446 0
M  V30 1128 C 98.8016 -1.49391 1.36706 0
M  V30 1129 C 99.1296 -1.94465 -0.0367813 0
M  V30 1130 O 98.3846 -1.67154 -1.01774 0
M  V30 1131 C 98.6836 -2.74711 2.28623 0
M  V30 1132 C 98.3496 -2.48501 3.76242 0
M  V30 1133 C 97.0116 -2.41062 4.16464 0
M  V30 1134 C 99.3636 -2.26098 4.69606 0
M  V30 1135 C 96.6916 -2.09262 5.48112 0
M  V30 1136 C 99.0436 -1.95814 6.01531 0
M  V30 1137 C 97.7076 -1.86845 6.40816 0
M  V30 1138 H 96.9776 -0.546661 0.500243 0
M  V30 1139 H 99.6246 -0.842788 1.71957 0
M  V30 1140 H 97.9296 -3.44569 1.86492 0
M  V30 1141 H 99.6266 -3.32741 2.23796 0
M  V30 1142 H 96.2166 -2.55169 3.44364 0
M  V30 1143 H 100.401 -2.30812 4.39363 0
M  V30 1144 H 95.6566 -2.00841 5.77471 0
M  V30 1145 H 99.8306 -1.77488 6.73403 0
M  V30 1146 H 97.4576 -1.6197 7.42745 0
M  V30 1147 N 99.0327 -1.24633 -0.964593 0
M  V30 1148 C 99.9427 -1.05859 -2.09359 0
M  V30 1149 C 100.959 0.00148855 -1.74 0
M  V30 1150 O 102.135 -0.197346 -2.00431 0
M  V30 1151 C 99.1997 -0.668879 -3.40187 0
M  V30 1152 C 98.2607 -1.80578 -3.89474 0
M  V30 1153 C 97.4937 -1.43457 -5.14058 0
M  V30 1154 O 97.7167 -0.325775 -5.69469 0
M  V30 1155 O 96.6507 -2.2613 -5.57807 0
M  V30 1156 H 100.477 -2.00516 -2.28094 0
M  V30 1157 H 98.0617 -1.03481 -1.0776 0
M  V30 1158 H 99.9437 -0.463211 -4.18846 0
M  V30 1159 H 98.6187 0.248536 -3.22744 0
M  V30 1160 H 97.5257 -2.06623 -3.11862 0
M  V30 1161 H 98.8587 -2.70208 -4.11398 0
M  V30 1162 N 100.511 1.16574 -1.06058 0
M  V30 1163 C 101.927 1.3904 -0.783585 0
M  V30 1164 C 102.127 1.91784 0.618145 0
M  V30 1165 O 101.183 2.11511 1.37911 0
M  V30 1166 C 102.496 2.37329 -1.84649 0
M  V30 1167 C 104.044 2.51018 -1.86973 0
M  V30 1168 C 104.519 3.52588 -2.92311 0
M  V30 1169 N 106.01 3.60113 -2.91329 0
M  V30 1170 C 106.745 4.38486 -3.69482 0
M  V30 1171 N 106.241 5.20302 -4.57447 0
M  V30 1172 N 108.034 4.33446 -3.57885 0
M  V30 1173 H 100.185 0.806725 -1.96483 0
M  V30 1174 H 102.448 0.417117 -0.851303 0
M  V30 1175 H 102.154 2.05663 -2.85299 0
M  V30 1176 H 102.028 3.36946 -1.6955 0
M  V30 1177 H 104.415 2.81989 -0.869827 0
M  V30 1178 H 104.496 1.51445 -2.0615 0
M  V30 1179 H 104.14 3.22354 -3.92492 0
M  V30 1180 H 104.07 4.51886 -2.70383 0
M  V30 1181 H 106.561 3.01707 -2.27555 0
M  V30 1182 H 106.874 5.77311 -5.13743 0
M  V30 1183 H 105.219 5.19653 -4.61503 0
M  V30 1184 H 108.41 3.68586 -2.88551 0
M  V30 1185 H 108.583 4.94279 -4.19037 0
M  V30 1186 N 101.989 0.842826 1.3317 0
M  V30 1187 C 103.214 0.453129 2.02389 0
M  V30 1188 C 103.639 -0.939105 1.6298 0
M  V30 1189 O 102.997 -1.61472 0.8244 0
M  V30 1190 C 103.045 0.586094 3.55805 0
M  V30 1191 O 102.149 -0.386029 4.10589 0
M  V30 1192 H 101.49 0.183664 0.638094 0
M  V30 1193 H 104.02 1.13875 1.69981 0
M  V30 1194 H 104.03 0.469209 4.05293 0
M  V30 1195 H 102.705 1.6014 3.83833 0
M  V30 1196 H 101.282 -0.226371 3.72212 0
M  V30 1197 N 103.467 -1.45747 0.599634 0
M  V30 1198 C 104.414 -2.30467 -0.123849 0
M  V30 1199 C 105.384 -1.41632 -0.86774 0
M  V30 1200 O 106.569 -1.70568 -0.855056 0
M  V30 1201 C 103.709 -3.26402 -1.12051 0
M  V30 1202 C 102.822 -4.3034 -0.37832 0
M  V30 1203 C 101.957 -5.13389 -1.364 0
M  V30 1204 C 100.996 -6.09061 -0.609171 0
M  V30 1205 N 100.133 -6.84918 -1.54374 0
M  V30 1206 H 104.973 -2.91802 0.604627 0
M  V30 1207 H 102.51 -1.43797 0.309972 0
M  V30 1208 H 104.468 -3.80482 -1.7114 0
M  V30 1209 H 103.098 -2.66839 -1.8165 0
M  V30 1210 H 102.15 -3.78984 0.327929 0
M  V30 1211 H 103.462 -4.98354 0.210997 0
M  V30 1212 H 102.616 -5.7183 -2.02719 0
M  V30 1213 H 101.355 -4.45376 -1.98725 0
M  V30 1214 H 100.36 -5.49758 0.0676979 0
M  V30 1215 H 101.585 -6.79099 0.00891991 0
M  V30 1216 H 99.531 -6.19601 -2.15478 0
M  V30 1217 H 99.448 -7.49254 -1.00766 0
M  V30 1218 H 100.716 -7.47906 -2.19676 0
M  V30 1219 N 104.945 -0.338344 -1.53925 0
M  V30 1220 C 106.361 0.0137736 -1.59594 0
M  V30 1221 C 106.561 1.49186 -1.35447 0
M  V30 1222 O 105.617 2.24987 -1.14616 0
M  V30 1223 C 106.93 -0.41773 -2.97784 0
M  V30 1224 C 108.478 -0.369633 -3.1081 0
M  V30 1225 C 108.953 -0.776524 -4.51369 0
M  V30 1226 N 110.444 -0.730506 -4.57403 0
M  V30 1227 C 111.179 -1.01736 -5.64303 0
M  V30 1228 N 110.675 -1.3721 -6.79077 0
M  V30 1229 N 112.468 -0.941942 -5.54151 0
M  V30 1230 H 104.619 -1.3012 -1.67876 0
M  V30 1231 H 106.882 -0.530082 -0.78595 0
M  V30 1232 H 106.588 -1.44811 -3.20504 0
M  V30 1233 H 106.462 0.209729 -3.76616 0
M  V30 1234 H 108.849 0.651568 -2.87817 0
M  V30 1235 H 108.93 -1.03223 -2.34049 0
M  V30 1236 H 108.574 -1.79571 -4.75096 0
M  V30 1237 H 108.504 -0.0914649 -5.26521 0
M  V30 1238 H 110.995 -0.468783 -3.74981 0
M  V30 1239 H 111.308 -1.57597 -7.5656 0
M  V30 1240 H 109.653 -1.4105 -6.80536 0
M  V30 1241 H 112.844 -0.664184 -4.63364 0
M  V30 1242 H 113.017 -1.16884 -6.37371 0
M  V30 1243 N 106.423 1.57458 -0.0668435 0
M  V30 1244 C 107.37 2.12439 0.902122 0
M  V30 1245 C 108.34 1.03565 1.2986 0
M  V30 1246 O 109.525 1.312 1.38532 0
M  V30 1247 C 106.665 2.6865 2.16614 0
M  V30 1248 C 105.778 3.91663 1.82274 0
M  V30 1249 C 104.913 4.36134 3.0325 0
M  V30 1250 C 103.952 5.51808 2.64904 0
M  V30 1251 N 103.089 5.9126 3.78624 0
M  V30 1252 H 107.929 2.94934 0.426382 0
M  V30 1253 H 105.466 1.4575 0.198819 0
M  V30 1254 H 107.424 2.99346 2.90599 0
M  V30 1255 H 106.054 1.88928 2.61737 0
M  V30 1256 H 105.106 3.6746 0.983719 0
M  V30 1257 H 106.418 4.75693 1.50059 0
M  V30 1258 H 105.572 4.68465 3.85519 0
M  V30 1259 H 104.311 3.50948 3.38655 0
M  V30 1260 H 103.316 5.19133 1.81055 0
M  V30 1261 H 104.541 6.38722 2.30675 0
M  V30 1262 H 102.487 5.09024 4.138 0
M  V30 1263 H 102.404 6.70018 3.5016 0
M  V30 1264 H 103.672 6.28212 4.61486 0
M  V30 1265 N 107.901 -0.206675 1.56239 0
M  V30 1266 C 108.849 -1.27571 1.94495 0
M  V30 1267 C 109.843 -1.47737 0.828862 0
M  V30 1268 O 111.049 -1.48735 1.0138 0
M  V30 1269 H 107.424 -0.428029 0.6183 0
M  V30 1270 H 109.395 -0.925961 2.8367 0
M  V30 1271 C 108.144 -2.61568 2.29079 0
M  V30 1272 H 107.467 -2.46863 3.14482 0
M  V30 1273 H 108.907 -3.35144 2.5972 0
M  V30 1274 C 107.366 -3.17695 1.12123 0
M  V30 1275 O 107.896 -3.99801 0.390153 0
M  V30 1276 N 106.102 -2.76276 0.901097 0
M  V30 1277 H 105.649 -2.09613 1.49733 0
M  V30 1278 H 105.607 -3.1417 0.120319 0
M  V30 1279 N 109.379 -1.50304 -0.473955 0
M  V30 1280 C 110.79 -1.54042 -1.0549 0
M  V30 1281 C 111.141 -0.342248 -1.93192 0
M  V30 1282 O 110.266 0.545157 -2.09421 0
M  V30 1283 C 110.861 -2.79152 -1.91989 0
M  V30 1284 C 109.42 -2.8558 -2.45196 0
M  V30 1285 C 108.567 -2.48295 -1.2347 0
M  V30 1286 H 111.518 -1.5661 -0.256693 0
M  V30 1287 H 111.539 -2.60845 -2.7702 0
M  V30 1288 H 111.051 -3.66339 -1.28131 0
M  V30 1289 H 109.152 -2.02738 -3.12615 0
M  V30 1290 H 109.265 -3.88403 -2.80499 0
M  V30 1291 H 107.629 -2.00669 -1.56856 0
M  V30 1292 H 108.412 -3.37787 -0.612789 0
M  V30 1293 N 110.857 0.726932 -1.39834 0
M  V30 1294 C 111.82 1.82269 -1.38962 0
M  V30 1295 C 112.82 1.58248 -0.285334 0
M  V30 1296 O 114.01 1.65499 -0.54366 0
M  V30 1297 C 111.142 3.20186 -1.17019 0
M  V30 1298 H 112.335 1.84443 -2.36476 0
M  V30 1299 H 109.888 0.931416 -1.25516 0
M  V30 1300 H 110.623 3.23669 -0.202204 0
M  V30 1301 H 110.408 3.3902 -1.96998 0
M  V30 1302 H 111.898 4.00235 -1.1917 0
M  V30 1303 N 112.336 1.25143 0.95797 0
M  V30 1304 C 113.299 1.05321 2.03569 0
M  V30 1305 C 114.299 0.007152 1.60798 0
M  V30 1306 O 115.489 0.24903 1.72411 0
M  V30 1307 C 112.621 0.598394 3.35607 0
M  V30 1308 H 113.814 2.00986 2.22586 0
M  V30 1309 H 111.367 1.07502 1.13459 0
M  V30 1310 H 112.102 -0.361014 3.22284 0
M  V30 1311 H 111.887 1.35351 3.67998 0
M  V30 1312 H 113.377 0.48104 4.1482 0
M  V30 1313 N 113.814 -1.1601 1.06675 0
M  V30 1314 C 115.044 -1.90251 0.805497 0
M  V30 1315 C 115.452 -1.77891 -0.64431 0
M  V30 1316 O 114.795 -1.12383 -1.45313 0
M  V30 1317 C 114.857 -3.41419 1.12576 0
M  V30 1318 C 114.521 -3.77564 2.57477 0
M  V30 1319 C 115.518 -3.79161 3.55715 0
M  V30 1320 C 113.203 -4.08079 2.92877 0
M  V30 1321 C 115.197 -4.10767 4.8739 0
M  V30 1322 C 112.884 -4.39351 4.24751 0
M  V30 1323 C 113.882 -4.40675 5.21818 0
M  V30 1324 O 113.57 -4.71202 6.51325 0
M  V30 1325 H 113.302 -0.610018 0.291297 0
M  V30 1326 H 115.856 -1.47958 1.4247 0
M  V30 1327 H 114.086 -3.84079 0.449503 0
M  V30 1328 H 115.775 -3.9694 0.84814 0
M  V30 1329 H 116.541 -3.55693 3.29708 0
M  V30 1330 H 112.42 -4.06211 2.17976 0
M  V30 1331 H 115.964 -4.11715 5.63148 0
M  V30 1332 H 111.861 -4.62285 4.50514 0
M  V30 1333 H 112.629 -4.88996 6.56373 0
M  V30 1334 N 115.292 -0.849877 -1.32721 0
M  V30 1335 C 116.202 -0.293791 -2.32753 0
M  V30 1336 C 117.218 0.585906 -1.63839 0
M  V30 1337 O 118.394 0.487413 -1.95413 0
M  V30 1338 C 115.459 0.512752 -3.42887 0
M  V30 1339 C 114.52 -0.39252 -4.27502 0
M  V30 1340 C 113.753 0.375625 -5.32377 0
M  V30 1341 O 113.976 1.60613 -5.4732 0
M  V30 1342 O 112.91 -0.256094 -6.01355 0
M  V30 1343 H 116.736 -1.12242 -2.82197 0
M  V30 1344 H 114.321 -0.612685 -1.36259 0
M  V30 1345 H 116.203 0.970704 -4.10067 0
M  V30 1346 H 114.878 1.31826 -2.95641 0
M  V30 1347 H 113.785 -0.898547 -3.63149 0
M  V30 1348 H 115.118 -1.16309 -4.7826 0
M  V30 1349 N 116.77 1.45427 -0.607355 0
M  V30 1350 C 117.718 2.32269 0.12411 0
M  V30 1351 C 118.712 1.45955 0.859854 0
M  V30 1352 O 119.918 1.6244 0.775447 0
M  V30 1353 H 116.293 0.749691 0.0588839 0
M  V30 1354 H 118.264 2.91743 -0.626762 0
M  V30 1355 C 117.013 3.29567 1.1082 0
M  V30 1356 H 116.336 3.95978 0.551492 0
M  V30 1357 H 117.776 3.93061 1.58995 0
M  V30 1358 C 116.235 2.56722 2.18164 0
M  V30 1359 O 116.765 2.34842 3.25902 0
M  V30 1360 N 114.971 2.16861 1.93442 0
M  V30 1361 H 114.518 2.34855 1.05834 0
M  V30 1362 H 114.476 1.68444 2.65469 0
M  V30 1363 N 118.248 0.346503 1.53744 0
M  V30 1364 C 119.525 -0.304532 1.93215 0
M  V30 1365 C 119.905 -1.67993 1.27834 0
M  V30 1366 O 119.253 -2.24411 0.430352 0
M  V30 1367 C 119.463 -0.373852 3.46992 0
M  V30 1368 C 120.811 -0.62329 4.2 0
M  V30 1369 O 121.835 -0.455847 3.53271 0
M  V30 1370 O 120.694 -0.947879 5.38217 0
M  V30 1371 H 117.788 -0.178318 0.807547 0
M  V30 1372 H 120.334 0.397895 1.64969 0
M  V30 1373 H 119.106 0.591224 3.86808 0
M  V30 1374 H 118.729 -1.12294 3.81413 0
M  V30 1375 N 119.726 -1.57421 0.075193 0
M  V30 1376 C 120.673 -2.12915 -0.890843 0
M  V30 1377 C 121.643 -1.04252 -1.29309 0
M  V30 1378 O 122.828 -1.31933 -1.37834 0
M  V30 1379 C 119.968 -2.69795 -2.15186 0
M  V30 1380 C 119.081 -3.92624 -1.80194 0
M  V30 1381 C 118.216 -4.37736 -3.00933 0
M  V30 1382 C 117.255 -5.53205 -2.61974 0
M  V30 1383 N 116.392 -5.9326 -3.75483 0
M  V30 1384 H 121.232 -2.95156 -0.410735 0
M  V30 1385 H 118.769 -1.45854 -0.191086 0
M  V30 1386 H 120.727 -3.00883 -2.89008 0
M  V30 1387 H 119.357 -1.90313 -2.60731 0
M  V30 1388 H 118.409 -3.67977 -0.964218 0
M  V30 1389 H 119.721 -4.76482 -1.47534 0
M  V30 1390 H 118.875 -4.70503 -3.8303 0
M  V30 1391 H 117.614 -3.52739 -3.36789 0
M  V30 1392 H 116.619 -5.20086 -1.783 0
M  V30 1393 H 117.844 -6.39936 -2.27284 0
M  V30 1394 H 115.79 -5.11212 -4.11094 0
M  V30 1395 H 115.707 -6.71865 -3.46602 0
M  V30 1396 H 116.975 -6.30651 -4.58148 0
M  V30 1397 O 121.243 0.0653481 -1.61368 0
M  V30 1398 H 121.934 0.690459 -1.80976 0
M  V30 END ATOM
M  V30 BEGIN BOND
M  V30 END BOND
M  V30 END CTAB
M  END
$$$$
