drugbank_target|P9WPX7 3-dehydroquinate dehydratase (DB02801; DB03739)
 OpenBabel12092120013D

  0  0  0     0  0            999 V3000
M  V30 BEGIN CTAB
M  V30 COUNTS 2234 2252 0 0 0
M  V30 BEGIN ATOM
M  V30 1 H -0.908 1.98254 -0.117106 0
M  V30 2 N 0 1.576 0 0
M  V30 3 C 0.933 2.03868 1.02534 0
M  V30 4 C 1.911 0.928543 1.3348 0
M  V30 5 O 3.095 1.19667 1.45644 0
M  V30 6 C 0.222 2.43627 2.35294 0
M  V30 7 C -0.732 3.65373 2.2001 0
M  V30 8 S 0.101 5.13292 1.52614 0
M  V30 9 C 1.257 5.56322 2.86805 0
M  V30 10 H 1.49 2.90518 0.631377 0
M  V30 11 H -0.977 1.52953 0.210867 0
M  V30 12 H 0.981 2.67203 3.11629 0
M  V30 13 H -0.358 1.57376 2.7183 0
M  V30 14 H -1.165 3.90944 3.18086 0
M  V30 15 H -1.563 3.418 1.51819 0
M  V30 16 H 0.729 5.58782 3.83104 0
M  V30 17 H 1.672 6.56266 2.65933 0
M  V30 18 H 2.08 4.83886 2.90714 0
M  V30 19 N 1.4781 -0.272755 1.55222 0
M  V30 20 C 2.7031 -1.02683 1.80197 0
M  V30 21 C 3.1281 -1.79142 0.573551 0
M  V30 22 O 2.4861 -1.74917 -0.476849 0
M  V30 23 C 2.5341 -1.9609 3.02624 0
M  V30 24 O 1.6381 -3.04863 2.77727 0
M  V30 25 H 0.9791 -0.293557 0.595584 0
M  V30 26 H 3.5091 -0.30159 2.02365 0
M  V30 27 H 3.5191 -2.38039 3.31363 0
M  V30 28 H 2.1941 -1.39851 3.91682 0
M  V30 29 H 0.7711 -2.67228 2.60084 0
M  V30 30 N 2.9562 -1.48159 -0.537278 0
M  V30 31 C 3.8662 -1.64807 -1.6696 0
M  V30 32 C 4.8822 -0.530651 -1.65711 0
M  V30 33 O 6.0582 -0.800784 -1.84796 0
M  V30 34 C 3.1232 -1.67708 -3.03438 0
M  V30 35 C 2.1842 -2.91025 -3.156 0
M  V30 36 C 1.4172 -2.93778 -4.45567 0
M  V30 37 O 1.6402 -2.05153 -5.3223 0
M  V30 38 O 0.5742 -3.85868 -4.61941 0
M  V30 39 H 4.4002 -2.6066 -1.55853 0
M  V30 40 H 1.9852 -1.31475 -0.709549 0
M  V30 41 H 3.8672 -1.7218 -3.84619 0
M  V30 42 H 2.5422 -0.750278 -3.14885 0
M  V30 43 H 1.4492 -2.92089 -2.33741 0
M  V30 44 H 2.7822 -3.83065 -3.09066 0
M  V30 45 N 4.4343 0.785586 -1.36625 0
M  V30 46 C 5.3643 1.91259 -1.33949 0
M  V30 47 C 6.3453 1.68795 -0.210325 0
M  V30 48 O 7.5303 1.89854 -0.408561 0
M  V30 49 C 4.6603 3.28339 -1.13186 0
M  V30 50 C 3.6143 3.65335 -2.22967 0
M  V30 51 C 2.9403 5.00806 -1.87342 0
M  V30 52 C 4.2403 3.7352 -3.65075 0
M  V30 53 H 5.9343 1.93755 -2.28253 0
M  V30 54 H 3.4803 0.930788 -1.09874 0
M  V30 55 H 5.4333 4.06804 -1.09948 0
M  V30 56 H 4.1573 3.2624 -0.153332 0
M  V30 57 H 2.8163 2.89169 -2.25337 0
M  V30 58 H 2.4643 4.95233 -0.880545 0
M  V30 59 H 2.1643 5.26529 -2.60846 0
M  V30 60 H 3.6883 5.81687 -1.85667 0
M  V30 61 H 5.1023 4.42168 -3.64911 0
M  V30 62 H 3.4993 4.10731 -4.37516 0
M  V30 63 H 4.5693 2.74527 -3.99703 0
M  V30 64 N 5.9124 1.20967 1.01018 0
M  V30 65 C 7.1614 1.01796 1.74128 0
M  V30 66 C 7.4744 -0.449691 1.90361 0
M  V30 67 O 8.6804 -0.76068 2.60626 0
M  V30 68 C 7.1364 1.7727 3.13215 0
M  V30 69 C 6.7444 3.28171 3.04972 0
M  V30 70 C 8.4884 1.66489 3.90489 0
M  V30 71 C 6.3954 3.96156 4.39107 0
M  V30 72 H 5.3254 0.377276 0.652824 0
M  V30 73 H 7.9764 1.44651 1.12909 0
M  V30 74 H 6.3584 1.27205 3.75013 0
M  V30 75 H 7.5324 3.85499 2.52443 0
M  V30 76 H 5.8474 3.39437 2.41188 0
M  V30 77 H 8.4444 2.14617 4.89738 0
M  V30 78 H 8.7874 0.6222 4.11624 0
M  V30 79 H 9.3204 2.14003 3.35332 0
M  V30 80 H 6.0594 5.00604 4.23174 0
M  V30 81 H 5.5794 3.43617 4.91617 0
M  V30 82 H 7.2584 4.00774 5.07926 0
M  V30 83 N 7.3905 -1.2043 1.01659 0
M  V30 84 C 8.6365 -1.90079 0.706963 0
M  V30 85 C 8.9695 -1.78648 -0.761474 0
M  V30 86 O 8.2445 -1.17069 -1.55323 0
M  V30 87 C 8.5275 -3.41469 1.14327 0
M  V30 88 C 8.3805 -3.61833 2.67201 0
M  V30 89 C 9.6995 -4.34261 0.714529 0
M  V30 90 H 6.8185 -0.690254 0.2583 0
M  V30 91 H 9.4605 -1.41826 1.26433 0
M  V30 92 H 7.6105 -3.82696 0.669056 0
M  V30 93 H 9.2825 -3.2986 3.22475 0
M  V30 94 H 7.5255 -3.05304 3.08175 0
M  V30 95 H 8.1965 -4.67955 2.92783 0
M  V30 96 H 10.6725 -4.00682 1.12221 0
M  V30 97 H 9.5485 -5.38806 1.04784 0
M  V30 98 H 9.8095 -4.40431 -0.383799 0
M  V30 99 N 8.8686 -0.792821 -1.36206 0
M  V30 100 C 9.8166 -0.181555 -2.3189 0
M  V30 101 C 10.8106 0.661025 -1.55971 0
M  V30 102 O 12.0166 0.555728 -1.71206 0
M  V30 103 H 8.3916 -0.0399382 -0.750939 0
M  V30 104 H 10.3626 -1.00394 -2.81005 0
M  V30 105 C 9.1116 0.666444 -3.41253 0
M  V30 106 H 8.4346 0.0274489 -3.99791 0
M  V30 107 H 9.8746 1.06076 -4.10517 0
M  V30 108 C 8.3336 1.82614 -2.83114 0
M  V30 109 O 8.8636 2.9229 -2.75553 0
M  V30 110 N 7.0696 1.63333 -2.40356 0
M  V30 111 H 6.6166 0.741217 -2.46706 0
M  V30 112 H 6.5746 2.41087 -2.01803 0
M  V30 113 N 10.3467 1.47872 -0.545128 0
M  V30 114 C 11.5927 2.02793 -0.0166104 0
M  V30 115 C 11.9257 1.41987 1.32489 0
M  V30 116 O 11.2007 0.571045 1.85928 0
M  V30 117 C 11.4837 3.59989 0.0893294 0
M  V30 118 C 11.3367 4.3125 -1.27841 0
M  V30 119 C 12.6557 4.32606 0.808724 0
M  V30 120 H 9.7747 0.736962 -0.00751035 0
M  V30 121 H 12.4167 1.76433 -0.705085 0
M  V30 122 H 10.5667 3.82579 0.675681 0
M  V30 123 H 12.2387 4.20035 -1.90704 0
M  V30 124 H 10.4817 3.92076 -1.85632 0
M  V30 125 H 11.1527 5.39736 -1.15713 0
M  V30 126 H 13.6287 4.14936 0.310992 0
M  V30 127 H 12.5047 5.42251 0.851782 0
M  V30 128 H 12.7657 4.00963 1.86229 0
M  V30 129 N 11.8248 0.280983 1.55075 0
M  V30 130 C 13.0738 -0.334784 1.98902 0
M  V30 131 C 13.3868 -1.56534 1.17288 0
M  V30 132 O 14.5928 -2.25443 1.51287 0
M  V30 133 C 13.0488 -0.646994 3.54037 0
M  V30 134 C 12.6568 0.564085 4.44435 0
M  V30 135 C 14.4008 -1.22506 4.06439 0
M  V30 136 C 12.3078 0.226137 5.90967 0
M  V30 137 H 11.2378 -0.128866 0.742906 0
M  V30 138 H 13.8888 0.386556 1.79382 0
M  V30 139 H 12.2708 -1.42739 3.6938 0
M  V30 140 H 13.4448 1.34082 4.40861 0
M  V30 141 H 11.7598 1.0594 4.02698 0
M  V30 142 H 14.3568 -1.49182 5.13468 0
M  V30 143 H 14.6998 -2.16085 3.55827 0
M  V30 144 H 15.2328 -0.50682 3.94558 0
M  V30 145 H 11.9718 1.12996 6.45687 0
M  V30 146 H 11.4918 -0.513717 5.97596 0
M  V30 147 H 13.1708 -0.179539 6.46751 0
M  V30 148 N 13.3029 -1.57598 0.00835791 0
M  V30 149 C 14.2509 -2.10078 -0.998508 0
M  V30 150 C 15.2449 -1.02262 -1.35051 0
M  V30 151 O 16.4509 -1.20719 -1.33518 0
M  V30 152 H 12.8259 -0.670903 -0.339696 0
M  V30 153 H 14.7969 -2.93648 -0.530398 0
M  V30 154 C 13.5459 -2.62615 -2.27879 0
M  V30 155 H 12.8689 -3.45213 -2.01662 0
M  V30 156 H 14.3089 -3.03004 -2.96588 0
M  V30 157 C 12.7679 -1.54407 -2.99433 0
M  V30 158 O 13.2979 -0.931812 -3.90743 0
M  V30 159 N 11.5039 -1.2695 -2.61404 0
M  V30 160 H 11.0509 -1.76924 -1.87232 0
M  V30 161 H 11.0089 -0.547704 -3.09593 0
M  V30 162 N 14.781 0.264519 -1.55364 0
M  V30 163 C 16.029 0.993021 -1.76021 0
M  V30 164 C 16.35 1.86511 -0.569099 0
M  V30 165 O 15.62 1.91438 0.415735 0
M  V30 166 H 14.2 0.369639 -0.649135 0
M  V30 167 H 16.862 0.286707 -1.9278 0
M  V30 168 H 15.958 1.62502 -2.66457 0
M  V30 169 N 16.2591 1.48442 0.529413 0
M  V30 170 C 17.6701 1.5002 1.11134 0
M  V30 171 C 18.0211 0.27031 1.94329 0
M  V30 172 O 17.1461 -0.622507 2.07253 0
M  V30 173 C 17.7411 2.71834 2.02217 0
M  V30 174 C 16.3001 2.76283 2.55627 0
M  V30 175 C 15.4471 2.43542 1.326 0
M  V30 176 H 18.3981 1.5555 0.314641 0
M  V30 177 H 18.4191 2.50384 2.8651 0
M  V30 178 H 17.9311 3.61331 1.41639 0
M  V30 179 H 16.0321 1.90995 3.19924 0
M  V30 180 H 16.1451 3.77725 2.94721 0
M  V30 181 H 14.5091 1.94709 1.64196 0
M  V30 182 H 15.2921 3.3528 0.737734 0
M  V30 183 N 17.7372 -0.778329 1.37039 0
M  V30 184 C 18.6852 -1.91278 1.32345 0
M  V30 185 C 19.6792 -1.68051 0.213331 0
M  V30 186 O 20.8852 -1.75922 0.38098 0
M  V30 187 H 17.2602 -0.628909 0.412283 0
M  V30 188 H 19.2312 -1.92355 2.28127 0
M  V30 189 C 17.9802 -3.28455 1.14073 0
M  V30 190 H 17.3032 -3.46901 1.98746 0
M  V30 191 H 18.7432 -4.08152 1.14837 0
M  V30 192 C 17.2022 -3.36548 -0.154015 0
M  V30 193 O 17.7322 -3.85186 -1.13993 0
M  V30 194 N 15.9382 -2.89894 -0.202475 0
M  V30 195 H 15.4852 -2.50504 0.600476 0
M  V30 196 H 15.4432 -2.9569 -1.06841 0
M  V30 197 N 19.2153 -1.21501 -1.00376 0
M  V30 198 C 20.1453 -0.999478 -2.11028 0
M  V30 199 C 21.1263 0.0759671 -1.6993 0
M  V30 200 O 22.3113 -0.0841106 -1.94018 0
M  V30 201 C 19.4413 -0.564709 -3.42678 0
M  V30 202 C 18.3953 -1.58486 -3.97576 0
M  V30 203 C 17.7213 -1.00628 -5.25146 0
M  V30 204 C 19.0213 -2.97204 -4.29496 0
M  V30 205 H 20.7153 -1.92495 -2.29317 0
M  V30 206 H 18.2613 -0.92693 -1.102 0
M  V30 207 H 20.2143 -0.401091 -4.19487 0
M  V30 208 H 18.9383 0.396411 -3.24185 0
M  V30 209 H 17.5973 -1.73606 -3.22888 0
M  V30 210 H 17.2453 -0.0368439 -5.02987 0
M  V30 211 H 16.9453 -1.68771 -5.62841 0
M  V30 212 H 18.4693 -0.854015 -6.04598 0
M  V30 213 H 19.8833 -2.8552 -4.97143 0
M  V30 214 H 18.2803 -3.62372 -4.78338 0
M  V30 215 H 19.3503 -3.47956 -3.3772 0
M  V30 216 N 20.6934 1.19889 -1.02296 0
M  V30 217 C 21.9414 1.89046 -0.714558 0
M  V30 218 C 22.2624 1.79636 0.758681 0
M  V30 219 O 21.5324 1.20292 1.54618 0
M  V30 220 H 20.1124 0.699802 -0.261317 0
M  V30 221 H 22.7744 1.45574 -1.29592 0
M  V30 222 H 21.8704 2.95524 -1.0036 0
M  V30 223 N 22.1715 0.800033 1.35784 0
M  V30 224 C 23.5875 0.482977 1.52117 0
M  V30 225 C 23.7875 -0.996948 1.75109 0
M  V30 226 O 22.8435 -1.78216 1.78872 0
M  V30 227 C 24.1565 1.32264 2.70049 0
M  V30 228 C 25.7045 1.31742 2.83924 0
M  V30 229 C 26.1795 2.14106 4.04874 0
M  V30 230 N 27.6705 2.11607 4.12039 0
M  V30 231 C 28.4055 2.72099 5.04727 0
M  V30 232 N 27.9015 3.41492 6.02789 0
M  V30 233 N 29.6945 2.61776 4.97423 0
M  V30 234 H 21.8455 1.75856 1.19115 0
M  V30 235 H 24.1085 0.748122 0.582252 0
M  V30 236 H 23.8145 2.37261 2.59616 0
M  V30 237 H 23.6885 0.971303 3.6448 0
M  V30 238 H 26.0755 0.275333 2.93813 0
M  V30 239 H 26.1565 1.70859 1.9037 0
M  V30 240 H 25.8005 3.18351 3.95746 0
M  V30 241 H 25.7305 1.72353 4.97596 0
M  V30 242 H 28.2215 1.61112 3.41835 0
M  V30 243 H 28.5345 3.84953 6.70098 0
M  V30 244 H 26.8795 3.45596 6.02983 0
M  V30 245 H 30.0705 2.07157 4.19766 0
M  V30 246 H 30.2435 3.0921 5.69468 0
M  V30 247 N 23.6496 -1.47581 0.552962 0
M  V30 248 C 24.5796 -2.32762 -0.185451 0
M  V30 249 C 25.5606 -1.43527 -0.912905 0
M  V30 250 O 26.7456 -1.72388 -0.894201 0
M  V30 251 C 23.8756 -3.25219 -1.21859 0
M  V30 252 C 22.8296 -4.23661 -0.607864 0
M  V30 253 C 22.1556 -5.05413 -1.74533 0
M  V30 254 C 23.4556 -5.20481 0.435582 0
M  V30 255 H 25.1496 -2.94749 0.525684 0
M  V30 256 H 22.6956 -1.41738 0.254251 0
M  V30 257 H 24.6486 -3.8365 -1.7433 0
M  V30 258 H 23.3726 -2.61279 -1.95961 0
M  V30 259 H 22.0316 -3.66451 -0.104489 0
M  V30 260 H 21.6796 -4.3788 -2.47529 0
M  V30 261 H 21.3796 -5.72059 -1.34249 0
M  V30 262 H 22.9036 -5.66701 -2.27338 0
M  V30 263 H 24.3176 -5.733 -0.00290157 0
M  V30 264 H 22.7146 -5.95305 0.757067 0
M  V30 265 H 23.7846 -4.66217 1.33303 0
M  V30 266 N 25.1277 -0.289203 -1.54924 0
M  V30 267 C 26.3757 0.322879 -1.99504 0
M  V30 268 C 26.6967 1.55313 -1.1791 0
M  V30 269 O 25.9667 1.94001 -0.272097 0
M  V30 270 H 24.5467 0.122291 -0.736922 0
M  V30 271 H 27.2087 -0.397802 -1.90797 0
M  V30 272 H 26.3047 0.603061 -3.06218 0
M  V30 273 N 26.6058 1.57591 -0.0167156 0
M  V30 274 C 28.0218 1.55946 0.339557 0
M  V30 275 C 28.2218 1.02109 1.73713 0
M  V30 276 O 27.2778 0.662303 2.43659 0
M  V30 277 C 28.5908 3.00037 0.199499 0
M  V30 278 C 30.1388 3.11805 0.273193 0
M  V30 279 C 30.6138 4.57713 0.162068 0
M  V30 280 N 32.1048 4.6268 0.219444 0
M  V30 281 C 32.8398 5.73185 0.157054 0
M  V30 282 N 32.3358 6.92786 0.0442936 0
M  V30 283 N 34.1288 5.61707 0.21014 0
M  V30 284 H 26.2798 1.90921 -0.930758 0
M  V30 285 H 28.5428 0.877674 -0.358319 0
M  V30 286 H 28.2488 3.4333 -0.76273 0
M  V30 287 H 28.1228 3.64387 0.974786 0
M  V30 288 H 30.5098 2.68433 1.22587 0
M  V30 289 H 30.5908 2.50201 -0.532256 0
M  V30 290 H 30.2348 5.01763 -0.78714 0
M  V30 291 H 30.1648 5.17283 0.986222 0
M  V30 292 H 32.6558 3.76649 0.307246 0
M  V30 293 H 32.9688 7.728 0.00304069 0
M  V30 294 H 31.3138 6.94999 0.00968457 0
M  V30 295 H 34.5048 4.6716 0.296546 0
M  V30 296 H 34.6778 6.47807 0.158054 0
M  V30 297 N 28.0839 -0.256276 1.55502 0
M  V30 298 C 29.4999 -0.604325 1.47716 0
M  V30 299 C 29.6999 -1.88763 0.705039 0
M  V30 300 O 28.7559 -2.51445 0.230613 0
M  V30 301 C 30.0689 -0.715756 2.92057 0
M  V30 302 C 31.6169 -0.808706 3.02372 0
M  V30 303 C 32.0919 -0.951777 4.48001 0
M  V30 304 N 33.5829 -1.01688 4.519 0
M  V30 305 C 34.3179 -1.14668 5.61817 0
M  V30 306 N 33.8139 -1.24261 6.81565 0
M  V30 307 N 35.6069 -1.1791 5.49594 0
M  V30 308 H 27.7579 0.586291 2.04148 0
M  V30 309 H 30.0209 0.201015 0.926443 0
M  V30 310 H 29.7269 0.157027 3.51349 0
M  V30 311 H 29.6009 -1.59071 3.42018 0
M  V30 312 H 31.9879 -1.67195 2.43166 0
M  V30 313 H 32.0689 0.0912063 2.55637 0
M  V30 314 H 31.7129 -0.0931291 5.07815 0
M  V30 315 H 31.6429 -1.86659 4.92408 0
M  V30 316 H 34.1339 -0.954468 3.65648 0
M  V30 317 H 34.4469 -1.34046 7.61086 0
M  V30 318 H 32.7919 -1.21236 6.84344 0
M  V30 319 H 35.9829 -1.10057 4.54978 0
M  V30 320 H 36.1559 -1.27681 6.35296 0
M  V30 321 N 29.562 -1.4872 -0.521534 0
M  V30 322 C 30.472 -1.66569 -1.65203 0
M  V30 323 C 31.488 -0.548197 -1.65139 0
M  V30 324 O 32.664 -0.820339 -1.83936 0
M  V30 325 C 29.729 -1.70917 -3.01642 0
M  V30 326 C 28.79 -2.94356 -3.12495 0
M  V30 327 C 28.023 -2.98487 -4.42426 0
M  V30 328 O 28.246 -2.10786 -5.30024 0
M  V30 329 O 27.18 -3.90746 -4.57822 0
M  V30 330 H 31.006 -2.62298 -1.5308 0
M  V30 331 H 28.591 -1.3222 -0.695565 0
M  V30 332 H 30.473 -1.7625 -3.82771 0
M  V30 333 H 29.148 -0.783633 -3.14071 0
M  V30 334 H 28.055 -2.94552 -2.3063 0
M  V30 335 H 29.388 -3.86322 -3.04986 0
M  V30 336 N 31.0401 0.771051 -1.3745 0
M  V30 337 C 32.4511 1.34737 -1.29239 0
M  V30 338 C 32.8021 1.96109 0.0596908 0
M  V30 339 O 31.9271 1.93865 0.961534 0
M  V30 340 C 32.5221 2.44973 -2.34037 0
M  V30 341 C 31.0811 2.98372 -2.29458 0
M  V30 342 C 30.2281 1.71595 -2.17831 0
M  V30 343 H 33.1791 0.571256 -1.48062 0
M  V30 344 H 33.2001 3.24471 -1.98744 0
M  V30 345 H 32.7121 2.00276 -3.32432 0
M  V30 346 H 30.8131 3.47443 -1.34589 0
M  V30 347 H 30.9261 3.53939 -3.229 0
M  V30 348 H 29.2901 1.94547 -1.64388 0
M  V30 349 H 30.0731 1.29001 -3.18141 0
M  V30 350 N 32.5182 1.22032 0.997298 0
M  V30 351 C 33.4812 0.987909 2.06816 0
M  V30 352 C 34.4812 -0.0440084 1.6074 0
M  V30 353 O 35.6712 0.194053 1.73116 0
M  V30 354 C 32.8032 0.49132 3.37341 0
M  V30 355 H 33.9962 1.93803 2.28868 0
M  V30 356 H 31.5492 1.03838 1.16822 0
M  V30 357 H 32.2842 -0.463364 3.20973 0
M  V30 358 H 32.0692 1.23575 3.72118 0
M  V30 359 H 33.5592 0.348824 4.16141 0
M  V30 360 N 33.9963 -1.19345 1.0293 0
M  V30 361 C 35.2423 -1.89318 0.727083 0
M  V30 362 C 35.5753 -1.79446 -0.742483 0
M  V30 363 O 34.8503 -1.1871 -1.54072 0
M  V30 364 C 35.1333 -3.40238 1.17942 0
M  V30 365 C 34.9863 -3.58979 2.71024 0
M  V30 366 C 36.3053 -4.33479 0.760548 0
M  V30 367 H 33.4243 -0.687475 0.265606 0
M  V30 368 H 36.0663 -1.40477 1.2793 0
M  V30 369 H 34.2163 -3.81964 0.709608 0
M  V30 370 H 35.8883 -3.26421 3.25955 0
M  V30 371 H 34.1313 -3.02018 3.11396 0
M  V30 372 H 34.8023 -4.64823 2.9773 0
M  V30 373 H 37.2783 -3.99469 1.16464 0
M  V30 374 H 36.1543 -5.37664 1.10493 0
M  V30 375 H 36.4153 -4.40813 -0.337063 0
M  V30 376 N 35.4744 -0.807222 -1.35358 0
M  V30 377 C 36.7044 -0.399796 -2.02695 0
M  V30 378 C 37.1124 0.994176 -1.60974 0
M  V30 379 O 36.4554 1.65209 -0.803226 0
M  V30 380 C 36.5174 -0.404445 -3.57218 0
M  V30 381 C 36.1814 -1.74904 -4.22206 0
M  V30 382 C 37.1784 -2.70743 -4.4384 0
M  V30 383 C 34.8634 -2.03322 -4.5931 0
M  V30 384 C 36.8574 -3.93183 -5.01683 0
M  V30 385 C 34.5444 -3.26026 -5.16866 0
M  V30 386 C 35.5424 -4.20774 -5.37994 0
M  V30 387 O 35.2304 -5.41312 -5.94337 0
M  V30 388 H 34.9624 -0.160517 -0.656666 0
M  V30 389 H 37.5164 -1.09235 -1.73945 0
M  V30 390 H 35.7464 0.344707 -3.85161 0
M  V30 391 H 37.4354 -0.0192429 -4.05895 0
M  V30 392 H 38.2014 -2.5008 -4.15554 0
M  V30 393 H 34.0804 -1.30384 -4.42178 0
M  V30 394 H 37.6244 -4.6715 -5.1809 0
M  V30 395 H 33.5214 -3.46559 -5.44579 0
M  V30 396 H 34.2894 -5.42618 -6.12787 0
M  V30 397 N 36.9525 1.47285 -0.560781 0
M  V30 398 C 38.2005 2.02064 -0.0379868 0
M  V30 399 C 38.5215 1.43711 1.31803 0
M  V30 400 O 37.7915 0.61362 1.86042 0
M  V30 401 H 36.3715 0.746918 -0.0110531 0
M  V30 402 H 39.0335 1.80648 -0.731598 0
M  V30 403 H 38.1295 3.12064 0.0474463 0
M  V30 404 N 38.4306 0.297415 1.54768 0
M  V30 405 C 39.6786 -0.312295 1.99673 0
M  V30 406 C 39.9996 -1.54686 1.18732 0
M  V30 407 O 39.2696 -1.93854 0.282382 0
M  V30 408 H 37.8496 -0.118381 0.73756 0
M  V30 409 H 40.5116 0.407915 1.90583 0
M  V30 410 H 39.6076 -0.586813 3.06534 0
M  V30 411 N 39.9087 -1.5758 0.0250728 0
M  V30 412 C 41.1367 -1.9593 -0.664747 0
M  V30 413 C 41.5517 -0.901352 -1.65895 0
M  V30 414 O 40.9087 0.117255 -1.82123 0
M  V30 415 C 40.9597 -3.34342 -1.37468 0
M  V30 416 O 40.6807 -4.36079 -0.420324 0
M  V30 417 C 42.1817 -3.873 -2.1567 0
M  V30 418 H 39.4017 -0.645405 -0.183557 0
M  V30 419 H 41.9457 -2.04329 0.0836372 0
M  V30 420 H 40.1007 -3.27175 -2.0745 0
M  V30 421 H 40.5147 -5.16297 -0.923991 0
M  V30 422 H 41.9887 -4.86504 -2.60803 0
M  V30 423 H 42.4657 -3.21331 -2.99405 0
M  V30 424 H 43.0717 -3.97723 -1.50654 0
M  V30 425 N 41.3868 0.248026 -1.55636 0
M  V30 426 C 42.6148 0.993808 -1.81469 0
M  V30 427 C 43.0298 1.78991 -0.60064 0
M  V30 428 O 42.3868 1.77345 0.430682 0
M  V30 429 C 42.4378 1.93258 -3.05506 0
M  V30 430 O 42.1588 1.16869 -4.22224 0
M  V30 431 C 43.6598 2.79444 -3.4413 0
M  V30 432 H 40.8798 0.292486 -0.603898 0
M  V30 433 H 43.4238 0.271253 -2.02693 0
M  V30 434 H 41.5788 2.60943 -2.86335 0
M  V30 435 H 41.9928 1.80359 -4.92515 0
M  V30 436 H 43.4668 3.41066 -4.34026 0
M  V30 437 H 43.9438 3.50499 -2.64665 0
M  V30 438 H 44.5498 2.17214 -3.65648 0
M  V30 439 N 42.8649 1.48995 0.513639 0
M  V30 440 C 43.8149 1.61127 1.61314 0
M  V30 441 C 44.7989 0.467521 1.53958 0
M  V30 442 O 45.9909 0.719826 1.61702 0
M  V30 443 C 43.1199 1.66937 2.99978 0
M  V30 444 C 42.2059 2.86847 3.12377 0
M  V30 445 N 42.5969 4.11078 2.94701 0
M  V30 446 C 40.8949 2.84521 3.43459 0
M  V30 447 C 41.5959 4.91615 3.10949 0
M  V30 448 N 40.5719 4.24739 3.3926 0
M  V30 449 H 44.3739 2.54909 1.46282 0
M  V30 450 H 41.8879 1.45593 0.719483 0
M  V30 451 H 43.8849 1.73725 3.78979 0
M  V30 452 H 42.5449 0.742831 3.16089 0
M  V30 453 H 43.5559 4.41258 2.71131 0
M  V30 454 H 40.2329 2.01192 3.65825 0
M  V30 455 H 41.6229 6.00264 3.01882 0
M  V30 456 N 44.343 -0.763751 1.37857 0
M  V30 457 C 45.62 -1.51244 1.24035 0
M  V30 458 C 46 -2.10472 -0.162649 0
M  V30 459 O 45.348 -1.96206 -1.17112 0
M  V30 460 C 45.558 -2.58694 2.34261 0
M  V30 461 C 46.906 -3.25878 2.72193 0
M  V30 462 O 47.93 -2.68993 2.33497 0
M  V30 463 O 46.789 -4.2874 3.38887 0
M  V30 464 H 43.883 -0.670243 0.484462 0
M  V30 465 H 46.429 -0.800031 1.49658 0
M  V30 466 H 45.201 -2.13105 3.2818 0
M  V30 467 H 44.824 -3.37527 2.10146 0
M  V30 468 N 45.8211 -1.22559 -0.990812 0
M  V30 469 C 46.7311 -1.01394 -2.11557 0
M  V30 470 C 47.7471 0.0383962 -1.73958 0
M  V30 471 O 48.9231 -0.154787 -2.00804 0
M  V30 472 C 45.9881 -0.596569 -3.41529 0
M  V30 473 C 45.0491 -1.72276 -3.93217 0
M  V30 474 C 44.2821 -1.32521 -5.16985 0
M  V30 475 O 44.5051 -0.204909 -5.70032 0
M  V30 476 O 43.4391 -2.14247 -5.62478 0
M  V30 477 H 47.2651 -1.95633 -2.32296 0
M  V30 478 H 44.8501 -1.01172 -1.0993 0
M  V30 479 H 46.7321 -0.374263 -4.19735 0
M  V30 480 H 45.4071 0.316939 -3.22145 0
M  V30 481 H 44.3141 -1.99961 -3.16174 0
M  V30 482 H 45.6471 -2.61421 -4.17037 0
M  V30 483 N 47.2992 1.18797 -1.03562 0
M  V30 484 C 48.2292 2.24472 -0.643019 0
M  V30 485 C 49.2102 1.66433 0.351283 0
M  V30 486 O 50.3952 1.92803 0.232505 0
M  V30 487 C 47.5252 3.473 4.24935e-05 0
M  V30 488 C 46.4792 4.18055 -0.917257 0
M  V30 489 C 45.8052 5.34519 -0.138941 0
M  V30 490 C 47.1052 4.72109 -2.23407 0
M  V30 491 H 48.7992 2.57566 -1.52643 0
M  V30 492 H 46.3452 1.23806 -0.735394 0
M  V30 493 H 48.2982 4.20426 0.286383 0
M  V30 494 H 47.0222 3.13424 0.918299 0
M  V30 495 H 45.6812 3.46821 -1.1879 0
M  V30 496 H 45.3292 4.96891 0.781562 0
M  V30 497 H 45.0292 5.82794 -0.750005 0
M  V30 498 H 46.5532 6.10438 0.1405 0
M  V30 499 H 47.9672 5.36955 -2.00879 0
M  V30 500 H 46.3642 5.30897 -2.79765 0
M  V30 501 H 47.4342 3.89807 -2.88407 0
M  V30 502 N 48.7773 0.814389 1.34928 0
M  V30 503 C 50.0233 0.399013 1.98836 0
M  V30 504 C 50.3563 -1.03314 1.64438 0
M  V30 505 O 49.6313 -1.71811 0.911659 0
M  V30 506 C 49.9143 0.591629 3.55207 0
M  V30 507 C 49.7673 2.06928 3.99376 0
M  V30 508 C 51.0863 0.022199 4.40094 0
M  V30 509 H 48.2053 0.146451 0.722303 0
M  V30 510 H 50.8473 1.02537 1.59957 0
M  V30 511 H 48.9973 0.0584441 3.88456 0
M  V30 512 H 50.6693 2.66544 3.76499 0
M  V30 513 H 48.9123 2.56287 3.49999 0
M  V30 514 H 49.5833 2.1549 5.08201 0
M  V30 515 H 52.0593 0.477643 4.13349 0
M  V30 516 H 50.9353 0.186832 5.48582 0
M  V30 517 H 51.1963 -1.07215 4.28902 0
M  V30 518 N 50.2554 -1.46986 0.568584 0
M  V30 519 C 51.2184 -2.28624 -0.162366 0
M  V30 520 C 52.2184 -1.37596 -0.832103 0
M  V30 521 O 53.4084 -1.60115 -0.68622 0
M  V30 522 C 50.5404 -3.17596 -1.23878 0
M  V30 523 H 51.7334 -2.94722 0.554899 0
M  V30 524 H 49.2864 -1.52863 0.325976 0
M  V30 525 H 50.0214 -2.56214 -1.98808 0
M  V30 526 H 49.8064 -3.846 -0.763219 0
M  V30 527 H 51.2964 -3.79078 -1.75185 0
M  V30 528 N 51.7335 -0.305618 -1.54608 0
M  V30 529 C 52.6635 0.561482 -2.26649 0
M  V30 530 C 53.6445 1.13415 -1.26772 0
M  V30 531 O 54.8295 1.16262 -1.55553 0
M  V30 532 C 51.9595 1.73122 -3.01075 0
M  V30 533 C 50.9135 1.2887 -4.08138 0
M  V30 534 C 50.2395 2.54396 -4.70305 0
M  V30 535 C 51.5395 0.416578 -5.20636 0
M  V30 536 H 53.2335 -0.0393902 -2.99374 0
M  V30 537 H 50.7795 -0.020385 -1.43986 0
M  V30 538 H 52.7325 2.34396 -3.50195 0
M  V30 539 H 51.4565 2.3584 -2.25936 0
M  V30 540 H 50.1155 0.698991 -3.59875 0
M  V30 541 H 49.7635 3.15439 -3.918 0
M  V30 542 H 49.4635 2.25486 -5.42614 0
M  V30 543 H 50.9875 3.16464 -5.2219 0
M  V30 544 H 52.4015 0.935116 -5.65622 0
M  V30 545 H 50.7985 0.221046 -5.99693 0
M  V30 546 H 51.8685 -0.557162 -4.81688 0
M  V30 547 N 53.2116 1.57565 -0.0334293 0
M  V30 548 C 54.4606 1.91155 0.643639 0
M  V30 549 C 54.7736 0.91192 1.73042 0
M  V30 550 O 55.9796 1.13923 2.46442 0
M  V30 551 C 54.4356 3.39443 1.1961 0
M  V30 552 C 54.0436 4.47774 0.142381 0
M  V30 553 C 55.7876 3.82094 1.84944 0
M  V30 554 C 53.6946 5.87162 0.706727 0
M  V30 555 H 52.6246 0.713368 0.244176 0
M  V30 556 H 55.2756 1.8323 -0.0994323 0
M  V30 557 H 53.6576 3.42313 1.99092 0
M  V30 558 H 54.8316 4.56469 -0.630296 0
M  V30 559 H 53.1466 4.14352 -0.412446 0
M  V30 560 H 55.7436 4.83591 2.2813 0
M  V30 561 H 56.0866 3.17386 2.69392 0
M  V30 562 H 56.6196 3.81665 1.12145 0
M  V30 563 H 53.3586 6.55424 -0.0997178 0
M  V30 564 H 52.8786 5.82064 1.44779 0
M  V30 565 H 54.5576 6.35866 1.19514 0
M  V30 566 N 54.6897 -0.239769 1.55765 0
M  V30 567 C 55.5997 -1.31831 1.94056 0
M  V30 568 C 56.6157 -1.52275 0.841925 0
M  V30 569 O 57.7917 -1.65759 1.14394 0
M  V30 570 C 54.8567 -2.65156 2.23368 0
M  V30 571 C 53.9177 -2.53173 3.46701 0
M  V30 572 C 53.1507 -3.8014 3.74606 0
M  V30 573 O 53.3737 -4.82343 3.04469 0
M  V30 574 O 52.3077 -3.78344 4.68123 0
M  V30 575 H 56.1337 -1.02347 2.85935 0
M  V30 576 H 53.7187 -0.441123 1.42739 0
M  V30 577 H 55.6007 -3.43929 2.43497 0
M  V30 578 H 54.2757 -2.94358 1.34666 0
M  V30 579 H 53.1827 -1.72662 3.31871 0
M  V30 580 H 54.5157 -2.28915 4.35728 0
M  V30 581 N 56.1678 -1.49265 -0.50573 0
M  V30 582 C 57.5838 -1.35923 -0.836486 0
M  V30 583 C 57.7838 -0.388704 -1.97715 0
M  V30 584 O 56.8398 0.181336 -2.51848 0
M  V30 585 C 58.1528 -2.76531 -1.18115 0
M  V30 586 C 59.7008 -2.85197 -1.28964 0
M  V30 587 C 60.1758 -4.26561 -1.66761 0
M  V30 588 N 61.6668 -4.2935 -1.73819 0
M  V30 589 C 62.4018 -5.35693 -2.045 0
M  V30 590 N 61.8978 -6.52287 -2.33438 0
M  V30 591 N 63.6908 -5.23105 -2.05711 0
M  V30 592 H 55.8418 -2.10965 0.246519 0
M  V30 593 H 58.1048 -0.9468 0.0476887 0
M  V30 594 H 57.8108 -3.49226 -0.416398 0
M  V30 595 H 57.6848 -3.11599 -2.1257 0
M  V30 596 H 60.0718 -2.12742 -2.04511 0
M  V30 597 H 60.1528 -2.53718 -0.325704 0
M  V30 598 H 59.7968 -4.99541 -0.917656 0
M  V30 599 H 59.7268 -4.55502 -2.64246 0
M  V30 600 H 62.2178 -3.4526 -1.53635 0
M  V30 601 H 62.5308 -7.29158 -2.56024 0
M  V30 602 H 60.8758 -6.55521 -2.30905 0
M  V30 603 H 64.0668 -4.31026 -1.82577 0
M  V30 604 H 64.2398 -6.06078 -2.29289 0
M  V30 605 N 57.6459 0.756429 -1.3826 0
M  V30 606 C 58.5559 1.9009 -1.37488 0
M  V30 607 C 59.5719 1.71855 -0.272366 0
M  V30 608 O 60.7479 1.94827 -0.510318 0
M  V30 609 C 57.8129 3.25421 -1.19592 0
M  V30 610 C 56.8739 3.56202 -2.39622 0
M  V30 611 C 56.1069 4.85075 -2.2257 0
M  V30 612 O 56.3299 5.57246 -1.21793 0
M  V30 613 O 55.2639 5.15269 -3.11098 0
M  V30 614 H 59.0899 1.93695 -2.33914 0
M  V30 615 H 56.6749 0.901313 -1.1915 0
M  V30 616 H 58.5569 4.06337 -1.11661 0
M  V30 617 H 57.2319 3.22634 -0.262486 0
M  V30 618 H 56.1389 2.75458 -2.53128 0
M  V30 619 H 57.4719 3.63747 -3.31586 0
M  V30 620 N 59.124 1.23083 0.984299 0
M  V30 621 C 60.087 1.00979 2.05757 0
M  V30 622 C 61.087 -0.0269573 1.60777 0
M  V30 623 O 62.277 0.212403 1.729 0
M  V30 624 C 59.409 0.527072 3.36801 0
M  V30 625 H 60.602 1.9622 2.26799 0
M  V30 626 H 58.155 1.05072 1.15714 0
M  V30 627 H 58.89 -0.429294 3.21446 0
M  V30 628 H 58.675 1.27515 3.70786 0
M  V30 629 H 60.165 0.392942 4.15747 0
M  V30 630 N 60.6021 -1.18246 1.0419 0
M  V30 631 C 61.5651 -2.20128 0.638452 0
M  V30 632 C 62.5651 -1.57885 -0.304805 0
M  V30 633 O 63.7551 -1.73967 -0.0900369 0
M  V30 634 C 60.8871 -3.4084 -0.0637751 0
M  V30 635 H 62.0801 -2.57336 1.54007 0
M  V30 636 H 59.6331 -1.32152 0.834598 0
M  V30 637 H 60.3681 -3.09166 -0.979136 0
M  V30 638 H 60.1531 -3.8726 0.614198 0
M  V30 639 H 61.6431 -4.16274 -0.332512 0
M  V30 640 N 62.0802 -0.821533 -1.34494 0
M  V30 641 C 62.9902 -0.244355 -2.33324 0
M  V30 642 C 64.0062 0.620527 -1.62559 0
M  V30 643 O 65.1822 0.528754 -1.94335 0
M  V30 644 C 62.2472 0.585368 -3.41723 0
M  V30 645 C 61.3082 -0.301752 -4.28238 0
M  V30 646 C 60.5412 0.488466 -5.3146 0
M  V30 647 O 60.7642 1.72186 -5.4379 0
M  V30 648 O 59.6982 -0.12848 -6.01763 0
M  V30 649 H 63.5242 -1.06231 -2.84515 0
M  V30 650 H 61.1092 -0.583645 -1.37528 0
M  V30 651 H 62.9912 1.05747 -4.07916 0
M  V30 652 H 61.6662 1.38068 -2.92778 0
M  V30 653 H 60.5732 -0.821315 -3.64973 0
M  V30 654 H 61.9062 -1.06138 -4.8062 0
M  V30 655 N 63.5583 1.46682 -0.576371 0
M  V30 656 C 64.4883 2.33028 0.148397 0
M  V30 657 C 65.4693 1.44961 0.889956 0
M  V30 658 O 66.6543 1.73789 0.866662 0
M  V30 659 C 63.7843 3.27117 1.1667 0
M  V30 660 C 62.7383 4.24575 0.540386 0
M  V30 661 C 62.0643 5.08126 1.6647 0
M  V30 662 C 63.3643 5.19722 -0.518331 0
M  V30 663 H 65.0583 2.93875 -0.572509 0
M  V30 664 H 62.6043 1.41315 -0.276768 0
M  V30 665 H 64.5573 3.86374 1.68204 0
M  V30 666 H 63.2813 2.64364 1.9178 0
M  V30 667 H 61.9403 3.66571 0.0461769 0
M  V30 668 H 61.5883 4.41762 2.40531 0
M  V30 669 H 61.2883 5.74122 1.25131 0
M  V30 670 H 62.8123 5.70246 2.18293 0
M  V30 671 H 64.2263 5.73232 -0.0883058 0
M  V30 672 H 62.6233 5.94026 -0.851679 0
M  V30 673 H 63.6933 4.64037 -1.40703 0
M  V30 674 N 65.0364 0.313813 1.54444 0
M  V30 675 C 66.2844 -0.291099 1.99993 0
M  V30 676 C 66.6054 -1.53418 1.20366 0
M  V30 677 O 65.8754 -1.93544 0.302927 0
M  V30 678 H 64.4554 -0.110552 0.738774 0
M  V30 679 H 67.1174 0.428106 1.9014 0
M  V30 680 H 66.2134 -0.554268 3.07139 0
M  V30 681 N 66.5145 -1.57545 0.0417849 0
M  V30 682 C 67.4445 -2.14009 -0.933929 0
M  V30 683 C 68.4255 -1.05938 -1.33083 0
M  V30 684 O 69.6105 -1.33833 -1.40721 0
M  V30 685 C 66.7405 -2.67747 -2.21199 0
M  V30 686 C 65.6945 -3.80718 -1.95544 0
M  V30 687 C 65.0205 -4.20935 -3.29724 0
M  V30 688 C 66.3205 -5.06258 -1.28452 0
M  V30 689 H 68.0145 -2.95788 -0.463645 0
M  V30 690 H 65.5605 -1.42285 -0.221573 0
M  V30 691 H 67.5135 -3.05886 -2.89848 0
M  V30 692 H 66.2375 -1.83147 -2.70416 0
M  V30 693 H 64.8965 -3.43037 -1.2931 0
M  V30 694 H 64.5445 -3.33298 -3.76724 0
M  V30 695 H 64.2445 -4.9707 -3.13361 0
M  V30 696 H 65.7685 -4.61666 -3.9962 0
M  V30 697 H 67.1825 -5.41903 -1.8712 0
M  V30 698 H 65.5795 -5.87475 -1.22445 0
M  V30 699 H 66.6495 -4.84207 -0.259219 0
M  V30 700 N 67.9926 0.231505 -1.5589 0
M  V30 701 C 68.9396 1.28682 -1.91598 0
M  V30 702 C 69.9096 1.47071 -0.771974 0
M  V30 703 O 71.0946 1.60802 -1.027 0
M  V30 704 C 68.2346 2.6342 -2.22944 0
M  V30 705 C 67.3476 2.52912 -3.50228 0
M  V30 706 C 66.4826 3.80106 -3.7107 0
M  V30 707 C 65.5216 3.64279 -4.91902 0
M  V30 708 N 64.6586 4.834 -5.09184 0
M  V30 709 H 69.4986 0.975305 -2.81588 0
M  V30 710 H 67.0356 0.470299 -1.39379 0
M  V30 711 H 68.9936 3.41869 -2.39126 0
M  V30 712 H 67.6236 2.92687 -1.36139 0
M  V30 713 H 66.6756 1.6595 -3.42294 0
M  V30 714 H 67.9876 2.37133 -4.38827 0
M  V30 715 H 67.1416 4.66999 -3.87295 0
M  V30 716 H 65.8806 3.98799 -2.80733 0
M  V30 717 H 64.8856 2.7577 -4.75637 0
M  V30 718 H 66.1106 3.47067 -5.83714 0
M  V30 719 H 64.0566 5.02425 -4.21788 0
M  V30 720 H 63.9736 4.70311 -5.91898 0
M  V30 721 H 65.2416 5.71747 -5.29835 0
M  V30 722 N 69.4707 1.49531 0.497807 0
M  V30 723 C 70.4337 1.65916 1.58128 0
M  V30 724 C 71.4337 0.530825 1.51786 0
M  V30 725 O 72.6237 0.797342 1.54881 0
M  V30 726 C 69.7557 1.65951 2.9778 0
M  V30 727 H 70.9487 2.62556 1.44929 0
M  V30 728 H 68.5017 1.38611 0.722275 0
M  V30 729 H 69.2367 0.709065 3.16453 0
M  V30 730 H 69.0217 2.47897 3.03792 0
M  V30 731 H 70.5117 1.80673 3.76493 0
M  V30 732 N 70.9488 -0.749086 1.3866 0
M  V30 733 C 72.1948 -1.51056 1.35314 0
M  V30 734 C 72.5278 -1.94121 -0.0553751 0
M  V30 735 O 71.8028 -1.65763 -1.01749 0
M  V30 736 C 72.0858 -2.76003 2.31288 0
M  V30 737 C 71.9388 -2.39047 3.8102 0
M  V30 738 C 73.2578 -3.78046 2.2532 0
M  V30 739 H 70.3768 -0.547972 0.492844 0
M  V30 740 H 73.0188 -0.857628 1.69543 0
M  V30 741 H 71.1688 -3.31716 2.02229 0
M  V30 742 H 72.8408 -1.89074 4.20771 0
M  V30 743 H 71.0838 -1.71449 3.98482 0
M  V30 744 H 71.7548 -3.28462 4.4364 0
M  V30 745 H 74.2308 -3.31884 2.50983 0
M  V30 746 H 73.1068 -4.63159 2.94576 0
M  V30 747 H 73.3678 -4.23957 1.25352 0
M  V30 748 N 72.4269 -1.23603 -0.977757 0
M  V30 749 C 73.6729 -1.07129 -1.72195 0
M  V30 750 C 74.0059 0.390501 -1.90233 0
M  V30 751 O 73.2809 1.28902 -1.45653 0
M  V30 752 C 73.5639 -1.80031 -3.11867 0
M  V30 753 C 73.4169 -3.33899 -3.01383 0
M  V30 754 C 74.7359 -1.56492 -4.11337 0
M  V30 755 H 71.8549 -0.390571 -0.624999 0
M  V30 756 H 74.4969 -1.52142 -1.13811 0
M  V30 757 H 72.6469 -1.41768 -3.6171 0
M  V30 758 H 74.3189 -3.81699 -2.59043 0
M  V30 759 H 72.5619 -3.62796 -2.37827 0
M  V30 760 H 73.2329 -3.801 -4.00285 0
M  V30 761 H 75.7089 -1.89757 -3.70313 0
M  V30 762 H 74.5849 -2.09973 -5.07151 0
M  V30 763 H 74.8459 -0.500874 -4.39254 0
M  V30 764 N 73.905 1.17692 -1.04816 0
M  V30 765 C 75.321 1.39863 -0.768794 0
M  V30 766 C 75.521 1.91118 0.638451 0
M  V30 767 O 74.577 2.10036 1.40146 0
M  V30 768 C 75.89 2.39274 -1.82122 0
M  V30 769 C 77.438 2.52987 -1.843 0
M  V30 770 C 77.913 3.55669 -2.88555 0
M  V30 771 N 79.404 3.63183 -2.87493 0
M  V30 772 C 80.139 4.42381 -3.64811 0
M  V30 773 N 79.635 5.25125 -4.51903 0
M  V30 774 N 81.428 4.37217 -3.53267 0
M  V30 775 H 73.579 0.82752 -1.95617 0
M  V30 776 H 75.842 0.426123 -0.846831 0
M  V30 777 H 75.548 2.08678 -2.83102 0
M  V30 778 H 75.422 3.38725 -1.65967 0
M  V30 779 H 77.809 2.82896 -0.839869 0
M  V30 780 H 77.89 1.53623 -2.04532 0
M  V30 781 H 77.534 3.26499 -3.89051 0
M  V30 782 H 77.464 4.54728 -2.65575 0
M  V30 783 H 79.955 3.04103 -2.24343 0
M  V30 784 H 80.268 5.82728 -5.07591 0
M  V30 785 H 78.613 5.24519 -4.55966 0
M  V30 786 H 81.804 3.71626 -2.84625 0
M  V30 787 H 81.977 4.98696 -4.13771 0
M  V30 788 N 75.3831 0.828654 1.34056 0
M  V30 789 C 76.3151 0.212052 2.28217 0
M  V30 790 C 77.3281 -0.601362 1.51286 0
M  V30 791 O 78.5171 -0.430104 1.73241 0
M  V30 792 C 75.6171 -0.72088 3.31144 0
M  V30 793 C 74.7901 0.0509587 4.3737 0
M  V30 794 C 73.8491 -0.803766 5.20025 0
M  V30 795 O 72.8751 -0.246667 5.68665 0
M  V30 796 N 74.0771 -2.1227 5.40298 0
M  V30 797 H 76.8421 1.02105 2.81771 0
M  V30 798 H 74.4031 0.686153 1.46641 0
M  V30 799 H 76.3951 -1.29742 3.8334 0
M  V30 800 H 74.9651 -1.43061 2.77943 0
M  V30 801 H 74.1851 0.808831 3.85813 0
M  V30 802 H 75.4731 0.582065 5.0546 0
M  V30 803 H 74.8711 -2.59898 5.02464 0
M  V30 804 H 73.4281 -2.64796 5.95589 0
M  V30 805 N 76.8612 -1.46375 0.584142 0
M  V30 806 C 78.0862 -2.07268 0.0740405 0
M  V30 807 C 78.5112 -1.42979 -1.22223 0
M  V30 808 O 77.8692 -0.514092 -1.73859 0
M  V30 809 C 77.9172 -3.60518 -0.0767769 0
M  V30 810 O 77.0212 -3.96533 -1.13292 0
M  V30 811 H 76.3622 -0.660961 0.0634524 0
M  V30 812 H 78.8922 -1.87991 0.807492 0
M  V30 813 H 78.9022 -4.07021 -0.282489 0
M  V30 814 H 77.5772 -4.06702 0.86986 0
M  V30 815 H 76.1542 -3.61738 -0.905553 0
M  V30 816 N 78.3393 -0.321999 -1.54275 0
M  V30 817 C 79.6163 0.335232 -1.92706 0
M  V30 818 C 79.9963 1.70006 -1.25145 0
M  V30 819 O 79.3443 2.25067 -0.394596 0
M  V30 820 C 79.5543 0.429008 -3.46353 0
M  V30 821 C 80.9023 0.690029 -4.18956 0
M  V30 822 O 81.9263 0.511992 -3.52501 0
M  V30 823 O 80.7853 1.03338 -5.36641 0
M  V30 824 H 77.8793 0.191143 -0.804608 0
M  V30 825 H 80.4253 -0.3716 -1.65581 0
M  V30 826 H 79.1973 -0.529611 -3.87699 0
M  V30 827 H 78.8203 1.18348 -3.79578 0
M  V30 828 N 79.8174 1.5752 -0.0501392 0
M  V30 829 C 81.0424 1.97376 0.636997 0
M  V30 830 C 81.4674 0.927466 1.63645 0
M  V30 831 O 80.8254 -0.10941 1.8097 0
M  V30 832 C 80.8734 3.36304 1.30123 0
M  V30 833 O 79.9774 3.34156 2.41689 0
M  V30 834 H 79.3184 0.642998 0.165679 0
M  V30 835 H 81.8484 2.04258 -0.118233 0
M  V30 836 H 81.8584 3.73008 1.65315 0
M  V30 837 H 80.5334 4.11993 0.568746 0
M  V30 838 H 79.1104 3.09196 2.08451 0
M  V30 839 N 81.2955 -0.223234 1.56011 0
M  V30 840 C 82.2055 -1.29766 1.95443 0
M  V30 841 C 83.2215 -1.51373 0.858028 0
M  V30 842 O 84.3975 -1.64536 1.16146 0
M  V30 843 C 81.4625 -2.62772 2.26167 0
M  V30 844 C 80.5235 -2.49482 3.49367 0
M  V30 845 C 79.7565 -3.76145 3.78616 0
M  V30 846 O 79.9795 -4.79087 3.09568 0
M  V30 847 O 78.9135 -3.73358 4.72109 0
M  V30 848 H 82.7395 -0.99309 2.87004 0
M  V30 849 H 80.3245 -0.425958 1.43199 0
M  V30 850 H 82.2065 -3.41327 2.47131 0
M  V30 851 H 80.8815 -2.92913 1.37781 0
M  V30 852 H 79.7885 -1.69133 3.33684 0
M  V30 853 H 81.1215 -2.2428 4.38131 0
M  V30 854 N 82.7736 -1.49793 -0.48987 0
M  V30 855 C 83.7366 -1.66752 -1.57246 0
M  V30 856 C 84.7366 -0.538867 -1.51502 0
M  V30 857 O 85.9266 -0.805545 -1.54456 0
M  V30 858 C 83.0586 -1.67528 -2.96896 0
M  V30 859 H 84.2516 -2.63321 -1.43534 0
M  V30 860 H 81.8046 -1.38992 -0.714914 0
M  V30 861 H 82.5396 -0.725837 -3.16073 0
M  V30 862 H 82.3246 -2.49504 -3.02473 0
M  V30 863 H 83.8146 -1.82667 -3.7553 0
M  V30 864 N 84.2517 0.741722 -1.39055 0
M  V30 865 C 85.1837 1.8657 -1.33133 0
M  V30 866 C 86.1967 1.61001 -0.241329 0
M  V30 867 O 87.3857 1.7136 -0.499784 0
M  V30 868 C 84.4857 3.22457 -1.04283 0
M  V30 869 C 83.6587 3.75435 -2.24427 0
M  V30 870 C 82.7177 4.89867 -1.92138 0
M  V30 871 O 81.7437 5.03879 -2.64754 0
M  V30 872 N 82.9457 5.73738 -0.88347 0
M  V30 873 H 85.7107 1.92156 -2.29991 0
M  V30 874 H 83.2717 0.922172 -1.3307 0
M  V30 875 H 85.2637 3.9657 -0.807128 0
M  V30 876 H 83.8337 3.12181 -0.161807 0
M  V30 877 H 83.0537 2.92751 -2.6399 0
M  V30 878 H 84.3417 4.07563 -3.04581 0
M  V30 879 H 83.7397 5.64999 -0.281517 0
M  V30 880 H 82.2967 6.47947 -0.707662 0
M  V30 881 N 85.7298 1.2412 0.971189 0
M  V30 882 C 86.6598 1.05508 2.08304 0
M  V30 883 C 87.6408 -0.0308864 1.70072 0
M  V30 884 O 88.8258 0.135521 1.93727 0
M  V30 885 C 85.9558 0.655365 3.4106 0
M  V30 886 C 84.9098 1.68971 3.93234 0
M  V30 887 C 84.2358 1.14516 5.22293 0
M  V30 888 C 85.5358 3.08487 4.21465 0
M  V30 889 H 87.2298 1.98507 2.24132 0
M  V30 890 H 84.7758 0.955821 1.07704 0
M  V30 891 H 86.7288 0.51217 4.18276 0
M  V30 892 H 85.4528 -0.31032 3.25122 0
M  V30 893 H 84.1118 1.82106 3.18171 0
M  V30 894 H 83.7598 0.170189 5.02712 0
M  V30 895 H 83.4598 1.83635 5.58168 0
M  V30 896 H 84.9838 1.01401 6.02121 0
M  V30 897 H 86.3978 2.98601 4.89398 0
M  V30 898 H 84.7948 3.74926 4.68562 0
M  V30 899 H 85.8648 3.56787 3.28376 0
M  V30 900 N 87.2079 -1.17134 1.05439 0
M  V30 901 C 88.1379 -2.2342 0.678649 0
M  V30 902 C 89.1189 -1.66971 -0.32476 0
M  V30 903 O 90.3039 -1.93149 -0.201802 0
M  V30 904 C 87.4339 -3.47256 0.0552099 0
M  V30 905 C 86.3879 -4.16543 0.98365 0
M  V30 906 C 85.7139 -5.34231 0.223961 0
M  V30 907 C 87.0139 -4.68495 2.3089 0
M  V30 908 H 88.7079 -2.55105 1.56722 0
M  V30 909 H 86.2539 -1.2262 0.754998 0
M  V30 910 H 88.2069 -4.20828 -0.21946 0
M  V30 911 H 86.9309 -3.14846 -0.868319 0
M  V30 912 H 85.5899 -3.44887 1.24293 0
M  V30 913 H 85.2379 -4.98071 -0.702412 0
M  V30 914 H 84.9379 -5.81527 0.842627 0
M  V30 915 H 86.4619 -6.10585 -0.0433671 0
M  V30 916 H 87.8759 -5.33691 2.09396 0
M  V30 917 H 86.2729 -5.26379 2.88176 0
M  V30 918 H 87.3429 -3.85169 2.94572 0
M  V30 919 N 88.686 -0.835752 -1.33615 0
M  V30 920 C 89.963 -0.352017 -1.92406 0
M  V30 921 C 90.343 1.16225 -1.76224 0
M  V30 922 O 89.691 1.97526 -1.14873 0
M  V30 923 C 89.901 -0.795485 -3.39813 0
M  V30 924 C 91.249 -0.801703 -4.16963 0
M  V30 925 O 92.273 -0.738889 -3.48452 0
M  V30 926 O 91.132 -0.886607 -5.3926 0
M  V30 927 H 88.226 -0.0989641 -0.821057 0
M  V30 928 H 90.772 -0.921397 -1.42507 0
M  V30 929 H 89.544 -1.83795 -3.45449 0
M  V30 930 H 89.167 -0.202505 -3.97084 0
M  V30 931 N 90.1641 1.46063 -0.591896 0
M  V30 932 C 91.4101 2.03203 -0.0894879 0
M  V30 933 C 91.7651 1.45407 1.25994 0
M  V30 934 O 91.0581 0.61326 1.8152 0
M  V30 935 C 91.2521 3.57391 0.0249813 0
M  V30 936 C 91.0811 4.30142 -1.3118 0
M  V30 937 C 89.8511 4.68688 -1.88838 0
M  V30 938 C 92.0491 4.63098 -2.23708 0
M  V30 939 N 90.0311 5.26228 -3.1616 0
M  V30 940 C 91.4021 5.21305 -3.3562 0
M  V30 941 C 93.4571 4.45031 -2.23274 0
M  V30 942 C 92.1601 5.63351 -4.47245 0
M  V30 943 C 94.1861 4.881 -3.33935 0
M  V30 944 C 93.5481 5.46386 -4.44569 0
M  V30 945 H 89.6471 0.778323 -0.0757431 0
M  V30 946 H 92.2311 1.78094 -0.78681 0
M  V30 947 H 90.4021 3.82195 0.69149 0
M  V30 948 H 92.1341 4.0118 0.532613 0
M  V30 949 H 88.8891 4.5174 -1.42223 0
M  V30 950 H 89.3131 5.59512 -3.8115 0
M  V30 951 H 93.9551 3.99295 -1.39008 0
M  V30 952 H 91.6731 6.08061 -5.32247 0
M  V30 953 H 95.2591 4.75866 -3.34728 0
M  V30 954 H 94.1391 5.79102 -5.28782 0
M  V30 955 N 91.6422 0.330177 1.54103 0
M  V30 956 C 92.8912 -0.271336 1.99867 0
M  V30 957 C 93.2042 -1.52723 1.22209 0
M  V30 958 O 94.4102 -2.20515 1.58383 0
M  V30 959 C 92.8662 -0.534032 3.55916 0
M  V30 960 C 92.4742 0.705193 4.42415 0
M  V30 961 C 94.2182 -1.09514 4.1013 0
M  V30 962 C 92.1252 0.414035 5.89949 0
M  V30 963 H 91.0552 -0.105166 0.74663 0
M  V30 964 H 93.7062 0.443429 1.78062 0
M  V30 965 H 92.0882 -1.30915 3.73734 0
M  V30 966 H 93.2622 1.4804 4.36372 0
M  V30 967 H 91.5772 1.18698 3.99124 0
M  V30 968 H 94.1742 -1.3277 5.17954 0
M  V30 969 H 94.5172 -2.04656 3.62521 0
M  V30 970 H 95.0502 -0.381038 3.95971 0
M  V30 971 H 91.7892 1.33481 6.41766 0
M  V30 972 H 91.3092 -0.323336 5.98928 0
M  V30 973 H 92.9882 0.0263105 6.46995 0
M  V30 974 N 93.1203 -1.57491 0.0584922 0
M  V30 975 C 94.0703 -2.08474 -0.923188 0
M  V30 976 C 95.0543 -0.991479 -1.26722 0
M  V30 977 O 96.2463 -1.25473 -1.24842 0
M  V30 978 C 93.3753 -2.6392 -2.19548 0
M  V30 979 C 92.4613 -3.80227 -1.87852 0
M  V30 980 N 92.8523 -4.89714 -1.26546 0
M  V30 981 C 91.1503 -3.89271 -2.17679 0
M  V30 982 C 91.8513 -5.70689 -1.12644 0
M  V30 983 N 90.8273 -5.18531 -1.63176 0
M  V30 984 H 94.6293 -2.90517 -0.444653 0
M  V30 985 H 92.1433 -1.61745 -0.145764 0
M  V30 986 H 94.1403 -2.98752 -2.9078 0
M  V30 987 H 92.8003 -1.83318 -2.68001 0
M  V30 988 H 93.8113 -5.09358 -0.936757 0
M  V30 989 H 90.4883 -3.19623 -2.68602 0
M  V30 990 H 91.8783 -6.6875 -0.6499 0
M  V30 991 N 94.5984 0.214957 -1.56127 0
M  V30 992 C 95.5304 1.29004 -1.89448 0
M  V30 993 C 96.5434 1.42716 -0.783326 0
M  V30 994 O 97.7324 1.43496 -1.06166 0
M  V30 995 C 94.8324 2.66482 -2.09381 0
M  V30 996 C 94.0054 2.74633 -3.40434 0
M  V30 997 C 93.0644 3.9317 -3.49719 0
M  V30 998 O 92.0904 3.812 -4.227 0
M  V30 999 N 93.2924 5.07765 -2.81346 0
M  V30 1000 H 96.0574 1.00743 -2.82261 0
M  V30 1001 H 93.6184 0.40497 -1.56753 0
M  V30 1002 H 95.6104 3.44173 -2.12901 0
M  V30 1003 H 94.1804 2.87314 -1.23163 0
M  V30 1004 H 93.4004 1.83368 -3.48955 0
M  V30 1005 H 94.6884 2.77054 -4.26754 0
M  V30 1006 H 94.0864 5.20386 -2.21843 0
M  V30 1007 H 92.6434 5.83474 -2.90519 0
M  V30 1008 N 96.0765 1.50051 0.48192 0
M  V30 1009 C 97.0395 1.67584 1.5636 0
M  V30 1010 C 98.0395 0.546894 1.51214 0
M  V30 1011 O 99.2295 0.813725 1.54026 0
M  V30 1012 C 96.3615 1.691 2.96003 0
M  V30 1013 H 97.5545 2.64078 1.42136 0
M  V30 1014 H 95.1075 1.39369 0.707533 0
M  V30 1015 H 95.8425 0.742589 3.15684 0
M  V30 1016 H 95.6275 2.51105 3.01146 0
M  V30 1017 H 97.1175 1.84656 3.74556 0
M  V30 1018 N 97.5546 -0.734337 1.39446 0
M  V30 1019 C 98.5176 -1.83004 1.37994 0
M  V30 1020 C 99.5176 -1.58397 0.276938 0
M  V30 1021 O 100.708 -1.65785 0.534875 0
M  V30 1022 C 97.8396 -3.20802 1.1532 0
M  V30 1023 H 99.0326 -1.85694 2.35494 0
M  V30 1024 H 96.5856 -0.938059 1.25021 0
M  V30 1025 H 97.3206 -3.23772 0.185036 0
M  V30 1026 H 97.1056 -3.4006 1.95197 0
M  V30 1027 H 98.5956 -4.00862 1.17046 0
M  V30 1028 N 99.0327 -1.24633 -0.964593 0
M  V30 1029 C 100.31 -0.995809 -1.68354 0
M  V30 1030 C 100.69 0.480964 -2.05548 0
M  V30 1031 O 100.038 1.45599 -1.76105 0
M  V30 1032 C 100.248 -1.92177 -2.91323 0
M  V30 1033 C 101.596 -2.19446 -3.63495 0
M  V30 1034 O 102.62 -1.89855 -3.01386 0
M  V30 1035 O 101.479 -2.69714 -4.75307 0
M  V30 1036 H 98.5727 -0.376854 -0.736146 0
M  V30 1037 H 101.119 -1.35745 -1.0184 0
M  V30 1038 H 99.8907 -2.91938 -2.60553 0
M  V30 1039 H 99.5137 -1.56349 -3.65569 0
M  V30 1040 N 100.511 1.16574 -1.06058 0
M  V30 1041 C 101.474 2.19085 -0.673392 0
M  V30 1042 C 102.474 1.5835 0.279648 0
M  V30 1043 O 103.664 1.74088 0.0623488 0
M  V30 1044 C 100.796 3.40899 0.00954234 0
M  V30 1045 H 101.989 2.54853 -1.58081 0
M  V30 1046 H 99.5418 1.30808 -0.855516 0
M  V30 1047 H 100.277 3.10684 0.929826 0
M  V30 1048 H 100.062 3.86233 -0.67573 0
M  V30 1049 H 101.552 4.1675 0.266245 0
M  V30 1050 N 101.989 0.842826 1.3317 0
M  V30 1051 C 102.952 0.284065 2.27433 0
M  V30 1052 C 103.952 -0.54948 1.5112 0
M  V30 1053 O 105.142 -0.362699 1.70382 0
M  V30 1054 C 102.274 -0.599384 3.35589 0
M  V30 1055 H 103.467 1.11589 2.78366 0
M  V30 1056 H 101.02 0.616221 1.4364 0
M  V30 1057 H 101.755 -1.45349 2.89904 0
M  V30 1058 H 101.54 -0.00291266 3.921 0
M  V30 1059 H 103.03 -0.983488 4.05854 0
M  V30 1060 N 103.467 -1.45747 0.599634 0
M  V30 1061 C 104.377 -2.34262 -0.125888 0
M  V30 1062 C 105.393 -1.50768 -0.868625 0
M  V30 1063 O 106.569 -1.83592 -0.828003 0
M  V30 1064 C 103.634 -3.28252 -1.11587 0
M  V30 1065 C 102.695 -4.27651 -0.375956 0
M  V30 1066 C 101.928 -5.1715 -1.31877 0
M  V30 1067 O 102.151 -5.09916 -2.55621 0
M  V30 1068 O 101.085 -5.96286 -0.820157 0
M  V30 1069 H 104.911 -2.97688 0.601315 0
M  V30 1070 H 102.496 -1.44999 0.359934 0
M  V30 1071 H 104.378 -3.86191 -1.68626 0
M  V30 1072 H 103.053 -2.67401 -1.82424 0
M  V30 1073 H 101.96 -3.7335 0.236698 0
M  V30 1074 H 103.293 -4.91334 0.29177 0
M  V30 1075 N 104.945 -0.338344 -1.53925 0
M  V30 1076 C 106.356 0.146651 -1.86123 0
M  V30 1077 C 106.707 1.5042 -1.2597 0
M  V30 1078 O 105.832 2.08723 -0.571294 0
M  V30 1079 C 106.427 0.272879 -3.37699 0
M  V30 1080 C 104.986 0.702103 -3.69794 0
M  V30 1081 C 104.133 -0.167304 -2.76795 0
M  V30 1082 H 107.084 -0.558123 -1.48562 0
M  V30 1083 H 107.105 1.10128 -3.64214 0
M  V30 1084 H 106.617 -0.715307 -3.81451 0
M  V30 1085 H 104.718 1.6995 -3.31584 0
M  V30 1086 H 104.831 0.495604 -4.7653 0
M  V30 1087 H 103.195 0.359527 -2.5215 0
M  V30 1088 H 103.978 -1.15253 -3.23375 0
M  V30 1089 N 106.423 1.57458 -0.0668435 0
M  V30 1090 C 107.669 1.93587 0.6043 0
M  V30 1091 C 108.002 0.946722 1.69561 0
M  V30 1092 O 107.277 -0.0248516 1.94484 0
M  V30 1093 C 107.56 3.40014 1.18585 0
M  V30 1094 C 107.413 4.49685 0.101529 0
M  V30 1095 C 108.732 3.87154 2.09284 0
M  V30 1096 H 105.851 0.703958 0.218202 0
M  V30 1097 H 108.493 1.89542 -0.131804 0
M  V30 1098 H 106.643 3.43592 1.81319 0
M  V30 1099 H 108.315 4.5823 -0.531279 0
M  V30 1100 H 106.558 4.30059 -0.568487 0
M  V30 1101 H 107.229 5.49266 0.54874 0
M  V30 1102 H 109.705 3.85551 1.56491 0
M  V30 1103 H 108.581 4.90231 2.46911 0
M  V30 1104 H 108.842 3.2481 2.99918 0
M  V30 1105 N 107.901 -0.206675 1.56239 0
M  V30 1106 C 109.15 -0.926964 1.79138 0
M  V30 1107 C 109.463 -1.84901 0.638043 0
M  V30 1108 O 110.669 -2.60906 0.751033 0
M  V30 1109 C 109.125 -1.6986 3.17294 0
M  V30 1110 C 108.733 -0.821956 4.40395 0
M  V30 1111 C 110.477 -2.40922 3.4951 0
M  V30 1112 C 108.384 -1.59179 5.69575 0
M  V30 1113 H 107.314 -0.349864 0.667915 0
M  V30 1114 H 109.965 -0.180487 1.8261 0
M  V30 1115 H 108.347 -2.48853 3.08039 0
M  V30 1116 H 109.521 -0.0715019 4.60745 0
M  V30 1117 H 107.836 -0.222741 4.15804 0
M  V30 1118 H 110.433 -2.99047 4.43255 0
M  V30 1119 H 110.776 -3.14542 2.72707 0
M  V30 1120 H 111.309 -1.68905 3.60161 0
M  V30 1121 H 108.048 -0.898589 6.49312 0
M  V30 1122 H 107.568 -2.31648 5.53262 0
M  V30 1123 H 109.247 -2.14862 6.10281 0
M  V30 1124 N 109.379 -1.50304 -0.473955 0
M  V30 1125 C 110.309 -1.71886 -1.58042 0
M  V30 1126 C 111.29 -0.567799 -1.60344 0
M  V30 1127 O 112.475 -0.806623 -1.76656 0
M  V30 1128 C 109.605 -1.81036 -2.96384 0
M  V30 1129 C 108.559 -2.962 -3.08949 0
M  V30 1130 C 107.885 -2.9049 -4.48909 0
M  V30 1131 C 109.185 -4.36752 -2.86434 0
M  V30 1132 H 110.879 -2.64527 -1.40234 0
M  V30 1133 H 108.425 -1.27295 -0.673201 0
M  V30 1134 H 110.378 -1.94719 -3.73714 0
M  V30 1135 H 109.102 -0.850147 -3.15341 0
M  V30 1136 H 107.761 -2.82164 -2.3405 0
M  V30 1137 H 107.409 -1.92321 -4.64781 0
M  V30 1138 H 107.109 -3.67802 -4.58253 0
M  V30 1139 H 108.633 -3.06218 -5.28264 0
M  V30 1140 H 110.047 -4.5133 -3.53517 0
M  V30 1141 H 108.444 -5.15493 -3.07225 0
M  V30 1142 H 109.514 -4.49321 -1.82316 0
M  V30 1143 N 110.857 0.726932 -1.39834 0
M  V30 1144 C 111.805 1.86235 -1.39353 0
M  V30 1145 C 112.799 1.67144 -0.275555 0
M  V30 1146 O 114.005 1.74387 -0.44601 0
M  V30 1147 H 110.38 0.613174 -0.43534 0
M  V30 1148 H 112.351 1.83756 -2.35109 0
M  V30 1149 C 111.1 3.23995 -1.26185 0
M  V30 1150 H 110.423 3.39285 -2.11484 0
M  V30 1151 H 111.863 4.03609 -1.29907 0
M  V30 1152 C 110.322 3.36888 0.0290018 0
M  V30 1153 O 110.852 3.89152 0.99619 0
M  V30 1154 N 109.058 2.90446 0.0947437 0
M  V30 1155 H 108.605 2.48102 -0.693035 0
M  V30 1156 H 108.563 2.99451 0.957932 0
M  V30 1157 N 112.336 1.25143 0.95797 0
M  V30 1158 C 113.299 1.05321 2.03569 0
M  V30 1159 C 114.299 0.007152 1.60798 0
M  V30 1160 O 115.489 0.24903 1.72411 0
M  V30 1161 C 112.621 0.598394 3.35607 0
M  V30 1162 H 113.814 2.00986 2.22586 0
M  V30 1163 H 111.367 1.07502 1.13459 0
M  V30 1164 H 112.102 -0.361014 3.22284 0
M  V30 1165 H 111.887 1.35351 3.67998 0
M  V30 1166 H 113.377 0.48104 4.1482 0
M  V30 1167 N 113.814 -1.1601 1.06675 0
M  V30 1168 C 115.062 -1.86264 0.784229 0
M  V30 1169 C 115.383 -1.82328 -0.691488 0
M  V30 1170 O 114.653 -1.25947 -1.50047 0
M  V30 1171 H 113.233 -0.689621 0.28711 0
M  V30 1172 H 115.895 -1.40664 1.34906 0
M  V30 1173 H 114.991 -2.91595 1.11259 0
M  V30 1174 N 115.292 -0.849877 -1.32721 0
M  V30 1175 C 116.54 -0.450032 -1.97026 0
M  V30 1176 C 116.861 0.996604 -1.67609 0
M  V30 1177 O 116.131 1.6958 -0.980786 0
M  V30 1178 H 114.711 -0.163426 -0.728904 0
M  V30 1179 H 117.373 -1.08526 -1.6189 0
M  V30 1180 H 116.469 -0.591146 -3.0645 0
M  V30 1181 N 116.77 1.45427 -0.607355 0
M  V30 1182 C 117.7 2.3329 0.0989352 0
M  V30 1183 C 118.681 1.46816 0.859007 0
M  V30 1184 O 119.866 1.75588 0.829604 0
M  V30 1185 C 116.996 3.29518 1.09705 0
M  V30 1186 C 115.95 4.25626 0.450206 0
M  V30 1187 C 115.276 5.11542 1.55655 0
M  V30 1188 C 116.576 5.18505 -0.628455 0
M  V30 1189 H 118.27 2.92595 -0.634716 0
M  V30 1190 H 115.816 1.40696 -0.306681 0
M  V30 1191 H 117.769 3.89855 1.59971 0
M  V30 1192 H 116.493 2.68372 1.86129 0
M  V30 1193 H 115.152 3.66586 -0.0315886 0
M  V30 1194 H 114.8 4.46765 2.31107 0
M  V30 1195 H 114.5 5.76647 1.12925 0
M  V30 1196 H 116.024 5.74748 2.06148 0
M  V30 1197 H 117.438 5.72916 -0.209877 0
M  V30 1198 H 115.835 5.92085 -0.977489 0
M  V30 1199 H 116.905 4.60948 -1.50514 0
M  V30 1200 N 118.248 0.346503 1.53744 0
M  V30 1201 C 119.476 -0.25041 2.05379 0
M  V30 1202 C 119.891 -1.43979 1.22129 0
M  V30 1203 O 119.248 -1.80677 0.257321 0
M  V30 1204 C 119.299 -0.662575 3.55376 0
M  V30 1205 O 119.02 0.479515 4.35468 0
M  V30 1206 C 120.521 -1.31989 4.23195 0
M  V30 1207 H 117.741 -0.0478198 0.669294 0
M  V30 1208 H 120.285 0.499346 1.9831 0
M  V30 1209 H 118.44 -1.36227 3.62658 0
M  V30 1210 H 118.854 0.15037 5.24284 0
M  V30 1211 H 120.328 -1.55902 5.29527 0
M  V30 1212 H 120.805 -2.27436 3.75725 0
M  V30 1213 H 121.411 -0.662154 4.20114 0
M  V30 1214 N 119.726 -1.57421 0.075193 0
M  V30 1215 C 120.676 -2.09441 -0.901025 0
M  V30 1216 C 121.66 -1.00486 -1.25663 0
M  V30 1217 O 122.852 -1.2679 -1.23504 0
M  V30 1218 C 119.981 -2.66233 -2.16737 0
M  V30 1219 C 119.067 -3.82198 -1.83808 0
M  V30 1220 N 119.458 -4.91028 -1.21345 0
M  V30 1221 C 117.756 -3.91558 -2.13538 0
M  V30 1222 C 118.457 -5.71852 -1.06585 0
M  V30 1223 N 117.433 -5.20233 -1.57667 0
M  V30 1224 H 121.235 -2.90972 -0.413815 0
M  V30 1225 H 118.749 -1.6189 -0.128601 0
M  V30 1226 H 120.746 -3.01819 -2.87595 0
M  V30 1227 H 119.406 -1.8615 -2.66042 0
M  V30 1228 H 120.417 -5.10323 -0.88268 0
M  V30 1229 H 117.094 -3.22454 -2.65197 0
M  V30 1230 H 118.484 -6.69401 -0.578933 0
M  V30 1231 N 121.204 0.198386 -1.56346 0
M  V30 1232 C 122.432 0.935572 -1.84539 0
M  V30 1233 C 122.847 1.76989 -0.657281 0
M  V30 1234 O 122.204 1.78626 0.374043 0
M  V30 1235 C 122.255 1.8344 -3.11499 0
M  V30 1236 O 121.976 1.03377 -4.25728 0
M  V30 1237 C 123.477 2.68355 -3.52846 0
M  V30 1238 H 120.697 0.273126 -0.612897 0
M  V30 1239 H 123.241 0.20663 -2.03453 0
M  V30 1240 H 121.396 2.51701 -2.94492 0
M  V30 1241 H 121.81 1.64599 -4.98003 0
M  V30 1242 H 123.284 3.27085 -4.44657 0
M  V30 1243 H 123.761 3.41901 -2.75681 0
M  V30 1244 H 124.367 2.05471 -3.72373 0
M  V30 1245 N 122.682 1.50554 0.465978 0
M  V30 1246 C 123.907 1.65838 1.24549 0
M  V30 1247 C 124.332 0.343486 1.84937 0
M  V30 1248 O 123.69 -0.69324 1.67523 0
M  V30 1249 C 123.738 2.75533 2.32624 0
M  V30 1250 O 122.842 2.37142 3.37398 0
M  V30 1251 H 122.183 0.553893 0.366194 0
M  V30 1252 H 124.713 1.96959 0.553927 0
M  V30 1253 H 124.723 2.98763 2.77857 0
M  V30 1254 H 123.398 3.70962 1.88043 0
M  V30 1255 H 121.975 2.24377 2.97841 0
M  V30 1256 N 124.16 -0.719506 1.40217 0
M  V30 1257 C 125.406 -1.48152 1.38488 0
M  V30 1258 C 125.739 -1.94195 -0.0141867 0
M  V30 1259 O 125.014 -1.67884 -0.982096 0
M  V30 1260 C 125.297 -2.71035 2.37091 0
M  V30 1261 C 125.15 -2.30912 3.86005 0
M  V30 1262 C 126.469 -3.73182 2.33288 0
M  V30 1263 H 123.588 -0.537395 0.504357 0
M  V30 1264 H 126.23 -0.821472 1.71324 0
M  V30 1265 H 124.38 -3.27352 2.0922 0
M  V30 1266 H 126.052 -1.80107 4.24687 0
M  V30 1267 H 124.295 -1.62958 4.02029 0
M  V30 1268 H 124.966 -3.18978 4.50508 0
M  V30 1269 H 127.442 -3.26485 2.57966 0
M  V30 1270 H 126.318 -4.56806 3.04334 0
M  V30 1271 H 126.579 -4.21202 1.34317 0
M  V30 1272 N 125.638 -1.25649 -0.95132 0
M  V30 1273 C 126.601 -1.06399 -2.03007 0
M  V30 1274 C 127.601 -0.0156794 -1.60792 0
M  V30 1275 O 128.791 -0.25817 -1.72276 0
M  V30 1276 C 125.923 -0.616184 -3.35285 0
M  V30 1277 H 127.116 -2.02164 -2.21517 0
M  V30 1278 H 124.669 -1.08103 -1.12887 0
M  V30 1279 H 125.404 0.343917 -3.22471 0
M  V30 1280 H 125.189 -1.37301 -3.67275 0
M  V30 1281 H 126.679 -0.503032 -4.14559 0
M  V30 1282 N 127.117 1.15442 -1.07289 0
M  V30 1283 C 128.047 2.22312 -0.714107 0
M  V30 1284 C 129.028 1.67467 0.298155 0
M  V30 1285 O 130.213 1.93445 0.171048 0
M  V30 1286 C 127.343 3.47124 -0.110448 0
M  V30 1287 C 126.297 4.14926 -1.04979 0
M  V30 1288 C 125.623 5.33807 -0.308924 0
M  V30 1289 C 126.923 4.64762 -2.38314 0
M  V30 1290 H 128.617 2.5258 -1.6076 0
M  V30 1291 H 126.163 1.21404 -0.77441 0
M  V30 1292 H 128.116 4.21124 0.152482 0
M  V30 1293 H 126.84 3.16187 0.81812 0
M  V30 1294 H 125.499 3.42866 -1.29764 0
M  V30 1295 H 125.147 4.99126 0.623084 0
M  V30 1296 H 124.847 5.80113 -0.935036 0
M  V30 1297 H 126.371 6.10576 -0.0537771 0
M  V30 1298 H 127.785 5.30292 -2.1786 0
M  V30 1299 H 126.182 5.21728 -2.96514 0
M  V30 1300 H 127.252 3.80434 -3.00663 0
M  V30 1301 N 128.595 0.856903 1.32268 0
M  V30 1302 C 130.011 0.547061 1.49931 0
M  V30 1303 C 130.211 -0.921781 1.7918 0
M  V30 1304 O 129.267 -1.70469 1.8627 0
M  V30 1305 C 130.58 1.43599 2.64196 0
M  V30 1306 C 132.128 1.43665 2.78081 0
M  V30 1307 C 132.603 2.31085 3.95428 0
M  V30 1308 N 134.094 2.28893 4.02694 0
M  V30 1309 C 134.829 2.93262 4.92732 0
M  V30 1310 N 134.325 3.66751 5.87763 0
M  V30 1311 N 136.118 2.82638 4.85873 0
M  V30 1312 H 128.269 1.8075 1.11549 0
M  V30 1313 H 130.532 0.772144 0.549997 0
M  V30 1314 H 130.238 2.48058 2.49319 0
M  V30 1315 H 130.112 1.12502 3.60032 0
M  V30 1316 H 132.499 0.399701 2.92381 0
M  V30 1317 H 132.58 1.7878 1.82952 0
M  V30 1318 H 132.224 3.34849 3.81888 0
M  V30 1319 H 132.154 1.93302 4.89839 0
M  V30 1320 H 134.645 1.75466 3.34694 0
M  V30 1321 H 134.958 4.13027 6.53168 0
M  V30 1322 H 133.303 3.70859 5.87783 0
M  V30 1323 H 136.494 2.24774 4.10602 0
M  V30 1324 H 136.667 3.33084 5.55841 0
M  V30 1325 N 130.073 -1.45103 0.615059 0
M  V30 1326 C 131.35 -1.95549 0.0448276 0
M  V30 1327 C 131.73 -1.55737 -1.4251 0
M  V30 1328 O 131.078 -0.823556 -2.13143 0
M  V30 1329 C 131.288 -3.48098 0.250785 0
M  V30 1330 C 132.636 -4.24384 0.135509 0
M  V30 1331 O 133.66 -3.55738 0.181299 0
M  V30 1332 O 132.519 -5.46493 0.0268878 0
M  V30 1333 H 129.613 -0.8264 -0.0314845 0
M  V30 1334 H 132.159 -1.55232 0.685642 0
M  V30 1335 H 130.931 -3.7007 1.27139 0
M  V30 1336 H 130.554 -3.95323 -0.424937 0
M  V30 1337 N 131.551 -0.354651 -1.53558 0
M  V30 1338 C 132.514 0.484566 -2.24019 0
M  V30 1339 C 133.514 1.01861 -1.24422 0
M  V30 1340 O 134.704 0.906097 -1.4878 0
M  V30 1341 C 131.836 1.67615 -2.96847 0
M  V30 1342 H 133.029 -0.131843 -2.9961 0
M  V30 1343 H 130.582 -0.106165 -1.55939 0
M  V30 1344 H 131.317 2.33095 -2.25471 0
M  V30 1345 H 131.102 1.30029 -3.69912 0
M  V30 1346 H 132.592 2.27114 -3.50441 0
M  V30 1347 N 133.029 1.57378 -0.0835403 0
M  V30 1348 C 134.269 1.95808 0.586381 0
M  V30 1349 C 134.633 0.963706 1.66062 0
M  V30 1350 O 135.834 1.23608 2.38693 0
M  V30 1351 C 134.105 3.38808 1.13771 0
M  V30 1352 S 135.664 3.99225 1.82112 0
M  V30 1353 H 132.482 0.684675 0.191679 0
M  V30 1354 H 135.084 1.94843 -0.160194 0
M  V30 1355 H 133.788 4.08954 0.344197 0
M  V30 1356 H 133.319 3.43344 1.92038 0
M  V30 1357 H 135.334 3.87087 3.10449 0
M  V30 1358 N 134.507 -0.190092 1.56449 0
M  V30 1359 C 135.47 -1.21925 1.9408 0
M  V30 1360 C 136.47 -1.38176 0.822431 0
M  V30 1361 O 137.66 -1.35903 1.08977 0
M  V30 1362 C 134.792 -2.58773 2.21922 0
M  V30 1363 H 135.985 -0.897464 2.86157 0
M  V30 1364 H 133.538 -0.43181 1.50217 0
M  V30 1365 H 134.273 -2.95998 1.32499 0
M  V30 1366 H 134.058 -2.48348 3.03424 0
M  V30 1367 H 135.548 -3.32978 2.52022 0
M  V30 1368 N 135.985 -1.50799 -0.457987 0
M  V30 1369 C 136.895 -1.73426 -1.57989 0
M  V30 1370 C 137.911 -0.617745 -1.62665 0
M  V30 1371 O 139.087 -0.897614 -1.80291 0
M  V30 1372 C 136.152 -1.83557 -2.94122 0
M  V30 1373 C 135.213 -3.07345 -2.99729 0
M  V30 1374 C 134.446 -3.16983 -4.29368 0
M  V30 1375 O 134.669 -2.33077 -5.20607 0
M  V30 1376 O 133.603 -4.09812 -4.40837 0
M  V30 1377 H 137.429 -2.68555 -1.41817 0
M  V30 1378 H 135.014 -1.35052 -0.638859 0
M  V30 1379 H 136.896 -1.92326 -3.74952 0
M  V30 1380 H 135.571 -0.916137 -3.10465 0
M  V30 1381 H 134.478 -3.04068 -2.1793 0
M  V30 1382 H 135.811 -3.9891 -2.88326 0
M  V30 1383 N 137.463 0.71206 -1.40597 0
M  V30 1384 C 138.393 1.83889 -1.43899 0
M  V30 1385 C 139.374 1.67442 -0.299504 0
M  V30 1386 O 140.559 1.87421 -0.508624 0
M  V30 1387 C 137.689 3.21877 -1.30431 0
M  V30 1388 C 136.643 3.53002 -2.42019 0
M  V30 1389 C 135.969 4.90172 -2.13626 0
M  V30 1390 C 137.269 3.53643 -3.84362 0
M  V30 1391 H 138.963 1.81383 -2.38203 0
M  V30 1392 H 136.509 0.871237 -1.14654 0
M  V30 1393 H 138.462 4.00404 -1.31357 0
M  V30 1394 H 137.186 3.24968 -0.326049 0
M  V30 1395 H 135.845 2.76818 -2.40349 0
M  V30 1396 H 135.493 4.89869 -1.14182 0
M  V30 1397 H 135.193 5.11962 -2.88389 0
M  V30 1398 H 136.717 5.71028 -2.1624 0
M  V30 1399 H 138.131 4.22203 -3.87837 0
M  V30 1400 H 136.528 3.86961 -4.58673 0
M  V30 1401 H 137.598 2.52954 -4.13693 0
M  V30 1402 N 138.941 1.26152 0.944643 0
M  V30 1403 C 140.166 1.14363 1.7302 0
M  V30 1404 C 140.591 -0.29772 1.85729 0
M  V30 1405 O 139.949 -1.2157 1.34501 0
M  V30 1406 C 139.997 1.81378 3.11664 0
M  V30 1407 O 139.101 1.10022 3.97453 0
M  V30 1408 H 138.442 0.398694 0.53098 0
M  V30 1409 H 140.972 1.66906 1.18337 0
M  V30 1410 H 140.982 1.88064 3.62072 0
M  V30 1411 H 139.657 2.86237 3.0173 0
M  V30 1412 H 138.234 1.11287 3.55907 0
M  V30 1413 N 140.419 -1.14872 1.07899 0
M  V30 1414 C 141.382 -2.17986 0.708161 0
M  V30 1415 C 142.382 -1.58775 -0.25442 0
M  V30 1416 O 143.572 -1.74166 -0.034645 0
M  V30 1417 C 140.704 -3.40871 0.0446929 0
M  V30 1418 H 141.897 -2.52306 1.62116 0
M  V30 1419 H 139.45 -1.2943 0.876218 0
M  V30 1420 H 140.185 -3.12124 -0.880281 0
M  V30 1421 H 139.97 -3.8511 0.737091 0
M  V30 1422 H 141.46 -4.17121 -0.19991 0
M  V30 1423 N 141.898 -0.863906 -1.31812 0
M  V30 1424 C 143.309 -0.52522 -1.7916 0
M  V30 1425 C 143.66 0.957518 -1.71248 0
M  V30 1426 O 142.785 1.74734 -1.27659 0
M  V30 1427 C 143.38 -0.9466 -3.25307 0
M  V30 1428 C 141.939 -0.659668 -3.70574 0
M  V30 1429 C 141.086 -1.14126 -2.52726 0
M  V30 1430 H 144.037 -1.05022 -1.1898 0
M  V30 1431 H 144.058 -0.266766 -3.79564 0
M  V30 1432 H 143.57 -2.02579 -3.31034 0
M  V30 1433 H 141.671 0.408416 -3.70355 0
M  V30 1434 H 141.784 -1.23245 -4.62977 0
M  V30 1435 H 140.148 -0.561216 -2.4844 0
M  V30 1436 H 140.931 -2.22775 -2.61201 0
M  V30 1437 N 143.376 1.44774 -0.622745 0
M  V30 1438 C 144.306 2.33382 0.0741861 0
M  V30 1439 C 145.287 1.47719 0.843387 0
M  V30 1440 O 146.472 1.76458 0.810934 0
M  V30 1441 C 143.602 3.30663 1.06204 0
M  V30 1442 C 142.556 4.26079 0.405037 0
M  V30 1443 C 141.882 5.13165 1.5022 0
M  V30 1444 C 143.182 5.1781 -0.683414 0
M  V30 1445 H 144.876 2.91905 -0.665713 0
M  V30 1446 H 142.422 1.40363 -0.321587 0
M  V30 1447 H 144.375 3.9153 1.55827 0
M  V30 1448 H 143.099 2.70331 1.83272 0
M  V30 1449 H 141.758 3.66532 -0.0704683 0
M  V30 1450 H 141.406 4.49191 2.26355 0
M  V30 1451 H 141.106 5.77812 1.06803 0
M  V30 1452 H 142.63 5.76902 2.00041 0
M  V30 1453 H 144.044 5.72661 -0.270631 0
M  V30 1454 H 142.441 5.91015 -1.04023 0
M  V30 1455 H 143.511 4.59326 -1.55395 0
M  V30 1456 N 144.854 0.36279 1.53368 0
M  V30 1457 C 146.103 -0.22888 2.00397 0
M  V30 1458 C 146.416 -1.50096 1.25421 0
M  V30 1459 O 147.622 -2.17106 1.63025 0
M  V30 1460 C 146.078 -0.458417 3.56969 0
M  V30 1461 C 145.686 0.798877 4.4082 0
M  V30 1462 C 147.43 -1.00789 4.12361 0
M  V30 1463 C 145.337 0.539078 5.88938 0
M  V30 1464 H 144.267 -0.089305 0.748693 0
M  V30 1465 H 146.918 0.481099 1.77081 0
M  V30 1466 H 145.3 -1.22959 3.76427 0
M  V30 1467 H 146.474 1.57262 4.33134 0
M  V30 1468 H 144.789 1.27137 3.96516 0
M  V30 1469 H 147.386 -1.21754 5.20653 0
M  V30 1470 H 147.729 -1.9692 3.66781 0
M  V30 1471 H 148.262 -0.296961 3.9669 0
M  V30 1472 H 145.001 1.47064 6.3879 0
M  V30 1473 H 144.521 -0.196222 5.99479 0
M  V30 1474 H 146.2 0.163542 6.46793 0
M  V30 1475 N 146.332 -1.57332 0.0918853 0
M  V30 1476 C 147.242 -2.17368 -0.882505 0
M  V30 1477 C 148.258 -1.14226 -1.31257 0
M  V30 1478 O 149.434 -1.46582 -1.38115 0
M  V30 1479 C 146.499 -2.73962 -2.12476 0
M  V30 1480 C 145.56 -3.92048 -1.7492 0
M  V30 1481 C 144.793 -4.45933 -2.93223 0
M  V30 1482 O 145.016 -3.98764 -4.07852 0
M  V30 1483 O 143.95 -5.36999 -2.71875 0
M  V30 1484 H 147.776 -3.01031 -0.40172 0
M  V30 1485 H 145.361 -1.48813 -0.132291 0
M  V30 1486 H 147.243 -3.10147 -2.85283 0
M  V30 1487 H 145.918 -1.93347 -2.59613 0
M  V30 1488 H 144.825 -3.6068 -0.993025 0
M  V30 1489 H 146.158 -4.74017 -1.32548 0
M  V30 1490 N 147.81 0.181792 -1.56548 0
M  V30 1491 C 149.056 0.901431 -1.81665 0
M  V30 1492 C 149.389 1.82347 -0.668075 0
M  V30 1493 O 148.664 1.91669 0.330615 0
M  V30 1494 C 148.947 1.70618 -3.17115 0
M  V30 1495 C 148.8 0.807964 -4.42484 0
M  V30 1496 C 150.119 2.67605 -3.49393 0
M  V30 1497 H 147.238 0.32627 -0.660846 0
M  V30 1498 H 149.88 0.168134 -1.89255 0
M  V30 1499 H 148.03 2.33133 -3.10775 0
M  V30 1500 H 149.702 0.19649 -4.60881 0
M  V30 1501 H 147.945 0.115411 -4.33646 0
M  V30 1502 H 148.616 1.40632 -5.33785 0
M  V30 1503 H 151.092 2.15218 -3.56118 0
M  V30 1504 H 149.968 3.20985 -4.45264 0
M  V30 1505 H 150.229 3.47298 -2.73563 0
M  V30 1506 N 149.288 1.51039 0.449983 0
M  V30 1507 C 150.238 1.67824 1.54335 0
M  V30 1508 C 151.222 0.5324 1.51836 0
M  V30 1509 O 152.414 0.787762 1.58503 0
M  V30 1510 C 149.543 1.7951 2.92628 0
M  V30 1511 C 148.629 2.99838 2.9993 0
M  V30 1512 N 149.02 4.23207 2.77001 0
M  V30 1513 C 147.318 2.98832 3.31082 0
M  V30 1514 C 148.019 5.04361 2.89818 0
M  V30 1515 N 146.995 4.38746 3.2094 0
M  V30 1516 H 150.797 2.60884 1.35339 0
M  V30 1517 H 148.311 1.48513 0.657085 0
M  V30 1518 H 150.308 1.89642 3.7127 0
M  V30 1519 H 148.968 0.876227 3.12654 0
M  V30 1520 H 149.979 4.5236 2.52172 0
M  V30 1521 H 146.656 2.16527 3.56963 0
M  V30 1522 H 148.046 6.12528 2.76151 0
M  V30 1523 N 150.766 -0.704594 1.40972 0
M  V30 1524 C 152.015 -1.46018 1.39146 0
M  V30 1525 C 152.328 -1.956 0.000589254 0
M  V30 1526 O 153.534 -2.71137 -0.1403 0
M  V30 1527 C 151.99 -2.63996 2.4461 0
M  V30 1528 C 151.598 -2.21238 3.89561 0
M  V30 1529 C 153.342 -3.41677 2.51907 0
M  V30 1530 C 151.249 -3.3612 4.86598 0
M  V30 1531 H 150.179 -0.548444 0.517422 0
M  V30 1532 H 152.83 -0.765784 1.66757 0
M  V30 1533 H 151.212 -3.3566 2.10115 0
M  V30 1534 H 152.386 -1.56923 4.33257 0
M  V30 1535 H 150.701 -1.56574 3.85841 0
M  V30 1536 H 153.298 -4.27182 3.2159 0
M  V30 1537 H 153.641 -3.86247 1.55303 0
M  V30 1538 H 154.174 -2.77064 2.85448 0
M  V30 1539 H 150.913 -2.96572 5.84573 0
M  V30 1540 H 150.433 -3.99315 4.47557 0
M  V30 1541 H 152.112 -4.02029 5.06934 0
M  V30 1542 N 152.244 -1.26651 -0.937939 0
M  V30 1543 C 153.469 -1.15279 -1.72411 0
M  V30 1544 C 153.894 0.287866 -1.85884 0
M  V30 1545 O 153.252 1.20855 -1.35143 0
M  V30 1546 C 153.3 -1.83028 -3.10698 0
M  V30 1547 O 152.404 -1.12128 -3.96864 0
M  V30 1548 H 151.745 -0.401504 -0.528858 0
M  V30 1549 H 154.275 -1.67531 -1.1745 0
M  V30 1550 H 154.285 -1.89981 -3.6107 0
M  V30 1551 H 152.96 -2.87833 -3.00208 0
M  V30 1552 H 151.537 -1.13173 -3.55312 0
M  V30 1553 N 153.722 1.14298 -1.08507 0
M  V30 1554 C 154.67 2.21483 -0.710483 0
M  V30 1555 C 155.664 1.66998 0.284234 0
M  V30 1556 O 156.87 1.79401 0.146692 0
M  V30 1557 H 153.245 0.721578 -0.211729 0
M  V30 1558 H 155.216 2.50348 -1.62384 0
M  V30 1559 C 153.965 3.4743 -0.137007 0
M  V30 1560 H 153.288 3.89686 -0.893592 0
M  V30 1561 H 154.728 4.2391 0.0872789 0
M  V30 1562 C 153.187 3.17548 1.12538 0
M  V30 1563 O 153.717 3.35437 2.21009 0
M  V30 1564 N 151.923 2.71499 1.03617 0
M  V30 1565 H 151.47 2.57143 0.153403 0
M  V30 1566 H 151.428 2.51881 1.88158 0
M  V30 1567 N 155.201 0.870884 1.31352 0
M  V30 1568 C 156.447 0.482987 1.96965 0
M  V30 1569 C 156.78 -0.962462 1.68672 0
M  V30 1570 O 156.055 -1.6779 0.98371 0
M  V30 1571 C 156.338 0.741752 3.52378 0
M  V30 1572 C 156.191 2.2368 3.9024 0
M  V30 1573 C 157.51 0.208838 4.39604 0
M  V30 1574 H 154.629 0.176955 0.715441 0
M  V30 1575 H 157.271 1.09229 1.55464 0
M  V30 1576 H 155.421 0.223149 3.87859 0
M  V30 1577 H 157.093 2.82273 3.64856 0
M  V30 1578 H 155.336 2.70901 3.38814 0
M  V30 1579 H 156.007 2.3685 4.98604 0
M  V30 1580 H 158.483 0.652529 4.10952 0
M  V30 1581 H 157.359 0.419336 5.47296 0
M  V30 1582 H 157.62 -0.889275 4.33064 0
M  V30 1583 N 156.679 -1.44442 0.630414 0
M  V30 1584 C 157.629 -2.27794 -0.0968103 0
M  V30 1585 C 158.613 -1.38624 -0.816834 0
M  V30 1586 O 159.805 -1.62438 -0.70306 0
M  V30 1587 C 156.934 -3.25929 -1.07819 0
M  V30 1588 C 156.02 -4.22588 -0.357826 0
M  V30 1589 N 156.411 -5.0207 0.613169 0
M  V30 1590 C 154.709 -4.41914 -0.602365 0
M  V30 1591 C 155.41 -5.72351 1.03871 0
M  V30 1592 N 154.386 -5.42287 0.377642 0
M  V30 1593 H 158.188 -2.86653 0.648621 0
M  V30 1594 H 155.702 -1.55871 0.455862 0
M  V30 1595 H 157.699 -3.84399 -1.61378 0
M  V30 1596 H 156.359 -2.68631 -1.82393 0
M  V30 1597 H 157.37 -5.08331 0.990947 0
M  V30 1598 H 154.047 -3.95714 -1.33103 0
M  V30 1599 H 155.437 -6.4619 1.84086 0
M  V30 1600 N 158.157 -0.370918 -1.53173 0
M  V30 1601 C 159.12 0.460778 -2.24521 0
M  V30 1602 C 160.12 1.00536 -1.25496 0
M  V30 1603 O 161.31 0.890266 -1.49733 0
M  V30 1604 C 158.442 1.64457 -2.98608 0
M  V30 1605 H 159.635 -0.163613 -2.99453 0
M  V30 1606 H 157.188 -0.122699 -1.55818 0
M  V30 1607 H 157.923 2.30691 -2.2793 0
M  V30 1608 H 157.708 1.26099 -3.7127 0
M  V30 1609 H 159.198 2.23384 -3.5283 0
M  V30 1610 N 159.635 1.57281 -0.100228 0
M  V30 1611 C 161.051 1.57527 0.256416 0
M  V30 1612 C 161.251 1.11173 1.68056 0
M  V30 1613 O 160.307 0.79053 2.39806 0
M  V30 1614 C 161.62 3.00673 0.0401747 0
M  V30 1615 C 163.168 3.12815 0.107528 0
M  V30 1616 C 163.643 4.57929 -0.0807834 0
M  V30 1617 N 165.134 4.63193 -0.0261207 0
M  V30 1618 C 165.869 5.73212 -0.146999 0
M  V30 1619 N 165.365 6.92047 -0.322999 0
M  V30 1620 N 167.158 5.62031 -0.0879044 0
M  V30 1621 H 159.309 1.85718 -1.03065 0
M  V30 1622 H 161.572 0.857446 -0.404339 0
M  V30 1623 H 161.278 3.38804 -0.943649 0
M  V30 1624 H 161.152 3.69042 0.780262 0
M  V30 1625 H 163.539 2.74554 1.08186 0
M  V30 1626 H 163.62 2.47028 -0.664134 0
M  V30 1627 H 163.264 4.96886 -1.05201 0
M  V30 1628 H 163.194 5.21783 0.710635 0
M  V30 1629 H 165.685 3.77748 0.107161 0
M  V30 1630 H 165.998 7.7173 -0.406608 0
M  V30 1631 H 164.343 6.94074 -0.358733 0
M  V30 1632 H 167.534 4.68075 0.048498 0
M  V30 1633 H 167.707 6.47734 -0.185557 0
M  V30 1634 N 161.113 -0.173488 1.56642 0
M  V30 1635 C 162.023 -1.23482 1.99473 0
M  V30 1636 C 163.039 -1.48567 0.905752 0
M  V30 1637 O 164.215 -1.60758 1.21321 0
M  V30 1638 C 161.28 -2.55444 2.34413 0
M  V30 1639 C 160.341 -2.38241 3.57127 0
M  V30 1640 C 159.574 -3.63909 3.90392 0
M  V30 1641 O 159.797 -4.68996 3.24653 0
M  V30 1642 O 158.731 -3.58149 4.83749 0
M  V30 1643 H 162.557 -0.901279 2.90018 0
M  V30 1644 H 160.142 -0.380185 1.44482 0
M  V30 1645 H 162.024 -3.33292 2.57865 0
M  V30 1646 H 160.699 -2.88382 1.4703 0
M  V30 1647 H 159.606 -1.58431 3.38896 0
M  V30 1648 H 160.939 -2.10228 4.45045 0
M  V30 1649 N 162.591 -1.51276 -0.441967 0
M  V30 1650 C 163.501 -1.75092 -1.56141 0
M  V30 1651 C 164.517 -0.634963 -1.62001 0
M  V30 1652 O 165.693 -0.916686 -1.79329 0
M  V30 1653 C 162.758 -1.86666 -2.92158 0
M  V30 1654 C 161.819 -3.10506 -2.96453 0
M  V30 1655 C 161.052 -3.21519 -4.25982 0
M  V30 1656 O 161.275 -2.38586 -5.18105 0
M  V30 1657 O 160.209 -4.14465 -4.36466 0
M  V30 1658 H 164.035 -2.70044 -1.38961 0
M  V30 1659 H 161.62 -1.35722 -0.624499 0
M  V30 1660 H 163.502 -1.96292 -3.72891 0
M  V30 1661 H 162.177 -0.949014 -3.09476 0
M  V30 1662 H 161.084 -3.06363 -2.14692 0
M  V30 1663 H 162.417 -4.01945 -2.84079 0
M  V30 1664 N 164.069 0.697108 -1.41344 0
M  V30 1665 C 165.316 1.45714 -1.40619 0
M  V30 1666 C 165.644 1.94494 -0.0147907 0
M  V30 1667 O 164.899 1.69794 0.973066 0
M  V30 1668 C 165.198 2.68553 -2.35826 0
M  V30 1669 C 164.864 2.38438 -3.82698 0
M  V30 1670 C 163.526 2.29936 -4.22709 0
M  V30 1671 C 165.878 2.13567 -4.75435 0
M  V30 1672 C 163.206 1.94656 -5.53467 0
M  V30 1673 C 165.558 1.79797 -6.06511 0
M  V30 1674 C 164.222 1.69789 -6.45545 0
M  V30 1675 H 163.492 0.533206 -0.51456 0
M  V30 1676 H 166.139 0.796901 -1.74131 0
M  V30 1677 H 164.444 3.39503 -1.95563 0
M  V30 1678 H 166.141 3.2669 -2.32539 0
M  V30 1679 H 162.731 2.4595 -3.51008 0
M  V30 1680 H 166.915 2.19082 -4.45328 0
M  V30 1681 H 162.171 1.8546 -5.82593 0
M  V30 1682 H 166.345 1.59572 -6.77872 0
M  V30 1683 H 163.972 1.4222 -7.46778 0
M  V30 1684 N 165.547 1.27147 0.931209 0
M  V30 1685 C 166.963 1.04475 1.20653 0
M  V30 1686 C 167.163 -0.223885 2.00252 0
M  V30 1687 O 166.219 -0.930332 2.34736 0
M  V30 1688 C 167.532 2.28209 1.95809 0
M  V30 1689 C 169.08 2.33211 2.08762 0
M  V30 1690 C 169.555 3.56665 2.87323 0
M  V30 1691 N 171.046 3.57201 2.94892 0
M  V30 1692 C 171.781 4.49395 3.56134 0
M  V30 1693 N 171.277 5.51889 4.18796 0
M  V30 1694 N 173.07 4.37026 3.53504 0
M  V30 1695 H 165.221 2.08612 0.399333 0
M  V30 1696 H 167.484 0.917312 0.239253 0
M  V30 1697 H 167.19 3.20538 1.44736 0
M  V30 1698 H 167.064 2.33247 2.96438 0
M  V30 1699 H 169.451 1.41391 2.59023 0
M  V30 1700 H 169.532 2.32178 1.07364 0
M  V30 1701 H 169.176 4.4882 2.37746 0
M  V30 1702 H 169.106 3.54948 3.88998 0
M  V30 1703 H 171.597 2.83074 2.50354 0
M  V30 1704 H 171.91 6.18409 4.63454 0
M  V30 1705 H 170.255 5.55735 4.17353 0
M  V30 1706 H 173.446 3.56166 3.03749 0
M  V30 1707 H 173.619 5.09067 4.00942 0
M  V30 1708 N 167.025 -1.13721 1.09112 0
M  V30 1709 C 168.441 -1.36914 0.820174 0
M  V30 1710 C 168.641 -1.93356 -0.567079 0
M  V30 1711 O 167.697 -2.15093 -1.32255 0
M  V30 1712 C 169.01 -2.3235 1.90877 0
M  V30 1713 C 170.558 -2.45973 1.93562 0
M  V30 1714 C 171.033 -3.44714 3.01556 0
M  V30 1715 N 172.524 -3.52263 3.00775 0
M  V30 1716 C 173.259 -4.28536 3.80978 0
M  V30 1717 N 172.755 -5.07991 4.71081 0
M  V30 1718 N 174.548 -4.23804 3.69251 0
M  V30 1719 H 166.699 -0.754348 1.98553 0
M  V30 1720 H 168.962 -0.3944 0.862063 0
M  V30 1721 H 168.668 -1.98027 2.90651 0
M  V30 1722 H 168.542 -3.32332 1.78424 0
M  V30 1723 H 170.929 -2.79584 0.944286 0
M  V30 1724 H 171.01 -1.45926 2.10093 0
M  V30 1725 H 170.654 -3.11835 4.00901 0
M  V30 1726 H 170.584 -4.44558 2.82269 0
M  V30 1727 H 173.075 -2.95567 2.35475 0
M  V30 1728 H 173.388 -5.63487 5.28869 0
M  V30 1729 H 171.733 -5.07235 4.75119 0
M  V30 1730 H 174.924 -3.60806 2.98222 0
M  V30 1731 H 175.097 -4.82995 4.31995 0
M  V30 1732 N 168.503 -0.877838 -1.30888 0
M  V30 1733 C 169.453 -0.310872 -2.25871 0
M  V30 1734 C 170.437 0.556596 -1.50966 0
M  V30 1735 O 171.629 0.402187 -1.7237 0
M  V30 1736 C 168.758 0.479821 -3.3993 0
M  V30 1737 C 167.844 -0.401333 -4.22197 0
M  V30 1738 N 168.235 -1.49848 -4.83093 0
M  V30 1739 C 166.533 -0.195167 -4.45573 0
M  V30 1740 C 167.234 -2.0425 -5.44662 0
M  V30 1741 N 166.21 -1.33843 -5.26865 0
M  V30 1742 H 170.012 -1.1493 -2.70496 0
M  V30 1743 H 167.526 -0.726458 -1.45246 0
M  V30 1744 H 169.523 0.902582 -4.07012 0
M  V30 1745 H 168.183 1.31577 -2.96846 0
M  V30 1746 H 169.194 -1.88137 -4.82519 0
M  V30 1747 H 165.871 0.604192 -4.13105 0
M  V30 1748 H 167.261 -2.96345 -6.03017 0
M  V30 1749 N 169.982 1.44106 -0.638065 0
M  V30 1750 C 171.207 2.0685 -0.150916 0
M  V30 1751 C 171.632 1.47417 1.16833 0
M  V30 1752 O 170.99 0.578264 1.71831 0
M  V30 1753 C 171.038 3.60555 -0.05708 0
M  V30 1754 O 170.142 4.00465 0.984972 0
M  V30 1755 H 169.483 0.658151 -0.0879399 0
M  V30 1756 H 172.013 1.84865 -0.876707 0
M  V30 1757 H 172.023 4.07789 0.131232 0
M  V30 1758 H 170.698 4.03193 -1.02021 0
M  V30 1759 H 169.275 3.64849 0.770672 0
M  V30 1760 N 171.46 0.379036 1.52974 0
M  V30 1761 C 172.69 -0.20649 2.05566 0
M  V30 1762 C 173.098 -1.41906 1.25137 0
M  V30 1763 O 172.441 -1.81421 0.288464 0
M  V30 1764 C 172.503 -0.651086 3.53555 0
M  V30 1765 C 172.167 0.446626 4.54812 0
M  V30 1766 C 173.164 1.30079 5.03364 0
M  V30 1767 C 170.849 0.610719 4.98573 0
M  V30 1768 C 172.843 2.30426 5.94292 0
M  V30 1769 C 170.53 1.61754 5.89304 0
M  V30 1770 C 171.528 2.46274 6.37054 0
M  V30 1771 O 171.216 3.45237 7.25994 0
M  V30 1772 H 170.948 -0.0372381 0.674974 0
M  V30 1773 H 173.502 0.539718 1.98182 0
M  V30 1774 H 171.732 -1.44911 3.58522 0
M  V30 1775 H 173.421 -1.16112 3.88938 0
M  V30 1776 H 174.187 1.18527 4.70294 0
M  V30 1777 H 170.066 -0.0374044 4.60985 0
M  V30 1778 H 173.61 2.96432 6.31485 0
M  V30 1779 H 169.507 1.73348 6.21788 0
M  V30 1780 H 170.275 3.41124 7.44027 0
M  V30 1781 N 172.938 -1.57226 0.108567 0
M  V30 1782 C 173.868 -2.17778 -0.84232 0
M  V30 1783 C 174.849 -1.11487 -1.2847 0
M  V30 1784 O 176.034 -1.39681 -1.34918 0
M  V30 1785 C 173.164 -2.76888 -2.09644 0
M  V30 1786 C 172.118 -3.88669 -1.79221 0
M  V30 1787 C 171.444 -4.34541 -3.11574 0
M  V30 1788 C 172.744 -5.11251 -1.06864 0
M  V30 1789 H 174.438 -2.97489 -0.337774 0
M  V30 1790 H 171.984 -1.43097 -0.161025 0
M  V30 1791 H 173.937 -3.17904 -2.76614 0
M  V30 1792 H 172.661 -1.94451 -2.62405 0
M  V30 1793 H 171.32 -3.48213 -1.14644 0
M  V30 1794 H 170.968 -3.48977 -3.62249 0
M  V30 1795 H 170.668 -5.09914 -2.91996 0
M  V30 1796 H 172.192 -4.782 -3.7968 0
M  V30 1797 H 173.606 -5.49352 -1.63968 0
M  V30 1798 H 172.003 -5.9214 -0.974178 0
M  V30 1799 H 173.073 -4.8487 -0.0536168 0
M  V30 1800 N 174.416 0.165178 -1.56732 0
M  V30 1801 C 175.641 0.900253 -1.86843 0
M  V30 1802 C 176.066 1.74766 -0.695596 0
M  V30 1803 O 175.424 1.77786 0.35522 0
M  V30 1804 C 175.472 1.74777 -3.15413 0
M  V30 1805 O 174.576 2.85007 -2.98068 0
M  V30 1806 H 173.917 0.251832 -0.614391 0
M  V30 1807 H 176.447 0.161468 -2.03962 0
M  V30 1808 H 176.457 2.14646 -3.46974 0
M  V30 1809 H 175.132 1.12537 -4.00385 0
M  V30 1810 H 173.709 2.48676 -2.77875 0
M  V30 1811 N 175.894 1.51508 0.433938 0
M  V30 1812 C 177.305 1.56784 1.01369 0
M  V30 1813 C 177.656 0.393349 1.92217 0
M  V30 1814 O 176.781 -0.489441 2.10792 0
M  V30 1815 C 177.376 2.84144 1.8452 0
M  V30 1816 C 175.935 2.9198 2.37539 0
M  V30 1817 C 175.082 2.51482 1.16843 0
M  V30 1818 H 178.033 1.57236 0.215081 0
M  V30 1819 H 178.054 2.68098 2.70007 0
M  V30 1820 H 177.566 3.69607 1.18373 0
M  V30 1821 H 175.667 2.10955 3.0713 0
M  V30 1822 H 175.78 3.95704 2.70103 0
M  V30 1823 H 174.144 2.04758 1.51481 0
M  V30 1824 H 174.927 3.39293 0.523015 0
M  V30 1825 N 177.372 -0.689602 1.41712 0
M  V30 1826 C 178.621 -1.44534 1.40686 0
M  V30 1827 C 178.934 -1.95588 0.0213352 0
M  V30 1828 O 180.14 -2.71271 -0.111534 0
M  V30 1829 C 178.596 -2.61387 2.47396 0
M  V30 1830 C 178.204 -2.17094 3.91885 0
M  V30 1831 C 179.948 -3.38986 2.55517 0
M  V30 1832 C 177.855 -3.3094 4.90135 0
M  V30 1833 H 176.785 -0.542925 0.52321 0
M  V30 1834 H 179.436 -0.748054 1.6756 0
M  V30 1835 H 177.818 -3.33412 2.13664 0
M  V30 1836 H 178.992 -1.52318 4.34897 0
M  V30 1837 H 177.307 -1.52473 3.8748 0
M  V30 1838 H 179.904 -4.23747 3.26102 0
M  V30 1839 H 180.247 -3.84578 1.59391 0
M  V30 1840 H 180.78 -2.74021 2.8837 0
M  V30 1841 H 177.519 -2.90355 5.87685 0
M  V30 1842 H 177.039 -3.94546 4.51767 0
M  V30 1843 H 178.718 -3.9663 5.11169 0
M  V30 1844 N 178.85 -1.27639 -0.924453 0
M  V30 1845 C 179.813 -1.10681 -2.00705 0
M  V30 1846 C 180.813 -0.0497823 -1.60723 0
M  V30 1847 O 182.003 -0.294654 -1.7169 0
M  V30 1848 C 179.135 -0.687164 -3.33902 0
M  V30 1849 H 180.328 -2.06817 -2.17179 0
M  V30 1850 H 177.881 -1.10473 -1.10569 0
M  V30 1851 H 178.616 0.275439 -3.23128 0
M  V30 1852 H 178.401 -1.45061 -3.6428 0
M  V30 1853 H 179.891 -0.590853 -4.13399 0
M  V30 1854 N 180.328 1.1314 -1.09713 0
M  V30 1855 C 181.556 1.88321 -0.856898 0
M  V30 1856 C 181.971 1.79276 0.592073 0
M  V30 1857 O 181.328 1.16142 1.40774 0
M  V30 1858 C 181.379 3.37812 -1.28706 0
M  V30 1859 O 181.1 3.46627 -2.67921 0
M  V30 1860 C 182.601 4.29952 -1.07964 0
M  V30 1861 H 179.821 0.596094 -0.308079 0
M  V30 1862 H 182.365 1.43205 -1.45988 0
M  V30 1863 H 180.52 3.805 -0.727912 0
M  V30 1864 H 180.934 4.39579 -2.8613 0
M  V30 1865 H 182.408 5.33159 -1.42986 0
M  V30 1866 H 182.885 4.39196 -0.0176577 0
M  V30 1867 H 183.491 3.93036 -1.62489 0
M  V30 1868 N 181.806 0.884767 1.30421 0
M  V30 1869 C 183.054 0.502112 1.95763 0
M  V30 1870 C 183.375 -0.951815 1.70192 0
M  V30 1871 O 182.645 -1.6692 1.0254 0
M  V30 1872 H 181.225 0.182694 0.724315 0
M  V30 1873 H 183.887 1.1278 1.58955 0
M  V30 1874 H 182.983 0.672188 3.04775 0
M  V30 1875 N 183.284 -1.43765 0.645699 0
M  V30 1876 C 184.53 -2.02197 0.156271 0
M  V30 1877 C 184.863 -1.50776 -1.22393 0
M  V30 1878 O 184.138 -0.697771 -1.81553 0
M  V30 1879 C 184.421 -3.59749 0.158872 0
M  V30 1880 C 184.274 -4.21419 1.57245 0
M  V30 1881 C 185.593 -4.37149 -0.50879 0
M  V30 1882 H 182.712 -0.734694 0.0582602 0
M  V30 1883 H 185.354 -1.71157 0.824951 0
M  V30 1884 H 183.504 -3.86325 -0.410525 0
M  V30 1885 H 185.176 -4.059 2.19186 0
M  V30 1886 H 183.419 -3.78356 2.122 0
M  V30 1887 H 184.09 -5.30482 1.52619 0
M  V30 1888 H 186.566 -4.16093 -0.024412 0
M  V30 1889 H 185.442 -5.4683 -0.476213 0
M  V30 1890 H 185.703 -4.12839 -1.58165 0
M  V30 1891 N 184.763 -0.387143 -1.52771 0
M  V30 1892 C 186.012 0.19697 -2.00736 0
M  V30 1893 C 186.325 1.48082 -1.27793 0
M  V30 1894 O 187.531 2.14485 -1.66458 0
M  V30 1895 C 185.987 0.401568 -3.57653 0
M  V30 1896 C 185.595 -0.868907 -4.39493 0
M  V30 1897 C 187.339 0.942164 -4.13912 0
M  V30 1898 C 185.246 -0.632705 -5.88006 0
M  V30 1899 H 184.176 0.0773827 -0.750019 0
M  V30 1900 H 186.827 -0.50921 -1.76293 0
M  V30 1901 H 185.209 1.16954 -3.78335 0
M  V30 1902 H 186.383 -1.64133 -4.30577 0
M  V30 1903 H 184.698 -1.33429 -3.94443 0
M  V30 1904 H 187.295 1.13455 -5.22525 0
M  V30 1905 H 187.638 1.9106 -3.69867 0
M  V30 1906 H 188.171 0.233814 -3.97112 0
M  V30 1907 H 184.91 -1.57208 -6.36369 0
M  V30 1908 H 184.43 0.100825 -5.99715 0
M  V30 1909 H 186.109 -0.26642 -6.46451 0
M  V30 1910 N 186.241 1.57166 -0.116904 0
M  V30 1911 C 187.487 1.95412 0.542405 0
M  V30 1912 C 187.82 1.00019 1.66463 0
M  V30 1913 O 187.095 0.0370346 1.94465 0
M  V30 1914 C 187.378 3.43615 1.07708 0
M  V30 1915 C 187.231 4.49781 -0.0415868 0
M  V30 1916 C 188.55 3.93616 1.96861 0
M  V30 1917 H 185.669 0.710543 0.195696 0
M  V30 1918 H 188.311 1.89027 -0.192038 0
M  V30 1919 H 186.461 3.49187 1.70296 0
M  V30 1920 H 188.133 4.56308 -0.676793 0
M  V30 1921 H 186.376 4.28033 -0.705019 0
M  V30 1922 H 187.047 5.50733 0.373717 0
M  V30 1923 H 189.523 3.90335 1.44146 0
M  V30 1924 H 188.399 4.97838 2.3119 0
M  V30 1925 H 188.66 3.34188 2.89432 0
M  V30 1926 N 187.719 -0.156864 1.56817 0
M  V30 1927 C 188.967 -0.869404 1.82444 0
M  V30 1928 C 189.288 -1.82147 0.69623 0
M  V30 1929 O 188.558 -1.93847 -0.28287 0
M  V30 1930 H 187.138 -0.324043 0.673056 0
M  V30 1931 H 189.8 -0.153224 1.94297 0
M  V30 1932 H 188.896 -1.43761 2.77019 0
M  V30 1933 N 189.197 -1.51736 -0.425897 0
M  V30 1934 C 190.127 -1.76827 -1.52494 0
M  V30 1935 C 191.108 -0.618524 -1.58456 0
M  V30 1936 O 192.293 -0.862416 -1.74 0
M  V30 1937 C 189.423 -1.90374 -2.90474 0
M  V30 1938 C 188.377 -3.0588 -2.99369 0
M  V30 1939 C 187.703 -3.04625 -4.3944 0
M  V30 1940 C 189.003 -4.45644 -2.72394 0
M  V30 1941 H 190.697 -2.68855 -1.31748 0
M  V30 1942 H 188.243 -1.29372 -0.632362 0
M  V30 1943 H 190.196 -2.0651 -3.6733 0
M  V30 1944 H 188.92 -0.95004 -3.12477 0
M  V30 1945 H 187.579 -2.89467 -2.24954 0
M  V30 1946 H 187.227 -2.0701 -4.58428 0
M  V30 1947 H 186.927 -3.82195 -4.46319 0
M  V30 1948 H 188.451 -3.22869 -5.18255 0
M  V30 1949 H 189.865 -4.62348 -3.38979 0
M  V30 1950 H 188.262 -5.25006 -2.9067 0
M  V30 1951 H 189.332 -4.54893 -1.67929 0
M  V30 1952 N 190.675 0.682077 -1.42076 0
M  V30 1953 C 191.923 1.4393 -1.41876 0
M  V30 1954 C 192.244 1.94971 -0.0335599 0
M  V30 1955 O 191.514 1.72591 0.926773 0
M  V30 1956 H 190.094 0.534085 -0.522267 0
M  V30 1957 H 192.756 0.806427 -1.77434 0
M  V30 1958 H 191.852 2.29588 -2.11414 0
M  V30 1959 N 192.153 1.28127 0.917671 0
M  V30 1960 C 193.402 1.14432 1.66097 0
M  V30 1961 C 193.715 -0.307247 1.93172 0
M  V30 1962 O 194.921 -0.565259 2.65551 0
M  V30 1963 C 193.377 2.00015 2.99202 0
M  V30 1964 C 192.985 3.49889 2.79789 0
M  V30 1965 C 194.729 1.94996 3.77064 0
M  V30 1966 C 192.636 4.27636 4.08511 0
M  V30 1967 H 191.566 0.424662 0.62304 0
M  V30 1968 H 194.217 1.52628 1.01868 0
M  V30 1969 H 192.599 1.54672 3.64544 0
M  V30 1970 H 193.773 4.03162 2.23152 0
M  V30 1971 H 192.088 3.56392 2.15345 0
M  V30 1972 H 194.685 2.50354 4.72469 0
M  V30 1973 H 195.028 0.925819 4.05875 0
M  V30 1974 H 195.561 2.38287 3.18534 0
M  V30 1975 H 192.3 5.30615 3.84874 0
M  V30 1976 H 191.82 3.79137 4.64774 0
M  V30 1977 H 193.499 4.37346 4.76799 0
M  V30 1978 N 193.631 -1.12557 1.10312 0
M  V30 1979 C 194.563 -2.17971 0.708625 0
M  V30 1980 C 195.576 -1.60806 -0.254027 0
M  V30 1981 O 196.765 -1.78458 -0.0386891 0
M  V30 1982 C 193.865 -3.38891 0.0248198 0
M  V30 1983 C 193.038 -4.25548 1.01132 0
M  V30 1984 C 192.097 -5.24972 0.35924 0
M  V30 1985 O 191.123 -5.60174 1.00965 0
M  V30 1986 N 192.325 -5.73747 -0.882847 0
M  V30 1987 H 195.09 -2.52427 1.61557 0
M  V30 1988 H 192.651 -1.27967 0.991771 0
M  V30 1989 H 194.643 -4.02485 -0.422852 0
M  V30 1990 H 193.213 -3.02596 -0.784514 0
M  V30 1991 H 192.433 -3.58589 1.6373 0
M  V30 1992 H 193.721 -4.80294 1.67914 0
M  V30 1993 H 193.119 -5.4731 -1.43065 0
M  V30 1994 H 191.676 -6.39234 -1.27369 0
M  V30 1995 N 195.109 -0.891671 -1.2995 0
M  V30 1996 C 196.357 -0.512486 -1.95494 0
M  V30 1997 C 196.678 0.942776 -1.70695 0
M  V30 1998 O 195.948 1.66374 -1.03424 0
M  V30 1999 H 194.528 -0.186533 -0.723336 0
M  V30 2000 H 197.19 -1.13621 -1.58355 0
M  V30 2001 H 196.286 -0.688342 -3.04415 0
M  V30 2002 N 196.587 1.43421 -0.653314 0
M  V30 2003 C 197.817 2.05864 -0.174238 0
M  V30 2004 C 198.225 1.49052 1.16534 0
M  V30 2005 O 197.568 0.616481 1.73047 0
M  V30 2006 C 197.63 3.59499 -0.00875873 0
M  V30 2007 C 197.294 4.38893 -1.27364 0
M  V30 2008 C 198.291 4.70947 -2.20239 0
M  V30 2009 C 195.976 4.789 -1.51525 0
M  V30 2010 C 197.97 5.41916 -3.35568 0
M  V30 2011 C 195.657 5.49614 -2.67147 0
M  V30 2012 C 196.655 5.81044 -3.58994 0
M  V30 2013 O 196.343 6.50313 -4.72597 0
M  V30 2014 H 196.075 0.670345 -0.0872549 0
M  V30 2015 H 198.629 1.84913 -0.894226 0
M  V30 2016 H 196.859 3.79025 0.7666 0
M  V30 2017 H 198.548 4.0364 0.427687 0
M  V30 2018 H 199.314 4.40558 -2.02815 0
M  V30 2019 H 195.193 4.53843 -0.809158 0
M  V30 2020 H 198.737 5.66365 -4.07279 0
M  V30 2021 H 194.634 5.79419 -2.84505 0
M  V30 2022 H 195.402 6.68795 -4.71864 0
M  V30 2023 N 198.065 0.39524 1.52563 0
M  V30 2024 C 198.995 -0.428384 2.29537 0
M  V30 2025 C 199.976 -1.05831 1.33169 0
M  V30 2026 O 201.161 -1.06995 1.62067 0
M  V30 2027 C 198.291 -1.55274 3.10656 0
M  V30 2028 C 197.245 -1.04855 4.14957 0
M  V30 2029 C 196.571 -2.26543 4.84337 0
M  V30 2030 C 197.871 -0.112324 5.22179 0
M  V30 2031 H 199.565 0.213867 2.98635 0
M  V30 2032 H 197.111 0.104298 1.43622 0
M  V30 2033 H 199.064 -2.1358 3.63265 0
M  V30 2034 H 197.788 -2.22266 2.39302 0
M  V30 2035 H 196.447 -0.487985 3.63338 0
M  V30 2036 H 196.095 -2.92059 4.09525 0
M  V30 2037 H 195.795 -1.93466 5.54837 0
M  V30 2038 H 197.319 -2.85481 5.39753 0
M  V30 2039 H 198.733 -0.603752 5.70112 0
M  V30 2040 H 197.13 0.128968 5.99961 0
M  V30 2041 H 198.2 0.837052 4.77621 0
M  V30 2042 N 199.544 -1.57102 0.125237 0
M  V30 2043 C 200.474 -2.18659 -0.819174 0
M  V30 2044 C 201.455 -1.12843 -1.27281 0
M  V30 2045 O 202.64 -1.41104 -1.33429 0
M  V30 2046 C 199.77 -2.79096 -2.06695 0
M  V30 2047 C 198.724 -3.90548 -1.75088 0
M  V30 2048 C 198.05 -4.37821 -3.06948 0
M  V30 2049 C 199.35 -5.12356 -1.01435 0
M  V30 2050 H 201.044 -2.9783 -0.306202 0
M  V30 2051 H 198.59 -1.4326 -0.145839 0
M  V30 2052 H 200.543 -3.2082 -2.73226 0
M  V30 2053 H 199.267 -1.97223 -2.60328 0
M  V30 2054 H 197.926 -3.49409 -1.10944 0
M  V30 2055 H 197.574 -3.52799 -3.58527 0
M  V30 2056 H 197.274 -5.12982 -2.86571 0
M  V30 2057 H 198.798 -4.822 -3.74587 0
M  V30 2058 H 200.212 -5.5106 -1.58132 0
M  V30 2059 H 198.609 -5.9314 -0.911319 0
M  V30 2060 H 199.679 -4.849 -0.00218681 0
M  V30 2061 N 201.022 0.148545 -1.56898 0
M  V30 2062 C 201.985 1.16736 -1.97244 0
M  V30 2063 C 202.985 1.35947 -0.858777 0
M  V30 2064 O 204.175 1.32966 -1.12542 0
M  V30 2065 C 201.307 2.52798 -2.28705 0
M  V30 2066 H 202.5 0.821279 -2.88435 0
M  V30 2067 H 200.053 0.391831 -1.51309 0
M  V30 2068 H 200.788 2.92381 -1.403 0
M  V30 2069 H 200.573 2.40216 -3.09901 0
M  V30 2070 H 202.063 3.26179 -2.60762 0
M  V30 2071 N 202.5 1.5196 0.417844 0
M  V30 2072 C 203.43 1.77634 1.51554 0
M  V30 2073 C 204.411 0.626918 1.58126 0
M  V30 2074 O 205.596 0.871632 1.7354 0
M  V30 2075 C 202.726 1.91911 2.8946 0
M  V30 2076 C 201.68 3.07463 2.97743 0
M  V30 2077 C 201.006 3.06951 4.37819 0
M  V30 2078 C 202.306 4.47082 2.70027 0
M  V30 2079 H 204 2.6955 1.3032 0
M  V30 2080 H 201.546 1.29706 0.625492 0
M  V30 2081 H 203.499 2.08455 3.6623 0
M  V30 2082 H 202.223 0.966598 3.11969 0
M  V30 2083 H 200.882 2.90656 2.23416 0
M  V30 2084 H 200.53 2.09438 4.57323 0
M  V30 2085 H 200.23 3.84556 4.44286 0
M  V30 2086 H 201.754 3.25613 5.16535 0
M  V30 2087 H 203.168 4.6414 3.36522 0
M  V30 2088 H 201.565 5.2654 2.87881 0
M  V30 2089 H 202.635 4.55777 1.65514 0
M  V30 2090 N 203.978 -0.674533 1.42435 0
M  V30 2091 C 205.394 -0.98769 1.25367 0
M  V30 2092 C 205.594 -2.00879 0.158044 0
M  V30 2093 O 204.65 -2.48075 -0.470633 0
M  V30 2094 C 205.963 -1.49224 2.6106 0
M  V30 2095 C 207.511 -1.61 2.68417 0
M  V30 2096 C 207.986 -2.14852 4.04478 0
M  V30 2097 N 209.477 -2.22185 4.06434 0
M  V30 2098 C 210.212 -2.64928 5.08528 0
M  V30 2099 N 209.708 -3.07121 6.21006 0
M  V30 2100 N 211.501 -2.64679 4.95885 0
M  V30 2101 H 203.652 0.00152503 2.124 0
M  V30 2102 H 205.915 -0.0618434 0.945981 0
M  V30 2103 H 205.621 -0.816453 3.42092 0
M  V30 2104 H 205.495 -2.47094 2.84999 0
M  V30 2105 H 207.882 -2.27686 1.87732 0
M  V30 2106 H 207.963 -0.616195 2.48267 0
M  V30 2107 H 207.607 -1.48775 4.85622 0
M  V30 2108 H 207.537 -3.15024 4.2198 0
M  V30 2109 H 210.028 -1.92435 3.25234 0
M  V30 2110 H 210.341 -3.38423 6.94759 0
M  V30 2111 H 208.686 -3.04978 6.24511 0
M  V30 2112 H 211.877 -2.31078 4.07088 0
M  V30 2113 H 212.05 -2.9767 5.75584 0
M  V30 2114 N 205.456 -1.28612 -0.910864 0
M  V30 2115 C 206.686 -1.1862 -1.69153 0
M  V30 2116 C 207.094 0.257324 -1.87442 0
M  V30 2117 O 206.437 1.18543 -1.40332 0
M  V30 2118 C 206.499 -1.81606 -3.10257 0
M  V30 2119 C 206.163 -3.30864 -3.15243 0
M  V30 2120 C 207.16 -4.27256 -2.96223 0
M  V30 2121 C 204.845 -3.71871 -3.37664 0
M  V30 2122 C 206.839 -5.62631 -2.99541 0
M  V30 2123 C 204.526 -5.07371 -3.40614 0
M  V30 2124 C 205.524 -6.02561 -3.21573 0
M  V30 2125 O 205.212 -7.35589 -3.2429 0
M  V30 2126 H 204.944 -0.412633 -0.535453 0
M  V30 2127 H 207.498 -1.70306 -1.14827 0
M  V30 2128 H 205.728 -1.24418 -3.66138 0
M  V30 2129 H 207.417 -1.66092 -3.70362 0
M  V30 2130 H 208.183 -3.9691 -2.78725 0
M  V30 2131 H 204.062 -2.98241 -3.5153 0
M  V30 2132 H 207.606 -6.36907 -2.84597 0
M  V30 2133 H 203.503 -5.37366 -3.57642 0
M  V30 2134 H 204.271 -7.44252 -3.40633 0
M  V30 2135 N 206.934 1.1197 -1.10907 0
M  V30 2136 C 207.864 2.19928 -0.784473 0
M  V30 2137 C 208.845 1.6833 0.244726 0
M  V30 2138 O 210.03 1.93892 0.109418 0
M  V30 2139 C 207.16 3.46597 -0.220827 0
M  V30 2140 C 206.114 4.11376 -1.18127 0
M  V30 2141 C 205.44 5.32554 -0.478594 0
M  V30 2142 C 206.74 4.56945 -2.52979 0
M  V30 2143 H 208.434 2.47337 -1.68715 0
M  V30 2144 H 205.98 1.18879 -0.812642 0
M  V30 2145 H 207.933 4.21396 0.0184278 0
M  V30 2146 H 206.657 3.1863 0.717113 0
M  V30 2147 H 205.316 3.38564 -1.40606 0
M  V30 2148 H 204.964 5.00856 0.463976 0
M  V30 2149 H 204.664 5.76844 -1.11912 0
M  V30 2150 H 206.188 6.10096 -0.248 0
M  V30 2151 H 207.602 5.23093 -2.3462 0
M  V30 2152 H 205.999 5.1203 -3.12962 0
M  V30 2153 H 207.069 3.70676 -3.12614 0
M  V30 2154 N 208.412 0.89855 1.29475 0
M  V30 2155 C 209.375 0.380272 2.26023 0
M  V30 2156 C 210.375 -0.484891 1.53315 0
M  V30 2157 O 211.565 -0.290108 1.71767 0
M  V30 2158 C 208.697 -0.45651 3.3783 0
M  V30 2159 H 209.89 1.23295 2.73383 0
M  V30 2160 H 207.443 0.676589 1.40897 0
M  V30 2161 H 208.178 -1.32922 2.95808 0
M  V30 2162 H 207.963 0.163393 3.91759 0
M  V30 2163 H 209.453 -0.810466 4.0966 0
M  V30 2164 N 209.89 -1.43072 0.660911 0
M  V30 2165 C 210.8 -2.34585 -0.0264163 0
M  V30 2166 C 211.816 -1.54316 -0.803898 0
M  V30 2167 O 212.992 -1.86939 -0.749391 0
M  V30 2168 C 210.057 -3.32689 -0.975639 0
M  V30 2169 C 209.118 -4.2886 -0.194236 0
M  V30 2170 C 208.351 -5.22278 -1.09825 0
M  V30 2171 O 208.574 -5.20299 -2.33763 0
M  V30 2172 O 207.508 -5.99228 -0.566513 0
M  V30 2173 H 211.334 -2.94869 0.727034 0
M  V30 2174 H 208.919 -1.43342 0.42111 0
M  V30 2175 H 210.801 -3.92995 -1.52094 0
M  V30 2176 H 209.476 -2.74898 -1.70918 0
M  V30 2177 H 208.383 -3.72011 0.394835 0
M  V30 2178 H 209.716 -4.89655 0.499899 0
M  V30 2179 N 211.368 -0.403325 -1.52352 0
M  V30 2180 C 212.318 0.442244 -2.2367 0
M  V30 2181 C 213.302 1.01823 -1.24583 0
M  V30 2182 O 214.494 0.942005 -1.49851 0
M  V30 2183 C 211.623 1.5615 -3.05732 0
M  V30 2184 C 210.709 0.996575 -4.12225 0
M  V30 2185 N 211.1 0.157804 -5.05554 0
M  V30 2186 C 209.398 1.26767 -4.27605 0
M  V30 2187 C 210.099 -0.155853 -5.81491 0
M  V30 2188 N 209.075 0.451775 -5.41719 0
M  V30 2189 H 212.877 -0.204964 -2.93184 0
M  V30 2190 H 210.391 -0.213418 -1.60992 0
M  V30 2191 H 212.388 2.17981 -3.55373 0
M  V30 2192 H 211.048 2.21139 -2.37755 0
M  V30 2193 H 212.059 -0.206049 -5.1749 0
M  V30 2194 H 208.736 1.91757 -3.70858 0
M  V30 2195 H 210.126 -0.836329 -6.66675 0
M  V30 2196 N 212.846 1.57033 -0.133567 0
M  V30 2197 C 214.092 1.95976 0.521649 0
M  V30 2198 C 214.425 1.01779 1.65393 0
M  V30 2199 O 213.7 0.0576581 1.94415 0
M  V30 2200 C 213.983 3.44738 1.04057 0
M  V30 2201 C 213.836 4.49711 -0.0892897 0
M  V30 2202 C 215.155 3.95682 1.92675 0
M  V30 2203 H 212.274 0.712579 0.188149 0
M  V30 2204 H 214.916 1.88813 -0.212076 0
M  V30 2205 H 213.066 3.50973 1.66583 0
M  V30 2206 H 214.738 4.55565 -0.725152 0
M  V30 2207 H 212.981 4.27261 -0.750378 0
M  V30 2208 H 213.652 5.51099 0.315284 0
M  V30 2209 H 216.128 3.91841 1.39998 0
M  V30 2210 H 215.004 5.00262 2.25897 0
M  V30 2211 H 215.265 3.37239 2.85872 0
M  V30 2212 N 214.325 -0.140222 1.56975 0
M  V30 2213 C 215.573 -0.850005 1.83356 0
M  V30 2214 C 215.894 -1.81399 0.71551 0
M  V30 2215 O 215.164 -1.94136 -0.262294 0
M  V30 2216 H 213.744 -0.316886 0.676456 0
M  V30 2217 H 216.406 -0.132608 1.94448 0
M  V30 2218 H 215.502 -1.40814 2.78528 0
M  V30 2219 N 215.803 -1.52179 -0.40978 0
M  V30 2220 C 217.031 -1.70054 -1.17853 0
M  V30 2221 C 217.446 -0.409735 -1.843 0
M  V30 2222 O 216.803 0.614183 -1.71855 0
M  V30 2223 C 216.854 -2.83568 -2.24213 0
M  V30 2224 O 216.575 -4.0765 -1.60478 0
M  V30 2225 C 218.076 -3.12947 -3.13973 0
M  V30 2226 H 215.296 -0.569917 -0.354169 0
M  V30 2227 H 217.84 -1.98734 -0.482198 0
M  V30 2228 H 215.995 -2.57409 -2.89516 0
M  V30 2229 H 216.409 -4.70899 -2.30986 0
M  V30 2230 H 217.883 -3.95889 -3.84677 0
M  V30 2231 H 218.36 -2.26472 -3.76307 0
M  V30 2232 H 218.966 -3.40868 -2.5434 0
M  V30 2233 O 217.32 0.555659 -1.5164 0
M  V30 2234 H 218.011 1.21079 -1.51194 0
M  V30 END ATOM
M  V30 BEGIN BOND
M  V30 END BOND
M  V30 END CTAB
M  END
$$$$
