drugbank_target|P00469 Thymidylate synthase (DB01643; DB02301; DB03541; DB03685; DB03761; DB03798; DB03800; DB06860; DB07507; DB07511; DB08204)
 OpenBabel12092119553D

  0  0  0     0  0            999 V3000
M  V30 BEGIN CTAB
M  V30 COUNTS 5091 5175 0 0 0
M  V30 BEGIN ATOM
M  V30 1 H -0.908 1.98254 -0.117106 0
M  V30 2 N 0 1.576 0 0
M  V30 3 C 0.933 2.03868 1.02534 0
M  V30 4 C 1.911 0.928543 1.3348 0
M  V30 5 O 3.095 1.19667 1.45644 0
M  V30 6 C 0.222 2.43627 2.35294 0
M  V30 7 C -0.732 3.65373 2.2001 0
M  V30 8 S 0.101 5.13292 1.52614 0
M  V30 9 C 1.257 5.56322 2.86805 0
M  V30 10 H 1.49 2.90518 0.631377 0
M  V30 11 H -0.977 1.52953 0.210867 0
M  V30 12 H 0.981 2.67203 3.11629 0
M  V30 13 H -0.358 1.57376 2.7183 0
M  V30 14 H -1.165 3.90944 3.18086 0
M  V30 15 H -1.563 3.418 1.51819 0
M  V30 16 H 0.729 5.58782 3.83104 0
M  V30 17 H 1.672 6.56266 2.65933 0
M  V30 18 H 2.08 4.83886 2.90714 0
M  V30 19 N 1.4781 -0.272755 1.55222 0
M  V30 20 C 2.4081 -1.34136 1.91127 0
M  V30 21 C 3.3891 -1.51513 0.773168 0
M  V30 22 O 4.5741 -1.64552 1.03132 0
M  V30 23 C 1.7041 -2.70083 2.1834 0
M  V30 24 C 0.6581 -2.67437 3.34158 0
M  V30 25 C -0.0159 -4.06938 3.46851 0
M  V30 26 C 1.2841 -2.26686 4.70543 0
M  V30 27 H 2.9781 -1.04333 2.80633 0
M  V30 28 H 0.5241 -0.500454 1.35024 0
M  V30 29 H 2.4771 -3.44952 2.42046 0
M  V30 30 H 1.2011 -3.01469 1.25634 0
M  V30 31 H -0.1399 -1.95026 3.1042 0
M  V30 32 H -0.4919 -4.35547 2.51611 0
M  V30 33 H -0.7919 -4.06062 4.2472 0
M  V30 34 H 0.7321 -4.83545 3.72849 0
M  V30 35 H 2.1461 -2.91277 4.93792 0
M  V30 36 H 0.5431 -2.36971 5.5133 0
M  V30 37 H 1.6131 -1.21818 4.69349 0
M  V30 38 N 2.9562 -1.48159 -0.537278 0
M  V30 39 C 3.8662 -1.64807 -1.6696 0
M  V30 40 C 4.8822 -0.530651 -1.65711 0
M  V30 41 O 6.0582 -0.800784 -1.84796 0
M  V30 42 C 3.1232 -1.67708 -3.03438 0
M  V30 43 C 2.1842 -2.91025 -3.156 0
M  V30 44 C 1.4172 -2.93778 -4.45567 0
M  V30 45 O 1.6402 -2.05153 -5.3223 0
M  V30 46 O 0.5742 -3.85868 -4.61941 0
M  V30 47 H 4.4002 -2.6066 -1.55853 0
M  V30 48 H 1.9852 -1.31475 -0.709549 0
M  V30 49 H 3.8672 -1.7218 -3.84619 0
M  V30 50 H 2.5422 -0.750278 -3.14885 0
M  V30 51 H 1.4492 -2.92089 -2.33741 0
M  V30 52 H 2.7822 -3.83065 -3.09066 0
M  V30 53 N 4.4343 0.785586 -1.36625 0
M  V30 54 C 5.3663 1.90711 -1.2713 0
M  V30 55 C 6.3793 1.61688 -0.189986 0
M  V30 56 O 7.5683 1.72864 -0.445014 0
M  V30 57 C 4.6683 3.25611 -0.939713 0
M  V30 58 C 3.8413 3.82385 -2.12369 0
M  V30 59 C 2.9003 4.95732 -1.76456 0
M  V30 60 O 1.9263 5.12047 -2.48589 0
M  V30 61 N 3.1283 5.76258 -0.700492 0
M  V30 62 H 5.8933 1.99376 -2.23762 0
M  V30 63 H 3.4543 0.964041 -1.30069 0
M  V30 64 H 5.4463 3.98937 -0.680554 0
M  V30 65 H 4.0163 3.12538 -0.0624074 0
M  V30 66 H 3.2363 3.01001 -2.54543 0
M  V30 67 H 4.5243 4.17047 -2.9146 0
M  V30 68 H 3.9223 5.65609 -0.101624 0
M  V30 69 H 2.4793 6.4987 -0.501165 0
M  V30 70 N 5.9124 1.20967 1.01018 0
M  V30 71 C 7.3234 1.02319 1.56165 0
M  V30 72 C 7.6744 -0.418546 1.91684 0
M  V30 73 O 6.7994 -1.30096 1.72928 0
M  V30 74 C 7.3944 1.85109 2.8376 0
M  V30 75 C 5.9534 1.70809 3.35412 0
M  V30 76 C 5.1004 1.82643 2.08655 0
M  V30 77 H 8.0514 1.35065 0.833255 0
M  V30 78 H 8.0724 1.35827 3.55431 0
M  V30 79 H 7.5844 2.90035 2.57878 0
M  V30 80 H 5.6854 0.685464 3.66241 0
M  V30 81 H 5.7984 2.52467 4.07182 0
M  V30 82 H 4.1624 1.25896 2.21409 0
M  V30 83 H 4.9454 2.89066 1.85191 0
M  V30 84 N 7.3905 -1.2043 1.01659 0
M  V30 85 C 8.6205 -1.93496 0.724081 0
M  V30 86 C 9.0285 -1.74998 -0.71918 0
M  V30 87 O 8.3715 -1.06118 -1.49949 0
M  V30 88 C 8.4335 -3.45886 0.97994 0
M  V30 89 C 8.0975 -3.88145 2.41232 0
M  V30 90 C 9.0945 -3.93907 3.39313 0
M  V30 91 C 6.7795 -4.20134 2.75305 0
M  V30 92 C 8.7735 -4.31069 4.6953 0
M  V30 93 C 6.4605 -4.56971 4.05735 0
M  V30 94 C 7.4585 -4.62411 5.02658 0
M  V30 95 O 7.1465 -4.98403 6.30754 0
M  V30 96 H 6.8785 -0.621824 0.265162 0
M  V30 97 H 9.4325 -1.53867 1.36066 0
M  V30 98 H 7.6625 -3.85639 0.286198 0
M  V30 99 H 9.3515 -4.0018 0.679021 0
M  V30 100 H 10.1175 -3.69357 3.14325 0
M  V30 101 H 5.9965 -4.1509 2.00551 0
M  V30 102 H 9.5405 -4.3523 5.45179 0
M  V30 103 H 5.4375 -4.80977 4.30502 0
M  V30 104 H 6.2055 -5.16395 6.35042 0
M  V30 105 N 8.8686 -0.792821 -1.36206 0
M  V30 106 C 9.7986 -0.207853 -2.32573 0
M  V30 107 C 10.7796 0.659055 -1.56813 0
M  V30 108 O 11.9646 0.592176 -1.84951 0
M  V30 109 C 9.0946 0.655449 -3.41059 0
M  V30 110 C 8.0486 -0.111842 -4.27854 0
M  V30 111 C 7.3746 0.872274 -5.27537 0
M  V30 112 C 8.6746 -1.30299 -5.05786 0
M  V30 113 H 10.3686 -1.01294 -2.81744 0
M  V30 114 H 7.9146 -0.48854 -1.3546 0
M  V30 115 H 9.8676 1.07464 -4.07467 0
M  V30 116 H 8.5916 1.49328 -2.90463 0
M  V30 117 H 7.2506 -0.512053 -3.63006 0
M  V30 118 H 6.8986 1.70523 -4.73214 0
M  V30 119 H 6.5986 0.363291 -5.86476 0
M  V30 120 H 8.1226 1.28996 -5.96818 0
M  V30 121 H 9.5366 -0.959379 -5.65216 0
M  V30 122 H 7.9336 -1.7455 -5.74154 0
M  V30 123 H 9.0036 -2.09663 -4.37229 0
M  V30 124 N 10.3467 1.47872 -0.545128 0
M  V30 125 C 11.6237 1.9554 0.0485222 0
M  V30 126 C 12.0037 1.4876 1.49779 0
M  V30 127 O 11.3517 0.720925 2.16829 0
M  V30 128 C 11.5617 3.48898 -0.084417 0
M  V30 129 C 12.9097 4.24547 0.0671239 0
M  V30 130 O 13.9337 3.56198 -0.0113649 0
M  V30 131 O 12.7927 5.45999 0.233882 0
M  V30 132 H 9.8867 0.823957 0.0708773 0
M  V30 133 H 12.4327 1.58327 -0.610798 0
M  V30 134 H 11.2047 3.75714 -1.09337 0
M  V30 135 H 10.8277 3.92845 0.613066 0
M  V30 136 N 11.8248 0.280983 1.55075 0
M  V30 137 C 12.7548 -0.597469 2.25727 0
M  V30 138 C 13.7358 -1.15417 1.24952 0
M  V30 139 O 14.9208 -1.18722 1.53684 0
M  V30 140 C 12.0508 -1.7789 2.98283 0
M  V30 141 C 11.0048 -1.35347 4.06036 0
M  V30 142 C 10.3308 -2.61846 4.66198 0
M  V30 143 C 11.6308 -0.499354 5.19907 0
M  V30 144 H 13.3248 -0.00824265 2.99399 0
M  V30 145 H 10.8708 -0.0025244 1.44 0
M  V30 146 H 12.8238 -2.39937 3.46422 0
M  V30 147 H 11.5478 -2.39405 2.22155 0
M  V30 148 H 10.2068 -0.756156 3.58717 0
M  V30 149 H 9.8548 -3.21632 3.86732 0
M  V30 150 H 9.5548 -2.3409 5.38958 0
M  V30 151 H 11.0788 -3.24732 5.1709 0
M  V30 152 H 12.4928 -1.02498 5.64063 0
M  V30 153 H 10.8898 -0.316424 5.99265 0
M  V30 154 H 11.9598 0.480459 4.82514 0
M  V30 155 N 13.3029 -1.57598 0.00835791 0
M  V30 156 C 14.2659 -2.07884 -0.965242 0
M  V30 157 C 15.2659 -0.989825 -1.26725 0
M  V30 158 O 16.4559 -1.25218 -1.21104 0
M  V30 159 C 13.5879 -2.52731 -2.28779 0
M  V30 160 H 14.7809 -2.95178 -0.530112 0
M  V30 161 H 12.3339 -1.54458 -0.239283 0
M  V30 162 H 13.0689 -1.68705 -2.76964 0
M  V30 163 H 12.8539 -3.32272 -2.08177 0
M  V30 164 H 14.3439 -2.91933 -2.98605 0
M  V30 165 N 14.781 0.264519 -1.55364 0
M  V30 166 C 15.728 1.32717 -1.88825 0
M  V30 167 C 16.698 1.48675 -0.740605 0
M  V30 168 O 17.883 1.62945 -0.992657 0
M  V30 169 C 15.023 2.68089 -2.17307 0
M  V30 170 C 14.136 2.60284 -3.44785 0
M  V30 171 C 13.271 3.87892 -3.62924 0
M  V30 172 C 12.31 3.74631 -4.84064 0
M  V30 173 N 11.447 4.94092 -4.98816 0
M  V30 174 H 16.287 1.03481 -2.79456 0
M  V30 175 H 13.824 0.499757 -1.3835 0
M  V30 176 H 15.782 3.46864 -2.31821 0
M  V30 177 H 14.412 2.95509 -1.299 0
M  V30 178 H 13.464 1.73173 -3.38697 0
M  V30 179 H 14.776 2.46388 -4.33698 0
M  V30 180 H 13.93 4.75109 -3.77302 0
M  V30 181 H 12.669 4.04664 -2.7221 0
M  V30 182 H 11.674 2.85797 -4.69681 0
M  V30 183 H 12.899 3.5937 -5.76221 0
M  V30 184 H 10.845 5.11259 -4.11036 0
M  V30 185 H 10.762 4.8276 -5.81789 0
M  V30 186 H 12.03 5.82857 -5.17588 0
M  V30 187 N 16.2591 1.48442 0.529413 0
M  V30 188 C 17.2061 1.63007 1.63394 0
M  V30 189 C 18.1761 0.47212 1.59249 0
M  V30 190 O 19.3611 0.695673 1.77666 0
M  V30 191 C 16.5011 1.6763 3.01653 0
M  V30 192 C 15.6141 2.94535 3.16027 0
M  V30 193 C 14.7491 2.90316 4.44849 0
M  V30 194 C 13.7881 4.11923 4.52754 0
M  V30 195 N 12.9251 4.05777 5.72965 0
M  V30 196 H 17.7651 2.5733 1.50285 0
M  V30 197 H 15.3021 1.27613 0.731656 0
M  V30 198 H 17.2601 1.68292 3.81751 0
M  V30 199 H 15.8901 0.76797 3.13532 0
M  V30 200 H 14.9421 3.03615 2.29177 0
M  V30 201 H 16.2541 3.84512 3.17729 0
M  V30 202 H 15.4081 2.89382 5.33238 0
M  V30 203 H 14.1471 1.98068 4.45668 0
M  V30 204 H 13.1521 4.13131 3.62771 0
M  V30 205 H 14.3771 5.0533 4.53672 0
M  V30 206 H 12.3231 3.16351 5.74681 0
M  V30 207 H 12.2401 4.8946 5.76164 0
M  V30 208 H 13.5081 4.08904 6.6364 0
M  V30 209 N 17.7372 -0.778329 1.37039 0
M  V30 210 C 18.9832 -1.53892 1.32079 0
M  V30 211 C 19.3162 -1.9396 -0.0965386 0
M  V30 212 O 18.5912 -1.63568 -1.05242 0
M  V30 213 C 18.8742 -2.80847 2.25382 0
M  V30 214 C 18.7272 -2.47076 3.75864 0
M  V30 215 C 20.0462 -3.82741 2.1725 0
M  V30 216 H 17.1652 -0.558303 0.48111 0
M  V30 217 H 19.8072 -0.893397 1.67685 0
M  V30 218 H 17.9572 -3.35931 1.95148 0
M  V30 219 H 19.6292 -1.97957 4.16666 0
M  V30 220 H 17.8722 -1.79863 3.94755 0
M  V30 221 H 18.5432 -3.37798 4.36574 0
M  V30 222 H 21.0192 -3.37133 2.43887 0
M  V30 223 H 19.8952 -4.69303 2.84686 0
M  V30 224 H 20.1562 -4.2652 1.16331 0
M  V30 225 N 19.2153 -1.21501 -1.00376 0
M  V30 226 C 20.1453 -0.999478 -2.11028 0
M  V30 227 C 21.1263 0.0759671 -1.6993 0
M  V30 228 O 22.3113 -0.0841106 -1.94018 0
M  V30 229 C 19.4413 -0.564709 -3.42678 0
M  V30 230 C 18.3953 -1.58486 -3.97576 0
M  V30 231 C 17.7213 -1.00628 -5.25146 0
M  V30 232 C 19.0213 -2.97204 -4.29496 0
M  V30 233 H 20.7153 -1.92495 -2.29317 0
M  V30 234 H 18.2613 -0.92693 -1.102 0
M  V30 235 H 20.2143 -0.401091 -4.19487 0
M  V30 236 H 18.9383 0.396411 -3.24185 0
M  V30 237 H 17.5973 -1.73606 -3.22888 0
M  V30 238 H 17.2453 -0.0368439 -5.02987 0
M  V30 239 H 16.9453 -1.68771 -5.62841 0
M  V30 240 H 18.4693 -0.854015 -6.04598 0
M  V30 241 H 19.8833 -2.8552 -4.97143 0
M  V30 242 H 18.2803 -3.62372 -4.78338 0
M  V30 243 H 19.3503 -3.47956 -3.3772 0
M  V30 244 N 20.6934 1.19889 -1.02296 0
M  V30 245 C 21.9704 1.85148 -0.630832 0
M  V30 246 C 22.3504 1.91385 0.890782 0
M  V30 247 O 21.6984 1.42642 1.78509 0
M  V30 248 C 21.9084 3.24442 -1.28602 0
M  V30 249 C 23.2564 4.00663 -1.4055 0
M  V30 250 O 24.2804 3.33818 -1.24273 0
M  V30 251 O 23.1394 5.20387 -1.66913 0
M  V30 252 H 20.2334 0.797613 -0.218499 0
M  V30 253 H 22.7794 1.27427 -1.12074 0
M  V30 254 H 21.5514 3.14704 -2.32545 0
M  V30 255 H 21.1744 3.89802 -0.7836 0
M  V30 256 N 22.1715 0.800033 1.35784 0
M  V30 257 C 23.0815 0.207204 2.33683 0
M  V30 258 C 24.0975 -0.64631 1.61551 0
M  V30 259 O 25.2735 -0.559604 1.93469 0
M  V30 260 C 22.3385 -0.639659 3.40748 0
M  V30 261 C 21.3995 0.233585 4.28664 0
M  V30 262 C 20.6325 -0.572954 5.30616 0
M  V30 263 O 20.8555 -1.80816 5.40982 0
M  V30 264 O 19.7895 0.0327285 6.01891 0
M  V30 265 H 23.6155 1.01692 2.86169 0
M  V30 266 H 21.2005 0.561691 1.38439 0
M  V30 267 H 23.0825 -1.12223 4.06182 0
M  V30 268 H 21.7575 -1.42708 2.90544 0
M  V30 269 H 20.6645 0.763147 3.66233 0
M  V30 270 H 21.9975 0.984784 4.82248 0
M  V30 271 N 23.6496 -1.47581 0.552962 0
M  V30 272 C 24.8976 -2.02082 0.0272703 0
M  V30 273 C 25.2186 -1.4301 -1.32563 0
M  V30 274 O 24.4886 -0.603745 -1.86365 0
M  V30 275 H 23.0686 -0.746966 0.00709182 0
M  V30 276 H 25.7306 -1.81033 0.722008 0
M  V30 277 H 24.8266 -3.12034 -0.0639951 0
M  V30 278 N 25.1277 -0.289203 -1.54924 0
M  V30 279 C 26.0777 0.606939 -2.19773 0
M  V30 280 C 27.0617 1.10783 -1.16687 0
M  V30 281 O 28.2537 1.05057 -1.4245 0
M  V30 282 C 25.3827 1.78398 -2.93307 0
M  V30 283 C 24.4687 1.29961 -4.03697 0
M  V30 284 N 24.8597 0.532377 -5.0299 0
M  V30 285 C 23.1577 1.58136 -4.17024 0
M  V30 286 C 23.8587 0.275912 -5.81045 0
M  V30 287 N 22.8347 0.852365 -5.36876 0
M  V30 288 H 26.6367 0.0130779 -2.93897 0
M  V30 289 H 24.1507 -0.09341 -1.62131 0
M  V30 290 H 26.1477 2.43741 -3.38225 0
M  V30 291 H 24.8077 2.38166 -2.20697 0
M  V30 292 H 25.8187 0.17838 -5.17593 0
M  V30 293 H 22.4957 2.18738 -3.55612 0
M  V30 294 H 23.8857 -0.339502 -6.71042 0
M  V30 295 N 26.6058 1.57591 -0.0167156 0
M  V30 296 C 27.8528 1.91283 0.664597 0
M  V30 297 C 28.1808 0.891949 1.72842 0
M  V30 298 O 27.4358 -0.100931 1.9544 0
M  V30 299 C 27.7348 3.3172 1.33029 0
M  V30 300 C 27.4008 4.4914 0.398047 0
M  V30 301 C 26.0628 4.80992 0.141421 0
M  V30 302 C 28.4148 5.20634 -0.242825 0
M  V30 303 C 25.7428 5.81703 -0.764092 0
M  V30 304 C 28.0948 6.22311 -1.13632 0
M  V30 305 C 26.7588 6.52611 -1.40196 0
M  V30 306 H 26.0288 0.699956 0.243193 0
M  V30 307 H 28.6758 1.9135 -0.0758267 0
M  V30 308 H 26.9808 3.27856 2.14517 0
M  V30 309 H 28.6778 3.55055 1.86379 0
M  V30 310 H 25.2678 4.24262 0.608238 0
M  V30 311 H 29.4518 4.96267 -0.0576019 0
M  V30 312 H 24.7078 6.03532 -0.977732 0
M  V30 313 H 28.8818 6.76834 -1.63917 0
M  V30 314 H 26.5088 7.30467 -2.10529 0
M  V30 315 N 28.0839 -0.256276 1.55502 0
M  V30 316 C 29.0309 -1.31714 1.89526 0
M  V30 317 C 30.0009 -1.4828 0.748479 0
M  V30 318 O 31.1859 -1.62416 1.00128 0
M  V30 319 C 28.3259 -2.66933 2.18725 0
M  V30 320 C 27.4389 -2.58452 3.4616 0
M  V30 321 C 26.5739 -3.85961 3.64976 0
M  V30 322 C 25.6129 -3.72059 4.86044 0
M  V30 323 N 24.7499 -4.9144 5.01429 0
M  V30 324 H 29.5899 -1.01998 2.80001 0
M  V30 325 H 27.1269 -0.492413 1.38613 0
M  V30 326 H 29.0849 -3.4563 2.33657 0
M  V30 327 H 27.7149 -2.94816 1.31466 0
M  V30 328 H 26.7669 -1.71374 3.3961 0
M  V30 329 H 28.0789 -2.44085 4.34999 0
M  V30 330 H 27.2329 -4.73101 3.79816 0
M  V30 331 H 25.9719 -4.03215 2.74353 0
M  V30 332 H 24.9769 -2.83302 4.7119 0
M  V30 333 H 26.2019 -3.56309 5.78118 0
M  V30 334 H 24.1479 -5.09072 4.13741 0
M  V30 335 H 24.0649 -4.79668 5.84341 0
M  V30 336 H 25.3329 -5.80104 5.20672 0
M  V30 337 N 29.562 -1.4872 -0.521534 0
M  V30 338 C 30.973 -1.50607 -1.10337 0
M  V30 339 C 31.324 -0.280612 -1.94183 0
M  V30 340 O 30.449 0.611507 -2.0758 0
M  V30 341 C 31.044 -2.72903 -2.00772 0
M  V30 342 C 29.603 -2.77634 -2.54158 0
M  V30 343 C 28.75 -2.44241 -1.31307 0
M  V30 344 H 31.701 -1.55714 -0.306388 0
M  V30 345 H 31.722 -2.519 -2.85178 0
M  V30 346 H 31.234 -3.62077 -1.39721 0
M  V30 347 H 29.335 -1.92689 -3.18907 0
M  V30 348 H 29.448 -3.79283 -2.92714 0
M  V30 349 H 27.812 -1.95577 -1.63161 0
M  V30 350 H 28.595 -3.35666 -0.719943 0
M  V30 351 N 31.0401 0.771051 -1.3745 0
M  V30 352 C 32.3171 1.519 -1.23231 0
M  V30 353 C 32.6971 2.10383 0.173809 0
M  V30 354 O 32.0451 1.95583 1.18151 0
M  V30 355 C 32.2551 2.59933 -2.32886 0
M  V30 356 C 33.6031 3.27316 -2.70461 0
M  V30 357 O 34.6271 2.70228 -2.32068 0
M  V30 358 O 33.4861 4.30531 -3.36608 0
M  V30 359 H 30.5801 0.672803 -0.480901 0
M  V30 360 H 33.1261 0.807957 -1.49232 0
M  V30 361 H 31.8981 2.14842 -3.27045 0
M  V30 362 H 31.5211 3.38637 -2.08353 0
M  V30 363 N 32.5182 1.22032 0.997298 0
M  V30 364 C 33.9342 0.979326 1.26021 0
M  V30 365 C 34.1342 -0.32972 1.98784 0
M  V30 366 O 33.1902 -1.05345 2.29475 0
M  V30 367 C 34.5032 2.17509 2.07631 0
M  V30 368 C 36.0512 2.21817 2.2083 0
M  V30 369 C 36.5262 3.40933 3.05825 0
M  V30 370 N 38.0172 3.41067 3.13412 0
M  V30 371 C 38.7522 4.29885 3.79455 0
M  V30 372 N 38.2482 5.28914 4.47462 0
M  V30 373 N 40.0412 4.17673 3.76173 0
M  V30 374 H 32.1922 2.06202 0.509352 0
M  V30 375 H 34.4552 0.90334 0.287541 0
M  V30 376 H 34.1612 3.12415 1.61524 0
M  V30 377 H 34.0352 2.17206 3.08385 0
M  V30 378 H 36.4222 1.27462 2.66153 0
M  V30 379 H 36.5032 2.2616 1.1952 0
M  V30 380 H 36.1472 4.35586 2.61203 0
M  V30 381 H 36.0772 3.33829 4.07266 0
M  V30 382 H 38.5682 2.69406 2.65007 0
M  V30 383 H 38.8812 5.92973 4.95583 0
M  V30 384 H 37.2262 5.32831 4.46224 0
M  V30 385 H 40.4172 3.39564 3.22202 0
M  V30 386 H 40.5902 4.87098 4.27363 0
M  V30 387 N 33.9963 -1.19345 1.0293 0
M  V30 388 C 35.2243 -1.92997 0.745644 0
M  V30 389 C 35.6393 -1.75519 -0.695589 0
M  V30 390 O 34.9963 -1.07737 -1.47306 0
M  V30 391 C 35.0473 -3.44741 1.08792 0
M  V30 392 O 34.7683 -3.61658 2.47256 0
M  V30 393 C 36.2693 -4.35515 0.827129 0
M  V30 394 H 33.4893 -0.613042 0.272801 0
M  V30 395 H 36.0333 -1.51473 1.3739 0
M  V30 396 H 34.1883 -3.84097 0.504832 0
M  V30 397 H 34.6023 -4.55514 2.60015 0
M  V30 398 H 36.0763 -5.40589 1.11658 0
M  V30 399 H 36.5533 -4.38552 -0.238436 0
M  V30 400 H 37.1593 -4.01841 1.39297 0
M  V30 401 N 35.4744 -0.807222 -1.35358 0
M  V30 402 C 36.4244 -0.190706 -2.27201 0
M  V30 403 C 37.4084 0.635838 -1.47804 0
M  V30 404 O 38.6004 0.492991 -1.69996 0
M  V30 405 C 35.7294 0.659337 -3.36909 0
M  V30 406 C 34.8154 -0.176971 -4.23731 0
M  V30 407 N 35.2064 -1.24029 -4.90357 0
M  V30 408 C 33.5044 0.0412953 -4.45981 0
M  V30 409 C 34.2054 -1.75092 -5.54723 0
M  V30 410 N 33.1814 -1.05727 -5.33219 0
M  V30 411 H 36.9834 -1.0043 -2.76208 0
M  V30 412 H 34.4974 -0.648445 -1.48892 0
M  V30 413 H 36.4944 1.11706 -4.01656 0
M  V30 414 H 35.1544 1.47127 -2.89454 0
M  V30 415 H 36.1654 -1.62295 -4.91814 0
M  V30 416 H 32.8424 0.82232 -4.09322 0
M  V30 417 H 34.2324 -2.63963 -6.17878 0
M  V30 418 N 36.9525 1.47285 -0.560781 0
M  V30 419 C 38.1805 2.06855 -0.0430262 0
M  V30 420 C 38.5955 1.41291 1.25229 0
M  V30 421 O 37.9525 0.510648 1.7521 0
M  V30 422 C 38.0035 3.61178 0.152518 0
M  V30 423 O 37.7245 4.24285 -1.0915 0
M  V30 424 C 39.2255 4.37624 0.707145 0
M  V30 425 H 36.4455 0.669319 -0.0474652 0
M  V30 426 H 38.9895 1.89237 -0.77521 0
M  V30 427 H 37.1445 3.78298 0.834843 0
M  V30 428 H 37.5585 5.16868 -0.891482 0
M  V30 429 H 39.0325 5.46271 0.793244 0
M  V30 430 H 39.5095 4.04152 1.71923 0
M  V30 431 H 40.1155 4.25257 0.0604027 0
M  V30 432 N 38.4306 0.297415 1.54768 0
M  V30 433 C 39.6786 -0.312295 1.99673 0
M  V30 434 C 39.9996 -1.54686 1.18732 0
M  V30 435 O 39.2696 -1.93854 0.282382 0
M  V30 436 H 37.8496 -0.118381 0.73756 0
M  V30 437 H 40.5116 0.407915 1.90583 0
M  V30 438 H 39.6076 -0.586813 3.06534 0
M  V30 439 N 39.9087 -1.5758 0.0250728 0
M  V30 440 C 41.1367 -1.9593 -0.664747 0
M  V30 441 C 41.5517 -0.901352 -1.65895 0
M  V30 442 O 40.9087 0.117255 -1.82123 0
M  V30 443 C 40.9597 -3.34342 -1.37468 0
M  V30 444 O 40.6807 -4.36079 -0.420324 0
M  V30 445 C 42.1817 -3.873 -2.1567 0
M  V30 446 H 39.4017 -0.645405 -0.183557 0
M  V30 447 H 41.9457 -2.04329 0.0836372 0
M  V30 448 H 40.1007 -3.27175 -2.0745 0
M  V30 449 H 40.5147 -5.16297 -0.923991 0
M  V30 450 H 41.9887 -4.86504 -2.60803 0
M  V30 451 H 42.4657 -3.21331 -2.99405 0
M  V30 452 H 43.0717 -3.97723 -1.50654 0
M  V30 453 N 41.3868 0.248026 -1.55636 0
M  V30 454 C 42.6168 0.992367 -1.81206 0
M  V30 455 C 43.0248 1.7949 -0.598324 0
M  V30 456 O 42.3678 1.78292 0.442434 0
M  V30 457 C 42.4298 1.97926 -3.00109 0
M  V30 458 C 42.0938 1.36377 -4.36177 0
M  V30 459 C 43.0908 0.76682 -5.14214 0
M  V30 460 C 40.7758 1.38347 -4.82872 0
M  V30 461 C 42.7698 0.197778 -6.37093 0
M  V30 462 C 40.4568 0.810574 -6.057 0
M  V30 463 C 41.4548 0.218754 -6.8265 0
M  V30 464 O 41.1428 -0.345298 -8.03158 0
M  V30 465 H 40.8748 0.297704 -0.606917 0
M  V30 466 H 43.4288 0.276517 -2.0353 0
M  V30 467 H 41.6588 2.73339 -2.73538 0
M  V30 468 H 43.3478 2.58694 -3.12781 0
M  V30 469 H 44.1138 0.744114 -4.79258 0
M  V30 470 H 39.9928 1.8335 -4.2297 0
M  V30 471 H 43.5368 -0.264788 -6.97097 0
M  V30 472 H 39.4338 0.830604 -6.40134 0
M  V30 473 H 40.2018 -0.237055 -8.18157 0
M  V30 474 N 42.8649 1.48995 0.513639 0
M  V30 475 C 44.0899 1.61792 1.29762 0
M  V30 476 C 44.5149 0.284475 1.85936 0
M  V30 477 O 43.8729 -0.746185 1.65232 0
M  V30 478 C 43.9209 2.67993 2.41272 0
M  V30 479 O 43.0249 2.26287 3.44772 0
M  V30 480 H 42.3659 0.541963 0.38363 0
M  V30 481 H 44.8959 1.95097 0.616307 0
M  V30 482 H 44.9059 2.89772 2.87221 0
M  V30 483 H 43.5809 3.64791 1.9975 0
M  V30 484 H 42.1579 2.14788 3.04829 0
M  V30 485 N 44.343 -0.763751 1.37857 0
M  V30 486 C 45.592 -1.51789 1.32827 0
M  V30 487 C 45.905 -1.95426 -0.0823719 0
M  V30 488 O 47.111 -2.70298 -0.255172 0
M  V30 489 C 45.567 -2.74133 2.33193 0
M  V30 490 C 45.175 -2.37562 3.79827 0
M  V30 491 C 46.919 -3.52054 2.37188 0
M  V30 492 C 44.826 -3.56456 4.71904 0
M  V30 493 H 43.756 -0.569896 0.493695 0
M  V30 494 H 46.407 -0.835822 1.63359 0
M  V30 495 H 44.789 -3.4427 1.9569 0
M  V30 496 H 45.963 -1.75157 4.26212 0
M  V30 497 H 44.278 -1.72798 3.78853 0
M  V30 498 H 46.875 -4.40437 3.03182 0
M  V30 499 H 47.218 -3.92486 1.38782 0
M  V30 500 H 47.751 -2.88921 2.7344 0
M  V30 501 H 44.49 -3.21099 5.71468 0
M  V30 502 H 44.01 -4.17938 4.30218 0
M  V30 503 H 45.689 -4.23168 4.89426 0
M  V30 504 N 45.8211 -1.22559 -0.990812 0
M  V30 505 C 47.0681 -1.05141 -1.73065 0
M  V30 506 C 47.3961 0.413191 -1.9006 0
M  V30 507 O 46.6511 1.32257 -1.44245 0
M  V30 508 C 46.9501 -1.71011 -3.13831 0
M  V30 509 C 46.6161 -3.20911 -3.16745 0
M  V30 510 C 45.2781 -3.61812 -3.17247 0
M  V30 511 C 47.6301 -4.16846 -3.12872 0
M  V30 512 C 44.9581 -4.97127 -3.1158 0
M  V30 513 C 47.3101 -5.5214 -3.08746 0
M  V30 514 C 45.9741 -5.92419 -3.07565 0
M  V30 515 H 45.2441 -0.384738 -0.633291 0
M  V30 516 H 47.8911 -1.5235 -1.16025 0
M  V30 517 H 46.1961 -1.16133 -3.74193 0
M  V30 518 H 47.8931 -1.55023 -3.69823 0
M  V30 519 H 44.4831 -2.88344 -3.17105 0
M  V30 520 H 48.6671 -3.86263 -3.11632 0
M  V30 521 H 43.9231 -5.27562 -3.09012 0
M  V30 522 H 48.0971 -6.26201 -3.04705 0
M  V30 523 H 45.7241 -6.97236 -3.02929 0
M  V30 524 N 47.2992 1.18797 -1.03562 0
M  V30 525 C 48.5472 1.88278 -0.734569 0
M  V30 526 C 48.8682 1.8043 0.739586 0
M  V30 527 O 48.1382 1.21925 1.53333 0
M  V30 528 H 46.7182 0.696991 -0.268725 0
M  V30 529 H 49.3802 1.44192 -1.31129 0
M  V30 530 H 48.4762 2.94443 -1.03489 0
M  V30 531 N 48.7773 0.814389 1.34928 0
M  V30 532 C 49.7273 0.202752 2.27097 0
M  V30 533 C 50.7113 -0.62799 1.48139 0
M  V30 534 O 51.9033 -0.483969 1.70255 0
M  V30 535 C 49.0323 -0.64146 3.37254 0
M  V30 536 C 48.1183 0.19944 4.23631 0
M  V30 537 N 48.5093 1.26628 4.89693 0
M  V30 538 C 46.8073 -0.0176433 4.45997 0
M  V30 539 C 47.5083 1.78031 5.53787 0
M  V30 540 N 46.4843 1.08553 5.32651 0
M  V30 541 H 50.2863 1.01893 2.75672 0
M  V30 542 H 47.8003 0.656332 1.48546 0
M  V30 543 H 49.7973 -1.09575 4.02243 0
M  V30 544 H 48.4573 -1.4559 2.9023 0
M  V30 545 H 49.4683 1.64901 4.90946 0
M  V30 546 H 46.1453 -0.800601 4.09752 0
M  V30 547 H 47.5353 2.67236 6.16469 0
M  V30 548 N 50.2554 -1.46986 0.568584 0
M  V30 549 C 51.1874 -2.28233 -0.210337 0
M  V30 550 C 52.2004 -1.37682 -0.868767 0
M  V30 551 O 53.3894 -1.62406 -0.740705 0
M  V30 552 C 50.4894 -3.12293 -1.3163 0
M  V30 553 C 49.6624 -4.30878 -0.7525 0
M  V30 554 C 48.7214 -4.96445 -1.74439 0
M  V30 555 O 47.7474 -5.54482 -1.286 0
M  V30 556 N 48.9494 -4.92171 -3.07812 0
M  V30 557 H 51.7144 -2.95723 0.486648 0
M  V30 558 H 49.2754 -1.56742 0.405409 0
M  V30 559 H 51.2674 -3.53022 -1.97883 0
M  V30 560 H 49.8374 -2.46971 -1.91636 0
M  V30 561 H 49.0574 -3.94104 0.0871128 0
M  V30 562 H 50.3454 -5.07558 -0.35536 0
M  V30 563 H 49.7434 -4.46239 -3.47688 0
M  V30 564 H 48.3004 -5.36884 -3.69592 0
M  V30 565 N 51.7335 -0.305618 -1.54608 0
M  V30 566 C 52.6665 0.610536 -2.19881 0
M  V30 567 C 53.6445 1.1294 -1.16976 0
M  V30 568 O 54.8285 1.19673 -1.45638 0
M  V30 569 C 51.9555 1.83583 -2.84631 0
M  V30 570 C 51.0015 1.4498 -4.01102 0
M  V30 571 S 51.8345 0.501793 -5.33144 0
M  V30 572 C 52.9905 1.73478 -6.01379 0
M  V30 573 H 53.2235 0.0560177 -2.97247 0
M  V30 574 H 50.7565 -0.0897434 -1.54139 0
M  V30 575 H 52.7145 2.53898 -3.22562 0
M  V30 576 H 51.3755 2.36152 -2.07102 0
M  V30 577 H 50.5685 2.36236 -4.45206 0
M  V30 578 H 50.1705 0.826553 -3.64752 0
M  V30 579 H 52.4625 2.67473 -6.22467 0
M  V30 580 H 53.4055 1.33622 -6.95378 0
M  V30 581 H 53.8135 1.9136 -5.31076 0
M  V30 582 N 53.2116 1.57565 -0.0334293 0
M  V30 583 C 54.6276 1.56297 0.322997 0
M  V30 584 C 54.8276 1.03945 1.7262 0
M  V30 585 O 53.8836 0.688109 2.42943 0
M  V30 586 C 55.1966 3.00232 0.167664 0
M  V30 587 C 56.7446 3.12078 0.240107 0
M  V30 588 C 57.2196 4.57859 0.113513 0
M  V30 589 N 58.7106 4.62887 0.170359 0
M  V30 590 C 59.4456 5.73319 0.0962517 0
M  V30 591 N 58.9416 6.92794 -0.0291881 0
M  V30 592 N 60.7346 5.61898 0.150551 0
M  V30 593 H 52.8856 1.89923 -0.950956 0
M  V30 594 H 55.1486 0.873824 -0.367608 0
M  V30 595 H 54.8546 3.42501 -0.799102 0
M  V30 596 H 54.7286 3.654 0.936083 0
M  V30 597 H 57.1156 2.69718 1.19733 0
M  V30 598 H 57.1966 2.49623 -0.558763 0
M  V30 599 H 56.8406 5.009 -0.840314 0
M  V30 600 H 56.7706 5.18299 0.931302 0
M  V30 601 H 59.2616 3.76954 0.26728 0
M  V30 602 H 59.5746 7.7276 -0.0789252 0
M  V30 603 H 57.9196 6.94971 -0.0640299 0
M  V30 604 H 61.1106 4.67448 0.246981 0
M  V30 605 H 61.2836 6.47938 0.0893365 0
M  V30 606 N 54.6897 -0.239769 1.55765 0
M  V30 607 C 55.9367 -0.966801 1.7793 0
M  V30 608 C 56.2647 -1.85046 0.599015 0
M  V30 609 O 55.5197 -1.91197 -0.417395 0
M  V30 610 C 55.8187 -1.852 3.05672 0
M  V30 611 C 55.4847 -1.1231 4.36689 0
M  V30 612 C 54.1467 -0.921689 4.72291 0
M  V30 613 C 56.4987 -0.607019 5.17653 0
M  V30 614 C 53.8267 -0.191996 5.86386 0
M  V30 615 C 56.1787 0.109241 6.32506 0
M  V30 616 C 54.8427 0.322073 6.66723 0
M  V30 617 H 54.1127 -0.353778 0.651093 0
M  V30 618 H 56.7597 -0.23634 1.90036 0
M  V30 619 H 55.0647 -2.64975 2.8861 0
M  V30 620 H 56.7617 -2.41635 3.20021 0
M  V30 621 H 53.3517 -1.29004 4.08725 0
M  V30 622 H 57.5357 -0.750153 4.90598 0
M  V30 623 H 52.7917 -0.0166949 6.11398 0
M  V30 624 H 56.9657 0.516737 6.9448 0
M  V30 625 H 54.5927 0.88944 7.54979 0
M  V30 626 N 56.1678 -1.49265 -0.50573 0
M  V30 627 C 57.4448 -1.49012 -1.26707 0
M  V30 628 C 57.8248 -0.215205 -2.1 0
M  V30 629 O 57.1728 0.802547 -2.13943 0
M  V30 630 C 57.3828 -2.7663 -2.12783 0
M  V30 631 C 58.7308 -3.25932 -2.72127 0
M  V30 632 O 59.7548 -2.77715 -2.23054 0
M  V30 633 O 58.6138 -4.09897 -3.61451 0
M  V30 634 H 55.7078 -0.596197 -0.57313 0
M  V30 635 H 58.2538 -1.61524 -0.52039 0
M  V30 636 H 57.0258 -3.60916 -1.5118 0
M  V30 637 H 56.6488 -2.66956 -2.94653 0
M  V30 638 N 57.6459 0.756429 -1.3826 0
M  V30 639 C 58.5759 1.88374 -1.37976 0
M  V30 640 C 59.5569 1.68311 -0.246082 0
M  V30 641 O 60.7419 1.88944 -0.44874 0
M  V30 642 C 57.8719 3.25864 -1.20125 0
M  V30 643 C 56.8259 3.60523 -2.30666 0
M  V30 644 C 56.1519 4.9672 -1.97923 0
M  V30 645 C 57.4519 3.65692 -3.72916 0
M  V30 646 H 59.1459 1.88869 -2.32312 0
M  V30 647 H 56.6919 0.907272 -1.11824 0
M  V30 648 H 58.6449 4.0438 -1.18552 0
M  V30 649 H 57.3689 3.25841 -0.222498 0
M  V30 650 H 56.0279 2.84324 -2.3142 0
M  V30 651 H 55.6759 4.93253 -0.985393 0
M  V30 652 H 55.3759 5.20878 -2.71955 0
M  V30 653 H 56.8999 5.77618 -1.97964 0
M  V30 654 H 58.3139 4.34328 -3.74208 0
M  V30 655 H 56.7109 4.01358 -4.4613 0
M  V30 656 H 57.7809 2.65987 -4.05436 0
M  V30 657 N 59.124 1.23083 0.984299 0
M  V30 658 C 60.349 1.088 1.76571 0
M  V30 659 C 60.774 -0.356657 1.84688 0
M  V30 660 O 60.132 -1.25788 1.30565 0
M  V30 661 C 60.18 1.71371 3.17277 0
M  V30 662 O 59.284 0.973213 4.00752 0
M  V30 663 H 58.625 0.381599 0.543395 0
M  V30 664 H 61.155 1.63057 1.23587 0
M  V30 665 H 61.165 1.76449 3.67872 0
M  V30 666 H 59.84 2.76493 3.10684 0
M  V30 667 H 58.417 0.999078 3.59267 0
M  V30 668 N 60.6021 -1.18246 1.0419 0
M  V30 669 C 61.5491 -2.2192 0.634037 0
M  V30 670 C 62.5191 -1.62179 -0.358765 0
M  V30 671 O 63.7041 -1.89122 -0.252466 0
M  V30 672 C 60.8441 -3.451 0.00445535 0
M  V30 673 C 59.9571 -4.19174 1.04487 0
M  V30 674 C 59.0921 -5.29813 0.383676 0
M  V30 675 C 58.1311 -5.9566 1.4091 0
M  V30 676 N 57.2681 -6.97834 0.772784 0
M  V30 677 H 62.1081 -2.56164 1.52263 0
M  V30 678 H 59.6451 -1.25843 0.761701 0
M  V30 679 H 61.6031 -4.15485 -0.377919 0
M  V30 680 H 60.2331 -3.11472 -0.847652 0
M  V30 681 H 59.2851 -3.47604 1.54518 0
M  V30 682 H 60.5971 -4.64267 1.82368 0
M  V30 683 H 59.7511 -6.06677 -0.0528366 0
M  V30 684 H 58.4901 -4.85825 -0.427208 0
M  V30 685 H 57.4951 -5.17535 1.85574 0
M  V30 686 H 58.7201 -6.4173 2.22171 0
M  V30 687 H 56.6661 -6.55998 -0.0177708 0
M  V30 688 H 56.5831 -7.41186 1.48928 0
M  V30 689 H 57.8511 -7.78665 0.36071 0
M  V30 690 N 62.0802 -0.821533 -1.34494 0
M  V30 691 C 63.3282 -0.408139 -1.97936 0
M  V30 692 C 63.6492 1.03193 -1.65457 0
M  V30 693 O 62.9192 1.71622 -0.944595 0
M  V30 694 H 61.4992 -0.147928 -0.732206 0
M  V30 695 H 64.1612 -1.05067 -1.64155 0
M  V30 696 H 63.2572 -0.52601 -3.07635 0
M  V30 697 N 63.5583 1.46682 -0.576371 0
M  V30 698 C 64.8053 2.02412 -0.0595339 0
M  V30 699 C 65.1333 1.44859 1.29793 0
M  V30 700 O 64.3883 0.601099 1.8624 0
M  V30 701 C 64.6873 3.57345 0.062886 0
M  V30 702 C 64.3533 4.33908 -1.22616 0
M  V30 703 C 63.0153 4.54544 -1.57933 0
M  V30 704 C 65.3673 4.77919 -2.07948 0
M  V30 705 C 62.6953 5.16444 -2.78393 0
M  V30 706 C 65.0473 5.41149 -3.27629 0
M  V30 707 C 63.7113 5.60014 -3.63236 0
M  V30 708 H 62.9813 0.74068 -0.021785 0
M  V30 709 H 65.6283 1.76128 -0.751735 0
M  V30 710 H 63.9333 3.82729 0.838178 0
M  V30 711 H 65.6303 3.98136 0.478439 0
M  V30 712 H 62.2203 4.18138 -0.941202 0
M  V30 713 H 66.4043 4.61738 -1.81967 0
M  V30 714 H 61.6603 5.29242 -3.06126 0
M  V30 715 H 65.8343 5.74211 -3.94023 0
M  V30 716 H 63.4613 6.07748 -4.56669 0
M  V30 717 N 65.0364 0.313813 1.54444 0
M  V30 718 C 66.4474 -0.176243 1.85866 0
M  V30 719 C 66.7984 -1.52405 1.23561 0
M  V30 720 O 65.9234 -2.09605 0.538016 0
M  V30 721 C 66.5184 -0.32657 3.37222 0
M  V30 722 C 65.0774 -0.760846 3.6863 0
M  V30 723 C 64.2244 0.123247 2.77026 0
M  V30 724 H 67.1754 0.534418 1.49431 0
M  V30 725 H 67.1964 -1.15908 3.62416 0
M  V30 726 H 66.7084 0.654531 3.82541 0
M  V30 727 H 64.8094 -1.75204 3.28838 0
M  V30 728 H 64.9224 -0.571353 4.75681 0
M  V30 729 H 63.2864 -0.399597 2.51546 0
M  V30 730 H 64.0694 1.10094 3.25168 0
M  V30 731 N 66.5145 -1.57545 0.0417849 0
M  V30 732 C 67.4445 -2.14009 -0.933929 0
M  V30 733 C 68.4255 -1.05938 -1.33083 0
M  V30 734 O 69.6105 -1.33833 -1.40721 0
M  V30 735 C 66.7405 -2.67747 -2.21199 0
M  V30 736 C 65.6945 -3.80718 -1.95544 0
M  V30 737 C 65.0205 -4.20935 -3.29724 0
M  V30 738 C 66.3205 -5.06258 -1.28452 0
M  V30 739 H 68.0145 -2.95788 -0.463645 0
M  V30 740 H 65.5605 -1.42285 -0.221573 0
M  V30 741 H 67.5135 -3.05886 -2.89848 0
M  V30 742 H 66.2375 -1.83147 -2.70416 0
M  V30 743 H 64.8965 -3.43037 -1.2931 0
M  V30 744 H 64.5445 -3.33298 -3.76724 0
M  V30 745 H 64.2445 -4.9707 -3.13361 0
M  V30 746 H 65.7685 -4.61666 -3.9962 0
M  V30 747 H 67.1825 -5.41903 -1.8712 0
M  V30 748 H 65.5795 -5.87475 -1.22445 0
M  V30 749 H 66.6495 -4.84207 -0.259219 0
M  V30 750 N 67.9926 0.231505 -1.5589 0
M  V30 751 C 68.9226 1.29022 -1.94617 0
M  V30 752 C 69.9036 1.4941 -0.813067 0
M  V30 753 O 71.0886 1.6176 -1.07459 0
M  V30 754 C 68.2186 2.64199 -2.25424 0
M  V30 755 C 67.1726 2.58484 -3.41131 0
M  V30 756 C 66.4986 3.97599 -3.57518 0
M  V30 757 C 67.7986 2.1413 -4.76388 0
M  V30 758 H 69.4926 0.968563 -2.83301 0
M  V30 759 H 67.0386 0.464479 -1.36303 0
M  V30 760 H 68.9916 3.38413 -2.51107 0
M  V30 761 H 67.7156 2.98032 -1.33583 0
M  V30 762 H 66.3746 1.86727 -3.15481 0
M  V30 763 H 66.0226 4.28723 -2.6307 0
M  V30 764 H 65.7226 3.94659 -4.35337 0
M  V30 765 H 67.2466 4.7349 -3.85538 0
M  V30 766 H 68.6606 2.78083 -5.01341 0
M  V30 767 H 67.0576 2.2227 -5.57419 0
M  V30 768 H 68.1276 1.09331 -4.72414 0
M  V30 769 N 69.4707 1.49531 0.497807 0
M  V30 770 C 70.6987 1.62893 1.27567 0
M  V30 771 C 71.1137 0.301585 1.86376 0
M  V30 772 O 70.4707 -0.713335 1.67982 0
M  V30 773 C 70.5217 2.70013 2.40364 0
M  V30 774 O 70.2427 3.976 1.83972 0
M  V30 775 C 71.7437 2.94109 3.31685 0
M  V30 776 H 68.9637 0.548298 0.386794 0
M  V30 777 H 71.5077 1.95584 0.597245 0
M  V30 778 H 69.6627 2.40092 3.04031 0
M  V30 779 H 70.0767 4.56631 2.58047 0
M  V30 780 H 71.5507 3.72788 4.07104 0
M  V30 781 H 72.0277 2.04147 3.88871 0
M  V30 782 H 72.6337 3.2546 2.73781 0
M  V30 783 N 70.9488 -0.749086 1.3866 0
M  V30 784 C 72.1768 -1.53834 1.38358 0
M  V30 785 C 72.5918 -1.88783 -0.0255219 0
M  V30 786 O 71.9488 -1.53101 -0.993292 0
M  V30 787 C 71.9998 -2.83468 2.2434 0
M  V30 788 O 71.7208 -2.50008 3.5976 0
M  V30 789 C 73.2218 -3.7758 2.32267 0
M  V30 790 H 70.4418 -0.47585 0.473083 0
M  V30 791 H 72.9858 -0.926726 1.82297 0
M  V30 792 H 71.1408 -3.40995 1.83851 0
M  V30 793 H 71.5548 -3.33182 4.05081 0
M  V30 794 H 73.0288 -4.65478 2.96706 0
M  V30 795 H 73.5058 -4.18334 1.33765 0
M  V30 796 H 74.1118 -3.25976 2.73166 0
M  V30 797 N 72.4269 -1.23603 -0.977757 0
M  V30 798 C 73.3739 -1.01954 -2.07061 0
M  V30 799 C 74.3439 0.0638697 -1.65977 0
M  V30 800 O 75.5289 -0.0887624 -1.90593 0
M  V30 801 C 72.6689 -0.619658 -3.39491 0
M  V30 802 C 71.7819 -1.77547 -3.93829 0
M  V30 803 C 70.9169 -1.32212 -5.14484 0
M  V30 804 C 69.9559 -2.44852 -5.60994 0
M  V30 805 N 69.0929 -2.00456 -6.72876 0
M  V30 806 H 73.9329 -1.95495 -2.24913 0
M  V30 807 H 71.4699 -0.973861 -1.10247 0
M  V30 808 H 73.4279 -0.368898 -4.15566 0
M  V30 809 H 72.0579 0.278752 -3.21594 0
M  V30 810 H 71.1099 -2.14016 -3.14486 0
M  V30 811 H 72.4219 -2.62219 -4.24314 0
M  V30 812 H 71.5759 -1.02965 -5.97899 0
M  V30 813 H 70.3149 -0.445808 -4.85658 0
M  V30 814 H 69.3199 -2.74871 -4.76157 0
M  V30 815 H 70.5449 -3.33024 -5.91837 0
M  V30 816 H 68.4909 -1.15208 -6.45804 0
M  V30 817 H 68.4079 -2.78687 -7.02759 0
M  V30 818 H 69.6759 -1.7432 -7.59758 0
M  V30 819 N 73.905 1.17692 -1.04816 0
M  V30 820 C 74.852 2.21581 -0.645797 0
M  V30 821 C 75.822 1.62367 0.350159 0
M  V30 822 O 77.007 1.89254 0.242433 0
M  V30 823 C 74.147 3.45092 -0.0227568 0
M  V30 824 C 73.26 4.18613 -1.06709 0
M  V30 825 C 72.395 5.29602 -0.411767 0
M  V30 826 C 71.434 5.94904 -1.44067 0
M  V30 827 N 70.571 6.97414 -0.809781 0
M  V30 828 H 75.411 2.55353 -1.5362 0
M  V30 829 H 72.948 1.25438 -0.768364 0
M  V30 830 H 74.906 4.15679 0.35588 0
M  V30 831 H 73.536 3.11917 0.831122 0
M  V30 832 H 72.588 3.46779 -1.5636 0
M  V30 833 H 73.9 4.63293 -1.84827 0
M  V30 834 H 73.054 6.06696 0.0206623 0
M  V30 835 H 71.793 4.86045 0.401438 0
M  V30 836 H 70.798 5.16544 -1.88316 0
M  V30 837 H 72.023 6.40542 -2.25571 0
M  V30 838 H 69.969 6.55998 -0.0170186 0
M  V30 839 H 69.886 7.40386 -1.52856 0
M  V30 840 H 71.154 7.78463 -0.401999 0
M  V30 841 N 75.3831 0.828654 1.34056 0
M  V30 842 C 76.6291 0.42008 1.98402 0
M  V30 843 C 76.9621 -1.01564 1.65525 0
M  V30 844 O 76.2371 -1.70834 0.929831 0
M  V30 845 C 76.5201 0.62927 3.54559 0
M  V30 846 C 76.3731 2.11152 3.97159 0
M  V30 847 C 77.6921 0.0688756 4.40046 0
M  V30 848 H 74.8111 0.154104 0.720709 0
M  V30 849 H 77.4531 1.04228 1.5886 0
M  V30 850 H 75.6031 0.0996418 3.88372 0
M  V30 851 H 77.2751 2.70522 3.73651 0
M  V30 852 H 75.5181 2.59985 3.47261 0
M  V30 853 H 76.1891 2.20868 5.05887 0
M  V30 854 H 78.6651 0.521458 4.1282 0
M  V30 855 H 77.5411 0.245006 5.48353 0
M  V30 856 H 77.8021 -1.0266 4.30015 0
M  V30 857 N 76.8612 -1.46375 0.584142 0
M  V30 858 C 78.2722 -1.86031 0.157959 0
M  V30 859 C 78.6232 -1.48753 -1.27933 0
M  V30 860 O 77.7482 -0.903098 -1.96655 0
M  V30 861 C 78.3432 -3.37642 0.279892 0
M  V30 862 C 76.9022 -3.76289 -0.09143 0
M  V30 863 C 76.0492 -2.7039 0.615178 0
M  V30 864 H 79.0002 -1.37509 0.792274 0
M  V30 865 H 79.0212 -3.77275 -0.494364 0
M  V30 866 H 78.5332 -3.64742 1.32607 0
M  V30 867 H 76.6342 -3.54806 -1.13769 0
M  V30 868 H 76.7472 -4.78246 0.285886 0
M  V30 869 H 75.1112 -2.5464 0.0552833 0
M  V30 870 H 75.8942 -3.0033 1.66303 0
M  V30 871 N 78.3393 -0.321999 -1.54275 0
M  V30 872 C 79.5863 0.281044 -2.0054 0
M  V30 873 C 79.9143 1.52265 -1.21019 0
M  V30 874 O 79.1693 1.93687 -0.279982 0
M  V30 875 C 79.4683 0.661769 -3.5122 0
M  V30 876 C 79.1343 -0.480482 -4.48333 0
M  V30 877 C 77.7963 -0.794005 -4.74604 0
M  V30 878 C 80.1483 -1.24783 -5.06042 0
M  V30 879 C 77.4763 -1.87763 -5.55844 0
M  V30 880 C 79.8283 -2.32153 -5.88462 0
M  V30 881 C 78.4923 -2.64089 -6.13036 0
M  V30 882 H 77.7623 0.102841 -0.733829 0
M  V30 883 H 80.4093 -0.445453 -1.86247 0
M  V30 884 H 78.7143 1.46867 -3.63232 0
M  V30 885 H 80.4113 1.13989 -3.84457 0
M  V30 886 H 77.0013 -0.226039 -4.28004 0
M  V30 887 H 81.1853 -1.01887 -4.85729 0
M  V30 888 H 76.4413 -2.12954 -5.73115 0
M  V30 889 H 80.6153 -2.92057 -6.32199 0
M  V30 890 H 78.2423 -3.48185 -6.75775 0
M  V30 891 N 79.8174 1.5752 -0.0501392 0
M  V30 892 C 81.0654 1.9227 0.622642 0
M  V30 893 C 81.3864 0.929083 1.71444 0
M  V30 894 O 80.6564 -0.0262186 1.95882 0
M  V30 895 H 79.2364 0.709739 0.232981 0
M  V30 896 H 81.8984 1.94628 -0.102898 0
M  V30 897 H 80.9944 2.93479 1.06191 0
M  V30 898 N 81.2955 -0.223234 1.56011 0
M  V30 899 C 82.2255 -1.27988 1.95298 0
M  V30 900 C 83.2065 -1.48976 0.820979 0
M  V30 901 O 84.3915 -1.61188 1.08315 0
M  V30 902 C 81.5215 -2.63 2.26822 0
M  V30 903 C 80.4755 -2.56671 3.42497 0
M  V30 904 C 79.8015 -3.95697 3.59622 0
M  V30 905 C 81.1015 -2.11601 4.77517 0
M  V30 906 H 82.7955 -0.953525 2.8381 0
M  V30 907 H 80.3415 -0.457244 1.36548 0
M  V30 908 H 82.2945 -3.37077 2.52898 0
M  V30 909 H 81.0185 -2.9732 1.35161 0
M  V30 910 H 79.6775 -1.85051 3.16467 0
M  V30 911 H 79.3255 -4.27322 2.6534 0
M  V30 912 H 79.0255 -3.92345 4.37424 0
M  V30 913 H 80.5495 -4.71438 3.88044 0
M  V30 914 H 81.9635 -2.7542 5.02809 0
M  V30 915 H 80.3605 -2.19311 5.5859 0
M  V30 916 H 81.4305 -1.06824 4.72987 0
M  V30 917 N 82.7736 -1.49793 -0.48987 0
M  V30 918 C 84.0226 -1.59085 -1.23995 0
M  V30 919 C 84.3356 -0.287907 -1.9347 0
M  V30 920 O 85.5416 -0.259506 -2.70257 0
M  V30 921 C 83.9976 -2.80736 -2.252 0
M  V30 922 C 83.6056 -4.17833 -1.61614 0
M  V30 923 C 85.3496 -2.99364 -3.00967 0
M  V30 924 C 83.2566 -5.30693 -2.60996 0
M  V30 925 H 82.1866 -0.592372 -0.466488 0
M  V30 926 H 84.8376 -1.76197 -0.51252 0
M  V30 927 H 83.2196 -2.57142 -3.01154 0
M  V30 928 H 84.3936 -4.51608 -0.915774 0
M  V30 929 H 82.7086 -4.04656 -0.981977 0
M  V30 930 H 85.3056 -3.80851 -3.75308 0
M  V30 931 H 85.6486 -2.10356 -3.59244 0
M  V30 932 H 86.1816 -3.2305 -2.32128 0
M  V30 933 H 82.9206 -6.21796 -2.07485 0
M  V30 934 H 82.4406 -5.01359 -3.2924 0
M  V30 935 H 84.1196 -5.6049 -3.23202 0
M  V30 936 N 84.2517 0.741722 -1.39055 0
M  V30 937 C 85.1987 1.85566 -1.37237 0
M  V30 938 C 86.1687 1.64457 -0.233072 0
M  V30 939 O 87.3537 1.85957 -0.427147 0
M  V30 940 C 84.4937 3.23004 -1.215 0
M  V30 941 C 83.6067 3.55864 -2.44918 0
M  V30 942 C 82.7417 4.82669 -2.21821 0
M  V30 943 C 81.7807 5.08351 -3.40948 0
M  V30 944 N 80.9177 6.26356 -3.17211 0
M  V30 945 H 85.7577 1.86455 -2.32462 0
M  V30 946 H 83.2947 0.911176 -1.15482 0
M  V30 947 H 85.2527 4.02331 -1.10389 0
M  V30 948 H 83.8827 3.21411 -0.29908 0
M  V30 949 H 82.9347 2.7129 -2.66657 0
M  V30 950 H 84.2467 3.70765 -3.33668 0
M  V30 951 H 83.4007 5.69962 -2.07914 0
M  V30 952 H 82.1397 4.69929 -1.30454 0
M  V30 953 H 81.1447 4.19522 -3.55361 0
M  V30 954 H 82.3697 5.22981 -4.33207 0
M  V30 955 H 80.3157 6.14917 -2.28502 0
M  V30 956 H 80.2327 6.41813 -3.99515 0
M  V30 957 H 81.5007 7.16506 -3.06984 0
M  V30 958 N 85.7298 1.2412 0.971189 0
M  V30 959 C 86.9548 1.10667 1.75407 0
M  V30 960 C 87.3798 -0.337048 1.85056 0
M  V30 961 O 86.7378 -1.24396 1.31892 0
M  V30 962 C 86.7858 1.74726 3.15441 0
M  V30 963 O 85.8898 1.01566 3.99697 0
M  V30 964 H 85.2308 0.387341 0.539317 0
M  V30 965 H 87.7608 1.64358 1.2185 0
M  V30 966 H 87.7708 1.80341 3.6598 0
M  V30 967 H 86.4458 2.79773 3.07734 0
M  V30 968 H 85.0228 1.03713 3.58187 0
M  V30 969 N 87.2079 -1.17134 1.05439 0
M  V30 970 C 88.1179 -2.24878 0.668365 0
M  V30 971 C 89.1339 -1.71186 -0.311687 0
M  V30 972 O 90.3099 -2.00738 -0.163161 0
M  V30 973 C 87.3749 -3.46662 0.051648 0
M  V30 974 C 86.4359 -4.15429 1.08246 0
M  V30 975 C 85.6689 -5.31399 0.495082 0
M  V30 976 O 85.8919 -5.66153 -0.694743 0
M  V30 977 O 84.8259 -5.89187 1.23056 0
M  V30 978 H 88.6519 -2.60189 1.56637 0
M  V30 979 H 86.2369 -1.24482 0.826104 0
M  V30 980 H 88.1189 -4.20394 -0.290966 0
M  V30 981 H 86.7939 -3.13142 -0.819971 0
M  V30 982 H 85.7009 -3.43704 1.47711 0
M  V30 983 H 87.0339 -4.52982 1.92532 0
M  V30 984 N 88.686 -0.835752 -1.33615 0
M  V30 985 C 89.616 -0.281739 -2.31794 0
M  V30 986 C 90.597 0.608833 -1.58831 0
M  V30 987 O 91.782 0.533035 -1.86741 0
M  V30 988 C 88.912 0.546612 -3.42971 0
M  V30 989 C 87.866 -0.247904 -4.27281 0
M  V30 990 C 87.192 0.704001 -5.30045 0
M  V30 991 C 88.492 -1.46324 -5.01385 0
M  V30 992 H 90.186 -1.10206 -2.78379 0
M  V30 993 H 87.732 -0.531388 -1.33837 0
M  V30 994 H 89.685 0.944467 -4.1068 0
M  V30 995 H 88.409 1.40011 -2.95067 0
M  V30 996 H 87.068 -0.627281 -3.61194 0
M  V30 997 H 86.716 1.55381 -4.78399 0
M  V30 998 H 86.416 0.176524 -5.87335 0
M  V30 999 H 87.94 1.09944 -6.0062 0
M  V30 1000 H 89.354 -1.13871 -5.61877 0
M  V30 1001 H 87.751 -1.92728 -5.6831 0
M  V30 1002 H 88.821 -2.23467 -4.30338 0
M  V30 1003 N 90.1641 1.46063 -0.591896 0
M  V30 1004 C 91.0941 2.33172 0.123673 0
M  V30 1005 C 92.0751 1.45897 0.87453 0
M  V30 1006 O 93.2601 1.74698 0.848181 0
M  V30 1007 C 90.3901 3.28336 1.13194 0
M  V30 1008 C 89.3441 4.25124 0.495324 0
M  V30 1009 C 88.6701 5.09863 1.61071 0
M  V30 1010 C 89.9701 5.19143 -0.573425 0
M  V30 1011 H 91.6641 2.93252 -0.603646 0
M  V30 1012 H 89.2101 1.41014 -0.291741 0
M  V30 1013 H 91.1631 3.88137 1.64097 0
M  V30 1014 H 89.8871 2.66383 1.88965 0
M  V30 1015 H 88.5461 3.66599 0.00729452 0
M  V30 1016 H 88.1941 4.44288 2.35832 0
M  V30 1017 H 87.8941 5.75417 1.19035 0
M  V30 1018 H 89.4181 5.72529 2.12233 0
M  V30 1019 H 90.8321 5.73106 -0.1491 0
M  V30 1020 H 89.2291 5.93089 -0.914636 0
M  V30 1021 H 90.2991 4.62519 -1.45617 0
M  V30 1022 N 91.6422 0.330177 1.54103 0
M  V30 1023 C 92.8882 -0.263542 2.01685 0
M  V30 1024 C 93.2432 -1.49258 1.21408 0
M  V30 1025 O 92.5362 -1.89395 0.289852 0
M  V30 1026 C 92.7302 -0.643134 3.51566 0
M  V30 1027 C 92.5592 0.547571 4.46354 0
M  V30 1028 C 91.3292 1.04873 4.94297 0
M  V30 1029 C 93.5272 1.40184 4.94826 0
M  V30 1030 N 91.5092 2.20316 5.73005 0
M  V30 1031 C 92.8802 2.40335 5.71524 0
M  V30 1032 C 94.9352 1.42884 4.76958 0
M  V30 1033 C 93.6382 3.42998 6.32254 0
M  V30 1034 C 95.6642 2.44421 5.38528 0
M  V30 1035 C 95.0262 3.43298 6.15082 0
M  V30 1036 H 91.1252 -0.0601026 0.779687 0
M  V30 1037 H 93.7092 0.466714 1.89023 0
M  V30 1038 H 91.8802 -1.34251 3.6446 0
M  V30 1039 H 93.6122 -1.21889 3.85908 0
M  V30 1040 H 90.3672 0.618956 4.69538 0
M  V30 1041 H 90.7912 2.78565 6.17034 0
M  V30 1042 H 95.4332 0.678049 4.17328 0
M  V30 1043 H 93.1512 4.1898 6.91 0
M  V30 1044 H 96.7372 2.4732 5.26616 0
M  V30 1045 H 95.6172 4.20579 6.61878 0
M  V30 1046 N 93.1203 -1.57491 0.0584922 0
M  V30 1047 C 94.3673 -1.92978 -0.613648 0
M  V30 1048 C 94.6953 -0.937461 -1.70417 0
M  V30 1049 O 93.9503 0.049078 -1.95638 0
M  V30 1050 C 94.2493 -3.3513 -1.24188 0
M  V30 1051 C 93.9153 -4.50037 -0.278826 0
M  V30 1052 C 92.5773 -4.81198 -0.0138447 0
M  V30 1053 C 94.9293 -5.19807 0.380777 0
M  V30 1054 C 92.2573 -5.79473 0.918052 0
M  V30 1055 C 94.6093 -6.19079 1.30091 0
M  V30 1056 C 93.2733 -6.48665 1.57449 0
M  V30 1057 H 92.5433 -0.706157 -0.22455 0
M  V30 1058 H 95.1903 -1.91082 0.126533 0
M  V30 1059 H 93.4953 -3.33429 -2.05749 0
M  V30 1060 H 95.1923 -3.59871 -1.769 0
M  V30 1061 H 91.7823 -4.25726 -0.495539 0
M  V30 1062 H 95.9663 -4.95939 0.189158 0
M  V30 1063 H 91.2223 -6.00727 1.1374 0
M  V30 1064 H 95.3963 -6.7225 1.81804 0
M  V30 1065 H 93.0233 -7.24628 2.29822 0
M  V30 1066 N 94.5984 0.214957 -1.56127 0
M  V30 1067 C 95.5284 1.2695 -1.95974 0
M  V30 1068 C 96.5094 1.48539 -0.828868 0
M  V30 1069 O 97.6944 1.60611 -1.09168 0
M  V30 1070 C 94.8244 2.61794 -2.28214 0
M  V30 1071 C 93.7784 2.54851 -3.43853 0
M  V30 1072 C 93.1044 3.93785 -3.61715 0
M  V30 1073 C 94.4044 2.09065 -4.78632 0
M  V30 1074 H 96.0984 0.93846 -2.84312 0
M  V30 1075 H 93.6444 0.449996 -1.36788 0
M  V30 1076 H 95.5974 3.35731 -2.54682 0
M  V30 1077 H 94.3214 2.96599 -1.36736 0
M  V30 1078 H 92.9804 1.8337 -3.17444 0
M  V30 1079 H 92.6284 4.25908 -2.67602 0
M  V30 1080 H 92.3284 3.90019 -4.39498 0
M  V30 1081 H 93.8524 4.69374 -3.90539 0
M  V30 1082 H 95.2664 2.7275 -5.04262 0
M  V30 1083 H 93.6634 2.16346 -5.59745 0
M  V30 1084 H 94.7334 1.04315 -4.73547 0
M  V30 1085 N 96.0765 1.50051 0.48192 0
M  V30 1086 C 97.0265 1.64512 1.5786 0
M  V30 1087 C 98.0105 0.500073 1.52932 0
M  V30 1088 O 99.2025 0.753964 1.60139 0
M  V30 1089 C 96.3315 1.73263 2.9637 0
M  V30 1090 C 95.4175 2.93409 3.06222 0
M  V30 1091 N 95.8085 4.17236 2.85915 0
M  V30 1092 C 94.1065 2.91742 3.37346 0
M  V30 1093 C 94.8075 4.981 3.00451 0
M  V30 1094 N 93.7835 4.3184 3.30174 0
M  V30 1095 H 97.5855 2.57955 1.40842 0
M  V30 1096 H 95.0995 1.47086 0.688439 0
M  V30 1097 H 97.0965 1.81724 3.75209 0
M  V30 1098 H 95.7565 0.809711 3.14442 0
M  V30 1099 H 96.7675 4.46909 2.6171 0
M  V30 1100 H 93.4445 2.08907 3.61475 0
M  V30 1101 H 94.8345 6.06532 2.89082 0
M  V30 1102 N 97.5546 -0.734337 1.39446 0
M  V30 1103 C 98.8026 -1.49096 1.36436 0
M  V30 1104 C 99.1236 -1.94961 -0.0388255 0
M  V30 1105 O 98.3936 -1.69033 -0.990191 0
M  V30 1106 H 96.9736 -0.5531 0.502085 0
M  V30 1107 H 99.6356 -0.871725 1.74319 0
M  V30 1108 H 98.7316 -2.37276 2.02747 0
M  V30 1109 N 99.0327 -1.24633 -0.964593 0
M  V30 1110 C 100.31 -0.995809 -1.68354 0
M  V30 1111 C 100.69 0.480964 -2.05548 0
M  V30 1112 O 100.038 1.45599 -1.76105 0
M  V30 1113 C 100.248 -1.92177 -2.91323 0
M  V30 1114 C 101.596 -2.19446 -3.63495 0
M  V30 1115 O 102.62 -1.89855 -3.01386 0
M  V30 1116 O 101.479 -2.69714 -4.75307 0
M  V30 1117 H 98.5727 -0.376854 -0.736146 0
M  V30 1118 H 101.119 -1.35745 -1.0184 0
M  V30 1119 H 99.8907 -2.91938 -2.60553 0
M  V30 1120 H 99.5137 -1.56349 -3.65569 0
M  V30 1121 N 100.511 1.16574 -1.06058 0
M  V30 1122 C 101.739 1.90952 -0.796552 0
M  V30 1123 C 102.154 1.77302 0.648808 0
M  V30 1124 O 101.511 1.11605 1.44397 0
M  V30 1125 C 101.562 3.41736 -1.17894 0
M  V30 1126 O 101.283 3.54975 -2.56758 0
M  V30 1127 C 102.784 4.33169 -0.942308 0
M  V30 1128 H 100.004 0.605594 -0.288959 0
M  V30 1129 H 102.548 1.47777 -1.41358 0
M  V30 1130 H 100.703 3.82623 -0.606491 0
M  V30 1131 H 101.117 4.4846 -2.72 0
M  V30 1132 H 102.591 5.37439 -1.25952 0
M  V30 1133 H 103.068 4.3903 0.122078 0
M  V30 1134 H 103.674 3.98007 -1.49902 0
M  V30 1135 N 101.989 0.842826 1.3317 0
M  V30 1136 C 102.937 0.267495 2.31057 0
M  V30 1137 C 103.931 -0.602682 1.58316 0
M  V30 1138 O 105.137 -0.491803 1.73151 0
M  V30 1139 H 101.512 0.0677813 0.748939 0
M  V30 1140 H 103.483 1.10754 2.77085 0
M  V30 1141 C 102.232 -0.539331 3.43492 0
M  V30 1142 H 101.555 0.12095 3.99617 0
M  V30 1143 H 102.995 -0.90767 4.14171 0
M  V30 1144 C 101.454 -1.71981 2.89697 0
M  V30 1145 O 101.984 -2.81862 2.86211 0
M  V30 1146 N 100.19 -1.54299 2.46252 0
M  V30 1147 H 99.7369 -0.649143 2.49287 0
M  V30 1148 H 99.6949 -2.33431 2.10612 0
M  V30 1149 N 103.467 -1.45747 0.599634 0
M  V30 1150 C 104.716 -2.01502 0.0893511 0
M  V30 1151 C 105.029 -1.4748 -1.28488 0
M  V30 1152 O 106.235 -1.95161 -1.88745 0
M  V30 1153 C 104.691 -3.59735 0.109082 0
M  V30 1154 C 104.299 -4.22754 1.48267 0
M  V30 1155 C 106.043 -4.23085 -0.346374 0
M  V30 1156 C 103.95 -5.73115 1.45921 0
M  V30 1157 H 102.88 -0.753417 0.0296347 0
M  V30 1158 H 105.531 -1.67303 0.753788 0
M  V30 1159 H 103.913 -3.91087 -0.621854 0
M  V30 1160 H 105.087 -4.02987 2.23468 0
M  V30 1161 H 103.402 -3.71567 1.87955 0
M  V30 1162 H 105.999 -5.33327 -0.38298 0
M  V30 1163 H 106.342 -3.93201 -1.36743 0
M  V30 1164 H 106.875 -3.9642 0.331038 0
M  V30 1165 H 103.614 -6.07685 2.45762 0
M  V30 1166 H 103.134 -5.95097 0.749665 0
M  V30 1167 H 104.813 -6.3616 1.17941 0
M  V30 1168 N 104.945 -0.338344 -1.53925 0
M  V30 1169 C 106.361 0.0137736 -1.59594 0
M  V30 1170 C 106.561 1.49186 -1.35447 0
M  V30 1171 O 105.617 2.24987 -1.14616 0
M  V30 1172 C 106.93 -0.41773 -2.97784 0
M  V30 1173 C 108.478 -0.369633 -3.1081 0
M  V30 1174 C 108.953 -0.776524 -4.51369 0
M  V30 1175 N 110.444 -0.730506 -4.57403 0
M  V30 1176 C 111.179 -1.01736 -5.64303 0
M  V30 1177 N 110.675 -1.3721 -6.79077 0
M  V30 1178 N 112.468 -0.941942 -5.54151 0
M  V30 1179 H 104.619 -1.3012 -1.67876 0
M  V30 1180 H 106.882 -0.530082 -0.78595 0
M  V30 1181 H 106.588 -1.44811 -3.20504 0
M  V30 1182 H 106.462 0.209729 -3.76616 0
M  V30 1183 H 108.849 0.651568 -2.87817 0
M  V30 1184 H 108.93 -1.03223 -2.34049 0
M  V30 1185 H 108.574 -1.79571 -4.75096 0
M  V30 1186 H 108.504 -0.0914649 -5.26521 0
M  V30 1187 H 110.995 -0.468783 -3.74981 0
M  V30 1188 H 111.308 -1.57597 -7.5656 0
M  V30 1189 H 109.653 -1.4105 -6.80536 0
M  V30 1190 H 112.844 -0.664184 -4.63364 0
M  V30 1191 H 113.017 -1.16884 -6.37371 0
M  V30 1192 N 106.423 1.57458 -0.0668435 0
M  V30 1193 C 107.67 1.93301 0.603406 0
M  V30 1194 C 107.998 0.946486 1.69917 0
M  V30 1195 O 107.253 -0.0387021 1.95662 0
M  V30 1196 C 107.552 3.35784 1.22409 0
M  V30 1197 C 107.218 4.50179 0.254955 0
M  V30 1198 C 105.88 4.81199 -0.0116746 0
M  V30 1199 C 108.232 5.19598 -0.408338 0
M  V30 1200 C 105.56 5.78978 -0.94877 0
M  V30 1201 C 107.912 6.18381 -1.33372 0
M  V30 1202 C 106.576 6.47821 -1.60887 0
M  V30 1203 H 105.846 0.707338 0.220802 0
M  V30 1204 H 108.493 1.91012 -0.136665 0
M  V30 1205 H 106.798 3.34515 2.03978 0
M  V30 1206 H 108.495 3.60804 1.74989 0
M  V30 1207 H 105.085 4.25983 0.472954 0
M  V30 1208 H 109.269 4.95832 -0.215456 0
M  V30 1209 H 104.525 6.00115 -1.16925 0
M  V30 1210 H 108.699 6.71277 -1.85367 0
M  V30 1211 H 106.326 7.23399 -2.33661 0
M  V30 1212 N 107.901 -0.206675 1.56239 0
M  V30 1213 C 108.831 -1.25909 1.96645 0
M  V30 1214 C 109.812 -1.48097 0.836734 0
M  V30 1215 O 110.997 -1.6003 1.10019 0
M  V30 1216 C 108.127 -2.6058 2.29599 0
M  V30 1217 C 107.081 -2.53024 3.452 0
M  V30 1218 C 106.407 -3.91861 3.63798 0
M  V30 1219 C 107.707 -2.06524 4.79734 0
M  V30 1220 H 109.401 -0.923369 2.84806 0
M  V30 1221 H 106.947 -0.442735 1.37025 0
M  V30 1222 H 108.9 -3.34375 2.56459 0
M  V30 1223 H 107.624 -2.95869 1.38307 0
M  V30 1224 H 106.283 -1.81684 3.18412 0
M  V30 1225 H 105.931 -4.24483 2.69857 0
M  V30 1226 H 105.631 -3.87683 4.4156 0
M  V30 1227 H 107.155 -4.67296 3.93022 0
M  V30 1228 H 108.569 -2.70072 5.05702 0
M  V30 1229 H 106.966 -2.13374 5.60885 0
M  V30 1230 H 108.036 -1.01802 4.74093 0
M  V30 1231 N 109.379 -1.50304 -0.473955 0
M  V30 1232 C 110.309 -1.71886 -1.58042 0
M  V30 1233 C 111.29 -0.567799 -1.60344 0
M  V30 1234 O 112.475 -0.806623 -1.76656 0
M  V30 1235 C 109.605 -1.81036 -2.96384 0
M  V30 1236 C 108.559 -2.962 -3.08949 0
M  V30 1237 C 107.885 -2.9049 -4.48909 0
M  V30 1238 C 109.185 -4.36752 -2.86434 0
M  V30 1239 H 110.879 -2.64527 -1.40234 0
M  V30 1240 H 108.425 -1.27295 -0.673201 0
M  V30 1241 H 110.378 -1.94719 -3.73714 0
M  V30 1242 H 109.102 -0.850147 -3.15341 0
M  V30 1243 H 107.761 -2.82164 -2.3405 0
M  V30 1244 H 107.409 -1.92321 -4.64781 0
M  V30 1245 H 107.109 -3.67802 -4.58253 0
M  V30 1246 H 108.633 -3.06218 -5.28264 0
M  V30 1247 H 110.047 -4.5133 -3.53517 0
M  V30 1248 H 108.444 -5.15493 -3.07225 0
M  V30 1249 H 109.514 -4.49321 -1.82316 0
M  V30 1250 N 110.857 0.726932 -1.39834 0
M  V30 1251 C 111.789 1.85147 -1.35104 0
M  V30 1252 C 112.802 1.60736 -0.258392 0
M  V30 1253 O 113.991 1.70821 -0.517931 0
M  V30 1254 C 111.091 3.21332 -1.07697 0
M  V30 1255 C 110.264 3.73033 -2.28396 0
M  V30 1256 C 109.323 4.87802 -1.97322 0
M  V30 1257 O 108.349 5.01043 -2.70083 0
M  V30 1258 N 109.551 5.72768 -0.944273 0
M  V30 1259 H 112.316 1.89706 -2.32017 0
M  V30 1260 H 109.877 0.908006 -1.3404 0
M  V30 1261 H 111.869 3.95691 -0.849144 0
M  V30 1262 H 110.439 3.11992 -0.194909 0
M  V30 1263 H 109.659 2.89934 -2.6708 0
M  V30 1264 H 110.947 4.0431 -3.08887 0
M  V30 1265 H 110.345 5.64669 -0.341427 0
M  V30 1266 H 108.902 6.4716 -0.776346 0
M  V30 1267 N 112.336 1.25143 0.95797 0
M  V30 1268 C 113.286 1.01924 2.0395 0
M  V30 1269 C 114.27 -0.0427175 1.60843 0
M  V30 1270 O 115.462 0.17221 1.7616 0
M  V30 1271 C 112.591 0.636373 3.3735 0
M  V30 1272 C 111.677 1.73492 3.8699 0
M  V30 1273 N 112.068 2.96945 4.0946 0
M  V30 1274 C 110.366 1.61467 4.15746 0
M  V30 1275 C 111.067 3.68228 4.50315 0
M  V30 1276 N 110.043 2.95833 4.56053 0
M  V30 1277 H 113.845 1.95653 2.19311 0
M  V30 1278 H 111.359 1.15413 1.14253 0
M  V30 1279 H 113.356 0.451233 4.14451 0
M  V30 1280 H 112.016 -0.293621 3.2337 0
M  V30 1281 H 113.027 3.33025 3.96629 0
M  V30 1282 H 109.704 0.753394 4.10646 0
M  V30 1283 H 111.094 4.74178 4.76031 0
M  V30 1284 N 113.814 -1.1601 1.06675 0
M  V30 1285 C 115.23 -1.38622 0.790948 0
M  V30 1286 C 115.43 -1.92109 -0.607965 0
M  V30 1287 O 114.486 -2.12239 -1.36787 0
M  V30 1288 C 115.799 -2.36347 1.85905 0
M  V30 1289 C 117.347 -2.50023 1.88301 0
M  V30 1290 C 117.822 -3.51033 2.94176 0
M  V30 1291 N 119.313 -3.58563 2.93235 0
M  V30 1292 C 120.048 -4.36521 3.71803 0
M  V30 1293 N 119.544 -5.17869 4.602 0
M  V30 1294 N 121.337 -4.31541 3.60178 0
M  V30 1295 H 113.488 -0.796294 1.96908 0
M  V30 1296 H 115.751 -0.412597 0.853503 0
M  V30 1297 H 115.457 -2.04147 2.86386 0
M  V30 1298 H 115.331 -3.36042 1.71334 0
M  V30 1299 H 117.718 -2.81524 0.884769 0
M  V30 1300 H 117.799 -1.5035 2.06951 0
M  V30 1301 H 117.443 -3.20268 3.94196 0
M  V30 1302 H 117.373 -4.50445 2.72776 0
M  V30 1303 H 119.864 -3.00496 2.29152 0
M  V30 1304 H 120.177 -5.74578 5.16797 0
M  V30 1305 H 118.522 -5.17199 4.64253 0
M  V30 1306 H 121.713 -3.67051 2.90502 0
M  V30 1307 H 121.886 -4.9205 4.21653 0
M  V30 1308 N 115.292 -0.849877 -1.32721 0
M  V30 1309 C 116.24 -0.279745 -2.30912 0
M  V30 1310 C 117.234 0.594278 -1.58634 0
M  V30 1311 O 118.44 0.482613 -1.73409 0
M  V30 1312 H 114.815 -0.0717521 -0.748569 0
M  V30 1313 H 116.786 -1.12222 -2.76494 0
M  V30 1314 C 115.535 0.521108 -3.43773 0
M  V30 1315 H 114.858 -0.142141 -3.99547 0
M  V30 1316 H 116.298 0.885693 -4.14646 0
M  V30 1317 C 114.757 1.70442 -2.90605 0
M  V30 1318 O 115.287 2.8034 -2.87702 0
M  V30 1319 N 113.493 1.52991 -2.47067 0
M  V30 1320 H 113.04 0.635914 -2.49628 0
M  V30 1321 H 112.998 2.32311 -2.11847 0
M  V30 1322 N 116.77 1.45427 -0.607355 0
M  V30 1323 C 117.72 2.27612 0.133038 0
M  V30 1324 C 118.704 1.37307 0.838785 0
M  V30 1325 O 119.896 1.61299 0.728813 0
M  V30 1326 C 117.025 3.24173 1.12991 0
M  V30 1327 C 116.111 4.21965 0.425011 0
M  V30 1328 N 116.502 5.02982 -0.533217 0
M  V30 1329 C 114.8 4.40899 0.672593 0
M  V30 1330 C 115.501 5.73931 -0.947518 0
M  V30 1331 N 114.477 5.42819 -0.291321 0
M  V30 1332 H 118.279 2.87649 -0.602935 0
M  V30 1333 H 115.793 1.56576 -0.431006 0
M  V30 1334 H 117.79 3.81783 1.67473 0
M  V30 1335 H 116.45 2.65696 1.86644 0
M  V30 1336 H 117.461 5.09843 -0.90995 0
M  V30 1337 H 114.138 3.93547 1.39382 0
M  V30 1338 H 115.528 6.49037 -1.73782 0
M  V30 1339 N 118.248 0.346503 1.53744 0
M  V30 1340 C 119.497 -0.250122 2.00143 0
M  V30 1341 C 119.81 -1.51418 1.23822 0
M  V30 1342 O 121.016 -2.18823 1.60713 0
M  V30 1343 C 119.472 -0.496252 3.56462 0
M  V30 1344 C 119.08 0.752077 4.41642 0
M  V30 1345 C 120.824 -1.05157 4.11269 0
M  V30 1346 C 118.731 0.476583 5.89477 0
M  V30 1347 H 117.661 -0.0972409 0.747703 0
M  V30 1348 H 120.312 0.46229 1.77581 0
M  V30 1349 H 118.694 -1.26944 3.75102 0
M  V30 1350 H 119.868 1.5266 4.34778 0
M  V30 1351 H 118.183 1.22925 3.97842 0
M  V30 1352 H 120.78 -1.27269 5.19333 0
M  V30 1353 H 121.123 -2.00799 3.64672 0
M  V30 1354 H 121.656 -0.339019 3.96353 0
M  V30 1355 H 118.395 1.4028 6.40314 0
M  V30 1356 H 117.915 -0.259794 5.99237 0
M  V30 1357 H 119.594 0.0949315 6.4693 0
M  V30 1358 N 119.726 -1.57421 0.075193 0
M  V30 1359 C 120.972 -1.94716 -0.587998 0
M  V30 1360 C 121.327 -0.955205 -1.67014 0
M  V30 1361 O 120.62 0.0219842 -1.91587 0
M  V30 1362 C 120.814 -3.36428 -1.20626 0
M  V30 1363 C 120.643 -4.49317 -0.185541 0
M  V30 1364 C 119.413 -5.04772 0.23099 0
M  V30 1365 C 121.611 -5.11036 0.57854 0
M  V30 1366 N 119.593 -6.01204 1.24206 0
M  V30 1367 C 120.964 -6.02998 1.44199 0
M  V30 1368 C 123.019 -4.93844 0.634237 0
M  V30 1369 C 121.722 -6.79614 2.3562 0
M  V30 1370 C 123.748 -5.71106 1.53597 0
M  V30 1371 C 123.11 -6.6272 2.38709 0
M  V30 1372 H 119.209 -0.759536 -0.186089 0
M  V30 1373 H 121.793 -1.94097 0.153128 0
M  V30 1374 H 119.964 -3.37778 -1.9173 0
M  V30 1375 H 121.696 -3.60951 -1.8302 0
M  V30 1376 H 118.451 -4.73353 -0.152807 0
M  V30 1377 H 118.875 -6.54119 1.74521 0
M  V30 1378 H 123.517 -4.22799 -0.00960004 0
M  V30 1379 H 121.235 -7.49934 3.01038 0
M  V30 1380 H 124.821 -5.59824 1.58394 0
M  V30 1381 H 123.701 -7.2146 3.07352 0
M  V30 1382 N 121.204 0.198386 -1.56346 0
M  V30 1383 C 122.481 0.944982 -1.71258 0
M  V30 1384 C 122.861 2.0151 -0.629048 0
M  V30 1385 O 122.209 2.25639 0.360473 0
M  V30 1386 C 122.419 1.5344 -3.1346 0
M  V30 1387 C 123.767 2.01778 -3.73591 0
M  V30 1388 O 124.791 1.63288 -3.16568 0
M  V30 1389 O 123.65 2.72594 -4.73661 0
M  V30 1390 H 120.744 0.442939 -0.69838 0
M  V30 1391 H 123.29 0.188342 -1.68652 0
M  V30 1392 H 122.062 0.762869 -3.83792 0
M  V30 1393 H 121.685 2.35596 -3.20282 0
M  V30 1394 N 122.682 1.50554 0.465978 0
M  V30 1395 C 123.592 1.72585 1.58907 0
M  V30 1396 C 124.608 0.60911 1.6299 0
M  V30 1397 O 125.784 0.88804 1.80765 0
M  V30 1398 C 122.849 1.81995 2.95091 0
M  V30 1399 C 121.91 3.05751 3.01355 0
M  V30 1400 C 121.143 3.14702 4.31043 0
M  V30 1401 O 121.366 2.30313 5.21835 0
M  V30 1402 O 120.3 4.07468 4.43005 0
M  V30 1403 H 124.126 2.67799 1.43239 0
M  V30 1404 H 121.711 1.34711 0.646013 0
M  V30 1405 H 123.593 1.90335 3.75966 0
M  V30 1406 H 122.268 0.899659 3.10947 0
M  V30 1407 H 121.175 3.02908 2.19539 0
M  V30 1408 H 122.508 3.97375 2.90437 0
M  V30 1409 N 124.16 -0.719506 1.40217 0
M  V30 1410 C 125.406 -1.48034 1.39491 0
M  V30 1411 C 125.761 -1.92399 -0.00443536 0
M  V30 1412 O 125.054 -1.64993 -0.974061 0
M  V30 1413 C 125.248 -2.72271 2.31524 0
M  V30 1414 C 125.077 -2.40055 3.80268 0
M  V30 1415 C 123.847 -2.31588 4.49105 0
M  V30 1416 C 126.045 -2.04581 4.71859 0
M  V30 1417 N 124.027 -1.92006 5.83101 0
M  V30 1418 C 125.398 -1.75568 5.94623 0
M  V30 1419 C 127.453 -1.91183 4.59732 0
M  V30 1420 C 126.156 -1.34505 7.06612 0
M  V30 1421 C 128.182 -1.51524 5.71659 0
M  V30 1422 C 127.544 -1.23406 6.93506 0
M  V30 1423 H 123.643 -0.539927 0.565688 0
M  V30 1424 H 126.227 -0.834764 1.75897 0
M  V30 1425 H 124.398 -3.34584 1.97251 0
M  V30 1426 H 126.13 -3.38584 2.21682 0
M  V30 1427 H 122.885 -2.49199 4.02737 0
M  V30 1428 H 123.309 -1.74764 6.54054 0
M  V30 1429 H 127.951 -2.11584 3.66049 0
M  V30 1430 H 125.669 -1.12846 8.00182 0
M  V30 1431 H 129.255 -1.41741 5.6427 0
M  V30 1432 H 128.135 -0.931788 7.78645 0
M  V30 1433 N 125.638 -1.25649 -0.95132 0
M  V30 1434 C 126.601 -1.06399 -2.03007 0
M  V30 1435 C 127.601 -0.0156794 -1.60792 0
M  V30 1436 O 128.791 -0.25817 -1.72276 0
M  V30 1437 C 125.923 -0.616184 -3.35285 0
M  V30 1438 H 127.116 -2.02164 -2.21517 0
M  V30 1439 H 124.669 -1.08103 -1.12887 0
M  V30 1440 H 125.404 0.343917 -3.22471 0
M  V30 1441 H 125.189 -1.37301 -3.67275 0
M  V30 1442 H 126.679 -0.503032 -4.14559 0
M  V30 1443 N 127.117 1.15442 -1.07289 0
M  V30 1444 C 128.364 1.86213 -0.795668 0
M  V30 1445 C 128.692 1.82291 0.678238 0
M  V30 1446 O 127.947 1.24057 1.51355 0
M  V30 1447 C 128.246 3.3489 -1.24834 0
M  V30 1448 C 127.912 3.59007 -2.72809 0
M  V30 1449 C 126.574 3.65298 -3.13227 0
M  V30 1450 C 128.926 3.68762 -3.68326 0
M  V30 1451 C 126.254 3.78854 -4.4798 0
M  V30 1452 C 128.606 3.83842 -5.0284 0
M  V30 1453 C 127.27 3.88378 -5.4288 0
M  V30 1454 H 126.54 0.681403 -0.291155 0
M  V30 1455 H 129.187 1.36435 -1.34379 0
M  V30 1456 H 127.492 3.8687 -0.619595 0
M  V30 1457 H 129.189 3.88052 -1.01076 0
M  V30 1458 H 125.779 3.5475 -2.40521 0
M  V30 1459 H 129.963 3.63202 -3.38227 0
M  V30 1460 H 125.219 3.80623 -4.78472 0
M  V30 1461 H 129.393 3.90332 -5.76727 0
M  V30 1462 H 127.02 3.98635 -6.47298 0
M  V30 1463 N 128.595 0.856903 1.32268 0
M  V30 1464 C 129.505 0.306131 2.32594 0
M  V30 1465 C 130.521 -0.577209 1.64147 0
M  V30 1466 O 131.697 -0.477043 1.95669 0
M  V30 1467 C 128.762 -0.494561 3.43154 0
M  V30 1468 C 127.823 0.415186 4.27288 0
M  V30 1469 C 127.056 -0.347387 5.32568 0
M  V30 1470 O 127.279 -1.57708 5.48165 0
M  V30 1471 O 126.213 0.287982 6.01211 0
M  V30 1472 H 130.039 1.13737 2.81598 0
M  V30 1473 H 127.624 0.619902 1.35932 0
M  V30 1474 H 129.506 -0.948944 4.10576 0
M  V30 1475 H 128.181 -1.30257 2.96336 0
M  V30 1476 H 127.088 0.917793 3.62667 0
M  V30 1477 H 128.421 1.18844 4.77637 0
M  V30 1478 N 130.073 -1.45103 0.615059 0
M  V30 1479 C 131.02 -2.30586 -0.0993978 0
M  V30 1480 C 131.99 -1.42544 -0.852669 0
M  V30 1481 O 133.175 -1.71465 -0.836917 0
M  V30 1482 C 130.315 -3.27572 -1.08583 0
M  V30 1483 C 129.428 -4.30717 -0.332656 0
M  V30 1484 C 128.563 -5.14807 -1.30947 0
M  V30 1485 C 127.602 -6.09673 -0.544538 0
M  V30 1486 N 126.739 -6.86517 -1.47101 0
M  V30 1487 H 131.579 -2.91144 0.635542 0
M  V30 1488 H 129.116 -1.4346 0.325206 0
M  V30 1489 H 131.074 -3.82276 -1.67095 0
M  V30 1490 H 129.704 -2.68751 -1.78809 0
M  V30 1491 H 128.756 -3.78615 0.368107 0
M  V30 1492 H 130.068 -4.98102 0.263842 0
M  V30 1493 H 129.222 -5.73948 -1.96643 0
M  V30 1494 H 127.961 -4.47458 -1.9399 0
M  V30 1495 H 126.966 -5.49656 0.126003 0
M  V30 1496 H 128.191 -6.79052 0.080947 0
M  V30 1497 H 126.137 -6.21851 -2.08895 0
M  V30 1498 H 126.054 -7.50281 -0.928137 0
M  V30 1499 H 127.322 -7.50194 -2.11731 0
M  V30 1500 N 131.551 -0.354651 -1.53558 0
M  V30 1501 C 132.797 0.231422 -2.02079 0
M  V30 1502 C 133.152 1.47308 -1.23767 0
M  V30 1503 O 132.445 1.8891 -0.319947 0
M  V30 1504 C 132.639 0.587121 -3.52545 0
M  V30 1505 C 132.468 -0.618513 -4.45426 0
M  V30 1506 C 131.238 -1.12724 -4.92566 0
M  V30 1507 C 133.436 -1.48039 -4.92533 0
M  V30 1508 N 131.418 -2.29404 -5.69427 0
M  V30 1509 C 132.789 -2.49397 -5.67628 0
M  V30 1510 C 134.844 -1.50454 -4.74624 0
M  V30 1511 C 133.547 -3.53013 -6.26717 0
M  V30 1512 C 135.573 -2.52958 -5.34571 0
M  V30 1513 C 134.935 -3.5304 -6.09543 0
M  V30 1514 H 131.034 0.0476909 -0.780544 0
M  V30 1515 H 133.618 -0.496727 -1.88257 0
M  V30 1516 H 131.789 1.28436 -3.6655 0
M  V30 1517 H 133.521 1.15734 -3.87799 0
M  V30 1518 H 130.276 -0.693577 -4.68494 0
M  V30 1519 H 130.7 -2.88347 -6.12524 0
M  V30 1520 H 135.342 -0.744356 -4.16196 0
M  V30 1521 H 133.06 -4.2992 -6.84247 0
M  V30 1522 H 136.646 -2.55667 -5.22614 0
M  V30 1523 H 135.526 -4.31056 -6.55103 0
M  V30 1524 N 133.029 1.57378 -0.0835403 0
M  V30 1525 C 134.275 1.94217 0.583733 0
M  V30 1526 C 134.608 0.964653 1.68547 0
M  V30 1527 O 133.883 -0.00422258 1.945 0
M  V30 1528 C 134.166 3.41253 1.14972 0
M  V30 1529 C 134.019 4.49768 0.0538277 0
M  V30 1530 C 135.338 3.89352 2.05166 0
M  V30 1531 H 132.457 0.706233 0.210724 0
M  V30 1532 H 135.099 1.89392 -0.1519 0
M  V30 1533 H 133.249 3.45496 1.77665 0
M  V30 1534 H 134.921 4.57641 -0.579851 0
M  V30 1535 H 133.164 4.29432 -0.614068 0
M  V30 1536 H 133.835 5.49817 0.490452 0
M  V30 1537 H 136.311 3.87189 1.52393 0
M  V30 1538 H 135.187 4.92822 2.41698 0
M  V30 1539 H 135.448 3.27973 2.96456 0
M  V30 1540 N 134.507 -0.190092 1.56449 0
M  V30 1541 C 135.454 -1.23557 1.94942 0
M  V30 1542 C 136.424 -1.44972 0.810696 0
M  V30 1543 O 137.609 -1.58023 1.06927 0
M  V30 1544 C 134.749 -2.57416 2.2985 0
M  V30 1545 C 133.862 -2.43537 3.5681 0
M  V30 1546 C 132.997 -3.70134 3.81017 0
M  V30 1547 C 132.036 -3.51109 5.01387 0
M  V30 1548 N 131.173 -4.6973 5.21822 0
M  V30 1549 H 136.013 -0.900304 2.84075 0
M  V30 1550 H 133.55 -0.43318 1.40577 0
M  V30 1551 H 135.508 -3.35409 2.48106 0
M  V30 1552 H 134.138 -2.88975 1.43852 0
M  V30 1553 H 133.19 -1.56816 3.46573 0
M  V30 1554 H 134.502 -2.25415 4.4496 0
M  V30 1555 H 133.656 -4.56566 3.9954 0
M  V30 1556 H 132.395 -3.91215 2.91207 0
M  V30 1557 H 131.4 -2.63063 4.82782 0
M  V30 1558 H 132.625 -3.31468 5.9271 0
M  V30 1559 H 130.571 -4.91065 4.34961 0
M  V30 1560 H 130.488 -4.54452 6.0416 0
M  V30 1561 H 131.756 -5.57499 5.44808 0
M  V30 1562 N 135.985 -1.50799 -0.457987 0
M  V30 1563 C 137.21 -1.66496 -1.23668 0
M  V30 1564 C 137.635 -0.353288 -1.84752 0
M  V30 1565 O 136.993 0.684346 -1.67888 0
M  V30 1566 C 137.041 -2.76763 -2.3116 0
M  V30 1567 O 136.145 -2.38928 -3.36136 0
M  V30 1568 H 135.486 -0.555828 -0.363252 0
M  V30 1569 H 138.016 -1.9725 -0.543474 0
M  V30 1570 H 138.026 -3.00232 -2.76269 0
M  V30 1571 H 136.701 -3.71954 -1.86073 0
M  V30 1572 H 135.278 -2.25953 -2.96647 0
M  V30 1573 N 137.463 0.71206 -1.40597 0
M  V30 1574 C 138.74 1.46536 -1.29563 0
M  V30 1575 C 139.12 2.10931 0.0844217 0
M  V30 1576 O 138.468 2.00418 1.0975 0
M  V30 1577 C 138.678 2.49821 -2.43701 0
M  V30 1578 C 140.026 3.15551 -2.841 0
M  V30 1579 O 141.05 2.60142 -2.4332 0
M  V30 1580 O 139.909 4.15867 -3.54566 0
M  V30 1581 H 137.003 0.651801 -0.509004 0
M  V30 1582 H 139.549 0.743935 -1.52524 0
M  V30 1583 H 138.321 2.00778 -3.35863 0
M  V30 1584 H 137.944 3.29495 -2.22528 0
M  V30 1585 N 138.941 1.26152 0.944643 0
M  V30 1586 C 139.851 1.09176 2.07648 0
M  V30 1587 C 140.867 0.0261935 1.7398 0
M  V30 1588 O 142.043 0.229208 2.00091 0
M  V30 1589 C 139.108 0.722915 3.39079 0
M  V30 1590 C 138.169 1.86752 3.86552 0
M  V30 1591 C 137.402 1.51617 5.11711 0
M  V30 1592 O 137.625 0.416331 5.68879 0
M  V30 1593 O 136.559 2.34975 5.54139 0
M  V30 1594 H 140.385 2.0412 2.24875 0
M  V30 1595 H 137.97 1.05182 1.061 0
M  V30 1596 H 139.852 0.529787 4.18056 0
M  V30 1597 H 138.527 -0.197159 3.23099 0
M  V30 1598 H 137.434 2.11558 3.08535 0
M  V30 1599 H 138.767 2.76719 4.07047 0
M  V30 1600 N 140.419 -1.14872 1.07899 0
M  V30 1601 C 141.649 -1.89386 0.825631 0
M  V30 1602 C 142.057 -1.78565 -0.625406 0
M  V30 1603 O 141.4 -1.13918 -1.44113 0
M  V30 1604 C 141.462 -3.40206 1.16191 0
M  V30 1605 C 141.126 -3.74812 2.61467 0
M  V30 1606 C 142.123 -3.75367 3.59716 0
M  V30 1607 C 139.808 -4.0495 2.97189 0
M  V30 1608 C 141.802 -4.05574 4.9172 0
M  V30 1609 C 139.489 -4.34821 4.29388 0
M  V30 1610 C 140.487 -4.35116 5.26463 0
M  V30 1611 O 140.175 -4.64267 6.56286 0
M  V30 1612 H 139.907 -0.606894 0.297751 0
M  V30 1613 H 142.461 -1.46438 1.44031 0
M  V30 1614 H 140.691 -3.8358 0.490214 0
M  V30 1615 H 142.38 -3.96018 0.890193 0
M  V30 1616 H 143.146 -3.52176 3.33462 0
M  V30 1617 H 139.025 -4.03876 2.22273 0
M  V30 1618 H 142.569 -4.05719 5.67484 0
M  V30 1619 H 138.466 -4.5748 4.55392 0
M  V30 1620 H 139.234 -4.82007 6.61522 0
M  V30 1621 N 141.898 -0.863906 -1.31812 0
M  V30 1622 C 142.848 -0.286898 -2.26188 0
M  V30 1623 C 143.832 0.572577 -1.50367 0
M  V30 1624 O 145.024 0.420447 -1.71934 0
M  V30 1625 C 142.153 0.515849 -3.39402 0
M  V30 1626 C 141.239 -0.356531 -4.22599 0
M  V30 1627 N 141.63 -1.44716 -4.84656 0
M  V30 1628 C 139.928 -0.147898 -4.45755 0
M  V30 1629 C 140.629 -1.98462 -5.46798 0
M  V30 1630 N 139.605 -1.28247 -5.28255 0
M  V30 1631 H 143.407 -1.12055 -2.717 0
M  V30 1632 H 140.921 -0.711012 -1.46008 0
M  V30 1633 H 142.918 0.945701 -4.06032 0
M  V30 1634 H 141.578 1.34718 -2.95434 0
M  V30 1635 H 142.589 -1.83008 -4.84488 0
M  V30 1636 H 139.266 0.647973 -4.12441 0
M  V30 1637 H 140.656 -2.89932 -6.06126 0
M  V30 1638 N 143.376 1.44774 -0.622745 0
M  V30 1639 C 144.624 2.01721 -0.123655 0
M  V30 1640 C 144.945 1.49172 1.25589 0
M  V30 1641 O 144.215 0.691974 1.83272 0
M  V30 1642 H 142.795 0.745777 -0.0427225 0
M  V30 1643 H 145.457 1.77382 -0.807559 0
M  V30 1644 H 144.553 3.11984 -0.0849534 0
M  V30 1645 N 144.854 0.36279 1.53368 0
M  V30 1646 C 146.265 -0.117022 1.86333 0
M  V30 1647 C 146.616 -1.48397 1.28347 0
M  V30 1648 O 145.741 -2.07787 0.604428 0
M  V30 1649 C 146.336 -0.21912 3.38091 0
M  V30 1650 C 144.895 -0.643184 3.70864 0
M  V30 1651 C 144.042 0.211318 2.76494 0
M  V30 1652 H 146.993 0.581687 1.47655 0
M  V30 1653 H 147.014 -1.04319 3.6592 0
M  V30 1654 H 146.526 0.775902 3.80265 0
M  V30 1655 H 144.627 -1.64654 3.34245 0
M  V30 1656 H 144.74 -0.41973 4.77258 0
M  V30 1657 H 143.104 -0.319367 2.5269 0
M  V30 1658 H 143.887 1.20383 3.21501 0
M  V30 1659 N 146.332 -1.57332 0.0918853 0
M  V30 1660 C 147.609 -1.85691 -0.614668 0
M  V30 1661 C 147.989 -0.988146 -1.86545 0
M  V30 1662 O 147.337 -0.0597055 -2.28422 0
M  V30 1663 C 147.547 -3.36294 -0.933126 0
M  V30 1664 C 148.895 -4.04275 -1.29796 0
M  V30 1665 O 149.919 -3.41157 -1.02424 0
M  V30 1666 O 148.778 -5.1564 -1.81047 0
M  V30 1667 H 145.872 -0.767802 -0.307261 0
M  V30 1668 H 148.418 -1.69244 0.12434 0
M  V30 1669 H 147.19 -3.91273 -0.0456404 0
M  V30 1670 H 146.813 -3.58076 -1.72822 0
M  V30 1671 N 147.81 0.181792 -1.56548 0
M  V30 1672 C 148.743 1.25366 -1.90679 0
M  V30 1673 C 149.721 1.43299 -0.768376 0
M  V30 1674 O 150.905 1.58475 -1.02068 0
M  V30 1675 C 148.032 2.61826 -2.1486 0
M  V30 1676 C 147.078 2.60688 -3.37556 0
M  V30 1677 S 147.911 2.10804 -4.92262 0
M  V30 1678 C 149.067 3.49062 -5.19525 0
M  V30 1679 H 149.3 0.962277 -2.81296 0
M  V30 1680 H 146.833 0.385892 -1.495 0
M  V30 1681 H 148.791 3.40371 -2.29473 0
M  V30 1682 H 147.452 2.88169 -1.24969 0
M  V30 1683 H 146.645 3.61058 -3.51643 0
M  V30 1684 H 146.247 1.90232 -3.22006 0
M  V30 1685 H 148.539 4.45003 -5.10861 0
M  V30 1686 H 149.482 3.39859 -6.2121 0
M  V30 1687 H 149.89 3.4459 -4.47122 0
M  V30 1688 N 149.288 1.51039 0.449983 0
M  V30 1689 C 150.516 1.66869 1.2232 0
M  V30 1690 C 150.931 0.360727 1.85322 0
M  V30 1691 O 150.288 -0.659531 1.70166 0
M  V30 1692 C 150.339 2.77524 2.31652 0
M  V30 1693 O 150.06 4.03252 1.7123 0
M  V30 1694 C 151.561 3.04512 3.2216 0
M  V30 1695 H 148.781 0.560326 0.369155 0
M  V30 1696 H 151.325 1.97385 0.534719 0
M  V30 1697 H 149.48 2.49642 2.96239 0
M  V30 1698 H 149.894 4.64609 2.43389 0
M  V30 1699 H 151.368 3.85551 3.95038 0
M  V30 1700 H 151.845 2.16415 3.8218 0
M  V30 1701 H 152.451 3.34005 2.63288 0
M  V30 1702 N 150.766 -0.704594 1.40972 0
M  V30 1703 C 152.043 -1.45847 1.30338 0
M  V30 1704 C 152.423 -2.10973 -0.0732344 0
M  V30 1705 O 151.771 -2.00997 -1.08685 0
M  V30 1706 C 151.981 -2.48525 2.45023 0
M  V30 1707 C 153.329 -3.1404 2.8577 0
M  V30 1708 O 154.353 -2.58848 2.44696 0
M  V30 1709 O 153.212 -4.13981 3.56766 0
M  V30 1710 H 150.306 -0.649092 0.512454 0
M  V30 1711 H 152.852 -0.735836 1.52917 0
M  V30 1712 H 151.624 -1.98994 3.36923 0
M  V30 1713 H 151.247 -3.2831 2.24272 0
M  V30 1714 N 152.244 -1.26651 -0.937939 0
M  V30 1715 C 153.491 -1.12387 -1.6845 0
M  V30 1716 C 153.819 0.332208 -1.91642 0
M  V30 1717 O 153.074 1.2602 -1.49725 0
M  V30 1718 C 153.373 -1.84168 -3.06295 0
M  V30 1719 C 153.039 -3.34056 -3.02849 0
M  V30 1720 C 151.701 -3.74942 -3.01616 0
M  V30 1721 C 154.053 -4.29741 -2.9491 0
M  V30 1722 C 151.381 -5.09894 -2.90215 0
M  V30 1723 C 153.733 -5.64738 -2.8505 0
M  V30 1724 C 152.397 -6.0493 -2.82162 0
M  V30 1725 H 151.667 -0.411252 -0.616403 0
M  V30 1726 H 154.314 -1.57134 -1.09459 0
M  V30 1727 H 152.619 -1.319 -3.6893 0
M  V30 1728 H 154.316 -1.70569 -3.62915 0
M  V30 1729 H 150.906 -3.01534 -3.0459 0
M  V30 1730 H 155.09 -3.99133 -2.94969 0
M  V30 1731 H 150.346 -5.40194 -2.86358 0
M  V30 1732 H 154.52 -6.38561 -2.77872 0
M  V30 1733 H 152.147 -7.09457 -2.73084 0
M  V30 1734 N 153.722 1.14298 -1.08507 0
M  V30 1735 C 154.97 1.84993 -0.813763 0
M  V30 1736 C 155.291 1.83405 0.662393 0
M  V30 1737 O 154.561 1.28319 1.48024 0
M  V30 1738 H 153.141 0.684966 -0.298045 0
M  V30 1739 H 155.803 1.385 -1.37126 0
M  V30 1740 H 154.899 2.89788 -1.15884 0
M  V30 1741 N 155.201 0.870884 1.31352 0
M  V30 1742 C 156.151 0.298889 2.26032 0
M  V30 1743 C 157.135 -0.564595 1.50669 0
M  V30 1744 O 158.327 -0.411323 1.72154 0
M  V30 1745 C 155.456 -0.497842 3.39671 0
M  V30 1746 C 154.542 0.378937 4.22404 0
M  V30 1747 N 154.933 1.47284 4.83881 0
M  V30 1748 C 153.231 0.171535 4.4567 0
M  V30 1749 C 153.932 2.01359 5.45738 0
M  V30 1750 N 152.908 1.31047 5.27568 0
M  V30 1751 H 156.71 1.13494 2.71102 0
M  V30 1752 H 154.224 0.718745 1.45629 0
M  V30 1753 H 156.221 -0.924155 4.06528 0
M  V30 1754 H 154.881 -1.33149 2.96144 0
M  V30 1755 H 155.892 1.85575 4.8351 0
M  V30 1756 H 152.569 -0.626091 4.12779 0
M  V30 1757 H 153.959 2.93143 6.0458 0
M  V30 1758 N 156.679 -1.44442 0.630414 0
M  V30 1759 C 158.095 -1.56832 0.295973 0
M  V30 1760 C 158.295 -1.61806 -1.20088 0
M  V30 1761 O 157.351 -1.5607 -1.9849 0
M  V30 1762 C 158.664 -2.84031 0.987264 0
M  V30 1763 C 160.212 -2.97742 0.96534 0
M  V30 1764 C 160.687 -4.27743 1.63708 0
M  V30 1765 N 162.178 -4.34555 1.60364 0
M  V30 1766 C 162.913 -5.33862 2.09234 0
M  V30 1767 N 162.409 -6.39578 2.66292 0
M  V30 1768 N 164.202 -5.25366 1.99867 0
M  V30 1769 H 156.353 -1.39457 1.60205 0
M  V30 1770 H 158.616 -0.668237 0.672431 0
M  V30 1771 H 158.322 -2.86338 2.04215 0
M  V30 1772 H 158.196 -3.73534 0.524588 0
M  V30 1773 H 160.583 -2.94989 -0.0810639 0
M  V30 1774 H 160.664 -2.09589 1.4665 0
M  V30 1775 H 160.308 -4.31255 2.68293 0
M  V30 1776 H 160.238 -5.14752 1.11076 0
M  V30 1777 H 162.729 -3.58772 1.18705 0
M  V30 1778 H 163.042 -7.11637 3.01317 0
M  V30 1779 H 161.387 -6.40265 2.70343 0
M  V30 1780 H 164.578 -4.41688 1.55013 0
M  V30 1781 H 164.751 -6.02606 2.38265 0
M  V30 1782 N 158.157 -0.370918 -1.53173 0
M  V30 1783 C 159.382 0.220293 -2.06227 0
M  V30 1784 C 159.807 1.41243 -1.24225 0
M  V30 1785 O 159.165 1.79387 -0.262645 0
M  V30 1786 C 159.213 0.586663 -3.55796 0
M  V30 1787 O 158.317 1.68317 -3.76488 0
M  V30 1788 H 157.658 0.0308099 -0.663285 0
M  V30 1789 H 160.188 -0.533068 -1.97534 0
M  V30 1790 H 160.198 0.85617 -3.98916 0
M  V30 1791 H 158.873 -0.285013 -4.14922 0
M  V30 1792 H 157.45 1.40881 -3.45264 0
M  V30 1793 N 159.635 1.57281 -0.100228 0
M  V30 1794 C 160.567 2.11342 0.886972 0
M  V30 1795 C 161.58 1.05182 1.24261 0
M  V30 1796 O 162.769 1.32613 1.19483 0
M  V30 1797 C 159.869 2.5825 2.19454 0
M  V30 1798 C 159.042 3.88302 2.01346 0
M  V30 1799 C 158.101 4.21004 3.15661 0
M  V30 1800 O 157.127 4.9014 2.89398 0
M  V30 1801 N 158.329 3.76818 4.41575 0
M  V30 1802 H 161.094 2.96668 0.425216 0
M  V30 1803 H 158.655 1.61678 0.0847334 0
M  V30 1804 H 160.647 2.7717 2.94888 0
M  V30 1805 H 159.217 1.77907 2.57037 0
M  V30 1806 H 158.437 3.7848 1.10212 0
M  V30 1807 H 159.725 4.73375 1.8653 0
M  V30 1808 H 159.123 3.2102 4.65792 0
M  V30 1809 H 157.68 4.00882 5.13942 0
M  V30 1810 N 161.113 -0.173488 1.56642 0
M  V30 1811 C 162.06 -1.21482 1.96242 0
M  V30 1812 C 163.03 -1.44104 0.826027 0
M  V30 1813 O 164.215 -1.5688 1.08597 0
M  V30 1814 C 161.355 -2.54964 2.32567 0
M  V30 1815 C 160.468 -2.39739 3.59373 0
M  V30 1816 C 159.603 -3.66072 3.84921 0
M  V30 1817 C 158.642 -3.45771 5.05083 0
M  V30 1818 N 157.779 -4.64169 5.26775 0
M  V30 1819 H 162.619 -0.870123 2.85014 0
M  V30 1820 H 160.156 -0.418245 1.41029 0
M  V30 1821 H 162.114 -3.32758 2.5165 0
M  V30 1822 H 160.744 -2.87433 1.46908 0
M  V30 1823 H 159.796 -1.53131 3.48217 0
M  V30 1824 H 161.108 -2.20683 4.47326 0
M  V30 1825 H 160.262 -4.52303 4.0436 0
M  V30 1826 H 159.001 -3.88105 2.9534 0
M  V30 1827 H 158.006 -2.57927 4.85545 0
M  V30 1828 H 159.231 -3.25163 5.96193 0
M  V30 1829 H 157.177 -4.86425 4.40144 0
M  V30 1830 H 157.094 -4.48019 6.08946 0
M  V30 1831 H 158.362 -5.51689 5.5069 0
M  V30 1832 N 162.591 -1.51276 -0.441967 0
M  V30 1833 C 163.868 -1.54252 -1.20273 0
M  V30 1834 C 164.248 -0.30408 -2.08898 0
M  V30 1835 O 163.596 0.711084 -2.17154 0
M  V30 1836 C 163.806 -2.85406 -2.00859 0
M  V30 1837 C 165.154 -3.37181 -2.58059 0
M  V30 1838 O 166.178 -2.86925 -2.11074 0
M  V30 1839 O 165.037 -4.24858 -3.43741 0
M  V30 1840 H 162.131 -0.619969 -0.547328 0
M  V30 1841 H 164.677 -1.63586 -0.451413 0
M  V30 1842 H 163.449 -3.67003 -1.35736 0
M  V30 1843 H 163.072 -2.79213 -2.83065 0
M  V30 1844 N 164.069 0.697108 -1.41344 0
M  V30 1845 C 165.48 1.27697 -1.36199 0
M  V30 1846 C 165.831 1.9615 -0.0443463 0
M  V30 1847 O 164.956 1.98689 0.857419 0
M  V30 1848 C 165.551 2.32223 -2.46694 0
M  V30 1849 C 164.11 2.8579 -2.44952 0
M  V30 1850 C 163.257 1.59807 -2.26621 0
M  V30 1851 H 166.208 0.491968 -1.50882 0
M  V30 1852 H 166.229 3.1348 -2.15664 0
M  V30 1853 H 165.741 1.82373 -3.42581 0
M  V30 1854 H 163.842 3.3982 -1.52817 0
M  V30 1855 H 163.955 3.36325 -3.41207 0
M  V30 1856 H 162.319 1.8556 -1.7447 0
M  V30 1857 H 163.102 1.11956 -3.24532 0
M  V30 1858 N 165.547 1.27147 0.931209 0
M  V30 1859 C 166.457 1.11372 2.06478 0
M  V30 1860 C 167.473 0.044645 1.73943 0
M  V30 1861 O 168.649 0.250417 1.99837 0
M  V30 1862 C 165.714 0.758838 3.38294 0
M  V30 1863 C 164.775 1.90841 3.84549 0
M  V30 1864 C 164.008 1.57036 5.10074 0
M  V30 1865 O 164.231 0.476645 5.68405 0
M  V30 1866 O 163.165 2.40839 5.51616 0
M  V30 1867 H 166.991 2.06493 2.22698 0
M  V30 1868 H 164.576 1.06301 1.04978 0
M  V30 1869 H 166.458 0.574098 4.17471 0
M  V30 1870 H 165.133 -0.162879 3.2329 0
M  V30 1871 H 164.04 2.14819 3.06274 0
M  V30 1872 H 165.373 2.81021 4.04089 0
M  V30 1873 N 167.025 -1.13721 1.09112 0
M  V30 1874 C 168.272 -1.84924 0.825192 0
M  V30 1875 C 168.6 -1.83347 -0.649151 0
M  V30 1876 O 167.855 -1.26449 -1.49362 0
M  V30 1877 C 168.154 -3.32861 1.30146 0
M  V30 1878 C 167.82 -3.54621 2.78486 0
M  V30 1879 C 166.482 -3.60268 3.18999 0
M  V30 1880 C 168.834 -3.62855 3.74146 0
M  V30 1881 C 166.162 -3.71679 4.53951 0
M  V30 1882 C 168.514 -3.75793 5.08883 0
M  V30 1883 C 167.178 -3.79692 5.4899 0
M  V30 1884 H 166.448 -0.676684 0.301959 0
M  V30 1885 H 169.095 -1.3428 1.36533 0
M  V30 1886 H 167.4 -3.85835 0.681064 0
M  V30 1887 H 169.097 -3.86395 1.07236 0
M  V30 1888 H 165.687 -3.50879 2.46134 0
M  V30 1889 H 169.871 -3.57775 3.43963 0
M  V30 1890 H 165.127 -3.72963 4.84467 0
M  V30 1891 H 169.301 -3.81107 5.82864 0
M  V30 1892 H 166.928 -3.88287 6.53558 0
M  V30 1893 N 168.503 -0.877838 -1.30888 0
M  V30 1894 C 169.466 -0.344265 -2.266 0
M  V30 1895 C 170.466 0.50922 -1.52524 0
M  V30 1896 O 171.656 0.317398 -1.71284 0
M  V30 1897 C 168.788 0.510198 -3.37061 0
M  V30 1898 H 169.981 -1.1893 -2.7531 0
M  V30 1899 H 167.534 -0.654088 -1.41956 0
M  V30 1900 H 168.269 1.37612 -2.93655 0
M  V30 1901 H 168.054 -0.101047 -3.9197 0
M  V30 1902 H 169.544 0.875537 -4.08319 0
M  V30 1903 N 169.982 1.44106 -0.638065 0
M  V30 1904 C 170.945 2.29138 0.0531013 0
M  V30 1905 C 171.945 1.41409 0.765506 0
M  V30 1906 O 173.135 1.63206 0.609046 0
M  V30 1907 C 170.267 3.23144 1.08584 0
M  V30 1908 H 171.46 2.91739 -0.694883 0
M  V30 1909 H 169.013 1.51134 -0.398538 0
M  V30 1910 H 169.748 2.65408 1.86357 0
M  V30 1911 H 169.533 3.87804 0.578852 0
M  V30 1912 H 171.023 3.87004 1.56899 0
M  V30 1913 N 171.46 0.379036 1.52974 0
M  V30 1914 C 172.706 -0.206727 2.01744 0
M  V30 1915 C 173.039 -1.47314 1.26539 0
M  V30 1916 O 172.314 -1.91084 0.362903 0
M  V30 1917 C 172.597 -0.485066 3.56818 0
M  V30 1918 C 172.45 0.795919 4.42702 0
M  V30 1919 C 173.769 -1.28003 4.21074 0
M  V30 1920 H 170.888 -0.0736607 0.73331 0
M  V30 1921 H 173.53 0.506581 1.83122 0
M  V30 1922 H 171.68 -1.09272 3.72816 0
M  V30 1923 H 173.352 1.43307 4.38476 0
M  V30 1924 H 171.595 1.41344 4.10127 0
M  V30 1925 H 172.266 0.555947 5.49193 0
M  V30 1926 H 174.742 -0.765867 4.08991 0
M  V30 1927 H 173.618 -1.44352 5.29579 0
M  V30 1928 H 173.879 -2.29236 3.78026 0
M  V30 1929 N 172.938 -1.57226 0.108567 0
M  V30 1930 C 174.168 -1.9889 -0.559142 0
M  V30 1931 C 174.576 -0.986889 -1.61422 0
M  V30 1932 O 173.919 0.0298705 -1.83676 0
M  V30 1933 C 173.981 -3.36952 -1.25315 0
M  V30 1934 C 173.645 -4.55679 -0.347248 0
M  V30 1935 C 174.642 -5.18281 0.409996 0
M  V30 1936 C 172.327 -5.0162 -0.261367 0
M  V30 1937 C 174.321 -6.25203 1.24096 0
M  V30 1938 C 172.008 -6.08405 0.573238 0
M  V30 1939 C 173.006 -6.70063 1.32304 0
M  V30 1940 O 172.694 -7.74788 2.14381 0
M  V30 1941 H 172.426 -0.658343 -0.153492 0
M  V30 1942 H 174.98 -2.04532 0.188584 0
M  V30 1943 H 173.21 -3.28032 -2.04773 0
M  V30 1944 H 174.899 -3.62974 -1.81673 0
M  V30 1945 H 175.665 -4.8371 0.353457 0
M  V30 1946 H 171.544 -4.53381 -0.834656 0
M  V30 1947 H 175.088 -6.73259 1.82669 0
M  V30 1948 H 170.985 -6.42406 0.631208 0
M  V30 1949 H 171.753 -7.91837 2.07209 0
M  V30 1950 N 174.416 0.165178 -1.56732 0
M  V30 1951 C 175.366 1.20917 -1.93295 0
M  V30 1952 C 176.35 1.39488 -0.801985 0
M  V30 1953 O 177.542 1.41356 -1.06525 0
M  V30 1954 C 174.671 2.54718 -2.3016 0
M  V30 1955 C 173.757 2.39815 -3.49785 0
M  V30 1956 N 174.148 1.94637 -4.66851 0
M  V30 1957 C 172.446 2.70623 -3.54513 0
M  V30 1958 C 173.147 1.92344 -5.4898 0
M  V30 1959 N 172.123 2.34978 -4.9019 0
M  V30 1960 H 175.925 0.851675 -2.81289 0
M  V30 1961 H 173.439 0.373399 -1.58049 0
M  V30 1962 H 175.436 3.30165 -2.54552 0
M  V30 1963 H 174.096 2.91265 -1.43508 0
M  V30 1964 H 175.107 1.6488 -4.90953 0
M  V30 1965 H 171.784 3.11167 -2.78354 0
M  V30 1966 H 173.174 1.5906 -6.52801 0
M  V30 1967 N 175.894 1.51508 0.433938 0
M  V30 1968 C 176.804 1.75917 1.5521 0
M  V30 1969 C 177.82 0.643545 1.61662 0
M  V30 1970 O 178.996 0.926183 1.7884 0
M  V30 1971 C 176.061 1.88213 2.91164 0
M  V30 1972 C 175.122 3.12074 2.94802 0
M  V30 1973 C 174.355 3.23774 4.24271 0
M  V30 1974 O 174.578 2.4133 5.16833 0
M  V30 1975 O 173.512 4.16774 4.34262 0
M  V30 1976 H 177.338 2.70777 1.37527 0
M  V30 1977 H 174.923 1.36051 0.617293 0
M  V30 1978 H 176.805 1.98267 3.71845 0
M  V30 1979 H 175.48 0.965413 3.08968 0
M  V30 1980 H 174.387 3.07497 2.13065 0
M  V30 1981 H 175.72 4.03446 2.81943 0
M  V30 1982 N 177.372 -0.689602 1.41712 0
M  V30 1983 C 178.282 -1.83314 1.46401 0
M  V30 1984 C 179.298 -1.7036 0.35405 0
M  V30 1985 O 180.474 -1.92171 0.602692 0
M  V30 1986 C 177.539 -3.19344 1.34982 0
M  V30 1987 C 176.6 -3.44363 2.56344 0
M  V30 1988 C 175.833 -4.73904 2.45461 0
M  V30 1989 O 176.056 -5.508 1.48241 0
M  V30 1990 O 174.99 -4.99839 3.35328 0
M  V30 1991 H 178.816 -1.82314 2.42889 0
M  V30 1992 H 176.401 -0.843438 1.23315 0
M  V30 1993 H 178.283 -4.00547 1.3092 0
M  V30 1994 H 176.958 -3.21014 0.41612 0
M  V30 1995 H 175.865 -2.63067 2.65982 0
M  V30 1996 H 177.198 -3.47512 3.48563 0
M  V30 1997 N 178.85 -1.27639 -0.924453 0
M  V30 1998 C 179.783 -1.04966 -2.02626 0
M  V30 1999 C 180.761 0.0309505 -1.62571 0
M  V30 2000 O 181.945 -0.114846 -1.8815 0
M  V30 2001 C 179.072 -0.59292 -3.3347 0
M  V30 2002 C 178.118 -1.66858 -3.92506 0
M  V30 2003 S 178.951 -3.2619 -4.24689 0
M  V30 2004 C 180.107 -2.82325 -5.58609 0
M  V30 2005 H 180.34 -1.98252 -2.21547 0
M  V30 2006 H 177.873 -1.11506 -1.06798 0
M  V30 2007 H 179.831 -0.336086 -4.09122 0
M  V30 2008 H 178.492 0.319939 -3.12466 0
M  V30 2009 H 177.685 -1.30038 -4.86935 0
M  V30 2010 H 177.287 -1.87766 -3.2345 0
M  V30 2011 H 179.579 -2.2783 -6.38044 0
M  V30 2012 H 180.522 -3.75511 -6.00331 0
M  V30 2013 H 180.93 -2.21367 -5.19285 0
M  V30 2014 N 180.328 1.1314 -1.09713 0
M  V30 2015 C 181.291 2.16831 -0.742751 0
M  V30 2016 C 182.291 1.59159 0.229129 0
M  V30 2017 O 183.481 1.74199 0.00693237 0
M  V30 2018 C 180.613 3.40756 -0.0989168 0
M  V30 2019 H 181.806 2.49695 -1.66109 0
M  V30 2020 H 179.359 1.2802 -0.896699 0
M  V30 2021 H 180.094 3.13485 0.830514 0
M  V30 2022 H 179.879 3.83888 -0.798265 0
M  V30 2023 H 181.369 4.17386 0.133524 0
M  V30 2024 N 181.806 0.884767 1.30421 0
M  V30 2025 C 182.753 0.349642 2.28136 0
M  V30 2026 C 183.723 -0.560061 1.56373 0
M  V30 2027 O 184.908 -0.488524 1.8444 0
M  V30 2028 C 182.048 -0.42999 3.42411 0
M  V30 2029 C 181.161 0.508907 4.28992 0
M  V30 2030 C 180.296 -0.286301 5.30428 0
M  V30 2031 C 179.335 0.648079 6.08659 0
M  V30 2032 N 178.472 -0.111792 7.02011 0
M  V30 2033 H 183.312 1.18807 2.73293 0
M  V30 2034 H 180.849 0.597231 1.3443 0
M  V30 2035 H 182.807 -0.897923 4.07423 0
M  V30 2036 H 181.437 -1.23299 2.98324 0
M  V30 2037 H 180.489 1.09533 3.64289 0
M  V30 2038 H 181.801 1.22475 4.8353 0
M  V30 2039 H 180.955 -0.816098 6.01186 0
M  V30 2040 H 179.694 -1.03536 4.76583 0
M  V30 2041 H 178.699 1.18951 5.36778 0
M  V30 2042 H 179.924 1.39623 6.64592 0
M  V30 2043 H 177.87 -0.843395 6.50556 0
M  V30 2044 H 177.787 0.544429 7.54037 0
M  V30 2045 H 179.055 -0.622339 7.77012 0
M  V30 2046 N 183.284 -1.43765 0.645699 0
M  V30 2047 C 184.531 -2.01898 0.15604 0
M  V30 2048 C 184.859 -1.50887 -1.22733 0
M  V30 2049 O 184.114 -0.689271 -1.8316 0
M  V30 2050 C 184.413 -3.57238 0.107679 0
M  V30 2051 C 184.079 -4.27564 1.43178 0
M  V30 2052 C 182.741 -4.46492 1.7944 0
M  V30 2053 C 185.093 -4.67454 2.30513 0
M  V30 2054 C 182.421 -5.02573 3.02716 0
M  V30 2055 C 184.773 -5.24901 3.53074 0
M  V30 2056 C 183.437 -5.42046 3.89541 0
M  V30 2057 H 182.707 -0.738797 0.057099 0
M  V30 2058 H 185.354 -1.72341 0.834912 0
M  V30 2059 H 183.659 -3.86293 -0.654618 0
M  V30 2060 H 185.356 -3.99965 -0.287938 0
M  V30 2061 H 181.946 -4.13171 1.13963 0
M  V30 2062 H 186.13 -4.5253 2.0379 0
M  V30 2063 H 181.386 -5.14033 3.31028 0
M  V30 2064 H 185.56 -5.54758 4.20971 0
M  V30 2065 H 183.187 -5.85268 4.85145 0
M  V30 2066 N 184.763 -0.387143 -1.52771 0
M  V30 2067 C 186.04 0.253197 -1.93954 0
M  V30 2068 C 186.42 1.64545 -1.32243 0
M  V30 2069 O 185.768 2.23191 -0.489699 0
M  V30 2070 C 185.978 0.281722 -3.47861 0
M  V30 2071 C 187.326 0.511715 -4.21505 0
M  V30 2072 O 188.35 0.362023 -3.54356 0
M  V30 2073 O 187.209 0.804847 -5.40541 0
M  V30 2074 H 184.303 0.156845 -0.811991 0
M  V30 2075 H 186.849 -0.441494 -1.63856 0
M  V30 2076 H 185.621 -0.693571 -3.85104 0
M  V30 2077 H 185.244 1.02142 -3.84256 0
M  V30 2078 N 186.241 1.57166 -0.116904 0
M  V30 2079 C 187.518 1.86645 0.585049 0
M  V30 2080 C 187.898 1.0177 1.84949 0
M  V30 2081 O 187.246 0.0960379 2.28298 0
M  V30 2082 C 187.456 3.37736 0.879507 0
M  V30 2083 C 188.804 4.06289 1.23348 0
M  V30 2084 O 189.828 3.42743 0.969836 0
M  V30 2085 O 188.687 5.18455 1.7282 0
M  V30 2086 H 185.781 0.772593 0.295007 0
M  V30 2087 H 188.327 1.69025 -0.151249 0
M  V30 2088 H 187.099 3.91296 -0.0166136 0
M  V30 2089 H 186.722 3.6078 1.67103 0
M  V30 2090 N 187.719 -0.156864 1.56817 0
M  V30 2091 C 189.135 -0.50916 1.5126 0
M  V30 2092 C 189.335 -1.83897 0.823658 0
M  V30 2093 O 188.391 -2.49469 0.390055 0
M  V30 2094 C 189.704 -0.52857 2.96018 0
M  V30 2095 C 191.252 -0.614771 3.06903 0
M  V30 2096 C 191.727 -0.664938 4.53147 0
M  V30 2097 N 193.218 -0.727433 4.57452 0
M  V30 2098 C 193.953 -0.787067 5.67973 0
M  V30 2099 N 193.449 -0.806649 6.88088 0
M  V30 2100 N 195.242 -0.827195 5.5598 0
M  V30 2101 H 187.393 0.714935 2.00006 0
M  V30 2102 H 189.656 0.259526 0.911784 0
M  V30 2103 H 189.362 0.380154 3.49639 0
M  V30 2104 H 189.236 -1.36998 3.51442 0
M  V30 2105 H 191.623 -1.51392 2.53307 0
M  V30 2106 H 191.704 0.253597 2.5454 0
M  V30 2107 H 191.348 0.230011 5.07379 0
M  V30 2108 H 191.278 -1.54966 5.03282 0
M  V30 2109 H 193.769 -0.719998 3.70978 0
M  V30 2110 H 194.082 -0.853727 7.6807 0
M  V30 2111 H 192.427 -0.774687 6.90669 0
M  V30 2112 H 195.618 -0.808998 4.61056 0
M  V30 2113 H 195.791 -0.870206 6.4213 0
M  V30 2114 N 189.197 -1.51736 -0.425897 0
M  V30 2115 C 190.443 -1.65214 -1.1761 0
M  V30 2116 C 190.776 -0.372778 -1.90589 0
M  V30 2117 O 190.051 0.628139 -1.84078 0
M  V30 2118 C 190.334 -2.86312 -2.18398 0
M  V30 2119 C 190.187 -4.24254 -1.49426 0
M  V30 2120 C 191.506 -3.02925 -3.19256 0
M  V30 2121 H 188.625 -0.601263 -0.426206 0
M  V30 2122 H 191.267 -1.8425 -0.463882 0
M  V30 2123 H 189.417 -2.70213 -2.79137 0
M  V30 2124 H 191.089 -4.52046 -0.919362 0
M  V30 2125 H 189.332 -4.26426 -0.796432 0
M  V30 2126 H 190.003 -5.05001 -2.22885 0
M  V30 2127 H 192.479 -3.1781 -2.68581 0
M  V30 2128 H 191.355 -3.89199 -3.8706 0
M  V30 2129 H 191.616 -2.15497 -3.86023 0
M  V30 2130 N 190.675 0.682077 -1.42076 0
M  V30 2131 C 191.605 1.80796 -1.47767 0
M  V30 2132 C 192.586 1.6677 -0.334954 0
M  V30 2133 O 193.771 1.863 -0.548264 0
M  V30 2134 C 190.901 3.19038 -1.37229 0
M  V30 2135 C 189.855 3.47789 -2.49453 0
M  V30 2136 C 189.181 4.8553 -2.23975 0
M  V30 2137 C 190.481 3.45411 -3.91776 0
M  V30 2138 H 192.175 1.7629 -2.41997 0
M  V30 2139 H 189.721 0.846721 -1.16476 0
M  V30 2140 H 191.674 3.97528 -1.39821 0
M  V30 2141 H 190.398 3.24204 -0.394907 0
M  V30 2142 H 189.057 2.71657 -2.46166 0
M  V30 2143 H 188.705 4.87337 -1.24547 0
M  V30 2144 H 188.405 5.0573 -2.99184 0
M  V30 2145 H 189.929 5.66312 -2.28304 0
M  V30 2146 H 191.343 4.13882 -3.96705 0
M  V30 2147 H 189.74 3.77145 -4.66778 0
M  V30 2148 H 190.81 2.44122 -4.18966 0
M  V30 2149 N 192.153 1.28127 0.917671 0
M  V30 2150 C 193.103 1.08361 2.00604 0
M  V30 2151 C 194.087 0.00847518 1.60898 0
M  V30 2152 O 195.279 0.228167 1.75523 0
M  V30 2153 C 192.408 0.743376 3.35155 0
M  V30 2154 C 191.494 1.85716 3.81275 0
M  V30 2155 N 191.885 3.09822 3.99805 0
M  V30 2156 C 190.183 1.74612 4.10398 0
M  V30 2157 C 190.884 3.82368 4.38372 0
M  V30 2158 N 189.86 3.10192 4.4641 0
M  V30 2159 H 193.662 2.02531 2.12975 0
M  V30 2160 H 191.176 1.18989 1.10523 0
M  V30 2161 H 193.173 0.582859 4.12805 0
M  V30 2162 H 191.833 -0.190595 3.2414 0
M  V30 2163 H 192.844 3.45475 3.85833 0
M  V30 2164 H 189.521 0.883657 4.08041 0
M  V30 2165 H 190.911 4.89082 4.60704 0
M  V30 2166 N 193.631 -1.12557 1.10312 0
M  V30 2167 C 194.908 -1.80363 0.756878 0
M  V30 2168 C 195.288 -1.97067 -0.756824 0
M  V30 2169 O 194.636 -1.54601 -1.68259 0
M  V30 2170 C 194.846 -3.14812 1.50647 0
M  V30 2171 C 196.194 -3.90029 1.67817 0
M  V30 2172 O 197.218 -3.24464 1.46974 0
M  V30 2173 O 196.077 -5.07652 2.02365 0
M  V30 2174 H 193.171 -0.780667 0.272926 0
M  V30 2175 H 195.717 -1.19404 1.20586 0
M  V30 2176 H 194.489 -2.97936 2.53672 0
M  V30 2177 H 194.112 -3.83478 1.05026 0
M  V30 2178 N 195.109 -0.891671 -1.2995 0
M  V30 2179 C 196.386 -0.433307 -1.9074 0
M  V30 2180 C 196.766 1.08646 -1.80995 0
M  V30 2181 O 196.114 1.92476 -1.23147 0
M  V30 2182 C 196.324 -0.938895 -3.36134 0
M  V30 2183 C 197.672 -0.977829 -4.13187 0
M  V30 2184 O 198.696 -0.886015 -3.45005 0
M  V30 2185 O 197.555 -1.11453 -5.35015 0
M  V30 2186 H 194.649 -0.133699 -0.816121 0
M  V30 2187 H 197.195 -0.981011 -1.38471 0
M  V30 2188 H 195.967 -1.98281 -3.37343 0
M  V30 2189 H 195.59 -0.37074 -3.95868 0
M  V30 2190 N 196.587 1.43421 -0.653314 0
M  V30 2191 C 197.55 2.29182 0.0287951 0
M  V30 2192 C 198.55 1.42213 0.750465 0
M  V30 2193 O 199.74 1.63843 0.591701 0
M  V30 2194 C 196.872 3.24278 1.05151 0
M  V30 2195 H 198.065 2.90985 -0.725786 0
M  V30 2196 H 195.618 1.50702 -0.414545 0
M  V30 2197 H 196.353 2.6737 1.83532 0
M  V30 2198 H 196.138 3.88396 0.537687 0
M  V30 2199 H 197.628 3.88647 1.52786 0
M  V30 2200 N 198.065 0.39524 1.52563 0
M  V30 2201 C 199.312 -0.185044 2.01653 0
M  V30 2202 C 199.64 -1.46317 1.28146 0
M  V30 2203 O 198.895 -1.9213 0.372074 0
M  V30 2204 C 199.194 -0.493444 3.53977 0
M  V30 2205 C 198.86 0.69384 4.4553 0
M  V30 2206 C 197.522 1.01954 4.70275 0
M  V30 2207 C 199.874 1.48785 4.99512 0
M  V30 2208 C 197.202 2.14069 5.46252 0
M  V30 2209 C 199.554 2.59965 5.76716 0
M  V30 2210 C 198.218 2.93037 5.99738 0
M  V30 2211 H 197.488 -0.0677123 0.7379 0
M  V30 2212 H 200.135 0.533807 1.8391 0
M  V30 2213 H 198.44 -1.29369 3.69825 0
M  V30 2214 H 200.137 -0.955163 3.89458 0
M  V30 2215 H 196.727 0.429987 4.26438 0
M  V30 2216 H 200.911 1.24946 4.80315 0
M  V30 2217 H 196.167 2.40056 5.62302 0
M  V30 2218 H 200.341 3.21887 6.17545 0
M  V30 2219 H 197.968 3.8003 6.58393 0
M  V30 2220 N 199.544 -1.57102 0.125237 0
M  V30 2221 C 200.507 -2.14471 -0.80838 0
M  V30 2222 C 201.507 -1.0811 -1.19033 0
M  V30 2223 O 202.697 -1.33856 -1.11482 0
M  V30 2224 C 199.829 -2.69005 -2.09402 0
M  V30 2225 H 201.022 -2.98297 -0.309696 0
M  V30 2226 H 198.575 -1.55807 -0.124051 0
M  V30 2227 H 199.31 -1.88785 -2.63687 0
M  V30 2228 H 199.095 -3.46799 -1.82957 0
M  V30 2229 H 200.585 -3.13278 -2.76128 0
M  V30 2230 N 201.022 0.148545 -1.56898 0
M  V30 2231 C 201.985 1.16736 -1.97244 0
M  V30 2232 C 202.985 1.35947 -0.858777 0
M  V30 2233 O 204.175 1.32966 -1.12542 0
M  V30 2234 C 201.307 2.52798 -2.28705 0
M  V30 2235 H 202.5 0.821279 -2.88435 0
M  V30 2236 H 200.053 0.391831 -1.51309 0
M  V30 2237 H 200.788 2.92381 -1.403 0
M  V30 2238 H 200.573 2.40216 -3.09901 0
M  V30 2239 H 202.063 3.26179 -2.60762 0
M  V30 2240 N 202.5 1.5196 0.417844 0
M  V30 2241 C 203.447 1.74678 1.50852 0
M  V30 2242 C 204.417 0.588947 1.55308 0
M  V30 2243 O 205.602 0.825544 1.72016 0
M  V30 2244 C 202.742 1.89544 2.88387 0
M  V30 2245 C 201.855 3.17166 2.93309 0
M  V30 2246 C 200.99 3.22513 4.22088 0
M  V30 2247 C 200.029 4.44372 4.20951 0
M  V30 2248 N 199.166 4.47161 5.41287 0
M  V30 2249 H 204.006 2.67768 1.30783 0
M  V30 2250 H 201.543 1.32689 0.63498 0
M  V30 2251 H 203.501 1.96146 3.68216 0
M  V30 2252 H 202.131 0.998424 3.06971 0
M  V30 2253 H 201.183 3.19778 2.06024 0
M  V30 2254 H 202.495 4.07021 2.88332 0
M  V30 2255 H 201.649 3.28139 5.10303 0
M  V30 2256 H 200.388 2.30581 4.29748 0
M  V30 2257 H 199.393 4.38902 3.31127 0
M  V30 2258 H 200.618 5.3759 4.14938 0
M  V30 2259 H 198.564 3.58108 5.49632 0
M  V30 2260 H 198.481 5.3085 5.3827 0
M  V30 2261 H 199.749 4.57005 6.3148 0
M  V30 2262 N 203.978 -0.674533 1.42435 0
M  V30 2263 C 205.208 -1.46071 1.46105 0
M  V30 2264 C 205.616 -1.89067 0.0709605 0
M  V30 2265 O 204.959 -1.58731 -0.924677 0
M  V30 2266 C 205.021 -2.74145 2.32561 0
M  V30 2267 C 204.685 -2.53224 3.8043 0
M  V30 2268 C 205.682 -2.17809 4.72075 0
M  V30 2269 C 203.367 -2.6821 4.24698 0
M  V30 2270 C 205.361 -1.97648 6.05982 0
M  V30 2271 C 203.048 -2.47665 5.58664 0
M  V30 2272 C 204.046 -2.12437 6.49122 0
M  V30 2273 O 203.734 -1.9209 7.80613 0
M  V30 2274 H 203.466 -0.455959 0.499076 0
M  V30 2275 H 206.02 -0.836193 1.87609 0
M  V30 2276 H 204.25 -3.3908 1.85908 0
M  V30 2277 H 205.939 -3.36028 2.27683 0
M  V30 2278 H 206.705 -2.05826 4.39159 0
M  V30 2279 H 202.584 -2.94609 3.54579 0
M  V30 2280 H 206.128 -1.70075 6.7655 0
M  V30 2281 H 202.025 -2.59244 5.91154 0
M  V30 2282 H 202.793 -2.06686 7.91974 0
M  V30 2283 N 205.456 -1.28612 -0.910864 0
M  V30 2284 C 206.704 -1.15705 -1.65701 0
M  V30 2285 C 207.025 0.29416 -1.92769 0
M  V30 2286 O 206.295 1.20331 -1.54588 0
M  V30 2287 H 204.875 -0.425216 -0.614167 0
M  V30 2288 H 207.537 -1.61381 -1.0928 0
M  V30 2289 H 206.633 -1.6988 -2.61815 0
M  V30 2290 N 206.934 1.1197 -1.10907 0
M  V30 2291 C 208.211 1.79959 -0.766432 0
M  V30 2292 C 208.591 1.97466 0.746363 0
M  V30 2293 O 207.939 1.55491 1.67436 0
M  V30 2294 C 208.149 3.14009 -1.52314 0
M  V30 2295 C 209.497 3.89134 -1.69883 0
M  V30 2296 O 210.521 3.2368 -1.48692 0
M  V30 2297 O 209.38 5.06572 -2.05054 0
M  V30 2298 H 206.474 0.779208 -0.277062 0
M  V30 2299 H 209.02 1.18762 -1.21217 0
M  V30 2300 H 207.792 2.96587 -2.55249 0
M  V30 2301 H 207.415 3.82915 -1.07059 0
M  V30 2302 N 208.412 0.89855 1.29475 0
M  V30 2303 C 209.342 0.39201 2.30186 0
M  V30 2304 C 210.323 -0.532359 1.61555 0
M  V30 2305 O 211.508 -0.443331 1.89072 0
M  V30 2306 C 208.638 -0.382353 3.45189 0
M  V30 2307 C 207.592 0.451483 4.25612 0
M  V30 2308 C 206.918 -0.450307 5.328 0
M  V30 2309 C 208.218 1.70079 4.93832 0
M  V30 2310 H 209.912 1.23362 2.72804 0
M  V30 2311 H 207.458 0.594638 1.31149 0
M  V30 2312 H 209.411 -0.747451 4.14718 0
M  V30 2313 H 208.135 -1.25774 3.01411 0
M  V30 2314 H 206.794 0.798897 3.57789 0
M  V30 2315 H 206.442 -1.32379 4.85268 0
M  V30 2316 H 206.142 0.103902 5.87508 0
M  V30 2317 H 207.666 -0.811623 6.05182 0
M  V30 2318 H 209.08 1.40549 5.55805 0
M  V30 2319 H 207.477 2.19623 5.58467 0
M  V30 2320 H 208.547 2.43744 4.19186 0
M  V30 2321 N 209.89 -1.43072 0.660911 0
M  V30 2322 C 211.138 -2.01323 0.177094 0
M  V30 2323 C 211.459 -1.5245 -1.2159 0
M  V30 2324 O 210.729 -0.740322 -1.81373 0
M  V30 2325 H 209.309 -0.744382 0.0624804 0
M  V30 2326 H 211.971 -1.75179 0.854305 0
M  V30 2327 H 211.067 -3.11649 0.167641 0
M  V30 2328 N 211.368 -0.403325 -1.52352 0
M  V30 2329 C 212.298 0.416205 -2.29761 0
M  V30 2330 C 213.279 1.05123 -1.33728 0
M  V30 2331 O 214.464 1.06134 -1.62632 0
M  V30 2332 C 211.594 1.53624 -3.11475 0
M  V30 2333 C 210.548 1.02653 -4.15507 0
M  V30 2334 C 209.874 2.23971 -4.85532 0
M  V30 2335 C 211.174 0.08463 -5.22231 0
M  V30 2336 H 212.868 -0.229701 -2.98518 0
M  V30 2337 H 210.414 -0.111913 -1.43564 0
M  V30 2338 H 212.367 2.1165 -3.64393 0
M  V30 2339 H 211.091 2.20994 -2.40477 0
M  V30 2340 H 209.75 0.46871 -3.63591 0
M  V30 2341 H 209.398 2.89883 -4.11068 0
M  V30 2342 H 209.098 1.90521 -5.55856 0
M  V30 2343 H 210.622 2.82614 -5.41259 0
M  V30 2344 H 212.036 0.573509 -5.70424 0
M  V30 2345 H 210.433 -0.160783 -5.99885 0
M  V30 2346 H 211.503 -0.86237 -4.7717 0
M  V30 2347 N 212.846 1.57033 -0.133567 0
M  V30 2348 C 214.092 1.95976 0.521649 0
M  V30 2349 C 214.425 1.01779 1.65393 0
M  V30 2350 O 213.7 0.0576581 1.94415 0
M  V30 2351 C 213.983 3.44738 1.04057 0
M  V30 2352 C 213.836 4.49711 -0.0892897 0
M  V30 2353 C 215.155 3.95682 1.92675 0
M  V30 2354 H 212.274 0.712579 0.188149 0
M  V30 2355 H 214.916 1.88813 -0.212076 0
M  V30 2356 H 213.066 3.50973 1.66583 0
M  V30 2357 H 214.738 4.55565 -0.725152 0
M  V30 2358 H 212.981 4.27261 -0.750378 0
M  V30 2359 H 213.652 5.51099 0.315284 0
M  V30 2360 H 216.128 3.91841 1.39998 0
M  V30 2361 H 215.004 5.00262 2.25897 0
M  V30 2362 H 215.265 3.37239 2.85872 0
M  V30 2363 N 214.325 -0.140222 1.56975 0
M  V30 2364 C 215.555 -0.865181 1.87612 0
M  V30 2365 C 215.963 -1.74942 0.72055 0
M  V30 2366 O 215.306 -1.80917 -0.318561 0
M  V30 2367 C 215.368 -1.76782 3.13031 0
M  V30 2368 C 215.032 -1.06005 4.44536 0
M  V30 2369 C 216.029 -0.410768 5.18275 0
M  V30 2370 C 213.714 -1.04754 4.91255 0
M  V30 2371 C 215.708 0.241572 6.36942 0
M  V30 2372 C 213.395 -0.391394 6.09845 0
M  V30 2373 C 214.393 0.252029 6.82535 0
M  V30 2374 O 214.081 0.897757 7.98871 0
M  V30 2375 H 213.813 -0.255188 0.625983 0
M  V30 2376 H 216.367 -0.135653 2.04952 0
M  V30 2377 H 214.597 -2.53846 2.91718 0
M  V30 2378 H 216.286 -2.36533 3.29859 0
M  V30 2379 H 217.052 -0.412195 4.83245 0
M  V30 2380 H 212.931 -1.53777 4.34596 0
M  V30 2381 H 216.475 0.744375 6.93617 0
M  V30 2382 H 212.372 -0.387656 6.44335 0
M  V30 2383 H 213.14 0.800102 8.1458 0
M  V30 2384 N 215.803 -1.52179 -0.40978 0
M  V30 2385 C 217.051 -1.65878 -1.15451 0
M  V30 2386 C 217.372 -0.390771 -1.91044 0
M  V30 2387 O 216.642 0.594323 -1.86667 0
M  V30 2388 H 215.222 -0.611405 -0.429177 0
M  V30 2389 H 217.884 -1.89219 -0.467134 0
M  V30 2390 H 216.98 -2.49954 -1.86894 0
M  V30 2391 N 217.281 0.66697 -1.42791 0
M  V30 2392 C 218.506 1.46004 -1.47301 0
M  V30 2393 C 218.931 1.87894 -0.0880317 0
M  V30 2394 O 218.289 1.56502 0.915253 0
M  V30 2395 C 218.337 2.68031 -2.41229 0
M  V30 2396 O 217.441 3.6659 -1.88906 0
M  V30 2397 H 216.782 0.43832 -0.49877 0
M  V30 2398 H 219.312 0.817391 -1.87563 0
M  V30 2399 H 219.322 3.1601 -2.58073 0
M  V30 2400 H 217.997 2.36883 -3.41847 0
M  V30 2401 H 216.574 3.25661 -1.81656 0
M  V30 2402 N 218.759 1.29093 0.90403 0
M  V30 2403 C 219.691 1.09658 2.01266 0
M  V30 2404 C 220.704 0.0453729 1.62737 0
M  V30 2405 O 221.893 0.289446 1.76138 0
M  V30 2406 C 218.993 0.646278 3.32681 0
M  V30 2407 C 218.166 1.77505 3.99763 0
M  V30 2408 C 217.225 1.31649 5.09465 0
M  V30 2409 O 216.251 2.02045 5.32134 0
M  V30 2410 N 217.453 0.184997 5.80205 0
M  V30 2411 H 220.218 2.05135 2.18494 0
M  V30 2412 H 217.779 1.20975 1.07594 0
M  V30 2413 H 219.771 0.322906 4.0341 0
M  V30 2414 H 218.341 -0.215916 3.11853 0
M  V30 2415 H 217.561 2.26752 3.22455 0
M  V30 2416 H 218.849 2.53198 4.41325 0
M  V30 2417 H 218.247 -0.402021 5.6427 0
M  V30 2418 H 216.804 -0.0790358 6.51752 0
M  V30 2419 N 220.237 -1.11381 1.11499 0
M  V30 2420 C 221.483 -1.83597 0.875423 0
M  V30 2421 C 221.838 -1.83048 -0.592555 0
M  V30 2422 O 221.131 -1.27304 -1.43193 0
M  V30 2423 C 221.325 -3.30026 1.37177 0
M  V30 2424 C 221.154 -3.44837 2.88647 0
M  V30 2425 C 219.924 -3.57825 3.56776 0
M  V30 2426 C 222.122 -3.3907 3.86699 0
M  V30 2427 N 220.104 -3.61113 4.96458 0
M  V30 2428 C 221.475 -3.48986 5.12454 0
M  V30 2429 C 223.53 -3.22605 3.7925 0
M  V30 2430 C 222.233 -3.44135 6.31636 0
M  V30 2431 C 224.259 -3.19072 4.97943 0
M  V30 2432 C 223.621 -3.29559 6.22551 0
M  V30 2433 H 219.72 -0.687044 0.37349 0
M  V30 2434 H 222.304 -1.33265 1.41946 0
M  V30 2435 H 220.475 -3.78874 0.854919 0
M  V30 2436 H 222.207 -3.90153 1.07529 0
M  V30 2437 H 218.962 -3.60414 3.07244 0
M  V30 2438 H 219.386 -3.66394 5.69284 0
M  V30 2439 H 224.028 -3.13382 2.83816 0
M  V30 2440 H 221.746 -3.52126 7.27347 0
M  V30 2441 H 225.332 -3.07498 4.93899 0
M  V30 2442 H 224.212 -3.26815 7.12855 0
M  V30 2443 N 221.715 -0.905404 -1.28997 0
M  V30 2444 C 223.131 -0.60233 -1.47798 0
M  V30 2445 C 223.331 0.854645 -1.82478 0
M  V30 2446 O 222.387 1.63439 -1.92468 0
M  V30 2447 C 223.7 -1.53306 -2.58685 0
M  V30 2448 C 225.248 -1.53887 -2.72558 0
M  V30 2449 C 225.723 -2.45602 -3.86579 0
M  V30 2450 N 227.214 -2.43681 -3.93921 0
M  V30 2451 C 227.949 -3.11347 -4.81509 0
M  V30 2452 N 227.445 -3.88313 -5.73746 0
M  V30 2453 N 229.238 -3.00476 -4.75048 0
M  V30 2454 H 221.389 -1.84765 -1.04764 0
M  V30 2455 H 223.652 -0.792025 -0.520961 0
M  V30 2456 H 223.358 -2.57141 -2.39941 0
M  V30 2457 H 223.232 -1.25787 -3.55609 0
M  V30 2458 H 225.619 -0.507941 -2.90696 0
M  V30 2459 H 225.7 -1.85447 -1.76191 0
M  V30 2460 H 225.344 -3.48792 -3.69197 0
M  V30 2461 H 225.274 -2.11349 -4.82327 0
M  V30 2462 H 227.765 -1.87767 -3.27951 0
M  V30 2463 H 228.078 -4.36985 -6.37389 0
M  V30 2464 H 226.423 -3.92419 -5.73614 0
M  V30 2465 H 229.614 -2.39858 -4.01977 0
M  V30 2466 H 229.787 -3.53485 -5.43095 0
M  V30 2467 N 223.193 1.4272 -0.668489 0
M  V30 2468 C 224.156 2.292 0.00448567 0
M  V30 2469 C 225.156 1.43001 0.735339 0
M  V30 2470 O 226.346 1.64461 0.57429 0
M  V30 2471 C 223.478 3.25375 1.01705 0
M  V30 2472 H 224.671 2.90199 -0.756608 0
M  V30 2473 H 222.224 1.50254 -0.430506 0
M  V30 2474 H 222.959 2.69301 1.80686 0
M  V30 2475 H 222.744 3.88944 0.496463 0
M  V30 2476 H 224.234 3.90245 1.48655 0
M  V30 2477 N 224.671 0.411399 1.52136 0
M  V30 2478 C 225.917 -0.156262 2.02799 0
M  V30 2479 C 226.272 -1.42613 1.29149 0
M  V30 2480 O 225.565 -1.87592 0.389839 0
M  V30 2481 C 225.759 -0.455872 3.54481 0
M  V30 2482 C 225.588 0.783404 4.42824 0
M  V30 2483 C 224.358 1.30928 4.88043 0
M  V30 2484 C 226.556 1.66217 4.86699 0
M  V30 2485 N 224.538 2.5038 5.6052 0
M  V30 2486 C 225.909 2.70292 5.5798 0
M  V30 2487 C 227.964 1.67966 4.68713 0
M  V30 2488 C 226.667 3.7603 6.13184 0
M  V30 2489 C 228.693 2.72624 5.24815 0
M  V30 2490 C 228.055 3.7542 5.9602 0
M  V30 2491 H 224.154 -0.0186886 0.781777 0
M  V30 2492 H 226.738 0.566255 1.86284 0
M  V30 2493 H 224.909 -1.14743 3.71064 0
M  V30 2494 H 226.641 -1.01261 3.91827 0
M  V30 2495 H 223.396 0.866977 4.65597 0
M  V30 2496 H 223.82 3.10881 6.014 0
M  V30 2497 H 228.462 0.898312 4.13147 0
M  V30 2498 H 226.18 4.55019 6.6782 0
M  V30 2499 H 229.766 2.74887 5.12765 0
M  V30 2500 H 228.646 4.55073 6.38654 0
M  V30 2501 N 226.149 -1.5696 0.141893 0
M  V30 2502 C 227.099 -2.13074 -0.811383 0
M  V30 2503 C 228.083 -1.05726 -1.21288 0
M  V30 2504 O 229.275 -1.31914 -1.18015 0
M  V30 2505 C 226.404 -2.75186 -2.0525 0
M  V30 2506 C 225.49 -3.8965 -1.67432 0
M  V30 2507 N 225.881 -4.95733 -1.0041 0
M  V30 2508 C 224.179 -4.00262 -1.96739 0
M  V30 2509 C 224.88 -5.75858 -0.822345 0
M  V30 2510 N 223.856 -5.26452 -1.3546 0
M  V30 2511 H 227.658 -2.92465 -0.290031 0
M  V30 2512 H 225.172 -1.6229 -0.0598218 0
M  V30 2513 H 227.169 -3.13745 -2.74535 0
M  V30 2514 H 225.829 -1.97266 -2.57907 0
M  V30 2515 H 226.84 -5.13607 -0.665441 0
M  V30 2516 H 223.517 -3.33412 -2.51282 0
M  V30 2517 H 224.907 -6.71254 -0.294496 0
M  V30 2518 N 227.627 0.131896 -1.57047 0
M  V30 2519 C 228.855 0.856461 -1.88341 0
M  V30 2520 C 229.27 1.74042 -0.731757 0
M  V30 2521 O 228.627 1.80051 0.297945 0
M  V30 2522 C 228.678 1.70064 -3.18999 0
M  V30 2523 O 228.399 0.852278 -4.2973 0
M  V30 2524 C 229.9 2.53148 -3.63911 0
M  V30 2525 H 227.12 0.246885 -0.62393 0
M  V30 2526 H 229.664 0.120152 -2.04147 0
M  V30 2527 H 227.819 2.38984 -3.04902 0
M  V30 2528 H 228.233 1.43329 -5.04537 0
M  V30 2529 H 229.707 3.07931 -4.58129 0
M  V30 2530 H 230.184 3.29901 -2.89935 0
M  V30 2531 H 230.79 1.89492 -3.80753 0
M  V30 2532 N 229.106 1.52395 0.401703 0
M  V30 2533 C 230.331 1.70972 1.17403 0
M  V30 2534 C 230.756 0.421615 1.83314 0
M  V30 2535 O 230.114 -0.621564 1.70312 0
M  V30 2536 C 230.162 2.85151 2.20728 0
M  V30 2537 O 229.266 2.51238 3.27037 0
M  V30 2538 H 228.607 0.568927 0.342372 0
M  V30 2539 H 231.137 1.99131 0.469891 0
M  V30 2540 H 231.147 3.10279 2.64936 0
M  V30 2541 H 229.822 3.78603 1.7214 0
M  V30 2542 H 228.399 2.36808 2.88057 0
M  V30 2543 N 230.584 -0.659388 1.43143 0
M  V30 2544 C 231.531 -1.77249 1.47822 0
M  V30 2545 C 232.501 -1.62818 0.328558 0
M  V30 2546 O 233.686 -1.83151 0.534838 0
M  V30 2547 C 230.826 -3.15371 1.40126 0
M  V30 2548 C 229.939 -3.4098 2.65249 0
M  V30 2549 C 229.074 -4.68915 2.49584 0
M  V30 2550 C 228.113 -4.87608 3.70006 0
M  V30 2551 N 227.25 -6.06796 3.53189 0
M  V30 2552 H 232.09 -1.72584 2.42938 0
M  V30 2553 H 229.627 -0.842297 1.20598 0
M  V30 2554 H 231.585 -3.9521 1.33659 0
M  V30 2555 H 230.215 -3.19121 0.485964 0
M  V30 2556 H 229.267 -2.55282 2.8202 0
M  V30 2557 H 230.579 -3.50681 3.54717 0
M  V30 2558 H 229.733 -5.56871 2.4079 0
M  V30 2559 H 228.472 -4.61524 1.5763 0
M  V30 2560 H 227.477 -3.9809 3.79215 0
M  V30 2561 H 228.702 -4.96834 4.62961 0
M  V30 2562 H 226.648 -6.00549 2.63965 0
M  V30 2563 H 226.565 -6.17428 4.36255 0
M  V30 2564 H 227.833 -6.9739 3.48236 0
M  V30 2565 N 232.062 -1.29571 -0.897171 0
M  V30 2566 C 233.31 -1.17456 -1.64464 0
M  V30 2567 C 233.631 0.273698 -1.9307 0
M  V30 2568 O 232.901 1.18684 -1.55855 0
M  V30 2569 H 231.481 -0.431706 -0.609622 0
M  V30 2570 H 234.143 -1.62531 -1.07562 0
M  V30 2571 H 233.239 -1.72648 -2.59998 0
M  V30 2572 N 233.54 1.10788 -1.12088 0
M  V30 2573 C 234.817 1.79136 -0.785476 0
M  V30 2574 C 235.197 1.98246 0.725377 0
M  V30 2575 O 234.545 1.57258 1.65778 0
M  V30 2576 C 234.755 3.12375 -1.55636 0
M  V30 2577 C 236.103 3.8731 -1.74001 0
M  V30 2578 O 237.127 3.22085 -1.52117 0
M  V30 2579 O 235.986 5.04369 -2.10415 0
M  V30 2580 H 233.08 0.776226 -0.285311 0
M  V30 2581 H 235.626 1.1747 -1.2247 0
M  V30 2582 H 234.398 2.93863 -2.5838 0
M  V30 2583 H 234.021 3.81758 -1.11114 0
M  V30 2584 N 235.018 0.912232 1.28515 0
M  V30 2585 C 236.246 0.560416 1.99166 0
M  V30 2586 C 236.661 -0.857927 1.68182 0
M  V30 2587 O 236.018 -1.56805 0.933733 0
M  V30 2588 C 236.069 0.758142 3.53461 0
M  V30 2589 O 235.79 2.12067 3.83352 0
M  V30 2590 C 237.291 0.412954 4.41372 0
M  V30 2591 H 234.511 0.213805 0.636026 0
M  V30 2592 H 237.055 1.22502 1.63749 0
M  V30 2593 H 235.21 0.140556 3.87145 0
M  V30 2594 H 235.624 2.15923 4.77993 0
M  V30 2595 H 237.098 0.60208 5.48707 0
M  V30 2596 H 237.575 -0.65073 4.34353 0
M  V30 2597 H 238.181 1.00802 4.13182 0
M  V30 2598 N 236.496 -1.42363 0.676048 0
M  V30 2599 C 237.745 -2.00745 0.196037 0
M  V30 2600 C 238.058 -1.54083 -1.20489 0
M  V30 2601 O 239.264 -2.04891 -1.78134 0
M  V30 2602 C 237.72 -3.58651 0.299616 0
M  V30 2603 C 237.328 -4.143 1.70468 0
M  V30 2604 C 239.072 -4.24326 -0.121619 0
M  V30 2605 C 236.979 -5.64574 1.76096 0
M  V30 2606 H 235.909 -0.750787 0.0695301 0
M  V30 2607 H 238.56 -1.63072 0.841412 0
M  V30 2608 H 236.942 -3.93833 -0.413673 0
M  V30 2609 H 238.116 -3.90575 2.44515 0
M  V30 2610 H 236.431 -3.61081 2.07387 0
M  V30 2611 H 239.028 -5.34607 -0.0997362 0
M  V30 2612 H 239.371 -3.99897 -1.15708 0
M  V30 2613 H 239.904 -3.94108 0.540706 0
M  V30 2614 H 236.643 -5.93804 2.77628 0
M  V30 2615 H 236.163 -5.90286 1.06406 0
M  V30 2616 H 237.842 -6.29013 1.51496 0
M  V30 2617 N 237.974 -0.419461 -1.51915 0
M  V30 2618 C 239.251 0.211999 -1.94448 0
M  V30 2619 C 239.631 1.61703 -1.35703 0
M  V30 2620 O 238.979 2.22102 -0.536931 0
M  V30 2621 C 239.189 0.207872 -3.4838 0
M  V30 2622 C 240.537 0.422192 -4.22496 0
M  V30 2623 O 241.561 0.286778 -3.55044 0
M  V30 2624 O 240.42 0.690009 -5.42126 0
M  V30 2625 H 237.514 0.139586 -0.815135 0
M  V30 2626 H 240.06 -0.476151 -1.62883 0
M  V30 2627 H 238.832 -0.775102 -3.83546 0
M  V30 2628 H 238.455 0.939688 -3.86336 0
M  V30 2629 N 239.452 1.56882 -0.150215 0
M  V30 2630 C 240.384 2.14057 0.819286 0
M  V30 2631 C 241.397 1.09082 1.20851 0
M  V30 2632 O 242.586 1.36347 1.15203 0
M  V30 2633 C 239.686 2.65102 2.11127 0
M  V30 2634 C 238.859 3.94511 1.88891 0
M  V30 2635 C 237.918 4.30834 3.02107 0
M  V30 2636 O 236.944 4.99099 2.73659 0
M  V30 2637 N 238.146 3.90676 4.29363 0
M  V30 2638 H 240.911 2.97871 0.330618 0
M  V30 2639 H 238.472 1.61866 0.0332538 0
M  V30 2640 H 240.464 2.86411 2.85921 0
M  V30 2641 H 239.034 1.85994 2.51247 0
M  V30 2642 H 238.254 3.81795 0.981152 0
M  V30 2643 H 239.542 4.7907 1.71376 0
M  V30 2644 H 238.94 3.35677 4.55343 0
M  V30 2645 H 237.497 4.1703 5.00928 0
M  V30 2646 N 240.93 -0.123565 1.57115 0
M  V30 2647 C 241.86 -1.15309 2.03042 0
M  V30 2648 C 242.841 -1.43454 0.914061 0
M  V30 2649 O 244.026 -1.53973 1.18347 0
M  V30 2650 C 241.156 -2.48043 2.43089 0
M  V30 2651 C 240.11 -2.3437 3.58127 0
M  V30 2652 C 239.436 -3.72026 3.84059 0
M  V30 2653 C 240.736 -1.80804 4.90007 0
M  V30 2654 H 242.43 -0.771102 2.893 0
M  V30 2655 H 239.976 -0.369479 1.39179 0
M  V30 2656 H 241.929 -3.20311 2.73823 0
M  V30 2657 H 240.653 -2.88122 1.53796 0
M  V30 2658 H 239.312 -1.64551 3.27595 0
M  V30 2659 H 238.96 -4.09582 2.91979 0
M  V30 2660 H 238.66 -3.63732 4.6149 0
M  V30 2661 H 240.184 -4.45806 4.1724 0
M  V30 2662 H 241.598 -2.42886 5.19307 0
M  V30 2663 H 239.995 -1.83343 5.71407 0
M  V30 2664 H 241.065 -0.76528 4.78823 0
M  V30 2665 N 242.408 -1.52605 -0.393616 0
M  V30 2666 C 243.656 -1.67093 -1.13685 0
M  V30 2667 C 243.977 -0.411011 -1.90619 0
M  V30 2668 O 243.247 0.574491 -1.87287 0
M  V30 2669 H 241.827 -0.615923 -0.422668 0
M  V30 2670 H 244.489 -1.89704 -0.447039 0
M  V30 2671 H 243.585 -2.51922 -1.84232 0
M  V30 2672 N 243.887 0.651787 -1.4349 0
M  V30 2673 C 245.164 1.40909 -1.35661 0
M  V30 2674 C 245.544 2.11099 -0.00511733 0
M  V30 2675 O 244.892 2.04892 1.0115 0
M  V30 2676 C 245.102 2.3926 -2.54078 0
M  V30 2677 C 246.45 3.03217 -2.97228 0
M  V30 2678 O 247.474 2.49588 -2.54135 0
M  V30 2679 O 246.333 4.00455 -3.71885 0
M  V30 2680 H 243.427 0.629625 -0.536191 0
M  V30 2681 H 245.973 0.678575 -1.55542 0
M  V30 2682 H 244.745 1.86352 -3.44076 0
M  V30 2683 H 244.368 3.1976 -2.36303 0
M  V30 2684 N 245.365 1.30045 0.890287 0
M  V30 2685 C 246.611 1.18737 1.64406 0
M  V30 2686 C 246.944 -0.258525 1.92472 0
M  V30 2687 O 246.219 -1.18562 1.54186 0
M  V30 2688 C 246.502 2.01087 2.98724 0
M  V30 2689 C 246.355 3.53867 2.77665 0
M  V30 2690 C 247.674 1.84457 3.9958 0
M  V30 2691 H 244.793 0.432698 0.596608 0
M  V30 2692 H 247.435 1.5962 1.0306 0
M  V30 2693 H 245.585 1.66349 3.51084 0
M  V30 2694 H 247.257 3.98637 2.32133 0
M  V30 2695 H 245.5 3.78318 2.12269 0
M  V30 2696 H 246.171 4.06772 3.7315 0
M  V30 2697 H 248.647 2.14817 3.56361 0
M  V30 2698 H 247.523 2.44411 4.91482 0
M  V30 2699 H 247.784 0.802276 4.3476 0
M  V30 2700 N 246.843 -1.10192 1.12674 0
M  V30 2701 C 248.092 -1.81573 0.8783 0
M  V30 2702 C 248.405 -1.86249 -0.597557 0
M  V30 2703 O 249.611 -2.5386 -0.962681 0
M  V30 2704 C 248.067 -3.26149 1.52167 0
M  V30 2705 C 247.675 -3.29763 3.03249 0
M  V30 2706 C 249.419 -4.0234 1.3536 0
M  V30 2707 C 247.326 -4.68815 3.60508 0
M  V30 2708 H 246.256 -0.680394 0.324931 0
M  V30 2709 H 248.907 -1.23902 1.35353 0
M  V30 2710 H 247.289 -3.83832 0.974104 0
M  V30 2711 H 248.463 -2.8189 3.6452 0
M  V30 2712 H 246.778 -2.67059 3.19481 0
M  V30 2713 H 249.375 -5.05058 1.75559 0
M  V30 2714 H 249.718 -4.15235 0.297554 0
M  V30 2715 H 250.251 -3.51079 1.87052 0
M  V30 2716 H 246.99 -4.61121 4.65884 0
M  V30 2717 H 246.51 -5.17045 3.04014 0
M  V30 2718 H 248.189 -5.37785 3.59717 0
M  V30 2719 N 248.321 -0.919034 -1.28029 0
M  V30 2720 C 249.231 -0.416756 -2.30869 0
M  V30 2721 C 250.247 0.498235 -1.66714 0
M  V30 2722 O 251.423 0.383144 -1.97722 0
M  V30 2723 C 248.488 0.330274 -3.45123 0
M  V30 2724 C 247.549 -0.618578 -4.2482 0
M  V30 2725 C 246.782 0.0928959 -5.33619 0
M  V30 2726 O 247.005 1.31375 -5.55065 0
M  V30 2727 O 245.939 -0.574499 -5.99152 0
M  V30 2728 H 249.765 -1.27043 -2.75851 0
M  V30 2729 H 247.35 -0.684052 -1.3282 0
M  V30 2730 H 249.232 0.751972 -4.14636 0
M  V30 2731 H 247.907 1.1597 -3.02213 0
M  V30 2732 H 246.814 -1.08978 -3.57875 0
M  V30 2733 H 248.147 -1.41497 -4.71423 0
M  V30 2734 N 249.799 1.42003 -0.683588 0
M  V30 2735 C 250.731 2.29183 0.0283068 0
M  V30 2736 C 251.744 1.4415 0.756611 0
M  V30 2737 O 252.933 1.67779 0.609306 0
M  V30 2738 C 250.033 3.21765 1.06398 0
M  V30 2739 C 249.206 4.35496 0.407723 0
M  V30 2740 C 248.265 5.08737 1.34437 0
M  V30 2741 O 247.291 5.62948 0.841318 0
M  V30 2742 N 248.493 5.15075 2.67728 0
M  V30 2743 H 251.258 2.9092 -0.720105 0
M  V30 2744 H 248.819 1.53025 -0.528682 0
M  V30 2745 H 250.811 3.6763 1.69204 0
M  V30 2746 H 249.381 2.61418 1.71404 0
M  V30 2747 H 248.601 3.92165 -0.400012 0
M  V30 2748 H 249.889 5.08776 -0.0490956 0
M  V30 2749 H 249.287 4.72457 3.11129 0
M  V30 2750 H 247.844 5.64556 3.2576 0
M  V30 2751 N 251.277 0.427512 1.51691 0
M  V30 2752 C 252.526 -0.143679 2.01188 0
M  V30 2753 C 252.839 -1.44642 1.31674 0
M  V30 2754 O 254.045 -2.09997 1.72086 0
M  V30 2755 C 252.501 -0.306602 3.58592 0
M  V30 2756 C 252.109 0.985125 4.37035 0
M  V30 2757 C 253.853 -0.832091 4.16265 0
M  V30 2758 C 251.76 0.788382 5.86122 0
M  V30 2759 H 250.69 -0.0574701 0.751807 0
M  V30 2760 H 253.341 0.555772 1.74881 0
M  V30 2761 H 251.723 -1.06882 3.81303 0
M  V30 2762 H 252.897 1.75492 4.26074 0
M  V30 2763 H 251.212 1.4384 3.90767 0
M  V30 2764 H 253.809 -0.995617 5.25349 0
M  V30 2765 H 254.152 -1.81186 3.74803 0
M  V30 2766 H 254.685 -0.128444 3.97593 0
M  V30 2767 H 251.424 1.74025 6.31978 0
M  V30 2768 H 250.944 0.0582143 5.99772 0
M  V30 2769 H 252.623 0.437722 6.45518 0
M  V30 2770 N 252.755 -1.56801 0.158532 0
M  V30 2771 C 253.702 -2.17337 -0.776729 0
M  V30 2772 C 254.672 -1.1096 -1.23601 0
M  V30 2773 O 255.857 -1.39054 -1.30647 0
M  V30 2774 C 252.997 -2.80822 -2.00582 0
M  V30 2775 C 252.11 -4.01624 -1.59129 0
M  V30 2776 C 251.245 -4.53072 -2.77306 0
M  V30 2777 C 250.284 -5.66314 -2.32282 0
M  V30 2778 N 249.421 -6.12329 -3.43508 0
M  V30 2779 H 254.261 -2.96918 -0.253701 0
M  V30 2780 H 251.798 -1.46661 -0.113504 0
M  V30 2781 H 253.756 -3.15779 -2.72652 0
M  V30 2782 H 252.386 -2.03866 -2.50277 0
M  V30 2783 H 251.438 -3.72571 -0.767806 0
M  V30 2784 H 252.75 -4.83633 -1.2207 0
M  V30 2785 H 251.904 -4.90145 -3.57551 0
M  V30 2786 H 250.643 -3.70095 -3.17617 0
M  V30 2787 H 249.648 -5.28806 -1.5048 0
M  V30 2788 H 250.873 -6.51085 -1.93043 0
M  V30 2789 H 248.819 -5.32284 -3.83418 0
M  V30 2790 H 248.736 -6.89293 -3.105 0
M  V30 2791 H 250.004 -6.5405 -4.24075 0
M  V30 2792 N 254.233 0.115231 -1.57178 0
M  V30 2793 C 255.461 0.836437 -1.89239 0
M  V30 2794 C 255.876 1.73256 -0.750175 0
M  V30 2795 O 255.233 1.80357 0.278832 0
M  V30 2796 C 255.284 1.66671 -3.20785 0
M  V30 2797 O 255.005 0.806652 -4.3061 0
M  V30 2798 C 256.506 2.49274 -3.66575 0
M  V30 2799 H 253.726 0.240253 -0.626514 0
M  V30 2800 H 256.27 0.0984932 -2.04263 0
M  V30 2801 H 254.425 2.35737 -3.0742 0
M  V30 2802 H 254.839 1.37969 -5.06028 0
M  V30 2803 H 256.313 3.03055 -4.6137 0
M  V30 2804 H 256.79 3.26807 -2.93417 0
M  V30 2805 H 257.396 1.85443 -3.82741 0
M  V30 2806 N 255.711 1.52812 0.385517 0
M  V30 2807 C 256.661 1.74219 1.47078 0
M  V30 2808 C 257.645 0.59632 1.49442 0
M  V30 2809 O 258.837 0.85428 1.5502 0
M  V30 2810 C 255.966 1.9176 2.84751 0
M  V30 2811 C 255.052 3.12289 2.86943 0
M  V30 2812 N 255.443 4.34575 2.58802 0
M  V30 2813 C 253.741 3.12605 3.1811 0
M  V30 2814 C 254.442 5.162 2.68166 0
M  V30 2815 N 253.418 4.51964 3.02043 0
M  V30 2816 H 257.22 2.6639 1.24152 0
M  V30 2817 H 254.734 1.51166 0.593504 0
M  V30 2818 H 256.731 2.05218 3.62893 0
M  V30 2819 H 255.391 1.00805 3.08656 0
M  V30 2820 H 256.402 4.62649 2.32759 0
M  V30 2821 H 253.079 2.31472 3.47458 0
M  V30 2822 H 254.469 6.23689 2.49923 0
M  V30 2823 N 257.189 -0.644168 1.43834 0
M  V30 2824 C 258.6 -1.22554 1.40845 0
M  V30 2825 C 258.951 -1.9585 0.117115 0
M  V30 2826 O 258.076 -2.01734 -0.783086 0
M  V30 2827 C 258.671 -2.22907 2.55143 0
M  V30 2828 C 257.23 -2.76501 2.5539 0
M  V30 2829 C 256.377 -1.51287 2.32396 0
M  V30 2830 H 259.328 -0.43563 1.52604 0
M  V30 2831 H 259.349 -3.05259 2.2715 0
M  V30 2832 H 258.861 -1.69533 3.49114 0
M  V30 2833 H 256.962 -3.33914 1.65324 0
M  V30 2834 H 257.075 -3.23429 3.53455 0
M  V30 2835 H 255.439 -1.78957 1.81236 0
M  V30 2836 H 256.222 -0.998336 3.28463 0
M  V30 2837 N 258.668 -1.30515 -0.883378 0
M  V30 2838 C 259.898 -1.22182 -1.66599 0
M  V30 2839 C 260.306 0.217507 -1.87946 0
M  V30 2840 O 259.649 1.1554 -1.42815 0
M  V30 2841 C 259.711 -1.88146 -3.06335 0
M  V30 2842 C 259.375 -3.37476 -3.08154 0
M  V30 2843 C 260.372 -4.33443 -2.87094 0
M  V30 2844 C 258.057 -3.7895 -3.29701 0
M  V30 2845 C 260.051 -5.68858 -2.8754 0
M  V30 2846 C 257.738 -5.14482 -3.29776 0
M  V30 2847 C 258.736 -6.09246 -3.0872 0
M  V30 2848 O 258.424 -7.42302 -3.08615 0
M  V30 2849 H 258.156 -0.423898 -0.52658 0
M  V30 2850 H 260.71 -1.72703 -1.11188 0
M  V30 2851 H 258.94 -1.32157 -3.63416 0
M  V30 2852 H 260.629 -1.7391 -3.66756 0
M  V30 2853 H 261.395 -4.02733 -2.70243 0
M  V30 2854 H 257.274 -3.05631 -3.45124 0
M  V30 2855 H 260.818 -6.428 -2.71024 0
M  V30 2856 H 256.715 -5.44832 -3.46163 0
M  V30 2857 H 257.483 -7.5131 -3.24769 0
M  V30 2858 N 260.146 1.09593 -1.13257 0
M  V30 2859 C 261.371 1.8604 -0.916732 0
M  V30 2860 C 261.796 1.80504 0.529146 0
M  V30 2861 O 261.154 1.18127 1.37534 0
M  V30 2862 C 261.202 3.32017 -1.40703 0
M  V30 2863 O 260.306 4.08141 -0.591153 0
M  V30 2864 H 259.647 0.576943 -0.328683 0
M  V30 2865 H 262.177 1.38405 -1.50682 0
M  V30 2866 H 262.187 3.82865 -1.4099 0
M  V30 2867 H 260.862 3.35361 -2.45979 0
M  V30 2868 H 259.439 3.67084 -0.656005 0
M  V30 2869 N 261.624 0.925811 1.2754 0
M  V30 2870 C 263.04 0.625767 1.46821 0
M  V30 2871 C 263.24 -0.825506 1.83814 0
M  V30 2872 O 262.296 -1.60356 1.95044 0
M  V30 2873 C 263.609 1.57402 2.56213 0
M  V30 2874 C 265.157 1.58204 2.70075 0
M  V30 2875 C 265.632 2.51721 3.82623 0
M  V30 2876 N 267.123 2.49917 3.89994 0
M  V30 2877 C 267.858 3.18968 4.76494 0
M  V30 2878 N 267.354 3.97391 5.67496 0
M  V30 2879 N 269.147 3.07996 4.70208 0
M  V30 2880 H 261.298 1.86409 1.01811 0
M  V30 2881 H 263.561 0.800213 0.508295 0
M  V30 2882 H 263.267 2.60925 2.35819 0
M  V30 2883 H 263.141 1.31428 3.53563 0
M  V30 2884 H 265.528 0.554124 2.89851 0
M  V30 2885 H 265.609 1.88226 1.73218 0
M  V30 2886 H 265.253 3.54622 3.63601 0
M  V30 2887 H 265.183 2.18996 4.78903 0
M  V30 2888 H 267.674 1.9296 3.24923 0
M  V30 2889 H 267.987 4.4707 6.30356 0
M  V30 2890 H 266.332 4.01495 5.67298 0
M  V30 2891 H 269.523 2.46223 3.9811 0
M  V30 2892 H 269.696 3.6208 5.37403 0
M  V30 2893 N 263.102 -1.41638 0.69111 0
M  V30 2894 C 264.518 -1.55435 0.362224 0
M  V30 2895 C 264.718 -1.66754 -1.13117 0
M  V30 2896 O 263.774 -1.64348 -1.91692 0
M  V30 2897 C 265.087 -2.79588 1.10684 0
M  V30 2898 C 266.635 -2.9338 1.09075 0
M  V30 2899 C 267.11 -4.20414 1.81703 0
M  V30 2900 N 268.601 -4.27362 1.7865 0
M  V30 2901 C 269.336 -5.24507 2.31689 0
M  V30 2902 N 268.832 -6.27708 2.93179 0
M  V30 2903 N 270.625 -5.16416 2.2197 0
M  V30 2904 H 262.776 -1.32536 1.65976 0
M  V30 2905 H 265.039 -0.639115 0.700168 0
M  V30 2906 H 264.745 -2.77419 2.16175 0
M  V30 2907 H 264.619 -3.70973 0.682545 0
M  V30 2908 H 267.006 -2.95067 0.0441238 0
M  V30 2909 H 267.087 -2.0318 1.55407 0
M  V30 2910 H 266.731 -4.19488 2.86343 0
M  V30 2911 H 266.661 -5.09578 1.32808 0
M  V30 2912 H 269.152 -3.53415 1.33815 0
M  V30 2913 H 269.465 -6.98217 3.31229 0
M  V30 2914 H 267.81 -6.28223 2.97255 0
M  V30 2915 H 271.001 -4.34716 1.73607 0
M  V30 2916 H 271.174 -5.91958 2.63609 0
M  V30 2917 N 264.58 -0.43555 -1.51462 0
M  V30 2918 C 265.51 0.367376 -2.30592 0
M  V30 2919 C 266.491 1.02263 -1.35928 0
M  V30 2920 O 267.676 1.02661 -1.64847 0
M  V30 2921 C 264.806 1.46983 -3.14664 0
M  V30 2922 C 263.76 0.938161 -4.17591 0
M  V30 2923 C 263.086 2.13622 -4.90173 0
M  V30 2924 C 264.386 -0.0261621 -5.22293 0
M  V30 2925 H 266.08 -0.292969 -2.97963 0
M  V30 2926 H 263.626 -0.14234 -1.43295 0
M  V30 2927 H 265.579 2.03873 -3.688 0
M  V30 2928 H 264.303 2.15843 -2.4511 0
M  V30 2929 H 262.962 0.391481 -3.64504 0
M  V30 2930 H 262.61 2.81098 -4.17124 0
M  V30 2931 H 262.31 1.78688 -5.59772 0
M  V30 2932 H 263.834 2.7107 -5.47132 0
M  V30 2933 H 265.248 0.452384 -5.71512 0
M  V30 2934 H 263.645 -0.287992 -5.99409 0
M  V30 2935 H 264.715 -0.963391 -4.75233 0
M  V30 2936 N 266.058 1.56714 -0.166846 0
M  V30 2937 C 267.307 1.95922 0.479318 0
M  V30 2938 C 267.62 1.05529 1.6469 0
M  V30 2939 O 268.826 1.34399 2.35901 0
M  V30 2940 C 267.282 3.48359 0.90412 0
M  V30 2941 C 266.89 4.47369 -0.237621 0
M  V30 2942 C 268.634 3.96394 1.51896 0
M  V30 2943 C 266.541 5.91039 0.206561 0
M  V30 2944 H 265.471 0.731495 0.18284 0
M  V30 2945 H 268.122 1.81728 -0.254363 0
M  V30 2946 H 266.504 3.57955 1.69365 0
M  V30 2947 H 267.678 4.49485 -1.01489 0
M  V30 2948 H 265.993 4.09366 -0.762128 0
M  V30 2949 H 268.59 5.01186 1.86325 0
M  V30 2950 H 268.933 3.39075 2.41524 0
M  V30 2951 H 269.466 3.89796 0.79395 0
M  V30 2952 H 266.205 6.52221 -0.654834 0
M  V30 2953 H 265.725 5.9224 0.949282 0
M  V30 2954 H 267.404 6.43707 0.651939 0
M  V30 2955 N 267.536 -0.106894 1.57237 0
M  V30 2956 C 268.782 -0.81373 1.85759 0
M  V30 2957 C 269.115 -1.78952 0.754315 0
M  V30 2958 O 268.39 -1.93029 -0.23879 0
M  V30 2959 C 268.673 -1.55293 3.24894 0
M  V30 2960 C 268.526 -0.595929 4.45835 0
M  V30 2961 C 269.845 -2.5063 3.61763 0
M  V30 2962 H 266.964 -0.294369 0.67566 0
M  V30 2963 H 269.606 -0.0776472 1.89841 0
M  V30 2964 H 267.756 -2.1804 3.21544 0
M  V30 2965 H 269.428 0.0236262 4.61294 0
M  V30 2966 H 267.671 0.0916191 4.33703 0
M  V30 2967 H 268.342 -1.15004 5.39887 0
M  V30 2968 H 270.818 -1.97982 3.65981 0
M  V30 2969 H 269.694 -2.99376 4.60071 0
M  V30 2970 H 269.955 -3.3385 2.89821 0
M  V30 2971 N 269.014 -1.53014 -0.377408 0
M  V30 2972 C 270.239 -1.72818 -1.14668 0
M  V30 2973 C 270.664 -0.450725 -1.8262 0
M  V30 2974 O 270.022 0.59439 -1.7128 0
M  V30 2975 C 270.07 -2.88627 -2.16164 0
M  V30 2976 O 269.174 -2.56409 -3.22998 0
M  V30 2977 H 268.515 -0.574301 -0.333278 0
M  V30 2978 H 271.045 -1.99853 -0.438152 0
M  V30 2979 H 271.055 -3.14455 -2.59966 0
M  V30 2980 H 269.73 -3.81294 -1.66095 0
M  V30 2981 H 268.307 -2.4136 -2.84253 0
M  V30 2982 N 270.492 0.636531 -1.44174 0
M  V30 2983 C 271.455 1.73063 -1.50273 0
M  V30 2984 C 272.455 1.56113 -0.385397 0
M  V30 2985 O 273.645 1.61707 -0.64781 0
M  V30 2986 C 270.777 3.12096 -1.37145 0
M  V30 2987 H 271.97 1.69031 -2.47727 0
M  V30 2988 H 269.523 0.849706 -1.31186 0
M  V30 2989 H 270.258 3.21728 -0.407636 0
M  V30 2990 H 270.043 3.25805 -2.18159 0
M  V30 2991 H 271.533 3.91846 -1.44382 0
M  V30 2992 N 271.97 1.30982 0.876444 0
M  V30 2993 C 273.216 1.21484 1.63136 0
M  V30 2994 C 273.571 -0.226339 1.91064 0
M  V30 2995 O 272.864 -1.15788 1.52656 0
M  V30 2996 C 273.058 1.98572 2.9716 0
M  V30 2997 C 272.887 3.50039 2.82317 0
M  V30 2998 C 271.657 4.19393 2.81847 0
M  V30 2999 C 273.855 4.45111 2.57644 0
M  V30 3000 N 271.837 5.57061 2.57985 0
M  V30 3001 C 273.208 5.70402 2.42986 0
M  V30 3002 C 275.263 4.3461 2.42937 0
M  V30 3003 C 273.966 6.8638 2.15115 0
M  V30 3004 C 275.992 5.50365 2.16454 0
M  V30 3005 C 275.354 6.74642 2.02578 0
M  V30 3006 H 271.453 0.499632 0.601575 0
M  V30 3007 H 274.037 1.65094 1.03209 0
M  V30 3008 H 272.208 1.5734 3.55104 0
M  V30 3009 H 273.94 1.81146 3.61895 0
M  V30 3010 H 270.695 3.71303 2.93991 0
M  V30 3011 H 271.119 6.29529 2.49043 0
M  V30 3012 H 275.761 3.39199 2.52396 0
M  V30 3013 H 273.479 7.81824 2.04394 0
M  V30 3014 H 277.065 5.44154 2.05884 0
M  V30 3015 H 275.945 7.62699 1.82374 0
M  V30 3016 N 273.449 -1.08991 1.13837 0
M  V30 3017 C 274.397 -2.17841 0.815347 0
M  V30 3018 C 275.391 -1.68164 -0.204233 0
M  V30 3019 O 276.597 -1.79897 -0.0609304 0
M  V30 3020 H 272.972 -0.710654 0.245915 0
M  V30 3021 H 274.943 -2.42315 1.74143 0
M  V30 3022 C 273.692 -3.46381 0.302614 0
M  V30 3023 H 273.015 -3.84979 1.0785 0
M  V30 3024 H 274.455 -4.23844 0.115074 0
M  V30 3025 C 272.914 -3.22556 -0.972591 0
M  V30 3026 O 273.444 -3.45599 -2.04754 0
M  V30 3027 N 271.65 -2.76134 -0.905455 0
M  V30 3028 H 271.197 -2.57582 -0.0305421 0
M  V30 3029 H 271.155 -2.60571 -1.75926 0
M  V30 3030 N 274.927 -0.932562 -1.27047 0
M  V30 3031 C 276.338 -0.619451 -1.76124 0
M  V30 3032 C 276.689 0.865397 -1.76083 0
M  V30 3033 O 275.814 1.67722 -1.36742 0
M  V30 3034 C 276.409 -1.11771 -3.19832 0
M  V30 3035 C 274.968 -0.855174 -3.66557 0
M  V30 3036 C 274.115 -1.27362 -2.46321 0
M  V30 3037 H 277.066 -1.11181 -1.13245 0
M  V30 3038 H 277.087 -0.46759 -3.77616 0
M  V30 3039 H 276.599 -2.19842 -3.1983 0
M  V30 3040 H 274.7 0.211524 -3.71999 0
M  V30 3041 H 274.813 -1.47613 -4.55793 0
M  V30 3042 H 273.177 -0.692119 -2.45116 0
M  V30 3043 H 273.96 -2.36307 -2.49025 0
M  V30 3044 N 276.405 1.4127 -0.698611 0
M  V30 3045 C 277.315 2.34573 -0.0357891 0
M  V30 3046 C 278.331 1.56393 0.762701 0
M  V30 3047 O 279.507 1.8886 0.699564 0
M  V30 3048 C 276.572 3.35159 0.887089 0
M  V30 3049 C 275.633 4.29225 0.0804634 0
M  V30 3050 C 274.866 5.25006 0.959387 0
M  V30 3051 O 275.089 5.26314 2.19886 0
M  V30 3052 O 274.023 6.00519 0.407439 0
M  V30 3053 H 277.849 2.92838 -0.804957 0
M  V30 3054 H 275.434 1.42175 -0.458966 0
M  V30 3055 H 277.316 3.9689 1.41621 0
M  V30 3056 H 275.991 2.79333 1.6357 0
M  V30 3057 H 274.898 3.70833 -0.493328 0
M  V30 3058 H 276.231 4.88157 -0.629547 0
M  V30 3059 N 277.883 0.443576 1.51229 0
M  V30 3060 C 279.16 -0.181038 1.9476 0
M  V30 3061 C 279.54 -1.59523 1.38259 0
M  V30 3062 O 278.888 -2.2122 0.572198 0
M  V30 3063 C 279.098 -0.152422 3.48667 0
M  V30 3064 C 280.446 -0.354923 4.23114 0
M  V30 3065 O 281.47 -0.230257 3.55455 0
M  V30 3066 O 280.329 -0.603674 5.43156 0
M  V30 3067 H 277.423 -0.1266 0.817252 0
M  V30 3068 H 279.969 0.502004 1.62105 0
M  V30 3069 H 278.741 0.836022 3.82265 0
M  V30 3070 H 278.364 -0.878107 3.87782 0
M  V30 3071 N 279.361 -1.56624 0.175154 0
M  V30 3072 C 280.607 -1.9729 -0.469506 0
M  V30 3073 C 280.94 -1.06128 -1.62636 0
M  V30 3074 O 280.215 -0.109183 -1.94193 0
M  V30 3075 C 280.498 -3.47375 -0.948804 0
M  V30 3076 C 280.351 -4.49317 0.208491 0
M  V30 3077 C 281.67 -4.00652 -1.82116 0
M  V30 3078 H 278.789 -0.717317 -0.16919 0
M  V30 3079 H 281.431 -1.88184 0.262062 0
M  V30 3080 H 279.581 -3.55267 -1.57219 0
M  V30 3081 H 281.253 -4.53482 0.845682 0
M  V30 3082 H 279.496 -4.25121 0.863395 0
M  V30 3083 H 280.167 -5.51741 -0.169059 0
M  V30 3084 H 282.643 -3.95416 -1.2956 0
M  V30 3085 H 281.519 -5.06075 -2.12554 0
M  V30 3086 H 281.78 -3.44699 -2.7683 0
M  V30 3087 N 280.839 0.0985539 -1.57292 0
M  V30 3088 C 282.25 0.653457 -1.74891 0
M  V30 3089 C 282.601 1.7929 -0.796838 0
M  V30 3090 O 281.726 2.16385 0.0254886 0
M  V30 3091 C 282.321 1.19216 -3.17133 0
M  V30 3092 C 280.88 1.69316 -3.36168 0
M  V30 3093 C 280.027 0.601294 -2.70702 0
M  V30 3094 H 282.978 -0.127497 -1.58187 0
M  V30 3095 H 282.999 2.06154 -3.19814 0
M  V30 3096 H 282.511 0.362635 -3.86402 0
M  V30 3097 H 280.612 2.5468 -2.71972 0
M  V30 3098 H 280.725 1.78853 -4.44464 0
M  V30 3099 H 279.089 1.0399 -2.32504 0
M  V30 3100 H 279.872 -0.217592 -3.4261 0
M  V30 3101 N 282.317 1.53212 0.369288 0
M  V30 3102 C 283.545 1.73119 1.13303 0
M  V30 3103 C 283.96 0.458455 1.83149 0
M  V30 3104 O 283.317 -0.568403 1.73423 0
M  V30 3105 C 283.368 2.89413 2.16616 0
M  V30 3106 O 283.089 4.11761 1.49614 0
M  V30 3107 C 284.59 3.21161 3.05566 0
M  V30 3108 H 281.81 0.579107 0.338934 0
M  V30 3109 H 284.354 1.99942 0.429338 0
M  V30 3110 H 282.509 2.64994 2.82589 0
M  V30 3111 H 282.923 4.76858 2.18419 0
M  V30 3112 H 284.397 4.05949 3.74045 0
M  V30 3113 H 284.874 2.36369 3.70171 0
M  V30 3114 H 285.48 3.47492 2.45213 0
M  V30 3115 N 283.795 -0.628877 1.44509 0
M  V30 3116 C 284.728 -1.75367 1.46019 0
M  V30 3117 C 285.706 -1.59444 0.318787 0
M  V30 3118 O 286.89 -1.81297 0.516099 0
M  V30 3119 C 284.017 -3.12965 1.29501 0
M  V30 3120 C 283.063 -3.47532 2.47233 0
M  V30 3121 S 283.896 -3.44758 4.09758 0
M  V30 3122 C 285.052 -4.84973 3.95667 0
M  V30 3123 H 285.285 -1.7382 2.41193 0
M  V30 3124 H 282.818 -0.803686 1.31834 0
M  V30 3125 H 284.776 -3.92367 1.20658 0
M  V30 3126 H 283.437 -3.12049 0.358341 0
M  V30 3127 H 282.63 -4.47664 2.31544 0
M  V30 3128 H 282.232 -2.75598 2.52828 0
M  V30 3129 H 284.524 -5.74255 3.59496 0
M  V30 3130 H 285.467 -5.05716 4.95638 0
M  V30 3131 H 285.875 -4.59653 3.27688 0
M  V30 3132 N 285.273 -1.31445 -0.869486 0
M  V30 3133 C 286.236 -1.19094 -1.9583 0
M  V30 3134 C 287.236 -0.117906 -1.60367 0
M  V30 3135 O 288.426 -0.367208 -1.70286 0
M  V30 3136 C 285.558 -0.828165 -3.30688 0
M  V30 3137 H 286.751 -2.15842 -2.08212 0
M  V30 3138 H 284.304 -1.15063 -1.05784 0
M  V30 3139 H 285.039 0.138142 -3.24006 0
M  V30 3140 H 284.824 -1.6038 -3.578 0
M  V30 3141 H 286.314 -0.765658 -4.10521 0
M  V30 3142 N 286.751 1.08385 -1.14413 0
M  V30 3143 C 287.681 2.17321 -0.854044 0
M  V30 3144 C 288.662 1.69024 0.191049 0
M  V30 3145 O 289.847 1.94141 0.0476779 0
M  V30 3146 C 286.977 3.45719 -0.330983 0
M  V30 3147 C 285.931 4.07409 -1.31155 0
M  V30 3148 C 285.257 5.30762 -0.64778 0
M  V30 3149 C 286.557 4.48665 -2.67388 0
M  V30 3150 H 288.251 2.41845 -1.76498 0
M  V30 3151 H 285.797 1.16233 -0.850051 0
M  V30 3152 H 287.75 4.21241 -0.115645 0
M  V30 3153 H 286.474 3.2075 0.615381 0
M  V30 3154 H 285.133 3.33919 -1.51306 0
M  V30 3155 H 284.781 5.02078 0.304398 0
M  V30 3156 H 284.481 5.72992 -1.30207 0
M  V30 3157 H 286.005 6.08998 -0.441972 0
M  V30 3158 H 287.419 5.15364 -2.51143 0
M  V30 3159 H 285.816 5.01814 -3.29093 0
M  V30 3160 H 286.886 3.60543 -3.24248 0
M  V30 3161 N 288.23 0.939286 1.26551 0
M  V30 3162 C 289.641 0.628782 1.75793 0
M  V30 3163 C 289.992 -0.856046 1.7654 0
M  V30 3164 O 289.117 -1.66994 1.3763 0
M  V30 3165 C 289.712 1.13465 3.19235 0
M  V30 3166 C 288.271 0.874601 3.66098 0
M  V30 3167 C 287.418 1.28667 2.45642 0
M  V30 3168 H 290.369 1.1178 1.12654 0
M  V30 3169 H 290.39 0.487609 3.77363 0
M  V30 3170 H 289.902 2.21535 3.1866 0
M  V30 3171 H 288.003 -0.191793 3.72106 0
M  V30 3172 H 288.116 1.50028 4.55004 0
M  V30 3173 H 286.48 0.705109 2.44745 0
M  V30 3174 H 287.263 2.37625 2.47769 0
M  V30 3175 N 289.708 -1.40897 0.706093 0
M  V30 3176 C 291.119 -1.84023 0.315052 0
M  V30 3177 C 291.47 -1.5906 -1.14866 0
M  V30 3178 O 290.595 -1.06651 -1.88293 0
M  V30 3179 C 291.19 -3.34055 0.565038 0
M  V30 3180 C 289.749 -3.7571 0.227806 0
M  V30 3181 C 288.896 -2.64204 0.842122 0
M  V30 3182 H 291.847 -1.303 0.905963 0
M  V30 3183 H 291.868 -3.80107 -0.172843 0
M  V30 3184 H 291.38 -3.52192 1.63042 0
M  V30 3185 H 289.481 -3.63172 -0.832895 0
M  V30 3186 H 289.594 -4.74103 0.690174 0
M  V30 3187 H 287.958 -2.53255 0.270893 0
M  V30 3188 H 288.741 -2.85155 1.91158 0
M  V30 3189 N 291.186 -0.45159 -1.50991 0
M  V30 3190 C 292.426 0.109066 -2.04109 0
M  V30 3191 C 292.79 1.38716 -1.32747 0
M  V30 3192 O 293.991 2.02896 -1.76314 0
M  V30 3193 C 292.262 0.308354 -3.56067 0
M  V30 3194 S 293.821 0.830369 -4.30872 0
M  V30 3195 H 290.639 0.0251531 -0.710555 0
M  V30 3196 H 293.241 -0.614264 -1.85599 0
M  V30 3197 H 291.945 -0.627962 -4.05567 0
M  V30 3198 H 291.476 1.05836 -3.78896 0
M  V30 3199 H 293.491 2.10626 -4.49279 0
M  V30 3200 N 292.664 1.56529 -0.183458 0
M  V30 3201 C 293.614 2.1515 0.754605 0
M  V30 3202 C 294.598 1.08904 1.18443 0
M  V30 3203 O 295.79 1.34997 1.14476 0
M  V30 3204 C 292.919 2.80531 1.97881 0
M  V30 3205 C 292.005 3.93952 1.57043 0
M  V30 3206 N 292.396 4.98221 0.87231 0
M  V30 3207 C 290.694 4.05338 1.86057 0
M  V30 3208 C 291.395 5.77836 0.669377 0
M  V30 3209 N 290.371 5.29858 1.21454 0
M  V30 3210 H 294.173 2.93132 0.212387 0
M  V30 3211 H 291.687 1.62391 0.0167725 0
M  V30 3212 H 293.684 3.20914 2.6612 0
M  V30 3213 H 292.344 2.04035 2.52586 0
M  V30 3214 H 293.355 5.15191 0.529033 0
M  V30 3215 H 290.032 3.39957 2.42354 0
M  V30 3216 H 291.422 6.71799 0.116422 0
M  V30 3217 N 294.142 -0.090211 1.57342 0
M  V30 3218 C 295.37 -0.806224 1.90546 0
M  V30 3219 C 295.785 -1.72041 0.777644 0
M  V30 3220 O 295.142 -1.80778 -0.250103 0
M  V30 3221 C 295.193 -1.61546 3.23396 0
M  V30 3222 O 294.914 -0.738043 4.31839 0
M  V30 3223 C 296.415 -2.4341 3.70495 0
M  V30 3224 H 293.635 -0.230256 0.630257 0
M  V30 3225 H 296.179 -0.0659843 2.04394 0
M  V30 3226 H 294.334 -2.30816 3.11131 0
M  V30 3227 H 294.748 -1.29901 5.08159 0
M  V30 3228 H 296.222 -2.95676 4.66133 0
M  V30 3229 H 296.699 -3.22098 2.98579 0
M  V30 3230 H 297.305 -1.79331 3.85643 0
M  V30 3231 N 295.62 -1.53406 -0.361157 0
M  V30 3232 C 296.55 -1.83136 -1.44857 0
M  V30 3233 C 297.531 -0.685174 -1.5569 0
M  V30 3234 O 298.716 -0.93544 -1.70186 0
M  V30 3235 C 295.846 -2.02522 -2.82138 0
M  V30 3236 C 294.8 -3.18302 -2.86126 0
M  V30 3237 C 294.126 -3.22989 -4.26125 0
M  V30 3238 C 295.426 -4.56796 -2.53248 0
M  V30 3239 H 297.12 -2.74201 -1.20226 0
M  V30 3240 H 294.666 -1.31938 -0.576922 0
M  V30 3241 H 296.619 -2.21904 -3.58241 0
M  V30 3242 H 295.343 -1.08172 -3.08166 0
M  V30 3243 H 294.002 -2.98747 -2.12475 0
M  V30 3244 H 293.65 -2.26267 -4.49235 0
M  V30 3245 H 293.35 -4.00781 -4.29708 0
M  V30 3246 H 294.874 -3.44559 -5.04094 0
M  V30 3247 H 296.288 -4.7631 -3.19064 0
M  V30 3248 H 294.685 -5.36862 -2.68141 0
M  V30 3249 H 295.755 -4.61606 -1.48484 0
M  V30 3250 N 297.098 0.621204 -1.44841 0
M  V30 3251 C 298.328 1.40548 -1.51426 0
M  V30 3252 C 298.736 1.88673 -0.141083 0
M  V30 3253 O 298.079 1.62053 0.865128 0
M  V30 3254 C 298.141 2.65325 -2.42576 0
M  V30 3255 C 297.805 2.3893 -3.89566 0
M  V30 3256 C 298.802 2.00138 -4.79834 0
M  V30 3257 C 296.487 2.52263 -4.3436 0
M  V30 3258 C 298.481 1.75021 -6.129 0
M  V30 3259 C 296.168 2.2676 -5.67471 0
M  V30 3260 C 297.166 1.88199 -6.56559 0
M  V30 3261 O 296.854 1.62986 -7.87204 0
M  V30 3262 H 296.586 0.437122 -0.515655 0
M  V30 3263 H 299.14 0.765987 -1.90583 0
M  V30 3264 H 297.37 3.31947 -1.98364 0
M  V30 3265 H 299.059 3.27347 -2.39998 0
M  V30 3266 H 299.825 1.89386 -4.46495 0
M  V30 3267 H 295.704 2.81246 -3.65269 0
M  V30 3268 H 299.248 1.44848 -6.82396 0
M  V30 3269 H 295.145 2.37125 -6.00368 0
M  V30 3270 H 295.913 1.7715 -7.991 0
M  V30 3271 N 298.576 1.31904 0.862503 0
M  V30 3272 C 299.508 1.16005 1.97675 0
M  V30 3273 C 300.521 0.0971234 1.6251 0
M  V30 3274 O 301.71 0.345337 1.75128 0
M  V30 3275 C 298.81 0.751791 3.30456 0
M  V30 3276 C 297.983 1.90133 3.93914 0
M  V30 3277 C 297.042 1.4779 5.05019 0
M  V30 3278 O 296.068 2.18872 5.25437 0
M  V30 3279 N 297.27 0.369491 5.79323 0
M  V30 3280 H 300.035 2.11982 2.11857 0
M  V30 3281 H 297.596 1.24337 1.03691 0
M  V30 3282 H 299.588 0.451084 4.02178 0
M  V30 3283 H 298.158 -0.116593 3.12382 0
M  V30 3284 H 297.378 2.36896 3.15078 0
M  V30 3285 H 298.666 2.67111 4.33047 0
M  V30 3286 H 298.064 -0.222299 5.65263 0
M  V30 3287 H 296.621 0.128354 6.51674 0
M  V30 3288 N 300.054 -1.07777 1.14986 0
M  V30 3289 C 301.301 -1.8029 0.922056 0
M  V30 3290 C 301.629 -1.86531 -0.55105 0
M  V30 3291 O 300.884 -1.34189 -1.42449 0
M  V30 3292 C 301.183 -3.25495 1.47608 0
M  V30 3293 C 300.849 -3.39361 2.96893 0
M  V30 3294 C 299.511 -3.42852 3.37647 0
M  V30 3295 C 301.863 -3.42512 3.92854 0
M  V30 3296 C 299.191 -3.47094 4.73015 0
M  V30 3297 C 301.543 -3.4829 5.28088 0
M  V30 3298 C 300.207 -3.50058 5.68345 0
M  V30 3299 H 299.477 -0.659727 0.337404 0
M  V30 3300 H 302.124 -1.26854 1.43459 0
M  V30 3301 H 300.429 -3.81683 0.88463 0
M  V30 3302 H 302.126 -3.80168 1.27568 0
M  V30 3303 H 298.716 -3.37339 2.64387 0
M  V30 3304 H 302.9 -3.3904 3.62444 0
M  V30 3305 H 298.156 -3.46758 5.03556 0
M  V30 3306 H 302.33 -3.49675 6.02246 0
M  V30 3307 H 299.957 -3.53097 6.73221 0
M  V30 3308 N 301.532 -0.945985 -1.26051 0
M  V30 3309 C 302.762 -0.612136 -1.97323 0
M  V30 3310 C 303.17 0.818171 -1.70595 0
M  V30 3311 O 302.513 1.55777 -0.973613 0
M  V30 3312 C 302.575 -0.780347 -3.50929 0
M  V30 3313 C 302.239 -2.18619 -4.01317 0
M  V30 3314 C 303.236 -3.16209 -4.12683 0
M  V30 3315 C 300.921 -2.50805 -4.35203 0
M  V30 3316 C 302.915 -4.44085 -4.57238 0
M  V30 3317 C 300.602 -3.78912 -4.79446 0
M  V30 3318 C 301.6 -4.75365 -4.90425 0
M  V30 3319 O 301.288 -6.01191 -5.3369 0
M  V30 3320 H 301.02 -0.229134 -0.635982 0
M  V30 3321 H 303.574 -1.27036 -1.61404 0
M  V30 3322 H 301.804 -0.0649864 -3.86645 0
M  V30 3323 H 303.493 -0.448842 -4.03411 0
M  V30 3324 H 304.259 -2.92668 -3.86744 0
M  V30 3325 H 300.138 -1.76463 -4.2589 0
M  V30 3326 H 303.682 -5.19373 -4.65723 0
M  V30 3327 H 299.579 -4.02265 -5.0483 0
M  V30 3328 H 300.347 -6.04442 -5.51899 0
M  V30 3329 N 303.011 1.40521 -0.713556 0
M  V30 3330 C 304.257 2.01221 -0.252564 0
M  V30 3331 C 304.59 1.56444 1.1506 0
M  V30 3332 O 303.865 0.783597 1.78017 0
M  V30 3333 C 304.148 3.58582 -0.330332 0
M  V30 3334 C 304.001 4.13437 -1.77173 0
M  V30 3335 C 305.32 4.39079 0.299641 0
M  V30 3336 H 302.439 0.731077 -0.0932471 0
M  V30 3337 H 305.081 1.67026 -0.905673 0
M  V30 3338 H 303.231 3.87844 0.225737 0
M  V30 3339 H 304.903 3.9498 -2.38303 0
M  V30 3340 H 303.146 3.67801 -2.3001 0
M  V30 3341 H 303.817 5.22597 -1.77755 0
M  V30 3342 H 306.293 4.15735 -0.174139 0
M  V30 3343 H 305.169 5.4848 0.214771 0
M  V30 3344 H 305.43 4.19915 1.38288 0
M  V30 3345 N 304.489 0.459591 1.5075 0
M  V30 3346 C 305.437 -0.354678 2.2988 0
M  V30 3347 C 306.431 -1.00086 1.36672 0
M  V30 3348 O 307.637 -0.933277 1.53915 0
M  V30 3349 H 304.012 -0.13321 0.740107 0
M  V30 3350 H 305.983 0.333269 2.96533 0
M  V30 3351 C 304.732 -1.43073 3.169 0
M  V30 3352 H 304.055 -0.942882 3.88523 0
M  V30 3353 H 305.495 -1.97328 3.75284 0
M  V30 3354 C 303.954 -2.42633 2.33732 0
M  V30 3355 O 304.484 -3.47658 2.01238 0
M  V30 3356 N 302.69 -2.14066 1.9653 0
M  V30 3357 H 302.237 -1.28685 2.23155 0
M  V30 3358 H 302.195 -2.80917 1.41185 0
M  V30 3359 N 305.967 -1.56429 0.191757 0
M  V30 3360 C 307.244 -1.89224 -0.495332 0
M  V30 3361 C 307.624 -1.10478 -1.79883 0
M  V30 3362 O 306.972 -0.204852 -2.2758 0
M  V30 3363 C 307.182 -3.41548 -0.717367 0
M  V30 3364 C 308.53 -4.11711 -1.03823 0
M  V30 3365 O 309.554 -3.4698 -0.805204 0
M  V30 3366 O 308.413 -5.2611 -1.47887 0
M  V30 3367 H 305.507 -0.785788 -0.25781 0
M  V30 3368 H 308.053 -1.68111 0.231721 0
M  V30 3369 H 306.825 -3.90772 0.203287 0
M  V30 3370 H 306.448 -3.68342 -1.497 0
M  V30 3371 N 307.445 0.0818655 -1.57387 0
M  V30 3372 C 308.693 0.781368 -1.86384 0
M  V30 3373 C 309.014 1.78618 -0.782342 0
M  V30 3374 O 308.284 1.94976 0.190061 0
M  V30 3375 H 306.864 0.291562 -0.687751 0
M  V30 3376 H 309.526 0.060348 -1.94807 0
M  V30 3377 H 308.622 1.3038 -2.83562 0
M  V30 3378 N 308.923 1.53595 0.353017 0
M  V30 3379 C 309.87 1.80919 1.43308 0
M  V30 3380 C 310.84 0.654288 1.5267 0
M  V30 3381 O 312.025 0.897759 1.6836 0
M  V30 3382 C 309.165 2.01605 2.80089 0
M  V30 3383 C 308.278 3.29321 2.79593 0
M  V30 3384 C 307.413 3.40125 4.0803 0
M  V30 3385 C 306.452 4.61826 4.01725 0
M  V30 3386 N 305.589 4.69716 5.21834 0
M  V30 3387 H 310.429 2.73074 1.19308 0
M  V30 3388 H 307.966 1.35263 0.578131 0
M  V30 3389 H 309.924 2.11586 3.59565 0
M  V30 3390 H 308.554 1.12772 3.0246 0
M  V30 3391 H 307.606 3.28229 1.92276 0
M  V30 3392 H 308.918 4.18884 2.70809 0
M  V30 3393 H 308.072 3.49488 4.95927 0
M  V30 3394 H 306.811 2.48601 4.19582 0
M  V30 3395 H 305.816 4.52552 3.12213 0
M  V30 3396 H 307.041 5.54705 3.91764 0
M  V30 3397 H 304.987 3.81097 5.33948 0
M  V30 3398 H 304.904 5.53202 5.1527 0
M  V30 3399 H 306.172 4.83376 6.11529 0
M  V30 3400 N 310.401 -0.613514 1.45168 0
M  V30 3401 C 311.331 -1.7354 1.56225 0
M  V30 3402 C 312.312 -1.64981 0.41414 0
M  V30 3403 O 313.497 -1.83472 0.636526 0
M  V30 3404 C 310.627 -3.12128 1.52295 0
M  V30 3405 C 309.581 -3.35491 2.65762 0
M  V30 3406 C 308.907 -4.74291 2.46885 0
M  V30 3407 C 310.207 -3.26325 4.0781 0
M  V30 3408 H 311.901 -1.64543 2.50132 0
M  V30 3409 H 309.447 -0.790185 1.20383 0
M  V30 3410 H 311.4 -3.90404 1.58628 0
M  V30 3411 H 310.124 -3.2195 0.549139 0
M  V30 3412 H 308.783 -2.59603 2.58847 0
M  V30 3413 H 308.431 -4.80839 1.47657 0
M  V30 3414 H 308.131 -4.9088 3.22972 0
M  V30 3415 H 309.655 -5.54775 2.55063 0
M  V30 3416 H 311.069 -3.94483 4.16 0
M  V30 3417 H 309.466 -3.54445 4.8424 0
M  V30 3418 H 310.536 -2.23855 4.30136 0
M  V30 3419 N 311.879 -1.3236 -0.855495 0
M  V30 3420 C 313.104 -1.2601 -1.64731 0
M  V30 3421 C 313.529 0.169068 -1.87339 0
M  V30 3422 O 312.887 1.12016 -1.42556 0
M  V30 3423 C 312.935 -2.02417 -2.98429 0
M  V30 3424 O 312.039 -1.3714 -3.8893 0
M  V30 3425 H 311.38 -0.434325 -0.502253 0
M  V30 3426 H 313.91 -1.74661 -1.06558 0
M  V30 3427 H 313.92 -2.12559 -3.48257 0
M  V30 3428 H 312.595 -3.06343 -2.81295 0
M  V30 3429 H 311.172 -1.3554 -3.47395 0
M  V30 3430 N 313.357 1.07166 -1.15556 0
M  V30 3431 C 314.287 2.16403 -0.877046 0
M  V30 3432 C 315.268 1.69217 0.173111 0
M  V30 3433 O 316.453 1.94181 0.027084 0
M  V30 3434 C 313.583 3.45349 -0.367632 0
M  V30 3435 C 312.537 4.05995 -1.35468 0
M  V30 3436 C 311.863 5.30045 -0.704038 0
M  V30 3437 C 313.163 4.45804 -2.72132 0
M  V30 3438 H 314.857 2.39959 -1.79053 0
M  V30 3439 H 312.403 1.15325 -0.862331 0
M  V30 3440 H 314.356 4.21095 -0.160317 0
M  V30 3441 H 313.08 3.21385 0.581326 0
M  V30 3442 H 311.739 3.32296 -1.54839 0
M  V30 3443 H 311.387 5.02373 0.251128 0
M  V30 3444 H 311.087 5.71579 -1.36277 0
M  V30 3445 H 312.611 6.08495 -0.50654 0
M  V30 3446 H 314.025 5.12671 -2.56595 0
M  V30 3447 H 312.422 4.98296 -3.34397 0
M  V30 3448 H 313.492 3.57083 -3.28054 0
M  V30 3449 N 314.835 0.952656 1.25548 0
M  V30 3450 C 315.767 0.428609 2.25157 0
M  V30 3451 C 316.78 -0.454428 1.56329 0
M  V30 3452 O 317.969 -0.263023 1.76552 0
M  V30 3453 C 315.069 -0.401972 3.36508 0
M  V30 3454 C 314.242 0.467601 4.34893 0
M  V30 3455 C 313.301 -0.30445 5.25319 0
M  V30 3456 O 312.327 0.296473 5.68427 0
M  V30 3457 N 313.529 -1.59805 5.5807 0
M  V30 3458 H 316.294 1.28497 2.70756 0
M  V30 3459 H 313.855 0.822798 1.39433 0
M  V30 3460 H 315.847 -0.926134 3.9396 0
M  V30 3461 H 314.417 -1.15918 2.90313 0
M  V30 3462 H 313.637 1.17288 3.76347 0
M  V30 3463 H 314.925 1.06119 4.97611 0
M  V30 3464 H 314.323 -2.10823 5.24948 0
M  V30 3465 H 312.88 -2.06822 6.18116 0
M  V30 3466 N 316.313 -1.40141 0.720998 0
M  V30 3467 C 317.243 -2.33339 0.0867621 0
M  V30 3468 C 318.224 -1.53178 -0.739622 0
M  V30 3469 O 319.409 -1.81625 -0.687449 0
M  V30 3470 C 316.539 -3.37194 -0.831728 0
M  V30 3471 C 315.493 -4.27857 -0.110558 0
M  V30 3472 C 314.819 -5.22294 -1.14513 0
M  V30 3473 C 316.119 -5.11872 1.0385 0
M  V30 3474 H 317.813 -2.86626 0.865219 0
M  V30 3475 H 315.359 -1.37814 0.417516 0
M  V30 3476 H 317.312 -4.01335 -1.28485 0
M  V30 3477 H 316.036 -2.82314 -1.64214 0
M  V30 3478 H 314.695 -3.65176 0.322797 0
M  V30 3479 H 314.343 -4.63717 -1.94874 0
M  V30 3480 H 314.043 -5.83797 -0.667446 0
M  V30 3481 H 315.567 -5.89312 -1.59824 0
M  V30 3482 H 316.981 -5.69436 0.664482 0
M  V30 3483 H 315.378 -5.82445 1.4449 0
M  V30 3484 H 316.448 -4.4753 1.86668 0
M  V30 3485 N 317.792 -0.46758 -1.50504 0
M  V30 3486 C 319.022 0.086288 -2.0642 0
M  V30 3487 C 319.43 1.34369 -1.33197 0
M  V30 3488 O 318.773 1.79431 -0.393747 0
M  V30 3489 C 318.835 0.443846 -3.5675 0
M  V30 3490 C 318.499 -0.711035 -4.51435 0
M  V30 3491 C 319.496 -1.59205 -4.94924 0
M  V30 3492 C 317.181 -0.900363 -4.94165 0
M  V30 3493 C 319.175 -2.64683 -5.79846 0
M  V30 3494 C 316.862 -1.95837 -5.7887 0
M  V30 3495 C 317.86 -2.82997 -6.21612 0
M  V30 3496 O 317.548 -3.86977 -7.0463 0
M  V30 3497 H 317.28 -0.00217814 -0.675996 0
M  V30 3498 H 319.834 -0.654346 -1.94698 0
M  V30 3499 H 318.064 1.23762 -3.6636 0
M  V30 3500 H 319.753 0.932386 -3.95046 0
M  V30 3501 H 320.519 -1.45745 -4.62583 0
M  V30 3502 H 316.398 -0.231427 -4.60419 0
M  V30 3503 H 319.942 -3.32745 -6.13128 0
M  V30 3504 H 315.839 -2.09305 -6.10624 0
M  V30 3505 H 316.607 -3.83923 -7.22873 0
M  V30 3506 N 319.27 1.56325 -0.20005 0
M  V30 3507 C 320.202 2.16555 0.750771 0
M  V30 3508 C 321.215 1.12871 1.1732 0
M  V30 3509 O 322.404 1.39943 1.10807 0
M  V30 3510 C 319.504 2.71684 2.02586 0
M  V30 3511 C 318.677 4.00321 1.76244 0
M  V30 3512 C 317.736 4.40227 2.88248 0
M  V30 3513 O 316.762 5.07552 2.57642 0
M  V30 3514 N 317.964 4.04138 4.16717 0
M  V30 3515 H 320.729 2.98772 0.235685 0
M  V30 3516 H 318.29 1.6189 -0.0182594 0
M  V30 3517 H 320.282 2.95363 2.76664 0
M  V30 3518 H 318.852 1.93893 2.45202 0
M  V30 3519 H 318.072 3.84723 0.85919 0
M  V30 3520 H 319.36 4.84279 1.56048 0
M  V30 3521 H 318.758 3.49993 4.44434 0
M  V30 3522 H 317.315 4.32756 4.87407 0
M  V30 3523 N 320.748 -0.0735177 1.57428 0
M  V30 3524 C 322.164 -0.428264 1.53747 0
M  V30 3525 C 322.364 -1.79272 0.91998 0
M  V30 3526 O 321.42 -2.47051 0.521745 0
M  V30 3527 C 322.733 -0.370914 2.98404 0
M  V30 3528 C 324.281 -0.451224 3.0973 0
M  V30 3529 C 324.756 -0.4238 4.56035 0
M  V30 3530 N 326.247 -0.483925 4.60665 0
M  V30 3531 C 326.982 -0.484891 5.71346 0
M  V30 3532 N 326.478 -0.440775 6.91396 0
M  V30 3533 N 328.271 -0.531319 5.59583 0
M  V30 3534 H 320.422 0.819949 1.95935 0
M  V30 3535 H 322.685 0.307493 0.896745 0
M  V30 3536 H 322.391 0.564956 3.47133 0
M  V30 3537 H 322.265 -1.18176 3.5821 0
M  V30 3538 H 324.652 -1.37752 2.60976 0
M  V30 3539 H 324.733 0.388167 2.52838 0
M  V30 3540 H 324.377 0.498638 5.05446 0
M  V30 3541 H 324.307 -1.2807 5.10789 0
M  V30 3542 H 326.798 -0.522338 3.74273 0
M  V30 3543 H 327.111 -0.44539 7.71515 0
M  V30 3544 H 325.456 -0.40749 6.93804 0
M  V30 3545 H 328.647 -0.563464 4.64696 0
M  V30 3546 H 328.82 -0.528603 6.4584 0
M  V30 3547 N 322.226 -1.5378 -0.344866 0
M  V30 3548 C 323.451 -1.75211 -1.10977 0
M  V30 3549 C 323.876 -0.48936 -1.81623 0
M  V30 3550 O 323.234 0.557925 -1.72502 0
M  V30 3551 C 323.282 -2.93147 -2.09993 0
M  V30 3552 O 322.386 -2.63203 -3.17487 0
M  V30 3553 H 321.727 -0.581241 -0.321021 0
M  V30 3554 H 324.257 -2.00738 -0.395661 0
M  V30 3555 H 324.267 -3.19898 -2.53237 0
M  V30 3556 H 322.942 -3.84731 -1.5797 0
M  V30 3557 H 321.519 -2.47336 -2.79069 0
M  V30 3558 N 323.704 0.605807 -1.45491 0
M  V30 3559 C 324.667 1.69836 -1.5391 0
M  V30 3560 C 325.667 1.55261 -0.418424 0
M  V30 3561 O 326.857 1.60296 -0.681965 0
M  V30 3562 C 323.989 3.09117 -1.43734 0
M  V30 3563 H 325.182 1.63738 -2.51257 0
M  V30 3564 H 322.735 0.821689 -1.32959 0
M  V30 3565 H 323.47 3.20791 -0.475788 0
M  V30 3566 H 323.255 3.21104 -2.25021 0
M  V30 3567 H 324.745 3.88696 -1.52661 0
M  V30 3568 N 325.182 1.32811 0.848464 0
M  V30 3569 C 326.459 1.14334 1.58704 0
M  V30 3570 C 326.839 -0.293948 2.09043 0
M  V30 3571 O 326.187 -1.29153 1.88499 0
M  V30 3572 C 326.397 2.17626 2.72837 0
M  V30 3573 C 327.745 2.51282 3.42261 0
M  V30 3574 O 328.769 2.16219 2.83068 0
M  V30 3575 O 327.628 3.11413 4.49093 0
M  V30 3576 H 324.722 0.441601 0.699226 0
M  V30 3577 H 327.268 1.44362 0.892053 0
M  V30 3578 H 326.04 3.14211 2.3321 0
M  V30 3579 H 325.663 1.88628 3.50008 0
M  V30 3580 N 326.66 -1.06551 1.16123 0
M  V30 3581 C 327.909 -1.78687 0.935622 0
M  V30 3582 C 328.222 -1.88056 -0.538001 0
M  V30 3583 O 329.428 -2.56794 -0.88143 0
M  V30 3584 C 327.884 -3.21143 1.62466 0
M  V30 3585 C 327.492 -3.19949 3.13587 0
M  V30 3586 C 329.236 -3.9783 1.48092 0
M  V30 3587 C 327.143 -4.57108 3.75241 0
M  V30 3588 H 326.073 -0.669712 0.346412 0
M  V30 3589 H 328.724 -1.19534 1.39226 0
M  V30 3590 H 327.106 -3.80539 1.09572 0
M  V30 3591 H 328.28 -2.70151 3.73303 0
M  V30 3592 H 326.595 -2.5676 3.27816 0
M  V30 3593 H 329.192 -4.99217 1.91538 0
M  V30 3594 H 329.535 -4.14078 0.429507 0
M  V30 3595 H 330.068 -3.4495 1.98127 0
M  V30 3596 H 326.807 -4.46065 4.80319 0
M  V30 3597 H 326.327 -5.07111 3.20309 0
M  V30 3598 H 328.006 -5.26069 3.76644 0
M  V30 3599 N 328.138 -0.959301 -1.25041 0
M  V30 3600 C 329.385 -0.616611 -1.92884 0
M  V30 3601 C 329.713 0.847036 -1.75087 0
M  V30 3602 O 328.968 1.62374 -1.09239 0
M  V30 3603 C 329.267 -0.927136 -3.45165 0
M  V30 3604 C 328.933 -2.37757 -3.83122 0
M  V30 3605 C 327.595 -2.77402 -3.93194 0
M  V30 3606 C 329.947 -3.31929 -4.01836 0
M  V30 3607 C 327.275 -4.10277 -4.19392 0
M  V30 3608 C 329.627 -4.64423 -4.29528 0
M  V30 3609 C 328.291 -5.03857 -4.37818 0
M  V30 3610 H 327.561 -0.225634 -0.705812 0
M  V30 3611 H 330.208 -1.20921 -1.48493 0
M  V30 3612 H 328.513 -0.252195 -3.90987 0
M  V30 3613 H 330.21 -0.6405 -3.95852 0
M  V30 3614 H 326.8 -2.06013 -3.75841 0
M  V30 3615 H 330.984 -3.02488 -3.93465 0
M  V30 3616 H 326.24 -4.40467 -4.24027 0
M  V30 3617 H 330.414 -5.37369 -4.42953 0
M  V30 3618 H 328.041 -6.06843 -4.57871 0
M  V30 3619 N 329.616 1.39756 -0.72842 0
M  V30 3620 C 330.546 2.33289 -0.0991354 0
M  V30 3621 C 331.527 1.53568 0.731489 0
M  V30 3622 O 332.712 1.81987 0.677807 0
M  V30 3623 C 329.842 3.3763 0.813834 0
M  V30 3624 C 328.796 4.2791 0.0878663 0
M  V30 3625 C 328.122 5.22894 1.11741 0
M  V30 3626 C 329.422 5.11314 -1.06563 0
M  V30 3627 H 331.116 2.86163 -0.880408 0
M  V30 3628 H 328.662 1.37591 -0.424819 0
M  V30 3629 H 330.615 4.0201 1.26355 0
M  V30 3630 H 329.339 2.83181 1.62715 0
M  V30 3631 H 327.998 3.65 -0.342159 0
M  V30 3632 H 327.646 4.64744 1.92412 0
M  V30 3633 H 327.346 5.84143 0.636477 0
M  V30 3634 H 328.87 5.90151 1.56697 0
M  V30 3635 H 330.284 5.69076 -0.694671 0
M  V30 3636 H 328.681 5.81671 -1.47577 0
M  V30 3637 H 329.751 4.46534 -1.89038 0
M  V30 3638 N 331.094 0.475555 1.50254 0
M  V30 3639 C 332.342 -0.077738 2.0195 0
M  V30 3640 C 332.663 -1.39813 1.35931 0
M  V30 3641 O 331.933 -1.89249 0.506123 0
M  V30 3642 H 330.513 -0.031719 0.746326 0
M  V30 3643 H 333.175 0.626995 1.84539 0
M  V30 3644 H 332.271 -0.225995 3.11281 0
M  V30 3645 N 332.573 -1.56217 0.208337 0
M  V30 3646 C 333.819 -1.98242 -0.427552 0
M  V30 3647 C 334.152 -1.09554 -1.60348 0
M  V30 3648 O 333.427 -0.15035 -1.93918 0
M  V30 3649 C 333.71 -3.4931 -0.874907 0
M  V30 3650 C 333.563 -4.48773 0.303751 0
M  V30 3651 C 334.882 -4.04424 -1.73577 0
M  V30 3652 H 332.001 -0.720744 -0.153936 0
M  V30 3653 H 334.643 -1.87586 0.30192 0
M  V30 3654 H 332.793 -3.58522 -1.49648 0
M  V30 3655 H 334.465 -4.51586 0.941682 0
M  V30 3656 H 332.708 -4.23194 0.953375 0
M  V30 3657 H 333.379 -5.51976 -0.0519883 0
M  V30 3658 H 335.855 -3.98075 -1.21143 0
M  V30 3659 H 334.731 -5.1047 -2.01771 0
M  V30 3660 H 334.992 -3.50494 -2.69456 0
M  V30 3661 N 334.051 0.0651679 -1.57465 0
M  V30 3662 C 335.462 0.616213 -1.76238 0
M  V30 3663 C 335.813 1.7756 -0.834689 0
M  V30 3664 O 334.938 2.1639 -0.0204156 0
M  V30 3665 C 335.533 1.12462 -3.1959 0
M  V30 3666 C 334.092 1.62147 -3.39684 0
M  V30 3667 C 333.239 0.543739 -2.71917 0
M  V30 3668 H 336.19 -0.161022 -1.57881 0
M  V30 3669 H 336.211 1.99324 -3.24114 0
M  V30 3670 H 335.723 0.280592 -3.87084 0
M  V30 3671 H 333.824 2.48854 -2.77313 0
M  V30 3672 H 333.937 1.69385 -4.48158 0
M  V30 3673 H 332.301 0.990352 -2.34657 0
M  V30 3674 H 333.084 -0.290216 -3.42071 0
M  V30 3675 N 335.529 1.53961 0.336706 0
M  V30 3676 C 336.776 1.71536 1.07618 0
M  V30 3677 C 337.104 0.482125 1.8843 0
M  V30 3678 O 336.359 -0.536142 1.88213 0
M  V30 3679 C 336.658 2.93493 2.03953 0
M  V30 3680 C 336.324 4.28811 1.39399 0
M  V30 3681 C 334.986 4.65602 1.21523 0
M  V30 3682 C 337.338 5.12844 0.929541 0
M  V30 3683 C 334.666 5.84037 0.558312 0
M  V30 3684 C 337.018 6.31951 0.286505 0
M  V30 3685 C 335.682 6.67432 0.0954869 0
M  V30 3686 H 334.952 0.627696 0.393801 0
M  V30 3687 H 337.599 1.88186 0.354715 0
M  V30 3688 H 335.904 2.71475 2.82504 0
M  V30 3689 H 337.601 3.04285 2.61174 0
M  V30 3690 H 334.191 3.99858 1.54311 0
M  V30 3691 H 338.375 4.84947 1.05548 0
M  V30 3692 H 333.631 6.10097 0.398995 0
M  V30 3693 H 337.805 6.96352 -0.0814376 0
M  V30 3694 H 335.432 7.59063 -0.415579 0
M  V30 3695 N 337.007 -0.598083 1.45811 0
M  V30 3696 C 337.955 -1.72932 1.55555 0
M  V30 3697 C 338.949 -1.63984 0.424921 0
M  V30 3698 O 340.155 -1.69663 0.601205 0
M  V30 3699 H 336.53 -0.571489 0.488779 0
M  V30 3700 H 338.501 -1.61842 2.50699 0
M  V30 3701 C 337.25 -3.11318 1.54843 0
M  V30 3702 H 336.573 -3.18867 2.41172 0
M  V30 3703 H 338.013 -3.90274 1.65717 0
M  V30 3704 C 336.472 -3.3578 0.274427 0
M  V30 3705 O 337.002 -3.9654 -0.641778 0
M  V30 3706 N 335.208 -2.90119 0.167139 0
M  V30 3707 H 334.755 -2.40855 0.913596 0
M  V30 3708 H 334.713 -3.0686 -0.684435 0
M  V30 3709 N 338.485 -1.33259 -0.841409 0
M  V30 3710 C 339.734 -1.23921 -1.59143 0
M  V30 3711 C 340.047 0.1941 -1.94635 0
M  V30 3712 O 341.253 0.409474 -2.68394 0
M  V30 3713 C 339.709 -2.17119 -2.87032 0
M  V30 3714 C 339.317 -3.65606 -2.58914 0
M  V30 3715 C 341.061 -2.16648 -3.65053 0
M  V30 3716 C 338.968 -4.50726 -3.82884 0
M  V30 3717 H 337.898 -0.460264 -0.597221 0
M  V30 3718 H 340.549 -1.58307 -0.927959 0
M  V30 3719 H 338.931 -1.75663 -3.54906 0
M  V30 3720 H 340.105 -4.15487 -1.99267 0
M  V30 3721 H 338.42 -3.68341 -1.942 0
M  V30 3722 H 341.017 -2.77474 -4.57069 0
M  V30 3723 H 341.36 -1.16088 -3.99787 0
M  V30 3724 H 341.893 -2.56453 -3.041 0
M  V30 3725 H 338.632 -5.52151 -3.53283 0
M  V30 3726 H 338.152 -4.0559 -4.41879 0
M  V30 3727 H 339.831 -4.64401 -4.50489 0
M  V30 3728 N 339.963 1.05934 -1.16686 0
M  V30 3729 C 340.926 2.11669 -0.879144 0
M  V30 3730 C 341.926 1.60294 0.127445 0
M  V30 3731 O 343.116 1.7389 -0.103865 0
M  V30 3732 C 340.248 3.39438 -0.315425 0
M  V30 3733 H 341.441 2.38626 -1.81653 0
M  V30 3734 H 338.994 1.22058 -0.976299 0
M  V30 3735 H 339.729 3.18132 0.629468 0
M  V30 3736 H 339.514 3.78034 -1.04079 0
M  V30 3737 H 341.004 4.17391 -0.132189 0
M  V30 3738 N 341.441 0.965919 1.2453 0
M  V30 3739 C 342.666 0.643971 1.97149 0
M  V30 3740 C 343.091 -0.779487 1.71189 0
M  V30 3741 O 342.449 -1.5288 0.974553 0
M  V30 3742 C 342.497 0.922557 3.48599 0
M  V30 3743 O 341.601 0.00707672 4.12399 0
M  V30 3744 H 340.942 0.243647 0.617683 0
M  V30 3745 H 343.472 1.29558 1.58353 0
M  V30 3746 H 343.482 0.853373 3.98976 0
M  V30 3747 H 342.157 1.95996 3.66822 0
M  V30 3748 H 340.734 0.12943 3.72675 0
M  V30 3749 N 342.919 -1.39368 0.735821 0
M  V30 3750 C 344.149 -2.04498 0.293967 0
M  V30 3751 C 344.557 -1.55593 -1.07645 0
M  V30 3752 O 343.9 -0.716324 -1.69158 0
M  V30 3753 C 343.962 -3.58836 0.218342 0
M  V30 3754 C 343.626 -4.30721 1.52736 0
M  V30 3755 C 344.623 -4.57305 2.47322 0
M  V30 3756 C 342.308 -4.69251 1.79189 0
M  V30 3757 C 344.302 -5.21429 3.66593 0
M  V30 3758 C 341.989 -5.33104 2.98737 0
M  V30 3759 C 342.987 -5.59125 3.9226 0
M  V30 3760 O 342.675 -6.21653 5.09708 0
M  V30 3761 H 342.407 -0.664118 0.126189 0
M  V30 3762 H 344.961 -1.79385 1.00051 0
M  V30 3763 H 343.191 -3.8285 -0.544314 0
M  V30 3764 H 344.88 -4.05447 -0.191626 0
M  V30 3765 H 345.646 -4.27983 2.28156 0
M  V30 3766 H 341.525 -4.48354 1.07239 0
M  V30 3767 H 345.069 -5.41656 4.39607 0
M  V30 3768 H 340.966 -5.61846 3.17803 0
M  V30 3769 H 341.734 -6.40146 5.10054 0
M  V30 3770 N 344.397 -0.483516 -1.5 0
M  V30 3771 C 345.36 0.292965 -2.2732 0
M  V30 3772 C 346.36 0.909499 -1.32608 0
M  V30 3773 O 347.55 0.776745 -1.55924 0
M  V30 3774 C 344.682 1.41854 -3.09984 0
M  V30 3775 H 345.875 -0.385289 -2.97415 0
M  V30 3776 H 343.428 -0.237942 -1.54478 0
M  V30 3777 H 344.163 2.13148 -2.44414 0
M  V30 3778 H 343.948 0.982114 -3.79601 0
M  V30 3779 H 345.438 1.96597 -3.68429 0
M  V30 3780 N 345.875 1.56104 -0.216619 0
M  V30 3781 C 346.805 2.23063 0.690296 0
M  V30 3782 C 347.786 1.20072 1.20485 0
M  V30 3783 O 348.971 1.48643 1.24976 0
M  V30 3784 C 346.101 2.90672 1.90072 0
M  V30 3785 C 345.055 4.00092 1.5202 0
M  V30 3786 C 344.381 4.54972 2.80899 0
M  V30 3787 C 345.681 5.17398 0.71391 0
M  V30 3788 H 347.375 2.99109 0.132038 0
M  V30 3789 H 344.921 1.43866 0.0620664 0
M  V30 3790 H 346.874 3.36204 2.54057 0
M  V30 3791 H 345.598 2.12066 2.48386 0
M  V30 3792 H 344.257 3.55283 0.903839 0
M  V30 3793 H 343.905 3.73102 3.37348 0
M  V30 3794 H 343.605 5.28817 2.56176 0
M  V30 3795 H 345.129 5.0322 3.45836 0
M  V30 3796 H 346.543 5.59342 1.25735 0
M  V30 3797 H 344.94 5.97444 0.563951 0
M  V30 3798 H 346.01 4.84088 -0.280527 0
M  V30 3799 N 347.353 -0.0568162 1.57498 0
M  V30 3800 C 348.283 -1.06593 2.0775 0
M  V30 3801 C 349.264 -1.39448 0.974082 0
M  V30 3802 O 350.449 -1.48815 1.24771 0
M  V30 3803 C 347.579 -2.37509 2.5339 0
M  V30 3804 C 346.533 -2.1897 3.67745 0
M  V30 3805 C 345.859 -3.55402 3.99492 0
M  V30 3806 C 347.159 -1.59859 4.97235 0
M  V30 3807 H 348.853 -0.647706 2.9231 0
M  V30 3808 H 346.399 -0.310116 1.40621 0
M  V30 3809 H 348.352 -3.08409 2.87162 0
M  V30 3810 H 347.076 -2.8134 1.65878 0
M  V30 3811 H 345.735 -1.50508 3.3428 0
M  V30 3812 H 345.383 -3.9683 3.09088 0
M  V30 3813 H 345.083 -3.43831 4.76502 0
M  V30 3814 H 346.607 -4.27708 4.35773 0
M  V30 3815 H 348.021 -2.20642 5.29141 0
M  V30 3816 H 346.418 -1.58942 5.78669 0
M  V30 3817 H 347.488 -0.561506 4.81638 0
M  V30 3818 N 348.832 -1.54138 -0.328536 0
M  V30 3819 C 350.06 -1.76062 -1.08673 0
M  V30 3820 C 350.475 -0.506852 -1.81869 0
M  V30 3821 O 349.832 0.522223 -1.74869 0
M  V30 3822 C 349.883 -2.95054 -2.08866 0
M  V30 3823 O 349.604 -4.15583 -1.38644 0
M  V30 3824 C 351.105 -3.2915 -2.96943 0
M  V30 3825 H 348.325 -0.587889 -0.323461 0
M  V30 3826 H 350.869 -2.0101 -0.376175 0
M  V30 3827 H 349.024 -2.72394 -2.75464 0
M  V30 3828 H 349.438 -4.82481 -2.05699 0
M  V30 3829 H 350.912 -4.15723 -3.63151 0
M  V30 3830 H 351.389 -2.461 -3.63774 0
M  V30 3831 H 351.995 -3.53871 -2.35914 0
M  V30 3832 N 350.31 0.590341 -1.46126 0
M  V30 3833 C 351.26 1.69466 -1.5253 0
M  V30 3834 C 352.244 1.56179 -0.386917 0
M  V30 3835 O 353.436 1.65223 -0.634858 0
M  V30 3836 C 350.565 3.08245 -1.5113 0
M  V30 3837 C 349.651 3.26856 -2.70233 0
M  V30 3838 N 350.042 3.15657 -3.95214 0
M  V30 3839 C 348.34 3.57775 -2.66296 0
M  V30 3840 C 349.041 3.36066 -4.74799 0
M  V30 3841 N 348.017 3.60865 -4.06543 0
M  V30 3842 H 351.819 1.59326 -2.46966 0
M  V30 3843 H 349.333 0.79414 -1.41659 0
M  V30 3844 H 351.33 3.87492 -1.53804 0
M  V30 3845 H 349.99 3.19521 -0.577636 0
M  V30 3846 H 351.001 2.93686 -4.26578 0
M  V30 3847 H 347.678 3.75782 -1.81918 0
M  V30 3848 H 349.068 3.32655 -5.83772 0
M  V30 3849 N 351.788 1.33704 0.83433 0
M  V30 3850 C 352.718 1.26967 1.95963 0
M  V30 3851 C 353.699 0.149337 1.69443 0
M  V30 3852 O 354.884 0.339852 1.91203 0
M  V30 3853 C 352.014 1.01275 3.32206 0
M  V30 3854 C 350.968 2.09652 3.73136 0
M  V30 3855 C 350.294 1.69166 5.07235 0
M  V30 3856 C 351.594 3.51372 3.86439 0
M  V30 3857 H 353.288 2.2112 2.01857 0
M  V30 3858 H 350.834 1.06447 0.969793 0
M  V30 3859 H 352.787 0.952106 4.10503 0
M  V30 3860 H 351.511 0.0356203 3.26581 0
M  V30 3861 H 350.17 2.14766 2.97104 0
M  V30 3862 H 349.818 0.701437 4.98085 0
M  V30 3863 H 349.518 2.41694 5.35591 0
M  V30 3864 H 351.042 1.64576 5.88003 0
M  V30 3865 H 352.456 3.48734 4.55036 0
M  V30 3866 H 350.853 4.22425 4.26236 0
M  V30 3867 H 351.923 3.89546 2.88759 0
M  V30 3868 N 353.266 -1.05314 1.17247 0
M  V30 3869 C 354.512 -1.78557 0.961513 0
M  V30 3870 C 354.845 -1.87419 -0.508697 0
M  V30 3871 O 354.12 -1.37307 -1.37757 0
M  V30 3872 C 354.403 -3.22514 1.60176 0
M  V30 3873 C 354.256 -3.21673 3.14399 0
M  V30 3874 C 355.575 -4.20318 1.30463 0
M  V30 3875 H 352.694 -0.6482 0.350723 0
M  V30 3876 H 355.336 -1.23102 1.44727 0
M  V30 3877 H 353.486 -3.69867 1.18871 0
M  V30 3878 H 355.158 -2.82405 3.64753 0
M  V30 3879 H 353.401 -2.60048 3.47214 0
M  V30 3880 H 354.072 -4.23271 3.54324 0
M  V30 3881 H 356.548 -3.81454 1.66229 0
M  V30 3882 H 355.424 -5.19289 1.77848 0
M  V30 3883 H 355.685 -4.41526 0.22521 0
M  V30 3884 N 354.744 -0.972509 -1.24016 0
M  V30 3885 C 355.707 -0.511403 -2.23422 0
M  V30 3886 C 356.707 0.394679 -1.55881 0
M  V30 3887 O 357.897 0.189469 -1.73167 0
M  V30 3888 C 355.029 0.258769 -3.39916 0
M  V30 3889 H 356.222 -1.39024 -2.6573 0
M  V30 3890 H 353.775 -0.757585 -1.36713 0
M  V30 3891 H 354.51 1.1545 -3.03054 0
M  V30 3892 H 354.295 -0.391522 -3.9014 0
M  V30 3893 H 355.785 0.570244 -4.13688 0
M  V30 3894 N 356.222 1.38976 -0.743202 0
M  V30 3895 C 357.172 2.27843 -0.084513 0
M  V30 3896 C 358.156 1.44677 0.704094 0
M  V30 3897 O 359.348 1.67511 0.571755 0
M  V30 3898 C 356.477 3.33466 0.815781 0
M  V30 3899 C 355.563 4.24095 0.0208844 0
M  V30 3900 N 355.954 4.95609 -1.0102 0
M  V30 3901 C 354.252 4.45303 0.249293 0
M  V30 3902 C 354.953 5.62287 -1.49024 0
M  V30 3903 N 353.929 5.37571 -0.807377 0
M  V30 3904 H 357.731 2.80593 -0.87436 0
M  V30 3905 H 355.245 1.51755 -0.578283 0
M  V30 3906 H 357.242 3.96008 1.30321 0
M  V30 3907 H 355.902 2.82276 1.6047 0
M  V30 3908 H 356.913 4.98849 -1.39176 0
M  V30 3909 H 353.59 4.0504 1.01237 0
M  V30 3910 H 354.98 6.29519 -2.34853 0
M  V30 3911 N 357.7 0.491464 1.49741 0
M  V30 3912 C 358.61 -0.296835 2.32715 0
M  V30 3913 C 359.626 -0.976536 1.44013 0
M  V30 3914 O 360.802 -0.960023 1.77047 0
M  V30 3915 C 357.867 -1.35288 3.19215 0
M  V30 3916 C 356.928 -0.687632 4.23757 0
M  V30 3917 C 356.161 -1.69336 5.06123 0
M  V30 3918 O 356.384 -2.92219 4.89861 0
M  V30 3919 O 355.318 -1.25394 5.88693 0
M  V30 3920 H 359.144 0.382048 3.01287 0
M  V30 3921 H 356.729 0.252953 1.47243 0
M  V30 3922 H 358.611 -1.96411 3.72828 0
M  V30 3923 H 357.286 -2.01487 2.53347 0
M  V30 3924 H 356.193 -0.0369159 3.74082 0
M  V30 3925 H 357.526 -0.0682566 4.92153 0
M  V30 3926 N 359.178 -1.55987 0.224894 0
M  V30 3927 C 360.418 -2.00293 -0.407706 0
M  V30 3928 C 360.782 -1.1093 -1.56711 0
M  V30 3929 O 361.983 -1.44597 -2.26595 0
M  V30 3930 C 360.254 -3.47675 -0.82805 0
M  V30 3931 S 361.813 -4.14 -1.45429 0
M  V30 3932 H 358.631 -0.699152 -0.129256 0
M  V30 3933 H 361.233 -1.92609 0.334967 0
M  V30 3934 H 359.937 -4.10392 0.0253964 0
M  V30 3935 H 359.468 -3.59239 -1.60345 0
M  V30 3936 H 361.483 -4.13465 -2.74337 0
M  V30 3937 N 360.656 0.0484629 -1.57525 0
M  V30 3938 C 361.904 0.741657 -1.88 0
M  V30 3939 C 362.225 1.76918 -0.820054 0
M  V30 3940 O 361.495 1.95335 0.148661 0
M  V30 3941 H 360.075 0.276908 -0.69378 0
M  V30 3942 H 362.737 0.019013 -1.94891 0
M  V30 3943 H 361.833 1.24336 -2.86264 0
M  V30 3944 N 362.134 1.5431 0.320358 0
M  V30 3945 C 363.064 1.86912 1.3995 0
M  V30 3946 C 364.045 0.726211 1.53819 0
M  V30 3947 O 365.23 0.980233 1.67646 0
M  V30 3948 C 362.36 2.09932 2.7667 0
M  V30 3949 C 361.314 3.25776 2.77586 0
M  V30 3950 C 360.64 3.34173 4.17412 0
M  V30 3951 C 361.94 4.6335 2.41048 0
M  V30 3952 H 363.634 2.77292 1.12914 0
M  V30 3953 H 361.18 1.33421 0.541738 0
M  V30 3954 H 363.133 2.31324 3.52232 0
M  V30 3955 H 361.857 1.16304 3.0519 0
M  V30 3956 H 360.516 3.04276 2.04479 0
M  V30 3957 H 360.164 2.38098 4.43078 0
M  V30 3958 H 359.864 4.12033 4.18931 0
M  V30 3959 H 361.388 3.57803 4.94782 0
M  V30 3960 H 362.802 4.84602 3.06324 0
M  V30 3961 H 361.199 5.43782 2.53813 0
M  V30 3962 H 362.269 4.65381 1.36193 0
M  V30 3963 N 363.613 -0.582584 1.46437 0
M  V30 3964 C 364.523 -1.71949 1.59595 0
M  V30 3965 C 365.539 -1.67264 0.479443 0
M  V30 3966 O 366.715 -1.87171 0.743579 0
M  V30 3967 C 363.78 -3.08452 1.58298 0
M  V30 3968 C 362.841 -3.244 2.81182 0
M  V30 3969 C 362.074 -4.54391 2.79937 0
M  V30 3970 O 362.297 -5.38287 1.8869 0
M  V30 3971 O 361.231 -4.73588 3.71481 0
M  V30 3972 H 365.057 -1.63795 2.55744 0
M  V30 3973 H 362.642 -0.749643 1.29231 0
M  V30 3974 H 364.524 -3.89732 1.60271 0
M  V30 3975 H 363.199 -3.17043 0.653094 0
M  V30 3976 H 362.106 -2.42613 2.84763 0
M  V30 3977 H 363.439 -3.20699 3.7338 0
M  V30 3978 N 365.091 -1.34144 -0.827227 0
M  V30 3979 C 366.337 -1.26446 -1.58554 0
M  V30 3980 C 366.67 0.1664 -1.93486 0
M  V30 3981 O 365.945 1.1107 -1.59667 0
M  V30 3982 C 366.228 -2.15111 -2.8879 0
M  V30 3983 C 366.081 -3.66712 -2.60465 0
M  V30 3984 C 367.4 -2.03311 -3.90324 0
M  V30 3985 H 364.519 -0.46067 -0.575284 0
M  V30 3986 H 367.161 -1.64356 -0.953269 0
M  V30 3987 H 365.311 -1.8291 -3.42748 0
M  V30 3988 H 366.983 -4.09259 -2.1285 0
M  V30 3989 H 365.226 -3.88014 -1.93978 0
M  V30 3990 H 365.897 -4.24112 -3.53317 0
M  V30 3991 H 368.373 -2.31574 -3.45706 0
M  V30 3992 H 367.249 -2.67582 -4.79261 0
M  V30 3993 H 367.51 -1.00879 -4.30437 0
M  V30 3994 N 366.569 1.04691 -1.17803 0
M  V30 3995 C 367.817 1.7743 -0.967617 0
M  V30 3996 C 368.138 1.88359 0.504574 0
M  V30 3997 O 367.408 1.40402 1.36617 0
M  V30 3998 H 365.988 0.657242 -0.355024 0
M  V30 3999 H 368.65 1.2638 -1.48371 0
M  V30 4000 H 367.746 2.78924 -1.40027 0
M  V30 4001 N 368.047 0.979072 1.23499 0
M  V30 4002 C 368.957 0.526431 2.28617 0
M  V30 4003 C 369.973 -0.418126 1.68901 0
M  V30 4004 O 371.149 -0.288372 1.99325 0
M  V30 4005 C 368.214 -0.165235 3.46306 0
M  V30 4006 C 367.275 0.82056 4.21385 0
M  V30 4007 C 366.508 0.161807 5.33455 0
M  V30 4008 O 366.731 -1.04742 5.60701 0
M  V30 4009 O 365.665 0.859708 5.95729 0
M  V30 4010 H 369.491 1.4006 2.69475 0
M  V30 4011 H 367.076 0.746643 1.29405 0
M  V30 4012 H 368.958 -0.553287 4.17752 0
M  V30 4013 H 367.633 -1.01419 3.07402 0
M  V30 4014 H 366.54 1.25929 3.52268 0
M  V30 4015 H 367.873 1.63828 4.64135 0
M  V30 4016 N 369.525 -1.3858 0.750561 0
M  V30 4017 C 370.772 -2.00184 0.305373 0
M  V30 4018 C 371.1 -1.59575 -1.11203 0
M  V30 4019 O 370.355 -0.823236 -1.77542 0
M  V30 4020 C 370.654 -3.55455 0.372373 0
M  V30 4021 C 370.32 -4.15765 1.745 0
M  V30 4022 C 368.982 -4.31951 2.12065 0
M  V30 4023 C 371.334 -4.49067 2.64553 0
M  V30 4024 C 368.662 -4.78734 3.39162 0
M  V30 4025 C 371.014 -4.97265 3.91038 0
M  V30 4026 C 369.678 -5.11658 4.28676 0
M  V30 4027 H 368.948 -0.732526 0.111744 0
M  V30 4028 H 371.595 -1.65673 0.960451 0
M  V30 4029 H 369.9 -3.90084 -0.366272 0
M  V30 4030 H 371.597 -4.00999 0.00953918 0
M  V30 4031 H 368.187 -4.03579 1.44297 0
M  V30 4032 H 372.371 -4.36166 2.36796 0
M  V30 4033 H 367.627 -4.88062 3.68246 0
M  V30 4034 H 371.801 -5.22003 4.60962 0
M  V30 4035 H 369.428 -5.47668 5.27222 0
M  V30 4036 N 371.003 -0.499398 -1.49478 0
M  V30 4037 C 372.252 0.0475259 -2.01644 0
M  V30 4038 C 372.565 1.38195 -1.38425 0
M  V30 4039 O 373.771 2.01547 -1.8191 0
M  V30 4040 C 372.227 0.135164 -3.59646 0
M  V30 4041 C 371.835 -1.19252 -4.31837 0
M  V30 4042 C 373.579 0.632538 -4.19761 0
M  V30 4043 C 371.486 -1.06713 -5.81693 0
M  V30 4044 H 370.416 0.0215349 -0.753692 0
M  V30 4045 H 373.067 -0.638577 -1.7203 0
M  V30 4046 H 371.449 0.885681 -3.85969 0
M  V30 4047 H 372.623 -1.9562 -4.17216 0
M  V30 4048 H 370.938 -1.62321 -3.83459 0
M  V30 4049 H 373.535 0.743833 -5.29501 0
M  V30 4050 H 373.878 1.63098 -3.83021 0
M  V30 4051 H 374.411 -0.0613987 -3.97753 0
M  V30 4052 H 371.15 -2.03979 -6.22955 0
M  V30 4053 H 370.67 -0.344307 -5.98811 0
M  V30 4054 H 372.349 -0.745208 -6.42694 0
M  V30 4055 N 372.481 1.55866 -0.233164 0
M  V30 4056 C 373.431 2.17442 0.685774 0
M  V30 4057 C 374.415 1.12617 1.14918 0
M  V30 4058 O 375.607 1.3857 1.10124 0
M  V30 4059 C 372.736 2.86685 1.88856 0
M  V30 4060 C 371.822 3.98749 1.4443 0
M  V30 4061 N 372.213 5.00744 0.713364 0
M  V30 4062 C 370.511 4.11052 1.73068 0
M  V30 4063 C 371.212 5.79673 0.485205 0
M  V30 4064 N 370.188 5.33454 1.04536 0
M  V30 4065 H 373.99 2.93659 0.119022 0
M  V30 4066 H 371.504 1.62362 -0.0348995 0
M  V30 4067 H 373.501 3.29218 2.55776 0
M  V30 4068 H 372.161 2.11967 2.45967 0
M  V30 4069 H 373.172 5.16613 0.364861 0
M  V30 4070 H 369.849 3.47495 2.31416 0
M  V30 4071 H 371.239 6.71829 -0.097365 0
M  V30 4072 N 373.959 -0.0401083 1.57549 0
M  V30 4073 C 375.187 -0.745196 1.93014 0
M  V30 4074 C 375.602 -1.6948 0.831984 0
M  V30 4075 O 374.959 -1.81482 -0.192463 0
M  V30 4076 C 375.01 -1.51176 3.28372 0
M  V30 4077 O 374.731 -0.600284 4.33968 0
M  V30 4078 C 376.232 -2.315 3.78051 0
M  V30 4079 H 373.452 -0.210088 0.637263 0
M  V30 4080 H 375.996 -0.000924689 2.045 0
M  V30 4081 H 374.151 -2.20801 3.18317 0
M  V30 4082 H 374.565 -1.13669 5.12035 0
M  V30 4083 H 376.039 -2.80697 4.75303 0
M  V30 4084 H 376.516 -3.12436 3.08675 0
M  V30 4085 H 377.122 -1.66971 3.91153 0
M  V30 4086 N 375.437 -1.54477 -0.31217 0
M  V30 4087 C 376.684 -1.73227 -1.04875 0
M  V30 4088 C 377.012 -0.512042 -1.87639 0
M  V30 4089 O 376.267 0.506131 -1.89042 0
M  V30 4090 C 376.566 -2.967 -1.99258 0
M  V30 4091 C 376.232 -4.30974 -1.32559 0
M  V30 4092 C 374.894 -4.67477 -1.141 0
M  V30 4093 C 377.246 -5.14258 -0.847835 0
M  V30 4094 C 374.574 -5.84852 -0.465326 0
M  V30 4095 C 376.926 -6.32327 -0.185931 0
M  V30 4096 C 375.59 -6.67499 0.0107077 0
M  V30 4097 H 374.86 -0.633881 -0.383765 0
M  V30 4098 H 377.507 -1.88727 -0.324731 0
M  V30 4099 H 375.812 -2.75935 -2.7815 0
M  V30 4100 H 377.509 -3.08401 -2.563 0
M  V30 4101 H 374.099 -4.02262 -1.4793 0
M  V30 4102 H 378.283 -4.86565 -0.978192 0
M  V30 4103 H 373.539 -6.10654 -0.301883 0
M  V30 4104 H 377.713 -6.96135 0.192211 0
M  V30 4105 H 375.34 -7.58306 0.536287 0
M  V30 4106 N 376.915 0.57481 -1.46744 0
M  V30 4107 C 378.163 1.33009 -1.52161 0
M  V30 4108 C 378.484 1.94185 -0.178092 0
M  V30 4109 O 377.754 1.7899 0.796196 0
M  V30 4110 H 376.334 0.493873 -0.560445 0
M  V30 4111 H 378.996 0.672589 -1.82927 0
M  V30 4112 H 378.092 2.13273 -2.27862 0
M  V30 4113 N 378.394 1.34581 0.820102 0
M  V30 4114 C 379.671 1.17675 1.56244 0
M  V30 4115 C 380.051 -0.249541 2.0962 0
M  V30 4116 O 379.399 -1.25125 1.91196 0
M  V30 4117 C 379.609 2.23364 2.6816 0
M  V30 4118 C 380.957 2.58485 3.36854 0
M  V30 4119 O 381.981 2.22175 2.78418 0
M  V30 4120 O 380.84 3.20868 4.42386 0
M  V30 4121 H 377.934 0.456333 0.689702 0
M  V30 4122 H 380.48 1.46222 0.861231 0
M  V30 4123 H 379.252 3.19087 2.26493 0
M  V30 4124 H 378.875 1.96009 3.45928 0
M  V30 4125 N 379.872 -1.04064 1.18357 0
M  V30 4126 C 380.835 -2.10243 0.912707 0
M  V30 4127 C 381.835 -1.60477 -0.101928 0
M  V30 4128 O 383.025 -1.73703 0.131517 0
M  V30 4129 C 380.157 -3.38893 0.369387 0
M  V30 4130 H 381.35 -2.35706 1.85426 0
M  V30 4131 H 378.903 -1.20489 0.995594 0
M  V30 4132 H 379.638 -3.19094 -0.578776 0
M  V30 4133 H 379.423 -3.76331 1.1008 0
M  V30 4134 H 380.913 -4.17128 0.198575 0
M  V30 4135 N 381.35 -0.985608 -1.22978 0
M  V30 4136 C 382.3 -0.50118 -2.22423 0
M  V30 4137 C 383.284 0.426649 -1.5514 0
M  V30 4138 O 384.476 0.254656 -1.75159 0
M  V30 4139 C 381.605 0.190003 -3.42774 0
M  V30 4140 C 380.691 -0.757703 -4.17276 0
M  V30 4141 N 381.082 -1.90251 -4.68656 0
M  V30 4142 C 379.38 -0.57209 -4.42316 0
M  V30 4143 C 380.081 -2.49676 -5.25392 0
M  V30 4144 N 379.057 -1.78013 -5.13627 0
M  V30 4145 H 382.859 -1.37441 -2.59783 0
M  V30 4146 H 380.373 -0.846941 -1.38567 0
M  V30 4147 H 382.37 0.55439 -4.13197 0
M  V30 4148 H 381.03 1.05946 -3.06929 0
M  V30 4149 H 382.041 -2.28354 -4.64839 0
M  V30 4150 H 378.718 0.251909 -4.16739 0
M  V30 4151 H 380.108 -3.46384 -5.75732 0
M  V30 4152 N 382.828 1.3818 -0.7579 0
M  V30 4153 C 383.758 2.33027 -0.148597 0
M  V30 4154 C 384.739 1.55085 0.69875 0
M  V30 4155 O 385.924 1.83384 0.639053 0
M  V30 4156 C 383.054 3.3928 0.742034 0
M  V30 4157 C 382.008 4.28 -0.00291946 0
M  V30 4158 C 381.334 5.25146 1.00625 0
M  V30 4159 C 382.634 5.08938 -1.17385 0
M  V30 4160 H 384.328 2.84231 -0.940909 0
M  V30 4161 H 381.874 1.36659 -0.453908 0
M  V30 4162 H 383.827 4.046 1.17799 0
M  V30 4163 H 382.551 2.86569 1.56671 0
M  V30 4164 H 381.21 3.64192 -0.419504 0
M  V30 4165 H 380.858 4.68721 1.8251 0
M  V30 4166 H 380.558 5.85361 0.512428 0
M  V30 4167 H 382.082 5.93342 1.44143 0
M  V30 4168 H 383.496 5.67474 -0.815224 0
M  V30 4169 H 381.893 5.7841 -1.59882 0
M  V30 4170 H 382.963 4.42424 -1.98468 0
M  V30 4171 N 384.306 0.507319 1.49211 0
M  V30 4172 C 385.536 -0.0315292 2.06576 0
M  V30 4173 C 385.944 -1.30791 1.36713 0
M  V30 4174 O 385.287 -1.78324 0.441181 0
M  V30 4175 C 385.349 -0.349104 3.57801 0
M  V30 4176 C 385.013 0.830475 4.49391 0
M  V30 4177 C 386.01 1.72271 4.90529 0
M  V30 4178 C 383.695 1.03107 4.91604 0
M  V30 4179 C 385.689 2.79964 5.72625 0
M  V30 4180 C 383.376 2.11116 5.73475 0
M  V30 4181 C 384.374 2.99379 6.1389 0
M  V30 4182 O 384.062 4.05523 6.94123 0
M  V30 4183 H 383.794 0.0201002 0.675701 0
M  V30 4184 H 386.348 0.705737 1.92895 0
M  V30 4185 H 384.578 -1.14005 3.69513 0
M  V30 4186 H 386.267 -0.827319 3.97379 0
M  V30 4187 H 387.033 1.57958 4.58557 0
M  V30 4188 H 382.912 0.353417 4.59643 0
M  V30 4189 H 386.456 3.48884 6.04091 0
M  V30 4190 H 382.353 2.25421 6.0486 0
M  V30 4191 H 383.121 4.02953 7.1244 0
M  V30 4192 N 385.784 -1.5574 0.241426 0
M  V30 4193 C 387.03 -1.99104 -0.385406 0
M  V30 4194 C 387.363 -1.1293 -1.57988 0
M  V30 4195 O 386.638 -0.191449 -1.93555 0
M  V30 4196 C 386.921 -3.51087 -0.800616 0
M  V30 4197 C 386.774 -4.48028 0.398874 0
M  V30 4198 C 388.093 -4.08015 -1.64959 0
M  V30 4199 H 385.212 -0.723848 -0.138614 0
M  V30 4200 H 387.854 -1.86903 0.341642 0
M  V30 4201 H 386.004 -3.61615 -1.4201 0
M  V30 4202 H 387.676 -4.49487 1.03726 0
M  V30 4203 H 385.919 -4.21077 1.04293 0
M  V30 4204 H 386.59 -5.51962 0.0651056 0
M  V30 4205 H 389.066 -4.00555 -1.12672 0
M  V30 4206 H 387.942 -5.14635 -1.90898 0
M  V30 4207 H 388.203 -3.56131 -2.61961 0
M  V30 4208 N 387.262 0.0317525 -1.57568 0
M  V30 4209 C 388.21 1.05165 -2.07468 0
M  V30 4210 C 389.204 1.3761 -0.98792 0
M  V30 4211 O 390.41 1.36546 -1.17282 0
M  V30 4212 H 386.785 0.35666 -0.66204 0
M  V30 4213 H 388.756 0.604958 -2.92203 0
M  V30 4214 C 387.505 2.34488 -2.56731 0
M  V30 4215 H 386.828 2.10383 -3.39969 0
M  V30 4216 H 388.268 3.04203 -2.95358 0
M  V30 4217 C 386.727 3.03266 -1.46736 0
M  V30 4218 O 387.257 3.92988 -0.832069 0
M  V30 4219 N 385.463 2.6455 -1.20256 0
M  V30 4220 H 385.01 1.91674 -1.72102 0
M  V30 4221 H 384.968 3.10886 -0.468737 0
M  V30 4222 N 388.74 1.54641 0.303973 0
M  V30 4223 C 389.69 1.8177 1.37636 0
M  V30 4224 C 390.674 0.674697 1.46071 0
M  V30 4225 O 391.866 0.935251 1.50273 0
M  V30 4226 C 388.995 2.06584 2.74186 0
M  V30 4227 C 388.081 3.2706 2.69986 0
M  V30 4228 N 388.472 4.47682 2.35402 0
M  V30 4229 C 386.77 3.29028 3.01092 0
M  V30 4230 C 387.471 5.29689 2.40426 0
M  V30 4231 N 386.447 4.67339 2.7766 0
M  V30 4232 H 390.249 2.72596 1.09857 0
M  V30 4233 H 387.763 1.541 0.51254 0
M  V30 4234 H 389.76 2.24166 3.51504 0
M  V30 4235 H 388.42 1.17024 3.02879 0
M  V30 4236 H 389.431 4.74336 2.07908 0
M  V30 4237 H 386.108 2.49565 3.34699 0
M  V30 4238 H 387.498 6.3606 2.16512 0
M  V30 4239 N 390.218 -0.567019 1.47046 0
M  V30 4240 C 391.148 -1.68482 1.61667 0
M  V30 4241 C 392.129 -1.6358 0.466418 0
M  V30 4242 O 393.314 -1.81354 0.694574 0
M  V30 4243 C 390.444 -3.07124 1.62148 0
M  V30 4244 C 389.398 -3.26867 2.76301 0
M  V30 4245 C 388.724 -4.66196 2.61849 0
M  V30 4246 C 390.024 -3.13186 4.17986 0
M  V30 4247 H 391.718 -1.56502 2.5524 0
M  V30 4248 H 389.264 -0.751486 1.22836 0
M  V30 4249 H 391.217 -3.8516 1.70968 0
M  V30 4250 H 389.941 -3.2004 0.651287 0
M  V30 4251 H 388.6 -2.51237 2.66975 0
M  V30 4252 H 388.248 -4.75898 1.62879 0
M  V30 4253 H 387.948 -4.80356 3.38425 0
M  V30 4254 H 389.472 -5.46379 2.72584 0
M  V30 4255 H 390.886 -3.81049 4.2834 0
M  V30 4256 H 389.283 -3.3886 4.95272 0
M  V30 4257 H 390.353 -2.10057 4.3704 0
M  V30 4258 N 391.696 -1.35014 -0.812953 0
M  V30 4259 C 392.973 -1.18502 -1.55617 0
M  V30 4260 C 393.353 0.238421 -2.09749 0
M  V30 4261 O 392.701 1.2411 -1.91857 0
M  V30 4262 C 392.911 -2.24783 -2.66971 0
M  V30 4263 C 394.259 -2.60268 -3.35478 0
M  V30 4264 O 395.283 -2.23648 -2.77236 0
M  V30 4265 O 394.142 -3.2321 -4.40678 0
M  V30 4266 H 391.236 -0.459984 -0.687272 0
M  V30 4267 H 393.782 -1.46677 -0.853464 0
M  V30 4268 H 392.554 -3.20284 -2.24798 0
M  V30 4269 H 392.177 -1.97841 -3.44884 0
M  V30 4270 N 393.175 1.03435 -1.18907 0
M  V30 4271 C 394.107 2.1165 -0.879595 0
M  V30 4272 C 395.12 1.62316 0.125439 0
M  V30 4273 O 396.309 1.78201 -0.103245 0
M  V30 4274 C 393.409 3.37622 -0.294042 0
M  V30 4275 C 392.582 4.16166 -1.34629 0
M  V30 4276 C 391.641 5.20457 -0.775274 0
M  V30 4277 O 390.667 5.50379 -1.4516 0
M  V30 4278 N 391.869 5.78949 0.424126 0
M  V30 4279 H 394.634 2.38791 -1.81105 0
M  V30 4280 H 392.195 1.19681 -1.09032 0
M  V30 4281 H 394.187 4.04572 0.101679 0
M  V30 4282 H 392.757 3.07873 0.541575 0
M  V30 4283 H 391.977 3.44444 -1.91707 0
M  V30 4284 H 393.265 4.65432 -2.05549 0
M  V30 4285 H 392.663 5.56948 0.991209 0
M  V30 4286 H 391.22 6.47334 0.761691 0
M  V30 4287 N 394.653 0.992116 1.22453 0
M  V30 4288 C 395.902 0.662992 1.90492 0
M  V30 4289 C 396.215 -0.808407 1.78113 0
M  V30 4290 O 397.421 -1.24908 2.41061 0
M  V30 4291 C 395.877 1.1353 3.41524 0
M  V30 4292 C 395.485 2.63187 3.62542 0
M  V30 4293 C 397.229 0.880465 4.15269 0
M  V30 4294 C 395.136 3.04024 5.0727 0
M  V30 4295 H 394.066 0.244278 0.713333 0
M  V30 4296 H 396.717 1.20157 1.38688 0
M  V30 4297 H 395.099 0.52485 3.92506 0
M  V30 4298 H 396.273 3.2957 3.22056 0
M  V30 4299 H 394.588 2.86543 3.02129 0
M  V30 4300 H 397.185 1.16128 5.21937 0
M  V30 4301 H 397.528 -0.183408 4.15896 0
M  V30 4302 H 398.061 1.45307 3.70312 0
M  V30 4303 H 394.8 4.09584 5.11782 0
M  V30 4304 H 394.32 2.42343 5.48662 0
M  V30 4305 H 395.999 2.95282 5.75689 0
M  V30 4306 N 396.131 -1.37776 0.765217 0
M  V30 4307 C 397.078 -2.30342 0.145274 0
M  V30 4308 C 398.048 -1.5077 -0.696971 0
M  V30 4309 O 399.233 -1.79362 -0.650689 0
M  V30 4310 C 396.373 -3.37227 -0.732939 0
M  V30 4311 C 395.486 -4.31819 0.125199 0
M  V30 4312 C 394.621 -5.25777 -0.757107 0
M  V30 4313 C 393.66 -6.12012 0.103963 0
M  V30 4314 N 392.797 -6.98232 -0.735953 0
M  V30 4315 H 397.637 -2.8278 0.940195 0
M  V30 4316 H 395.174 -1.39211 0.475255 0
M  V30 4317 H 397.132 -3.97818 -1.25686 0
M  V30 4318 H 395.762 -2.86171 -1.49353 0
M  V30 4319 H 394.814 -3.7259 0.766865 0
M  V30 4320 H 396.126 -4.92509 0.789683 0
M  V30 4321 H 395.28 -5.91541 -1.34776 0
M  V30 4322 H 394.019 -4.65481 -1.45529 0
M  V30 4323 H 393.024 -5.45233 0.707197 0
M  V30 4324 H 394.249 -6.74379 0.799381 0
M  V30 4325 H 392.195 -6.40472 -1.41887 0
M  V30 4326 H 392.112 -7.55891 -0.128624 0
M  V30 4327 H 393.38 -7.68393 -1.31121 0
M  V30 4328 N 397.609 -0.515225 -1.4894 0
M  V30 4329 C 398.519 0.259774 -2.33157 0
M  V30 4330 C 399.535 0.953501 -1.45548 0
M  V30 4331 O 400.711 0.931735 -1.78552 0
M  V30 4332 C 397.776 1.30193 -3.21326 0
M  V30 4333 C 396.837 0.620129 -4.24797 0
M  V30 4334 C 396.07 1.61263 -5.08753 0
M  V30 4335 O 396.293 2.84389 -4.94448 0
M  V30 4336 O 395.227 1.16013 -5.90614 0
M  V30 4337 H 399.053 -0.429932 -3.00641 0
M  V30 4338 H 396.638 -0.276346 -1.46822 0
M  V30 4339 H 398.52 1.90455 -3.75905 0
M  V30 4340 H 397.195 1.97431 -2.56521 0
M  V30 4341 H 396.102 -0.0226019 -3.74093 0
M  V30 4342 H 397.435 -0.0100493 -4.92199 0
M  V30 4343 N 399.087 1.5561 -0.249682 0
M  V30 4344 C 400.019 2.18834 0.681496 0
M  V30 4345 C 401.032 1.16546 1.1367 0
M  V30 4346 O 402.221 1.43397 1.06299 0
M  V30 4347 C 399.321 2.77992 1.9384 0
M  V30 4348 C 398.494 4.05725 1.63419 0
M  V30 4349 C 397.553 4.49174 2.74096 0
M  V30 4350 O 396.579 5.15492 2.41364 0
M  V30 4351 N 397.781 4.17191 4.03649 0
M  V30 4352 H 400.546 2.9937 0.140514 0
M  V30 4353 H 398.107 1.6175 -0.0697541 0
M  V30 4354 H 400.099 3.04015 2.67127 0
M  V30 4355 H 398.669 2.01596 2.38909 0
M  V30 4356 H 397.889 3.87261 0.736358 0
M  V30 4357 H 399.177 4.88999 1.40562 0
M  V30 4358 H 398.575 3.63955 4.33074 0
M  V30 4359 H 397.132 4.48043 4.73393 0
M  V30 4360 N 400.565 -0.0233959 1.57583 0
M  V30 4361 C 401.495 -1.02162 2.09965 0
M  V30 4362 C 402.476 -1.3735 1.00344 0
M  V30 4363 O 403.661 -1.46135 1.27899 0
M  V30 4364 C 400.791 -2.32081 2.58371 0
M  V30 4365 C 399.745 -2.1112 3.72307 0
M  V30 4366 C 399.071 -3.46848 4.06941 0
M  V30 4367 C 400.371 -1.49276 5.00514 0
M  V30 4368 H 402.065 -0.585557 2.93618 0
M  V30 4369 H 399.611 -0.280218 1.41247 0
M  V30 4370 H 401.564 -3.02249 2.93639 0
M  V30 4371 H 400.288 -2.77758 1.71808 0
M  V30 4372 H 398.947 -1.43384 3.37397 0
M  V30 4373 H 398.595 -3.90184 3.17436 0
M  V30 4374 H 398.295 -3.33646 4.83688 0
M  V30 4375 H 399.819 -4.18369 4.44747 0
M  V30 4376 H 401.233 -2.09368 5.33702 0
M  V30 4377 H 399.63 -1.46632 5.8191 0
M  V30 4378 H 400.7 -0.459217 4.82721 0
M  V30 4379 N 402.043 -1.548 -0.295768 0
M  V30 4380 C 403.268 -1.78653 -1.05346 0
M  V30 4381 C 403.693 -0.546894 -1.79974 0
M  V30 4382 O 403.051 0.502763 -1.7419 0
M  V30 4383 C 403.099 -2.99679 -2.00561 0
M  V30 4384 O 402.203 -2.7317 -3.08953 0
M  V30 4385 H 401.544 -0.59116 -0.302367 0
M  V30 4386 H 404.074 -2.01895 -0.331598 0
M  V30 4387 H 404.084 -3.27793 -2.42932 0
M  V30 4388 H 402.759 -3.89562 -1.4565 0
M  V30 4389 H 401.336 -2.56089 -2.71059 0
M  V30 4390 N 403.521 0.559213 -1.47345 0
M  V30 4391 C 404.937 0.884943 -1.32819 0
M  V30 4392 C 405.137 1.98988 -0.317173 0
M  V30 4393 O 404.193 2.51031 0.272011 0
M  V30 4394 C 405.506 1.28007 -2.72093 0
M  V30 4395 C 407.054 1.39161 -2.80363 0
M  V30 4396 C 407.529 1.82031 -4.20272 0
M  V30 4397 N 409.02 1.89185 -4.22804 0
M  V30 4398 C 409.755 2.2368 -5.27973 0
M  V30 4399 N 409.251 2.56802 -6.43447 0
M  V30 4400 N 411.044 2.24436 -5.15349 0
M  V30 4401 H 403.195 -0.170304 -2.11716 0
M  V30 4402 H 405.458 -0.0135247 -0.947904 0
M  V30 4403 H 405.164 0.542027 -3.47498 0
M  V30 4404 H 405.038 2.23665 -3.03733 0
M  V30 4405 H 407.425 2.12048 -2.05231 0
M  V30 4406 H 407.506 0.41696 -2.52379 0
M  V30 4407 H 407.15 1.09715 -4.95908 0
M  V30 4408 H 407.08 2.80495 -4.45679 0
M  V30 4409 H 409.571 1.65982 -3.39497 0
M  V30 4410 H 409.884 2.82144 -7.19454 0
M  V30 4411 H 408.229 2.54387 -6.46771 0
M  V30 4412 H 411.42 1.97998 -4.24163 0
M  V30 4413 H 411.593 2.50989 -5.97418 0
M  V30 4414 N 404.999 1.35443 0.805782 0
M  V30 4415 C 406.227 1.31878 1.59423 0
M  V30 4416 C 406.642 -0.103562 1.88516 0
M  V30 4417 O 405.999 -1.05575 1.48863 0
M  V30 4418 C 406.05 2.12426 2.92502 0
M  V30 4419 O 405.771 3.49115 2.6467 0
M  V30 4420 C 407.272 2.16455 3.86862 0
M  V30 4421 H 404.492 0.453002 0.495005 0
M  V30 4422 H 407.036 1.78309 1.00131 0
M  V30 4423 H 405.191 1.69593 3.48306 0
M  V30 4424 H 405.605 3.90957 3.49647 0
M  V30 4425 H 407.079 2.77204 4.77349 0
M  V30 4426 H 407.556 1.16352 4.23508 0
M  V30 4427 H 408.162 2.59453 3.36993 0
M  V30 4428 N 406.477 -1.02803 1.19454 0
M  V30 4429 C 407.888 -1.57667 0.999899 0
M  V30 4430 C 408.239 -1.91041 -0.446956 0
M  V30 4431 O 407.364 -1.70978 -1.32648 0
M  V30 4432 C 407.959 -2.86477 1.80877 0
M  V30 4433 C 406.518 -3.37911 1.65811 0
M  V30 4434 C 405.665 -2.11343 1.79526 0
M  V30 4435 H 408.616 -0.853214 1.33813 0
M  V30 4436 H 408.637 -3.57408 1.30536 0
M  V30 4437 H 408.149 -2.62155 2.86175 0
M  V30 4438 H 406.25 -3.67218 0.63102 0
M  V30 4439 H 406.363 -4.10885 2.46395 0
M  V30 4440 H 404.727 -2.23254 1.22596 0
M  V30 4441 H 405.51 -1.89461 2.86285 0
M  V30 4442 N 407.956 -0.998596 -1.21925 0
M  V30 4443 C 409.372 -0.710303 -1.42923 0
M  V30 4444 C 409.572 0.716933 -1.88314 0
M  V30 4445 O 408.628 1.48712 -2.04062 0
M  V30 4446 C 409.941 -1.72072 -2.466 0
M  V30 4447 C 411.489 -1.73681 -2.60392 0
M  V30 4448 C 411.964 -2.73601 -3.67296 0
M  V30 4449 N 413.455 -2.7223 -3.7476 0
M  V30 4450 C 414.19 -3.46206 -4.57087 0
M  V30 4451 N 413.686 -4.29802 -5.43362 0
M  V30 4452 N 415.479 -3.34886 -4.51451 0
M  V30 4453 H 407.63 -1.92028 -0.9077 0
M  V30 4454 H 409.893 -0.828487 -0.460775 0
M  V30 4455 H 409.599 -2.74231 -2.20206 0
M  V30 4456 H 409.473 -1.51818 -3.45299 0
M  V30 4457 H 411.86 -0.722173 -2.86127 0
M  V30 4458 H 411.941 -1.98005 -1.61949 0
M  V30 4459 H 411.585 -3.75217 -3.42307 0
M  V30 4460 H 411.515 -2.46545 -4.65321 0
M  V30 4461 H 414.006 -2.11576 -3.1312 0
M  V30 4462 H 414.319 -4.83061 -6.03218 0
M  V30 4463 H 412.664 -4.33887 -5.42925 0
M  V30 4464 H 415.855 -2.69015 -3.83078 0
M  V30 4465 H 416.028 -3.92796 -5.15379 0
M  V30 4466 N 409.434 1.37368 -0.772513 0
M  V30 4467 C 410.845 1.8231 -0.402493 0
M  V30 4468 C 411.196 1.6436 1.07146 0
M  V30 4469 O 410.321 1.15514 1.82991 0
M  V30 4470 C 410.916 3.30979 -0.723776 0
M  V30 4471 C 409.475 3.74195 -0.406802 0
M  V30 4472 C 408.622 2.59885 -0.967218 0
M  V30 4473 H 411.573 1.25829 -0.967099 0
M  V30 4474 H 411.594 3.80499 -0.00870832 0
M  V30 4475 H 411.106 3.44011 -1.7966 0
M  V30 4476 H 409.207 3.66732 0.658673 0
M  V30 4477 H 409.32 4.7027 -0.915588 0
M  V30 4478 H 407.684 2.51674 -0.391416 0
M  V30 4479 H 408.467 2.7571 -2.04546 0
M  V30 4480 N 410.912 0.523116 1.48665 0
M  V30 4481 C 411.875 -0.232592 2.28017 0
M  V30 4482 C 412.875 -0.874021 1.34972 0
M  V30 4483 O 414.065 -0.735132 1.57929 0
M  V30 4484 C 411.197 -1.33586 3.13636 0
M  V30 4485 H 412.39 0.464008 2.96289 0
M  V30 4486 H 409.943 0.278816 1.53793 0
M  V30 4487 H 410.678 -2.06593 2.4998 0
M  V30 4488 H 410.463 -0.881125 3.82071 0
M  V30 4489 H 411.953 -1.86759 3.73511 0
M  V30 4490 N 412.39 -1.55475 0.257931 0
M  V30 4491 C 413.801 -1.8511 -0.243135 0
M  V30 4492 C 414.152 -1.17986 -1.5676 0
M  V30 4493 O 413.277 -0.462102 -2.11409 0
M  V30 4494 C 413.872 -3.35826 -0.447929 0
M  V30 4495 C 412.431 -3.65647 -0.893245 0
M  V30 4496 C 411.578 -2.7729 0.0232965 0
M  V30 4497 H 414.529 -1.51261 0.480199 0
M  V30 4498 H 414.55 -3.58002 -1.28898 0
M  V30 4499 H 414.062 -3.84652 0.516196 0
M  V30 4500 H 412.163 -3.22308 -1.86945 0
M  V30 4501 H 412.276 -4.73312 -0.742469 0
M  V30 4502 H 410.64 -2.49942 -0.490021 0
M  V30 4503 H 411.423 -3.28926 0.982994 0
M  V30 4504 N 413.868 0.0150385 -1.57593 0
M  V30 4505 C 415.096 0.714395 -1.94175 0
M  V30 4506 C 415.511 1.68135 -0.858841 0
M  V30 4507 O 414.868 1.81766 0.163567 0
M  V30 4508 C 414.919 1.45933 -3.30735 0
M  V30 4509 O 414.64 0.531167 -4.34868 0
M  V30 4510 C 416.141 2.25456 -3.81686 0
M  V30 4511 H 413.361 0.199923 -0.640525 0
M  V30 4512 H 415.905 -0.0316096 -2.04476 0
M  V30 4513 H 414.06 2.15709 -3.21789 0
M  V30 4514 H 414.474 1.05509 -5.13778 0
M  V30 4515 H 415.948 2.731 -4.79709 0
M  V30 4516 H 416.425 3.07485 -3.13607 0
M  V30 4517 H 417.031 1.60727 -3.9376 0
M  V30 4518 N 415.346 1.54954 0.287554 0
M  V30 4519 C 416.276 1.89839 1.35954 0
M  V30 4520 C 417.257 0.758675 1.52244 0
M  V30 4521 O 418.442 1.01557 1.65529 0
M  V30 4522 C 415.572 2.15753 2.72154 0
M  V30 4523 C 414.526 3.3159 2.70614 0
M  V30 4524 C 413.852 3.42952 4.10229 0
M  V30 4525 C 415.152 4.68359 2.31165 0
M  V30 4526 H 416.846 2.79625 1.07007 0
M  V30 4527 H 414.392 1.3454 0.513316 0
M  V30 4528 H 416.345 2.38743 3.47246 0
M  V30 4529 H 415.069 1.22752 3.02654 0
M  V30 4530 H 413.728 3.08545 1.97979 0
M  V30 4531 H 413.376 2.47443 4.37928 0
M  V30 4532 H 413.076 4.20826 4.10097 0
M  V30 4533 H 414.6 3.68218 4.87081 0
M  V30 4534 H 416.014 4.9099 2.95976 0
M  V30 4535 H 414.411 5.49044 2.42221 0
M  V30 4536 H 415.481 4.68165 1.26291 0
M  V30 4537 N 416.824 -0.551391 1.4764 0
M  V30 4538 C 417.756 -1.67333 1.56628 0
M  V30 4539 C 418.769 -1.56398 0.452045 0
M  V30 4540 O 419.958 -1.6325 0.721926 0
M  V30 4541 C 417.058 -3.05841 1.45994 0
M  V30 4542 C 416.231 -3.42472 2.72088 0
M  V30 4543 C 415.29 -4.60168 2.55209 0
M  V30 4544 O 414.316 -4.64458 3.2904 0
M  V30 4545 N 415.518 -5.57024 1.63416 0
M  V30 4546 H 418.283 -1.60066 2.53375 0
M  V30 4547 H 415.844 -0.738169 1.44093 0
M  V30 4548 H 417.836 -3.8242 1.32428 0
M  V30 4549 H 416.406 -3.07302 0.573071 0
M  V30 4550 H 415.626 -2.55284 3.00373 0
M  V30 4551 H 416.914 -3.63723 3.55785 0
M  V30 4552 H 416.312 -5.56319 1.02594 0
M  V30 4553 H 414.869 -6.32906 1.558 0
M  V30 4554 N 418.302 -1.35869 -0.798587 0
M  V30 4555 C 419.232 -1.32118 -1.92528 0
M  V30 4556 C 420.213 -0.194209 -1.68988 0
M  V30 4557 O 421.398 -0.390426 -1.90235 0
M  V30 4558 C 418.528 -1.10047 -3.29404 0
M  V30 4559 C 417.482 -2.19471 -3.67446 0
M  V30 4560 C 416.808 -1.82555 -5.02571 0
M  V30 4561 C 418.108 -3.61495 -3.76987 0
M  V30 4562 H 419.802 -2.26394 -1.95924 0
M  V30 4563 H 417.348 -1.08981 -0.94123 0
M  V30 4564 H 419.301 -1.06061 -4.07835 0
M  V30 4565 H 418.025 -0.122195 -3.26371 0
M  V30 4566 H 416.684 -2.22568 -2.91306 0
M  V30 4567 H 416.332 -0.833249 -4.9605 0
M  V30 4568 H 416.032 -2.5581 -5.28995 0
M  V30 4569 H 417.556 -1.80108 -5.83432 0
M  V30 4570 H 418.97 -3.60676 -4.4563 0
M  V30 4571 H 417.367 -4.33577 -4.14887 0
M  V30 4572 H 418.437 -3.97065 -2.78329 0
M  V30 4573 N 419.78 1.02168 -1.19998 0
M  V30 4574 C 420.728 2.12717 -0.940967 0
M  V30 4575 C 421.722 1.69069 0.105841 0
M  V30 4576 O 422.928 1.79946 -0.0440583 0
M  V30 4577 H 419.303 0.695108 -0.28693 0
M  V30 4578 H 421.274 2.3175 -1.87975 0
M  V30 4579 C 420.023 3.44027 -0.504049 0
M  V30 4580 H 419.346 3.78036 -1.30112 0
M  V30 4581 H 420.786 4.22452 -0.361991 0
M  V30 4582 C 419.245 3.27678 0.782878 0
M  V30 4583 O 419.775 3.56949 1.84256 0
M  V30 4584 N 417.981 2.80943 0.742921 0
M  V30 4585 H 417.528 2.57322 -0.119687 0
M  V30 4586 H 417.486 2.70385 1.60435 0
M  V30 4587 N 421.258 1.00505 1.21394 0
M  V30 4588 C 422.669 0.721082 1.72213 0
M  V30 4589 C 423.02 -0.761263 1.80829 0
M  V30 4590 O 422.145 -1.59464 1.46288 0
M  V30 4591 C 422.74 1.30228 3.12772 0
M  V30 4592 C 421.299 1.06743 3.60947 0
M  V30 4593 C 420.446 1.41507 2.38477 0
M  V30 4594 H 423.397 1.17594 1.06571 0
M  V30 4595 H 423.418 0.686955 3.74247 0
M  V30 4596 H 422.93 2.38115 3.06468 0
M  V30 4597 H 421.031 0.00572162 3.726 0
M  V30 4598 H 421.144 1.73936 4.46411 0
M  V30 4599 H 419.508 0.833852 2.40664 0
M  V30 4600 H 420.291 2.50424 2.34824 0
M  V30 4601 N 422.737 -1.36956 0.779787 0
M  V30 4602 C 424.014 -1.93697 0.272156 0
M  V30 4603 C 424.394 -1.71267 -1.23413 0
M  V30 4604 O 423.742 -1.06607 -2.02107 0
M  V30 4605 C 423.952 -3.42812 0.654291 0
M  V30 4606 C 425.3 -4.19921 0.628602 0
M  V30 4607 O 426.324 -3.51209 0.594172 0
M  V30 4608 O 425.183 -5.42465 0.662864 0
M  V30 4609 H 422.277 -0.824447 0.0649286 0
M  V30 4610 H 424.823 -1.46196 0.861682 0
M  V30 4611 H 423.595 -3.52754 1.69353 0
M  V30 4612 H 423.218 -3.97582 0.0381369 0
M  V30 4613 N 424.215 -0.530993 -1.48385 0
M  V30 4614 C 425.162 0.231223 -2.29639 0
M  V30 4615 C 426.132 0.932864 -1.37429 0
M  V30 4616 O 427.317 0.933692 -1.66394 0
M  V30 4617 C 424.457 1.27155 -3.2082 0
M  V30 4618 C 423.57 0.578655 -4.28107 0
M  V30 4619 C 422.705 1.602 -5.06467 0
M  V30 4620 C 421.744 0.892625 -6.05556 0
M  V30 4621 N 420.881 1.86157 -6.76971 0
M  V30 4622 H 425.721 -0.467848 -2.94305 0
M  V30 4623 H 423.258 -0.242556 -1.45086 0
M  V30 4624 H 425.216 1.88703 -3.72085 0
M  V30 4625 H 423.846 1.939 -2.58075 0
M  V30 4626 H 422.898 -0.150782 -3.80101 0
M  V30 4627 H 424.21 0.0217065 -4.98795 0
M  V30 4628 H 423.364 2.29173 -5.61751 0
M  V30 4629 H 422.103 2.19285 -4.35621 0
M  V30 4630 H 421.108 0.188829 -5.49476 0
M  V30 4631 H 422.333 0.307878 -6.78402 0
M  V30 4632 H 420.279 2.44147 -6.08875 0
M  V30 4633 H 420.196 1.35608 -7.43738 0
M  V30 4634 H 421.464 2.54325 -7.36844 0
M  V30 4635 N 425.693 1.55336 -0.266172 0
M  V30 4636 C 426.643 2.18848 0.639497 0
M  V30 4637 C 427.627 1.1503 1.12503 0
M  V30 4638 O 428.819 1.40875 1.0716 0
M  V30 4639 C 425.948 2.90626 1.82733 0
M  V30 4640 C 425.034 4.01723 1.35939 0
M  V30 4641 N 425.425 5.02145 0.606988 0
M  V30 4642 C 423.723 4.1463 1.6431 0
M  V30 4643 C 424.424 5.80572 0.362138 0
M  V30 4644 N 423.4 5.35551 0.931971 0
M  V30 4645 H 427.202 2.93845 0.0567057 0
M  V30 4646 H 424.716 1.62252 -0.0693312 0
M  V30 4647 H 426.713 3.34569 2.48735 0
M  V30 4648 H 425.373 2.17137 2.41416 0
M  V30 4649 H 426.384 5.17271 0.255198 0
M  V30 4650 H 423.061 3.52326 2.23993 0
M  V30 4651 H 424.451 6.71472 -0.239848 0
M  V30 4652 N 427.171 -0.0066808 1.57599 0
M  V30 4653 C 428.448 -0.729586 1.81484 0
M  V30 4654 C 428.828 -1.92359 0.869558 0
M  V30 4655 O 428.176 -2.28348 -0.0832533 0
M  V30 4656 C 428.386 -1.1416 3.29801 0
M  V30 4657 C 429.734 -1.54823 3.95367 0
M  V30 4658 O 430.758 -1.23558 3.34084 0
M  V30 4659 O 429.617 -2.12937 5.03309 0
M  V30 4660 H 426.711 -0.354674 0.747085 0
M  V30 4661 H 429.257 0.0182609 1.6969 0
M  V30 4662 H 428.029 -0.290231 3.90222 0
M  V30 4663 H 427.652 -1.94876 3.46568 0
M  V30 4664 N 428.649 -1.55105 -0.279332 0
M  V30 4665 C 429.898 -1.74618 -1.00952 0
M  V30 4666 C 430.211 -0.551096 -1.87676 0
M  V30 4667 O 431.417 -0.628507 -2.64125 0
M  V30 4668 C 429.873 -3.09025 -1.84476 0
M  V30 4669 C 429.481 -4.36081 -1.0265 0
M  V30 4670 C 431.225 -3.37891 -2.56963 0
M  V30 4671 C 429.132 -5.6153 -1.85576 0
M  V30 4672 H 428.062 -0.650868 -0.38064 0
M  V30 4673 H 430.713 -1.81569 -0.265475 0
M  V30 4674 H 429.095 -2.96095 -2.62952 0
M  V30 4675 H 430.269 -4.59909 -0.286354 0
M  V30 4676 H 428.584 -4.14312 -0.416464 0
M  V30 4677 H 431.181 -4.28822 -3.19399 0
M  V30 4678 H 431.524 -2.57737 -3.26921 0
M  V30 4679 H 432.057 -3.5189 -1.85522 0
M  V30 4680 H 428.796 -6.44413 -1.2005 0
M  V30 4681 H 428.316 -5.41854 -2.57204 0
M  V30 4682 H 429.995 -5.99594 -2.43096 0
M  V30 4683 N 430.127 0.543554 -1.4793 0
M  V30 4684 C 431.374 1.30008 -1.55255 0
M  V30 4685 C 431.702 1.93245 -0.220612 0
M  V30 4686 O 430.957 1.79141 0.787843 0
M  V30 4687 C 431.256 2.42078 -2.62932 0
M  V30 4688 C 430.922 1.96583 -4.0579 0
M  V30 4689 C 429.584 1.83893 -4.44676 0
M  V30 4690 C 431.936 1.62034 -4.95373 0
M  V30 4691 C 429.264 1.34969 -5.70964 0
M  V30 4692 C 431.616 1.14577 -6.22137 0
M  V30 4693 C 430.28 1.00493 -6.59892 0
M  V30 4694 H 429.55 0.475735 -0.568117 0
M  V30 4695 H 432.197 0.608075 -1.81589 0
M  V30 4696 H 430.502 3.16892 -2.30406 0
M  V30 4697 H 432.199 3.00236 -2.65818 0
M  V30 4698 H 428.789 2.07407 -3.75074 0
M  V30 4699 H 432.973 1.70705 -4.66019 0
M  V30 4700 H 428.229 1.2274 -5.98953 0
M  V30 4701 H 432.403 0.869109 -6.90955 0
M  V30 4702 H 430.03 0.623624 -7.57638 0
M  V30 4703 N 431.605 1.3629 0.791371 0
M  V30 4704 C 432.882 1.20962 1.53712 0
M  V30 4705 C 433.262 -0.205021 2.10102 0
M  V30 4706 O 432.61 -1.21042 1.93807 0
M  V30 4707 C 432.82 2.29002 2.63361 0
M  V30 4708 C 434.168 2.65572 3.31295 0
M  V30 4709 O 435.192 2.2803 2.73643 0
M  V30 4710 O 434.051 3.3018 4.35481 0
M  V30 4711 H 431.145 0.47086 0.679867 0
M  V30 4712 H 433.691 1.48016 0.830021 0
M  V30 4713 H 432.463 3.2382 2.19674 0
M  V30 4714 H 432.086 2.03303 3.41692 0
M  V30 4715 N 433.083 -1.0153 1.20538 0
M  V30 4716 C 434.33 -1.75149 1.01633 0
M  V30 4717 C 434.658 -1.89189 -0.451399 0
M  V30 4718 O 433.913 -1.41551 -1.35136 0
M  V30 4719 C 434.212 -3.17213 1.64654 0
M  V30 4720 C 433.878 -3.23146 3.14464 0
M  V30 4721 C 432.54 -3.24472 3.55347 0
M  V30 4722 C 434.892 -3.21207 4.10458 0
M  V30 4723 C 432.22 -3.21532 4.90748 0
M  V30 4724 C 434.572 -3.19808 5.45807 0
M  V30 4725 C 433.236 -3.19439 5.86102 0
M  V30 4726 H 432.506 -0.640914 0.3719 0
M  V30 4727 H 435.153 -1.19071 1.49981 0
M  V30 4728 H 433.458 -3.76457 1.08571 0
M  V30 4729 H 435.155 -3.72871 1.4754 0
M  V30 4730 H 431.745 -3.2285 2.81897 0
M  V30 4731 H 435.929 -3.19351 3.79906 0
M  V30 4732 H 431.185 -3.19578 5.21229 0
M  V30 4733 H 435.359 -3.1726 6.19935 0
M  V30 4734 H 432.986 -3.16915 6.90991 0
M  V30 4735 N 434.561 -1.01147 -1.20859 0
M  V30 4736 C 435.838 -0.613136 -1.85742 0
M  V30 4737 C 436.218 0.909004 -1.90526 0
M  V30 4738 O 435.566 1.79862 -1.40932 0
M  V30 4739 C 435.776 -1.255 -3.25654 0
M  V30 4740 C 437.124 -1.3672 -4.01986 0
M  V30 4741 O 438.148 -1.21082 -3.34989 0
M  V30 4742 O 437.007 -1.6194 -5.21956 0
M  V30 4743 H 434.101 -0.210878 -0.799662 0
M  V30 4744 H 436.647 -1.10853 -1.2849 0
M  V30 4745 H 435.419 -2.29532 -3.16908 0
M  V30 4746 H 435.042 -0.746369 -3.90532 0
M  V30 4747 N 436.039 1.36541 -0.78704 0
M  V30 4748 C 436.972 2.27831 -0.129765 0
M  V30 4749 C 437.95 1.47105 0.692732 0
M  V30 4750 O 439.134 1.7641 0.664222 0
M  V30 4751 C 436.261 3.28577 0.821883 0
M  V30 4752 C 435.307 4.26422 0.0814771 0
M  V30 4753 S 436.14 5.20919 -1.24112 0
M  V30 4754 C 437.296 6.25212 -0.293409 0
M  V30 4755 H 437.529 2.83229 -0.903811 0
M  V30 4756 H 435.062 1.43046 -0.581144 0
M  V30 4757 H 437.02 3.87123 1.3655 0
M  V30 4758 H 435.681 2.72096 1.56916 0
M  V30 4759 H 434.874 4.97554 0.803485 0
M  V30 4760 H 434.476 3.71944 -0.391589 0
M  V30 4761 H 436.768 6.75435 0.528622 0
M  V30 4762 H 437.711 7.01378 -0.973344 0
M  V30 4763 H 438.119 5.64407 0.102196 0
M  V30 4764 N 437.518 0.538854 1.48102 0
M  V30 4765 C 438.465 -0.219042 2.29758 0
M  V30 4766 C 439.435 -0.925562 1.37922 0
M  V30 4767 O 440.62 -0.924855 1.66886 0
M  V30 4768 C 437.76 -1.25452 3.2149 0
M  V30 4769 C 436.873 -0.555943 4.28408 0
M  V30 4770 C 436.008 -1.57512 5.0731 0
M  V30 4771 C 435.047 -0.860498 6.06021 0
M  V30 4772 N 434.184 -1.82564 6.77949 0
M  V30 4773 H 439.024 0.483449 2.94052 0
M  V30 4774 H 436.561 0.250247 1.44956 0
M  V30 4775 H 438.519 -1.86727 3.7308 0
M  V30 4776 H 437.149 -1.92528 2.591 0
M  V30 4777 H 436.201 0.170938 3.80016 0
M  V30 4778 H 437.513 0.00474616 4.988 0
M  V30 4779 H 436.667 -2.26191 5.62959 0
M  V30 4780 H 435.406 -2.16972 4.36778 0
M  V30 4781 H 434.411 -0.159686 5.49568 0
M  V30 4782 H 435.636 -0.271897 6.78555 0
M  V30 4783 H 433.582 -2.40915 6.10161 0
M  V30 4784 H 433.499 -1.31662 7.44447 0
M  V30 4785 H 434.767 -2.50414 7.38182 0
M  V30 4786 N 438.996 -1.55193 0.274407 0
M  V30 4787 C 440.273 -1.91584 -0.394331 0
M  V30 4788 C 440.653 -1.19858 -1.73774 0
M  V30 4789 O 440.001 -0.3252 -2.26174 0
M  V30 4790 C 440.211 -3.4487 -0.535311 0
M  V30 4791 C 441.559 -4.16636 -0.818534 0
M  V30 4792 O 442.583 -3.5076 -0.620146 0
M  V30 4793 O 441.442 -5.33209 -1.19792 0
M  V30 4794 H 438.536 -0.798349 -0.215794 0
M  V30 4795 H 441.082 -1.66646 0.320507 0
M  V30 4796 H 439.854 -3.89145 0.410141 0
M  V30 4797 H 439.477 -3.75759 -1.29964 0
M  V30 4798 N 440.474 -0.00167713 -1.576 0
M  V30 4799 C 441.723 0.682021 -1.89819 0
M  V30 4800 C 442.036 1.74844 -0.876871 0
M  V30 4801 O 443.242 2.48688 -1.08934 0
M  V30 4802 C 441.698 1.26425 -3.36964 0
M  V30 4803 C 441.306 0.232568 -4.47396 0
M  V30 4804 C 443.05 1.92604 -3.78291 0
M  V30 4805 C 440.957 0.824882 -5.85619 0
M  V30 4806 H 439.887 0.258499 -0.708304 0
M  V30 4807 H 442.538 -0.0624957 -1.83394 0
M  V30 4808 H 440.92 2.05949 -3.38232 0
M  V30 4809 H 442.094 -0.5382 -4.57646 0
M  V30 4810 H 440.409 -0.32888 -4.15099 0
M  V30 4811 H 443.006 2.37827 -4.78897 0
M  V30 4812 H 443.349 2.75732 -3.11894 0
M  V30 4813 H 443.882 1.19812 -3.79328 0
M  V30 4814 H 440.621 0.0323542 -6.55492 0
M  V30 4815 H 440.141 1.56477 -5.79029 0
M  V30 4816 H 441.82 1.32301 -6.33329 0
M  V30 4817 N 441.952 1.55251 0.271103 0
M  V30 4818 C 442.899 1.88261 1.33516 0
M  V30 4819 C 443.869 0.734296 1.48988 0
M  V30 4820 O 445.054 0.985741 1.63364 0
M  V30 4821 C 442.194 2.16168 2.69008 0
M  V30 4822 C 441.307 3.43678 2.61743 0
M  V30 4823 C 440.442 3.61276 3.89427 0
M  V30 4824 C 439.481 4.82472 3.7668 0
M  V30 4825 N 438.618 4.96717 4.96202 0
M  V30 4826 H 443.458 2.79015 1.04665 0
M  V30 4827 H 440.995 1.38137 0.505618 0
M  V30 4828 H 442.953 2.30349 3.47844 0
M  V30 4829 H 441.583 1.28646 2.96057 0
M  V30 4830 H 440.635 3.37959 1.74607 0
M  V30 4831 H 441.947 4.3265 2.48224 0
M  V30 4832 H 441.101 3.75284 4.76704 0
M  V30 4833 H 439.84 2.70492 4.05814 0
M  V30 4834 H 438.845 4.68465 2.87786 0
M  V30 4835 H 440.07 5.74692 3.61809 0
M  V30 4836 H 438.016 4.08865 5.12997 0
M  V30 4837 H 437.933 5.79738 4.85222 0
M  V30 4838 H 439.201 5.15113 5.85046 0
M  V30 4839 N 443.43 -0.535701 1.48216 0
M  V30 4840 C 444.36 -1.65014 1.65204 0
M  V30 4841 C 445.341 -1.62554 0.501011 0
M  V30 4842 O 446.526 -1.7984 0.732886 0
M  V30 4843 C 443.656 -3.03616 1.68626 0
M  V30 4844 C 442.61 -3.20932 2.83172 0
M  V30 4845 C 441.936 -4.60537 2.71679 0
M  V30 4846 C 443.236 -3.04249 4.24535 0
M  V30 4847 H 444.93 -1.51053 2.58502 0
M  V30 4848 H 442.476 -0.725262 1.24402 0
M  V30 4849 H 444.429 -3.81446 1.79099 0
M  V30 4850 H 443.153 -3.18587 0.719026 0
M  V30 4851 H 441.812 -2.45517 2.72244 0
M  V30 4852 H 441.46 -4.72336 1.72937 0
M  V30 4853 H 441.16 -4.73069 3.48538 0
M  V30 4854 H 442.684 -5.40475 2.84112 0
M  V30 4855 H 444.098 -3.71877 4.36326 0
M  V30 4856 H 442.495 -3.28278 5.02348 0
M  V30 4857 H 443.565 -2.00739 4.41397 0
M  V30 4858 N 444.908 -1.36708 -0.784132 0
M  V30 4859 C 445.838 -1.34153 -1.91116 0
M  V30 4860 C 446.819 -0.212121 -1.68772 0
M  V30 4861 O 448.004 -0.410581 -1.8981 0
M  V30 4862 C 445.134 -1.13535 -3.28218 0
M  V30 4863 C 444.088 -2.23356 -3.65097 0
M  V30 4864 C 443.414 -1.87875 -5.00607 0
M  V30 4865 C 444.714 -3.65473 -3.73131 0
M  V30 4866 H 446.408 -2.28459 -1.93512 0
M  V30 4867 H 443.954 -1.09973 -0.929618 0
M  V30 4868 H 445.907 -1.10381 -4.06687 0
M  V30 4869 H 444.631 -0.156804 -3.26223 0
M  V30 4870 H 443.29 -2.25645 -2.88929 0
M  V30 4871 H 442.938 -0.885814 -4.95139 0
M  V30 4872 H 442.638 -2.61406 -5.26252 0
M  V30 4873 H 444.162 -1.86286 -5.81489 0
M  V30 4874 H 445.576 -3.65382 -4.41779 0
M  V30 4875 H 443.973 -4.37953 -4.10265 0
M  V30 4876 H 445.043 -3.99995 -2.74102 0
M  V30 4877 N 446.386 1.0089 -1.21074 0
M  V30 4878 C 447.334 2.11707 -0.963476 0
M  V30 4879 C 448.328 1.69172 0.0879032 0
M  V30 4880 O 449.534 1.79889 -0.0631415 0
M  V30 4881 H 445.909 0.692026 -0.294287 0
M  V30 4882 H 447.88 2.29743 -1.90422 0
M  V30 4883 C 446.629 3.43473 -0.540509 0
M  V30 4884 H 445.952 3.76634 -1.34114 0
M  V30 4885 H 447.392 4.22044 -0.406777 0
M  V30 4886 C 445.851 3.2849 0.748079 0
M  V30 4887 O 446.381 3.58883 1.8046 0
M  V30 4888 N 444.587 2.81715 0.713081 0
M  V30 4889 H 444.134 2.5718 -0.146973 0
M  V30 4890 H 444.092 2.72071 1.57558 0
M  V30 4891 N 447.864 1.01787 1.20321 0
M  V30 4892 C 449.094 0.72614 1.93419 0
M  V30 4893 C 449.502 -0.717317 1.75075 0
M  V30 4894 O 448.845 -1.49836 1.06278 0
M  V30 4895 C 448.907 0.983621 3.45782 0
M  V30 4896 C 448.571 2.41645 3.87888 0
M  V30 4897 C 449.568 3.39732 3.93545 0
M  V30 4898 C 447.253 2.75752 4.19841 0
M  V30 4899 C 449.247 4.69988 4.30569 0
M  V30 4900 C 446.934 4.06221 4.56539 0
M  V30 4901 C 447.932 5.0315 4.61876 0
M  V30 4902 O 447.62 6.31284 4.97731 0
M  V30 4903 H 447.352 0.265824 0.621541 0
M  V30 4904 H 449.906 1.3623 1.53722 0
M  V30 4905 H 448.136 0.290301 3.85609 0
M  V30 4906 H 449.825 0.683279 4.00108 0
M  V30 4907 H 450.591 3.14718 3.69022 0
M  V30 4908 H 446.47 2.00993 4.14877 0
M  V30 4909 H 450.014 5.45642 4.3465 0
M  V30 4910 H 445.911 4.31013 4.80518 0
M  V30 4911 H 446.679 6.35591 5.15719 0
M  V30 4912 N 449.342 -1.36122 0.79427 0
M  V30 4913 C 450.619 -1.93398 0.292685 0
M  V30 4914 C 450.999 -1.72567 -1.21589 0
M  V30 4915 O 450.347 -1.08745 -2.00965 0
M  V30 4916 C 450.557 -3.42099 0.690614 0
M  V30 4917 C 451.905 -4.19231 0.673105 0
M  V30 4918 O 452.929 -3.50559 0.631389 0
M  V30 4919 O 451.788 -5.41732 0.720362 0
M  V30 4920 H 448.882 -0.823712 0.0736693 0
M  V30 4921 H 451.428 -1.45273 0.87714 0
M  V30 4922 H 450.2 -3.50938 1.73085 0
M  V30 4923 H 449.823 -3.97519 0.0803036 0
M  V30 4924 N 450.82 -0.546701 -1.47814 0
M  V30 4925 C 452.231 -0.110564 -1.86372 0
M  V30 4926 C 452.582 1.31678 -1.45449 0
M  V30 4927 O 451.707 1.98889 -0.852758 0
M  V30 4928 C 452.302 -0.193873 -3.38245 0
M  V30 4929 C 450.861 0.187164 -3.75934 0
M  V30 4930 C 450.008 -0.546166 -2.71868 0
M  V30 4931 H 452.959 -0.757022 -1.39481 0
M  V30 4932 H 452.98 0.590218 -3.75895 0
M  V30 4933 H 452.492 -1.23282 -3.67999 0
M  V30 4934 H 450.593 1.22762 -3.51796 0
M  V30 4935 H 450.706 -0.164083 -4.78819 0
M  V30 4936 H 449.07 0.00953904 -2.54698 0
M  V30 4937 H 449.853 -1.58606 -3.04465 0
M  V30 4938 N 452.299 1.55045 -0.282633 0
M  V30 4939 C 453.529 2.03872 0.334635 0
M  V30 4940 C 453.937 1.16018 1.49454 0
M  V30 4941 O 453.28 0.174449 1.8287 0
M  V30 4942 C 453.342 3.48791 0.870905 0
M  V30 4943 C 453.006 4.56715 -0.161338 0
M  V30 4944 C 454.003 5.10513 -0.983466 0
M  V30 4945 C 451.688 5.01417 -0.297745 0
M  V30 4946 C 453.682 6.07538 -1.92811 0
M  V30 4947 C 451.369 5.98265 -1.24586 0
M  V30 4948 C 452.367 6.51208 -2.05954 0
M  V30 4949 O 452.055 7.46162 -2.99162 0
M  V30 4950 H 451.787 0.671324 0.0793742 0
M  V30 4951 H 454.341 2.01169 -0.41473 0
M  V30 4952 H 452.571 3.48758 1.67047 0
M  V30 4953 H 454.26 3.80916 1.40207 0
M  V30 4954 H 455.026 4.76785 -0.888856 0
M  V30 4955 H 450.905 4.59849 0.325604 0
M  V30 4956 H 454.449 6.48787 -2.56363 0
M  V30 4957 H 450.346 6.31412 -1.34126 0
M  V30 4958 H 451.114 7.63903 -2.93929 0
M  V30 4959 N 453.777 0.010035 1.57597 0
M  V30 4960 C 455.188 -0.531426 1.78977 0
M  V30 4961 C 455.539 -1.73375 0.918454 0
M  V30 4962 O 454.664 -2.16047 0.123635 0
M  V30 4963 C 455.259 -0.97086 3.24592 0
M  V30 4964 C 453.818 -1.45756 3.47033 0
M  V30 4965 C 452.965 -0.413384 2.74201 0
M  V30 4966 H 455.916 0.236166 1.56933 0
M  V30 4967 H 455.937 -1.83633 3.33255 0
M  V30 4968 H 455.449 -0.0955893 3.87982 0
M  V30 4969 H 453.55 -2.35339 2.88871 0
M  V30 4970 H 453.663 -1.4781 4.55729 0
M  V30 4971 H 452.027 -0.877266 2.39115 0
M  V30 4972 H 452.81 0.453092 3.40297 0
M  V30 4973 N 455.255 -1.55392 -0.262866 0
M  V30 4974 C 456.218 -1.88181 -1.30846 0
M  V30 4975 C 457.218 -0.757079 -1.41862 0
M  V30 4976 O 458.408 -1.02519 -1.40838 0
M  V30 4977 C 455.54 -2.09609 -2.68844 0
M  V30 4978 H 456.733 -2.81659 -1.02997 0
M  V30 4979 H 454.286 -1.48039 -0.501414 0
M  V30 4980 H 455.021 -1.18547 -3.01856 0
M  V30 4981 H 454.806 -2.91508 -2.62231 0
M  V30 4982 H 456.296 -2.36215 -3.44372 0
M  V30 4983 N 456.733 0.527833 -1.48498 0
M  V30 4984 C 457.982 1.28003 -1.55878 0
M  V30 4985 C 458.295 1.9414 -0.238577 0
M  V30 4986 O 459.501 2.7083 -0.190643 0
M  V30 4987 C 457.957 2.32272 -2.74914 0
M  V30 4988 C 457.565 1.72196 -4.13585 0
M  V30 4989 C 459.309 3.08488 -2.91608 0
M  V30 4990 C 457.216 2.74417 -5.23879 0
M  V30 4991 H 456.146 0.481413 -0.580308 0
M  V30 4992 H 458.797 0.557195 -1.74836 0
M  V30 4993 H 457.179 3.07601 -2.49395 0
M  V30 4994 H 458.353 1.03041 -4.49132 0
M  V30 4995 H 456.668 1.08464 -4.02025 0
M  V30 4996 H 459.265 3.84879 -3.71177 0
M  V30 4997 H 459.608 3.64481 -2.01145 0
M  V30 4998 H 460.141 2.40274 -3.17038 0
M  V30 4999 H 456.88 2.23242 -6.16314 0
M  V30 5000 H 456.4 3.41893 -4.92818 0
M  V30 5001 H 458.079 3.37362 -5.52083 0
M  V30 5002 N 458.211 1.37122 0.776871 0
M  V30 5003 C 459.158 1.3247 1.88998 0
M  V30 5004 C 460.128 0.191143 1.64997 0
M  V30 5005 O 461.313 0.379683 1.86984 0
M  V30 5006 C 458.453 1.13241 3.25992 0
M  V30 5007 C 457.566 2.35782 3.61982 0
M  V30 5008 C 456.701 2.09465 4.88158 0
M  V30 5009 C 455.74 3.279 5.16864 0
M  V30 5010 N 454.877 3.01167 6.34226 0
M  V30 5011 H 459.717 2.27642 1.9231 0
M  V30 5012 H 457.254 1.13125 0.94027 0
M  V30 5013 H 459.212 1.00115 4.0501 0
M  V30 5014 H 457.842 0.217186 3.22069 0
M  V30 5015 H 456.894 2.59666 2.77989 0
M  V30 5016 H 458.206 3.24125 3.79137 0
M  V30 5017 H 457.36 1.93341 5.75069 0
M  V30 5018 H 456.099 1.18452 4.73097 0
M  V30 5019 H 455.104 3.44569 4.2843 0
M  V30 5020 H 456.329 4.19757 5.33836 0
M  V30 5021 H 454.275 2.12779 6.20533 0
M  V30 5022 H 454.192 3.83052 6.51772 0
M  V30 5023 H 455.46 2.88649 7.24087 0
M  V30 5024 N 459.689 -1.00246 1.21608 0
M  V30 5025 C 460.652 -2.07233 0.979133 0
M  V30 5026 C 461.652 -1.6072 -0.0508219 0
M  V30 5027 O 462.842 -1.73196 0.186712 0
M  V30 5028 C 459.974 -3.37546 0.477016 0
M  V30 5029 H 461.167 -2.29687 1.92831 0
M  V30 5030 H 458.72 -1.17261 1.03342 0
M  V30 5031 H 459.455 -3.20773 -0.476966 0
M  V30 5032 H 459.24 -3.72638 1.21997 0
M  V30 5033 H 460.73 -4.16285 0.331181 0
M  V30 5034 N 461.167 -1.02423 -1.1978 0
M  V30 5035 C 462.578 -0.748389 -1.71044 0
M  V30 5036 C 462.929 0.732398 -1.82017 0
M  V30 5037 O 462.054 1.57116 -1.48807 0
M  V30 5038 C 462.649 -1.35187 -3.1066 0
M  V30 5039 C 461.208 -1.12472 -3.59203 0
M  V30 5040 C 460.355 -1.45283 -2.36195 0
M  V30 5041 H 463.306 -1.19275 -1.04686 0
M  V30 5042 H 463.327 -0.746408 -3.73107 0
M  V30 5043 H 462.839 -2.4296 -3.02642 0
M  V30 5044 H 460.94 -0.0649983 -3.72543 0
M  V30 5045 H 461.053 -1.81016 -4.43588 0
M  V30 5046 H 459.417 -0.872034 -2.39307 0
M  V30 5047 H 460.2 -2.54129 -2.30811 0
M  V30 5048 N 462.645 1.35699 -0.801477 0
M  V30 5049 C 463.891 1.99208 -0.380022 0
M  V30 5050 C 464.224 1.63445 1.04878 0
M  V30 5051 O 463.499 0.895223 1.72673 0
M  V30 5052 C 463.782 3.55755 -0.557708 0
M  V30 5053 C 463.635 4.01332 -2.03107 0
M  V30 5054 C 464.954 4.40096 0.0197968 0
M  V30 5055 H 462.073 0.723667 -0.139552 0
M  V30 5056 H 464.715 1.60928 -1.01006 0
M  V30 5057 H 462.865 3.88494 -0.0213741 0
M  V30 5058 H 464.537 3.79026 -2.62939 0
M  V30 5059 H 462.78 3.52429 -2.52936 0
M  V30 5060 H 463.451 5.10234 -2.1063 0
M  V30 5061 H 465.927 4.13786 -0.438179 0
M  V30 5062 H 464.803 5.48735 -0.134477 0
M  V30 5063 H 465.064 4.2786 1.11303 0
M  V30 5064 N 464.123 0.554532 1.47522 0
M  V30 5065 C 465.086 -0.184174 2.28459 0
M  V30 5066 C 466.086 -0.845195 1.36796 0
M  V30 5067 O 467.276 -0.701467 1.59452 0
M  V30 5068 C 464.408 -1.26903 3.16399 0
M  V30 5069 H 465.601 0.526751 2.95238 0
M  V30 5070 H 463.154 0.311375 1.53167 0
M  V30 5071 H 463.889 -2.01244 2.54306 0
M  V30 5072 H 463.674 -0.799883 3.83854 0
M  V30 5073 H 465.164 -1.78794 3.77389 0
M  V30 5074 N 465.601 -1.54893 0.290851 0
M  V30 5075 C 466.847 -2.0023 -0.321867 0
M  V30 5076 C 467.18 -1.179 -1.54316 0
M  V30 5077 O 466.455 -0.25293 -1.92848 0
M  V30 5078 C 466.738 -3.53456 -0.688515 0
M  V30 5079 C 466.591 -4.46532 0.541209 0
M  V30 5080 C 467.91 -4.13057 -1.51895 0
M  V30 5081 H 465.029 -0.727891 -0.115515 0
M  V30 5082 H 467.671 -1.85722 0.400931 0
M  V30 5083 H 465.821 -3.6595 -1.30433 0
M  V30 5084 H 467.493 -4.4596 1.17973 0
M  V30 5085 H 465.736 -4.17545 1.17636 0
M  V30 5086 H 466.407 -5.51475 0.240675 0
M  V30 5087 H 468.883 -4.03937 -0.99872 0
M  V30 5088 H 467.759 -5.20448 -1.74429 0
M  V30 5089 H 468.02 -3.64284 -2.50498 0
M  V30 5090 O 467.118 -0.15707 -1.60734 0
M  V30 5091 H 467.809 0.435157 -1.88749 0
M  V30 END ATOM
M  V30 BEGIN BOND
M  V30 END BOND
M  V30 END CTAB
M  END
$$$$
