drugbank_target|P19622 Homeobox protein engrailed-2 (DB03309)
 OpenBabel12092120543D

  0  0  0     0  0            999 V3000
M  V30 BEGIN CTAB
M  V30 COUNTS 4732 4778 0 0 0
M  V30 BEGIN ATOM
M  V30 1 H -0.908 1.98254 -0.117106 0
M  V30 2 N 0 1.576 0 0
M  V30 3 C 0.933 2.03868 1.02534 0
M  V30 4 C 1.911 0.928543 1.3348 0
M  V30 5 O 3.095 1.19667 1.45644 0
M  V30 6 C 0.222 2.43627 2.35294 0
M  V30 7 C -0.732 3.65373 2.2001 0
M  V30 8 S 0.101 5.13292 1.52614 0
M  V30 9 C 1.257 5.56322 2.86805 0
M  V30 10 H 1.49 2.90518 0.631377 0
M  V30 11 H -0.977 1.52953 0.210867 0
M  V30 12 H 0.981 2.67203 3.11629 0
M  V30 13 H -0.358 1.57376 2.7183 0
M  V30 14 H -1.165 3.90944 3.18086 0
M  V30 15 H -1.563 3.418 1.51819 0
M  V30 16 H 0.729 5.58782 3.83104 0
M  V30 17 H 1.672 6.56266 2.65933 0
M  V30 18 H 2.08 4.83886 2.90714 0
M  V30 19 N 1.4781 -0.272755 1.55222 0
M  V30 20 C 2.3881 -1.35918 1.91216 0
M  V30 21 C 3.4041 -1.54026 0.809436 0
M  V30 22 O 4.5801 -1.68148 1.10852 0
M  V30 23 C 1.6451 -2.69834 2.17693 0
M  V30 24 C 0.7061 -2.6047 3.41253 0
M  V30 25 C -0.0609 -3.88 3.66458 0
M  V30 26 O 0.1621 -4.88693 2.94169 0
M  V30 27 O -0.9039 -3.88189 4.59992 0
M  V30 28 H 2.9221 -1.0839 2.83699 0
M  V30 29 H 0.5071 -0.471301 1.41771 0
M  V30 30 H 2.3891 -3.49017 2.36147 0
M  V30 31 H 1.0641 -2.97148 1.28392 0
M  V30 32 H -0.0289 -1.79663 3.28134 0
M  V30 33 H 1.3041 -2.38106 4.30774 0
M  V30 34 N 2.9562 -1.48159 -0.537278 0
M  V30 35 C 3.8662 -1.64807 -1.6696 0
M  V30 36 C 4.8822 -0.530651 -1.65711 0
M  V30 37 O 6.0582 -0.800784 -1.84796 0
M  V30 38 C 3.1232 -1.67708 -3.03438 0
M  V30 39 C 2.1842 -2.91025 -3.156 0
M  V30 40 C 1.4172 -2.93778 -4.45567 0
M  V30 41 O 1.6402 -2.05153 -5.3223 0
M  V30 42 O 0.5742 -3.85868 -4.61941 0
M  V30 43 H 4.4002 -2.6066 -1.55853 0
M  V30 44 H 1.9852 -1.31475 -0.709549 0
M  V30 45 H 3.8672 -1.7218 -3.84619 0
M  V30 46 H 2.5422 -0.750278 -3.14885 0
M  V30 47 H 1.4492 -2.92089 -2.33741 0
M  V30 48 H 2.7822 -3.83065 -3.09066 0
M  V30 49 N 4.4343 0.785586 -1.36625 0
M  V30 50 C 5.3823 1.91978 -1.31329 0
M  V30 51 C 6.3763 1.68162 -0.204416 0
M  V30 52 O 7.5823 1.76122 -0.371645 0
M  V30 53 H 3.9573 0.631087 -0.408942 0
M  V30 54 H 5.9283 1.93562 -2.27104 0
M  V30 55 C 4.6773 3.29055 -1.12329 0
M  V30 56 H 4.0003 3.4795 -1.96903 0
M  V30 57 H 5.4403 4.08756 -1.12671 0
M  V30 58 C 3.8993 3.36461 0.171861 0
M  V30 59 O 4.4293 3.84576 1.16035 0
M  V30 60 N 2.6353 2.89782 0.217846 0
M  V30 61 H 2.1823 2.50819 -0.587183 0
M  V30 62 H 2.1403 2.95119 1.08408 0
M  V30 63 N 5.9124 1.20967 1.01018 0
M  V30 64 C 7.1894 0.93264 1.71934 0
M  V30 65 C 7.5694 -0.55692 2.03621 0
M  V30 66 O 6.9174 -1.52035 1.7058 0
M  V30 67 C 7.1274 1.81233 2.98254 0
M  V30 68 C 8.4754 2.05804 3.71389 0
M  V30 69 O 9.4994 1.78539 3.08225 0
M  V30 70 O 8.3584 2.51888 4.84989 0
M  V30 71 H 5.4524 0.349272 0.749625 0
M  V30 72 H 7.9984 1.31871 1.06808 0
M  V30 73 H 6.7704 2.82067 2.71208 0
M  V30 74 H 6.3934 1.42674 3.7112 0
M  V30 75 N 7.3905 -1.2043 1.01659 0
M  V30 76 C 8.8015 -1.71517 0.737482 0
M  V30 77 C 9.1525 -1.81547 -0.743973 0
M  V30 78 O 8.2775 -1.47803 -1.58061 0
M  V30 79 C 8.8725 -3.11515 1.33206 0
M  V30 80 C 7.4315 -3.59912 1.10183 0
M  V30 81 C 6.5785 -2.37116 1.43776 0
M  V30 82 H 9.5295 -1.05444 1.18606 0
M  V30 83 H 9.5505 -3.73575 0.722636 0
M  V30 84 H 9.0625 -3.04182 2.41028 0
M  V30 85 H 7.1635 -3.72577 0.0412756 0
M  V30 86 H 7.2765 -4.44731 1.78188 0
M  V30 87 H 5.6405 -2.39857 0.856778 0
M  V30 88 H 6.4235 -2.32424 2.52654 0
M  V30 89 N 8.8686 -0.792821 -1.36206 0
M  V30 90 C 9.8156 -0.191653 -2.30003 0
M  V30 91 C 10.7856 0.666453 -1.52143 0
M  V30 92 O 11.9706 0.61442 -1.80636 0
M  V30 93 C 9.1106 0.664848 -3.38635 0
M  V30 94 C 8.2236 -0.212175 -4.31479 0
M  V30 95 C 7.3586 0.651022 -5.27196 0
M  V30 96 C 6.3976 -0.227247 -6.11678 0
M  V30 97 N 5.5346 0.595127 -6.99573 0
M  V30 98 H 10.3746 -0.996978 -2.80828 0
M  V30 99 H 7.9116 -0.503206 -1.38225 0
M  V30 100 H 9.8696 1.17645 -4.00269 0
M  V30 101 H 8.4996 1.43557 -2.89122 0
M  V30 102 H 7.5516 -0.841777 -3.70969 0
M  V30 103 H 8.8636 -0.888751 -4.90818 0
M  V30 104 H 8.0176 1.2283 -5.94136 0
M  V30 105 H 6.7566 1.36121 -4.68319 0
M  V30 106 H 5.7616 -0.816904 -5.43697 0
M  V30 107 H 6.9866 -0.93509 -6.72631 0
M  V30 108 H 4.9326 1.28955 -6.432 0
M  V30 109 H 4.8496 -0.0236952 -7.55996 0
M  V30 110 H 6.1176 1.15613 -7.70879 0
M  V30 111 N 10.3467 1.47872 -0.545128 0
M  V30 112 C 11.7577 1.86384 -0.108581 0
M  V30 113 C 12.1087 1.45309 1.31832 0
M  V30 114 O 11.2337 0.850641 1.9898 0
M  V30 115 C 11.8287 3.38265 -0.190274 0
M  V30 116 C 10.3877 3.75914 0.191164 0
M  V30 117 C 9.5347 2.71926 -0.543273 0
M  V30 118 H 12.4857 1.39561 -0.755537 0
M  V30 119 H 12.5067 3.75831 0.594217 0
M  V30 120 H 12.0187 3.6813 -1.2289 0
M  V30 121 H 10.1197 3.51665 1.23136 0
M  V30 122 H 10.2327 4.78836 -0.158987 0
M  V30 123 H 8.5967 2.54697 0.0122495 0
M  V30 124 H 9.3797 3.04634 -1.58282 0
M  V30 125 N 11.8248 0.280983 1.55075 0
M  V30 126 C 13.0728 -0.333455 1.9933 0
M  V30 127 C 13.3938 -1.55937 1.17085 0
M  V30 128 O 12.6638 -1.94143 0.261805 0
M  V30 129 H 11.2438 -0.126197 0.736263 0
M  V30 130 H 13.9058 0.387678 1.91005 0
M  V30 131 H 13.0018 -0.619292 3.05894 0
M  V30 132 N 13.3029 -1.57598 0.00835791 0
M  V30 133 C 14.2129 -2.12385 -0.996487 0
M  V30 134 C 15.2289 -1.07108 -1.37127 0
M  V30 135 O 16.4049 -1.39055 -1.4569 0
M  V30 136 C 13.4699 -2.62314 -2.26699 0
M  V30 137 C 12.5309 -3.82225 -1.95456 0
M  V30 138 C 11.7639 -4.29763 -3.16449 0
M  V30 139 O 11.9869 -3.76584 -4.28416 0
M  V30 140 O 10.9209 -5.21832 -2.99958 0
M  V30 141 H 14.7469 -2.98479 -0.560725 0
M  V30 142 H 12.3319 -1.47903 -0.210987 0
M  V30 143 H 14.2139 -2.94589 -3.01322 0
M  V30 144 H 12.8889 -1.79313 -2.69497 0
M  V30 145 H 11.7959 -3.54909 -1.18282 0
M  V30 146 H 13.1289 -4.66324 -1.57489 0
M  V30 147 N 14.781 0.264519 -1.55364 0
M  V30 148 C 15.744 1.31046 -1.88042 0
M  V30 149 C 16.744 1.41943 -0.755569 0
M  V30 150 O 17.934 1.40947 -1.02369 0
M  V30 151 C 15.066 2.69067 -2.09323 0
M  V30 152 H 16.259 1.03297 -2.81549 0
M  V30 153 H 13.812 0.502989 -1.47986 0
M  V30 154 H 14.547 3.01982 -1.18226 0
M  V30 155 H 14.332 2.62542 -2.91229 0
M  V30 156 H 15.822 3.44623 -2.35848 0
M  V30 157 N 16.2591 1.48442 0.529413 0
M  V30 158 C 17.2221 1.62524 1.61612 0
M  V30 159 C 18.2221 0.498509 1.52877 0
M  V30 160 O 19.4121 0.76431 1.56537 0
M  V30 161 C 16.5441 1.59597 3.01233 0
M  V30 162 H 17.7371 2.59423 1.50465 0
M  V30 163 H 15.2901 1.37047 0.751514 0
M  V30 164 H 16.0251 0.641781 3.17886 0
M  V30 165 H 15.8101 2.41397 3.08982 0
M  V30 166 H 17.3001 1.72646 3.80241 0
M  V30 167 N 17.7372 -0.778329 1.37039 0
M  V30 168 C 18.7002 -1.87301 1.32102 0
M  V30 169 C 19.7002 -1.59198 0.226405 0
M  V30 170 O 20.8902 -1.67403 0.481861 0
M  V30 171 C 18.0222 -3.24309 1.05055 0
M  V30 172 H 19.2152 -1.93093 2.29467 0
M  V30 173 H 16.7682 -0.977358 1.21973 0
M  V30 174 H 17.5032 -3.24196 0.0819373 0
M  V30 175 H 17.2882 -3.46098 1.84279 0
M  V30 176 H 18.7782 -4.04382 1.04234 0
M  V30 177 N 19.2153 -1.21501 -1.00376 0
M  V30 178 C 20.1783 -0.976927 -2.07337 0
M  V30 179 C 21.1783 0.0525322 -1.60714 0
M  V30 180 O 22.3683 -0.184869 -1.73216 0
M  V30 181 C 19.5003 -0.473423 -3.37597 0
M  V30 182 H 20.6933 -1.92587 -2.29892 0
M  V30 183 H 18.2463 -1.03217 -1.17371 0
M  V30 184 H 18.9813 0.480379 -3.20722 0
M  V30 185 H 18.7663 -1.216 -3.72768 0
M  V30 186 H 20.2563 -0.32675 -4.1632 0
M  V30 187 N 20.6934 1.19889 -1.02296 0
M  V30 188 C 21.9394 1.89701 -0.717033 0
M  V30 189 C 22.2724 1.7905 0.751989 0
M  V30 190 O 21.5474 1.17891 1.547 0
M  V30 191 C 21.8304 3.40858 -1.16136 0
M  V30 192 C 21.6834 3.60411 -2.69117 0
M  V30 193 C 23.0024 4.33876 -0.737549 0
M  V30 194 H 20.1214 0.688874 -0.261957 0
M  V30 195 H 22.7634 1.41154 -1.27183 0
M  V30 196 H 20.9134 3.82335 -0.689342 0
M  V30 197 H 22.5854 3.28145 -3.2422 0
M  V30 198 H 20.8284 3.03665 -3.0979 0
M  V30 199 H 21.4994 4.66396 -2.95261 0
M  V30 200 H 23.9754 4.00081 -1.14344 0
M  V30 201 H 22.8514 5.38242 -1.0764 0
M  V30 202 H 23.1124 4.40628 0.360436 0
M  V30 203 N 22.1715 0.800033 1.35784 0
M  V30 204 C 23.0815 0.207204 2.33683 0
M  V30 205 C 24.0975 -0.64631 1.61551 0
M  V30 206 O 25.2735 -0.559604 1.93469 0
M  V30 207 C 22.3385 -0.639659 3.40748 0
M  V30 208 C 21.3995 0.233585 4.28664 0
M  V30 209 C 20.6325 -0.572954 5.30616 0
M  V30 210 O 20.8555 -1.80816 5.40982 0
M  V30 211 O 19.7895 0.0327285 6.01891 0
M  V30 212 H 23.6155 1.01692 2.86169 0
M  V30 213 H 21.2005 0.561691 1.38439 0
M  V30 214 H 23.0825 -1.12223 4.06182 0
M  V30 215 H 21.7575 -1.42708 2.90544 0
M  V30 216 H 20.6645 0.763147 3.66233 0
M  V30 217 H 21.9975 0.984784 4.82248 0
M  V30 218 N 23.6496 -1.47581 0.552962 0
M  V30 219 C 24.8976 -2.02082 0.0272703 0
M  V30 220 C 25.2186 -1.4301 -1.32563 0
M  V30 221 O 24.4886 -0.603745 -1.86365 0
M  V30 222 H 23.0686 -0.746966 0.00709182 0
M  V30 223 H 25.7306 -1.81033 0.722008 0
M  V30 224 H 24.8266 -3.12034 -0.0639951 0
M  V30 225 N 25.1277 -0.289203 -1.54924 0
M  V30 226 C 26.0597 0.625583 -2.20497 0
M  V30 227 C 27.0727 1.10667 -1.19402 0
M  V30 228 O 28.2617 1.02615 -1.46056 0
M  V30 229 C 25.3617 1.86702 -2.82835 0
M  V30 230 C 24.5347 1.5304 -4.09753 0
M  V30 231 C 23.5937 2.62576 -4.56005 0
M  V30 232 O 22.6197 2.28167 -5.21468 0
M  V30 233 N 23.8217 3.92901 -4.27328 0
M  V30 234 H 26.5867 0.0642801 -2.99631 0
M  V30 235 H 24.1477 -0.110896 -1.6152 0
M  V30 236 H 26.1397 2.59304 -3.10715 0
M  V30 237 H 24.7097 2.33702 -2.07611 0
M  V30 238 H 23.9297 0.637564 -3.8901 0
M  V30 239 H 25.2177 1.28072 -4.92418 0
M  V30 240 H 24.6157 4.23671 -3.74859 0
M  V30 241 H 23.1727 4.61837 -4.59946 0
M  V30 242 N 26.6058 1.57591 -0.0167156 0
M  V30 243 C 28.0218 1.55946 0.339557 0
M  V30 244 C 28.2218 1.02109 1.73713 0
M  V30 245 O 27.2778 0.662303 2.43659 0
M  V30 246 C 28.5908 3.00037 0.199499 0
M  V30 247 C 30.1388 3.11805 0.273193 0
M  V30 248 C 30.6138 4.57713 0.162068 0
M  V30 249 N 32.1048 4.6268 0.219444 0
M  V30 250 C 32.8398 5.73185 0.157054 0
M  V30 251 N 32.3358 6.92786 0.0442936 0
M  V30 252 N 34.1288 5.61707 0.21014 0
M  V30 253 H 26.2798 1.90921 -0.930758 0
M  V30 254 H 28.5428 0.877674 -0.358319 0
M  V30 255 H 28.2488 3.4333 -0.76273 0
M  V30 256 H 28.1228 3.64387 0.974786 0
M  V30 257 H 30.5098 2.68433 1.22587 0
M  V30 258 H 30.5908 2.50201 -0.532256 0
M  V30 259 H 30.2348 5.01763 -0.78714 0
M  V30 260 H 30.1648 5.17283 0.986222 0
M  V30 261 H 32.6558 3.76649 0.307246 0
M  V30 262 H 32.9688 7.728 0.00304069 0
M  V30 263 H 31.3138 6.94999 0.00968457 0
M  V30 264 H 34.5048 4.6716 0.296546 0
M  V30 265 H 34.6778 6.47807 0.158054 0
M  V30 266 N 28.0839 -0.256276 1.55502 0
M  V30 267 C 29.0159 -1.33981 1.85962 0
M  V30 268 C 30.0289 -1.44743 0.745212 0
M  V30 269 O 31.2179 -1.4626 1.02324 0
M  V30 270 C 28.3179 -2.7194 2.02242 0
M  V30 271 C 27.4909 -2.83562 3.33033 0
M  V30 272 C 26.5499 -4.02304 3.39172 0
M  V30 273 O 25.5759 -3.92273 4.12444 0
M  V30 274 N 26.7779 -5.15045 2.67784 0
M  V30 275 H 29.5429 -1.08191 2.7949 0
M  V30 276 H 27.1039 -0.446388 1.55624 0
M  V30 277 H 29.0959 -3.49697 2.03701 0
M  V30 278 H 27.6659 -2.90479 1.15502 0
M  V30 279 H 26.8859 -1.92555 3.43971 0
M  V30 280 H 28.1739 -2.88271 4.19258 0
M  V30 281 H 27.5719 -5.26085 2.07968 0
M  V30 282 H 26.1289 -5.90972 2.74947 0
M  V30 283 N 29.562 -1.4872 -0.521534 0
M  V30 284 C 30.973 -1.50607 -1.10337 0
M  V30 285 C 31.324 -0.280612 -1.94183 0
M  V30 286 O 30.449 0.611507 -2.0758 0
M  V30 287 C 31.044 -2.72903 -2.00772 0
M  V30 288 C 29.603 -2.77634 -2.54158 0
M  V30 289 C 28.75 -2.44241 -1.31307 0
M  V30 290 H 31.701 -1.55714 -0.306388 0
M  V30 291 H 31.722 -2.519 -2.85178 0
M  V30 292 H 31.234 -3.62077 -1.39721 0
M  V30 293 H 29.335 -1.92689 -3.18907 0
M  V30 294 H 29.448 -3.79283 -2.92714 0
M  V30 295 H 27.812 -1.95577 -1.63161 0
M  V30 296 H 28.595 -3.35666 -0.719943 0
M  V30 297 N 31.0401 0.771051 -1.3745 0
M  V30 298 C 31.9501 1.91538 -1.35464 0
M  V30 299 C 32.9661 1.72134 -0.254123 0
M  V30 300 O 34.1421 1.95358 -0.489626 0
M  V30 301 C 31.2071 3.26671 -1.16134 0
M  V30 302 C 30.2681 3.58723 -2.35831 0
M  V30 303 C 29.5011 4.87409 -2.17413 0
M  V30 304 O 29.7241 5.58506 -1.15876 0
M  V30 305 O 28.6581 5.18539 -3.05615 0
M  V30 306 H 32.4841 1.96165 -2.31847 0
M  V30 307 H 30.0691 0.9139 -1.18187 0
M  V30 308 H 31.9511 4.07499 -1.07345 0
M  V30 309 H 30.6261 3.22894 -0.228251 0
M  V30 310 H 29.5331 2.78127 -2.50192 0
M  V30 311 H 30.8661 3.67243 -3.27709 0
M  V30 312 N 32.5182 1.22032 0.997298 0
M  V30 313 C 33.7432 1.06921 1.77715 0
M  V30 314 C 34.1682 -0.376226 1.84299 0
M  V30 315 O 33.5262 -1.27165 1.29223 0
M  V30 316 C 33.5742 1.67996 3.19076 0
M  V30 317 O 32.6782 0.930653 4.01762 0
M  V30 318 H 32.0192 0.375814 0.547412 0
M  V30 319 H 34.5492 1.61737 1.25309 0
M  V30 320 H 34.5592 1.72538 3.69723 0
M  V30 321 H 33.2342 2.73182 3.13599 0
M  V30 322 H 31.8112 0.960917 3.60307 0
M  V30 323 N 33.9963 -1.19345 1.0293 0
M  V30 324 C 35.2213 -1.93538 0.745511 0
M  V30 325 C 35.6463 -1.75007 -0.689511 0
M  V30 326 O 35.0043 -1.05265 -1.47611 0
M  V30 327 C 35.0523 -3.43336 1.10239 0
M  V30 328 O 34.1563 -4.11806 0.221289 0
M  V30 329 H 33.4973 -0.604193 0.275404 0
M  V30 330 H 36.0273 -1.5141 1.37609 0
M  V30 331 H 36.0373 -3.94004 1.05947 0
M  V30 332 H 34.7123 -3.56146 2.14786 0
M  V30 333 H 33.2893 -3.715 0.322842 0
M  V30 334 N 35.4744 -0.807222 -1.35358 0
M  V30 335 C 36.8854 -0.44876 -1.81226 0
M  V30 336 C 37.2364 1.02929 -1.67033 0
M  V30 337 O 36.3614 1.79991 -1.20133 0
M  V30 338 C 36.9564 -0.807774 -3.2903 0
M  V30 339 C 35.5154 -0.501901 -3.73039 0
M  V30 340 C 34.6624 -1.03304 -2.57339 0
M  V30 341 H 37.6134 -0.998808 -1.23327 0
M  V30 342 H 37.6344 -0.10554 -3.80354 0
M  V30 343 H 37.1464 -1.88357 -3.39328 0
M  V30 344 H 35.2474 0.565128 -3.68289 0
M  V30 345 H 35.3604 -1.03497 -4.67787 0
M  V30 346 H 33.7244 -0.455339 -2.50597 0
M  V30 347 H 34.5074 -2.11496 -2.70415 0
M  V30 348 N 36.9525 1.47285 -0.560781 0
M  V30 349 C 38.2005 2.02064 -0.0379868 0
M  V30 350 C 38.5215 1.43711 1.31803 0
M  V30 351 O 37.7915 0.61362 1.86042 0
M  V30 352 H 36.3715 0.746918 -0.0110531 0
M  V30 353 H 39.0335 1.80648 -0.731598 0
M  V30 354 H 38.1295 3.12064 0.0474463 0
M  V30 355 N 38.4306 0.297415 1.54768 0
M  V30 356 C 39.6786 -0.312295 1.99673 0
M  V30 357 C 39.9996 -1.54686 1.18732 0
M  V30 358 O 39.2696 -1.93854 0.282382 0
M  V30 359 H 37.8496 -0.118381 0.73756 0
M  V30 360 H 40.5116 0.407915 1.90583 0
M  V30 361 H 39.6076 -0.586813 3.06534 0
M  V30 362 N 39.9087 -1.5758 0.0250728 0
M  V30 363 C 41.1567 -1.91255 -0.653151 0
M  V30 364 C 41.4777 -0.901691 -1.729 0
M  V30 365 O 40.7477 0.0573785 -1.95816 0
M  V30 366 H 39.3277 -0.705942 -0.244243 0
M  V30 367 H 41.9897 -1.94767 0.0719209 0
M  V30 368 H 41.0857 -2.91752 -1.10847 0
M  V30 369 N 41.3868 0.248026 -1.55636 0
M  V30 370 C 42.6118 0.998028 -1.81808 0
M  V30 371 C 43.0368 1.78207 -0.601979 0
M  V30 372 O 42.3948 1.75653 0.448961 0
M  V30 373 C 42.4428 1.9125 -3.05705 0
M  V30 374 O 41.5468 3.00406 -2.82542 0
M  V30 375 H 40.8878 0.284045 -0.600179 0
M  V30 376 H 43.4178 0.269357 -2.02819 0
M  V30 377 H 43.4278 2.32737 -3.35108 0
M  V30 378 H 42.1028 1.33602 -3.93857 0
M  V30 379 H 40.6798 2.63056 -2.64303 0
M  V30 380 N 42.8649 1.48995 0.513639 0
M  V30 381 C 44.1129 1.57531 1.26604 0
M  V30 382 C 44.4339 0.258236 1.93283 0
M  V30 383 O 43.7039 -0.721502 1.8213 0
M  V30 384 H 42.2839 0.580387 0.470276 0
M  V30 385 H 44.9459 1.85552 0.596373 0
M  V30 386 H 44.0419 2.36486 2.03669 0
M  V30 387 N 44.343 -0.763751 1.37857 0
M  V30 388 C 45.591 -1.51957 1.33243 0
M  V30 389 C 45.912 -1.94835 -0.0801709 0
M  V30 390 O 45.182 -1.66894 -1.02582 0
M  V30 391 H 43.762 -0.563626 0.49024 0
M  V30 392 H 46.424 -0.908504 1.7243 0
M  V30 393 H 45.52 -2.41523 1.97669 0
M  V30 394 N 45.8211 -1.22559 -0.990812 0
M  V30 395 C 47.0691 -1.04933 -1.72724 0
M  V30 396 C 47.3901 0.416158 -1.90508 0
M  V30 397 O 46.6601 1.29918 -1.46622 0
M  V30 398 H 45.2401 -0.385296 -0.639965 0
M  V30 399 H 47.9021 -1.54105 -1.19322 0
M  V30 400 H 46.9981 -1.52886 -2.72089 0
M  V30 401 N 47.2992 1.18797 -1.03562 0
M  V30 402 C 48.5472 1.88278 -0.734569 0
M  V30 403 C 48.8682 1.8043 0.739586 0
M  V30 404 O 48.1382 1.21925 1.53333 0
M  V30 405 H 46.7182 0.696991 -0.268725 0
M  V30 406 H 49.3802 1.44192 -1.31129 0
M  V30 407 H 48.4762 2.94443 -1.03489 0
M  V30 408 N 48.7773 0.814389 1.34928 0
M  V30 409 C 50.0253 0.397636 1.9815 0
M  V30 410 C 50.3463 -1.04069 1.64908 0
M  V30 411 O 49.6163 -1.72121 0.93548 0
M  V30 412 H 48.1963 0.144043 0.732981 0
M  V30 413 H 50.8583 1.04195 1.6471 0
M  V30 414 H 49.9543 0.509688 3.0791 0
M  V30 415 N 50.2554 -1.46986 0.568584 0
M  V30 416 C 51.4804 -2.07335 0.0520528 0
M  V30 417 C 51.9054 -1.41675 -1.23733 0
M  V30 418 O 51.2634 -0.495623 -1.74394 0
M  V30 419 C 51.3114 -3.60417 -0.11501 0
M  V30 420 O 50.4154 -3.95309 -1.17492 0
M  V30 421 H 49.7564 -0.661597 0.0564385 0
M  V30 422 H 52.2864 -1.88837 0.787507 0
M  V30 423 H 52.2964 -4.06698 -0.325644 0
M  V30 424 H 50.9714 -4.07601 0.826675 0
M  V30 425 H 49.5484 -3.60757 -0.943869 0
M  V30 426 N 51.7335 -0.305618 -1.54608 0
M  V30 427 C 52.9585 0.307562 -2.05107 0
M  V30 428 C 53.3835 1.46385 -1.18123 0
M  V30 429 O 52.7415 1.8034 -0.186324 0
M  V30 430 C 52.7895 0.73704 -3.52987 0
M  V30 431 O 51.8935 1.84134 -3.6901 0
M  V30 432 H 51.2345 0.0589143 -0.661381 0
M  V30 433 H 53.7645 -0.448807 -1.99617 0
M  V30 434 H 53.7745 1.02459 -3.94925 0
M  V30 435 H 52.4495 -0.108773 -4.15758 0
M  V30 436 H 51.0265 1.55398 -3.38978 0
M  V30 437 N 53.2116 1.57565 -0.0334293 0
M  V30 438 C 54.6226 1.79746 0.504798 0
M  V30 439 C 54.9736 0.944091 1.71992 0
M  V30 440 O 54.0986 0.155694 2.15839 0
M  V30 441 C 54.6936 3.25997 0.922567 0
M  V30 442 C 53.2526 3.49159 1.40588 0
M  V30 443 C 52.3996 2.74785 0.372633 0
M  V30 444 H 55.3506 1.56565 -0.259436 0
M  V30 445 H 55.3716 3.35945 1.78666 0
M  V30 446 H 54.8836 3.88081 0.0379825 0
M  V30 447 H 52.9846 2.92332 2.31025 0
M  V30 448 H 53.0976 4.57873 1.41028 0
M  V30 449 H 51.4616 2.40391 0.841672 0
M  V30 450 H 52.2446 3.39587 -0.503559 0
M  V30 451 N 54.6897 -0.239769 1.55765 0
M  V30 452 C 55.9377 -0.964892 1.77579 0
M  V30 453 C 56.2587 -1.85582 0.598699 0
M  V30 454 O 55.5287 -1.92075 -0.385226 0
M  V30 455 H 54.1087 -0.359265 0.654933 0
M  V30 456 H 56.7707 -0.256001 1.93211 0
M  V30 457 H 55.8667 -1.58243 2.69009 0
M  V30 458 N 56.1678 -1.49265 -0.50573 0
M  V30 459 C 57.0778 -1.68312 -1.63427 0
M  V30 460 C 58.0938 -0.565682 -1.64548 0
M  V30 461 O 59.2698 -0.839801 -1.83055 0
M  V30 462 C 56.3348 -1.74107 -2.99813 0
M  V30 463 C 55.3958 -2.97653 -3.09356 0
M  V30 464 C 54.6288 -3.03163 -4.39236 0
M  V30 465 O 54.8518 -2.16396 -5.27758 0
M  V30 466 O 53.7858 -3.9558 -4.53652 0
M  V30 467 H 57.6118 -2.63907 -1.50289 0
M  V30 468 H 55.1968 -1.32951 -0.681502 0
M  V30 469 H 57.0788 -1.803 -3.80881 0
M  V30 470 H 55.7538 -0.816901 -3.13223 0
M  V30 471 H 54.6608 -2.96981 -2.27493 0
M  V30 472 H 55.9938 -3.89535 -3.00871 0
M  V30 473 N 57.6459 0.756429 -1.3826 0
M  V30 474 C 58.6089 1.85176 -1.35065 0
M  V30 475 C 59.6089 1.58818 -0.251703 0
M  V30 476 O 60.7989 1.66615 -0.508433 0
M  V30 477 C 57.9309 3.22596 -1.10201 0
M  V30 478 H 59.1239 1.89417 -2.3251 0
M  V30 479 H 56.6769 0.95783 -1.23512 0
M  V30 480 H 57.4119 3.24025 -0.133504 0
M  V30 481 H 57.1969 3.43122 -1.89762 0
M  V30 482 H 58.6869 4.02673 -1.10654 0
M  V30 483 N 59.124 1.23083 0.984299 0
M  V30 484 C 60.401 0.9689 1.69917 0
M  V30 485 C 60.781 -0.513604 2.04757 0
M  V30 486 O 60.129 -1.48383 1.73767 0
M  V30 487 C 60.339 1.87518 2.94343 0
M  V30 488 C 61.687 2.13636 3.6694 0
M  V30 489 O 62.711 1.85036 3.04368 0
M  V30 490 O 61.57 2.62119 4.79537 0
M  V30 491 H 58.664 0.365095 0.742048 0
M  V30 492 H 61.21 1.34107 1.03987 0
M  V30 493 H 59.982 2.87756 2.65164 0
M  V30 494 H 59.605 1.50514 3.6801 0
M  V30 495 N 60.6021 -1.18246 1.0419 0
M  V30 496 C 61.8301 -1.92195 0.766072 0
M  V30 497 C 62.2451 -1.76247 -0.676933 0
M  V30 498 O 61.6021 -1.09293 -1.46155 0
M  V30 499 C 61.6531 -3.43568 1.12442 0
M  V30 500 O 61.3741 -3.59015 2.51078 0
M  V30 501 C 62.8751 -4.34613 0.873275 0
M  V30 502 H 60.0951 -0.610114 0.279288 0
M  V30 503 H 62.6391 -1.50007 1.38989 0
M  V30 504 H 60.7941 -3.8354 0.545542 0
M  V30 505 H 61.2081 -4.5273 2.64831 0
M  V30 506 H 62.6821 -5.39374 1.17385 0
M  V30 507 H 63.1591 -4.38781 -0.191909 0
M  V30 508 H 63.7651 -4.00341 1.43551 0
M  V30 509 N 62.0802 -0.821533 -1.34494 0
M  V30 510 C 63.3282 -0.408139 -1.97936 0
M  V30 511 C 63.6492 1.03193 -1.65457 0
M  V30 512 O 62.9192 1.71622 -0.944595 0
M  V30 513 H 61.4992 -0.147928 -0.732206 0
M  V30 514 H 64.1612 -1.05067 -1.64155 0
M  V30 515 H 63.2572 -0.52601 -3.07635 0
M  V30 516 N 63.5583 1.46682 -0.576371 0
M  V30 517 C 64.9743 1.57822 -0.237562 0
M  V30 518 C 65.1743 1.57237 1.26011 0
M  V30 519 O 64.2303 1.48596 2.04146 0
M  V30 520 C 65.5433 2.87499 -0.881168 0
M  V30 521 C 67.0913 3.01119 -0.85417 0
M  V30 522 C 67.5663 4.33524 -1.4772 0
M  V30 523 N 69.0573 4.40207 -1.44125 0
M  V30 524 C 69.7923 5.4126 -1.89276 0
M  V30 525 N 69.2883 6.49021 -2.42371 0
M  V30 526 N 71.0813 5.32422 -1.80231 0
M  V30 527 H 63.2323 1.45306 -1.54919 0
M  V30 528 H 65.4953 0.692733 -0.647167 0
M  V30 529 H 65.2013 2.9372 -1.93447 0
M  V30 530 H 65.0753 3.75224 -0.385592 0
M  V30 531 H 67.4623 2.94485 0.190491 0
M  V30 532 H 67.5433 2.14887 -1.3877 0
M  V30 533 H 67.1873 4.40916 -2.52103 0
M  V30 534 H 67.1173 5.1852 -0.918947 0
M  V30 535 H 69.6083 3.62931 -1.05307 0
M  V30 536 H 69.9213 7.2233 -2.74698 0
M  V30 537 H 68.2663 6.49858 -2.46393 0
M  V30 538 H 71.4573 4.47137 -1.38514 0
M  V30 539 H 71.6303 6.11034 -2.15735 0
M  V30 540 N 65.0364 0.313813 1.54444 0
M  V30 541 C 66.4524 -0.0391619 1.59552 0
M  V30 542 C 66.6524 -1.51322 1.33056 0
M  V30 543 O 65.7084 -2.26782 1.11022 0
M  V30 544 C 67.0214 0.370302 2.98411 0
M  V30 545 C 68.5694 0.320139 3.11358 0
M  V30 546 C 69.0444 0.704617 4.52547 0
M  V30 547 N 70.5354 0.657645 4.58508 0
M  V30 548 C 71.2704 0.927453 5.6585 0
M  V30 549 N 70.7664 1.26389 6.81174 0
M  V30 550 N 72.5594 0.853662 5.5558 0
M  V30 551 H 64.7104 1.27433 1.69925 0
M  V30 552 H 66.9734 0.517511 0.794284 0
M  V30 553 H 66.6794 1.39694 3.22767 0
M  V30 554 H 66.5534 -0.269619 3.76235 0
M  V30 555 H 68.9404 -0.697275 2.86744 0
M  V30 556 H 69.0214 0.99486 2.35661 0
M  V30 557 H 68.6654 1.7199 4.77893 0
M  V30 558 H 68.5954 0.00768843 5.26599 0
M  V30 559 H 71.0864 0.409067 3.75679 0
M  V30 560 H 71.3994 1.4554 7.58972 0
M  V30 561 H 69.7444 1.30206 6.82694 0
M  V30 562 H 72.9354 0.590383 4.64362 0
M  V30 563 H 73.1084 1.0673 6.3915 0
M  V30 564 N 66.5145 -1.57545 0.0417849 0
M  V30 565 C 67.9305 -1.56467 -0.314704 0
M  V30 566 C 68.1305 -1.04859 -1.72066 0
M  V30 567 O 67.1865 -0.700983 -2.42575 0
M  V30 568 C 68.4995 -3.00317 -0.15174 0
M  V30 569 C 70.0475 -3.12201 -0.223553 0
M  V30 570 C 70.5225 -4.57913 -0.0892295 0
M  V30 571 N 72.0135 -4.6297 -0.145808 0
M  V30 572 C 72.7485 -5.73362 -0.0658459 0
M  V30 573 N 72.2445 -6.92769 0.0659282 0
M  V30 574 N 74.0375 -5.6197 -0.12075 0
M  V30 575 H 66.1885 -1.89416 0.961014 0
M  V30 576 H 68.4515 -0.871862 0.372237 0
M  V30 577 H 68.1575 -3.42073 0.817254 0
M  V30 578 H 68.0315 -3.65892 -0.916692 0
M  V30 579 H 70.4185 -2.70349 -1.18301 0
M  V30 580 H 70.4995 -2.49323 0.571994 0
M  V30 581 H 70.1435 -5.00448 0.866867 0
M  V30 582 H 70.0735 -5.18786 -0.903802 0
M  V30 583 H 72.5645 -3.7709 -0.247286 0
M  V30 584 H 72.8775 -7.72707 0.119905 0
M  V30 585 H 71.2225 -6.94927 0.100885 0
M  V30 586 H 74.4135 -4.67572 -0.222187 0
M  V30 587 H 74.5865 -6.47977 -0.0549735 0
M  V30 588 N 67.9926 0.231505 -1.5589 0
M  V30 589 C 68.9556 1.27028 -1.90779 0
M  V30 590 C 69.9556 1.40308 -0.785507 0
M  V30 591 O 71.1456 1.38744 -1.05336 0
M  V30 592 C 68.2776 2.64566 -2.14983 0
M  V30 593 H 69.4706 0.973017 -2.83677 0
M  V30 594 H 67.0236 0.471486 -1.49019 0
M  V30 595 H 67.7586 2.99406 -1.24604 0
M  V30 596 H 67.5436 2.56305 -2.96732 0
M  V30 597 H 69.0336 3.39543 -2.43105 0
M  V30 598 N 69.4707 1.49531 0.497807 0
M  V30 599 C 70.4007 1.6935 1.60757 0
M  V30 600 C 71.3817 0.542218 1.61227 0
M  V30 601 O 72.5667 0.778417 1.77917 0
M  V30 602 C 69.6967 1.76298 2.99226 0
M  V30 603 C 68.6507 2.91248 3.13622 0
M  V30 604 C 67.9767 2.83312 4.53474 0
M  V30 605 C 69.2767 4.3214 2.93346 0
M  V30 606 H 70.9707 2.62263 1.44425 0
M  V30 607 H 68.5167 1.26208 0.693367 0
M  V30 608 H 70.4697 1.88749 3.76765 0
M  V30 609 H 69.1937 0.799871 3.16654 0
M  V30 610 H 67.8527 2.78404 2.38509 0
M  V30 611 H 67.5007 1.84902 4.67782 0
M  V30 612 H 67.2007 3.60465 4.64046 0
M  V30 613 H 68.7247 2.97775 5.33069 0
M  V30 614 H 70.1387 4.45649 3.60652 0
M  V30 615 H 68.5357 5.1054 3.15387 0
M  V30 616 H 69.6057 4.46363 1.89441 0
M  V30 617 N 70.9488 -0.749086 1.3866 0
M  V30 618 C 71.8818 -1.87111 1.30631 0
M  V30 619 C 72.8598 -1.61572 0.18251 0
M  V30 620 O 74.0438 -1.85019 0.360592 0
M  V30 621 C 71.1708 -3.22815 1.02511 0
M  V30 622 C 70.2168 -3.67234 2.1689 0
M  V30 623 S 71.0498 -3.78245 3.79066 0
M  V30 624 C 72.2058 -5.16761 3.53142 0
M  V30 625 H 72.4388 -1.93636 2.25594 0
M  V30 626 H 69.9718 -0.912525 1.24549 0
M  V30 627 H 71.9298 -4.01181 0.869701 0
M  V30 628 H 70.5908 -3.13964 0.0925884 0
M  V30 629 H 69.7838 -4.65677 1.92771 0
M  V30 630 H 69.3858 -2.96034 2.28561 0
M  V30 631 H 71.6778 -6.02656 3.09534 0
M  V30 632 H 72.6208 -5.45902 4.50995 0
M  V30 633 H 73.0288 -4.85771 2.87554 0
M  V30 634 N 72.4269 -1.23603 -0.977757 0
M  V30 635 C 73.3569 -1.04401 -2.0886 0
M  V30 636 C 74.3379 0.0399052 -1.70053 0
M  V30 637 O 75.5229 -0.125246 -1.93796 0
M  V30 638 C 72.6529 -0.637269 -3.41403 0
M  V30 639 C 71.6069 -1.66883 -3.94124 0
M  V30 640 C 70.9329 -1.11745 -5.22893 0
M  V30 641 C 72.2329 -3.06247 -4.23096 0
M  V30 642 H 73.9269 -1.97316 -2.25182 0
M  V30 643 H 71.4729 -0.950096 -1.08209 0
M  V30 644 H 73.4259 -0.48998 -4.18542 0
M  V30 645 H 72.1499 0.327557 -3.24953 0
M  V30 646 H 70.8089 -1.80416 -3.19133 0
M  V30 647 H 70.4569 -0.143527 -5.02795 0
M  V30 648 H 70.1569 -1.80672 -5.59134 0
M  V30 649 H 71.6809 -0.982067 -6.02651 0
M  V30 650 H 73.0949 -2.96001 -4.90975 0
M  V30 651 H 71.4919 -3.72436 -4.70544 0
M  V30 652 H 72.5619 -3.55041 -3.30263 0
M  V30 653 N 73.905 1.17692 -1.04816 0
M  V30 654 C 75.316 1.69501 -0.782698 0
M  V30 655 C 75.667 1.83456 0.695577 0
M  V30 656 O 74.792 1.51942 1.54086 0
M  V30 657 C 75.387 3.07874 -1.41419 0
M  V30 658 C 73.946 3.56864 -1.19686 0
M  V30 659 C 73.093 2.3322 -1.50012 0
M  V30 660 H 76.044 1.02262 -1.2136 0
M  V30 661 H 76.065 3.71528 -0.821428 0
M  V30 662 H 75.577 2.97685 -2.49009 0
M  V30 663 H 73.678 3.72337 -0.140043 0
M  V30 664 H 73.791 4.39851 -1.89916 0
M  V30 665 H 72.155 2.37501 -0.920071 0
M  V30 666 H 72.938 2.25644 -2.58727 0
M  V30 667 N 75.3831 0.828654 1.34056 0
M  V30 668 C 76.3461 0.259927 2.27721 0
M  V30 669 C 77.3461 -0.565478 1.50529 0
M  V30 670 O 78.5361 -0.38075 1.69988 0
M  V30 671 C 75.6681 -0.634944 3.34935 0
M  V30 672 H 76.8611 1.0863 2.79534 0
M  V30 673 H 74.4141 0.600951 1.44285 0
M  V30 674 H 75.1491 -1.48416 2.88346 0
M  V30 675 H 74.9341 -0.0444999 3.92075 0
M  V30 676 H 76.4241 -1.02648 4.04788 0
M  V30 677 N 76.8612 -1.46375 0.584142 0
M  V30 678 C 78.1072 -2.02678 0.0703716 0
M  V30 679 C 78.4402 -1.4545 -1.28678 0
M  V30 680 O 77.7152 -0.62014 -1.84349 0
M  V30 681 C 77.9982 -3.60099 0.00614674 0
M  V30 682 C 77.8512 -4.27709 1.3923 0
M  V30 683 C 79.1702 -4.34598 -0.693742 0
M  V30 684 H 76.2892 -0.736504 0.027047 0
M  V30 685 H 78.9312 -1.74501 0.751615 0
M  V30 686 H 77.0812 -3.84236 -0.574009 0
M  V30 687 H 78.7532 -4.14832 2.01773 0
M  V30 688 H 76.9962 -3.87016 1.95962 0
M  V30 689 H 77.6672 -5.36478 1.29982 0
M  V30 690 H 80.1432 -4.15615 -0.200869 0
M  V30 691 H 79.0192 -5.44318 -0.707714 0
M  V30 692 H 79.2802 -4.05759 -1.75533 0
M  V30 693 N 78.3393 -0.321999 -1.54275 0
M  V30 694 C 79.2693 0.537411 -2.27231 0
M  V30 695 C 80.2503 1.12064 -1.27968 0
M  V30 696 O 81.4353 1.14606 -1.56777 0
M  V30 697 C 78.5653 1.69919 -3.02894 0
M  V30 698 C 77.5193 1.24534 -4.09482 0
M  V30 699 C 76.8453 2.49394 -4.72977 0
M  V30 700 C 78.1453 0.361335 -5.21049 0
M  V30 701 H 79.8393 -0.0711406 -2.99315 0
M  V30 702 H 77.3853 -0.0356555 -1.43956 0
M  V30 703 H 79.3383 2.30668 -3.52662 0
M  V30 704 H 78.0623 2.33431 -2.28424 0
M  V30 705 H 76.7213 0.660782 -3.60596 0
M  V30 706 H 76.3693 3.11265 -3.95124 0
M  V30 707 H 76.0693 2.19718 -5.44975 0
M  V30 708 H 77.5933 3.10908 -5.25517 0
M  V30 709 H 79.0073 0.875072 -5.66582 0
M  V30 710 H 77.4043 0.157428 -5.99893 0
M  V30 711 H 78.4743 -0.60822 -4.8107 0
M  V30 712 N 79.8174 1.5752 -0.0501392 0
M  V30 713 C 80.7494 2.08413 0.95376 0
M  V30 714 C 81.7624 1.01175 1.27544 0
M  V30 715 O 82.9514 1.28744 1.23641 0
M  V30 716 C 80.0514 2.51138 2.27559 0
M  V30 717 C 79.2244 3.817 2.13598 0
M  V30 718 C 78.2834 4.10749 3.28895 0
M  V30 719 O 77.3094 4.80685 3.04845 0
M  V30 720 N 78.5114 3.62579 4.5334 0
M  V30 721 H 81.2764 2.95165 0.519383 0
M  V30 722 H 78.8374 1.61327 0.136127 0
M  V30 723 H 80.8294 2.67648 3.03557 0
M  V30 724 H 79.3994 1.6964 2.62567 0
M  V30 725 H 78.6194 3.74782 1.22197 0
M  V30 726 H 79.9074 4.67201 2.01496 0
M  V30 727 H 79.3054 3.06039 4.75769 0
M  V30 728 H 77.8624 3.84329 5.26436 0
M  V30 729 N 81.2955 -0.223234 1.56011 0
M  V30 730 C 82.2585 -1.26014 1.9145 0
M  V30 731 C 83.2585 -1.3989 0.792937 0
M  V30 732 O 84.4485 -1.38184 1.0607 0
M  V30 733 C 81.5805 -2.63422 2.16383 0
M  V30 734 H 82.7735 -0.95796 2.84189 0
M  V30 735 H 80.3265 -0.463576 1.49267 0
M  V30 736 H 81.0615 -2.98741 1.2619 0
M  V30 737 H 80.8465 -2.54728 2.98088 0
M  V30 738 H 82.3365 -3.38249 2.44903 0
M  V30 739 N 82.7736 -1.49793 -0.48987 0
M  V30 740 C 84.1846 -1.52914 -1.07118 0
M  V30 741 C 84.5356 -0.321738 -1.93544 0
M  V30 742 O 83.6606 0.567338 -2.08831 0
M  V30 743 C 84.2556 -2.771 -1.94938 0
M  V30 744 C 82.8146 -2.82963 -2.48212 0
M  V30 745 C 81.9616 -2.46972 -1.26096 0
M  V30 746 H 84.9126 -1.56329 -0.273289 0
M  V30 747 H 84.9336 -2.57892 -2.79771 0
M  V30 748 H 84.4456 -3.64959 -1.32009 0
M  V30 749 H 82.5466 -1.99411 -3.14748 0
M  V30 750 H 82.6596 -3.85406 -2.84603 0
M  V30 751 H 81.0236 -1.98994 -1.58976 0
M  V30 752 H 81.8066 -3.37118 -0.648581 0
M  V30 753 N 84.2517 0.741722 -1.39055 0
M  V30 754 C 85.4997 1.49818 -1.35643 0
M  V30 755 C 85.8207 1.94938 0.0491642 0
M  V30 756 O 85.0907 1.68505 0.999141 0
M  V30 757 H 83.6707 0.555755 -0.499144 0
M  V30 758 H 86.3327 0.880957 -1.73854 0
M  V30 759 H 85.4287 2.38348 -2.01486 0
M  V30 760 N 85.7298 1.2412 0.971189 0
M  V30 761 C 86.6778 1.02812 2.08644 0
M  V30 762 C 87.6718 -0.0358403 1.69362 0
M  V30 763 O 88.8778 0.118429 1.7961 0
M  V30 764 H 85.2528 0.315428 0.682649 0
M  V30 765 H 87.2238 1.97397 2.23779 0
M  V30 766 C 85.9728 0.645874 3.41649 0
M  V30 767 H 85.2958 1.45632 3.72332 0
M  V30 768 H 86.7358 0.536366 4.20594 0
M  V30 769 C 85.1948 -0.646713 3.30635 0
M  V30 770 O 85.7248 -1.69338 3.64263 0
M  V30 771 N 83.9308 -0.626115 2.83775 0
M  V30 772 H 83.4778 0.225988 2.56607 0
M  V30 773 H 83.4358 -1.49117 2.76788 0
M  V30 774 N 87.2079 -1.17134 1.05439 0
M  V30 775 C 88.1579 -2.1919 0.627675 0
M  V30 776 C 89.1419 -1.57328 -0.337147 0
M  V30 777 O 90.3339 -1.76329 -0.153976 0
M  V30 778 C 87.4629 -3.43299 0.00651435 0
M  V30 779 C 86.5489 -4.12255 0.995312 0
M  V30 780 N 86.9399 -4.56997 2.16765 0
M  V30 781 C 85.2379 -4.38316 0.824336 0
M  V30 782 C 85.9389 -5.10239 2.7934 0
M  V30 783 N 84.9149 -5.02595 2.07122 0
M  V30 784 H 88.7169 -2.5149 1.52086 0
M  V30 785 H 86.2309 -1.33491 0.924868 0
M  V30 786 H 88.2279 -4.15693 -0.316965 0
M  V30 787 H 86.8879 -3.1249 -0.882033 0
M  V30 788 H 87.8989 -4.51006 2.54587 0
M  V30 789 H 84.5759 -4.17498 -0.0129526 0
M  V30 790 H 85.9659 -5.54961 3.78772 0
M  V30 791 N 88.686 -0.835752 -1.33615 0
M  V30 792 C 89.618 -0.224151 -2.28101 0
M  V30 793 C 90.631 0.593331 -1.51603 0
M  V30 794 O 91.82 0.420911 -1.73466 0
M  V30 795 C 88.92 0.703309 -3.31522 0
M  V30 796 C 88.093 -0.0741528 -4.37337 0
M  V30 797 C 87.152 0.776176 -5.20444 0
M  V30 798 O 86.178 0.216506 -5.68788 0
M  V30 799 N 87.38 2.09401 -5.41416 0
M  V30 800 H 90.145 -1.03598 -2.81225 0
M  V30 801 H 87.706 -0.69392 -1.46275 0
M  V30 802 H 89.698 1.27707 -3.84022 0
M  V30 803 H 88.268 1.41585 -2.78698 0
M  V30 804 H 87.488 -0.82928 -3.85378 0
M  V30 805 H 88.776 -0.608863 -5.05144 0
M  V30 806 H 88.174 2.57229 -5.03835 0
M  V30 807 H 86.731 2.61633 -5.96985 0
M  V30 808 N 90.1641 1.46063 -0.591896 0
M  V30 809 C 91.1141 2.27458 0.157172 0
M  V30 810 C 92.0981 1.3641 0.853301 0
M  V30 811 O 93.2901 1.60517 0.74588 0
M  V30 812 C 90.4191 3.22956 1.16423 0
M  V30 813 C 89.5051 4.2149 0.469742 0
M  V30 814 N 89.8961 5.03519 -0.479839 0
M  V30 815 C 88.1941 4.40161 0.719319 0
M  V30 816 C 88.8951 5.74904 -0.886591 0
M  V30 817 N 87.8711 5.43097 -0.233731 0
M  V30 818 H 91.6731 2.88272 -0.572392 0
M  V30 819 H 89.1871 1.57024 -0.414375 0
M  V30 820 H 91.1841 3.79986 1.71513 0
M  V30 821 H 89.8441 2.63701 1.89451 0
M  V30 822 H 90.8551 5.1078 -0.855823 0
M  V30 823 H 87.5321 3.92046 1.43548 0
M  V30 824 H 88.9221 6.50844 -1.66888 0
M  V30 825 N 91.6422 0.330177 1.54103 0
M  V30 826 C 93.0532 -0.15652 1.86043 0
M  V30 827 C 93.4042 -1.51086 1.2517 0
M  V30 828 O 92.5292 -2.09023 0.560217 0
M  V30 829 C 93.1242 -0.290784 3.3755 0
M  V30 830 C 91.6832 -0.721705 3.69416 0
M  V30 831 C 90.8302 0.152622 2.7688 0
M  V30 832 H 93.7812 0.550237 1.48856 0
M  V30 833 H 93.8022 -1.12058 3.63625 0
M  V30 834 H 93.3142 0.695068 3.81825 0
M  V30 835 H 91.4152 -1.71706 3.30678 0
M  V30 836 H 91.5282 -0.520869 4.7626 0
M  V30 837 H 89.8922 -0.372894 2.51956 0
M  V30 838 H 90.6752 1.13536 3.23982 0
M  V30 839 N 93.1203 -1.57491 0.0584922 0
M  V30 840 C 94.0703 -2.08474 -0.923188 0
M  V30 841 C 95.0543 -0.991479 -1.26722 0
M  V30 842 O 96.2463 -1.25473 -1.24842 0
M  V30 843 C 93.3753 -2.6392 -2.19548 0
M  V30 844 C 92.4613 -3.80227 -1.87852 0
M  V30 845 N 92.8523 -4.89714 -1.26546 0
M  V30 846 C 91.1503 -3.89271 -2.17679 0
M  V30 847 C 91.8513 -5.70689 -1.12644 0
M  V30 848 N 90.8273 -5.18531 -1.63176 0
M  V30 849 H 94.6293 -2.90517 -0.444653 0
M  V30 850 H 92.1433 -1.61745 -0.145764 0
M  V30 851 H 94.1403 -2.98752 -2.9078 0
M  V30 852 H 92.8003 -1.83318 -2.68001 0
M  V30 853 H 93.8113 -5.09358 -0.936757 0
M  V30 854 H 90.4883 -3.19623 -2.68602 0
M  V30 855 H 91.8783 -6.6875 -0.6499 0
M  V30 856 N 94.5984 0.214957 -1.56127 0
M  V30 857 C 96.0144 0.564948 -1.49267 0
M  V30 858 C 96.2144 1.86827 -0.754838 0
M  V30 859 O 95.2704 2.50745 -0.297198 0
M  V30 860 C 96.5834 0.638071 -2.93852 0
M  V30 861 C 98.1314 0.728253 -3.0441 0
M  V30 862 C 98.6064 0.832663 -4.50367 0
M  V30 863 N 100.097 0.896712 -4.54437 0
M  V30 864 C 100.832 0.997324 -5.6466 0
M  V30 865 N 100.328 1.06147 -6.8462 0
M  V30 866 N 102.121 1.03297 -5.52527 0
M  V30 867 H 94.2724 -0.640211 -2.02522 0
M  V30 868 H 96.5354 -0.225507 -0.920788 0
M  V30 869 H 96.2414 -0.250126 -3.50809 0
M  V30 870 H 96.1154 1.49947 -3.46115 0
M  V30 871 H 98.5024 1.60689 -2.47514 0
M  V30 872 H 98.5834 -0.158952 -2.55306 0
M  V30 873 H 98.2274 -0.0415417 -5.07883 0
M  V30 874 H 98.1574 1.73538 -4.97184 0
M  V30 875 H 100.648 0.857188 -3.6805 0
M  V30 876 H 100.961 1.1382 -7.64372 0
M  V30 877 H 99.3064 1.03049 -6.87318 0
M  V30 878 H 102.497 0.979558 -4.57736 0
M  V30 879 H 102.67 1.10793 -6.38458 0
M  V30 880 N 96.0765 1.50051 0.48192 0
M  V30 881 C 97.3255 1.59741 1.23149 0
M  V30 882 C 97.6385 0.298163 1.93314 0
M  V30 883 O 98.8445 0.273835 2.70116 0
M  V30 884 C 97.3005 2.81926 2.23708 0
M  V30 885 C 96.9085 4.18685 1.59396 0
M  V30 886 C 98.6525 3.00956 2.99375 0
M  V30 887 C 96.5595 5.3207 2.58178 0
M  V30 888 H 95.4895 0.594838 0.46334 0
M  V30 889 H 98.1405 1.76467 0.503169 0
M  V30 890 H 96.5225 2.58736 2.99786 0
M  V30 891 H 97.6965 4.52088 0.891811 0
M  V30 892 H 96.0115 4.05171 0.960503 0
M  V30 893 H 98.6085 3.82836 3.73283 0
M  V30 894 H 98.9515 2.12258 3.58123 0
M  V30 895 H 99.4845 3.24277 2.30411 0
M  V30 896 H 96.2235 6.22888 2.04184 0
M  V30 897 H 95.7435 5.03098 3.26577 0
M  V30 898 H 97.4225 5.62196 3.20225 0
M  V30 899 N 97.5546 -0.734337 1.39446 0
M  V30 900 C 98.7826 -1.52358 1.39981 0
M  V30 901 C 99.1976 -1.88799 -0.0054975 0
M  V30 902 O 98.5546 -1.54146 -0.976998 0
M  V30 903 C 98.6056 -2.81072 2.27333 0
M  V30 904 O 98.3266 -2.46178 3.62392 0
M  V30 905 C 99.8276 -3.75096 2.36259 0
M  V30 906 H 97.0476 -0.470806 0.478103 0
M  V30 907 H 99.5916 -0.907339 1.83269 0
M  V30 908 H 97.7466 -3.39026 1.87457 0
M  V30 909 H 98.1606 -3.28866 4.08592 0
M  V30 910 H 99.6346 -4.62305 3.01626 0
M  V30 911 H 100.112 -4.16892 1.38194 0
M  V30 912 H 100.718 -3.23061 2.76608 0
M  V30 913 N 99.0327 -1.24633 -0.964593 0
M  V30 914 C 99.9807 -1.03917 -2.08096 0
M  V30 915 C 100.975 0.0268581 -1.69379 0
M  V30 916 O 102.181 -0.127952 -1.79545 0
M  V30 917 H 98.5557 -0.319044 -0.680966 0
M  V30 918 H 100.527 -1.98581 -2.22729 0
M  V30 919 C 99.2757 -0.663983 -3.41301 0
M  V30 920 H 98.5987 -1.47605 -3.71555 0
M  V30 921 H 100.039 -0.558663 -4.20303 0
M  V30 922 C 98.4977 0.629169 -3.30973 0
M  V30 923 O 99.0277 1.67404 -3.65156 0
M  V30 924 N 97.2337 0.611057 -2.84103 0
M  V30 925 H 96.7807 -0.239593 -2.56483 0
M  V30 926 H 96.7387 1.47647 -2.77575 0
M  V30 927 N 100.511 1.16574 -1.06058 0
M  V30 928 C 101.758 1.87047 -0.775873 0
M  V30 929 C 102.086 1.81562 0.697534 0
M  V30 930 O 101.341 1.22445 1.52662 0
M  V30 931 C 101.64 3.36195 -1.21275 0
M  V30 932 C 101.306 3.6188 -2.68986 0
M  V30 933 C 99.9678 3.68599 -3.09335 0
M  V30 934 C 102.32 3.72648 -3.64394 0
M  V30 935 C 99.6478 3.83584 -4.43937 0
M  V30 936 C 102 3.89154 -4.98741 0
M  V30 937 C 100.664 3.94114 -5.3873 0
M  V30 938 H 99.9338 0.684452 -0.283912 0
M  V30 939 H 102.581 1.37853 -1.32925 0
M  V30 940 H 100.886 3.87505 -0.578528 0
M  V30 941 H 102.583 3.89103 -0.969542 0
M  V30 942 H 99.1728 3.57281 -2.36744 0
M  V30 943 H 103.357 3.66769 -3.34356 0
M  V30 944 H 98.6128 3.85677 -4.74409 0
M  V30 945 H 102.787 3.96427 -5.72554 0
M  V30 946 H 100.414 4.05478 -6.43033 0
M  V30 947 N 101.989 0.842826 1.3317 0
M  V30 948 C 103.236 0.440447 1.97652 0
M  V30 949 C 103.564 -1.00123 1.6675 0
M  V30 950 O 102.819 -1.7155 0.941761 0
M  V30 951 C 103.118 0.612607 3.52111 0
M  V30 952 C 102.784 2.02297 4.02972 0
M  V30 953 C 101.446 2.40874 4.16573 0
M  V30 954 C 103.798 2.94402 4.30089 0
M  V30 955 C 101.126 3.70852 4.54627 0
M  V30 956 C 103.478 4.23865 4.69597 0
M  V30 957 C 102.142 4.62392 4.81404 0
M  V30 958 H 101.412 0.161171 0.72326 0
M  V30 959 H 104.059 1.07061 1.58777 0
M  V30 960 H 102.364 -0.100849 3.9167 0
M  V30 961 H 104.061 0.2815 4.00011 0
M  V30 962 H 100.651 1.71338 3.92863 0
M  V30 963 H 104.835 2.65835 4.19101 0
M  V30 964 H 100.091 4.00501 4.61962 0
M  V30 965 H 104.265 4.95306 4.89536 0
M  V30 966 H 101.892 5.63154 5.10648 0
M  V30 967 N 103.467 -1.45747 0.599634 0
M  V30 968 C 104.716 -2.01502 0.0893511 0
M  V30 969 C 105.029 -1.4748 -1.28488 0
M  V30 970 O 106.235 -1.95161 -1.88745 0
M  V30 971 C 104.691 -3.59735 0.109082 0
M  V30 972 C 104.299 -4.22754 1.48267 0
M  V30 973 C 106.043 -4.23085 -0.346374 0
M  V30 974 C 103.95 -5.73115 1.45921 0
M  V30 975 H 102.88 -0.753417 0.0296347 0
M  V30 976 H 105.531 -1.67303 0.753788 0
M  V30 977 H 103.913 -3.91087 -0.621854 0
M  V30 978 H 105.087 -4.02987 2.23468 0
M  V30 979 H 103.402 -3.71567 1.87955 0
M  V30 980 H 105.999 -5.33327 -0.38298 0
M  V30 981 H 106.342 -3.93201 -1.36743 0
M  V30 982 H 106.875 -3.9642 0.331038 0
M  V30 983 H 103.614 -6.07685 2.45762 0
M  V30 984 H 103.134 -5.95097 0.749665 0
M  V30 985 H 104.813 -6.3616 1.17941 0
M  V30 986 N 104.945 -0.338344 -1.53925 0
M  V30 987 C 106.222 0.314774 -1.93051 0
M  V30 988 C 106.602 1.68669 -1.26941 0
M  V30 989 O 105.95 2.24636 -0.418445 0
M  V30 990 C 106.16 0.392249 -3.46789 0
M  V30 991 C 107.508 0.645554 -4.19664 0
M  V30 992 O 108.532 0.474575 -3.53024 0
M  V30 993 O 107.391 0.976408 -5.37707 0
M  V30 994 H 104.485 0.182598 -0.80659 0
M  V30 995 H 107.031 -0.389141 -1.65178 0
M  V30 996 H 105.803 -0.570702 -3.87116 0
M  V30 997 H 105.426 1.14316 -3.80812 0
M  V30 998 N 106.423 1.57458 -0.0668435 0
M  V30 999 C 107.371 2.13639 0.919851 0
M  V30 1000 C 108.365 1.07204 1.31163 0
M  V30 1001 O 109.571 1.25591 1.28945 0
M  V30 1002 H 105.946 0.683048 0.314562 0
M  V30 1003 H 107.917 2.95415 0.421047 0
M  V30 1004 C 106.666 2.70892 2.17975 0
M  V30 1005 H 105.989 3.5246 1.88711 0
M  V30 1006 H 107.429 3.13803 2.85138 0
M  V30 1007 C 105.888 1.65414 2.93496 0
M  V30 1008 O 106.418 1.07619 3.87015 0
M  V30 1009 N 104.624 1.36564 2.56512 0
M  V30 1010 H 104.171 1.83751 1.80536 0
M  V30 1011 H 104.129 0.66223 3.07347 0
M  V30 1012 N 107.901 -0.206675 1.56239 0
M  V30 1013 C 109.15 -0.926964 1.79138 0
M  V30 1014 C 109.463 -1.84901 0.638043 0
M  V30 1015 O 110.669 -2.60906 0.751033 0
M  V30 1016 C 109.125 -1.6986 3.17294 0
M  V30 1017 C 108.733 -0.821956 4.40395 0
M  V30 1018 C 110.477 -2.40922 3.4951 0
M  V30 1019 C 108.384 -1.59179 5.69575 0
M  V30 1020 H 107.314 -0.349864 0.667915 0
M  V30 1021 H 109.965 -0.180487 1.8261 0
M  V30 1022 H 108.347 -2.48853 3.08039 0
M  V30 1023 H 109.521 -0.0715019 4.60745 0
M  V30 1024 H 107.836 -0.222741 4.15804 0
M  V30 1025 H 110.433 -2.99047 4.43255 0
M  V30 1026 H 110.776 -3.14542 2.72707 0
M  V30 1027 H 111.309 -1.68905 3.60161 0
M  V30 1028 H 108.048 -0.898589 6.49312 0
M  V30 1029 H 107.568 -2.31648 5.53262 0
M  V30 1030 H 109.247 -2.14862 6.10281 0
M  V30 1031 N 109.379 -1.50304 -0.473955 0
M  V30 1032 C 110.309 -1.71886 -1.58042 0
M  V30 1033 C 111.29 -0.567799 -1.60344 0
M  V30 1034 O 112.475 -0.806623 -1.76656 0
M  V30 1035 C 109.605 -1.81036 -2.96384 0
M  V30 1036 C 108.559 -2.962 -3.08949 0
M  V30 1037 C 107.885 -2.9049 -4.48909 0
M  V30 1038 C 109.185 -4.36752 -2.86434 0
M  V30 1039 H 110.879 -2.64527 -1.40234 0
M  V30 1040 H 108.425 -1.27295 -0.673201 0
M  V30 1041 H 110.378 -1.94719 -3.73714 0
M  V30 1042 H 109.102 -0.850147 -3.15341 0
M  V30 1043 H 107.761 -2.82164 -2.3405 0
M  V30 1044 H 107.409 -1.92321 -4.64781 0
M  V30 1045 H 107.109 -3.67802 -4.58253 0
M  V30 1046 H 108.633 -3.06218 -5.28264 0
M  V30 1047 H 110.047 -4.5133 -3.53517 0
M  V30 1048 H 108.444 -5.15493 -3.07225 0
M  V30 1049 H 109.514 -4.49321 -1.82316 0
M  V30 1050 N 110.857 0.726932 -1.39834 0
M  V30 1051 C 112.273 1.03354 -1.21615 0
M  V30 1052 C 112.473 2.01327 -0.08338 0
M  V30 1053 O 111.529 2.46158 0.56238 0
M  V30 1054 C 112.842 1.58811 -2.55342 0
M  V30 1055 C 114.39 1.70851 -2.62257 0
M  V30 1056 C 114.865 2.29716 -3.96225 0
M  V30 1057 N 116.356 2.37116 -3.97907 0
M  V30 1058 C 117.091 2.83619 -4.98345 0
M  V30 1059 N 116.587 3.29958 -6.09179 0
M  V30 1060 N 118.38 2.82901 -4.8572 0
M  V30 1061 H 110.531 0.0773069 -2.12259 0
M  V30 1062 H 112.794 0.0969102 -0.943034 0
M  V30 1063 H 112.5 0.942855 -3.38826 0
M  V30 1064 H 112.374 2.57502 -2.75632 0
M  V30 1065 H 114.761 2.34497 -1.79152 0
M  V30 1066 H 114.842 0.707913 -2.45809 0
M  V30 1067 H 114.486 1.66696 -4.79765 0
M  V30 1068 H 114.416 3.30469 -4.09997 0
M  V30 1069 H 116.907 2.04374 -3.17868 0
M  V30 1070 H 117.22 3.63976 -6.8172 0
M  V30 1071 H 115.565 3.27946 -6.12761 0
M  V30 1072 H 118.756 2.46027 -3.98231 0
M  V30 1073 H 118.929 3.18827 -5.6414 0
M  V30 1074 N 112.336 1.25143 0.95797 0
M  V30 1075 C 113.747 1.08851 1.51685 0
M  V30 1076 C 114.098 -0.33687 1.93286 0
M  V30 1077 O 113.223 -1.22644 1.7829 0
M  V30 1078 C 113.818 1.96978 2.75654 0
M  V30 1079 C 112.377 1.84881 3.27866 0
M  V30 1080 C 111.524 1.91329 2.0072 0
M  V30 1081 H 114.475 1.38478 0.77522 0
M  V30 1082 H 114.496 1.5078 3.4935 0
M  V30 1083 H 114.008 3.00712 2.45345 0
M  V30 1084 H 112.109 0.840182 3.63004 0
M  V30 1085 H 112.222 2.6951 3.96107 0
M  V30 1086 H 110.586 1.35174 2.15871 0
M  V30 1087 H 111.369 2.96661 1.72764 0
M  V30 1088 N 113.814 -1.1601 1.06675 0
M  V30 1089 C 114.724 -2.24156 0.692179 0
M  V30 1090 C 115.74 -1.71507 -0.293513 0
M  V30 1091 O 116.916 -2.009 -0.141861 0
M  V30 1092 C 113.981 -3.46587 0.0884131 0
M  V30 1093 C 113.042 -4.14257 1.12646 0
M  V30 1094 C 112.275 -5.30844 0.551416 0
M  V30 1095 O 112.498 -5.66858 -0.634656 0
M  V30 1096 O 111.432 -5.87848 1.29298 0
M  V30 1097 H 115.258 -2.58513 1.59388 0
M  V30 1098 H 112.843 -1.23599 0.83926 0
M  V30 1099 H 114.725 -4.20679 -0.246361 0
M  V30 1100 H 113.4 -3.13994 -0.786712 0
M  V30 1101 H 112.307 -3.42118 1.51348 0
M  V30 1102 H 113.64 -4.50914 1.97325 0
M  V30 1103 N 115.292 -0.849877 -1.32721 0
M  V30 1104 C 116.539 -0.450923 -1.97416 0
M  V30 1105 C 116.867 0.992376 -1.67279 0
M  V30 1106 O 116.122 1.71048 -0.950845 0
M  V30 1107 C 116.421 -0.631272 -3.51781 0
M  V30 1108 C 116.087 -2.04432 -4.01894 0
M  V30 1109 C 114.749 -2.4308 -4.1529 0
M  V30 1110 C 117.101 -2.96679 -4.28522 0
M  V30 1111 C 114.429 -3.73257 -4.52654 0
M  V30 1112 C 116.781 -4.26349 -4.67343 0
M  V30 1113 C 115.445 -4.64939 -4.78945 0
M  V30 1114 H 114.715 -0.165004 -0.722395 0
M  V30 1115 H 117.362 -1.07901 -1.58207 0
M  V30 1116 H 115.667 0.0800767 -3.91718 0
M  V30 1117 H 117.364 -0.302709 -3.99856 0
M  V30 1118 H 113.954 -1.73419 -3.91949 0
M  V30 1119 H 118.138 -2.68054 -4.17685 0
M  V30 1120 H 113.394 -4.02946 -4.59831 0
M  V30 1121 H 117.568 -4.97895 -4.86902 0
M  V30 1122 H 115.195 -5.65855 -5.07654 0
M  V30 1123 N 116.77 1.45427 -0.607355 0
M  V30 1124 C 118.018 2.01841 -0.102253 0
M  V30 1125 C 118.339 1.47832 1.27164 0
M  V30 1126 O 117.609 0.672497 1.83995 0
M  V30 1127 H 116.189 0.746188 -0.0348101 0
M  V30 1128 H 118.851 1.78229 -0.7887 0
M  V30 1129 H 117.947 3.12057 -0.0518585 0
M  V30 1130 N 118.248 0.346503 1.53744 0
M  V30 1131 C 119.664 -0.00530975 1.59599 0
M  V30 1132 C 119.864 -1.48465 1.36236 0
M  V30 1133 O 118.92 -2.24376 1.15808 0
M  V30 1134 C 120.233 0.433516 2.97559 0
M  V30 1135 C 121.781 0.386111 3.10609 0
M  V30 1136 C 122.256 0.800451 4.50951 0
M  V30 1137 N 123.747 0.754753 4.5701 0
M  V30 1138 C 124.482 1.04727 5.63755 0
M  V30 1139 N 123.978 1.4081 6.7834 0
M  V30 1140 N 125.771 0.971316 5.53644 0
M  V30 1141 H 117.922 1.31009 1.67184 0
M  V30 1142 H 120.185 0.534242 0.783128 0
M  V30 1143 H 119.891 1.46509 3.19731 0
M  V30 1144 H 119.765 -0.189753 3.76722 0
M  V30 1145 H 122.152 -0.636295 2.88158 0
M  V30 1146 H 122.233 1.04462 2.33498 0
M  V30 1147 H 121.877 1.82088 4.74137 0
M  V30 1148 H 121.807 0.119386 5.26465 0
M  V30 1149 H 124.298 0.488662 3.74727 0
M  V30 1150 H 124.611 1.61607 7.55714 0
M  V30 1151 H 122.956 1.44657 6.79779 0
M  V30 1152 H 126.147 0.688748 4.63005 0
M  V30 1153 H 126.32 1.20263 6.36742 0
M  V30 1154 N 119.726 -1.57421 0.075193 0
M  V30 1155 C 121.142 -1.57099 -0.281444 0
M  V30 1156 C 121.342 -1.08486 -1.69803 0
M  V30 1157 O 120.398 -0.752279 -2.41033 0
M  V30 1158 C 121.711 -3.00571 -0.0880041 0
M  V30 1159 C 123.259 -3.12605 -0.157281 0
M  V30 1160 C 123.734 -4.57999 0.0079207 0
M  V30 1161 N 125.225 -4.63176 -0.0475725 0
M  V30 1162 C 125.96 -5.73373 0.0557876 0
M  V30 1163 N 125.456 -6.92473 0.21286 0
M  V30 1164 N 127.249 -5.621 -0.00152098 0
M  V30 1165 H 119.4 -1.87335 1.00098 0
M  V30 1166 H 121.663 -0.86377 0.390646 0
M  V30 1167 H 121.369 -3.40262 0.889629 0
M  V30 1168 H 121.243 -3.67754 -0.838875 0
M  V30 1169 H 123.63 -2.72798 -1.1254 0
M  V30 1170 H 123.711 -2.48053 0.62475 0
M  V30 1171 H 123.355 -4.98496 0.972824 0
M  V30 1172 H 123.285 -5.20586 -0.793556 0
M  V30 1173 H 125.776 -3.7753 -0.167244 0
M  V30 1174 H 126.089 -7.72279 0.283781 0
M  V30 1175 H 124.434 -6.94556 0.248267 0
M  V30 1176 H 127.625 -4.67938 -0.122958 0
M  V30 1177 H 127.798 -6.47948 0.0824844 0
M  V30 1178 N 121.204 0.198386 -1.56346 0
M  V30 1179 C 122.151 1.24589 -1.94284 0
M  V30 1180 C 123.121 1.454 -0.802997 0
M  V30 1181 O 124.306 1.58588 -1.06087 0
M  V30 1182 C 121.446 2.58631 -2.28482 0
M  V30 1183 C 120.559 2.45426 -3.55514 0
M  V30 1184 C 119.694 3.7215 -3.79049 0
M  V30 1185 C 118.733 3.53763 -4.99518 0
M  V30 1186 N 117.87 4.72491 -5.19323 0
M  V30 1187 H 122.71 0.915356 -2.83593 0
M  V30 1188 H 120.247 0.440629 -1.40346 0
M  V30 1189 H 122.205 3.3672 -2.46324 0
M  V30 1190 H 120.835 2.89734 -1.42317 0
M  V30 1191 H 119.887 1.58652 -3.45737 0
M  V30 1192 H 121.199 2.27772 -4.43758 0
M  V30 1193 H 120.353 4.58679 -3.97113 0
M  V30 1194 H 119.092 3.92754 -2.89129 0
M  V30 1195 H 118.097 2.65619 -4.8138 0
M  V30 1196 H 119.322 3.34607 -5.90944 0
M  V30 1197 H 117.268 4.93365 -4.3235 0
M  V30 1198 H 117.185 4.5765 -6.01741 0
M  V30 1199 H 118.453 5.6038 -5.41843 0
M  V30 1200 N 122.682 1.50554 0.465978 0
M  V30 1201 C 123.959 1.5232 1.22712 0
M  V30 1202 C 124.339 0.270807 2.09356 0
M  V30 1203 O 123.687 -0.745541 2.15995 0
M  V30 1204 C 123.897 2.82175 2.05374 0
M  V30 1205 C 125.245 3.33033 2.6339 0
M  V30 1206 O 126.269 2.83531 2.15612 0
M  V30 1207 O 125.128 4.19336 3.50456 0
M  V30 1208 H 122.222 0.611183 0.557122 0
M  V30 1209 H 124.768 1.62847 0.477381 0
M  V30 1210 H 123.54 3.64797 1.41558 0
M  V30 1211 H 123.163 2.74675 2.87471 0
M  V30 1212 N 124.16 -0.719506 1.40217 0
M  V30 1213 C 125.123 -1.8153 1.39927 0
M  V30 1214 C 126.123 -1.58095 0.293723 0
M  V30 1215 O 127.313 -1.65209 0.552429 0
M  V30 1216 C 124.445 -3.19561 1.18716 0
M  V30 1217 H 125.638 -1.83186 2.37451 0
M  V30 1218 H 123.191 -0.924746 1.26008 0
M  V30 1219 H 123.926 -3.23557 0.219366 0
M  V30 1220 H 123.711 -3.3797 1.98793 0
M  V30 1221 H 125.201 -3.99598 1.21291 0
M  V30 1222 N 125.638 -1.25649 -0.95132 0
M  V30 1223 C 126.886 -1.10375 -1.69298 0
M  V30 1224 C 127.207 0.355339 -1.91735 0
M  V30 1225 O 126.477 1.25188 -1.50681 0
M  V30 1226 H 125.057 -0.405461 -0.627384 0
M  V30 1227 H 127.719 -1.57823 -1.14358 0
M  V30 1228 H 126.815 -1.61465 -2.67087 0
M  V30 1229 N 127.117 1.15442 -1.07289 0
M  V30 1230 C 128.345 1.90096 -0.81676 0
M  V30 1231 C 128.76 1.7798 0.629966 0
M  V30 1232 O 128.117 1.1313 1.43206 0
M  V30 1233 C 128.168 3.40466 -1.21512 0
M  V30 1234 O 127.889 3.52232 -2.60508 0
M  V30 1235 C 129.39 4.32145 -0.988198 0
M  V30 1236 H 126.61 0.602495 -0.295366 0
M  V30 1237 H 129.154 1.4627 -1.42918 0
M  V30 1238 H 127.309 3.81958 -0.647039 0
M  V30 1239 H 127.723 4.45549 -2.76742 0
M  V30 1240 H 129.197 5.36072 -1.31645 0
M  V30 1241 H 129.674 4.39135 0.0755063 0
M  V30 1242 H 130.28 3.96395 -1.54115 0
M  V30 1243 N 128.595 0.856903 1.32268 0
M  V30 1244 C 129.835 0.467705 1.98977 0
M  V30 1245 C 130.199 -0.959231 1.66321 0
M  V30 1246 O 131.4 -1.4531 2.26138 0
M  V30 1247 C 129.671 0.70256 3.50427 0
M  V30 1248 S 131.23 0.411269 4.36868 0
M  V30 1249 H 128.048 0.175121 0.689096 0
M  V30 1250 H 130.65 1.1101 1.60925 0
M  V30 1251 H 129.354 1.74012 3.71683 0
M  V30 1252 H 128.885 0.0466707 3.93372 0
M  V30 1253 H 130.9 -0.761799 4.90317 0
M  V30 1254 N 130.073 -1.45103 0.615059 0
M  V30 1255 C 131.313 -2.04069 0.116282 0
M  V30 1256 C 131.677 -1.4721 -1.2326 0
M  V30 1257 O 132.878 -1.97577 -1.82255 0
M  V30 1258 C 131.149 -3.57298 0.085482 0
M  V30 1259 S 132.708 -4.37394 -0.351015 0
M  V30 1260 H 129.526 -0.709006 0.0532183 0
M  V30 1261 H 132.128 -1.77709 0.81484 0
M  V30 1262 H 130.832 -3.9619 1.0706 0
M  V30 1263 H 130.363 -3.88244 -0.634835 0
M  V30 1264 H 132.378 -4.69734 -1.59889 0
M  V30 1265 N 131.551 -0.354651 -1.53558 0
M  V30 1266 C 132.514 0.484566 -2.24019 0
M  V30 1267 C 133.514 1.01861 -1.24422 0
M  V30 1268 O 134.704 0.906097 -1.4878 0
M  V30 1269 C 131.836 1.67615 -2.96847 0
M  V30 1270 H 133.029 -0.131843 -2.9961 0
M  V30 1271 H 130.582 -0.106165 -1.55939 0
M  V30 1272 H 131.317 2.33095 -2.25471 0
M  V30 1273 H 131.102 1.30029 -3.69912 0
M  V30 1274 H 132.592 2.27114 -3.50441 0
M  V30 1275 N 133.029 1.57378 -0.0835403 0
M  V30 1276 C 134.277 1.93547 0.581718 0
M  V30 1277 C 134.598 0.96524 1.69435 0
M  V30 1278 O 133.868 0.0153369 1.95894 0
M  V30 1279 H 132.448 0.714521 0.217874 0
M  V30 1280 H 135.11 1.94366 -0.144158 0
M  V30 1281 H 134.206 2.95665 0.999423 0
M  V30 1282 N 134.507 -0.190092 1.56449 0
M  V30 1283 C 135.47 -1.21925 1.9408 0
M  V30 1284 C 136.47 -1.38176 0.822431 0
M  V30 1285 O 137.66 -1.35903 1.08977 0
M  V30 1286 C 134.792 -2.58773 2.21922 0
M  V30 1287 H 135.985 -0.897464 2.86157 0
M  V30 1288 H 133.538 -0.43181 1.50217 0
M  V30 1289 H 134.273 -2.95998 1.32499 0
M  V30 1290 H 134.058 -2.48348 3.03424 0
M  V30 1291 H 135.548 -3.32978 2.52022 0
M  V30 1292 N 135.985 -1.50799 -0.457987 0
M  V30 1293 C 137.233 -1.62121 -1.2067 0
M  V30 1294 C 137.554 -0.329793 -1.92191 0
M  V30 1295 O 136.824 0.653409 -1.84682 0
M  V30 1296 H 135.404 -0.597441 -0.448411 0
M  V30 1297 H 138.066 -1.87637 -0.527096 0
M  V30 1298 H 137.162 -2.43882 -1.94751 0
M  V30 1299 N 137.463 0.71206 -1.40597 0
M  V30 1300 C 138.711 1.46907 -1.38791 0
M  V30 1301 C 139.032 1.94998 0.00780391 0
M  V30 1302 O 138.302 1.70587 0.963174 0
M  V30 1303 H 136.882 0.545043 -0.51082 0
M  V30 1304 H 139.544 0.843882 -1.75683 0
M  V30 1305 H 138.64 2.34021 -2.06496 0
M  V30 1306 N 138.941 1.26152 0.944643 0
M  V30 1307 C 140.189 1.11271 1.6871 0
M  V30 1308 C 140.51 -0.345166 1.91921 0
M  V30 1309 O 139.78 -1.24387 1.51343 0
M  V30 1310 H 138.36 0.408783 0.625224 0
M  V30 1311 H 141.022 1.58427 1.1352 0
M  V30 1312 H 140.118 1.62879 2.66227 0
M  V30 1313 N 140.419 -1.14872 1.07899 0
M  V30 1314 C 141.835 -1.37776 0.805606 0
M  V30 1315 C 142.035 -1.92743 -0.587555 0
M  V30 1316 O 141.091 -2.13678 -1.34528 0
M  V30 1317 C 142.404 -2.34361 1.88402 0
M  V30 1318 C 143.952 -2.48012 1.90942 0
M  V30 1319 C 144.427 -3.47893 2.97883 0
M  V30 1320 N 145.918 -3.55433 2.97021 0
M  V30 1321 C 146.653 -4.32553 3.76412 0
M  V30 1322 N 146.149 -5.12959 4.65666 0
M  V30 1323 N 147.942 -4.27697 3.64735 0
M  V30 1324 H 140.093 -0.775365 1.97742 0
M  V30 1325 H 142.356 -0.403521 0.857831 0
M  V30 1326 H 142.062 -2.01098 2.88535 0
M  V30 1327 H 141.936 -3.34206 1.74889 0
M  V30 1328 H 144.323 -2.8057 0.914579 0
M  V30 1329 H 144.404 -1.48147 2.08534 0
M  V30 1330 H 144.048 -3.16069 3.97571 0
M  V30 1331 H 143.978 -4.47527 2.77538 0
M  V30 1332 H 146.469 -2.98048 2.32326 0
M  V30 1333 H 146.782 -5.69065 5.22862 0
M  V30 1334 H 145.127 -5.12245 4.69712 0
M  V30 1335 H 148.318 -3.63949 2.94378 0
M  V30 1336 H 148.491 -4.8755 4.26848 0
M  V30 1337 N 141.898 -0.863906 -1.31812 0
M  V30 1338 C 143.146 -0.470904 -1.96537 0
M  V30 1339 C 143.467 0.978771 -1.68657 0
M  V30 1340 O 142.737 1.6853 -0.998717 0
M  V30 1341 H 141.317 -0.171148 -0.72713 0
M  V30 1342 H 143.979 -1.10236 -1.60729 0
M  V30 1343 H 143.075 -0.623616 -3.05806 0
M  V30 1344 N 143.376 1.44774 -0.622745 0
M  V30 1345 C 144.624 2.01721 -0.123655 0
M  V30 1346 C 144.945 1.49172 1.25589 0
M  V30 1347 O 144.215 0.691974 1.83272 0
M  V30 1348 H 142.795 0.745777 -0.0427225 0
M  V30 1349 H 145.457 1.77382 -0.807559 0
M  V30 1350 H 144.553 3.11984 -0.0849534 0
M  V30 1351 N 144.854 0.36279 1.53368 0
M  V30 1352 C 146.102 -0.227326 2.00817 0
M  V30 1353 C 146.423 -1.49511 1.25186 0
M  V30 1354 O 145.693 -1.92482 0.364348 0
M  V30 1355 H 144.273 -0.0869923 0.741917 0
M  V30 1356 H 146.935 0.488381 1.88682 0
M  V30 1357 H 146.031 -0.456273 3.08747 0
M  V30 1358 N 146.332 -1.57332 0.0918853 0
M  V30 1359 C 147.295 -2.12708 -0.85369 0
M  V30 1360 C 148.295 -1.05561 -1.213 0
M  V30 1361 O 149.485 -1.31461 -1.14296 0
M  V30 1362 C 146.617 -2.64503 -2.15061 0
M  V30 1363 H 147.81 -2.97573 -0.3729 0
M  V30 1364 H 145.363 -1.55509 -0.157072 0
M  V30 1365 H 146.098 -1.83149 -2.67632 0
M  V30 1366 H 145.883 -3.4284 -1.90272 0
M  V30 1367 H 147.373 -3.07351 -2.82711 0
M  V30 1368 N 147.81 0.181792 -1.56548 0
M  V30 1369 C 149.058 0.89832 -1.81038 0
M  V30 1370 C 149.379 1.83232 -0.667164 0
M  V30 1371 O 148.649 1.93372 0.313673 0
M  V30 1372 H 147.229 0.33471 -0.667816 0
M  V30 1373 H 149.891 0.184116 -1.94028 0
M  V30 1374 H 148.987 1.4815 -2.74696 0
M  V30 1375 N 149.288 1.51039 0.449983 0
M  V30 1376 C 150.536 1.62759 1.19808 0
M  V30 1377 C 150.857 0.339981 1.92013 0
M  V30 1378 O 150.127 -0.643606 1.85026 0
M  V30 1379 H 148.707 0.599811 0.445237 0
M  V30 1380 H 151.369 1.87914 0.517138 0
M  V30 1381 H 150.465 2.44911 1.93455 0
M  V30 1382 N 150.766 -0.704594 1.40972 0
M  V30 1383 C 151.676 -1.84856 1.44448 0
M  V30 1384 C 152.692 -1.70726 0.335961 0
M  V30 1385 O 153.868 -1.92799 0.582276 0
M  V30 1386 C 150.933 -3.20758 1.31587 0
M  V30 1387 C 149.994 -3.47063 2.52677 0
M  V30 1388 C 149.227 -4.76481 2.4042 0
M  V30 1389 O 149.45 -5.52341 1.42391 0
M  V30 1390 O 148.384 -5.03367 3.30007 0
M  V30 1391 H 152.21 -1.8488 2.40942 0
M  V30 1392 H 149.795 -0.85647 1.22413 0
M  V30 1393 H 151.677 -4.01913 1.26665 0
M  V30 1394 H 150.352 -3.21438 0.382049 0
M  V30 1395 H 149.259 -2.65873 2.63177 0
M  V30 1396 H 150.592 -3.5119 3.44858 0
M  V30 1397 N 152.244 -1.26651 -0.937939 0
M  V30 1398 C 153.492 -1.12165 -1.68118 0
M  V30 1399 C 153.813 0.334983 -1.92101 0
M  V30 1400 O 153.083 1.23583 -1.52 0
M  V30 1401 H 151.663 -0.412093 -0.623048 0
M  V30 1402 H 154.325 -1.59027 -1.12678 0
M  V30 1403 H 153.421 -1.64289 -2.6536 0
M  V30 1404 N 153.722 1.14298 -1.08507 0
M  V30 1405 C 154.97 1.84993 -0.813763 0
M  V30 1406 C 155.291 1.83405 0.662393 0
M  V30 1407 O 154.561 1.28319 1.48024 0
M  V30 1408 H 153.141 0.684966 -0.298045 0
M  V30 1409 H 155.803 1.385 -1.37126 0
M  V30 1410 H 154.899 2.89788 -1.15884 0
M  V30 1411 N 155.201 0.870884 1.31352 0
M  V30 1412 C 156.164 0.332243 2.26779 0
M  V30 1413 C 157.164 -0.517302 1.52252 0
M  V30 1414 O 158.354 -0.326477 1.71113 0
M  V30 1415 C 155.486 -0.528066 3.36785 0
M  V30 1416 H 156.679 1.17469 2.75937 0
M  V30 1417 H 154.232 0.64655 1.423 0
M  V30 1418 H 154.967 -1.39167 2.92922 0
M  V30 1419 H 154.752 0.0802582 3.92018 0
M  V30 1420 H 156.242 -0.897179 4.07849 0
M  V30 1421 N 156.679 -1.44442 0.630414 0
M  V30 1422 C 157.904 -2.06927 0.139944 0
M  V30 1423 C 158.329 -1.46795 -1.17613 0
M  V30 1424 O 157.687 -0.569144 -1.72135 0
M  V30 1425 C 157.735 -3.6058 0.0379581 0
M  V30 1426 O 156.839 -3.99937 -1.0062 0
M  V30 1427 H 156.18 -0.658608 0.0844483 0
M  V30 1428 H 158.71 -1.85327 0.866891 0
M  V30 1429 H 158.72 -4.07714 -0.152856 0
M  V30 1430 H 157.395 -4.03728 0.998809 0
M  V30 1431 H 155.972 -3.64436 -0.79001 0
M  V30 1432 N 158.157 -0.370918 -1.53173 0
M  V30 1433 C 159.405 0.216673 -2.00935 0
M  V30 1434 C 159.726 1.48845 -1.25977 0
M  V30 1435 O 158.996 1.92286 -0.374551 0
M  V30 1436 H 157.576 0.0830565 -0.742368 0
M  V30 1437 H 160.238 -0.49838 -1.8842 0
M  V30 1438 H 159.334 0.439893 -3.08984 0
M  V30 1439 N 159.635 1.57281 -0.100228 0
M  V30 1440 C 160.598 2.13158 0.842398 0
M  V30 1441 C 161.598 1.06202 1.20738 0
M  V30 1442 O 162.788 1.32066 1.13597 0
M  V30 1443 C 159.92 2.65639 2.13655 0
M  V30 1444 H 161.113 2.97766 0.357114 0
M  V30 1445 H 158.666 1.5559 0.148823 0
M  V30 1446 H 159.401 1.84566 2.66657 0
M  V30 1447 H 159.186 3.43844 1.88451 0
M  V30 1448 H 160.676 3.08846 2.81077 0
M  V30 1449 N 161.113 -0.173488 1.56642 0
M  V30 1450 C 162.023 -1.23482 1.99473 0
M  V30 1451 C 163.039 -1.48567 0.905752 0
M  V30 1452 O 164.215 -1.60758 1.21321 0
M  V30 1453 C 161.28 -2.55444 2.34413 0
M  V30 1454 C 160.341 -2.38241 3.57127 0
M  V30 1455 C 159.574 -3.63909 3.90392 0
M  V30 1456 O 159.797 -4.68996 3.24653 0
M  V30 1457 O 158.731 -3.58149 4.83749 0
M  V30 1458 H 162.557 -0.901279 2.90018 0
M  V30 1459 H 160.142 -0.380185 1.44482 0
M  V30 1460 H 162.024 -3.33292 2.57865 0
M  V30 1461 H 160.699 -2.88382 1.4703 0
M  V30 1462 H 159.606 -1.58431 3.38896 0
M  V30 1463 H 160.939 -2.10228 4.45045 0
M  V30 1464 N 162.591 -1.51276 -0.441967 0
M  V30 1465 C 163.839 -1.63392 -1.18943 0
M  V30 1466 C 164.16 -0.350159 -1.9183 0
M  V30 1467 O 163.43 0.633784 -1.85364 0
M  V30 1468 H 162.01 -0.602164 -0.442049 0
M  V30 1469 H 164.672 -1.88186 -0.507165 0
M  V30 1470 H 163.768 -2.45934 -1.92154 0
M  V30 1471 N 164.069 0.697108 -1.41344 0
M  V30 1472 C 165.317 1.45426 -1.40341 0
M  V30 1473 C 165.638 1.94996 -0.0128787 0
M  V30 1474 O 164.908 1.71599 0.945027 0
M  V30 1475 H 163.488 0.539594 -0.516573 0
M  V30 1476 H 166.15 0.825201 -1.76569 0
M  V30 1477 H 165.246 2.31817 -2.08967 0
M  V30 1478 N 165.547 1.27147 0.931209 0
M  V30 1479 C 166.795 1.13055 1.6752 0
M  V30 1480 C 167.116 -0.324791 1.92276 0
M  V30 1481 O 166.386 -1.22775 1.52654 0
M  V30 1482 H 164.966 0.415391 0.620854 0
M  V30 1483 H 167.628 1.59623 1.11833 0
M  V30 1484 H 166.724 1.65694 2.64485 0
M  V30 1485 N 167.025 -1.13721 1.09112 0
M  V30 1486 C 168.273 -1.84559 0.823562 0
M  V30 1487 C 168.594 -1.83754 -0.652658 0
M  V30 1488 O 167.864 -1.29102 -1.47342 0
M  V30 1489 H 166.444 -0.683376 0.301673 0
M  V30 1490 H 169.106 -1.37771 1.37859 0
M  V30 1491 H 168.202 -2.8917 1.17419 0
M  V30 1492 N 168.503 -0.877838 -1.30888 0
M  V30 1493 C 169.466 -0.344265 -2.266 0
M  V30 1494 C 170.466 0.50922 -1.52524 0
M  V30 1495 O 171.656 0.317398 -1.71284 0
M  V30 1496 C 168.788 0.510198 -3.37061 0
M  V30 1497 H 169.981 -1.1893 -2.7531 0
M  V30 1498 H 167.534 -0.654088 -1.41956 0
M  V30 1499 H 168.269 1.37612 -2.93655 0
M  V30 1500 H 168.054 -0.101047 -3.9197 0
M  V30 1501 H 169.544 0.875537 -4.08319 0
M  V30 1502 N 169.982 1.44106 -0.638065 0
M  V30 1503 C 171.23 2.01579 -0.145043 0
M  V30 1504 C 171.551 1.50496 1.24 0
M  V30 1505 O 170.821 0.711374 1.82527 0
M  V30 1506 H 169.401 0.745282 -0.05063 0
M  V30 1507 H 172.063 1.76516 -0.826327 0
M  V30 1508 H 171.159 3.11877 -0.118039 0
M  V30 1509 N 171.46 0.379036 1.52974 0
M  V30 1510 C 172.708 -0.206014 2.01047 0
M  V30 1511 C 173.029 -1.48175 1.26765 0
M  V30 1512 O 172.299 -1.92085 0.384743 0
M  V30 1513 H 170.879 -0.0791184 0.742798 0
M  V30 1514 H 173.541 0.508366 1.88153 0
M  V30 1515 H 172.637 -0.423501 3.09213 0
M  V30 1516 N 172.938 -1.57226 0.108567 0
M  V30 1517 C 174.163 -1.99604 -0.563303 0
M  V30 1518 C 174.588 -0.987563 -1.6009 0
M  V30 1519 O 173.946 0.0421687 -1.81251 0
M  V30 1520 C 173.994 -3.40902 -1.17552 0
M  V30 1521 O 173.098 -3.42896 -2.2912 0
M  V30 1522 H 172.439 -0.648704 -0.1417 0
M  V30 1523 H 174.969 -2.03679 0.193961 0
M  V30 1524 H 174.979 -3.78886 -1.51357 0
M  V30 1525 H 173.654 -4.1382 -0.415445 0
M  V30 1526 H 172.231 -3.1672 -1.96832 0
M  V30 1527 N 174.416 0.165178 -1.56732 0
M  V30 1528 C 175.326 1.22423 -2.00125 0
M  V30 1529 C 176.342 1.48084 -0.913619 0
M  V30 1530 O 177.518 1.60112 -1.22172 0
M  V30 1531 C 174.583 2.54197 -2.35764 0
M  V30 1532 C 173.644 2.36343 -3.58386 0
M  V30 1533 C 172.877 3.61834 -3.92316 0
M  V30 1534 O 173.1 4.67267 -3.27135 0
M  V30 1535 O 172.034 3.55579 -4.85641 0
M  V30 1536 H 175.86 0.885886 -2.90492 0
M  V30 1537 H 173.445 0.372518 -1.44681 0
M  V30 1538 H 175.327 3.3192 -2.59629 0
M  V30 1539 H 174.002 2.87598 -1.48557 0
M  V30 1540 H 172.909 1.56632 -3.39731 0
M  V30 1541 H 174.242 2.07865 -4.46154 0
M  V30 1542 N 175.894 1.51508 0.433938 0
M  V30 1543 C 176.826 1.69266 1.54537 0
M  V30 1544 C 177.839 0.573276 1.52373 0
M  V30 1545 O 179.028 0.847698 1.57087 0
M  V30 1546 C 176.128 1.69524 2.93453 0
M  V30 1547 C 175.301 2.98101 3.20085 0
M  V30 1548 C 174.36 2.90502 4.38742 0
M  V30 1549 O 173.386 3.64442 4.3723 0
M  V30 1550 N 174.588 2.06586 5.42496 0
M  V30 1551 H 177.353 2.65145 1.39708 0
M  V30 1552 H 174.914 1.49437 0.622922 0
M  V30 1553 H 176.906 1.62004 3.70859 0
M  V30 1554 H 175.476 0.812245 3.01863 0
M  V30 1555 H 174.696 3.19464 2.30947 0
M  V30 1556 H 175.984 3.83207 3.34708 0
M  V30 1557 H 175.382 1.45896 5.46563 0
M  V30 1558 H 173.939 2.04943 6.18742 0
M  V30 1559 N 177.372 -0.689602 1.41712 0
M  V30 1560 C 178.302 -1.81577 1.46806 0
M  V30 1561 C 179.283 -1.66945 0.326105 0
M  V30 1562 O 180.468 -1.86588 0.538377 0
M  V30 1563 C 177.598 -3.19762 1.35535 0
M  V30 1564 C 176.552 -3.49107 2.47605 0
M  V30 1565 C 175.878 -4.86711 2.21397 0
M  V30 1566 C 177.178 -3.47483 3.89939 0
M  V30 1567 H 178.872 -1.7757 2.41058 0
M  V30 1568 H 176.418 -0.852887 1.16025 0
M  V30 1569 H 178.371 -3.98263 1.3771 0
M  V30 1570 H 177.095 -3.24409 0.377708 0
M  V30 1571 H 175.754 -2.72959 2.44722 0
M  V30 1572 H 175.402 -4.8799 1.21961 0
M  V30 1573 H 175.102 -5.0731 2.96497 0
M  V30 1574 H 176.626 -5.67515 2.25297 0
M  V30 1575 H 178.04 -4.1598 3.94505 0
M  V30 1576 H 176.437 -3.79615 4.64771 0
M  V30 1577 H 177.507 -2.46341 4.17665 0
M  V30 1578 N 178.85 -1.27639 -0.924453 0
M  V30 1579 C 179.78 -1.13166 -2.04244 0
M  V30 1580 C 180.761 -0.032256 -1.70069 0
M  V30 1581 O 181.946 -0.207328 -1.9309 0
M  V30 1582 C 179.076 -0.781496 -3.38393 0
M  V30 1583 C 178.03 -1.83449 -3.86692 0
M  V30 1584 C 177.356 -1.33822 -5.17683 0
M  V30 1585 C 178.656 -3.23917 -4.09726 0
M  V30 1586 H 180.35 -2.06689 -2.1661 0
M  V30 1587 H 177.896 -0.995136 -1.04082 0
M  V30 1588 H 179.849 -0.667057 -4.16087 0
M  V30 1589 H 178.573 0.189439 -3.2605 0
M  V30 1590 H 177.232 -1.93789 -3.11193 0
M  V30 1591 H 176.88 -0.35665 -5.01734 0
M  V30 1592 H 176.58 -2.04224 -5.50968 0
M  V30 1593 H 178.104 -1.23679 -5.97943 0
M  V30 1594 H 179.518 -3.16559 -4.77978 0
M  V30 1595 H 177.915 -3.92059 -4.54324 0
M  V30 1596 H 178.985 -3.68729 -3.14908 0
M  V30 1597 N 180.328 1.1314 -1.09713 0
M  V30 1598 C 181.576 1.84119 -0.833338 0
M  V30 1599 C 181.897 1.84097 0.642904 0
M  V30 1600 O 181.167 1.29881 1.46655 0
M  V30 1601 H 179.747 0.681766 -0.305293 0
M  V30 1602 H 182.409 1.37038 -1.38588 0
M  V30 1603 H 181.505 2.88543 -1.18951 0
M  V30 1604 N 181.806 0.884767 1.30421 0
M  V30 1605 C 183.031 0.517288 2.00845 0
M  V30 1606 C 183.456 -0.886779 1.65885 0
M  V30 1607 O 182.814 -1.58768 0.875354 0
M  V30 1608 C 182.862 0.698994 3.5376 0
M  V30 1609 O 181.966 -0.255208 4.1161 0
M  V30 1610 H 181.307 0.203872 0.631927 0
M  V30 1611 H 183.837 1.19225 1.66272 0
M  V30 1612 H 183.847 0.597912 4.03595 0
M  V30 1613 H 182.522 1.72271 3.78544 0
M  V30 1614 H 181.099 -0.10784 3.72744 0
M  V30 1615 N 183.284 -1.43765 0.645699 0
M  V30 1616 C 184.532 -2.01499 0.155731 0
M  V30 1617 C 184.853 -1.51151 -1.232 0
M  V30 1618 O 184.123 -0.721044 -1.82148 0
M  V30 1619 H 182.703 -0.745003 0.0545817 0
M  V30 1620 H 185.365 -1.76075 0.835677 0
M  V30 1621 H 184.461 -3.1181 0.134577 0
M  V30 1622 N 184.763 -0.387143 -1.52771 0
M  V30 1623 C 185.988 0.198407 -2.06449 0
M  V30 1624 C 186.413 1.39918 -1.25716 0
M  V30 1625 O 185.771 1.79099 -0.281657 0
M  V30 1626 C 185.819 0.548893 -3.56398 0
M  V30 1627 O 184.923 1.64315 -3.78252 0
M  V30 1628 H 184.264 0.0237731 -0.663574 0
M  V30 1629 H 186.794 -0.553989 -1.96957 0
M  V30 1630 H 186.804 0.813812 -3.99801 0
M  V30 1631 H 185.479 -0.329005 -4.14597 0
M  V30 1632 H 184.056 1.37211 -3.46738 0
M  V30 1633 N 186.241 1.57166 -0.116904 0
M  V30 1634 C 187.657 1.5779 0.239693 0
M  V30 1635 C 187.857 1.1295 1.66867 0
M  V30 1636 O 186.913 0.81592 2.38954 0
M  V30 1637 C 188.226 3.00699 0.00828202 0
M  V30 1638 C 189.774 3.12912 0.0743438 0
M  V30 1639 C 190.249 4.57817 -0.129348 0
M  V30 1640 N 191.74 4.63139 -0.075247 0
M  V30 1641 C 192.475 5.73023 -0.207788 0
M  V30 1642 N 191.971 6.91665 -0.396382 0
M  V30 1643 N 193.764 5.61906 -0.14751 0
M  V30 1644 H 185.915 1.84615 -1.05029 0
M  V30 1645 H 188.178 0.85311 -0.41341 0
M  V30 1646 H 187.884 3.37784 -0.979531 0
M  V30 1647 H 187.758 3.69848 0.741077 0
M  V30 1648 H 190.145 2.75686 1.05268 0
M  V30 1649 H 190.226 2.4631 -0.690297 0
M  V30 1650 H 189.87 4.95742 -1.10465 0
M  V30 1651 H 189.8 5.22507 0.655253 0
M  V30 1652 H 192.291 3.7784 0.0670898 0
M  V30 1653 H 192.604 7.71255 -0.488437 0
M  V30 1654 H 190.949 6.93654 -0.432329 0
M  V30 1655 H 194.14 4.681 -0.00115036 0
M  V30 1656 H 194.313 6.47501 -0.254247 0
M  V30 1657 N 187.719 -0.156864 1.56817 0
M  V30 1658 C 188.629 -1.2136 2.00771 0
M  V30 1659 C 189.645 -1.47598 0.921459 0
M  V30 1660 O 190.821 -1.59462 1.2302 0
M  V30 1661 C 187.886 -2.52943 2.37109 0
M  V30 1662 C 186.947 -2.34439 3.59634 0
M  V30 1663 C 186.18 -3.59748 3.94229 0
M  V30 1664 O 186.403 -4.65526 3.29609 0
M  V30 1665 O 185.337 -3.52998 4.8752 0
M  V30 1666 H 189.163 -0.870468 2.90958 0
M  V30 1667 H 186.748 -0.36484 1.44877 0
M  V30 1668 H 188.63 -3.30538 2.61386 0
M  V30 1669 H 187.305 -2.86806 1.5008 0
M  V30 1670 H 186.212 -1.54828 3.40557 0
M  V30 1671 H 187.545 -2.05496 4.4725 0
M  V30 1672 N 189.197 -1.51736 -0.425897 0
M  V30 1673 C 190.608 -1.5732 -1.00536 0
M  V30 1674 C 190.959 -0.403537 -1.92005 0
M  V30 1675 O 190.084 0.478256 -2.11049 0
M  V30 1676 C 190.679 -2.85119 -1.8301 0
M  V30 1677 C 189.238 -2.93236 -2.35987 0
M  V30 1678 C 188.385 -2.52098 -1.15508 0
M  V30 1679 H 191.336 -1.57348 -0.206739 0
M  V30 1680 H 191.357 -2.69526 -2.68581 0
M  V30 1681 H 190.869 -3.7023 -1.16411 0
M  V30 1682 H 188.97 -2.12581 -3.06007 0
M  V30 1683 H 189.083 -3.9713 -2.68001 0
M  V30 1684 H 187.447 -2.05558 -1.50393 0
M  V30 1685 H 188.23 -3.39565 -0.505014 0
M  V30 1686 N 190.675 0.682077 -1.42076 0
M  V30 1687 C 192.091 0.994324 -1.24841 0
M  V30 1688 C 192.291 2.0096 -0.147389 0
M  V30 1689 O 191.347 2.47822 0.483782 0
M  V30 1690 C 192.66 1.50607 -2.60265 0
M  V30 1691 C 194.208 1.62421 -2.6756 0
M  V30 1692 C 194.683 2.16994 -4.03333 0
M  V30 1693 N 196.174 2.24337 -4.0525 0
M  V30 1694 C 196.909 2.67621 -5.07116 0
M  V30 1695 N 196.405 3.1041 -6.19368 0
M  V30 1696 N 198.198 2.67305 -4.94474 0
M  V30 1697 H 190.349 0.00973908 -2.12398 0
M  V30 1698 H 192.612 0.0668593 -0.945639 0
M  V30 1699 H 192.318 0.834583 -3.41654 0
M  V30 1700 H 192.192 2.48602 -2.83684 0
M  V30 1701 H 194.579 2.28678 -1.86521 0
M  V30 1702 H 194.66 0.629352 -2.47937 0
M  V30 1703 H 194.304 1.51349 -4.84826 0
M  V30 1704 H 194.234 3.17258 -4.20304 0
M  V30 1705 H 196.725 1.94158 -3.24209 0
M  V30 1706 H 197.038 3.42103 -6.92954 0
M  V30 1707 H 195.383 3.08286 -6.22884 0
M  V30 1708 H 198.574 2.33233 -4.05857 0
M  V30 1709 H 198.747 3.00718 -5.73997 0
M  V30 1710 N 192.153 1.28127 0.917671 0
M  V30 1711 C 193.085 1.07517 2.02417 0
M  V30 1712 C 194.098 0.0281099 1.62776 0
M  V30 1713 O 195.287 0.270748 1.76435 0
M  V30 1714 C 192.387 0.610957 3.33347 0
M  V30 1715 C 191.56 1.73255 4.01624 0
M  V30 1716 C 190.619 1.26238 5.10833 0
M  V30 1717 O 189.645 1.96389 5.34247 0
M  V30 1718 N 190.847 0.123448 5.80369 0
M  V30 1719 H 193.612 2.02806 2.20658 0
M  V30 1720 H 191.173 1.19827 1.08871 0
M  V30 1721 H 193.165 0.280101 4.0373 0
M  V30 1722 H 191.735 -0.24898 3.11607 0
M  V30 1723 H 190.955 2.23319 3.24842 0
M  V30 1724 H 192.243 2.48503 4.43986 0
M  V30 1725 H 191.641 -0.461847 5.63812 0
M  V30 1726 H 190.198 -0.148158 6.51632 0
M  V30 1727 N 193.631 -1.12557 1.10312 0
M  V30 1728 C 194.579 -2.20325 0.745629 0
M  V30 1729 C 195.573 -1.67429 -0.25763 0
M  V30 1730 O 196.779 -1.79612 -0.118132 0
M  V30 1731 H 193.154 -0.718118 0.223182 0
M  V30 1732 H 195.125 -2.47733 1.66346 0
M  V30 1733 C 193.874 -3.47168 0.192262 0
M  V30 1734 H 193.197 -3.88215 0.955475 0
M  V30 1735 H 194.637 -4.23995 -0.0198274 0
M  V30 1736 C 193.096 -3.19298 -1.07472 0
M  V30 1737 O 193.626 -3.3891 -2.15645 0
M  V30 1738 N 191.832 -2.73113 -0.992847 0
M  V30 1739 H 191.379 -2.57354 -0.112474 0
M  V30 1740 H 191.337 -2.54842 -1.84127 0
M  V30 1741 N 195.109 -0.891671 -1.2995 0
M  V30 1742 C 196.52 -0.563104 -1.78006 0
M  V30 1743 C 196.871 0.920978 -1.73241 0
M  V30 1744 O 195.996 1.71987 -1.31337 0
M  V30 1745 C 196.591 -1.01539 -3.23226 0
M  V30 1746 C 195.15 -0.738124 -3.69092 0
M  V30 1747 C 194.297 -1.19461 -2.50249 0
M  V30 1748 H 197.248 -1.07522 -1.16725 0
M  V30 1749 H 197.269 -0.347217 -3.78912 0
M  V30 1750 H 196.781 -2.09555 -3.26662 0
M  V30 1751 H 194.882 0.329766 -3.71138 0
M  V30 1752 H 194.995 -1.33037 -4.60259 0
M  V30 1753 H 193.359 -0.613787 -2.47194 0
M  V30 1754 H 194.142 -2.28265 -2.56417 0
M  V30 1755 N 196.587 1.43421 -0.653314 0
M  V30 1756 C 197.998 1.85065 -0.246537 0
M  V30 1757 C 198.349 1.54688 1.2069 0
M  V30 1758 O 197.474 0.995896 1.92122 0
M  V30 1759 C 198.069 3.35922 -0.440666 0
M  V30 1760 C 196.628 3.76297 -0.0882064 0
M  V30 1761 C 195.775 2.67147 -0.743484 0
M  V30 1762 H 198.726 1.33572 -0.856979 0
M  V30 1763 H 198.747 3.79204 0.313798 0
M  V30 1764 H 198.259 3.58 -1.49858 0
M  V30 1765 H 196.36 3.5983 0.96711 0
M  V30 1766 H 196.473 4.76338 -0.513738 0
M  V30 1767 H 194.837 2.54086 -0.176712 0
M  V30 1768 H 195.62 2.92053 -1.80443 0
M  V30 1769 N 198.065 0.39524 1.52563 0
M  V30 1770 C 199.305 -0.184744 2.03563 0
M  V30 1771 C 199.669 -1.43548 1.27507 0
M  V30 1772 O 200.87 -2.093 1.68662 0
M  V30 1773 C 199.141 -0.440294 3.54678 0
M  V30 1774 S 200.7 -0.989712 4.27493 0
M  V30 1775 H 197.518 -0.0515075 0.709132 0
M  V30 1776 H 200.12 0.544957 1.87751 0
M  V30 1777 H 198.824 0.477005 4.07618 0
M  V30 1778 H 198.355 -1.19825 3.74707 0
M  V30 1779 H 200.37 -2.27155 4.41152 0
M  V30 1780 N 199.544 -1.57102 0.125237 0
M  V30 1781 C 200.507 -2.14471 -0.80838 0
M  V30 1782 C 201.507 -1.0811 -1.19033 0
M  V30 1783 O 202.697 -1.33856 -1.11482 0
M  V30 1784 C 199.829 -2.69005 -2.09402 0
M  V30 1785 H 201.022 -2.98297 -0.309696 0
M  V30 1786 H 198.575 -1.55807 -0.124051 0
M  V30 1787 H 199.31 -1.88785 -2.63687 0
M  V30 1788 H 199.095 -3.46799 -1.82957 0
M  V30 1789 H 200.585 -3.13278 -2.76128 0
M  V30 1790 N 201.022 0.148545 -1.56898 0
M  V30 1791 C 202.433 0.708766 -1.72723 0
M  V30 1792 C 202.784 1.81734 -0.739395 0
M  V30 1793 O 201.909 2.16194 0.0943169 0
M  V30 1794 C 202.504 1.29245 -3.13179 0
M  V30 1795 C 201.063 1.79925 -3.30611 0
M  V30 1796 C 200.21 0.687111 -2.68652 0
M  V30 1797 H 203.161 -0.0771063 -1.58513 0
M  V30 1798 H 203.182 2.16224 -3.13093 0
M  V30 1799 H 202.694 0.485382 -3.85053 0
M  V30 1800 H 200.795 2.63203 -2.63732 0
M  V30 1801 H 200.908 1.92903 -4.38549 0
M  V30 1802 H 199.272 1.11335 -2.29078 0
M  V30 1803 H 200.055 -0.108483 -3.43129 0
M  V30 1804 N 202.5 1.5196 0.417844 0
M  V30 1805 C 203.748 1.65263 1.16329 0
M  V30 1806 C 204.069 0.380634 1.91249 0
M  V30 1807 O 203.339 -0.604214 1.86349 0
M  V30 1808 H 201.919 0.60912 0.432414 0
M  V30 1809 H 204.581 1.88969 0.477162 0
M  V30 1810 H 203.677 2.4896 1.88217 0
M  V30 1811 N 203.978 -0.674533 1.42435 0
M  V30 1812 C 204.941 -1.76986 1.45632 0
M  V30 1813 C 205.941 -1.5708 0.343871 0
M  V30 1814 O 207.131 -1.63367 0.604709 0
M  V30 1815 C 204.263 -3.15623 1.28822 0
M  V30 1816 H 205.456 -1.75539 2.43158 0
M  V30 1817 H 203.009 -0.884189 1.28887 0
M  V30 1818 H 203.744 -3.22696 0.322193 0
M  V30 1819 H 203.529 -3.31475 2.09444 0
M  V30 1820 H 205.019 -3.95537 1.33942 0
M  V30 1821 N 205.456 -1.28612 -0.910864 0
M  V30 1822 C 206.704 -1.15705 -1.65701 0
M  V30 1823 C 207.025 0.29416 -1.92769 0
M  V30 1824 O 206.295 1.20331 -1.54588 0
M  V30 1825 H 204.875 -0.425216 -0.614167 0
M  V30 1826 H 207.537 -1.61381 -1.0928 0
M  V30 1827 H 206.633 -1.6988 -2.61815 0
M  V30 1828 N 206.934 1.1197 -1.10907 0
M  V30 1829 C 208.182 1.83225 -0.852819 0
M  V30 1830 C 208.503 1.84769 0.623341 0
M  V30 1831 O 207.773 1.3143 1.45269 0
M  V30 1832 H 206.353 0.67849 -0.312507 0
M  V30 1833 H 209.015 1.3556 -1.40033 0
M  V30 1834 H 208.111 2.87265 -1.22005 0
M  V30 1835 N 208.412 0.89855 1.29475 0
M  V30 1836 C 209.823 0.572537 1.77705 0
M  V30 1837 C 210.174 -0.911778 1.73727 0
M  V30 1838 O 209.299 -1.71288 1.32247 0
M  V30 1839 C 209.894 1.03252 3.22683 0
M  V30 1840 C 208.453 0.757687 3.68695 0
M  V30 1841 C 207.6 1.20787 2.49612 0
M  V30 1842 H 210.551 1.08139 1.16153 0
M  V30 1843 H 210.572 0.367307 3.78723 0
M  V30 1844 H 210.084 2.11285 3.25546 0
M  V30 1845 H 208.185 -0.310079 3.71308 0
M  V30 1846 H 208.298 1.35476 4.59547 0
M  V30 1847 H 206.662 0.626888 2.46865 0
M  V30 1848 H 207.445 2.29622 2.55203 0
M  V30 1849 N 209.89 -1.43072 0.660911 0
M  V30 1850 C 210.82 -2.33497 -0.0122829 0
M  V30 1851 C 211.801 -1.49903 -0.803925 0
M  V30 1852 O 212.986 -1.78546 -0.763864 0
M  V30 1853 C 210.116 -3.33363 -0.973994 0
M  V30 1854 C 209.07 -4.27003 -0.291928 0
M  V30 1855 C 208.396 -5.16967 -1.36562 0
M  V30 1856 C 209.696 -5.15816 0.820462 0
M  V30 1857 H 211.39 -2.90038 0.742873 0
M  V30 1858 H 208.936 -1.39461 0.358688 0
M  V30 1859 H 210.889 -3.95524 -1.45392 0
M  V30 1860 H 209.613 -2.75095 -1.7604 0
M  V30 1861 H 208.272 -3.66217 0.167623 0
M  V30 1862 H 207.92 -4.55034 -2.14366 0
M  V30 1863 H 207.62 -5.80441 -0.914454 0
M  V30 1864 H 209.144 -5.82003 -1.84675 0
M  V30 1865 H 210.558 -5.71742 0.422366 0
M  V30 1866 H 208.955 -5.8805 1.19656 0
M  V30 1867 H 210.025 -4.55045 1.67518 0
M  V30 1868 N 211.368 -0.403325 -1.52352 0
M  V30 1869 C 212.779 0.0675782 -1.86578 0
M  V30 1870 C 213.13 1.44941 -1.32236 0
M  V30 1871 O 212.255 2.06112 -0.659307 0
M  V30 1872 C 212.85 0.129404 -3.38553 0
M  V30 1873 C 211.409 0.544629 -3.72439 0
M  V30 1874 C 210.556 -0.284551 -2.75836 0
M  V30 1875 H 213.507 -0.620631 -1.46061 0
M  V30 1876 H 213.528 0.94581 -3.68558 0
M  V30 1877 H 213.04 -0.87645 -3.78074 0
M  V30 1878 H 211.141 1.55734 -3.38493 0
M  V30 1879 H 211.254 0.293046 -4.78203 0
M  V30 1880 H 209.618 0.252258 -2.53448 0
M  V30 1881 H 210.401 -1.28865 -3.18196 0
M  V30 1882 N 212.846 1.57033 -0.133567 0
M  V30 1883 C 213.809 2.14897 0.796995 0
M  V30 1884 C 214.809 1.0874 1.18458 0
M  V30 1885 O 215.999 1.34446 1.1077 0
M  V30 1886 C 213.131 2.70112 2.07973 0
M  V30 1887 H 214.324 2.98457 0.293873 0
M  V30 1888 H 211.877 1.55871 0.115787 0
M  V30 1889 H 212.612 1.9018 2.62682 0
M  V30 1890 H 212.397 3.47764 1.81115 0
M  V30 1891 H 213.887 3.14738 2.74462 0
M  V30 1892 N 214.325 -0.140222 1.56975 0
M  V30 1893 C 215.288 -1.15689 1.97861 0
M  V30 1894 C 216.288 -1.3549 0.865974 0
M  V30 1895 O 217.478 -1.32367 1.13246 0
M  V30 1896 C 214.61 -2.51582 2.30042 0
M  V30 1897 H 215.803 -0.805971 2.88867 0
M  V30 1898 H 213.356 -0.383801 1.51515 0
M  V30 1899 H 214.091 -2.91632 1.41849 0
M  V30 1900 H 213.876 -2.38569 3.11171 0
M  V30 1901 H 215.366 -3.24792 2.62488 0
M  V30 1902 N 215.803 -1.52179 -0.40978 0
M  V30 1903 C 217.051 -1.65878 -1.15451 0
M  V30 1904 C 217.372 -0.390771 -1.91044 0
M  V30 1905 O 216.642 0.594323 -1.86667 0
M  V30 1906 H 215.222 -0.611405 -0.429177 0
M  V30 1907 H 217.884 -1.89219 -0.467134 0
M  V30 1908 H 216.98 -2.49954 -1.86894 0
M  V30 1909 N 217.281 0.66697 -1.42791 0
M  V30 1910 C 218.506 1.46004 -1.47301 0
M  V30 1911 C 218.931 1.87894 -0.0880317 0
M  V30 1912 O 218.289 1.56502 0.915253 0
M  V30 1913 C 218.337 2.68031 -2.41229 0
M  V30 1914 O 217.441 3.6659 -1.88906 0
M  V30 1915 H 216.782 0.43832 -0.49877 0
M  V30 1916 H 219.312 0.817391 -1.87563 0
M  V30 1917 H 219.322 3.1601 -2.58073 0
M  V30 1918 H 217.997 2.36883 -3.41847 0
M  V30 1919 H 216.574 3.25661 -1.81656 0
M  V30 1920 N 218.759 1.29093 0.90403 0
M  V30 1921 C 220.036 1.075 1.63411 0
M  V30 1922 C 220.416 -0.382346 2.07609 0
M  V30 1923 O 219.764 -1.37031 1.82851 0
M  V30 1924 C 219.974 2.05858 2.81822 0
M  V30 1925 C 221.322 2.36539 3.52611 0
M  V30 1926 O 222.346 2.04019 2.91984 0
M  V30 1927 O 221.205 2.92085 4.61897 0
M  V30 1928 H 218.299 0.411547 0.717327 0
M  V30 1929 H 220.845 1.40449 0.952479 0
M  V30 1930 H 219.617 3.04037 2.46327 0
M  V30 1931 H 219.24 1.73613 3.57693 0
M  V30 1932 N 220.237 -1.11381 1.11499 0
M  V30 1933 C 221.462 -1.87475 0.887019 0
M  V30 1934 C 221.887 -1.79639 -0.557796 0
M  V30 1935 O 221.245 -1.15924 -1.39396 0
M  V30 1936 C 221.293 -3.34213 1.35403 0
M  V30 1937 O 220.397 -4.0903 0.526146 0
M  V30 1938 H 219.738 -0.582099 0.319463 0
M  V30 1939 H 222.268 -1.40785 1.48461 0
M  V30 1940 H 222.278 -3.8506 1.34881 0
M  V30 1941 H 220.953 -3.39232 2.40612 0
M  V30 1942 H 219.53 -3.68082 0.597522 0
M  V30 1943 N 221.715 -0.905404 -1.28997 0
M  V30 1944 C 223.126 -0.581953 -1.77398 0
M  V30 1945 C 223.477 0.902552 -1.74208 0
M  V30 1946 O 222.602 1.70584 -1.33154 0
M  V30 1947 C 223.197 -1.04961 -3.22131 0
M  V30 1948 C 221.756 -0.777229 -3.68288 0
M  V30 1949 C 220.903 -1.22109 -2.48967 0
M  V30 1950 H 223.854 -1.08754 -1.15578 0
M  V30 1951 H 223.875 -0.387387 -3.78523 0
M  V30 1952 H 223.387 -2.13008 -3.24421 0
M  V30 1953 H 221.488 0.290383 -3.71467 0
M  V30 1954 H 221.601 -1.37911 -4.58822 0
M  V30 1955 H 219.965 -0.639971 -2.46529 0
M  V30 1956 H 220.748 -2.30972 -2.53982 0
M  V30 1957 N 223.193 1.4272 -0.668489 0
M  V30 1958 C 224.441 2.01226 -0.187769 0
M  V30 1959 C 224.762 1.53092 1.2078 0
M  V30 1960 O 224.032 0.74993 1.80977 0
M  V30 1961 H 222.612 0.744041 -0.0664272 0
M  V30 1962 H 225.274 1.74723 -0.863583 0
M  V30 1963 H 224.37 3.11556 -0.184166 0
M  V30 1964 N 224.671 0.411399 1.52136 0
M  V30 1965 C 225.948 -0.222308 1.94333 0
M  V30 1966 C 226.328 -1.6242 1.34844 0
M  V30 1967 O 225.676 -2.22384 0.525145 0
M  V30 1968 C 225.886 -0.226345 3.48265 0
M  V30 1969 C 227.234 -0.444592 4.22266 0
M  V30 1970 O 228.258 -0.305602 3.54887 0
M  V30 1971 O 227.117 -0.718749 5.41753 0
M  V30 1972 H 224.211 -0.143907 0.814383 0
M  V30 1973 H 226.757 0.467506 1.63133 0
M  V30 1974 H 225.529 0.75475 3.83952 0
M  V30 1975 H 225.152 -0.960163 3.85832 0
M  V30 1976 N 226.149 -1.5696 0.141893 0
M  V30 1977 C 227.397 -1.95573 -0.509484 0
M  V30 1978 C 227.718 -1.02746 -1.65736 0
M  V30 1979 O 226.988 -0.0880311 -1.95702 0
M  V30 1980 H 225.568 -0.722115 -0.191205 0
M  V30 1981 H 228.23 -1.93697 0.216196 0
M  V30 1982 H 227.326 -2.99171 -0.889 0
M  V30 1983 N 227.627 0.131896 -1.57047 0
M  V30 1984 C 228.537 1.1815 -2.02676 0
M  V30 1985 C 229.553 1.46113 -0.944824 0
M  V30 1986 O 230.729 1.57485 -1.25541 0
M  V30 1987 C 227.794 2.49139 -2.41103 0
M  V30 1988 C 226.855 2.28688 -3.63318 0
M  V30 1989 C 226.088 3.53431 -3.99903 0
M  V30 1990 O 226.311 4.60223 -3.36973 0
M  V30 1991 O 225.245 3.45198 -4.93074 0
M  V30 1992 H 229.071 0.824069 -2.92306 0
M  V30 1993 H 226.656 0.341745 -1.45439 0
M  V30 1994 H 228.538 3.26338 -2.66611 0
M  V30 1995 H 227.213 2.84382 -1.54624 0
M  V30 1996 H 226.12 1.4939 -3.42977 0
M  V30 1997 H 227.453 1.98355 -4.50462 0
M  V30 1998 N 229.106 1.52395 0.401703 0
M  V30 1999 C 230.354 1.66488 1.14569 0
M  V30 2000 C 230.675 0.400897 1.90835 0
M  V30 2001 O 229.945 -0.584415 1.8698 0
M  V30 2002 H 228.525 0.613672 0.425929 0
M  V30 2003 H 231.187 1.89464 0.457093 0
M  V30 2004 H 230.283 2.50942 1.85566 0
M  V30 2005 N 230.584 -0.659388 1.43143 0
M  V30 2006 C 231.832 -1.41654 1.44147 0
M  V30 2007 C 232.153 -1.94893 0.0645739 0
M  V30 2008 O 231.423 -1.74044 -0.899198 0
M  V30 2009 H 230.003 -0.525708 0.530697 0
M  V30 2010 H 232.665 -0.778097 1.78694 0
M  V30 2011 H 231.761 -2.26195 2.1504 0
M  V30 2012 N 232.062 -1.29571 -0.897171 0
M  V30 2013 C 233.287 -1.20705 -1.68656 0
M  V30 2014 C 233.712 0.228582 -1.86706 0
M  V30 2015 O 233.07 1.16494 -1.3892 0
M  V30 2016 C 233.118 -1.9282 -3.04717 0
M  V30 2017 O 232.222 -1.24697 -3.93096 0
M  V30 2018 H 231.563 -0.418126 -0.515816 0
M  V30 2019 H 234.093 -1.71183 -1.12061 0
M  V30 2020 H 234.103 -2.01372 -3.54843 0
M  V30 2021 H 232.778 -2.97239 -2.90899 0
M  V30 2022 H 231.355 -1.2442 -3.51531 0
M  V30 2023 N 233.54 1.10788 -1.12088 0
M  V30 2024 C 234.487 2.17025 -0.785407 0
M  V30 2025 C 235.457 1.64265 0.246191 0
M  V30 2026 O 236.642 1.90412 0.121584 0
M  V30 2027 C 233.782 3.44249 -0.242177 0
M  V30 2028 C 232.895 4.1098 -1.33115 0
M  V30 2029 C 232.03 5.25911 -0.747741 0
M  V30 2030 C 231.069 5.84538 -1.81609 0
M  V30 2031 N 230.206 6.90853 -1.25167 0
M  V30 2032 H 235.046 2.45066 -1.69548 0
M  V30 2033 H 232.583 1.20297 -0.846582 0
M  V30 2034 H 234.541 4.17101 0.0908026 0
M  V30 2035 H 233.171 3.16571 0.631072 0
M  V30 2036 H 232.223 3.36133 -1.78097 0
M  V30 2037 H 233.535 4.50601 -2.13917 0
M  V30 2038 H 232.689 6.056 -0.365216 0
M  V30 2039 H 231.428 4.87614 0.0915188 0
M  V30 2040 H 230.433 5.03522 -2.20785 0
M  V30 2041 H 231.658 6.249 -2.6585 0
M  V30 2042 H 229.604 6.54562 -0.434174 0
M  V30 2043 H 229.521 7.29166 -1.99633 0
M  V30 2044 H 230.789 7.7433 -0.896259 0
M  V30 2045 N 235.018 0.912232 1.28515 0
M  V30 2046 C 236.246 0.560416 1.99166 0
M  V30 2047 C 236.661 -0.857927 1.68182 0
M  V30 2048 O 236.018 -1.56805 0.933733 0
M  V30 2049 C 236.069 0.758142 3.53461 0
M  V30 2050 O 235.79 2.12067 3.83352 0
M  V30 2051 C 237.291 0.412954 4.41372 0
M  V30 2052 H 234.511 0.213805 0.636026 0
M  V30 2053 H 237.055 1.22502 1.63749 0
M  V30 2054 H 235.21 0.140556 3.87145 0
M  V30 2055 H 235.624 2.15923 4.77993 0
M  V30 2056 H 237.098 0.60208 5.48707 0
M  V30 2057 H 237.575 -0.65073 4.34353 0
M  V30 2058 H 238.181 1.00802 4.13182 0
M  V30 2059 N 236.496 -1.42363 0.676048 0
M  V30 2060 C 237.426 -2.33497 0.0124832 0
M  V30 2061 C 238.407 -1.50748 -0.787981 0
M  V30 2062 O 239.592 -1.79346 -0.744884 0
M  V30 2063 C 236.722 -3.34377 -0.938582 0
M  V30 2064 C 235.676 -4.27289 -0.246622 0
M  V30 2065 C 235.002 -5.18386 -1.31071 0
M  V30 2066 C 236.302 -5.14916 0.875125 0
M  V30 2067 H 237.996 -2.89233 0.773593 0
M  V30 2068 H 235.542 -1.39073 0.37346 0
M  V30 2069 H 237.495 -3.97044 -1.41188 0
M  V30 2070 H 236.219 -2.76947 -1.73113 0
M  V30 2071 H 234.878 -3.66018 0.206456 0
M  V30 2072 H 234.526 -4.57282 -2.09528 0
M  V30 2073 H 234.226 -5.81378 -0.852839 0
M  V30 2074 H 235.75 -5.83929 -1.78492 0
M  V30 2075 H 237.164 -5.71262 0.482983 0
M  V30 2076 H 235.561 -5.86747 1.25887 0
M  V30 2077 H 236.631 -4.53242 1.72335 0
M  V30 2078 N 237.974 -0.419461 -1.51915 0
M  V30 2079 C 239.199 0.154572 -2.06823 0
M  V30 2080 C 239.624 1.3722 -1.28656 0
M  V30 2081 O 238.982 1.78461 -0.319583 0
M  V30 2082 C 239.03 0.473172 -3.57482 0
M  V30 2083 O 238.134 1.56255 -3.81652 0
M  V30 2084 H 237.475 0.0096924 -0.663929 0
M  V30 2085 H 240.005 -0.595642 -1.95738 0
M  V30 2086 H 240.015 0.728825 -4.01438 0
M  V30 2087 H 238.69 -0.416873 -4.13805 0
M  V30 2088 H 237.267 1.29825 -3.49571 0
M  V30 2089 N 239.452 1.56882 -0.150215 0
M  V30 2090 C 240.382 2.19935 0.784284 0
M  V30 2091 C 241.363 1.14854 1.25469 0
M  V30 2092 O 242.548 1.43209 1.31168 0
M  V30 2093 C 239.678 2.82349 2.02229 0
M  V30 2094 C 238.632 3.93285 1.68853 0
M  V30 2095 C 237.958 4.42649 2.99944 0
M  V30 2096 C 239.258 5.13904 0.932714 0
M  V30 2097 H 240.952 2.9828 0.258781 0
M  V30 2098 H 238.498 1.43473 0.123029 0
M  V30 2099 H 240.451 3.25126 2.68088 0
M  V30 2100 H 239.175 2.0134 2.57157 0
M  V30 2101 H 237.834 3.5113 1.05371 0
M  V30 2102 H 237.482 3.58458 3.52869 0
M  V30 2103 H 237.182 5.17476 2.78374 0
M  V30 2104 H 238.706 4.88099 3.66868 0
M  V30 2105 H 240.12 5.53506 1.49345 0
M  V30 2106 H 238.517 5.94515 0.81684 0
M  V30 2107 H 239.587 4.84842 -0.0749568 0
M  V30 2108 N 240.93 -0.123565 1.57115 0
M  V30 2109 C 241.88 -1.1575 1.96433 0
M  V30 2110 C 242.864 -1.37313 0.838686 0
M  V30 2111 O 244.056 -1.38482 1.10235 0
M  V30 2112 C 241.185 -2.48526 2.36833 0
M  V30 2113 C 240.271 -2.30457 3.5602 0
M  V30 2114 N 240.662 -1.8219 4.71848 0
M  V30 2115 C 238.96 -2.61129 3.61563 0
M  V30 2116 C 239.661 -1.77721 5.53886 0
M  V30 2117 N 238.637 -2.21899 4.96248 0
M  V30 2118 H 242.439 -0.776797 2.83449 0
M  V30 2119 H 239.953 -0.331364 1.58983 0
M  V30 2120 H 241.95 -3.233 2.63216 0
M  V30 2121 H 240.61 -2.87358 1.5118 0
M  V30 2122 H 241.621 -1.51805 4.95152 0
M  V30 2123 H 238.298 -3.03678 2.86507 0
M  V30 2124 H 239.688 -1.41697 6.56789 0
M  V30 2125 N 242.408 -1.52605 -0.393616 0
M  V30 2126 C 243.656 -1.67093 -1.13685 0
M  V30 2127 C 243.977 -0.411011 -1.90619 0
M  V30 2128 O 243.247 0.574491 -1.87287 0
M  V30 2129 H 241.827 -0.615923 -0.422668 0
M  V30 2130 H 244.489 -1.89704 -0.447039 0
M  V30 2131 H 243.585 -2.51922 -1.84232 0
M  V30 2132 N 243.887 0.651787 -1.4349 0
M  V30 2133 C 245.135 1.40888 -1.44897 0
M  V30 2134 C 245.456 1.94856 -0.0749086 0
M  V30 2135 O 244.726 1.74518 0.889956 0
M  V30 2136 H 243.306 0.522887 -0.533478 0
M  V30 2137 H 245.968 0.768609 -1.79104 0
M  V30 2138 H 245.064 2.25052 -2.16236 0
M  V30 2139 N 245.365 1.30045 0.890287 0
M  V30 2140 C 246.328 1.15963 1.977 0
M  V30 2141 C 247.328 0.0923777 1.60534 0
M  V30 2142 O 248.518 0.340071 1.70848 0
M  V30 2143 C 245.65 0.775451 3.31963 0
M  V30 2144 H 246.843 2.12502 2.11619 0
M  V30 2145 H 244.396 1.13366 1.07601 0
M  V30 2146 H 245.131 -0.189671 3.23745 0
M  V30 2147 H 244.916 1.54668 3.60306 0
M  V30 2148 H 246.406 0.700251 4.11687 0
M  V30 2149 N 246.843 -1.10192 1.12674 0
M  V30 2150 C 247.79 -2.16606 0.796906 0
M  V30 2151 C 248.76 -1.64394 -0.237476 0
M  V30 2152 O 249.945 -1.90474 -0.111484 0
M  V30 2153 C 247.085 -3.44116 0.26043 0
M  V30 2154 C 246.198 -4.10268 1.35293 0
M  V30 2155 C 245.333 -5.25507 0.775621 0
M  V30 2156 C 244.372 -5.83567 1.84706 0
M  V30 2157 N 243.509 -6.90179 1.28829 0
M  V30 2158 H 248.349 -2.44163 1.70846 0
M  V30 2159 H 245.886 -1.19846 0.85295 0
M  V30 2160 H 247.844 -4.17143 -0.0686814 0
M  V30 2161 H 246.474 -3.16901 -0.614274 0
M  V30 2162 H 245.526 -3.35184 1.79877 0
M  V30 2163 H 246.838 -4.4946 2.16303 0
M  V30 2164 H 245.992 -6.05398 0.397327 0
M  V30 2165 H 244.731 -4.87656 -0.0656581 0
M  V30 2166 H 243.736 -5.02344 2.23452 0
M  V30 2167 H 244.961 -6.23482 2.69161 0
M  V30 2168 H 242.907 -6.54322 0.468881 0
M  V30 2169 H 242.824 -7.28097 2.03497 0
M  V30 2170 H 244.092 -7.73844 0.937311 0
M  V30 2171 N 248.321 -0.919034 -1.28029 0
M  V30 2172 C 249.268 -0.410005 -2.27129 0
M  V30 2173 C 250.238 0.518405 -1.57803 0
M  V30 2174 O 251.423 0.439451 -1.8567 0
M  V30 2175 C 248.563 0.339054 -3.4343 0
M  V30 2176 C 247.676 -0.622468 -4.27492 0
M  V30 2177 C 246.811 0.145567 -5.31001 0
M  V30 2178 C 245.85 -0.809226 -6.06727 0
M  V30 2179 N 244.987 -0.0743728 -7.02061 0
M  V30 2180 H 249.827 -1.26011 -2.70047 0
M  V30 2181 H 247.364 -0.632663 -1.328 0
M  V30 2182 H 249.322 0.789586 -4.0966 0
M  V30 2183 H 247.952 1.15346 -3.01488 0
M  V30 2184 H 247.004 -1.19153 -3.61257 0
M  V30 2185 H 248.316 -1.35252 -4.80113 0
M  V30 2186 H 247.47 0.656417 -6.03139 0
M  V30 2187 H 246.209 0.908643 -4.79161 0
M  V30 2188 H 245.214 -1.3314 -5.33436 0
M  V30 2189 H 246.439 -1.57194 -6.60656 0
M  V30 2190 H 244.385 0.670616 -6.52563 0
M  V30 2191 H 244.302 -0.744157 -7.52329 0
M  V30 2192 H 245.57 0.416109 -7.78389 0
M  V30 2193 N 249.799 1.42003 -0.683588 0
M  V30 2194 C 251.047 2.01015 -0.209101 0
M  V30 2195 C 251.368 1.54365 1.19149 0
M  V30 2196 O 250.638 0.769083 1.80172 0
M  V30 2197 H 249.218 0.743294 -0.074315 0
M  V30 2198 H 251.88 1.73798 -0.882066 0
M  V30 2199 H 250.976 3.11343 -0.2172 0
M  V30 2200 N 251.277 0.427512 1.51691 0
M  V30 2201 C 252.525 -0.141948 2.01601 0
M  V30 2202 C 252.846 -1.44067 1.31414 0
M  V30 2203 O 252.116 -1.90763 0.445658 0
M  V30 2204 H 250.696 -0.0554468 0.744939 0
M  V30 2205 H 253.358 0.567968 1.86441 0
M  V30 2206 H 252.454 -0.324913 3.10404 0
M  V30 2207 N 252.755 -1.56801 0.158532 0
M  V30 2208 C 254.032 -1.88131 -0.535357 0
M  V30 2209 C 254.412 -1.06638 -1.82186 0
M  V30 2210 O 253.76 -0.156533 -2.27963 0
M  V30 2211 C 253.97 -3.39949 -0.789653 0
M  V30 2212 C 255.318 -4.09416 -1.12533 0
M  V30 2213 O 256.342 -3.45194 -0.878622 0
M  V30 2214 O 255.201 -5.22855 -1.59014 0
M  V30 2215 H 252.295 -0.780143 -0.27442 0
M  V30 2216 H 254.841 -1.68564 0.19601 0
M  V30 2217 H 253.613 -3.91115 0.120353 0
M  V30 2218 H 253.236 -3.65084 -1.57479 0
M  V30 2219 N 254.233 0.115231 -1.57178 0
M  V30 2220 C 255.644 0.67197 -1.74188 0
M  V30 2221 C 255.995 1.80125 -0.777777 0
M  V30 2222 O 255.12 2.16346 0.0484376 0
M  V30 2223 C 255.715 1.22573 -3.1585 0
M  V30 2224 C 254.274 1.72872 -3.34353 0
M  V30 2225 C 253.421 0.629972 -2.70049 0
M  V30 2226 H 256.372 -0.110712 -1.58313 0
M  V30 2227 H 256.393 2.09535 -3.17609 0
M  V30 2228 H 255.905 0.403598 -3.85996 0
M  V30 2229 H 254.006 2.5755 -2.69256 0
M  V30 2230 H 254.119 1.83557 -4.42542 0
M  V30 2231 H 252.483 1.0645 -2.31388 0
M  V30 2232 H 253.266 -0.181241 -3.42821 0
M  V30 2233 N 255.711 1.52812 0.385517 0
M  V30 2234 C 256.959 1.67694 1.12797 0
M  V30 2235 C 257.28 0.421115 1.90399 0
M  V30 2236 O 256.55 -0.564551 1.87589 0
M  V30 2237 H 255.13 0.618155 0.419396 0
M  V30 2238 H 257.792 1.89938 0.436972 0
M  V30 2239 H 256.888 2.52896 1.82894 0
M  V30 2240 N 257.189 -0.644168 1.43834 0
M  V30 2241 C 258.437 -1.40117 1.45642 0
M  V30 2242 C 258.758 -1.94814 0.0852413 0
M  V30 2243 O 258.028 -1.74988 -0.880688 0
M  V30 2244 H 256.608 -0.52005 0.536243 0
M  V30 2245 H 259.27 -0.7591 1.7951 0
M  V30 2246 H 258.366 -2.23902 2.17427 0
M  V30 2247 N 258.668 -1.30515 -0.883378 0
M  V30 2248 C 260.079 -1.17509 -1.45081 0
M  V30 2249 C 260.43 0.223605 -1.94922 0
M  V30 2250 O 259.555 1.12041 -1.85137 0
M  V30 2251 C 260.15 -2.12715 -2.63701 0
M  V30 2252 C 258.709 -2.03682 -3.16529 0
M  V30 2253 C 257.856 -2.02706 -1.89224 0
M  V30 2254 H 260.807 -1.42762 -0.693165 0
M  V30 2255 H 260.828 -1.70891 -3.39965 0
M  V30 2256 H 260.34 -3.14505 -2.27395 0
M  V30 2257 H 258.441 -1.05039 -3.57488 0
M  V30 2258 H 258.554 -2.92146 -3.7972 0
M  V30 2259 H 256.918 -1.4753 -2.07622 0
M  V30 2260 H 257.701 -3.06229 -1.55174 0
M  V30 2261 N 260.146 1.09593 -1.13257 0
M  V30 2262 C 261.076 2.18214 -0.830946 0
M  V30 2263 C 262.057 1.68812 0.208966 0
M  V30 2264 O 263.242 1.9408 0.0682666 0
M  V30 2265 C 260.372 3.46051 -0.294296 0
M  V30 2266 C 259.326 4.08778 -1.26826 0
M  V30 2267 C 258.652 5.31419 -0.591449 0
M  V30 2268 C 259.952 4.51476 -2.62615 0
M  V30 2269 H 261.646 2.43703 -1.73923 0
M  V30 2270 H 259.192 1.17128 -0.837675 0
M  V30 2271 H 261.145 4.2134 -0.0709606 0
M  V30 2272 H 259.869 3.20079 0.649366 0
M  V30 2273 H 258.528 3.35505 -1.47756 0
M  V30 2274 H 258.176 5.01727 0.357633 0
M  V30 2275 H 257.876 5.74341 -1.24123 0
M  V30 2276 H 259.4 6.09433 -0.377355 0
M  V30 2277 H 260.814 5.17999 -2.45663 0
M  V30 2278 H 259.211 5.05277 -3.23752 0
M  V30 2279 H 260.281 3.63962 -3.20406 0
M  V30 2280 N 261.624 0.925811 1.2754 0
M  V30 2281 C 262.901 0.483726 1.89524 0
M  V30 2282 C 263.281 -1.03809 1.83812 0
M  V30 2283 O 262.629 -1.89143 1.28207 0
M  V30 2284 C 262.839 1.02769 3.33526 0
M  V30 2285 C 264.187 1.08703 4.10449 0
M  V30 2286 O 265.211 0.977175 3.42534 0
M  V30 2287 O 264.07 1.25599 5.31871 0
M  V30 2288 H 261.164 0.15529 0.812289 0
M  V30 2289 H 263.71 1.01738 1.35822 0
M  V30 2290 H 262.482 2.07155 3.31967 0
M  V30 2291 H 262.105 0.475567 3.94746 0
M  V30 2292 N 263.102 -1.41638 0.69111 0
M  V30 2293 C 264.35 -2.00902 0.219758 0
M  V30 2294 C 264.671 -1.54994 -1.18329 0
M  V30 2295 O 263.941 -0.778628 -1.79762 0
M  V30 2296 H 262.521 -0.74289 0.0782558 0
M  V30 2297 H 265.183 -1.73327 0.891271 0
M  V30 2298 H 264.279 -3.11224 0.233708 0
M  V30 2299 N 264.58 -0.43555 -1.51462 0
M  V30 2300 C 265.805 0.132627 -2.06976 0
M  V30 2301 C 266.23 1.35848 -1.30104 0
M  V30 2302 O 265.588 1.78112 -0.338493 0
M  V30 2303 C 265.636 0.43523 -3.57964 0
M  V30 2304 O 264.74 1.52198 -3.83288 0
M  V30 2305 H 264.081 0.00265 -0.663995 0
M  V30 2306 H 266.611 -0.616369 -1.95095 0
M  V30 2307 H 266.621 0.686206 -4.02188 0
M  V30 2308 H 265.296 -0.460739 -4.1334 0
M  V30 2309 H 263.873 1.2611 -3.50928 0
M  V30 2310 N 266.058 1.56714 -0.166846 0
M  V30 2311 C 266.988 2.20754 0.760913 0
M  V30 2312 C 267.969 1.16178 1.24244 0
M  V30 2313 O 269.154 1.44592 1.29641 0
M  V30 2314 C 266.284 2.84478 1.99223 0
M  V30 2315 C 265.238 3.95053 1.64672 0
M  V30 2316 C 264.564 4.45805 2.95232 0
M  V30 2317 C 265.864 5.14865 0.878155 0
M  V30 2318 H 267.558 2.98537 0.22713 0
M  V30 2319 H 265.104 1.43596 0.107805 0
M  V30 2320 H 267.057 3.27951 2.64624 0
M  V30 2321 H 265.781 2.04056 2.55007 0
M  V30 2322 H 264.44 3.52228 1.01641 0
M  V30 2323 H 264.088 3.62181 3.49047 0
M  V30 2324 H 263.788 5.204 2.7287 0
M  V30 2325 H 265.312 4.91962 3.6167 0
M  V30 2326 H 266.726 5.55059 1.43466 0
M  V30 2327 H 265.123 5.95348 0.753738 0
M  V30 2328 H 266.193 4.84735 -0.126377 0
M  V30 2329 N 267.536 -0.106894 1.57237 0
M  V30 2330 C 268.483 -1.13049 2.01217 0
M  V30 2331 C 269.453 -1.40471 0.886403 0
M  V30 2332 O 270.638 -1.52133 1.15153 0
M  V30 2333 C 267.778 -2.4487 2.43172 0
M  V30 2334 C 266.891 -2.24281 3.69218 0
M  V30 2335 C 266.026 -3.49417 4.00101 0
M  V30 2336 C 265.065 -3.24038 5.19294 0
M  V30 2337 N 264.202 -4.41409 5.45988 0
M  V30 2338 H 269.042 -0.748456 2.88448 0
M  V30 2339 H 266.579 -0.358054 1.42676 0
M  V30 2340 H 268.537 -3.21786 2.65537 0
M  V30 2341 H 267.167 -2.80944 1.58967 0
M  V30 2342 H 266.219 -1.38224 3.54398 0
M  V30 2343 H 267.531 -2.01512 4.56283 0
M  V30 2344 H 266.685 -4.34746 4.2318 0
M  V30 2345 H 265.424 -3.75229 3.11535 0
M  V30 2346 H 264.429 -2.37102 4.96047 0
M  V30 2347 H 265.654 -2.99584 6.09447 0
M  V30 2348 H 263.6 -4.67319 4.60379 0
M  V30 2349 H 263.517 -4.21788 6.274 0
M  V30 2350 H 264.785 -5.27836 5.73593 0
M  V30 2351 N 269.014 -1.53014 -0.377408 0
M  V30 2352 C 269.977 -1.77957 -1.44444 0
M  V30 2353 C 270.977 -0.649763 -1.47087 0
M  V30 2354 O 272.167 -0.917897 -1.48055 0
M  V30 2355 C 269.299 -1.89089 -2.83651 0
M  V30 2356 H 270.492 -2.73243 -1.23606 0
M  V30 2357 H 268.045 -1.43912 -0.609844 0
M  V30 2358 H 268.78 -0.958293 -3.09818 0
M  V30 2359 H 268.565 -2.71254 -2.83132 0
M  V30 2360 H 270.055 -2.1002 -3.60945 0
M  V30 2361 N 270.492 0.636531 -1.44174 0
M  V30 2362 C 271.908 0.954104 -1.27941 0
M  V30 2363 C 272.108 2.0039 -0.211248 0
M  V30 2364 O 271.164 2.49236 0.404695 0
M  V30 2365 C 272.477 1.4225 -2.64925 0
M  V30 2366 C 274.025 1.53827 -2.72592 0
M  V30 2367 C 274.5 2.04053 -4.10032 0
M  V30 2368 N 275.991 2.11331 -4.12182 0
M  V30 2369 C 276.726 2.51352 -5.15374 0
M  V30 2370 N 276.222 2.90549 -6.2893 0
M  V30 2371 N 278.015 2.51438 -5.02728 0
M  V30 2372 H 270.166 -0.0578386 -2.12321 0
M  V30 2373 H 272.429 0.0367406 -0.947288 0
M  V30 2374 H 272.135 0.725466 -3.44136 0
M  V30 2375 H 272.009 2.39451 -2.9145 0
M  V30 2376 H 274.396 2.22628 -1.93702 0
M  V30 2377 H 274.477 0.550154 -2.49814 0
M  V30 2378 H 274.121 1.35848 -4.89395 0
M  V30 2379 H 274.051 3.03726 -4.30184 0
M  V30 2380 H 276.542 1.83745 -3.30222 0
M  V30 2381 H 276.855 3.19884 -7.03487 0
M  V30 2382 H 275.2 2.88313 -6.32377 0
M  V30 2383 H 278.391 2.20203 -4.13072 0
M  V30 2384 H 278.564 2.82304 -5.83274 0
M  V30 2385 N 271.97 1.30982 0.876444 0
M  V30 2386 C 273.218 1.20058 1.62575 0
M  V30 2387 C 273.539 -0.242947 1.93481 0
M  V30 2388 O 272.809 -1.1619 1.57724 0
M  V30 2389 H 271.389 0.44135 0.602677 0
M  V30 2390 H 274.051 1.64222 1.04962 0
M  V30 2391 H 273.147 1.76762 2.57219 0
M  V30 2392 N 273.449 -1.08991 1.13837 0
M  V30 2393 C 274.379 -2.17771 0.842507 0
M  V30 2394 C 275.36 -1.6892 -0.20001 0
M  V30 2395 O 276.545 -1.94113 -0.0579731 0
M  V30 2396 C 273.675 -3.4589 0.312644 0
M  V30 2397 C 272.629 -4.08099 1.28992 0
M  V30 2398 C 271.955 -5.31098 0.619623 0
M  V30 2399 C 273.255 -4.50077 2.65005 0
M  V30 2400 H 274.949 -2.42777 1.75213 0
M  V30 2401 H 272.495 -1.16682 0.843875 0
M  V30 2402 H 274.448 -4.21297 0.0933043 0
M  V30 2403 H 273.172 -3.20419 -0.632382 0
M  V30 2404 H 271.831 -3.34717 1.49533 0
M  V30 2405 H 271.479 -5.0191 -0.33102 0
M  V30 2406 H 271.179 -5.73674 1.27167 0
M  V30 2407 H 272.703 -6.09224 0.409669 0
M  V30 2408 H 274.117 -5.16688 2.48407 0
M  V30 2409 H 272.514 -5.03553 3.26427 0
M  V30 2410 H 273.584 -3.62257 3.22332 0
M  V30 2411 N 274.927 -0.932562 -1.27047 0
M  V30 2412 C 276.175 -0.574422 -1.93765 0
M  V30 2413 C 276.496 0.887993 -1.73608 0
M  V30 2414 O 275.766 1.62999 -1.08665 0
M  V30 2415 H 274.346 -0.209451 -0.717035 0
M  V30 2416 H 277.008 -1.18601 -1.5466 0
M  V30 2417 H 276.104 -0.784841 -3.02071 0
M  V30 2418 N 276.405 1.4127 -0.698611 0
M  V30 2419 C 277.653 2.00782 -0.230409 0
M  V30 2420 C 277.974 1.5562 1.17505 0
M  V30 2421 O 277.244 0.78815 1.79346 0
M  V30 2422 H 275.824 0.742464 -0.0821944 0
M  V30 2423 H 278.486 1.72852 -0.90045 0
M  V30 2424 H 277.582 3.11095 -0.25021 0
M  V30 2425 N 277.883 0.443576 1.51229 0
M  V30 2426 C 279.131 -0.120557 2.0174 0
M  V30 2427 C 279.452 -1.42665 1.32935 0
M  V30 2428 O 278.722 -1.9028 0.465866 0
M  V30 2429 H 277.302 -0.0475426 0.745486 0
M  V30 2430 H 279.964 0.587711 1.85828 0
M  V30 2431 H 279.06 -0.291972 3.10731 0
M  V30 2432 N 279.361 -1.56624 0.175154 0
M  V30 2433 C 280.638 -1.88688 -0.515373 0
M  V30 2434 C 281.018 -1.08564 -1.81044 0
M  V30 2435 O 280.366 -0.180703 -2.27784 0
M  V30 2436 C 280.576 -3.40768 -0.753552 0
M  V30 2437 C 281.924 -4.10587 -1.08184 0
M  V30 2438 O 282.948 -3.46106 -0.841961 0
M  V30 2439 O 281.807 -5.24512 -1.53459 0
M  V30 2440 H 278.901 -0.78301 -0.26613 0
M  V30 2441 H 281.447 -1.68347 0.213877 0
M  V30 2442 H 280.219 -3.90965 0.161829 0
M  V30 2443 H 279.842 -3.66733 -1.53598 0
M  V30 2444 N 280.839 0.0985539 -1.57292 0
M  V30 2445 C 281.769 1.12064 -2.04851 0
M  V30 2446 C 282.75 1.41981 -0.936767 0
M  V30 2447 O 283.935 1.52071 -1.20781 0
M  V30 2448 C 281.065 2.44144 -2.47004 0
M  V30 2449 C 280.019 2.28643 -3.6181 0
M  V30 2450 C 279.345 3.65869 -3.89929 0
M  V30 2451 C 280.645 1.72986 -4.92822 0
M  V30 2452 H 282.339 0.724979 -2.9049 0
M  V30 2453 H 279.885 0.34729 -1.39749 0
M  V30 2454 H 281.838 3.15914 -2.78884 0
M  V30 2455 H 280.562 2.85639 -1.5836 0
M  V30 2456 H 279.221 1.59318 -3.30172 0
M  V30 2457 H 278.869 4.04885 -2.98458 0
M  V30 2458 H 278.569 3.56344 -4.67218 0
M  V30 2459 H 280.093 4.39112 -4.2428 0
M  V30 2460 H 281.507 2.34593 -5.23105 0
M  V30 2461 H 279.904 1.74229 -5.74251 0
M  V30 2462 H 280.974 0.689007 -4.7998 0
M  V30 2463 N 282.317 1.53212 0.369288 0
M  V30 2464 C 283.542 1.73423 1.1375 0
M  V30 2465 C 283.967 0.460404 1.82378 0
M  V30 2466 O 283.325 -0.585298 1.71592 0
M  V30 2467 C 283.373 2.89769 2.1463 0
M  V30 2468 O 282.477 2.58119 3.21634 0
M  V30 2469 H 281.818 0.576061 0.330227 0
M  V30 2470 H 284.348 2.00083 0.427547 0
M  V30 2471 H 284.358 3.15829 2.58294 0
M  V30 2472 H 283.033 3.8217 1.64071 0
M  V30 2473 H 281.61 2.42864 2.82969 0
M  V30 2474 N 283.795 -0.628877 1.44509 0
M  V30 2475 C 285.041 -1.39045 1.47629 0
M  V30 2476 C 285.374 -1.93892 0.109343 0
M  V30 2477 O 284.649 -1.7379 -0.87334 0
M  V30 2478 C 284.932 -2.55408 2.53848 0
M  V30 2479 C 284.785 -2.05896 3.99909 0
M  V30 2480 C 286.104 -3.5759 2.56549 0
M  V30 2481 H 283.223 -0.504232 0.537512 0
M  V30 2482 H 285.865 -0.710854 1.76201 0
M  V30 2483 H 284.015 -3.13384 2.29615 0
M  V30 2484 H 285.687 -1.52734 4.35282 0
M  V30 2485 H 283.93 -1.37061 4.11578 0
M  V30 2486 H 284.601 -2.89681 4.69882 0
M  V30 2487 H 287.077 -3.09419 2.78207 0
M  V30 2488 H 285.953 -4.36527 3.32769 0
M  V30 2489 H 286.214 -4.11808 1.60832 0
M  V30 2490 N 285.273 -1.31445 -0.869486 0
M  V30 2491 C 286.498 -1.24256 -1.66058 0
M  V30 2492 C 286.923 0.188928 -1.87149 0
M  V30 2493 O 286.281 1.13522 -1.4136 0
M  V30 2494 C 286.329 -1.9924 -3.00559 0
M  V30 2495 O 285.433 -1.33007 -3.90362 0
M  V30 2496 H 284.774 -0.428973 -0.506831 0
M  V30 2497 H 287.304 -1.73521 -1.08404 0
M  V30 2498 H 287.314 -2.08854 -3.50491 0
M  V30 2499 H 285.989 -3.03342 -2.84528 0
M  V30 2500 H 284.566 -1.31848 -3.48813 0
M  V30 2501 N 286.751 1.08385 -1.14413 0
M  V30 2502 C 287.976 1.85057 -0.936413 0
M  V30 2503 C 288.401 1.81055 0.509971 0
M  V30 2504 O 287.759 1.1958 1.36273 0
M  V30 2505 C 287.807 3.30505 -1.44217 0
M  V30 2506 O 286.911 4.07491 -0.634409 0
M  V30 2507 H 286.252 0.573425 -0.334784 0
M  V30 2508 H 288.782 1.36799 -1.52142 0
M  V30 2509 H 288.792 3.81348 -1.45043 0
M  V30 2510 H 287.467 3.32734 -2.49522 0
M  V30 2511 H 286.044 3.66368 -0.694902 0
M  V30 2512 N 288.23 0.939286 1.26551 0
M  V30 2513 C 289.507 0.5038 1.89001 0
M  V30 2514 C 289.887 -1.01854 1.84903 0
M  V30 2515 O 289.235 -1.87773 1.30206 0
M  V30 2516 C 289.445 1.063 3.32417 0
M  V30 2517 C 290.793 1.13051 4.09273 0
M  V30 2518 O 291.817 1.01345 3.41479 0
M  V30 2519 O 290.676 1.31233 5.30509 0
M  V30 2520 H 287.77 0.163897 0.810597 0
M  V30 2521 H 290.316 1.03173 1.34735 0
M  V30 2522 H 289.088 2.10665 3.29752 0
M  V30 2523 H 288.711 0.517408 3.94219 0
M  V30 2524 N 289.708 -1.40897 0.706093 0
M  V30 2525 C 290.933 -2.05895 0.249435 0
M  V30 2526 C 291.358 -1.52823 -1.09666 0
M  V30 2527 O 290.716 -0.659589 -1.68876 0
M  V30 2528 C 290.764 -3.59872 0.22904 0
M  V30 2529 O 289.868 -4.04708 -0.792784 0
M  V30 2530 H 289.209 -0.653206 0.119241 0
M  V30 2531 H 291.739 -1.80471 0.96391 0
M  V30 2532 H 291.749 -4.07951 0.0634791 0
M  V30 2533 H 290.424 -3.97866 1.21141 0
M  V30 2534 H 289.001 -3.68111 -0.59572 0
M  V30 2535 N 291.186 -0.45159 -1.50991 0
M  V30 2536 C 292.463 0.170707 -1.94854 0
M  V30 2537 C 292.843 1.58788 -1.39103 0
M  V30 2538 O 292.191 2.20913 -0.583921 0
M  V30 2539 C 292.401 0.133929 -3.48743 0
M  V30 2540 C 293.749 0.33248 -4.23296 0
M  V30 2541 O 294.773 0.211403 -3.55572 0
M  V30 2542 O 293.632 0.57486 -5.43468 0
M  V30 2543 H 290.726 0.122264 -0.817912 0
M  V30 2544 H 293.272 -0.510594 -1.61836 0
M  V30 2545 H 292.044 -0.856283 -3.81816 0
M  V30 2546 H 291.667 0.857529 -3.88242 0
M  V30 2547 N 292.664 1.56529 -0.183458 0
M  V30 2548 C 293.889 2.02064 0.467428 0
M  V30 2549 C 294.314 1.06282 1.55196 0
M  V30 2550 O 293.672 0.0443565 1.81246 0
M  V30 2551 C 293.72 3.46122 1.01153 0
M  V30 2552 O 292.824 3.53437 2.12499 0
M  V30 2553 H 292.165 0.654726 0.110588 0
M  V30 2554 H 294.695 2.02521 -0.290917 0
M  V30 2555 H 294.705 3.85676 1.33108 0
M  V30 2556 H 293.38 4.15331 0.217533 0
M  V30 2557 H 291.957 3.2575 1.81497 0
M  V30 2558 N 294.142 -0.090211 1.57342 0
M  V30 2559 C 295.367 -0.810082 1.90925 0
M  V30 2560 C 295.792 -1.71248 0.778187 0
M  V30 2561 O 295.15 -1.79278 -0.269991 0
M  V30 2562 C 295.198 -1.59529 3.23393 0
M  V30 2563 O 294.302 -2.70461 3.11327 0
M  V30 2564 H 293.643 -0.222231 0.625707 0
M  V30 2565 H 296.173 -0.0639716 2.045 0
M  V30 2566 H 296.183 -1.97847 3.5682 0
M  V30 2567 H 294.858 -0.933055 4.05299 0
M  V30 2568 H 293.435 -2.35135 2.89423 0
M  V30 2569 N 295.62 -1.53406 -0.361157 0
M  V30 2570 C 296.552 -1.76446 -1.46286 0
M  V30 2571 C 297.565 -0.645322 -1.49464 0
M  V30 2572 O 298.754 -0.921681 -1.52864 0
M  V30 2573 C 295.854 -1.83332 -2.85031 0
M  V30 2574 C 295.027 -3.13033 -3.05498 0
M  V30 2575 C 294.086 -3.11104 -4.24383 0
M  V30 2576 O 293.112 -3.84888 -4.19344 0
M  V30 2577 N 294.314 -2.32234 -5.32022 0
M  V30 2578 H 297.079 -2.71508 -1.26899 0
M  V30 2579 H 294.64 -1.52238 -0.550915 0
M  V30 2580 H 296.632 -1.79514 -3.62708 0
M  V30 2581 H 295.202 -0.955342 -2.97644 0
M  V30 2582 H 294.422 -3.30119 -2.15442 0
M  V30 2583 H 295.71 -3.9874 -3.16044 0
M  V30 2584 H 295.108 -1.71807 -5.38979 0
M  V30 2585 H 293.665 -2.3423 -6.08259 0
M  V30 2586 N 297.098 0.621204 -1.44841 0
M  V30 2587 C 298.061 1.71459 -1.521 0
M  V30 2588 C 299.061 1.55696 -0.401933 0
M  V30 2589 O 300.251 1.61011 -0.664925 0
M  V30 2590 C 297.383 3.10624 -1.40447 0
M  V30 2591 H 298.576 1.66394 -2.49506 0
M  V30 2592 H 296.129 0.835745 -1.3208 0
M  V30 2593 H 296.864 3.21277 -0.441737 0
M  V30 2594 H 296.649 3.23473 -2.21602 0
M  V30 2595 H 298.139 3.90293 -1.4853 0
M  V30 2596 N 298.576 1.31904 0.862503 0
M  V30 2597 C 299.824 1.21776 1.61292 0
M  V30 2598 C 300.145 -0.222413 1.93727 0
M  V30 2599 O 299.415 -1.1451 1.58947 0
M  V30 2600 H 297.995 0.447717 0.597962 0
M  V30 2601 H 300.657 1.65326 1.03215 0
M  V30 2602 H 299.753 1.7948 2.5533 0
M  V30 2603 N 300.054 -1.07777 1.14986 0
M  V30 2604 C 301.017 -2.13041 0.845358 0
M  V30 2605 C 302.017 -1.60071 -0.152931 0
M  V30 2606 O 303.207 -1.74033 0.0761879 0
M  V30 2607 C 300.339 -3.39896 0.261383 0
M  V30 2608 H 301.532 -2.41485 1.77834 0
M  V30 2609 H 299.085 -1.23595 0.956757 0
M  V30 2610 H 299.82 -3.17091 -0.68 0
M  V30 2611 H 299.605 -3.79642 0.980514 0
M  V30 2612 H 301.095 -4.17548 0.0657687 0
M  V30 2613 N 301.532 -0.945985 -1.26051 0
M  V30 2614 C 302.48 -0.450259 -2.282 0
M  V30 2615 C 303.474 0.47497 -1.62605 0
M  V30 2616 O 304.68 0.352653 -1.76512 0
M  V30 2617 H 301.055 -0.127081 -0.741184 0
M  V30 2618 H 303.026 -1.32422 -2.67408 0
M  V30 2619 C 301.775 0.26467 -3.46691 0
M  V30 2620 H 301.098 -0.438123 -3.97392 0
M  V30 2621 H 302.538 0.575678 -4.20074 0
M  V30 2622 C 300.997 1.48416 -3.02447 0
M  V30 2623 O 301.527 2.58227 -3.07704 0
M  V30 2624 N 299.733 1.34243 -2.57735 0
M  V30 2625 H 299.28 0.448994 -2.53657 0
M  V30 2626 H 299.238 2.15957 -2.28495 0
M  V30 2627 N 303.011 1.40521 -0.713556 0
M  V30 2628 C 303.941 2.33381 -0.0743864 0
M  V30 2629 C 304.922 1.52784 0.747735 0
M  V30 2630 O 306.107 1.81258 0.697071 0
M  V30 2631 C 303.237 3.36748 0.849598 0
M  V30 2632 C 302.191 4.27793 0.133247 0
M  V30 2633 C 301.517 5.21679 1.17281 0
M  V30 2634 C 302.817 5.12415 -1.01134 0
M  V30 2635 H 304.511 2.87081 -0.850007 0
M  V30 2636 H 302.057 1.38034 -0.410201 0
M  V30 2637 H 304.01 4.00648 1.30612 0
M  V30 2638 H 302.734 2.81439 1.65709 0
M  V30 2639 H 301.393 3.65342 -0.303426 0
M  V30 2640 H 301.041 4.62677 1.9733 0
M  V30 2641 H 300.741 5.83435 0.698397 0
M  V30 2642 H 302.265 5.88456 1.62947 0
M  V30 2643 H 303.679 5.69781 -0.634274 0
M  V30 2644 H 302.076 5.83203 -1.41399 0
M  V30 2645 H 303.146 4.48514 -1.84292 0
M  V30 2646 N 304.489 0.459591 1.5075 0
M  V30 2647 C 305.737 -0.0991532 2.01857 0
M  V30 2648 C 306.058 -1.41247 1.34441 0
M  V30 2649 O 305.328 -1.89775 0.486022 0
M  V30 2650 H 303.908 -0.039633 0.745948 0
M  V30 2651 H 306.57 0.607387 1.85194 0
M  V30 2652 H 305.666 -0.258998 3.11023 0
M  V30 2653 N 305.967 -1.56429 0.191757 0
M  V30 2654 C 306.93 -2.17707 -0.716688 0
M  V30 2655 C 307.93 -1.13061 -1.14341 0
M  V30 2656 O 309.12 -1.38464 -1.05704 0
M  V30 2657 C 306.252 -2.77644 -1.97804 0
M  V30 2658 H 307.445 -2.99342 -0.1829 0
M  V30 2659 H 304.998 -1.56193 -0.0578566 0
M  V30 2660 H 305.733 -1.99799 -2.55443 0
M  V30 2661 H 305.518 -3.54246 -1.68083 0
M  V30 2662 H 307.008 -3.24708 -2.62592 0
M  V30 2663 N 307.445 0.0818655 -1.57387 0
M  V30 2664 C 308.377 1.12484 -1.997 0
M  V30 2665 C 309.39 1.35564 -0.90146 0
M  V30 2666 O 310.579 1.33982 -1.17945 0
M  V30 2667 C 307.679 2.47778 -2.31213 0
M  V30 2668 C 306.852 2.44793 -3.62485 0
M  V30 2669 C 305.911 3.62117 -3.81782 0
M  V30 2670 O 304.937 3.44005 -4.53486 0
M  V30 2671 N 306.139 4.82094 -3.23367 0
M  V30 2672 H 308.904 0.764585 -2.89783 0
M  V30 2673 H 306.465 0.270664 -1.59621 0
M  V30 2674 H 308.457 3.24891 -2.41304 0
M  V30 2675 H 307.027 2.75843 -1.4707 0
M  V30 2676 H 306.247 1.53134 -3.6324 0
M  V30 2677 H 307.535 2.39889 -4.48699 0
M  V30 2678 H 306.933 4.99713 -2.65148 0
M  V30 2679 H 305.49 5.56753 -3.38923 0
M  V30 2680 N 308.923 1.53595 0.353017 0
M  V30 2681 C 310.334 1.61937 0.929153 0
M  V30 2682 C 310.685 0.494686 1.89861 0
M  V30 2683 O 309.81 -0.377017 2.1309 0
M  V30 2684 C 310.405 2.93526 1.69199 0
M  V30 2685 C 308.964 3.04161 2.21727 0
M  V30 2686 C 308.111 2.57322 1.03348 0
M  V30 2687 H 311.062 1.58155 0.131431 0
M  V30 2688 H 311.083 2.82034 2.55416 0
M  V30 2689 H 310.595 3.75362 0.986144 0
M  V30 2690 H 308.696 2.26938 2.95516 0
M  V30 2691 H 308.809 4.09465 2.48748 0
M  V30 2692 H 307.173 2.12499 1.40414 0
M  V30 2693 H 307.956 3.41588 0.342428 0
M  V30 2694 N 310.401 -0.613514 1.45168 0
M  V30 2695 C 311.334 -1.73809 1.47871 0
M  V30 2696 C 312.312 -1.59097 0.33568 0
M  V30 2697 O 313.496 -1.8074 0.535299 0
M  V30 2698 C 310.623 -3.11574 1.32813 0
M  V30 2699 C 309.669 -3.4489 2.50905 0
M  V30 2700 S 310.502 -3.40393 4.13392 0
M  V30 2701 C 311.658 -4.80749 4.00789 0
M  V30 2702 H 311.891 -1.71252 2.43023 0
M  V30 2703 H 309.424 -0.789658 1.32679 0
M  V30 2704 H 311.382 -3.91065 1.24812 0
M  V30 2705 H 310.043 -3.11652 0.391418 0
M  V30 2706 H 309.236 -4.45183 2.36279 0
M  V30 2707 H 308.838 -2.72901 2.55736 0
M  V30 2708 H 311.13 -5.7041 3.65567 0
M  V30 2709 H 312.073 -5.00431 5.00974 0
M  V30 2710 H 312.481 -4.56151 3.32545 0
M  V30 2711 N 311.879 -1.3236 -0.855495 0
M  V30 2712 C 312.809 -1.23833 -1.97958 0
M  V30 2713 C 313.79 -0.122361 -1.69659 0
M  V30 2714 O 314.975 -0.30939 -1.9172 0
M  V30 2715 C 312.105 -0.959772 -3.33775 0
M  V30 2716 C 311.059 -2.03689 -3.76424 0
M  V30 2717 C 310.385 -1.61075 -5.09862 0
M  V30 2718 C 311.685 -3.4518 -3.9198 0
M  V30 2719 H 313.379 -2.1788 -2.0535 0
M  V30 2720 H 310.925 -1.04891 -0.986605 0
M  V30 2721 H 312.878 -0.886678 -4.11966 0
M  V30 2722 H 311.602 0.0163404 -3.26596 0
M  V30 2723 H 310.261 -2.10012 -3.00484 0
M  V30 2724 H 309.909 -0.622107 -4.99138 0
M  V30 2725 H 309.609 -2.33143 -5.39368 0
M  V30 2726 H 311.133 -1.55201 -5.90546 0
M  V30 2727 H 312.547 -3.4145 -4.60526 0
M  V30 2728 H 310.944 -4.1559 -4.32903 0
M  V30 2729 H 312.014 -3.84903 -2.94919 0
M  V30 2730 N 313.357 1.07166 -1.15556 0
M  V30 2731 C 314.603 1.80222 -0.942961 0
M  V30 2732 C 314.958 1.85121 0.524209 0
M  V30 2733 O 314.251 1.32531 1.38369 0
M  V30 2734 C 314.445 3.24707 -1.49332 0
M  V30 2735 C 314.274 3.33887 -3.01247 0
M  V30 2736 C 313.044 3.44337 -3.69811 0
M  V30 2737 C 315.242 3.24484 -3.99017 0
M  V30 2738 N 313.224 3.42439 -5.09518 0
M  V30 2739 C 314.595 3.29726 -5.25053 0
M  V30 2740 C 316.65 3.08307 -3.90962 0
M  V30 2741 C 315.353 3.20455 -6.43973 0
M  V30 2742 C 317.379 3.00371 -5.09442 0
M  V30 2743 C 316.741 3.06227 -6.34354 0
M  V30 2744 H 312.84 0.672709 -0.398731 0
M  V30 2745 H 315.424 1.27905 -1.46794 0
M  V30 2746 H 313.595 3.7544 -0.994946 0
M  V30 2747 H 315.327 3.85894 -1.21935 0
M  V30 2748 H 312.082 3.48762 -3.20409 0
M  V30 2749 H 312.506 3.45013 -5.8249 0
M  V30 2750 H 317.148 3.02633 -2.95251 0
M  V30 2751 H 314.866 3.24888 -7.39914 0
M  V30 2752 H 318.452 2.88955 -5.04971 0
M  V30 2753 H 317.332 3.00132 -7.24493 0
M  V30 2754 N 314.835 0.952656 1.25548 0
M  V30 2755 C 316.246 0.647392 1.75116 0
M  V30 2756 C 316.597 -0.837274 1.77438 0
M  V30 2757 O 315.722 -1.65525 1.39393 0
M  V30 2758 C 316.317 1.16845 3.18014 0
M  V30 2759 C 314.876 0.913382 3.6515 0
M  V30 2760 C 314.023 1.31265 2.44264 0
M  V30 2761 H 316.974 1.12968 1.11462 0
M  V30 2762 H 316.995 0.527606 3.76824 0
M  V30 2763 H 316.507 2.24902 3.16292 0
M  V30 2764 H 314.608 -0.152316 3.72289 0
M  V30 2765 H 314.721 1.54845 4.53387 0
M  V30 2766 H 313.085 0.731028 2.43984 0
M  V30 2767 H 313.868 2.40239 2.45234 0
M  V30 2768 N 316.313 -1.40141 0.720998 0
M  V30 2769 C 317.276 -2.29058 0.0805834 0
M  V30 2770 C 318.276 -1.45632 -0.681758 0
M  V30 2771 O 319.466 -1.6648 -0.512856 0
M  V30 2772 C 316.598 -3.28925 -0.895593 0
M  V30 2773 H 317.791 -2.87191 0.863793 0
M  V30 2774 H 315.344 -1.48553 0.485975 0
M  V30 2775 H 316.079 -2.75822 -1.70566 0
M  V30 2776 H 315.864 -3.90519 -0.351766 0
M  V30 2777 H 317.354 -3.95494 -1.34069 0
M  V30 2778 N 317.792 -0.46758 -1.50504 0
M  V30 2779 C 319.038 0.0808869 -2.03239 0
M  V30 2780 C 319.393 1.37721 -1.34353 0
M  V30 2781 O 318.686 1.86016 -0.459194 0
M  V30 2782 C 318.88 0.323995 -3.55928 0
M  V30 2783 C 318.709 -0.947215 -4.39611 0
M  V30 2784 C 317.479 -1.48951 -4.82848 0
M  V30 2785 C 319.677 -1.84166 -4.80195 0
M  V30 2786 N 317.659 -2.71011 -5.50842 0
M  V30 2787 C 319.03 -2.90815 -5.47564 0
M  V30 2788 C 321.085 -1.85246 -4.62156 0
M  V30 2789 C 319.788 -3.98529 -5.98805 0
M  V30 2790 C 321.814 -2.91914 -5.14335 0
M  V30 2791 C 321.176 -3.97282 -5.81676 0
M  V30 2792 H 317.275 -0.0103394 -0.781932 0
M  V30 2793 H 319.859 -0.635003 -1.84054 0
M  V30 2794 H 318.03 1.00892 -3.75067 0
M  V30 2795 H 319.762 0.866492 -3.95315 0
M  V30 2796 H 316.517 -1.03918 -4.62058 0
M  V30 2797 H 316.941 -3.32988 -5.89447 0
M  V30 2798 H 321.583 -1.05103 -4.09528 0
M  V30 2799 H 319.301 -4.79491 -6.50472 0
M  V30 2800 H 322.887 -2.93729 -5.0221 0
M  V30 2801 H 321.767 -4.78462 -6.21324 0
M  V30 2802 N 319.27 1.56325 -0.20005 0
M  V30 2803 C 320.516 1.98012 0.438059 0
M  V30 2804 C 320.849 1.08702 1.60927 0
M  V30 2805 O 320.124 0.140064 1.93995 0
M  V30 2806 C 320.407 3.48841 0.893419 0
M  V30 2807 C 320.26 4.48928 -0.279947 0
M  V30 2808 C 321.579 4.03498 1.75719 0
M  V30 2809 H 318.698 0.719918 0.157757 0
M  V30 2810 H 321.34 1.87743 -0.291968 0
M  V30 2811 H 319.49 3.57723 1.51547 0
M  V30 2812 H 321.162 4.52079 -0.91772 0
M  V30 2813 H 319.405 4.23694 -0.930919 0
M  V30 2814 H 320.076 5.5194 0.0812601 0
M  V30 2815 H 322.552 3.97427 1.23253 0
M  V30 2816 H 321.428 5.09393 2.04476 0
M  V30 2817 H 321.689 3.4906 2.71311 0
M  V30 2818 N 320.748 -0.0735177 1.57428 0
M  V30 2819 C 321.978 -0.78483 1.91112 0
M  V30 2820 C 322.386 -1.71729 0.7941 0
M  V30 2821 O 321.729 -1.82105 -0.241542 0
M  V30 2822 C 321.791 -1.63346 3.20247 0
M  V30 2823 C 321.455 -0.870557 4.48632 0
M  V30 2824 C 322.452 -0.19058 5.19551 0
M  V30 2825 C 320.137 -0.838242 4.95256 0
M  V30 2826 C 322.131 0.511503 6.35344 0
M  V30 2827 C 319.818 -0.132386 6.10957 0
M  V30 2828 C 320.816 0.541288 6.80852 0
M  V30 2829 O 320.504 1.23578 7.94345 0
M  V30 2830 H 320.236 -0.228408 0.636244 0
M  V30 2831 H 322.79 -0.0486039 2.05342 0
M  V30 2832 H 321.02 -2.41245 3.02222 0
M  V30 2833 H 322.709 -2.22329 3.39595 0
M  V30 2834 H 323.475 -0.206864 4.84559 0
M  V30 2835 H 319.354 -1.35206 4.40727 0
M  V30 2836 H 322.898 1.03789 6.89836 0
M  V30 2837 H 318.795 -0.114023 6.45399 0
M  V30 2838 H 319.563 1.14487 8.10454 0
M  V30 2839 N 322.226 -1.5378 -0.344866 0
M  V30 2840 C 323.466 -1.72677 -1.09371 0
M  V30 2841 C 323.83 -0.479084 -1.85927 0
M  V30 2842 O 325.031 -0.54505 -2.63216 0
M  V30 2843 C 323.302 -2.95457 -2.01097 0
M  V30 2844 S 324.861 -3.35158 -2.83222 0
M  V30 2845 H 321.679 -0.607402 -0.369573 0
M  V30 2846 H 324.281 -1.91922 -0.372307 0
M  V30 2847 H 322.985 -3.84437 -1.43655 0
M  V30 2848 H 322.516 -2.78673 -2.77678 0
M  V30 2849 H 324.531 -2.88789 -4.03504 0
M  V30 2850 N 323.704 0.605807 -1.45491 0
M  V30 2851 C 324.932 1.39136 -1.5313 0
M  V30 2852 C 325.347 1.88082 -0.164507 0
M  V30 2853 O 324.704 1.62316 0.834247 0
M  V30 2854 C 324.755 2.59463 -2.51716 0
M  V30 2855 O 324.476 2.12551 -3.83084 0
M  V30 2856 C 325.977 3.52301 -2.6907 0
M  V30 2857 H 323.197 0.425849 -0.51855 0
M  V30 2858 H 325.741 0.73865 -1.90694 0
M  V30 2859 H 323.896 3.20772 -2.17219 0
M  V30 2860 H 324.31 2.90744 -4.36541 0
M  V30 2861 H 325.784 4.33271 -3.42024 0
M  V30 2862 H 326.261 4.02757 -1.75167 0
M  V30 2863 H 326.867 2.96845 -3.04571 0
M  V30 2864 N 325.182 1.32811 0.848464 0
M  V30 2865 C 326.598 1.11937 1.13764 0
M  V30 2866 C 326.798 -0.0960789 2.01271 0
M  V30 2867 O 325.854 -0.779165 2.40178 0
M  V30 2868 C 327.167 2.402 1.809 0
M  V30 2869 C 328.715 2.46016 1.93508 0
M  V30 2870 C 329.19 3.74215 2.64059 0
M  V30 2871 N 330.681 3.75232 2.71579 0
M  V30 2872 C 331.416 4.71134 3.26833 0
M  V30 2873 N 330.912 5.77406 3.8285 0
M  V30 2874 N 332.705 4.58623 3.24995 0
M  V30 2875 H 324.856 2.1073 0.265855 0
M  V30 2876 H 327.119 0.930671 0.180431 0
M  V30 2877 H 326.825 3.29093 1.24058 0
M  V30 2878 H 326.699 2.51628 2.81004 0
M  V30 2879 H 329.086 1.57577 2.49506 0
M  V30 2880 H 329.167 2.38536 0.923811 0
M  V30 2881 H 328.811 4.63031 2.08722 0
M  V30 2882 H 328.741 3.78968 3.65637 0
M  V30 2883 H 331.232 2.98423 2.31845 0
M  V30 2884 H 331.545 6.46632 4.23187 0
M  V30 2885 H 329.89 5.81152 3.81165 0
M  V30 2886 H 333.081 3.74762 2.80484 0
M  V30 2887 H 333.254 5.33535 3.67756 0
M  V30 2888 N 326.66 -1.06551 1.16123 0
M  V30 2889 C 327.89 -1.8274 0.963838 0
M  V30 2890 C 328.298 -1.82712 -0.491228 0
M  V30 2891 O 327.641 -1.24294 -1.35265 0
M  V30 2892 C 327.703 -3.3065 1.41106 0
M  V30 2893 C 327.367 -3.54384 2.88549 0
M  V30 2894 C 328.364 -3.4765 3.86569 0
M  V30 2895 C 326.049 -3.81789 3.26408 0
M  V30 2896 C 328.043 -3.67982 5.2045 0
M  V30 2897 C 325.73 -4.01772 4.60459 0
M  V30 2898 C 326.728 -3.94866 5.57288 0
M  V30 2899 O 326.416 -4.14306 6.88916 0
M  V30 2900 H 326.148 -0.583136 0.341948 0
M  V30 2901 H 328.702 -1.35351 1.54497 0
M  V30 2902 H 326.932 -3.78887 0.773394 0
M  V30 2903 H 328.621 -3.88324 1.1815 0
M  V30 2904 H 329.387 -3.2647 3.58667 0
M  V30 2905 H 325.266 -3.86276 2.51619 0
M  V30 2906 H 328.81 -3.62507 5.96015 0
M  V30 2907 H 324.707 -4.2244 4.88072 0
M  V30 2908 H 325.475 -4.31609 6.95454 0
M  V30 2909 N 328.138 -0.959301 -1.25041 0
M  V30 2910 C 329.363 -0.633507 -1.97488 0
M  V30 2911 C 329.788 0.788555 -1.70773 0
M  V30 2912 O 329.146 1.53394 -0.966431 0
M  V30 2913 C 329.194 -0.904057 -3.49083 0
M  V30 2914 O 328.298 0.0147939 -4.12397 0
M  V30 2915 H 327.639 -0.240368 -0.618966 0
M  V30 2916 H 330.169 -1.28717 -1.59038 0
M  V30 2917 H 330.179 -0.832203 -3.99423 0
M  V30 2918 H 328.854 -1.94048 -3.67856 0
M  V30 2919 H 327.431 -0.109664 -3.72739 0
M  V30 2920 N 329.616 1.39756 -0.72842 0
M  V30 2921 C 330.893 1.94574 -0.200079 0
M  V30 2922 C 331.273 1.66569 1.29684 0
M  V30 2923 O 330.621 0.990326 2.05924 0
M  V30 2924 C 330.831 3.45004 -0.526608 0
M  V30 2925 C 332.179 4.21965 -0.472318 0
M  V30 2926 O 333.203 3.53173 -0.463413 0
M  V30 2927 O 332.062 5.44552 -0.461075 0
M  V30 2928 H 329.156 0.826289 -0.0342851 0
M  V30 2929 H 331.702 1.49293 -0.806829 0
M  V30 2930 H 330.474 3.58796 -1.56144 0
M  V30 2931 H 330.097 3.97449 0.109449 0
M  V30 2932 N 331.094 0.475555 1.50254 0
M  V30 2933 C 332.51 0.12997 1.5907 0
M  V30 2934 C 332.71 -1.36385 1.48328 0
M  V30 2935 O 331.766 -2.13754 1.34407 0
M  V30 2936 C 333.079 0.684139 2.92814 0
M  V30 2937 C 334.627 0.647965 3.0622 0
M  V30 2938 C 335.102 1.17975 4.42545 0
M  V30 2939 N 336.593 1.13936 4.48969 0
M  V30 2940 C 337.328 1.52129 5.52851 0
M  V30 2941 N 336.824 1.97793 6.63965 0
M  V30 2942 N 338.617 1.43704 5.4342 0
M  V30 2943 H 330.768 1.44706 1.55479 0
M  V30 2944 H 333.031 0.598691 0.735033 0
M  V30 2945 H 332.737 1.73079 3.06164 0
M  V30 2946 H 332.611 0.130204 3.76975 0
M  V30 2947 H 334.998 -0.38979 2.92514 0
M  V30 2948 H 335.079 1.23876 2.23805 0
M  V30 2949 H 334.723 2.21616 4.57 0
M  V30 2950 H 334.653 0.565138 5.23559 0
M  V30 2951 H 337.144 0.804488 3.69238 0
M  V30 2952 H 337.457 2.25072 7.39299 0
M  V30 2953 H 335.802 2.01749 6.65073 0
M  V30 2954 H 338.993 1.07867 4.55502 0
M  V30 2955 H 339.166 1.73794 6.24259 0
M  V30 2956 N 332.573 -1.56217 0.208337 0
M  V30 2957 C 333.984 -1.84243 -0.301904 0
M  V30 2958 C 334.335 -1.12939 -1.60434 0
M  V30 2959 O 333.46 -0.39461 -2.12772 0
M  V30 2960 C 334.055 -3.34231 -0.554543 0
M  V30 2961 C 332.614 -3.62621 -1.00912 0
M  V30 2962 C 331.761 -2.77224 -0.064933 0
M  V30 2963 H 334.712 -1.52712 0.431833 0
M  V30 2964 H 334.733 -3.5372 -1.40223 0
M  V30 2965 H 334.245 -3.86099 0.393561 0
M  V30 2966 H 332.346 -3.16197 -1.97104 0
M  V30 2967 H 332.459 -4.7071 -0.892674 0
M  V30 2968 H 330.823 -2.48256 -0.56929 0
M  V30 2969 H 331.606 -3.31887 0.877851 0
M  V30 2970 N 334.051 0.0651679 -1.57465 0
M  V30 2971 C 335.276 0.779605 -1.9219 0
M  V30 2972 C 335.701 1.69988 -0.805333 0
M  V30 2973 O 335.059 1.79685 0.241435 0
M  V30 2974 C 335.107 1.54364 -3.2589 0
M  V30 2975 O 334.211 2.65474 -3.1559 0
M  V30 2976 H 333.552 0.212249 -0.629163 0
M  V30 2977 H 336.082 0.0314294 -2.04576 0
M  V30 2978 H 336.092 1.92146 -3.59922 0
M  V30 2979 H 334.767 0.868457 -4.06732 0
M  V30 2980 H 333.344 2.30501 -2.93128 0
M  V30 2981 N 335.529 1.53961 0.336706 0
M  V30 2982 C 336.754 1.75797 1.10046 0
M  V30 2983 C 337.179 0.498985 1.81361 0
M  V30 2984 O 336.537 -0.548769 1.72795 0
M  V30 2985 C 336.585 2.94257 2.08436 0
M  V30 2986 O 335.689 2.64883 3.16087 0
M  V30 2987 H 335.03 0.582936 0.317934 0
M  V30 2988 H 337.56 2.00945 0.38501 0
M  V30 2989 H 337.57 3.21237 2.51537 0
M  V30 2990 H 336.245 3.85564 1.55927 0
M  V30 2991 H 334.822 2.48812 2.77753 0
M  V30 2992 N 337.007 -0.598083 1.45811 0
M  V30 2993 C 338.255 -1.35413 1.50026 0
M  V30 2994 C 338.576 -1.94444 0.147177 0
M  V30 2995 O 337.846 -1.77701 -0.824571 0
M  V30 2996 H 336.426 -0.502727 0.552517 0
M  V30 2997 H 339.088 -0.701606 1.81834 0
M  V30 2998 H 338.184 -2.16871 2.2444 0
M  V30 2999 N 338.485 -1.33259 -0.841409 0
M  V30 3000 C 339.896 -1.22066 -1.41269 0
M  V30 3001 C 340.247 0.161479 -1.95534 0
M  V30 3002 O 339.372 1.06094 -1.88608 0
M  V30 3003 C 339.967 -2.20996 -2.568 0
M  V30 3004 C 338.526 -2.13649 -3.09888 0
M  V30 3005 C 337.673 -2.08623 -1.82679 0
M  V30 3006 H 340.624 -1.44895 -0.647395 0
M  V30 3007 H 340.645 -1.81621 -3.34356 0
M  V30 3008 H 340.157 -3.2158 -2.17274 0
M  V30 3009 H 338.258 -1.16359 -3.53965 0
M  V30 3010 H 338.371 -3.04079 -3.70234 0
M  V30 3011 H 336.735 -1.54061 -2.02824 0
M  V30 3012 H 337.518 -3.1101 -1.45353 0
M  V30 3013 N 339.963 1.05934 -1.16686 0
M  V30 3014 C 341.379 1.30938 -0.912542 0
M  V30 3015 C 341.579 1.96803 0.432533 0
M  V30 3016 O 340.635 2.23693 1.17123 0
M  V30 3017 C 341.948 2.18649 -2.06429 0
M  V30 3018 C 343.496 2.32055 -2.10047 0
M  V30 3019 C 343.971 3.23122 -3.24586 0
M  V30 3020 N 345.462 3.30706 -3.24327 0
M  V30 3021 C 346.197 4.01273 -4.09594 0
M  V30 3022 N 345.693 4.74332 -5.04956 0
M  V30 3023 N 347.486 3.97361 -3.97569 0
M  V30 3024 H 339.637 0.615777 -2.03278 0
M  V30 3025 H 341.9 0.334077 -0.887185 0
M  V30 3026 H 341.606 1.77534 -3.03603 0
M  V30 3027 H 341.48 3.19252 -2.00894 0
M  V30 3028 H 343.867 2.72415 -1.13464 0
M  V30 3029 H 343.948 1.31107 -2.19647 0
M  V30 3030 H 343.592 2.83477 -4.2143 0
M  V30 3031 H 343.522 4.24057 -3.12223 0
M  V30 3032 H 346.013 2.78644 -2.55276 0
M  V30 3033 H 346.326 5.25716 -5.6643 0
M  V30 3034 H 344.671 4.733 -5.08933 0
M  V30 3035 H 347.862 3.39405 -3.22369 0
M  V30 3036 H 348.035 4.52089 -4.64241 0
M  V30 3037 N 341.441 0.965919 1.2453 0
M  V30 3038 C 342.666 0.643971 1.97149 0
M  V30 3039 C 343.091 -0.779487 1.71189 0
M  V30 3040 O 342.449 -1.5288 0.974553 0
M  V30 3041 C 342.497 0.922557 3.48599 0
M  V30 3042 O 341.601 0.00707672 4.12399 0
M  V30 3043 H 340.942 0.243647 0.617683 0
M  V30 3044 H 343.472 1.29558 1.58353 0
M  V30 3045 H 343.482 0.853373 3.98976 0
M  V30 3046 H 342.157 1.95996 3.66822 0
M  V30 3047 H 340.734 0.12943 3.72675 0
M  V30 3048 N 342.919 -1.39368 0.735821 0
M  V30 3049 C 344.335 -1.54204 0.411492 0
M  V30 3050 C 344.535 -1.70268 -1.07755 0
M  V30 3051 O 343.591 -1.70364 -1.86366 0
M  V30 3052 C 344.904 -2.75925 1.19523 0
M  V30 3053 C 346.452 -2.89761 1.18354 0
M  V30 3054 C 346.927 -4.14421 1.94986 0
M  V30 3055 N 348.418 -4.21462 1.92156 0
M  V30 3056 C 349.153 -5.16871 2.48258 0
M  V30 3057 N 348.649 -6.18063 3.13001 0
M  V30 3058 N 350.442 -5.09093 2.38287 0
M  V30 3059 H 342.593 -1.27189 1.70108 0
M  V30 3060 H 344.856 -0.616517 0.720147 0
M  V30 3061 H 344.562 -2.70401 2.24892 0
M  V30 3062 H 344.436 -3.68614 0.800222 0
M  V30 3063 H 346.823 -2.94777 0.137975 0
M  V30 3064 H 346.904 -1.98133 1.61793 0
M  V30 3065 H 346.548 -4.10166 2.99543 0
M  V30 3066 H 346.478 -5.05095 1.48953 0
M  V30 3067 H 348.969 -3.48979 1.44991 0
M  V30 3068 H 349.282 -6.87326 3.53275 0
M  V30 3069 H 347.627 -6.18448 3.17091 0
M  V30 3070 H 350.818 -4.28973 1.8735 0
M  V30 3071 H 350.991 -5.83272 2.82308 0
M  V30 3072 N 344.397 -0.483516 -1.5 0
M  V30 3073 C 345.344 0.304164 -2.28787 0
M  V30 3074 C 346.314 0.976114 -1.34392 0
M  V30 3075 O 347.499 0.986156 -1.63339 0
M  V30 3076 C 344.639 1.37298 -3.16612 0
M  V30 3077 C 343.752 0.714561 -4.26049 0
M  V30 3078 C 342.887 1.76232 -5.01114 0
M  V30 3079 C 341.926 1.08483 -6.0241 0
M  V30 3080 N 341.063 2.076 -6.70706 0
M  V30 3081 H 345.903 -0.373981 -2.95644 0
M  V30 3082 H 343.44 -0.196275 -1.45785 0
M  V30 3083 H 345.398 2.00445 -3.65893 0
M  V30 3084 H 344.028 2.02012 -2.51776 0
M  V30 3085 H 343.08 -0.0297798 -3.80388 0
M  V30 3086 H 344.392 0.180383 -4.98474 0
M  V30 3087 H 343.546 2.46929 -5.54176 0
M  V30 3088 H 342.285 2.33033 -4.28424 0
M  V30 3089 H 341.29 0.363545 -5.48597 0
M  V30 3090 H 342.515 0.523551 -6.77079 0
M  V30 3091 H 340.461 2.63394 -6.00799 0
M  V30 3092 H 340.378 1.59201 -7.39047 0
M  V30 3093 H 341.646 2.77639 -7.2838 0
M  V30 3094 N 345.875 1.56104 -0.216619 0
M  V30 3095 C 347.286 1.844 0.292128 0
M  V30 3096 C 347.637 1.13788 1.59833 0
M  V30 3097 O 346.762 0.405888 2.12559 0
M  V30 3098 C 347.357 3.3452 0.53681 0
M  V30 3099 C 345.916 3.63151 0.989876 0
M  V30 3100 C 345.063 2.77255 0.0502302 0
M  V30 3101 H 348.014 1.52481 -0.439926 0
M  V30 3102 H 348.035 3.54459 1.38345 0
M  V30 3103 H 347.547 3.85885 -0.414031 0
M  V30 3104 H 345.648 3.17238 1.95425 0
M  V30 3105 H 345.761 4.71177 0.867698 0
M  V30 3106 H 344.125 2.48555 0.556117 0
M  V30 3107 H 344.908 3.31416 -0.89544 0
M  V30 3108 N 347.353 -0.0568162 1.57498 0
M  V30 3109 C 348.3 -1.06591 2.04712 0
M  V30 3110 C 349.27 -1.3758 0.930644 0
M  V30 3111 O 350.455 -1.48392 1.19935 0
M  V30 3112 C 347.595 -2.3701 2.50839 0
M  V30 3113 C 346.708 -2.12421 3.76167 0
M  V30 3114 C 345.843 -3.36511 4.11015 0
M  V30 3115 C 344.882 -3.07353 5.2934 0
M  V30 3116 N 344.019 -4.23816 5.59754 0
M  V30 3117 H 348.859 -0.65631 2.90683 0
M  V30 3118 H 346.396 -0.312481 1.43743 0
M  V30 3119 H 348.354 -3.13175 2.7564 0
M  V30 3120 H 346.984 -2.75744 1.67825 0
M  V30 3121 H 346.036 -1.2688 3.58616 0
M  V30 3122 H 347.348 -1.86894 4.62463 0
M  V30 3123 H 346.502 -4.21062 4.36797 0
M  V30 3124 H 345.241 -3.65128 3.23315 0
M  V30 3125 H 344.246 -2.212 5.03339 0
M  V30 3126 H 345.471 -2.80043 6.1867 0
M  V30 3127 H 343.417 -4.52436 4.75014 0
M  V30 3128 H 343.334 -4.01614 6.40501 0
M  V30 3129 H 344.602 -5.0932 5.90096 0
M  V30 3130 N 348.832 -1.54138 -0.328536 0
M  V30 3131 C 349.779 -1.83176 -1.40411 0
M  V30 3132 C 350.749 -0.678494 -1.5161 0
M  V30 3133 O 351.934 -0.92443 -1.6691 0
M  V30 3134 C 349.074 -2.06035 -2.76846 0
M  V30 3135 C 348.187 -3.33727 -2.74318 0
M  V30 3136 C 347.322 -3.46574 -4.02567 0
M  V30 3137 C 346.361 -4.68159 -3.94327 0
M  V30 3138 N 345.498 -4.77959 -5.14296 0
M  V30 3139 H 350.338 -2.74938 -1.14948 0
M  V30 3140 H 347.875 -1.36166 -0.556538 0
M  V30 3141 H 349.833 -2.1728 -3.56153 0
M  V30 3142 H 348.463 -1.1757 -3.00628 0
M  V30 3143 H 347.515 -3.31246 -1.8703 0
M  V30 3144 H 348.827 -4.23139 -2.64111 0
M  V30 3145 H 347.981 -3.57333 -4.90304 0
M  V30 3146 H 346.72 -2.55245 -4.15574 0
M  V30 3147 H 345.725 -4.57461 -3.04974 0
M  V30 3148 H 346.95 -5.60868 -3.82889 0
M  V30 3149 H 344.896 -3.89544 -5.27818 0
M  V30 3150 H 344.813 -5.6133 -5.06404 0
M  V30 3151 H 346.081 -4.93044 -6.03761 0
M  V30 3152 N 350.31 0.590341 -1.46126 0
M  V30 3153 C 351.257 1.69994 -1.56111 0
M  V30 3154 C 352.227 1.61065 -0.405867 0
M  V30 3155 O 353.412 1.8039 -0.621613 0
M  V30 3156 C 350.552 3.08326 -1.55013 0
M  V30 3157 C 349.665 3.27936 -2.81215 0
M  V30 3158 C 348.8 4.56473 -2.71673 0
M  V30 3159 C 347.839 4.694 -3.92849 0
M  V30 3160 N 346.976 5.89254 -3.81738 0
M  V30 3161 H 351.816 1.60797 -2.50895 0
M  V30 3162 H 349.353 0.783799 -1.24479 0
M  V30 3163 H 351.311 3.88383 -1.52362 0
M  V30 3164 H 349.941 3.16439 -0.637667 0
M  V30 3165 H 348.993 2.41536 -2.93879 0
M  V30 3166 H 350.305 3.33357 -3.71045 0
M  V30 3167 H 349.459 5.44748 -2.67085 0
M  V30 3168 H 348.198 4.53477 -1.7947 0
M  V30 3169 H 347.203 3.79544 -3.97777 0
M  V30 3170 H 348.428 4.7418 -4.86138 0
M  V30 3171 H 346.374 5.87271 -2.92317 0
M  V30 3172 H 346.291 5.95911 -4.65217 0
M  V30 3173 H 347.559 6.79981 -3.81112 0
M  V30 3174 N 351.788 1.33704 0.83433 0
M  V30 3175 C 352.736 1.24323 1.96587 0
M  V30 3176 C 353.73 0.143659 1.6879 0
M  V30 3177 O 354.936 0.30791 1.77347 0
M  V30 3178 H 351.311 0.385925 0.645419 0
M  V30 3179 H 353.282 2.19978 2.01624 0
M  V30 3180 C 352.031 1.00394 3.32891 0
M  V30 3181 H 351.354 1.84231 3.54822 0
M  V30 3182 H 352.794 0.97862 4.12552 0
M  V30 3183 C 351.253 -0.293047 3.35623 0
M  V30 3184 O 351.783 -1.29823 3.80143 0
M  V30 3185 N 349.989 -0.322174 2.88809 0
M  V30 3186 H 349.536 0.496379 2.52772 0
M  V30 3187 H 349.494 -1.18977 2.91019 0
M  V30 3188 N 353.266 -1.05314 1.17247 0
M  V30 3189 C 354.677 -1.59753 0.96623 0
M  V30 3190 C 355.028 -1.9005 -0.487378 0
M  V30 3191 O 354.153 -1.68126 -1.36245 0
M  V30 3192 C 354.748 -2.90249 1.74759 0
M  V30 3193 C 353.307 -3.41352 1.58606 0
M  V30 3194 C 352.454 -2.15103 1.75002 0
M  V30 3195 H 355.405 -0.881406 1.31973 0
M  V30 3196 H 355.426 -3.60097 1.22925 0
M  V30 3197 H 354.938 -2.68166 2.8055 0
M  V30 3198 H 353.039 -3.68474 0.552985 0
M  V30 3199 H 353.152 -4.16019 2.37624 0
M  V30 3200 H 351.516 -2.25804 1.17833 0
M  V30 3201 H 352.299 -1.95491 2.82202 0
M  V30 3202 N 354.744 -0.972509 -1.24016 0
M  V30 3203 C 355.692 -0.498562 -2.27194 0
M  V30 3204 C 356.686 0.440372 -1.63576 0
M  V30 3205 O 357.892 0.315133 -1.7722 0
M  V30 3206 H 354.267 -0.142775 -0.738322 0
M  V30 3207 H 356.238 -1.38065 -2.64539 0
M  V30 3208 C 354.987 0.191072 -3.47175 0
M  V30 3209 H 354.31 -0.522318 -3.96373 0
M  V30 3210 H 355.75 0.486445 -4.212 0
M  V30 3211 C 354.209 1.41967 -3.05527 0
M  V30 3212 O 354.739 2.51642 -3.13112 0
M  V30 3213 N 352.945 1.28746 -2.60524 0
M  V30 3214 H 352.492 0.395089 -2.54552 0
M  V30 3215 H 352.45 2.11061 -2.33025 0
M  V30 3216 N 356.222 1.38976 -0.743202 0
M  V30 3217 C 357.169 2.30544 -0.10861 0
M  V30 3218 C 358.139 1.49642 0.720869 0
M  V30 3219 O 359.324 1.78304 0.679142 0
M  V30 3220 C 356.464 3.36018 0.786496 0
M  V30 3221 C 355.577 4.31963 -0.0564849 0
M  V30 3222 C 354.712 5.24506 0.840657 0
M  V30 3223 C 353.751 6.121 -0.00658363 0
M  V30 3224 N 352.888 6.96973 0.846943 0
M  V30 3225 H 357.728 2.8424 -0.895088 0
M  V30 3226 H 355.265 1.3995 -0.453048 0
M  V30 3227 H 357.223 3.95768 1.31999 0
M  V30 3228 H 355.853 2.83758 1.53887 0
M  V30 3229 H 354.905 3.73763 -0.707492 0
M  V30 3230 H 356.217 4.93703 -0.711229 0
M  V30 3231 H 355.371 5.89322 1.4417 0
M  V30 3232 H 354.11 4.63107 1.52916 0
M  V30 3233 H 353.115 5.46289 -0.620366 0
M  V30 3234 H 354.34 6.75565 -0.691992 0
M  V30 3235 H 352.286 6.38133 1.52059 0
M  V30 3236 H 352.203 7.5559 0.248864 0
M  V30 3237 H 353.471 7.6621 1.43328 0
M  V30 3238 N 357.7 0.491464 1.49741 0
M  V30 3239 C 358.61 -0.296835 2.32715 0
M  V30 3240 C 359.626 -0.976536 1.44013 0
M  V30 3241 O 360.802 -0.960023 1.77047 0
M  V30 3242 C 357.867 -1.35288 3.19215 0
M  V30 3243 C 356.928 -0.687632 4.23757 0
M  V30 3244 C 356.161 -1.69336 5.06123 0
M  V30 3245 O 356.384 -2.92219 4.89861 0
M  V30 3246 O 355.318 -1.25394 5.88693 0
M  V30 3247 H 359.144 0.382048 3.01287 0
M  V30 3248 H 356.729 0.252953 1.47243 0
M  V30 3249 H 358.611 -1.96411 3.72828 0
M  V30 3250 H 357.286 -2.01487 2.53347 0
M  V30 3251 H 356.193 -0.0369159 3.74082 0
M  V30 3252 H 357.526 -0.0682566 4.92153 0
M  V30 3253 N 359.178 -1.55987 0.224894 0
M  V30 3254 C 360.455 -1.90232 -0.455083 0
M  V30 3255 C 360.835 -1.14269 -1.77499 0
M  V30 3256 O 360.183 -0.253079 -2.27094 0
M  V30 3257 C 360.393 -3.42993 -0.644758 0
M  V30 3258 C 361.741 -4.13821 -0.950669 0
M  V30 3259 O 362.765 -3.4861 -0.731423 0
M  V30 3260 O 361.624 -5.29128 -1.36695 0
M  V30 3261 H 358.718 -0.79108 -0.241084 0
M  V30 3262 H 361.264 -1.67581 0.267327 0
M  V30 3263 H 360.036 -3.90252 0.28613 0
M  V30 3264 H 359.659 -3.71434 -1.41853 0
M  V30 3265 N 360.656 0.0484629 -1.57525 0
M  V30 3266 C 361.603 1.05504 -2.05275 0
M  V30 3267 C 362.573 1.37084 -0.937927 0
M  V30 3268 O 363.758 1.47754 -1.2072 0
M  V30 3269 C 360.898 2.35676 -2.52093 0
M  V30 3270 C 360.011 2.10423 -3.77288 0
M  V30 3271 C 359.146 3.34327 -4.12794 0
M  V30 3272 C 358.185 3.04542 -5.30962 0
M  V30 3273 N 357.322 4.20841 -5.61994 0
M  V30 3274 H 362.162 0.640885 -2.91027 0
M  V30 3275 H 359.699 0.304854 -1.43906 0
M  V30 3276 H 361.657 3.11709 -2.77297 0
M  V30 3277 H 360.287 2.7485 -1.69285 0
M  V30 3278 H 359.339 1.24976 -3.59284 0
M  V30 3279 H 360.651 1.84438 -4.63448 0
M  V30 3280 H 359.805 4.1874 -4.39024 0
M  V30 3281 H 358.544 3.63408 -3.25247 0
M  V30 3282 H 357.549 2.18528 -5.04505 0
M  V30 3283 H 358.774 2.76758 -6.20146 0
M  V30 3284 H 356.72 4.4991 -4.77406 0
M  V30 3285 H 356.637 3.98212 -6.42622 0
M  V30 3286 H 357.905 5.06184 -5.92789 0
M  V30 3287 N 362.134 1.5431 0.320358 0
M  V30 3288 C 363.55 1.45091 0.664889 0
M  V30 3289 C 363.75 0.626382 1.91517 0
M  V30 3290 O 362.806 0.126443 2.52183 0
M  V30 3291 C 364.119 2.88848 0.83591 0
M  V30 3292 C 365.667 2.9877 0.933046 0
M  V30 3293 C 366.142 4.43683 1.13621 0
M  V30 3294 N 367.633 4.47309 1.20287 0
M  V30 3295 C 368.368 5.56595 1.37801 0
M  V30 3296 N 367.864 6.75844 1.52338 0
M  V30 3297 N 369.657 5.44248 1.40535 0
M  V30 3298 H 361.808 2.06398 -0.501374 0
M  V30 3299 H 364.071 0.933963 -0.162534 0
M  V30 3300 H 363.777 3.51698 -0.0116092 0
M  V30 3301 H 363.651 3.35148 1.73078 0
M  V30 3302 H 366.038 2.36045 1.77107 0
M  V30 3303 H 366.119 2.55796 0.0145782 0
M  V30 3304 H 365.763 5.06995 0.303032 0
M  V30 3305 H 365.693 4.84269 2.0686 0
M  V30 3306 H 368.184 3.61388 1.10485 0
M  V30 3307 H 368.497 7.54892 1.65403 0
M  V30 3308 H 366.842 6.78746 1.4943 0
M  V30 3309 H 370.033 4.50038 1.28777 0
M  V30 3310 H 370.206 6.29473 1.53842 0
M  V30 3311 N 363.613 -0.582584 1.46437 0
M  V30 3312 C 365.024 -1.1647 1.45916 0
M  V30 3313 C 365.375 -1.95177 0.200077 0
M  V30 3314 O 364.5 -2.04874 -0.696819 0
M  V30 3315 C 365.095 -2.11885 2.64367 0
M  V30 3316 C 363.654 -2.65421 2.66887 0
M  V30 3317 C 362.801 -1.41294 2.38603 0
M  V30 3318 H 365.752 -0.370514 1.54314 0
M  V30 3319 H 365.773 -2.9535 2.39892 0
M  V30 3320 H 365.285 -1.54573 3.5599 0
M  V30 3321 H 363.386 -3.26602 1.79338 0
M  V30 3322 H 363.499 -3.08147 3.66854 0
M  V30 3323 H 361.863 -1.71109 1.88663 0
M  V30 3324 H 362.646 -0.858125 3.32402 0
M  V30 3325 N 365.091 -1.34144 -0.827227 0
M  V30 3326 C 366.507 -1.13732 -1.11969 0
M  V30 3327 C 366.707 0.0640463 -2.01398 0
M  V30 3328 O 365.763 0.740856 -2.41387 0
M  V30 3329 C 367.076 -2.43047 -1.77055 0
M  V30 3330 C 368.624 -2.49063 -1.89569 0
M  V30 3331 C 369.099 -3.78369 -2.58072 0
M  V30 3332 N 370.59 -3.79505 -2.65575 0
M  V30 3333 C 371.325 -4.76274 -3.19297 0
M  V30 3334 N 370.821 -5.83424 -3.73616 0
M  V30 3335 N 372.614 -4.63735 -3.17658 0
M  V30 3336 H 364.765 -2.11126 -0.232296 0
M  V30 3337 H 367.028 -0.933424 -0.165602 0
M  V30 3338 H 366.734 -3.31025 -1.18807 0
M  V30 3339 H 366.608 -2.56066 -2.76966 0
M  V30 3340 H 368.995 -1.61527 -2.46968 0
M  V30 3341 H 369.076 -2.39975 -0.885745 0
M  V30 3342 H 368.72 -4.66293 -2.01329 0
M  V30 3343 H 368.65 -3.84737 -3.59562 0
M  V30 3344 H 371.141 -3.02074 -2.27068 0
M  V30 3345 H 371.454 -6.53282 -4.12846 0
M  V30 3346 H 369.799 -5.87143 -3.71871 0
M  V30 3347 H 372.99 -3.79177 -2.74486 0
M  V30 3348 H 373.163 -5.39318 -3.59221 0
M  V30 3349 N 366.569 1.04691 -1.17803 0
M  V30 3350 C 367.797 1.81446 -0.99423 0
M  V30 3351 C 368.212 1.83174 0.457459 0
M  V30 3352 O 367.569 1.26265 1.31771 0
M  V30 3353 C 367.62 3.27334 -1.5341 0
M  V30 3354 O 367.341 3.25798 -2.92895 0
M  V30 3355 C 368.842 4.20759 -1.39559 0
M  V30 3356 H 366.062 0.571599 -0.351447 0
M  V30 3357 H 368.606 1.31982 -1.56208 0
M  V30 3358 H 366.761 3.74052 -1.00815 0
M  V30 3359 H 367.175 4.17144 -3.17949 0
M  V30 3360 H 368.649 5.21084 -1.82141 0
M  V30 3361 H 369.126 4.37856 -0.343394 0
M  V30 3362 H 369.732 3.79901 -1.91195 0
M  V30 3363 N 368.047 0.979072 1.23499 0
M  V30 3364 C 369.01 0.523244 2.23147 0
M  V30 3365 C 370.01 -0.386406 1.56088 0
M  V30 3366 O 371.2 -0.180283 1.73265 0
M  V30 3367 C 368.332 -0.240739 3.40049 0
M  V30 3368 H 369.525 1.40432 2.64989 0
M  V30 3369 H 367.078 0.764824 1.36309 0
M  V30 3370 H 367.813 -1.13841 3.03662 0
M  V30 3371 H 367.598 0.412207 3.89927 0
M  V30 3372 H 369.088 -0.548297 4.13985 0
M  V30 3373 N 369.525 -1.3858 0.750561 0
M  V30 3374 C 370.772 -2.00184 0.305373 0
M  V30 3375 C 371.1 -1.59575 -1.11203 0
M  V30 3376 O 370.355 -0.823236 -1.77542 0
M  V30 3377 C 370.654 -3.55455 0.372373 0
M  V30 3378 C 370.32 -4.15765 1.745 0
M  V30 3379 C 368.982 -4.31951 2.12065 0
M  V30 3380 C 371.334 -4.49067 2.64553 0
M  V30 3381 C 368.662 -4.78734 3.39162 0
M  V30 3382 C 371.014 -4.97265 3.91038 0
M  V30 3383 C 369.678 -5.11658 4.28676 0
M  V30 3384 H 368.948 -0.732526 0.111744 0
M  V30 3385 H 371.595 -1.65673 0.960451 0
M  V30 3386 H 369.9 -3.90084 -0.366272 0
M  V30 3387 H 371.597 -4.00999 0.00953918 0
M  V30 3388 H 368.187 -4.03579 1.44297 0
M  V30 3389 H 372.371 -4.36166 2.36796 0
M  V30 3390 H 367.627 -4.88062 3.68246 0
M  V30 3391 H 371.801 -5.22003 4.60962 0
M  V30 3392 H 369.428 -5.47668 5.27222 0
M  V30 3393 N 371.003 -0.499398 -1.49478 0
M  V30 3394 C 372.231 0.0425456 -2.06856 0
M  V30 3395 C 372.646 1.30964 -1.35992 0
M  V30 3396 O 372.003 1.77172 -0.437762 0
M  V30 3397 C 372.054 0.301735 -3.60239 0
M  V30 3398 O 371.775 -0.915127 -4.28436 0
M  V30 3399 C 373.276 0.887499 -4.34325 0
M  V30 3400 H 370.496 -0.0197482 -0.670709 0
M  V30 3401 H 373.04 -0.696297 -1.92281 0
M  V30 3402 H 371.195 0.990556 -3.74522 0
M  V30 3403 H 371.609 -0.676993 -5.20113 0
M  V30 3404 H 373.083 1.01845 -5.42523 0
M  V30 3405 H 373.56 1.88488 -3.96698 0
M  V30 3406 H 374.166 0.236196 -4.24644 0
M  V30 3407 N 372.481 1.55866 -0.233164 0
M  V30 3408 C 373.444 2.1953 0.658715 0
M  V30 3409 C 374.444 1.16053 1.11303 0
M  V30 3410 O 375.634 1.41218 1.01996 0
M  V30 3411 C 372.766 2.82791 1.90373 0
M  V30 3412 H 373.959 2.99721 0.10347 0
M  V30 3413 H 371.512 1.56291 0.0164245 0
M  V30 3414 H 372.247 2.06501 2.50056 0
M  V30 3415 H 372.032 3.58578 1.58632 0
M  V30 3416 H 373.522 3.31556 2.53891 0
M  V30 3417 N 373.959 -0.0401083 1.57549 0
M  V30 3418 C 374.869 -1.06133 2.0922 0
M  V30 3419 C 375.885 -1.40356 1.0284 0
M  V30 3420 O 377.061 -1.49897 1.34509 0
M  V30 3421 C 374.126 -2.34658 2.55218 0
M  V30 3422 C 373.187 -2.07117 3.76033 0
M  V30 3423 C 372.42 -3.29514 4.19829 0
M  V30 3424 O 372.643 -4.39794 3.63232 0
M  V30 3425 O 371.577 -3.15863 5.12362 0
M  V30 3426 H 375.403 -0.652244 2.96613 0
M  V30 3427 H 372.988 -0.256368 1.47184 0
M  V30 3428 H 374.87 -3.10239 2.85184 0
M  V30 3429 H 373.545 -2.74883 1.70941 0
M  V30 3430 H 372.452 -1.29139 3.51104 0
M  V30 3431 H 373.785 -1.71754 4.61261 0
M  V30 3432 N 375.437 -1.54477 -0.31217 0
M  V30 3433 C 376.369 -1.81011 -1.40598 0
M  V30 3434 C 377.382 -0.692546 -1.47335 0
M  V30 3435 O 378.571 -0.969847 -1.49854 0
M  V30 3436 C 375.671 -1.92307 -2.79054 0
M  V30 3437 C 374.844 -3.22594 -2.95384 0
M  V30 3438 C 373.903 -3.24448 -4.1427 0
M  V30 3439 O 372.929 -3.98035 -4.06887 0
M  V30 3440 N 374.131 -2.49042 -5.24365 0
M  V30 3441 H 376.896 -2.75408 -1.18196 0
M  V30 3442 H 374.457 -1.53914 -0.502202 0
M  V30 3443 H 376.449 -1.90962 -3.56813 0
M  V30 3444 H 375.019 -1.04955 -2.94454 0
M  V30 3445 H 374.239 -3.36806 -2.04831 0
M  V30 3446 H 375.527 -4.08593 -3.03198 0
M  V30 3447 H 374.925 -1.88867 -5.33241 0
M  V30 3448 H 373.482 -2.53463 -6.005 0
M  V30 3449 N 376.915 0.57481 -1.46744 0
M  V30 3450 C 377.845 1.69337 -1.60771 0
M  V30 3451 C 378.826 1.63825 -0.457736 0
M  V30 3452 O 380.011 1.8172 -0.684947 0
M  V30 3453 C 377.141 3.0798 -1.60517 0
M  V30 3454 C 376.095 3.28327 -2.74564 0
M  V30 3455 C 375.421 4.67578 -2.59373 0
M  V30 3456 C 376.721 3.15398 -4.16319 0
M  V30 3457 H 378.415 1.57853 -2.54407 0
M  V30 3458 H 375.961 0.75799 -1.22436 0
M  V30 3459 H 377.914 3.86061 -1.68923 0
M  V30 3460 H 376.638 3.20381 -0.634305 0
M  V30 3461 H 375.297 2.52649 -2.65639 0
M  V30 3462 H 374.945 4.76755 -1.60353 0
M  V30 3463 H 374.645 4.82144 -3.35873 0
M  V30 3464 H 376.169 5.47817 -2.69682 0
M  V30 3465 H 377.583 3.83315 -4.26313 0
M  V30 3466 H 375.98 3.41482 -4.93468 0
M  V30 3467 H 377.05 2.12372 -4.3592 0
M  V30 3468 N 378.394 1.34581 0.820102 0
M  V30 3469 C 379.326 1.22236 1.93884 0
M  V30 3470 C 380.339 0.148776 1.62119 0
M  V30 3471 O 381.528 0.400877 1.7394 0
M  V30 3472 C 378.628 0.856542 3.27897 0
M  V30 3473 C 377.801 2.02569 3.87666 0
M  V30 3474 C 376.86 1.63782 5.00062 0
M  V30 3475 O 375.886 2.35477 5.18208 0
M  V30 3476 N 377.088 0.553611 5.77854 0
M  V30 3477 H 379.853 2.18615 2.05006 0
M  V30 3478 H 377.414 1.27573 0.99683 0
M  V30 3479 H 379.406 0.578806 4.0054 0
M  V30 3480 H 377.976 -0.0171518 3.12595 0
M  V30 3481 H 377.196 2.468 3.07382 0
M  V30 3482 H 378.484 2.80752 4.24329 0
M  V30 3483 H 377.882 -0.0423528 5.65684 0
M  V30 3484 H 376.439 0.335614 6.50935 0
M  V30 3485 N 379.872 -1.04064 1.18357 0
M  V30 3486 C 381.288 -1.2947 0.933258 0
M  V30 3487 C 381.488 -1.97466 -0.401169 0
M  V30 3488 O 380.544 -2.25528 -1.13549 0
M  V30 3489 C 381.857 -2.15337 2.09882 0
M  V30 3490 C 383.405 -2.28683 2.13712 0
M  V30 3491 C 383.88 -3.17917 3.29686 0
M  V30 3492 N 385.371 -3.25504 3.29547 0
M  V30 3493 C 386.106 -3.94706 4.15926 0
M  V30 3494 N 385.602 -4.66239 5.12439 0
M  V30 3495 N 387.395 -3.90986 4.0384 0
M  V30 3496 H 379.546 -0.583359 2.04232 0
M  V30 3497 H 381.809 -0.319921 0.892387 0
M  V30 3498 H 381.515 -1.72682 3.06389 0
M  V30 3499 H 381.389 -3.16015 2.05947 0
M  V30 3500 H 383.776 -2.70575 1.17784 0
M  V30 3501 H 383.857 -1.27596 2.21705 0
M  V30 3502 H 383.501 -2.76736 4.25887 0
M  V30 3503 H 383.431 -4.19036 3.1893 0
M  V30 3504 H 385.922 -2.74547 2.59677 0
M  V30 3505 H 386.235 -5.16638 5.74722 0
M  V30 3506 H 384.58 -4.65143 5.16398 0
M  V30 3507 H 387.771 -3.34234 3.27727 0
M  V30 3508 H 387.944 -4.44646 4.71375 0
M  V30 3509 N 381.35 -0.985608 -1.22978 0
M  V30 3510 C 382.28 -0.549649 -2.26939 0
M  V30 3511 C 383.261 0.419803 -1.64838 0
M  V30 3512 O 384.446 0.31203 -1.91677 0
M  V30 3513 C 381.576 0.143652 -3.47003 0
M  V30 3514 C 380.53 -0.743606 -4.21491 0
M  V30 3515 C 379.856 0.0822027 -5.34637 0
M  V30 3516 C 381.156 -2.03694 -4.80943 0
M  V30 3517 H 382.85 -1.41862 -2.63658 0
M  V30 3518 H 380.396 -0.683571 -1.26741 0
M  V30 3519 H 382.349 0.459985 -4.18882 0
M  V30 3520 H 381.073 1.04711 -3.09359 0
M  V30 3521 H 379.732 -1.04347 -3.51436 0
M  V30 3522 H 379.38 0.986359 -4.93234 0
M  V30 3523 H 379.08 -0.508377 -5.85397 0
M  V30 3524 H 380.604 0.392797 -6.09335 0
M  V30 3525 H 382.018 -1.78504 -5.44802 0
M  V30 3526 H 380.415 -2.57573 -5.42011 0
M  V30 3527 H 381.485 -2.72042 -4.01399 0
M  V30 3528 N 382.828 1.3818 -0.7579 0
M  V30 3529 C 383.775 2.30416 -0.133057 0
M  V30 3530 C 384.745 1.50398 0.704957 0
M  V30 3531 O 385.93 1.79014 0.660192 0
M  V30 3532 C 383.07 3.36834 0.750813 0
M  V30 3533 C 382.183 4.31879 -0.102297 0
M  V30 3534 C 381.318 5.25368 0.784979 0
M  V30 3535 C 380.357 6.12058 -0.0715046 0
M  V30 3536 N 379.494 6.97832 0.772972 0
M  V30 3537 H 384.334 2.83274 -0.925186 0
M  V30 3538 H 381.871 1.39461 -0.467866 0
M  V30 3539 H 383.829 3.97145 1.27794 0
M  V30 3540 H 382.459 2.85374 1.50868 0
M  V30 3541 H 381.511 3.72991 -0.747095 0
M  V30 3542 H 382.823 4.92921 -0.763552 0
M  V30 3543 H 381.977 5.90818 1.37911 0
M  V30 3544 H 380.716 4.64703 1.47996 0
M  V30 3545 H 379.721 5.456 -0.678272 0
M  V30 3546 H 380.946 6.74793 -0.763606 0
M  V30 3547 H 378.892 6.3971 1.45282 0
M  V30 3548 H 378.809 7.55812 0.168709 0
M  V30 3549 H 380.077 7.67687 1.35194 0
M  V30 3550 N 384.306 0.507319 1.49211 0
M  V30 3551 C 385.269 -0.256763 2.27757 0
M  V30 3552 C 386.269 -0.888287 1.34038 0
M  V30 3553 O 387.459 -0.751841 1.5714 0
M  V30 3554 C 384.591 -1.36905 3.12202 0
M  V30 3555 H 385.784 0.432557 2.96764 0
M  V30 3556 H 383.337 0.262488 1.5408 0
M  V30 3557 H 384.072 -2.09233 2.47775 0
M  V30 3558 H 383.857 -0.921599 3.81115 0
M  V30 3559 H 385.347 -1.9071 3.7151 0
M  V30 3560 N 385.784 -1.5574 0.241426 0
M  V30 3561 C 386.694 -2.2479 -0.671305 0
M  V30 3562 C 387.71 -1.26217 -1.19772 0
M  V30 3563 O 388.886 -1.59079 -1.23514 0
M  V30 3564 C 385.951 -2.92966 -1.85396 0
M  V30 3565 C 385.012 -4.06935 -1.36756 0
M  V30 3566 C 384.245 -4.71851 -2.49384 0
M  V30 3567 O 384.468 -4.35823 -3.67987 0
M  V30 3568 O 383.402 -5.60467 -2.19454 0
M  V30 3569 H 387.228 -3.0349 -0.112966 0
M  V30 3570 H 384.813 -1.49397 0.0101513 0
M  V30 3571 H 386.695 -3.35927 -2.54423 0
M  V30 3572 H 385.37 -2.17211 -2.40002 0
M  V30 3573 H 384.277 -3.68503 -0.644726 0
M  V30 3574 H 385.61 -4.84492 -0.867647 0
M  V30 3575 N 387.262 0.0317525 -1.57568 0
M  V30 3576 C 388.509 0.723104 -1.89149 0
M  V30 3577 C 388.837 1.75504 -0.838377 0
M  V30 3578 O 388.092 1.95037 0.160982 0
M  V30 3579 C 388.391 1.43167 -3.27472 0
M  V30 3580 C 388.057 0.535972 -4.47703 0
M  V30 3581 C 386.719 0.289262 -4.8033 0
M  V30 3582 C 389.071 -0.0826125 -5.21135 0
M  V30 3583 C 386.399 -0.584853 -5.83778 0
M  V30 3584 C 388.751 -0.944414 -6.25511 0
M  V30 3585 C 387.415 -1.20061 -6.56614 0
M  V30 3586 H 386.685 0.264602 -0.692146 0
M  V30 3587 H 389.332 -0.0169496 -1.91492 0
M  V30 3588 H 387.637 2.24497 -3.21105 0
M  V30 3589 H 389.334 1.97209 -3.49155 0
M  V30 3590 H 385.924 0.738414 -4.22191 0
M  V30 3591 H 390.108 0.0950302 -4.96209 0
M  V30 3592 H 385.364 -0.79168 -6.06253 0
M  V30 3593 H 389.538 -1.43026 -6.81554 0
M  V30 3594 H 387.165 -1.87967 -7.36595 0
M  V30 3595 N 388.74 1.54641 0.303973 0
M  V30 3596 C 389.672 1.81754 1.39636 0
M  V30 3597 C 390.685 0.70035 1.46966 0
M  V30 3598 O 391.874 0.97778 1.49338 0
M  V30 3599 C 388.974 1.93785 2.7803 0
M  V30 3600 C 388.147 3.24156 2.93669 0
M  V30 3601 C 387.206 3.26641 4.12544 0
M  V30 3602 O 386.232 4.00187 4.04771 0
M  V30 3603 N 387.434 2.5182 5.23036 0
M  V30 3604 H 390.199 2.76031 1.16734 0
M  V30 3605 H 387.76 1.54178 0.494033 0
M  V30 3606 H 389.752 1.92852 3.55795 0
M  V30 3607 H 388.322 1.06515 2.93893 0
M  V30 3608 H 387.542 3.37887 2.03042 0
M  V30 3609 H 388.83 4.10195 3.01027 0
M  V30 3610 H 388.228 1.91692 5.32232 0
M  V30 3611 H 386.785 2.56644 5.99147 0
M  V30 3612 N 390.218 -0.567019 1.47046 0
M  V30 3613 C 391.446 -1.35027 1.56765 0
M  V30 3614 C 391.861 -1.8758 0.214316 0
M  V30 3615 O 391.218 -1.64471 -0.790919 0
M  V30 3616 C 391.269 -2.52698 2.58507 0
M  V30 3617 O 390.99 -2.0232 3.88585 0
M  V30 3618 C 392.491 -3.45043 2.78316 0
M  V30 3619 H 389.711 -0.41195 0.529658 0
M  V30 3620 H 392.255 -0.687832 1.92585 0
M  V30 3621 H 390.41 -3.149 2.25648 0
M  V30 3622 H 390.824 -2.79068 4.44096 0
M  V30 3623 H 392.298 -4.2405 3.53391 0
M  V30 3624 H 392.775 -3.97971 1.85784 0
M  V30 3625 H 393.381 -2.88665 3.12334 0
M  V30 3626 N 391.696 -1.35014 -0.812953 0
M  V30 3627 C 392.644 -1.27435 -1.94585 0
M  V30 3628 C 393.638 -0.170494 -1.6854 0
M  V30 3629 O 394.844 -0.336085 -1.76835 0
M  V30 3630 H 391.219 -0.396144 -0.639198 0
M  V30 3631 H 393.19 -2.23158 -1.98098 0
M  V30 3632 C 391.939 -1.05677 -3.31252 0
M  V30 3633 H 391.262 -1.89853 -3.51846 0
M  V30 3634 H 392.702 -1.04413 -4.10943 0
M  V30 3635 C 391.161 0.239615 -3.36047 0
M  V30 3636 O 391.691 1.23759 -3.8216 0
M  V30 3637 N 389.897 0.276186 -2.89285 0
M  V30 3638 H 389.444 -0.53653 -2.51951 0
M  V30 3639 H 389.402 1.14332 -2.92875 0
M  V30 3640 N 393.175 1.03435 -1.18907 0
M  V30 3641 C 394.591 1.28973 -0.940111 0
M  V30 3642 C 394.791 1.97676 0.390691 0
M  V30 3643 O 393.847 2.26127 1.12352 0
M  V30 3644 C 395.16 2.14221 -2.11021 0
M  V30 3645 C 396.708 2.27547 -2.14922 0
M  V30 3646 C 397.183 3.16164 -3.31367 0
M  V30 3647 N 398.674 3.23752 -3.31269 0
M  V30 3648 C 399.409 3.92495 -4.18014 0
M  V30 3649 N 398.905 4.63515 -5.14904 0
M  V30 3650 N 400.698 3.88838 -4.05908 0
M  V30 3651 H 392.849 0.57252 -2.04538 0
M  V30 3652 H 395.112 0.315184 -0.894071 0
M  V30 3653 H 394.818 1.71054 -3.073 0
M  V30 3654 H 394.692 3.14919 -2.0762 0
M  V30 3655 H 397.079 2.69947 -1.19217 0
M  V30 3656 H 397.16 1.26418 -2.22378 0
M  V30 3657 H 396.804 2.74474 -4.27348 0
M  V30 3658 H 396.734 4.17339 -3.21148 0
M  V30 3659 H 399.225 2.73167 -2.61129 0
M  V30 3660 H 399.538 5.13583 -5.77453 0
M  V30 3661 H 397.883 4.62398 -5.18857 0
M  V30 3662 H 401.074 3.32491 -3.29495 0
M  V30 3663 H 401.247 4.4214 -4.73726 0
M  V30 3664 N 394.653 0.992116 1.22453 0
M  V30 3665 C 395.883 0.684949 1.94915 0
M  V30 3666 C 396.291 -0.754292 1.73514 0
M  V30 3667 O 395.634 -1.52056 1.03076 0
M  V30 3668 C 395.696 0.910054 3.47791 0
M  V30 3669 C 395.36 2.33363 3.92926 0
M  V30 3670 C 396.357 3.31308 4.00663 0
M  V30 3671 C 394.042 2.66785 4.25595 0
M  V30 3672 C 396.036 4.6075 4.40441 0
M  V30 3673 C 393.723 3.96446 4.65053 0
M  V30 3674 C 394.721 4.9324 4.72444 0
M  V30 3675 O 394.409 6.20584 5.1101 0
M  V30 3676 H 394.141 0.25258 0.62704 0
M  V30 3677 H 396.695 1.32939 1.56577 0
M  V30 3678 H 394.925 0.208443 3.86138 0
M  V30 3679 H 396.614 0.598257 4.01467 0
M  V30 3680 H 397.38 3.0682 3.75615 0
M  V30 3681 H 393.259 1.92148 4.19047 0
M  V30 3682 H 396.803 5.363 4.46126 0
M  V30 3683 H 392.7 4.20724 4.89552 0
M  V30 3684 H 393.468 6.24509 5.29085 0
M  V30 3685 N 396.131 -1.37776 0.765217 0
M  V30 3686 C 397.061 -2.32945 0.160953 0
M  V30 3687 C 398.042 -1.55454 -0.690516 0
M  V30 3688 O 399.227 -1.83721 -0.629318 0
M  V30 3689 C 396.357 -3.39669 -0.724031 0
M  V30 3690 C 395.311 -4.27992 0.0256173 0
M  V30 3691 C 394.637 -5.25673 -0.978383 0
M  V30 3692 C 395.937 -5.08309 1.20082 0
M  V30 3693 H 397.631 -2.83728 0.955969 0
M  V30 3694 H 395.177 -1.36416 0.461149 0
M  V30 3695 H 397.13 -4.05219 -1.15652 0
M  V30 3696 H 395.854 -2.87396 -1.5515 0
M  V30 3697 H 394.513 -3.63964 0.438812 0
M  V30 3698 H 394.161 -4.69682 -1.80022 0
M  V30 3699 H 393.861 -5.85625 -0.481378 0
M  V30 3700 H 395.385 -5.94098 -1.40995 0
M  V30 3701 H 396.799 -5.67034 0.845307 0
M  V30 3702 H 395.196 -5.77554 1.62947 0
M  V30 3703 H 396.266 -4.41365 2.00811 0
M  V30 3704 N 397.609 -0.515225 -1.4894 0
M  V30 3705 C 398.837 0.0206034 -2.0689 0
M  V30 3706 C 399.252 1.29514 -1.37374 0
M  V30 3707 O 398.609 1.76698 -0.456529 0
M  V30 3708 C 398.66 0.26351 -3.60538 0
M  V30 3709 O 398.381 -0.960517 -4.27441 0
M  V30 3710 C 399.882 0.841383 -4.35242 0
M  V30 3711 H 397.102 -0.0268608 -0.670462 0
M  V30 3712 H 399.646 -0.716651 -1.91532 0
M  V30 3713 H 397.801 0.950777 -3.75552 0
M  V30 3714 H 398.215 -0.73212 -5.19365 0
M  V30 3715 H 399.689 0.96085 -5.43573 0
M  V30 3716 H 400.166 1.8427 -3.98674 0
M  V30 3717 H 400.772 0.191143 -4.2487 0
M  V30 3718 N 399.087 1.5561 -0.249682 0
M  V30 3719 C 399.997 2.25143 0.659375 0
M  V30 3720 C 401.013 1.2685 1.19101 0
M  V30 3721 O 402.189 1.59732 1.22669 0
M  V30 3722 C 399.254 2.93945 1.8384 0
M  V30 3723 C 398.315 4.07655 1.34596 0
M  V30 3724 C 397.548 4.73167 2.46878 0
M  V30 3725 O 397.771 4.37768 3.65671 0
M  V30 3726 O 396.705 5.61623 2.16478 0
M  V30 3727 H 400.531 3.03545 0.0968698 0
M  V30 3728 H 398.116 1.49389 -0.018074 0
M  V30 3729 H 399.998 3.37271 2.52638 0
M  V30 3730 H 398.673 2.18481 2.38847 0
M  V30 3731 H 397.58 3.68839 0.625174 0
M  V30 3732 H 398.913 4.84946 0.841941 0
M  V30 3733 N 400.565 -0.0233959 1.57583 0
M  V30 3734 C 401.497 -1.04994 2.03737 0
M  V30 3735 C 402.51 -1.32125 0.951152 0
M  V30 3736 O 403.699 -1.29512 1.22837 0
M  V30 3737 C 400.799 -2.39026 2.40249 0
M  V30 3738 C 399.972 -2.31171 3.7132 0
M  V30 3739 C 399.031 -3.47698 3.94959 0
M  V30 3740 O 398.057 -3.26937 4.65941 0
M  V30 3741 N 399.259 -4.6976 3.41037 0
M  V30 3742 H 402.024 -0.656507 2.92421 0
M  V30 3743 H 399.585 -0.211235 1.60516 0
M  V30 3744 H 401.577 -3.15712 2.53196 0
M  V30 3745 H 400.147 -2.70194 1.57207 0
M  V30 3746 H 399.367 -1.39547 3.68674 0
M  V30 3747 H 400.655 -2.23071 4.57293 0
M  V30 3748 H 400.053 -4.89528 2.83512 0
M  V30 3749 H 398.61 -5.43791 3.59353 0
M  V30 3750 N 402.043 -1.548 -0.295768 0
M  V30 3751 C 403.459 -1.4613 -0.641722 0
M  V30 3752 C 403.659 -0.656771 -1.90496 0
M  V30 3753 O 402.715 -0.166547 -2.5195 0
M  V30 3754 C 404.028 -2.90141 -0.789852 0
M  V30 3755 C 405.576 -3.00216 -0.885396 0
M  V30 3756 C 406.051 -4.45434 -1.06548 0
M  V30 3757 N 407.542 -4.49166 -1.13156 0
M  V30 3758 C 408.277 -5.58717 -1.28929 0
M  V30 3759 N 407.773 -6.78182 -1.41567 0
M  V30 3760 N 409.566 -5.46415 -1.31859 0
M  V30 3761 H 401.717 -2.05574 0.534147 0
M  V30 3762 H 403.98 -0.931259 0.177372 0
M  V30 3763 H 403.686 -3.51635 0.0675598 0
M  V30 3764 H 403.56 -3.37859 -1.67724 0
M  V30 3765 H 405.947 -2.38833 -1.73329 0
M  V30 3766 H 406.028 -2.55787 0.0261185 0
M  V30 3767 H 405.672 -5.07413 -0.222335 0
M  V30 3768 H 405.602 -4.87499 -1.9913 0
M  V30 3769 H 408.093 -3.631 -1.04721 0
M  V30 3770 H 408.406 -7.57428 -1.53372 0
M  V30 3771 H 406.751 -6.81037 -1.38613 0
M  V30 3772 H 409.942 -4.5203 -1.21601 0
M  V30 3773 H 410.115 -6.31841 -1.43808 0
M  V30 3774 N 403.521 0.559213 -1.47345 0
M  V30 3775 C 404.937 0.884943 -1.32819 0
M  V30 3776 C 405.137 1.98988 -0.317173 0
M  V30 3777 O 404.193 2.51031 0.272011 0
M  V30 3778 C 405.506 1.28007 -2.72093 0
M  V30 3779 C 407.054 1.39161 -2.80363 0
M  V30 3780 C 407.529 1.82031 -4.20272 0
M  V30 3781 N 409.02 1.89185 -4.22804 0
M  V30 3782 C 409.755 2.2368 -5.27973 0
M  V30 3783 N 409.251 2.56802 -6.43447 0
M  V30 3784 N 411.044 2.24436 -5.15349 0
M  V30 3785 H 403.195 -0.170304 -2.11716 0
M  V30 3786 H 405.458 -0.0135247 -0.947904 0
M  V30 3787 H 405.164 0.542027 -3.47498 0
M  V30 3788 H 405.038 2.23665 -3.03733 0
M  V30 3789 H 407.425 2.12048 -2.05231 0
M  V30 3790 H 407.506 0.41696 -2.52379 0
M  V30 3791 H 407.15 1.09715 -4.95908 0
M  V30 3792 H 407.08 2.80495 -4.45679 0
M  V30 3793 H 409.571 1.65982 -3.39497 0
M  V30 3794 H 409.884 2.82144 -7.19454 0
M  V30 3795 H 408.229 2.54387 -6.46771 0
M  V30 3796 H 411.42 1.97998 -4.24163 0
M  V30 3797 H 411.593 2.50989 -5.97418 0
M  V30 3798 N 404.999 1.35443 0.805782 0
M  V30 3799 C 405.931 1.24285 1.92577 0
M  V30 3800 C 406.944 0.165962 1.61952 0
M  V30 3801 O 408.133 0.419303 1.73505 0
M  V30 3802 C 405.233 0.891272 3.2697 0
M  V30 3803 C 404.406 2.06669 3.85495 0
M  V30 3804 C 403.465 1.69077 4.98297 0
M  V30 3805 O 402.491 2.4096 5.15681 0
M  V30 3806 N 403.693 0.614869 5.77234 0
M  V30 3807 H 406.458 2.20777 2.02676 0
M  V30 3808 H 404.019 1.28623 0.983243 0
M  V30 3809 H 406.011 0.621256 3.99903 0
M  V30 3810 H 404.581 0.016004 3.12596 0
M  V30 3811 H 403.801 2.50046 3.04747 0
M  V30 3812 H 405.089 2.85237 4.21328 0
M  V30 3813 H 404.487 0.017648 5.65697 0
M  V30 3814 H 403.044 0.404636 6.50543 0
M  V30 3815 N 406.477 -1.02803 1.19454 0
M  V30 3816 C 407.702 -1.80378 1.02364 0
M  V30 3817 C 408.127 -1.83282 -0.423007 0
M  V30 3818 O 407.485 -1.25945 -1.30413 0
M  V30 3819 C 407.533 -3.23248 1.59821 0
M  V30 3820 O 406.637 -4.04 0.828105 0
M  V30 3821 H 405.978 -0.556799 0.361761 0
M  V30 3822 H 408.508 -1.29385 1.58495 0
M  V30 3823 H 408.518 -3.73994 1.63073 0
M  V30 3824 H 407.193 -3.2045 2.65113 0
M  V30 3825 H 405.77 -3.62635 0.86891 0
M  V30 3826 N 407.956 -0.998596 -1.21925 0
M  V30 3827 C 408.886 -0.573688 -2.26343 0
M  V30 3828 C 409.867 0.402296 -1.65274 0
M  V30 3829 O 411.052 0.291683 -1.91997 0
M  V30 3830 C 408.182 0.106839 -3.47136 0
M  V30 3831 C 407.136 -0.788269 -4.20678 0
M  V30 3832 C 406.462 0.0254927 -5.34694 0
M  V30 3833 C 407.762 -2.08784 -4.78755 0
M  V30 3834 H 409.456 -1.44651 -2.62138 0
M  V30 3835 H 407.002 -0.696975 -1.26009 0
M  V30 3836 H 408.955 0.415531 -4.19346 0
M  V30 3837 H 407.679 1.01424 -3.10452 0
M  V30 3838 H 406.338 -1.08069 -3.50309 0
M  V30 3839 H 405.986 0.933989 -4.94253 0
M  V30 3840 H 405.686 -0.570437 -5.84825 0
M  V30 3841 H 407.21 0.328147 -6.09718 0
M  V30 3842 H 408.624 -1.84272 -5.42878 0
M  V30 3843 H 407.021 -2.63307 -5.39249 0
M  V30 3844 H 408.091 -2.76284 -3.98491 0
M  V30 3845 N 409.434 1.37368 -0.772513 0
M  V30 3846 C 410.397 2.28601 -0.165541 0
M  V30 3847 C 411.397 1.48062 0.627238 0
M  V30 3848 O 412.587 1.68268 0.450715 0
M  V30 3849 C 409.719 3.32023 0.772897 0
M  V30 3850 H 410.912 2.83787 -0.969787 0
M  V30 3851 H 408.465 1.46647 -0.540775 0
M  V30 3852 H 409.2 2.81962 1.60212 0
M  V30 3853 H 408.985 3.91555 0.206585 0
M  V30 3854 H 410.475 4.00197 1.19298 0
M  V30 3855 N 410.912 0.523116 1.48665 0
M  V30 3856 C 411.844 -0.280421 2.27478 0
M  V30 3857 C 412.857 -0.910694 1.34945 0
M  V30 3858 O 414.046 -0.790295 1.60052 0
M  V30 3859 C 411.146 -1.41171 3.08097 0
M  V30 3860 C 410.319 -0.884642 4.28361 0
M  V30 3861 C 409.378 -1.89622 4.90846 0
M  V30 3862 O 408.404 -1.4559 5.50265 0
M  V30 3863 N 409.606 -3.22801 4.82472 0
M  V30 3864 H 412.371 0.395481 2.97079 0
M  V30 3865 H 409.932 0.357018 1.57915 0
M  V30 3866 H 411.924 -2.08645 3.4677 0
M  V30 3867 H 410.494 -1.99139 2.40961 0
M  V30 3868 H 409.714 -0.0341177 3.94185 0
M  V30 3869 H 411.002 -0.511268 5.06225 0
M  V30 3870 H 410.4 -3.61246 4.35336 0
M  V30 3871 H 408.957 -3.85927 5.25265 0
M  V30 3872 N 412.39 -1.55475 0.257931 0
M  V30 3873 C 413.3 -2.2549 -0.647425 0
M  V30 3874 C 414.316 -1.2748 -1.18427 0
M  V30 3875 O 415.492 -1.6038 -1.2182 0
M  V30 3876 C 412.557 -2.94916 -1.82278 0
M  V30 3877 C 411.618 -4.08363 -1.32432 0
M  V30 3878 C 410.851 -4.74469 -2.44366 0
M  V30 3879 O 411.074 -4.39701 -3.63344 0
M  V30 3880 O 410.008 -5.62763 -2.13497 0
M  V30 3881 H 413.834 -3.03593 -0.0807707 0
M  V30 3882 H 411.419 -1.49377 0.0259962 0
M  V30 3883 H 413.301 -3.38606 -2.50846 0
M  V30 3884 H 411.976 -2.19744 -2.37685 0
M  V30 3885 H 410.883 -3.69166 -0.605605 0
M  V30 3886 H 412.216 -4.85385 -0.816211 0
M  V30 3887 N 413.868 0.0150385 -1.57593 0
M  V30 3888 C 414.798 1.01047 -2.10503 0
M  V30 3889 C 415.779 1.36816 -1.01071 0
M  V30 3890 O 416.964 1.45455 -1.28672 0
M  V30 3891 C 414.094 2.30708 -2.59598 0
M  V30 3892 C 413.048 2.09142 -3.73421 0
M  V30 3893 C 412.374 3.44685 -4.08774 0
M  V30 3894 C 413.674 1.46619 -5.01298 0
M  V30 3895 H 415.368 0.569978 -2.93925 0
M  V30 3896 H 412.914 0.272724 -1.41394 0
M  V30 3897 H 414.867 3.00687 -2.95238 0
M  V30 3898 H 413.591 2.76843 -1.73279 0
M  V30 3899 H 412.25 1.41592 -3.38153 0
M  V30 3900 H 411.898 3.88495 -3.195 0
M  V30 3901 H 411.598 3.31077 -4.8545 0
M  V30 3902 H 413.122 4.16004 -4.4696 0
M  V30 3903 H 414.536 2.06535 -5.34805 0
M  V30 3904 H 412.933 1.43544 -5.82679 0
M  V30 3905 H 414.003 0.433611 -4.82957 0
M  V30 3906 N 415.346 1.54954 0.287554 0
M  V30 3907 C 416.571 1.79209 1.04397 0
M  V30 3908 C 416.996 0.556431 1.79682 0
M  V30 3909 O 416.354 -0.493518 1.74454 0
M  V30 3910 C 416.402 3.00739 1.98969 0
M  V30 3911 O 415.506 2.74805 3.075 0
M  V30 3912 H 414.847 0.592755 0.299227 0
M  V30 3913 H 417.377 2.02068 0.320886 0
M  V30 3914 H 417.387 3.29077 2.4119 0
M  V30 3915 H 416.062 3.90329 1.43582 0
M  V30 3916 H 414.639 2.57523 2.69697 0
M  V30 3917 N 416.824 -0.551391 1.4764 0
M  V30 3918 C 417.754 -1.66757 1.63445 0
M  V30 3919 C 418.735 -1.63077 0.483742 0
M  V30 3920 O 419.92 -1.80607 0.71377 0
M  V30 3921 C 417.05 -3.05387 1.65396 0
M  V30 3922 C 416.004 -3.23918 2.79752 0
M  V30 3923 C 415.33 -4.63393 2.66779 0
M  V30 3924 C 416.63 -3.08735 4.21284 0
M  V30 3925 H 418.324 -1.53786 2.56886 0
M  V30 3926 H 415.87 -0.738415 1.23626 0
M  V30 3927 H 417.823 -3.83325 1.75043 0
M  V30 3928 H 416.547 -3.19332 0.685195 0
M  V30 3929 H 415.206 -2.48391 2.69625 0
M  V30 3930 H 414.854 -4.74144 1.67918 0
M  V30 3931 H 414.554 -4.7674 3.43501 0
M  V30 3932 H 416.078 -5.43458 2.78364 0
M  V30 3933 H 417.492 -3.76484 4.32357 0
M  V30 3934 H 415.889 -3.33588 4.98838 0
M  V30 3935 H 416.959 -2.0541 4.39243 0
M  V30 3936 N 418.302 -1.35869 -0.798587 0
M  V30 3937 C 419.25 -1.29491 -1.93222 0
M  V30 3938 C 420.244 -0.18836 -1.6835 0
M  V30 3939 O 421.45 -0.354822 -1.76468 0
M  V30 3940 H 417.825 -0.402901 -0.63496 0
M  V30 3941 H 419.796 -2.25247 -1.9572 0
M  V30 3942 C 418.545 -1.09184 -3.30112 0
M  V30 3943 H 417.868 -1.93574 -3.49813 0
M  V30 3944 H 419.308 -1.08766 -4.09812 0
M  V30 3945 C 417.767 0.203959 -3.36282 0
M  V30 3946 O 418.297 1.19699 -3.83451 0
M  V30 3947 N 416.503 0.245488 -2.89561 0
M  V30 3948 H 416.05 -0.563223 -2.51367 0
M  V30 3949 H 416.008 1.11219 -2.94071 0
M  V30 3950 N 419.78 1.02168 -1.19998 0
M  V30 3951 C 420.69 2.14069 -0.959774 0
M  V30 3952 C 421.706 1.73804 0.082655 0
M  V30 3953 O 422.882 2.01133 -0.103633 0
M  V30 3954 C 419.947 3.42936 -0.509459 0
M  V30 3955 C 419.008 3.97474 -1.62213 0
M  V30 3956 C 418.241 5.2019 -1.19321 0
M  V30 3957 O 418.464 5.70369 -0.0597726 0
M  V30 3958 O 417.398 5.67749 -1.99863 0
M  V30 3959 H 421.224 2.37199 -1.89658 0
M  V30 3960 H 418.809 1.12469 -0.983411 0
M  V30 3961 H 420.691 4.20551 -0.267322 0
M  V30 3962 H 419.366 3.21234 0.398821 0
M  V30 3963 H 418.273 3.21161 -1.9185 0
M  V30 3964 H 419.606 4.23555 -2.50723 0
M  V30 3965 N 421.258 1.00505 1.21394 0
M  V30 3966 C 422.483 0.706367 1.95001 0
M  V30 3967 C 422.908 -0.72463 1.73582 0
M  V30 3968 O 422.266 -1.49702 1.0227 0
M  V30 3969 C 422.314 1.03299 3.45487 0
M  V30 3970 O 421.418 0.138275 4.12168 0
M  V30 3971 H 420.759 0.263175 0.609619 0
M  V30 3972 H 423.289 1.34531 1.54151 0
M  V30 3973 H 423.299 0.979872 3.96059 0
M  V30 3974 H 421.974 2.07567 3.60401 0
M  V30 3975 H 420.551 0.247928 3.72075 0
M  V30 3976 N 422.737 -1.36956 0.779787 0
M  V30 3977 C 423.669 -2.28833 0.129639 0
M  V30 3978 C 424.682 -1.4902 -0.655511 0
M  V30 3979 O 425.871 -1.71578 -0.492279 0
M  V30 3980 C 422.971 -3.2833 -0.839792 0
M  V30 3981 C 422.144 -4.3727 -0.10675 0
M  V30 3982 C 421.203 -5.16789 -0.990717 0
M  V30 3983 O 420.229 -5.67406 -0.451516 0
M  V30 3984 N 421.431 -5.32294 -2.3161 0
M  V30 3985 H 424.196 -2.85268 0.918803 0
M  V30 3986 H 421.757 -1.49019 0.632841 0
M  V30 3987 H 423.749 -3.78413 -1.43477 0
M  V30 3988 H 422.319 -2.72605 -1.52988 0
M  V30 3989 H 421.539 -3.88478 0.669216 0
M  V30 3990 H 422.827 -5.07229 0.399464 0
M  V30 3991 H 422.225 -4.92768 -2.77843 0
M  V30 3992 H 420.782 -5.85656 -2.86095 0
M  V30 3993 N 424.215 -0.530993 -1.48385 0
M  V30 3994 C 425.464 0.00474348 -2.01699 0
M  V30 3995 C 425.777 1.35227 -1.41325 0
M  V30 3996 O 426.983 1.97643 -1.86144 0
M  V30 3997 C 425.439 0.0588473 -3.59852 0
M  V30 3998 C 425.047 -1.28385 -4.2921 0
M  V30 3999 C 426.791 0.543358 -4.21008 0
M  V30 4000 C 424.698 -1.19028 -5.79298 0
M  V30 4001 H 423.628 0.00554317 -0.75398 0
M  V30 4002 H 426.279 -0.674924 -1.70637 0
M  V30 4003 H 424.661 0.803612 -3.8776 0
M  V30 4004 H 425.835 -2.04426 -4.12973 0
M  V30 4005 H 424.15 -1.70418 -3.7993 0
M  V30 4006 H 426.747 0.631351 -5.3096 0
M  V30 4007 H 427.09 1.54937 -3.86394 0
M  V30 4008 H 427.623 -0.145754 -3.97533 0
M  V30 4009 H 424.362 -2.17147 -6.18488 0
M  V30 4010 H 423.882 -0.471246 -5.97946 0
M  V30 4011 H 425.561 -0.881365 -6.40969 0
M  V30 4012 N 425.693 1.55336 -0.266172 0
M  V30 4013 C 426.64 2.22172 0.625165 0
M  V30 4014 C 427.61 1.19211 1.15663 0
M  V30 4015 O 428.795 1.47723 1.20758 0
M  V30 4016 C 425.935 2.93972 1.8076 0
M  V30 4017 C 425.048 4.11632 1.31084 0
M  V30 4018 C 424.183 4.71099 2.45436 0
M  V30 4019 C 423.222 5.8097 1.92718 0
M  V30 4020 N 422.359 6.34538 3.00509 0
M  V30 4021 H 427.199 2.9796 0.0485582 0
M  V30 4022 H 424.736 1.47095 0.0122024 0
M  V30 4023 H 426.694 3.33811 2.50251 0
M  V30 4024 H 425.324 2.20623 2.35638 0
M  V30 4025 H 424.376 3.76975 0.509326 0
M  V30 4026 H 425.688 4.90893 0.884633 0
M  V30 4027 H 424.842 5.13612 3.22936 0
M  V30 4028 H 423.581 3.91096 2.91368 0
M  V30 4029 H 422.586 5.37916 1.13695 0
M  V30 4030 H 423.811 6.62836 1.47733 0
M  V30 4031 H 421.757 5.57433 3.45839 0
M  V30 4032 H 421.674 7.09046 2.62279 0
M  V30 4033 H 422.942 6.81709 3.78011 0
M  V30 4034 N 427.171 -0.0066808 1.57599 0
M  V30 4035 C 428.42 -0.692078 1.89455 0
M  V30 4036 C 428.733 -1.75306 0.867586 0
M  V30 4037 O 429.939 -2.49262 1.07614 0
M  V30 4038 C 428.395 -1.2821 3.36289 0
M  V30 4039 C 428.003 -0.256291 4.47266 0
M  V30 4040 C 429.747 -1.94608 3.77264 0
M  V30 4041 C 427.654 -0.855927 5.85173 0
M  V30 4042 H 426.584 -0.262252 0.706923 0
M  V30 4043 H 429.235 0.052769 1.83424 0
M  V30 4044 H 427.617 -2.0774 3.37135 0
M  V30 4045 H 428.791 0.513923 4.57925 0
M  V30 4046 H 427.106 0.306862 4.15268 0
M  V30 4047 H 429.703 -2.40364 4.77629 0
M  V30 4048 H 430.046 -2.77382 3.10427 0
M  V30 4049 H 430.579 -1.21822 3.78688 0
M  V30 4050 H 427.318 -0.0671161 6.55466 0
M  V30 4051 H 426.838 -1.59546 5.78191 0
M  V30 4052 H 428.517 -1.35658 6.32618 0
M  V30 4053 N 428.649 -1.55105 -0.279332 0
M  V30 4054 C 429.895 -1.76597 -1.00921 0
M  V30 4055 C 430.25 -0.556831 -1.84166 0
M  V30 4056 O 429.543 0.450573 -1.86227 0
M  V30 4057 C 429.737 -3.0086 -1.92919 0
M  V30 4058 C 429.566 -4.33744 -1.18728 0
M  V30 4059 C 428.336 -4.9712 -0.905545 0
M  V30 4060 C 430.534 -5.11009 -0.580857 0
M  V30 4061 N 428.516 -6.13749 -0.136169 0
M  V30 4062 C 429.887 -6.19976 0.0546661 0
M  V30 4063 C 431.942 -4.95502 -0.488067 0
M  V30 4064 C 430.645 -7.15123 0.774028 0
M  V30 4065 C 432.671 -5.90999 0.217688 0
M  V30 4066 C 432.033 -6.9935 0.841975 0
M  V30 4067 H 428.132 -0.698553 -0.351493 0
M  V30 4068 H 430.716 -1.92595 -0.285531 0
M  V30 4069 H 428.887 -2.86249 -2.62519 0
M  V30 4070 H 430.619 -3.10784 -2.59221 0
M  V30 4071 H 427.374 -4.57903 -1.20921 0
M  V30 4072 H 427.798 -6.7659 0.235665 0
M  V30 4073 H 432.44 -4.11841 -0.956406 0
M  V30 4074 H 430.158 -7.9831 1.25407 0
M  V30 4075 H 433.744 -5.81078 0.289717 0
M  V30 4076 H 432.624 -7.71973 1.37939 0
M  V30 4077 N 430.127 0.543554 -1.4793 0
M  V30 4078 C 431.374 1.30008 -1.55255 0
M  V30 4079 C 431.702 1.93245 -0.220612 0
M  V30 4080 O 430.957 1.79141 0.787843 0
M  V30 4081 C 431.256 2.42078 -2.62932 0
M  V30 4082 C 430.922 1.96583 -4.0579 0
M  V30 4083 C 429.584 1.83893 -4.44676 0
M  V30 4084 C 431.936 1.62034 -4.95373 0
M  V30 4085 C 429.264 1.34969 -5.70964 0
M  V30 4086 C 431.616 1.14577 -6.22137 0
M  V30 4087 C 430.28 1.00493 -6.59892 0
M  V30 4088 H 429.55 0.475735 -0.568117 0
M  V30 4089 H 432.197 0.608075 -1.81589 0
M  V30 4090 H 430.502 3.16892 -2.30406 0
M  V30 4091 H 432.199 3.00236 -2.65818 0
M  V30 4092 H 428.789 2.07407 -3.75074 0
M  V30 4093 H 432.973 1.70705 -4.66019 0
M  V30 4094 H 428.229 1.2274 -5.98953 0
M  V30 4095 H 432.403 0.869109 -6.90955 0
M  V30 4096 H 430.03 0.623624 -7.57638 0
M  V30 4097 N 431.605 1.3629 0.791371 0
M  V30 4098 C 432.537 1.26321 1.91248 0
M  V30 4099 C 433.55 0.18313 1.61767 0
M  V30 4100 O 434.739 0.437682 1.73051 0
M  V30 4101 C 431.839 0.925901 3.26007 0
M  V30 4102 C 431.012 2.10746 3.83281 0
M  V30 4103 C 430.071 1.74352 4.96475 0
M  V30 4104 O 429.097 2.46416 5.13096 0
M  V30 4105 N 430.299 0.676058 5.7655 0
M  V30 4106 H 433.064 2.22915 2.00323 0
M  V30 4107 H 430.625 1.29659 0.969546 0
M  V30 4108 H 432.617 0.663636 3.99222 0
M  V30 4109 H 431.187 0.0491581 3.12561 0
M  V30 4110 H 430.407 2.53264 3.02077 0
M  V30 4111 H 431.695 2.8969 4.18279 0
M  V30 4112 H 431.093 0.0776467 5.65647 0
M  V30 4113 H 429.65 0.473612 6.50077 0
M  V30 4114 N 433.083 -1.0153 1.20538 0
M  V30 4115 C 434.031 -2.12215 0.952235 0
M  V30 4116 C 435.025 -1.69123 -0.0968735 0
M  V30 4117 O 436.231 -1.7992 0.0536006 0
M  V30 4118 H 432.606 -0.693576 0.290613 0
M  V30 4119 H 434.577 -2.3075 1.89201 0
M  V30 4120 C 433.326 -3.43755 0.522287 0
M  V30 4121 H 432.649 -3.7734 1.32115 0
M  V30 4122 H 434.089 -4.22254 0.384389 0
M  V30 4123 C 432.548 -3.28088 -0.765489 0
M  V30 4124 O 433.078 -3.57921 -1.8236 0
M  V30 4125 N 431.284 -2.81333 -0.728011 0
M  V30 4126 H 430.831 -2.57255 0.133332 0
M  V30 4127 H 430.789 -2.71232 -1.58999 0
M  V30 4128 N 434.561 -1.01147 -1.20859 0
M  V30 4129 C 435.508 -0.577354 -2.23462 0
M  V30 4130 C 436.478 0.399922 -1.61214 0
M  V30 4131 O 437.663 0.300515 -1.88419 0
M  V30 4132 C 434.803 0.083372 -3.44999 0
M  V30 4133 C 433.916 -0.937856 -4.21697 0
M  V30 4134 C 433.051 -0.248717 -5.30617 0
M  V30 4135 C 432.09 -1.25705 -5.99053 0
M  V30 4136 N 431.227 -0.594939 -6.99575 0
M  V30 4137 H 436.067 -1.45695 -2.59956 0
M  V30 4138 H 433.604 -0.729428 -1.27741 0
M  V30 4139 H 435.562 0.483535 -4.14388 0
M  V30 4140 H 434.192 0.926645 -3.09214 0
M  V30 4141 H 433.244 -1.45622 -3.51423 0
M  V30 4142 H 434.556 -1.70493 -4.68757 0
M  V30 4143 H 433.71 0.207215 -6.06346 0
M  V30 4144 H 432.449 0.55071 -4.84581 0
M  V30 4145 H 431.454 -1.72343 -5.2209 0
M  V30 4146 H 432.679 -2.05767 -6.47176 0
M  V30 4147 H 430.625 0.184713 -6.5574 0
M  V30 4148 H 430.542 -1.30017 -7.44736 0
M  V30 4149 H 431.81 -0.162427 -7.79331 0
M  V30 4150 N 436.039 1.36541 -0.78704 0
M  V30 4151 C 437.455 1.52571 -0.46844 0
M  V30 4152 C 437.655 1.7415 1.01361 0
M  V30 4153 O 436.711 1.77163 1.79915 0
M  V30 4154 C 438.024 2.71299 -1.29682 0
M  V30 4155 C 439.572 2.85169 -1.29027 0
M  V30 4156 C 440.047 4.06898 -2.10233 0
M  V30 4157 N 441.538 4.1404 -2.07666 0
M  V30 4158 C 442.273 5.07301 -2.67271 0
M  V30 4159 N 441.769 6.06021 -3.35724 0
M  V30 4160 N 443.562 4.99898 -2.57018 0
M  V30 4161 H 435.713 1.20788 -1.74711 0
M  V30 4162 H 437.976 0.589364 -0.742532 0
M  V30 4163 H 437.682 2.61868 -2.34773 0
M  V30 4164 H 437.556 3.6539 -0.936479 0
M  V30 4165 H 439.943 2.94062 -0.247284 0
M  V30 4166 H 440.024 1.91992 -1.69035 0
M  V30 4167 H 439.668 3.98766 -3.1456 0
M  V30 4168 H 439.598 4.99218 -1.67597 0
M  V30 4169 H 442.089 3.43357 -1.57843 0
M  V30 4170 H 442.402 6.73741 -3.78541 0
M  V30 4171 H 440.747 6.06253 -3.39826 0
M  V30 4172 H 443.938 4.21724 -2.03142 0
M  V30 4173 H 444.111 5.72392 -3.03761 0
M  V30 4174 N 437.518 0.538854 1.48102 0
M  V30 4175 C 438.481 -0.208395 2.28251 0
M  V30 4176 C 439.481 -0.859656 1.35892 0
M  V30 4177 O 440.671 -0.71834 1.58699 0
M  V30 4178 C 437.803 -1.30252 3.15035 0
M  V30 4179 H 438.996 0.495407 2.9578 0
M  V30 4180 H 436.549 0.295112 1.53489 0
M  V30 4181 H 437.284 -2.0393 2.52157 0
M  V30 4182 H 437.069 -0.840551 3.82985 0
M  V30 4183 H 438.559 -1.82787 3.75471 0
M  V30 4184 N 438.996 -1.55193 0.274407 0
M  V30 4185 C 439.943 -2.225 -0.613374 0
M  V30 4186 C 440.913 -1.19823 -1.15029 0
M  V30 4187 O 442.098 -1.48362 -1.19973 0
M  V30 4188 C 439.238 -2.94927 -1.79199 0
M  V30 4189 C 438.351 -4.12322 -1.28899 0
M  V30 4190 C 437.486 -4.72394 -2.42934 0
M  V30 4191 C 436.525 -5.81984 -1.89634 0
M  V30 4192 N 435.662 -6.36123 -2.9714 0
M  V30 4193 H 440.502 -2.97982 -0.032756 0
M  V30 4194 H 438.039 -1.47099 -0.00440146 0
M  V30 4195 H 439.997 -3.35134 -2.48478 0
M  V30 4196 H 438.627 -2.2187 -2.34465 0
M  V30 4197 H 437.679 -3.7724 -0.489327 0
M  V30 4198 H 438.991 -4.91355 -0.858587 0
M  V30 4199 H 438.145 -5.15317 -3.20208 0
M  V30 4200 H 436.884 -3.92636 -2.8929 0
M  V30 4201 H 435.889 -5.38511 -1.1084 0
M  V30 4202 H 437.114 -6.6361 -1.44215 0
M  V30 4203 H 435.06 -5.59259 -3.42878 0
M  V30 4204 H 434.977 -7.10427 -2.58515 0
M  V30 4205 H 436.245 -6.83704 -3.74391 0
M  V30 4206 N 440.474 -0.00167713 -1.576 0
M  V30 4207 C 441.723 0.682021 -1.89819 0
M  V30 4208 C 442.036 1.74844 -0.876871 0
M  V30 4209 O 443.242 2.48688 -1.08934 0
M  V30 4210 C 441.698 1.26425 -3.36964 0
M  V30 4211 C 441.306 0.232568 -4.47396 0
M  V30 4212 C 443.05 1.92604 -3.78291 0
M  V30 4213 C 440.957 0.824882 -5.85619 0
M  V30 4214 H 439.887 0.258499 -0.708304 0
M  V30 4215 H 442.538 -0.0624957 -1.83394 0
M  V30 4216 H 440.92 2.05949 -3.38232 0
M  V30 4217 H 442.094 -0.5382 -4.57646 0
M  V30 4218 H 440.409 -0.32888 -4.15099 0
M  V30 4219 H 443.006 2.37827 -4.78897 0
M  V30 4220 H 443.349 2.75732 -3.11894 0
M  V30 4221 H 443.882 1.19812 -3.79328 0
M  V30 4222 H 440.621 0.0323542 -6.55492 0
M  V30 4223 H 440.141 1.56477 -5.79029 0
M  V30 4224 H 441.82 1.32301 -6.33329 0
M  V30 4225 N 441.952 1.55251 0.271103 0
M  V30 4226 C 442.899 1.88261 1.33516 0
M  V30 4227 C 443.869 0.734296 1.48988 0
M  V30 4228 O 445.054 0.985741 1.63364 0
M  V30 4229 C 442.194 2.16168 2.69008 0
M  V30 4230 C 441.307 3.43678 2.61743 0
M  V30 4231 C 440.442 3.61276 3.89427 0
M  V30 4232 C 439.481 4.82472 3.7668 0
M  V30 4233 N 438.618 4.96717 4.96202 0
M  V30 4234 H 443.458 2.79015 1.04665 0
M  V30 4235 H 440.995 1.38137 0.505618 0
M  V30 4236 H 442.953 2.30349 3.47844 0
M  V30 4237 H 441.583 1.28646 2.96057 0
M  V30 4238 H 440.635 3.37959 1.74607 0
M  V30 4239 H 441.947 4.3265 2.48224 0
M  V30 4240 H 441.101 3.75284 4.76704 0
M  V30 4241 H 439.84 2.70492 4.05814 0
M  V30 4242 H 438.845 4.68465 2.87786 0
M  V30 4243 H 440.07 5.74692 3.61809 0
M  V30 4244 H 438.016 4.08865 5.12997 0
M  V30 4245 H 437.933 5.79738 4.85222 0
M  V30 4246 H 439.201 5.15113 5.85046 0
M  V30 4247 N 443.43 -0.535701 1.48216 0
M  V30 4248 C 444.377 -1.64083 1.62312 0
M  V30 4249 C 445.347 -1.59448 0.465365 0
M  V30 4250 O 446.532 -1.77959 0.688135 0
M  V30 4251 C 443.672 -3.0236 1.66349 0
M  V30 4252 C 442.785 -3.17273 2.93193 0
M  V30 4253 C 441.92 -4.46075 2.88427 0
M  V30 4254 C 440.959 -4.54496 4.1 0
M  V30 4255 N 440.096 -5.7468 4.03345 0
M  V30 4256 H 444.936 -1.51374 2.5669 0
M  V30 4257 H 442.473 -0.737059 1.27302 0
M  V30 4258 H 444.431 -3.82461 1.66672 0
M  V30 4259 H 443.061 -3.13854 0.754672 0
M  V30 4260 H 442.113 -2.30462 3.02641 0
M  V30 4261 H 443.425 -3.19357 3.83162 0
M  V30 4262 H 442.579 -5.3446 2.87119 0
M  V30 4263 H 441.318 -4.46504 1.96177 0
M  V30 4264 H 440.323 -3.64519 4.11589 0
M  V30 4265 H 441.548 -4.5581 5.03402 0
M  V30 4266 H 439.494 -5.76017 3.13912 0
M  V30 4267 H 439.411 -5.78234 4.87013 0
M  V30 4268 H 440.679 -6.65367 4.06087 0
M  V30 4269 N 444.908 -1.36708 -0.784132 0
M  V30 4270 C 445.871 -1.31307 -1.87859 0
M  V30 4271 C 446.871 -0.219654 -1.59293 0
M  V30 4272 O 448.061 -0.47476 -1.67606 0
M  V30 4273 C 445.193 -1.03679 -3.24751 0
M  V30 4274 H 446.386 -2.28647 -1.94064 0
M  V30 4275 H 443.939 -1.21558 -0.98252 0
M  V30 4276 H 444.674 -0.0681936 -3.24228 0
M  V30 4277 H 444.459 -1.82811 -3.46876 0
M  V30 4278 H 445.949 -1.02518 -4.04821 0
M  V30 4279 N 446.386 1.0089 -1.21074 0
M  V30 4280 C 447.614 1.78191 -1.05145 0
M  V30 4281 C 448.029 1.84537 0.398952 0
M  V30 4282 O 447.386 1.30393 1.27687 0
M  V30 4283 C 447.437 3.22288 -1.63746 0
M  V30 4284 O 447.158 3.16315 -3.03111 0
M  V30 4285 C 448.659 4.16106 -1.52875 0
M  V30 4286 H 445.879 0.560129 -0.369454 0
M  V30 4287 H 448.423 1.26945 -1.60328 0
M  V30 4288 H 446.578 3.70655 -1.12664 0
M  V30 4289 H 446.992 4.06817 -3.31059 0
M  V30 4290 H 448.466 5.15026 -1.98626 0
M  V30 4291 H 448.943 4.36541 -0.482521 0
M  V30 4292 H 449.549 3.73625 -2.03185 0
M  V30 4293 N 447.864 1.01787 1.20321 0
M  V30 4294 C 449.112 0.706538 1.89347 0
M  V30 4295 C 449.433 -0.766289 1.79313 0
M  V30 4296 O 448.703 -1.55126 1.19635 0
M  V30 4297 H 447.283 0.258348 0.700903 0
M  V30 4298 H 449.945 1.28974 1.46122 0
M  V30 4299 H 449.041 0.991066 2.95946 0
M  V30 4300 N 449.342 -1.36122 0.79427 0
M  V30 4301 C 450.29 -2.31871 0.184023 0
M  V30 4302 C 451.284 -1.56041 -0.659365 0
M  V30 4303 O 452.49 -1.71266 -0.553906 0
M  V30 4304 H 448.865 -0.750896 0.0407373 0
M  V30 4305 H 450.836 -2.80898 1.00693 0
M  V30 4306 C 449.585 -3.41324 -0.662813 0
M  V30 4307 H 448.908 -3.99793 -0.0231944 0
M  V30 4308 H 450.348 -4.10629 -1.05639 0
M  V30 4309 C 448.807 -2.83308 -1.82313 0
M  V30 4310 O 449.337 -2.75863 -2.91997 0
M  V30 4311 N 447.543 -2.40529 -1.63077 0
M  V30 4312 H 447.09 -2.46785 -0.738591 0
M  V30 4313 H 447.048 -2.02059 -2.40872 0
M  V30 4314 N 450.82 -0.546701 -1.47814 0
M  V30 4315 C 451.767 0.206854 -2.29871 0
M  V30 4316 C 452.737 0.918235 -1.38411 0
M  V30 4317 O 453.922 0.915991 -1.67375 0
M  V30 4318 C 451.062 1.23746 -3.22151 0
M  V30 4319 C 450.175 0.533216 -4.28697 0
M  V30 4320 C 449.31 1.5482 -5.08138 0
M  V30 4321 C 448.349 0.828347 -6.06469 0
M  V30 4322 N 447.486 1.78966 -6.78908 0
M  V30 4323 H 452.326 -0.499037 -2.93792 0
M  V30 4324 H 449.863 -0.25793 -1.44821 0
M  V30 4325 H 451.821 1.84746 -3.74065 0
M  V30 4326 H 450.451 1.91151 -2.60117 0
M  V30 4327 H 449.503 -0.191089 -3.7992 0
M  V30 4328 H 450.815 -0.0311987 -4.9879 0
M  V30 4329 H 449.969 2.23202 -5.6415 0
M  V30 4330 H 448.708 2.14652 -4.37922 0
M  V30 4331 H 447.713 0.130539 -5.49645 0
M  V30 4332 H 448.938 0.235907 -6.7869 0
M  V30 4333 H 446.884 2.37675 -6.1143 0
M  V30 4334 H 446.801 1.27712 -7.45135 0
M  V30 4335 H 448.069 2.46496 -7.395 0
M  V30 4336 N 452.299 1.55045 -0.282633 0
M  V30 4337 C 453.247 2.24254 0.617478 0
M  V30 4338 C 454.241 1.24215 1.15183 0
M  V30 4339 O 455.447 1.42123 1.10459 0
M  V30 4340 H 451.822 0.719801 0.217693 0
M  V30 4341 H 453.793 2.98398 0.0110076 0
M  V30 4342 C 452.542 2.98281 1.78672 0
M  V30 4343 H 451.865 3.75053 1.38475 0
M  V30 4344 H 453.305 3.50017 2.393 0
M  V30 4345 C 451.764 2.04184 2.67975 0
M  V30 4346 O 452.294 1.59792 3.6855 0
M  V30 4347 N 450.5 1.70526 2.35307 0
M  V30 4348 H 450.047 2.06821 1.53567 0
M  V30 4349 H 450.005 1.07839 2.95327 0
M  V30 4350 N 453.777 0.010035 1.57597 0
M  V30 4351 C 455.005 -0.683413 1.95287 0
M  V30 4352 C 455.42 -1.66747 0.885481 0
M  V30 4353 O 454.777 -1.82003 -0.134629 0
M  V30 4354 C 454.828 -1.40652 3.33015 0
M  V30 4355 O 454.549 -0.461916 4.35658 0
M  V30 4356 C 456.05 -2.19356 3.85225 0
M  V30 4357 H 453.27 -0.189708 0.643624 0
M  V30 4358 H 455.814 0.0641359 2.04399 0
M  V30 4359 H 453.969 -2.10562 3.2518 0
M  V30 4360 H 454.383 -0.973215 5.15392 0
M  V30 4361 H 455.857 -2.65433 4.83993 0
M  V30 4362 H 456.334 -3.02457 3.18459 0
M  V30 4363 H 456.94 -1.54442 3.96267 0
M  V30 4364 N 455.255 -1.55392 -0.262866 0
M  V30 4365 C 456.185 -1.91978 -1.32917 0
M  V30 4366 C 457.166 -0.7828 -1.51017 0
M  V30 4367 O 458.351 -1.04178 -1.63892 0
M  V30 4368 C 455.481 -2.20055 -2.68687 0
M  V30 4369 C 454.435 -3.35854 -2.65304 0
M  V30 4370 C 453.761 -3.49435 -4.04721 0
M  V30 4371 C 455.061 -4.71977 -2.23685 0
M  V30 4372 H 456.755 -2.81292 -1.02544 0
M  V30 4373 H 454.301 -1.3534 -0.491846 0
M  V30 4374 H 456.254 -2.44237 -3.43404 0
M  V30 4375 H 454.978 -1.27551 -3.00663 0
M  V30 4376 H 453.637 -3.11655 -1.93045 0
M  V30 4377 H 453.285 -2.54379 -4.33936 0
M  V30 4378 H 452.985 -4.27297 -4.0335 0
M  V30 4379 H 454.509 -3.7592 -4.81161 0
M  V30 4380 H 455.923 -4.95637 -2.88127 0
M  V30 4381 H 454.32 -5.52828 -2.33456 0
M  V30 4382 H 455.39 -4.70115 -1.18827 0
M  V30 4383 N 456.733 0.527833 -1.48498 0
M  V30 4384 C 457.696 1.61439 -1.62696 0
M  V30 4385 C 458.696 1.52824 -0.500136 0
M  V30 4386 O 459.886 1.56456 -0.765976 0
M  V30 4387 C 457.018 3.01063 -1.59918 0
M  V30 4388 H 458.211 1.50189 -2.59583 0
M  V30 4389 H 455.764 0.750055 -1.37127 0
M  V30 4390 H 456.499 3.17818 -0.645163 0
M  V30 4391 H 456.284 3.08725 -2.41726 0
M  V30 4392 H 457.774 3.80057 -1.73051 0
M  V30 4393 N 458.211 1.37122 0.776871 0
M  V30 4394 C 459.457 1.32243 1.53752 0
M  V30 4395 C 459.79 -0.0944745 1.9397 0
M  V30 4396 O 459.065 -1.05068 1.6368 0
M  V30 4397 C 459.348 2.25681 2.80607 0
M  V30 4398 C 459.201 3.76127 2.46676 0
M  V30 4399 C 460.52 2.17657 3.82509 0
M  V30 4400 H 457.639 0.481704 0.557791 0
M  V30 4401 H 460.281 1.6778 0.891612 0
M  V30 4402 H 458.431 1.95505 3.35723 0
M  V30 4403 H 460.103 4.16877 1.97513 0
M  V30 4404 H 458.346 3.94946 1.79443 0
M  V30 4405 H 459.017 4.36933 3.37333 0
M  V30 4406 H 461.493 2.44245 3.36873 0
M  V30 4407 H 460.369 2.85185 4.69 0
M  V30 4408 H 460.63 1.16785 4.26396 0
M  V30 4409 N 459.689 -1.00246 1.21608 0
M  V30 4410 C 460.639 -2.07492 0.945051 0
M  V30 4411 C 461.623 -1.60585 -0.100675 0
M  V30 4412 O 462.815 -1.76667 0.10859 0
M  V30 4413 C 459.944 -3.39425 0.514342 0
M  V30 4414 C 459.03 -3.92993 1.59428 0
M  V30 4415 N 459.421 -4.19898 2.81991 0
M  V30 4416 C 457.719 -4.21297 1.46374 0
M  V30 4417 C 458.42 -4.63297 3.51754 0
M  V30 4418 N 457.396 -4.66421 2.79199 0
M  V30 4419 H 461.198 -2.26222 1.87619 0
M  V30 4420 H 458.712 -1.18339 1.11219 0
M  V30 4421 H 460.709 -4.15808 0.301527 0
M  V30 4422 H 459.369 -3.22101 -0.410008 0
M  V30 4423 H 460.38 -4.08377 3.1851 0
M  V30 4424 H 457.057 -4.13095 0.604863 0
M  V30 4425 H 458.447 -4.92816 4.56708 0
M  V30 4426 N 461.167 -1.02423 -1.1978 0
M  V30 4427 C 462.097 -0.62157 -2.25075 0
M  V30 4428 C 463.078 0.367148 -1.6609 0
M  V30 4429 O 464.263 0.250892 -1.92573 0
M  V30 4430 C 461.393 0.0331826 -3.47284 0
M  V30 4431 C 460.347 -0.877323 -4.18912 0
M  V30 4432 C 459.673 -0.0879296 -5.34628 0
M  V30 4433 C 460.973 -2.18892 -4.74219 0
M  V30 4434 H 462.667 -1.50179 -2.59011 0
M  V30 4435 H 460.213 -0.723547 -1.24502 0
M  V30 4436 H 462.166 0.326488 -4.20133 0
M  V30 4437 H 460.89 0.948164 -3.12534 0
M  V30 4438 H 459.549 -1.15475 -3.47938 0
M  V30 4439 H 459.197 0.828941 -4.96123 0
M  V30 4440 H 458.897 -0.694359 -5.83483 0
M  V30 4441 H 460.421 0.198743 -6.10276 0
M  V30 4442 H 461.835 -1.95746 -5.38847 0
M  V30 4443 H 460.232 -2.74686 -5.33542 0
M  V30 4444 H 461.302 -2.84674 -3.92541 0
M  V30 4445 N 462.645 1.35699 -0.801477 0
M  V30 4446 C 463.578 2.2768 -0.153922 0
M  V30 4447 C 464.556 1.47832 0.67709 0
M  V30 4448 O 465.74 1.77104 0.645474 0
M  V30 4449 C 462.867 3.2943 0.786986 0
M  V30 4450 C 461.913 4.26485 0.0362447 0
M  V30 4451 S 462.746 5.19573 -1.2963 0
M  V30 4452 C 463.902 6.24866 -0.359705 0
M  V30 4453 H 464.135 2.82254 -0.9338 0
M  V30 4454 H 461.668 1.42421 -0.596283 0
M  V30 4455 H 463.626 3.8855 1.32436 0
M  V30 4456 H 462.287 2.73745 1.54021 0
M  V30 4457 H 461.48 4.98378 0.750668 0
M  V30 4458 H 461.082 3.71508 -0.431017 0
M  V30 4459 H 463.374 6.75957 0.456954 0
M  V30 4460 H 464.317 7.00307 -1.04768 0
M  V30 4461 H 464.725 5.64484 0.0423274 0
M  V30 4462 N 464.123 0.554532 1.47522 0
M  V30 4463 C 465.086 -0.184174 2.28459 0
M  V30 4464 C 466.086 -0.845195 1.36796 0
M  V30 4465 O 467.276 -0.701467 1.59452 0
M  V30 4466 C 464.408 -1.26903 3.16399 0
M  V30 4467 H 465.601 0.526751 2.95238 0
M  V30 4468 H 463.154 0.311375 1.53167 0
M  V30 4469 H 463.889 -2.01244 2.54306 0
M  V30 4470 H 463.674 -0.799883 3.83854 0
M  V30 4471 H 465.164 -1.78794 3.77389 0
M  V30 4472 N 465.601 -1.54893 0.290851 0
M  V30 4473 C 466.533 -2.20564 -0.623236 0
M  V30 4474 C 467.546 -1.19519 -1.1054 0
M  V30 4475 O 468.735 -1.46165 -1.02459 0
M  V30 4476 C 465.835 -2.83033 -1.86401 0
M  V30 4477 C 465.008 -4.09916 -1.52604 0
M  V30 4478 C 464.067 -4.56284 -2.62091 0
M  V30 4479 O 463.093 -5.2171 -2.27612 0
M  V30 4480 N 464.295 -4.27746 -3.92446 0
M  V30 4481 H 467.06 -2.99638 -0.0610915 0
M  V30 4482 H 464.621 -1.61508 0.112615 0
M  V30 4483 H 466.613 -3.1099 -2.58973 0
M  V30 4484 H 465.183 -2.0786 -2.33481 0
M  V30 4485 H 464.403 -3.89078 -0.633424 0
M  V30 4486 H 465.691 -4.92554 -1.27547 0
M  V30 4487 H 465.089 -3.7531 -4.23272 0
M  V30 4488 H 463.646 -4.60437 -4.61347 0
M  V30 4489 N 467.08 -0.0183926 -1.57589 0
M  V30 4490 C 468.328 0.661253 -1.90976 0
M  V30 4491 C 468.649 1.73281 -0.894353 0
M  V30 4492 O 467.919 1.9579 0.0656788 0
M  V30 4493 H 466.499 0.247233 -0.704901 0
M  V30 4494 H 469.161 -0.0636639 -1.94796 0
M  V30 4495 H 468.257 1.12083 -2.9128 0
M  V30 4496 N 468.558 1.5553 0.254621 0
M  V30 4497 C 469.488 1.9268 1.31897 0
M  V30 4498 C 470.469 0.790797 1.506 0
M  V30 4499 O 471.654 1.05045 1.63337 0
M  V30 4500 C 468.784 2.21477 2.67517 0
M  V30 4501 C 467.738 3.37256 2.63519 0
M  V30 4502 C 467.064 3.51576 4.02862 0
M  V30 4503 C 468.364 4.73157 2.21179 0
M  V30 4504 H 470.058 2.81832 1.01051 0
M  V30 4505 H 467.604 1.35599 0.484662 0
M  V30 4506 H 469.557 2.46055 3.42104 0
M  V30 4507 H 468.281 1.29144 2.99982 0
M  V30 4508 H 466.94 3.12675 1.9139 0
M  V30 4509 H 466.588 2.56676 4.32581 0
M  V30 4510 H 466.288 4.2943 4.01078 0
M  V30 4511 H 467.812 3.78467 4.79161 0
M  V30 4512 H 469.226 4.97158 2.85494 0
M  V30 4513 H 467.623 5.54058 2.30521 0
M  V30 4514 H 468.693 4.70739 1.16332 0
M  V30 4515 N 470.036 -0.519951 1.48776 0
M  V30 4516 C 471.266 -1.29783 1.60748 0
M  V30 4517 C 471.674 -1.87253 0.27072 0
M  V30 4518 O 471.017 -1.67628 -0.751438 0
M  V30 4519 C 471.079 -2.47984 2.60277 0
M  V30 4520 C 470.743 -2.11526 4.051 0
M  V30 4521 C 471.74 -1.66608 4.92481 0
M  V30 4522 C 469.425 -2.21742 4.50706 0
M  V30 4523 C 471.419 -1.32384 6.23501 0
M  V30 4524 C 469.106 -1.87129 5.81744 0
M  V30 4525 C 470.104 -1.42523 6.67964 0
M  V30 4526 O 469.792 -1.0837 7.96562 0
M  V30 4527 H 469.524 -0.400562 0.544542 0
M  V30 4528 H 472.078 -0.632879 1.95407 0
M  V30 4529 H 470.308 -3.17493 2.2076 0
M  V30 4530 H 471.997 -3.10036 2.61978 0
M  V30 4531 H 472.763 -1.58178 4.58481 0
M  V30 4532 H 468.642 -2.55415 3.83776 0
M  V30 4533 H 472.186 -0.974949 6.90754 0
M  V30 4534 H 468.083 -1.95204 6.15277 0
M  V30 4535 H 468.851 -1.21681 8.09405 0
M  V30 4536 N 471.514 -1.37532 -0.769588 0
M  V30 4537 C 472.462 -1.33561 -1.90432 0
M  V30 4538 C 473.456 -0.224027 -1.67912 0
M  V30 4539 O 474.662 -0.392174 -1.75676 0
M  V30 4540 H 471.037 -0.416279 -0.626271 0
M  V30 4541 H 473.008 -2.29348 -1.90899 0
M  V30 4542 C 471.757 -1.16162 -3.27722 0
M  V30 4543 H 471.08 -2.00951 -3.45628 0
M  V30 4544 H 472.52 -1.17434 -4.07413 0
M  V30 4545 C 470.979 0.132583 -3.36639 0
M  V30 4546 O 471.509 1.11539 -3.85904 0
M  V30 4547 N 469.715 0.184013 -2.90017 0
M  V30 4548 H 469.262 -0.616415 -2.50116 0
M  V30 4549 H 469.22 1.04956 -2.96364 0
M  V30 4550 N 472.992 0.995999 -1.22138 0
M  V30 4551 C 473.942 2.06988 -0.956042 0
M  V30 4552 C 474.926 1.60636 0.0921576 0
M  V30 4553 O 476.118 1.76607 -0.117958 0
M  V30 4554 C 473.247 3.39148 -0.532335 0
M  V30 4555 C 472.333 3.92142 -1.61509 0
M  V30 4556 N 472.724 4.18397 -2.84214 0
M  V30 4557 C 471.022 4.20514 -1.48606 0
M  V30 4558 C 471.723 4.61425 -3.54206 0
M  V30 4559 N 470.699 4.64934 -2.81669 0
M  V30 4560 H 474.501 2.25223 -1.88816 0
M  V30 4561 H 472.015 1.17748 -1.11845 0
M  V30 4562 H 474.012 4.15642 -0.323574 0
M  V30 4563 H 472.672 3.22314 0.392921 0
M  V30 4564 H 473.683 4.06682 -3.20671 0
M  V30 4565 H 470.36 4.12769 -0.626762 0
M  V30 4566 H 471.75 4.90387 -4.59315 0
M  V30 4567 N 474.47 1.03057 1.19235 0
M  V30 4568 C 475.695 0.74757 1.93458 0
M  V30 4569 C 476.12 -0.687648 1.7508 0
M  V30 4570 O 475.478 -1.47499 1.05422 0
M  V30 4571 C 475.526 1.10604 3.43219 0
M  V30 4572 O 474.63 0.225671 4.11782 0
M  V30 4573 H 473.971 0.276047 0.603899 0
M  V30 4574 H 476.501 1.3777 1.51263 0
M  V30 4575 H 476.511 1.06366 3.93891 0
M  V30 4576 H 475.186 2.15165 3.55917 0
M  V30 4577 H 473.763 0.326795 3.71465 0
M  V30 4578 N 475.948 -1.35272 0.808662 0
M  V30 4579 C 477.176 -2.02946 0.402537 0
M  V30 4580 C 477.591 -1.60937 -0.987147 0
M  V30 4581 O 476.948 -0.807917 -1.63643 0
M  V30 4582 C 476.999 -3.58317 0.47868 0
M  V30 4583 O 476.72 -3.98799 1.81358 0
M  V30 4584 C 478.221 -4.43251 0.0656281 0
M  V30 4585 H 475.441 -0.650831 0.163279 0
M  V30 4586 H 477.985 -1.72849 1.09286 0
M  V30 4587 H 476.14 -3.87055 -0.163415 0
M  V30 4588 H 476.554 -4.93451 1.77781 0
M  V30 4589 H 478.028 -5.51738 0.170017 0
M  V30 4590 H 478.505 -4.27913 -0.989278 0
M  V30 4591 H 479.111 -4.19813 0.68096 0
M  V30 4592 N 477.426 -0.562348 -1.47226 0
M  V30 4593 C 478.654 -0.0452275 -2.06851 0
M  V30 4594 C 479.069 1.25078 -1.41424 0
M  V30 4595 O 478.426 1.75156 -0.512513 0
M  V30 4596 C 478.477 0.148674 -3.61194 0
M  V30 4597 O 478.198 -1.09602 -4.24169 0
M  V30 4598 C 479.699 0.702488 -4.37699 0
M  V30 4599 H 476.919 -0.0481775 -0.669268 0
M  V30 4600 H 479.463 -0.777223 -1.89155 0
M  V30 4601 H 477.618 0.830817 -3.78386 0
M  V30 4602 H 478.032 -0.896982 -5.16773 0
M  V30 4603 H 479.506 0.78743 -5.46355 0
M  V30 4604 H 479.983 1.71493 -4.04335 0
M  V30 4605 H 480.589 0.0558772 -4.25263 0
M  V30 4606 N 478.904 1.54736 -0.299062 0
M  V30 4607 C 479.867 2.22127 0.565012 0
M  V30 4608 C 480.867 1.20669 1.06281 0
M  V30 4609 O 482.057 1.45417 0.959145 0
M  V30 4610 C 479.189 2.90611 1.78208 0
M  V30 4611 H 480.382 2.99891 -0.0237448 0
M  V30 4612 H 477.935 1.5622 -0.0498788 0
M  V30 4613 H 478.67 2.16921 2.41072 0
M  V30 4614 H 478.455 3.64984 1.43281 0
M  V30 4615 H 479.945 3.42026 2.396 0
M  V30 4616 N 480.382 0.0267497 1.57577 0
M  V30 4617 C 481.329 -0.955894 2.10075 0
M  V30 4618 C 482.299 -1.32453 1.00226 0
M  V30 4619 O 483.484 -1.41826 1.27632 0
M  V30 4620 C 480.624 -2.2338 2.6305 0
M  V30 4621 C 479.737 -1.92183 3.86898 0
M  V30 4622 C 478.872 -3.14251 4.28275 0
M  V30 4623 C 477.911 -2.78862 5.44888 0
M  V30 4624 N 477.048 -3.93548 5.81433 0
M  V30 4625 H 481.888 -0.501303 2.93753 0
M  V30 4626 H 479.425 -0.235847 1.45197 0
M  V30 4627 H 481.383 -2.98124 2.91853 0
M  V30 4628 H 480.013 -2.6646 1.82205 0
M  V30 4629 H 479.065 -1.07692 3.64838 0
M  V30 4630 H 480.377 -1.62117 4.7172 0
M  V30 4631 H 479.531 -3.97317 4.58502 0
M  V30 4632 H 478.27 -3.47476 3.42215 0
M  V30 4633 H 477.275 -1.94208 5.14357 0
M  V30 4634 H 478.5 -2.46855 6.32645 0
M  V30 4635 H 476.446 -4.2662 4.98328 0
M  V30 4636 H 476.363 -3.67098 6.6089 0
M  V30 4637 H 477.631 -4.77325 6.16264 0
M  V30 4638 N 481.861 -1.55662 -0.24637 0
M  V30 4639 C 482.771 -1.93495 -1.32653 0
M  V30 4640 C 483.787 -0.835462 -1.5263 0
M  V30 4641 O 484.963 -1.1369 -1.66242 0
M  V30 4642 C 482.028 -2.22242 -2.66101 0
M  V30 4643 C 481.089 -3.45625 -2.54641 0
M  V30 4644 C 480.322 -3.72991 -3.81724 0
M  V30 4645 O 480.545 -3.02421 -4.8363 0
M  V30 4646 O 479.479 -4.66515 -3.80325 0
M  V30 4647 H 483.305 -2.85498 -1.03559 0
M  V30 4648 H 480.89 -1.42551 -0.44717 0
M  V30 4649 H 482.772 -2.42037 -3.44958 0
M  V30 4650 H 481.447 -1.33417 -2.94926 0
M  V30 4651 H 480.354 -3.31136 -1.74067 0
M  V30 4652 H 481.687 -4.34754 -2.3076 0
M  V30 4653 N 483.339 0.512053 -1.4905 0
M  V30 4654 C 484.587 1.26436 -1.57665 0
M  V30 4655 C 484.908 1.93255 -0.260293 0
M  V30 4656 O 484.178 1.82206 0.719564 0
M  V30 4657 H 482.758 0.469658 -0.580888 0
M  V30 4658 H 485.42 0.594398 -1.85615 0
M  V30 4659 H 484.516 2.03417 -2.36702 0
M  V30 4660 N 484.817 1.37938 0.762283 0
M  V30 4661 C 485.764 1.34467 1.87583 0
M  V30 4662 C 486.734 0.208633 1.64785 0
M  V30 4663 O 487.919 0.399494 1.86571 0
M  V30 4664 C 485.059 1.16692 3.24772 0
M  V30 4665 C 484.172 2.39608 3.59461 0
M  V30 4666 C 483.307 2.14631 4.85908 0
M  V30 4667 C 482.346 3.33364 5.13357 0
M  V30 4668 N 481.483 3.07877 6.30996 0
M  V30 4669 H 486.323 2.29669 1.89885 0
M  V30 4670 H 483.86 1.14116 0.928219 0
M  V30 4671 H 485.818 1.04405 4.03925 0
M  V30 4672 H 484.448 0.251333 3.2182 0
M  V30 4673 H 483.5 2.626 2.75219 0
M  V30 4674 H 484.812 3.28128 3.75678 0
M  V30 4675 H 483.966 1.99429 5.72986 0
M  V30 4676 H 482.705 1.23463 4.71814 0
M  V30 4677 H 481.71 3.49094 4.24751 0
M  V30 4678 H 482.935 4.25395 5.29354 0
M  V30 4679 H 480.881 2.19348 6.18241 0
M  V30 4680 H 480.798 3.89944 6.47673 0
M  V30 4681 H 482.066 2.96313 7.20985 0
M  V30 4682 N 486.295 -0.989507 1.22664 0
M  V30 4683 C 487.52 -1.77031 1.08051 0
M  V30 4684 C 487.945 -1.84535 -0.364483 0
M  V30 4685 O 487.303 -1.3003 -1.2634 0
M  V30 4686 C 487.351 -3.18 1.70024 0
M  V30 4687 O 486.455 -4.01161 0.956216 0
M  V30 4688 H 485.796 -0.545008 0.379292 0
M  V30 4689 H 488.326 -1.24277 1.62531 0
M  V30 4690 H 488.336 -3.68616 1.74888 0
M  V30 4691 H 487.011 -3.11853 2.75174 0
M  V30 4692 H 485.588 -3.59687 0.98384 0
M  V30 4693 N 487.773 -1.03688 -1.18687 0
M  V30 4694 C 489.05 -0.652397 -1.84399 0
M  V30 4695 C 489.43 0.868386 -1.92412 0
M  V30 4696 O 488.778 1.76832 -1.44716 0
M  V30 4697 C 488.988 -1.3238 -3.22919 0
M  V30 4698 C 490.336 -1.45216 -3.98996 0
M  V30 4699 O 491.36 -1.2816 -3.32345 0
M  V30 4700 O 490.219 -1.72975 -5.18403 0
M  V30 4701 H 487.313 -0.227793 -0.795009 0
M  V30 4702 H 489.859 -1.13553 -1.2611 0
M  V30 4703 H 488.631 -2.36202 -3.11968 0
M  V30 4704 H 488.254 -0.829039 -3.88861 0
M  V30 4705 N 489.251 1.34841 -0.815825 0
M  V30 4706 C 490.476 2.03261 -0.41226 0
M  V30 4707 C 490.901 1.61055 0.971751 0
M  V30 4708 O 490.259 0.7917 1.63101 0
M  V30 4709 C 490.307 3.56914 -0.514289 0
M  V30 4710 O 489.411 4.09728 0.468675 0
M  V30 4711 H 488.752 0.641664 -0.170771 0
M  V30 4712 H 491.282 1.72241 -1.10427 0
M  V30 4713 H 491.292 4.06156 -0.387457 0
M  V30 4714 H 489.967 3.86982 -1.52375 0
M  V30 4715 H 488.544 3.71681 0.301316 0
M  V30 4716 N 490.729 0.570148 1.46925 0
M  V30 4717 C 491.639 -0.173061 2.33961 0
M  V30 4718 C 492.655 -0.898825 1.48987 0
M  V30 4719 O 493.831 -0.864825 1.81887 0
M  V30 4720 C 490.896 -1.18177 3.25937 0
M  V30 4721 C 489.957 -0.462041 4.26806 0
M  V30 4722 C 489.19 -1.4227 5.14388 0
M  V30 4723 O 489.413 -2.65842 5.04662 0
M  V30 4724 O 488.347 -0.940127 5.94513 0
M  V30 4725 H 492.173 0.541216 2.98839 0
M  V30 4726 H 489.758 0.330647 1.45695 0
M  V30 4727 H 491.64 -1.76372 3.82715 0
M  V30 4728 H 490.315 -1.87774 2.63671 0
M  V30 4729 H 489.222 0.161429 3.73752 0
M  V30 4730 H 490.555 0.192719 4.91823 0
M  V30 4731 O 492.246 -1.55123 0.449357 0
M  V30 4732 H 492.937 -1.93529 -0.0814057 0
M  V30 END ATOM
M  V30 BEGIN BOND
M  V30 END BOND
M  V30 END CTAB
M  END
$$$$
