drugbank_target|O00750 Phosphatidylinositol 4-phosphate 3-kinase C2 domain-containing subunit beta (DB12010)
 OpenBabel12092121183D

  0  0  0     0  0            999 V3000
M  V30 BEGIN CTAB
M  V30 COUNTS 25885 26205 0 0 0
M  V30 BEGIN ATOM
M  V30 1 H -0.908 1.98254 -0.117106 0
M  V30 2 N 0 1.576 0 0
M  V30 3 C 0.933 2.03868 1.02534 0
M  V30 4 C 1.911 0.928543 1.3348 0
M  V30 5 O 3.095 1.19667 1.45644 0
M  V30 6 C 0.222 2.43627 2.35294 0
M  V30 7 C -0.732 3.65373 2.2001 0
M  V30 8 S 0.101 5.13292 1.52614 0
M  V30 9 C 1.257 5.56322 2.86805 0
M  V30 10 H 1.49 2.90518 0.631377 0
M  V30 11 H -0.977 1.52953 0.210867 0
M  V30 12 H 0.981 2.67203 3.11629 0
M  V30 13 H -0.358 1.57376 2.7183 0
M  V30 14 H -1.165 3.90944 3.18086 0
M  V30 15 H -1.563 3.418 1.51819 0
M  V30 16 H 0.729 5.58782 3.83104 0
M  V30 17 H 1.672 6.56266 2.65933 0
M  V30 18 H 2.08 4.83886 2.90714 0
M  V30 19 N 1.4781 -0.272755 1.55222 0
M  V30 20 C 2.7031 -1.02683 1.80197 0
M  V30 21 C 3.1281 -1.79142 0.573551 0
M  V30 22 O 2.4861 -1.74917 -0.476849 0
M  V30 23 C 2.5341 -1.9609 3.02624 0
M  V30 24 O 1.6381 -3.04863 2.77727 0
M  V30 25 H 0.9791 -0.293557 0.595584 0
M  V30 26 H 3.5091 -0.30159 2.02365 0
M  V30 27 H 3.5191 -2.38039 3.31363 0
M  V30 28 H 2.1941 -1.39851 3.91682 0
M  V30 29 H 0.7711 -2.67228 2.60084 0
M  V30 30 N 2.9562 -1.48159 -0.537278 0
M  V30 31 C 4.1812 -1.59707 -1.32319 0
M  V30 32 C 4.6062 -0.254859 -1.86365 0
M  V30 33 O 3.9642 0.772378 -1.64024 0
M  V30 34 C 4.0122 -2.6412 -2.45505 0
M  V30 35 O 3.1162 -2.20774 -3.48328 0
M  V30 36 H 2.4572 -0.535791 -0.392204 0
M  V30 37 H 4.9872 -1.94092 -0.647268 0
M  V30 38 H 4.9972 -2.85166 -2.91795 0
M  V30 39 H 3.6722 -3.61567 -2.05528 0
M  V30 40 H 2.2492 -2.09911 -3.08207 0
M  V30 41 N 4.4343 0.785586 -1.36625 0
M  V30 42 C 5.6623 1.57448 -1.3423 0
M  V30 43 C 6.0773 1.88649 0.0755653 0
M  V30 44 O 5.4343 1.50414 1.03354 0
M  V30 45 C 5.4853 2.89316 -2.16745 0
M  V30 46 O 5.2063 2.59459 -3.53005 0
M  V30 47 C 6.7073 3.83606 -2.22174 0
M  V30 48 H 3.9273 0.488226 -0.4603 0
M  V30 49 H 6.4713 0.974733 -1.79775 0
M  V30 50 H 4.6263 3.4575 -1.74745 0
M  V30 51 H 5.0403 3.43804 -3.96105 0
M  V30 52 H 6.5143 4.73181 -2.8426 0
M  V30 53 H 6.9913 4.21734 -1.22627 0
M  V30 54 H 7.5973 3.33104 -2.64427 0
M  V30 55 N 5.9124 1.20967 1.01018 0
M  V30 56 C 6.8444 0.922059 2.09835 0
M  V30 57 C 7.8574 -0.0927106 1.62536 0
M  V30 58 O 9.0464 0.139127 1.77957 0
M  V30 59 C 6.1464 0.362004 3.36961 0
M  V30 60 C 5.3194 1.42986 4.13369 0
M  V30 61 C 4.3784 0.879976 5.1879 0
M  V30 62 O 3.4044 1.56219 5.47343 0
M  V30 63 N 4.6064 -0.307396 5.79686 0
M  V30 64 H 7.3714 1.8588 2.35093 0
M  V30 65 H 4.9324 1.11422 1.1746 0
M  V30 66 H 6.9244 -0.0201474 4.04695 0
M  V30 67 H 5.4944 -0.479437 3.08902 0
M  V30 68 H 4.7144 1.98608 3.40512 0
M  V30 69 H 6.0024 2.14885 4.61196 0
M  V30 70 H 5.4004 -0.878796 5.58832 0
M  V30 71 H 3.9574 -0.631115 6.48737 0
M  V30 72 N 7.3905 -1.2043 1.01659 0
M  V30 73 C 8.6385 -1.89423 0.704522 0
M  V30 74 C 8.9595 -1.79231 -0.768197 0
M  V30 75 O 8.2295 -1.1947 -1.55254 0
M  V30 76 H 6.8095 -0.701178 0.257602 0
M  V30 77 H 9.4715 -1.4626 1.28818 0
M  V30 78 H 8.5675 -2.96052 0.987916 0
M  V30 79 N 8.8686 -0.792821 -1.36206 0
M  V30 80 C 9.8166 -0.181555 -2.3189 0
M  V30 81 C 10.8106 0.661025 -1.55971 0
M  V30 82 O 12.0166 0.555728 -1.71206 0
M  V30 83 H 8.3916 -0.0399382 -0.750939 0
M  V30 84 H 10.3626 -1.00394 -2.81005 0
M  V30 85 C 9.1116 0.666444 -3.41253 0
M  V30 86 H 8.4346 0.0274489 -3.99791 0
M  V30 87 H 9.8746 1.06076 -4.10517 0
M  V30 88 C 8.3336 1.82614 -2.83114 0
M  V30 89 O 8.8636 2.9229 -2.75553 0
M  V30 90 N 7.0696 1.63333 -2.40356 0
M  V30 91 H 6.6166 0.741217 -2.46706 0
M  V30 92 H 6.5746 2.41087 -2.01803 0
M  V30 93 N 10.3467 1.47872 -0.545128 0
M  V30 94 C 11.5947 2.02093 -0.016553 0
M  V30 95 C 11.9157 1.42305 1.3332 0
M  V30 96 O 11.1857 0.593853 1.86682 0
M  V30 97 H 9.7657 0.746993 -0.00313038 0
M  V30 98 H 12.4277 1.81414 -0.712397 0
M  V30 99 H 11.5237 3.11996 0.0805422 0
M  V30 100 N 11.8248 0.280983 1.55075 0
M  V30 101 C 12.7348 -0.61388 2.26426 0
M  V30 102 C 13.7508 -1.16521 1.29224 0
M  V30 103 O 14.9268 -1.19426 1.62171 0
M  V30 104 C 11.9918 -1.7788 2.9759 0
M  V30 105 C 11.0528 -1.26355 4.10284 0
M  V30 106 C 10.2858 -2.37295 4.78045 0
M  V30 107 O 10.5088 -3.56777 4.45047 0
M  V30 108 O 9.4428 -2.05119 5.65871 0
M  V30 109 H 13.2688 -0.0356932 3.03679 0
M  V30 110 H 10.8538 0.0481686 1.49322 0
M  V30 111 H 12.7358 -2.45791 3.42293 0
M  V30 112 H 11.4108 -2.34397 2.23249 0
M  V30 113 H 10.3178 -0.550735 3.70024 0
M  V30 114 H 11.6508 -0.744065 4.86543 0
M  V30 115 N 13.3029 -1.57598 0.00835791 0
M  V30 116 C 14.2529 -2.05431 -0.989045 0
M  V30 117 C 15.2369 -0.950662 -1.29812 0
M  V30 118 O 16.4289 -1.21438 -1.28771 0
M  V30 119 C 13.5579 -2.56801 -2.27833 0
M  V30 120 C 12.6439 -3.74058 -1.99853 0
M  V30 121 N 13.0349 -4.8544 -1.42062 0
M  V30 122 C 11.3329 -3.82148 -2.29953 0
M  V30 123 C 12.0339 -5.66817 -1.30743 0
M  V30 124 N 11.0099 -5.13077 -1.7959 0
M  V30 125 H 14.8119 -2.88955 -0.536853 0
M  V30 126 H 12.3259 -1.61199 -0.197148 0
M  V30 127 H 14.3229 -2.89349 -3.00137 0
M  V30 128 H 12.9829 -1.74699 -2.73698 0
M  V30 129 H 13.9939 -5.0612 -1.09833 0
M  V30 130 H 10.6709 -3.10916 -2.78635 0
M  V30 131 H 12.0609 -6.66343 -0.862328 0
M  V30 132 N 14.781 0.264519 -1.55364 0
M  V30 133 C 16.027 0.992314 -1.77552 0
M  V30 134 C 16.382 1.83626 -0.574379 0
M  V30 135 O 15.675 1.86648 0.432782 0
M  V30 136 C 15.869 1.9004 -3.02687 0
M  V30 137 C 15.698 1.14583 -4.34857 0
M  V30 138 C 14.468 0.858068 -4.97961 0
M  V30 139 C 16.666 0.532069 -5.1154 0
M  V30 140 N 14.648 0.0775974 -6.13851 0
M  V30 141 C 16.019 -0.113823 -6.19896 0
M  V30 142 C 18.074 0.440763 -4.95945 0
M  V30 143 C 16.777 -0.842231 -7.14352 0
M  V30 144 C 18.803 -0.274072 -5.90765 0
M  V30 145 C 18.165 -0.90867 -6.98515 0
M  V30 146 H 14.264 0.344811 -0.701875 0
M  V30 147 H 16.848 0.267141 -1.92859 0
M  V30 148 H 15.019 2.59775 -2.88741 0
M  V30 149 H 16.751 2.56243 -3.13243 0
M  V30 150 H 13.506 1.16547 -4.59036 0
M  V30 151 H 13.93 -0.300216 -6.76334 0
M  V30 152 H 18.572 0.917064 -4.12735 0
M  V30 153 H 16.29 -1.33019 -7.97077 0
M  V30 154 H 19.876 -0.345151 -5.80775 0
M  V30 155 H 18.756 -1.45299 -7.70622 0
M  V30 156 N 16.2591 1.48442 0.529413 0
M  V30 157 C 17.2061 1.63007 1.63394 0
M  V30 158 C 18.1761 0.47212 1.59249 0
M  V30 159 O 19.3611 0.695673 1.77666 0
M  V30 160 C 16.5011 1.6763 3.01653 0
M  V30 161 C 15.6141 2.94535 3.16027 0
M  V30 162 C 14.7491 2.90316 4.44849 0
M  V30 163 C 13.7881 4.11923 4.52754 0
M  V30 164 N 12.9251 4.05777 5.72965 0
M  V30 165 H 17.7651 2.5733 1.50285 0
M  V30 166 H 15.3021 1.27613 0.731656 0
M  V30 167 H 17.2601 1.68292 3.81751 0
M  V30 168 H 15.8901 0.76797 3.13532 0
M  V30 169 H 14.9421 3.03615 2.29177 0
M  V30 170 H 16.2541 3.84512 3.17729 0
M  V30 171 H 15.4081 2.89382 5.33238 0
M  V30 172 H 14.1471 1.98068 4.45668 0
M  V30 173 H 13.1521 4.13131 3.62771 0
M  V30 174 H 14.3771 5.0533 4.53672 0
M  V30 175 H 12.3231 3.16351 5.74681 0
M  V30 176 H 12.2401 4.8946 5.76164 0
M  V30 177 H 13.5081 4.08904 6.6364 0
M  V30 178 N 17.7372 -0.778329 1.37039 0
M  V30 179 C 18.9622 -1.57248 1.35233 0
M  V30 180 C 19.3872 -1.87999 -0.0615568 0
M  V30 181 O 18.7452 -1.48734 -1.03672 0
M  V30 182 C 18.7932 -2.86353 2.19167 0
M  V30 183 O 17.8972 -3.80442 1.59178 0
M  V30 184 H 17.2382 -0.476569 0.462362 0
M  V30 185 H 19.7682 -0.963853 1.80474 0
M  V30 186 H 19.7782 -3.35519 2.32145 0
M  V30 187 H 18.4532 -2.63299 3.21942 0
M  V30 188 H 17.0302 -3.39067 1.55203 0
M  V30 189 N 19.2153 -1.21501 -1.00376 0
M  V30 190 C 20.1453 -0.999478 -2.11028 0
M  V30 191 C 21.1263 0.0759671 -1.6993 0
M  V30 192 O 22.3113 -0.0841106 -1.94018 0
M  V30 193 C 19.4413 -0.564709 -3.42678 0
M  V30 194 C 18.3953 -1.58486 -3.97576 0
M  V30 195 C 17.7213 -1.00628 -5.25146 0
M  V30 196 C 19.0213 -2.97204 -4.29496 0
M  V30 197 H 20.7153 -1.92495 -2.29317 0
M  V30 198 H 18.2613 -0.92693 -1.102 0
M  V30 199 H 20.2143 -0.401091 -4.19487 0
M  V30 200 H 18.9383 0.396411 -3.24185 0
M  V30 201 H 17.5973 -1.73606 -3.22888 0
M  V30 202 H 17.2453 -0.0368439 -5.02987 0
M  V30 203 H 16.9453 -1.68771 -5.62841 0
M  V30 204 H 18.4693 -0.854015 -6.04598 0
M  V30 205 H 19.8833 -2.8552 -4.97143 0
M  V30 206 H 18.2803 -3.62372 -4.78338 0
M  V30 207 H 19.3503 -3.47956 -3.3772 0
M  V30 208 N 20.6934 1.19889 -1.02296 0
M  V30 209 C 21.6034 2.26571 -0.608508 0
M  V30 210 C 22.6194 1.70299 0.356964 0
M  V30 211 O 23.7954 2.00235 0.216326 0
M  V30 212 C 20.8604 3.46677 0.0402814 0
M  V30 213 C 19.9214 4.18153 -0.97194 0
M  V30 214 C 19.1544 5.32525 -0.354016 0
M  V30 215 O 19.3774 5.64112 0.844604 0
M  V30 216 O 18.3114 5.92242 -1.07391 0
M  V30 217 H 22.1374 2.64251 -1.49684 0
M  V30 218 H 19.7224 1.26629 -0.792809 0
M  V30 219 H 21.6044 4.19475 0.402324 0
M  V30 220 H 20.2794 3.10858 0.902707 0
M  V30 221 H 19.1864 3.47499 -1.38546 0
M  V30 222 H 20.5194 4.57927 -1.80454 0
M  V30 223 N 22.1715 0.800033 1.35784 0
M  V30 224 C 23.3965 0.388511 2.03729 0
M  V30 225 C 23.8215 -0.990481 1.5991 0
M  V30 226 O 23.1795 -1.64013 0.772612 0
M  V30 227 C 23.2275 0.4726 3.5749 0
M  V30 228 O 22.3315 -0.51646 4.09153 0
M  V30 229 H 21.6725 0.163271 0.643614 0
M  V30 230 H 24.2025 1.0841 1.73518 0
M  V30 231 H 24.2125 0.34003 4.06581 0
M  V30 232 H 22.8875 1.47848 3.88734 0
M  V30 233 H 21.4645 -0.344673 3.71304 0
M  V30 234 N 23.6496 -1.47581 0.552962 0
M  V30 235 C 24.8956 -2.02782 0.0273648 0
M  V30 236 C 25.2286 -1.42687 -1.31734 0
M  V30 237 O 24.5036 -0.580897 -1.85623 0
M  V30 238 C 24.7866 -3.60031 -0.0702371 0
M  V30 239 C 24.6396 -4.30566 1.30126 0
M  V30 240 C 25.9586 -4.33028 -0.785771 0
M  V30 241 H 23.0776 -0.736912 0.0114185 0
M  V30 242 H 25.7196 -1.76056 0.714432 0
M  V30 243 H 23.8696 -3.82932 -0.655382 0
M  V30 244 H 25.5416 -4.19018 1.92929 0
M  V30 245 H 23.7846 -3.91086 1.87709 0
M  V30 246 H 24.4556 -5.39114 1.18573 0
M  V30 247 H 26.9316 -4.15095 -0.288982 0
M  V30 248 H 25.8076 -5.42695 -0.823013 0
M  V30 249 H 26.0686 -4.01945 -1.841 0
M  V30 250 N 25.1277 -0.289203 -1.54924 0
M  V30 251 C 26.3757 0.322879 -1.99504 0
M  V30 252 C 26.6967 1.55313 -1.1791 0
M  V30 253 O 25.9667 1.94001 -0.272097 0
M  V30 254 H 24.5467 0.122291 -0.736922 0
M  V30 255 H 27.2087 -0.397802 -1.90797 0
M  V30 256 H 26.3047 0.603061 -3.06218 0
M  V30 257 N 26.6058 1.57591 -0.0167156 0
M  V30 258 C 27.8548 1.90461 0.663877 0
M  V30 259 C 28.1678 0.893515 1.73999 0
M  V30 260 O 29.3738 1.11302 2.47637 0
M  V30 261 C 27.8298 3.38155 1.23204 0
M  V30 262 C 27.4378 4.47597 0.189866 0
M  V30 263 C 29.1818 3.80111 1.88986 0
M  V30 264 C 27.0888 5.86379 0.768964 0
M  V30 265 H 26.0188 0.710738 0.251729 0
M  V30 266 H 28.6698 1.83326 -0.0799926 0
M  V30 267 H 27.0518 3.40182 2.02712 0
M  V30 268 H 28.2258 4.57112 -0.581846 0
M  V30 269 H 26.5408 4.14766 -0.368475 0
M  V30 270 H 29.1378 4.81145 2.33247 0
M  V30 271 H 29.4808 3.14511 2.72743 0
M  V30 272 H 30.0138 3.80454 1.16187 0
M  V30 273 H 26.7528 6.55493 -0.0301957 0
M  V30 274 H 26.2728 5.80496 1.50945 0
M  V30 275 H 27.9518 6.34563 1.26251 0
M  V30 276 N 28.0839 -0.256276 1.55502 0
M  V30 277 C 29.3089 -1.00766 1.81276 0
M  V30 278 C 29.7339 -1.78524 0.59252 0
M  V30 279 O 29.0919 -1.75413 -0.45827 0
M  V30 280 C 29.1399 -1.92869 3.04687 0
M  V30 281 O 28.2439 -3.019 2.80945 0
M  V30 282 H 27.5849 -0.287224 0.598664 0
M  V30 283 H 30.1149 -0.280109 2.02674 0
M  V30 284 H 30.1249 -2.34511 3.33869 0
M  V30 285 H 28.7999 -1.35689 3.93143 0
M  V30 286 H 27.3769 -2.64454 2.62904 0
M  V30 287 N 29.562 -1.4872 -0.521534 0
M  V30 288 C 30.978 -1.35028 -0.850855 0
M  V30 289 C 31.178 -0.367712 -1.98116 0
M  V30 290 O 30.234 0.208037 -2.51642 0
M  V30 291 C 31.547 -2.75263 -1.21041 0
M  V30 292 C 33.095 -2.83813 -1.31981 0
M  V30 293 C 33.57 -4.24769 -1.71276 0
M  V30 294 N 35.061 -4.27482 -1.78363 0
M  V30 295 C 35.796 -5.33494 -2.1017 0
M  V30 296 N 35.292 -6.49775 -2.40343 0
M  V30 297 N 37.085 -5.20894 -2.11248 0
M  V30 298 H 29.236 -2.11214 0.22413 0
M  V30 299 H 31.499 -0.947252 0.0376439 0
M  V30 300 H 31.205 -3.48765 -0.453415 0
M  V30 301 H 31.079 -3.09327 -2.15863 0
M  V30 302 H 33.466 -2.10561 -2.06756 0
M  V30 303 H 33.547 -2.53358 -0.352596 0
M  V30 304 H 33.191 -4.9854 -0.970588 0
M  V30 305 H 33.121 -4.52673 -2.69062 0
M  V30 306 H 35.612 -3.43611 -1.57288 0
M  V30 307 H 35.925 -7.26402 -2.63743 0
M  V30 308 H 34.27 -6.53035 -2.37844 0
M  V30 309 H 37.461 -4.29065 -1.87139 0
M  V30 310 H 37.634 -6.03612 -2.35704 0
M  V30 311 N 31.0401 0.771051 -1.3745 0
M  V30 312 C 31.9871 1.88435 -1.3327 0
M  V30 313 C 32.9571 1.64914 -0.198136 0
M  V30 314 O 34.1421 1.86821 -0.387606 0
M  V30 315 C 31.2821 3.25509 -1.14622 0
M  V30 316 C 30.3951 3.60979 -2.37314 0
M  V30 317 C 29.5301 4.87265 -2.11533 0
M  V30 318 C 28.5691 5.15469 -3.30088 0
M  V30 319 N 27.7061 6.32944 -3.03853 0
M  V30 320 H 32.5461 1.91344 -2.28455 0
M  V30 321 H 30.0831 0.935466 -1.13523 0
M  V30 322 H 32.0411 4.04582 -1.01831 0
M  V30 323 H 30.6711 3.21974 -0.230837 0
M  V30 324 H 29.7231 2.76885 -2.60842 0
M  V30 325 H 31.0351 3.77759 -3.25729 0
M  V30 326 H 30.1891 5.74244 -1.95777 0
M  V30 327 H 28.9281 4.7259 -1.20457 0
M  V30 328 H 27.9331 4.26966 -3.46382 0
M  V30 329 H 29.1581 5.32052 -4.22016 0
M  V30 330 H 27.1041 6.19625 -2.15407 0
M  V30 331 H 27.0211 6.50143 -3.85812 0
M  V30 332 H 28.2891 7.22857 -2.91716 0
M  V30 333 N 32.5182 1.22032 0.997298 0
M  V30 334 C 33.4282 1.00271 2.12092 0
M  V30 335 C 34.4442 -0.047621 1.73935 0
M  V30 336 O 35.6202 0.144136 2.00884 0
M  V30 337 C 32.6852 0.578449 3.4184 0
M  V30 338 C 31.7462 1.70189 3.94125 0
M  V30 339 C 30.9792 1.29778 5.17681 0
M  V30 340 O 31.2022 0.174676 5.70132 0
M  V30 341 O 30.1362 2.11261 5.63607 0
M  V30 342 H 33.9622 1.94398 2.3333 0
M  V30 343 H 31.5472 1.00587 1.10465 0
M  V30 344 H 33.4292 0.351998 4.19927 0
M  V30 345 H 32.1042 -0.334019 3.21972 0
M  V30 346 H 31.0112 1.98282 3.1723 0
M  V30 347 H 32.3442 2.59206 4.18417 0
M  V30 348 N 33.9963 -1.19345 1.0293 0
M  V30 349 C 34.9263 -2.2481 0.631105 0
M  V30 350 C 35.9073 -1.66245 -0.360104 0
M  V30 351 O 37.0923 -1.92677 -0.242726 0
M  V30 352 C 34.2223 -3.47295 -0.0184607 0
M  V30 353 C 33.1763 -4.18536 0.895073 0
M  V30 354 C 32.5023 -5.34586 0.110592 0
M  V30 355 C 33.8023 -4.73287 2.209 0
M  V30 356 H 35.4963 -2.58372 1.51275 0
M  V30 357 H 33.0423 -1.24194 0.728818 0
M  V30 358 H 34.9953 -4.20268 -0.308675 0
M  V30 359 H 33.7193 -3.12933 -0.934907 0
M  V30 360 H 32.3783 -3.47446 1.16949 0
M  V30 361 H 32.0263 -4.96469 -0.807902 0
M  V30 362 H 31.7263 -5.83183 0.719087 0
M  V30 363 H 33.2503 -6.10355 -0.172871 0
M  V30 364 H 34.6643 -5.38013 1.98028 0
M  V30 365 H 33.0613 -5.32373 2.76946 0
M  V30 366 H 34.1313 -3.91331 2.86336 0
M  V30 367 N 35.4744 -0.807222 -1.35358 0
M  V30 368 C 36.4374 -0.223665 -2.28106 0
M  V30 369 C 37.4374 0.589354 -1.4961 0
M  V30 370 O 38.6274 0.407745 -1.69361 0
M  V30 371 C 35.7594 0.688149 -3.33882 0
M  V30 372 H 36.9524 -1.04169 -2.81227 0
M  V30 373 H 34.5054 -0.577921 -1.45223 0
M  V30 374 H 35.2404 1.52984 -2.85948 0
M  V30 375 H 35.0254 0.10687 -3.91954 0
M  V30 376 H 36.5154 1.09075 -4.03104 0
M  V30 377 N 36.9525 1.47285 -0.560781 0
M  V30 378 C 37.8855 2.27009 0.232821 0
M  V30 379 C 38.8635 1.34273 0.917039 0
M  V30 380 O 40.0475 1.63659 0.935315 0
M  V30 381 C 37.1745 3.11406 1.33206 0
M  V30 382 C 36.2205 4.19746 0.756019 0
M  V30 383 S 37.0535 5.34003 -0.400165 0
M  V30 384 C 38.2095 6.21964 0.700805 0
M  V30 385 H 38.4425 2.93971 -0.443683 0
M  V30 386 H 35.9755 1.50446 -0.347181 0
M  V30 387 H 37.9335 3.60601 1.96156 0
M  V30 388 H 36.5945 2.438 1.98041 0
M  V30 389 H 35.7875 4.78541 1.5816 0
M  V30 390 H 35.3895 3.73451 0.202619 0
M  V30 391 H 37.6815 6.58529 1.59202 0
M  V30 392 H 38.6245 7.07941 0.150126 0
M  V30 393 H 39.0325 5.5566 0.995083 0
M  V30 394 N 38.4306 0.297415 1.54768 0
M  V30 395 C 39.3936 -0.567375 2.22066 0
M  V30 396 C 40.3936 -1.06409 1.20556 0
M  V30 397 O 41.5836 -0.960691 1.45315 0
M  V30 398 C 38.7156 -1.78517 2.90421 0
M  V30 399 H 39.9086 0.0205534 2.99893 0
M  V30 400 H 37.4616 0.0482163 1.56226 0
M  V30 401 H 38.1966 -2.41303 2.16664 0
M  V30 402 H 37.9816 -1.43669 3.64831 0
M  V30 403 H 39.4716 -2.39964 3.41771 0
M  V30 404 N 39.9087 -1.5758 0.0250728 0
M  V30 405 C 40.8187 -2.1343 -0.973905 0
M  V30 406 C 41.8347 -1.08556 -1.35984 0
M  V30 407 O 43.0107 -1.40592 -1.44207 0
M  V30 408 C 40.0757 -2.64703 -2.23904 0
M  V30 409 C 39.1367 -3.84276 -1.91391 0
M  V30 410 C 38.3697 -4.33095 -3.11873 0
M  V30 411 O 38.5927 -3.81107 -4.24398 0
M  V30 412 O 37.5267 -5.24984 -2.94406 0
M  V30 413 H 41.3527 -2.99057 -0.529036 0
M  V30 414 H 38.9377 -1.48118 -0.195288 0
M  V30 415 H 40.8197 -2.97769 -2.98181 0
M  V30 416 H 39.4947 -1.82161 -2.6758 0
M  V30 417 H 38.4017 -3.56143 -1.14511 0
M  V30 418 H 39.7347 -4.67968 -1.52534 0
M  V30 419 N 41.3868 0.248026 -1.55636 0
M  V30 420 C 42.3498 1.29044 -1.89421 0
M  V30 421 C 43.3498 1.41134 -0.770581 0
M  V30 422 O 44.5398 1.39854 -1.03858 0
M  V30 423 C 41.6718 2.66831 -2.12165 0
M  V30 424 H 42.8648 1.00305 -2.82629 0
M  V30 425 H 40.4178 0.487265 -1.48511 0
M  V30 426 H 41.1528 3.00711 -1.21422 0
M  V30 427 H 40.9378 2.59438 -2.93997 0
M  V30 428 H 42.4278 3.42103 -2.3949 0
M  V30 429 N 42.8649 1.48995 0.513639 0
M  V30 430 C 43.7949 1.67636 1.62544 0
M  V30 431 C 44.7759 0.525087 1.61793 0
M  V30 432 O 45.9609 0.759502 1.78732 0
M  V30 433 C 43.0909 1.73114 3.01079 0
M  V30 434 C 42.0449 2.87905 3.16693 0
M  V30 435 C 41.3709 2.78486 4.56453 0
M  V30 436 C 42.6709 4.29005 2.97913 0
M  V30 437 H 44.3649 2.60716 1.47198 0
M  V30 438 H 41.9109 1.25465 0.706714 0
M  V30 439 H 43.8639 1.84742 3.78746 0
M  V30 440 H 42.5879 0.766241 3.17484 0
M  V30 441 H 41.2469 2.75859 2.41448 0
M  V30 442 H 40.8949 1.7993 4.69717 0
M  V30 443 H 40.5949 3.55523 4.67843 0
M  V30 444 H 42.1189 2.92104 5.36197 0
M  V30 445 H 43.5329 4.41798 3.65359 0
M  V30 446 H 41.9299 5.07166 3.20785 0
M  V30 447 H 42.9999 4.44329 1.94165 0
M  V30 448 N 44.343 -0.763751 1.37857 0
M  V30 449 C 45.275 -1.88664 1.30148 0
M  V30 450 C 46.288 -1.61365 0.215685 0
M  V30 451 O 47.477 -1.72134 0.472459 0
M  V30 452 C 44.577 -3.24075 0.991396 0
M  V30 453 C 43.75 -3.78958 2.18426 0
M  V30 454 C 42.809 -4.92862 1.8432 0
M  V30 455 O 41.835 -5.08027 2.56704 0
M  V30 456 N 43.037 -5.75071 0.792081 0
M  V30 457 H 45.802 -1.95791 2.26905 0
M  V30 458 H 43.363 -0.943226 1.31586 0
M  V30 459 H 45.355 -3.97804 0.743935 0
M  V30 460 H 43.925 -3.12399 0.112122 0
M  V30 461 H 43.145 -2.96913 2.59299 0
M  V30 462 H 44.433 -4.12357 2.98058 0
M  V30 463 H 43.831 -5.65375 0.191595 0
M  V30 464 H 42.388 -6.48991 0.60449 0
M  V30 465 N 45.8211 -1.22559 -0.990812 0
M  V30 466 C 46.7541 -0.940773 -2.07905 0
M  V30 467 C 47.7321 0.117082 -1.62178 0
M  V30 468 O 48.9161 -0.0149506 -1.88494 0
M  V30 469 C 46.0431 -0.415321 -3.36144 0
M  V30 470 C 45.0891 -1.45818 -4.00799 0
M  V30 471 S 45.9221 -3.03219 -4.41382 0
M  V30 472 C 47.0781 -2.52317 -5.72789 0
M  V30 473 H 47.3111 -1.8623 -2.31745 0
M  V30 474 H 44.8441 -1.05688 -1.12558 0
M  V30 475 H 46.8021 -0.118747 -4.10328 0
M  V30 476 H 45.4631 0.485121 -3.10331 0
M  V30 477 H 44.6561 -1.04044 -4.93144 0
M  V30 478 H 44.2581 -1.70356 -3.32949 0
M  V30 479 H 46.5501 -1.93688 -6.49224 0
M  V30 480 H 47.4931 -3.43161 -6.19392 0
M  V30 481 H 47.9011 -1.93529 -5.30289 0
M  V30 482 N 47.2992 1.18797 -1.03562 0
M  V30 483 C 48.2092 2.25913 -0.632505 0
M  V30 484 C 49.2252 1.70668 0.338882 0
M  V30 485 O 50.4012 2.00453 0.195076 0
M  V30 486 C 47.4662 3.467 0.00350942 0
M  V30 487 C 46.5272 4.17098 -1.01624 0
M  V30 488 C 45.7602 5.32119 -0.410478 0
M  V30 489 O 45.9832 5.64976 0.784725 0
M  V30 490 O 44.9172 5.9107 -1.13667 0
M  V30 491 H 48.7432 2.62648 -1.52478 0
M  V30 492 H 46.3282 1.25781 -0.806195 0
M  V30 493 H 48.2102 4.19878 0.35781 0
M  V30 494 H 46.8852 3.11798 0.869686 0
M  V30 495 H 45.7922 3.4601 -1.42224 0
M  V30 496 H 47.1252 4.55987 -1.85301 0
M  V30 497 N 48.7773 0.814389 1.34928 0
M  V30 498 C 50.0073 0.41054 2.0248 0
M  V30 499 C 50.4153 -0.985625 1.61499 0
M  V30 500 O 49.7583 -1.64781 0.811976 0
M  V30 501 C 49.8203 0.423384 3.56998 0
M  V30 502 C 49.4843 1.77141 4.21272 0
M  V30 503 C 50.4813 2.73093 4.42398 0
M  V30 504 C 48.1663 2.05755 4.58225 0
M  V30 505 C 50.1603 3.95838 4.9959 0
M  V30 506 C 47.8473 3.28762 5.1513 0
M  V30 507 C 48.8453 4.23621 5.35755 0
M  V30 508 O 48.5333 5.44456 5.91458 0
M  V30 509 H 48.2653 0.163997 0.655806 0
M  V30 510 H 50.8193 1.10155 1.73364 0
M  V30 511 H 49.0493 -0.324276 3.85338 0
M  V30 512 H 50.7383 0.0407683 4.0588 0
M  V30 513 H 51.5043 2.5228 4.14222 0
M  V30 514 H 47.3833 1.32727 4.4148 0
M  V30 515 H 50.9273 4.69891 5.15605 0
M  V30 516 H 46.8243 3.49443 5.42734 0
M  V30 517 H 47.5923 5.4586 6.09901 0
M  V30 518 N 50.2554 -1.46986 0.568584 0
M  V30 519 C 51.5324 -1.95592 -0.0174074 0
M  V30 520 C 51.9124 -1.51124 -1.47393 0
M  V30 521 O 51.2604 -0.755329 -2.15655 0
M  V30 522 C 51.4704 -3.48719 0.139913 0
M  V30 523 C 52.8184 -4.246 0.000426376 0
M  V30 524 O 53.8424 -3.56135 0.0680316 0
M  V30 525 O 52.7014 -5.46302 -0.146988 0
M  V30 526 H 49.7954 -0.82498 -0.0577599 0
M  V30 527 H 52.3414 -1.57335 0.635909 0
M  V30 528 H 51.1134 -3.73927 1.15301 0
M  V30 529 H 50.7364 -3.93771 -0.550491 0
M  V30 530 N 51.7335 -0.305618 -1.54608 0
M  V30 531 C 52.6965 0.555591 -2.22364 0
M  V30 532 C 53.6965 1.05768 -1.21119 0
M  V30 533 O 54.8865 0.952972 -1.45822 0
M  V30 534 C 52.0185 1.76974 -2.91364 0
M  V30 535 H 53.2115 -0.0364572 -2.99878 0
M  V30 536 H 50.7645 -0.0565007 -1.56198 0
M  V30 537 H 51.4995 2.40151 -2.17941 0
M  V30 538 H 51.2845 1.41732 -3.65588 0
M  V30 539 H 52.7745 2.38148 -3.43038 0
M  V30 540 N 53.2116 1.57565 -0.0334293 0
M  V30 541 C 54.1416 2.13511 0.945265 0
M  V30 542 C 55.1226 1.05231 1.33643 0
M  V30 543 O 56.3076 1.33084 1.41429 0
M  V30 544 C 53.4376 2.6657 2.22616 0
M  V30 545 C 52.3916 3.79676 1.97561 0
M  V30 546 C 51.7176 4.1918 3.31952 0
M  V30 547 C 53.0176 5.0557 1.31135 0
M  V30 548 H 54.7116 2.95538 0.479325 0
M  V30 549 H 52.2576 1.42166 0.229115 0
M  V30 550 H 54.2106 3.04344 2.91466 0
M  V30 551 H 52.9346 1.8171 2.71384 0
M  V30 552 H 51.5936 3.42347 1.31127 0
M  V30 553 H 51.2416 3.31296 3.78487 0
M  V30 554 H 50.9416 4.95402 3.15992 0
M  V30 555 H 52.4656 4.59541 4.02063 0
M  V30 556 H 53.8796 5.40903 1.89992 0
M  V30 557 H 52.2766 5.86818 1.25559 0
M  V30 558 H 53.3466 4.84062 0.284894 0
M  V30 559 N 54.6897 -0.239769 1.55765 0
M  V30 560 C 55.9147 -0.988373 1.82335 0
M  V30 561 C 56.3397 -1.77886 0.611421 0
M  V30 562 O 55.6977 -1.75889 -0.439639 0
M  V30 563 C 55.7457 -1.89627 3.06715 0
M  V30 564 O 54.8497 -2.98904 2.84131 0
M  V30 565 H 54.1907 -0.280858 0.601677 0
M  V30 566 H 56.7207 -0.258597 2.02959 0
M  V30 567 H 56.7307 -2.30957 3.36338 0
M  V30 568 H 55.4057 -1.31511 3.9456 0
M  V30 569 H 53.9827 -2.61651 2.65694 0
M  V30 570 N 56.1678 -1.49265 -0.50573 0
M  V30 571 C 57.5838 -1.35923 -0.836486 0
M  V30 572 C 57.7838 -0.388704 -1.97715 0
M  V30 573 O 56.8398 0.181336 -2.51848 0
M  V30 574 C 58.1528 -2.76531 -1.18115 0
M  V30 575 C 59.7008 -2.85197 -1.28964 0
M  V30 576 C 60.1758 -4.26561 -1.66761 0
M  V30 577 N 61.6668 -4.2935 -1.73819 0
M  V30 578 C 62.4018 -5.35693 -2.045 0
M  V30 579 N 61.8978 -6.52287 -2.33438 0
M  V30 580 N 63.6908 -5.23105 -2.05711 0
M  V30 581 H 55.8418 -2.10965 0.246519 0
M  V30 582 H 58.1048 -0.9468 0.0476887 0
M  V30 583 H 57.8108 -3.49226 -0.416398 0
M  V30 584 H 57.6848 -3.11599 -2.1257 0
M  V30 585 H 60.0718 -2.12742 -2.04511 0
M  V30 586 H 60.1528 -2.53718 -0.325704 0
M  V30 587 H 59.7968 -4.99541 -0.917656 0
M  V30 588 H 59.7268 -4.55502 -2.64246 0
M  V30 589 H 62.2178 -3.4526 -1.53635 0
M  V30 590 H 62.5308 -7.29158 -2.56024 0
M  V30 591 H 60.8758 -6.55521 -2.30905 0
M  V30 592 H 64.0668 -4.31026 -1.82577 0
M  V30 593 H 64.2398 -6.06078 -2.29289 0
M  V30 594 N 57.6459 0.756429 -1.3826 0
M  V30 595 C 58.5759 1.88374 -1.37976 0
M  V30 596 C 59.5569 1.68311 -0.246082 0
M  V30 597 O 60.7419 1.88944 -0.44874 0
M  V30 598 C 57.8719 3.25864 -1.20125 0
M  V30 599 C 56.8259 3.60523 -2.30666 0
M  V30 600 C 56.1519 4.9672 -1.97923 0
M  V30 601 C 57.4519 3.65692 -3.72916 0
M  V30 602 H 59.1459 1.88869 -2.32312 0
M  V30 603 H 56.6919 0.907272 -1.11824 0
M  V30 604 H 58.6449 4.0438 -1.18552 0
M  V30 605 H 57.3689 3.25841 -0.222498 0
M  V30 606 H 56.0279 2.84324 -2.3142 0
M  V30 607 H 55.6759 4.93253 -0.985393 0
M  V30 608 H 55.3759 5.20878 -2.71955 0
M  V30 609 H 56.8999 5.77618 -1.97964 0
M  V30 610 H 58.3139 4.34328 -3.74208 0
M  V30 611 H 56.7109 4.01358 -4.4613 0
M  V30 612 H 57.7809 2.65987 -4.05436 0
M  V30 613 N 59.124 1.23083 0.984299 0
M  V30 614 C 60.54 0.992637 1.24975 0
M  V30 615 C 60.74 -0.308618 1.99123 0
M  V30 616 O 59.796 -1.02905 2.30579 0
M  V30 617 C 61.109 2.19698 2.05312 0
M  V30 618 C 62.657 2.24147 2.18465 0
M  V30 619 C 63.132 3.44157 3.02192 0
M  V30 620 N 64.623 3.44372 3.09777 0
M  V30 621 C 65.358 4.33886 3.74874 0
M  V30 622 N 64.854 5.3363 4.41827 0
M  V30 623 N 66.647 4.21639 3.71721 0
M  V30 624 H 58.798 2.06731 0.487453 0
M  V30 625 H 61.061 0.906339 0.277944 0
M  V30 626 H 60.767 3.1411 1.58201 0
M  V30 627 H 60.641 2.20465 3.06064 0
M  V30 628 H 63.028 1.30277 2.64786 0
M  V30 629 H 63.109 2.27415 1.17115 0
M  V30 630 H 62.753 4.38332 2.56568 0
M  V30 631 H 62.683 3.3813 4.03702 0
M  V30 632 H 65.174 2.72201 2.62135 0
M  V30 633 H 65.487 5.98196 4.89266 0
M  V30 634 H 63.832 5.37534 4.40548 0
M  V30 635 H 67.023 3.42962 3.18582 0
M  V30 636 H 67.196 4.91604 4.22173 0
M  V30 637 N 60.6021 -1.18246 1.0419 0
M  V30 638 C 61.5521 -2.19843 0.604392 0
M  V30 639 C 62.5361 -1.56962 -0.353814 0
M  V30 640 O 63.7281 -1.76156 -0.17267 0
M  V30 641 C 60.8571 -3.43287 -0.0298975 0
M  V30 642 C 59.9431 -4.13288 0.951531 0
M  V30 643 N 60.3341 -4.59271 2.11906 0
M  V30 644 C 58.6321 -4.39165 0.7778 0
M  V30 645 C 59.3331 -5.13173 2.73912 0
M  V30 646 N 58.3091 -5.04763 2.01779 0
M  V30 647 H 62.1111 -2.53089 1.4941 0
M  V30 648 H 59.6251 -1.34465 0.910658 0
M  V30 649 H 61.6221 -4.15334 -0.361037 0
M  V30 650 H 60.2821 -3.11537 -0.915127 0
M  V30 651 H 61.2931 -4.5368 2.49789 0
M  V30 652 H 57.9701 -4.17461 -0.0572331 0
M  V30 653 H 59.3601 -5.58947 3.72864 0
M  V30 654 N 62.0802 -0.821533 -1.34494 0
M  V30 655 C 63.3572 -0.33159 -1.92769 0
M  V30 656 C 63.7372 1.18088 -1.74981 0
M  V30 657 O 63.0852 1.98733 -1.12772 0
M  V30 658 C 63.2952 -0.759398 -3.40638 0
M  V30 659 C 64.6432 -0.757433 -4.1779 0
M  V30 660 O 65.6672 -0.70189 -3.49216 0
M  V30 661 O 64.5262 -0.829361 -5.4017 0
M  V30 662 H 61.6202 -0.0902502 -0.822061 0
M  V30 663 H 64.1662 -0.906231 -1.43477 0
M  V30 664 H 62.9382 -1.8012 -3.47379 0
M  V30 665 H 62.5612 -0.160378 -3.97276 0
M  V30 666 N 63.5583 1.46682 -0.576371 0
M  V30 667 C 64.5053 2.30241 0.160499 0
M  V30 668 C 65.4753 1.40233 0.890162 0
M  V30 669 O 66.6603 1.69186 0.882084 0
M  V30 670 C 63.8003 3.24578 1.1723 0
M  V30 671 C 62.9133 4.29684 0.446736 0
M  V30 672 C 62.0483 5.11154 1.44551 0
M  V30 673 C 61.0873 6.08015 0.70599 0
M  V30 674 N 60.2243 6.82376 1.65251 0
M  V30 675 H 65.0643 2.92727 -0.558127 0
M  V30 676 H 62.6013 1.44272 -0.287056 0
M  V30 677 H 64.5593 3.77711 1.77172 0
M  V30 678 H 63.1893 2.63916 1.85872 0
M  V30 679 H 62.2413 3.79458 -0.267594 0
M  V30 680 H 63.5533 4.98626 -0.131686 0
M  V30 681 H 62.7073 5.68533 2.11791 0
M  V30 682 H 61.4463 4.42158 2.05786 0
M  V30 683 H 60.4513 5.49796 0.0197725 0
M  V30 684 H 61.6763 6.79028 0.09912 0
M  V30 685 H 59.6223 6.16094 2.25308 0
M  V30 686 H 59.5393 7.47556 1.12673 0
M  V30 687 H 60.8073 7.44316 2.31546 0
M  V30 688 N 65.0364 0.313813 1.54444 0
M  V30 689 C 65.9464 -0.565714 2.27677 0
M  V30 690 C 66.9624 -1.13754 1.31666 0
M  V30 691 O 68.1384 -1.15959 1.64668 0
M  V30 692 C 65.2034 -1.71528 3.01296 0
M  V30 693 C 64.2644 -1.17624 4.12872 0
M  V30 694 C 63.4974 -2.27102 4.8297 0
M  V30 695 O 63.7204 -3.47256 4.52514 0
M  V30 696 O 62.6544 -1.9307 5.70094 0
M  V30 697 H 66.4804 0.0287296 3.03686 0
M  V30 698 H 64.0654 0.0798312 1.49187 0
M  V30 699 H 65.9474 -2.38476 3.4743 0
M  V30 700 H 64.6224 -2.29608 2.2817 0
M  V30 701 H 63.5294 -0.472124 3.71109 0
M  V30 702 H 64.8624 -0.640695 4.88012 0
M  V30 703 N 66.5145 -1.57545 0.0417849 0
M  V30 704 C 67.4245 -2.14451 -0.951213 0
M  V30 705 C 68.4405 -1.09992 -1.34825 0
M  V30 706 O 69.6165 -1.42114 -1.42708 0
M  V30 707 C 66.6815 -2.67063 -2.21084 0
M  V30 708 C 65.7425 -3.86284 -1.87304 0
M  V30 709 C 64.9755 -4.36378 -3.07261 0
M  V30 710 O 65.1985 -3.85587 -4.20332 0
M  V30 711 O 64.1325 -5.28077 -2.88822 0
M  V30 712 H 67.9585 -2.99601 -0.497287 0
M  V30 713 H 65.5435 -1.48317 -0.179567 0
M  V30 714 H 67.4255 -3.00914 -2.95006 0
M  V30 715 H 66.1005 -1.84989 -2.65633 0
M  V30 716 H 65.0075 -3.57338 -1.10727 0
M  V30 717 H 66.3405 -4.6956 -1.47562 0
M  V30 718 N 67.9926 0.231505 -1.5589 0
M  V30 719 C 68.9406 1.30649 -1.92441 0
M  V30 720 C 69.9346 1.49037 -0.805254 0
M  V30 721 O 71.1406 1.50329 -0.990007 0
M  V30 722 H 67.5156 0.437812 -0.611412 0
M  V30 723 H 69.4866 0.970973 -2.82161 0
M  V30 724 C 68.2356 2.65179 -2.24889 0
M  V30 725 H 67.5586 2.51835 -3.10514 0
M  V30 726 H 68.9986 3.39234 -2.54355 0
M  V30 727 C 67.4576 3.19439 -1.07054 0
M  V30 728 O 67.9876 4.00371 -0.326499 0
M  V30 729 N 66.1936 2.77675 -0.85703 0
M  V30 730 H 65.7406 2.11969 -1.46379 0
M  V30 731 H 65.6986 3.14321 -0.0703223 0
M  V30 732 N 69.4707 1.49531 0.497807 0
M  V30 733 C 70.8867 1.36365 0.829266 0
M  V30 734 C 71.0867 0.399184 1.97506 0
M  V30 735 O 70.1427 -0.167977 2.51941 0
M  V30 736 C 71.4557 2.77153 1.16647 0
M  V30 737 C 73.0037 2.85877 1.27449 0
M  V30 738 C 73.4787 4.2744 1.64497 0
M  V30 739 N 74.9697 4.30265 1.7154 0
M  V30 740 C 75.7047 5.3677 2.01656 0
M  V30 741 N 75.2007 6.53516 2.29976 0
M  V30 742 N 76.9937 5.24189 2.02934 0
M  V30 743 H 69.1447 2.10831 -0.257703 0
M  V30 744 H 71.4077 0.946534 -0.0527091 0
M  V30 745 H 71.1137 3.49442 0.397872 0
M  V30 746 H 70.9877 3.12722 2.10915 0
M  V30 747 H 73.3747 2.13824 2.0338 0
M  V30 748 H 73.4557 2.53887 0.312244 0
M  V30 749 H 73.0997 5.00021 0.891151 0
M  V30 750 H 73.0297 4.56896 2.61827 0
M  V30 751 H 75.5207 3.4607 1.51802 0
M  V30 752 H 75.8337 7.30506 2.52153 0
M  V30 753 H 74.1787 6.56737 2.27425 0
M  V30 754 H 77.3697 4.31988 1.80289 0
M  V30 755 H 77.5427 6.07286 2.26071 0
M  V30 756 N 70.9488 -0.749086 1.3866 0
M  V30 757 C 71.9118 -1.84457 1.36045 0
M  V30 758 C 72.9118 -1.58682 0.260122 0
M  V30 759 O 74.1018 -1.66343 0.517261 0
M  V30 760 C 71.2338 -3.22008 1.11911 0
M  V30 761 H 72.4268 -1.88182 2.33512 0
M  V30 762 H 69.9798 -0.951266 1.24019 0
M  V30 763 H 70.7148 -3.2395 0.150686 0
M  V30 764 H 70.4998 -3.42111 1.91579 0
M  V30 765 H 71.9898 -4.0208 1.12788 0
M  V30 766 N 72.4269 -1.23603 -0.977757 0
M  V30 767 C 73.3739 -1.01954 -2.07061 0
M  V30 768 C 74.3439 0.0638697 -1.65977 0
M  V30 769 O 75.5289 -0.0887624 -1.90593 0
M  V30 770 C 72.6689 -0.619658 -3.39491 0
M  V30 771 C 71.7819 -1.77547 -3.93829 0
M  V30 772 C 70.9169 -1.32212 -5.14484 0
M  V30 773 C 69.9559 -2.44852 -5.60994 0
M  V30 774 N 69.0929 -2.00456 -6.72876 0
M  V30 775 H 73.9329 -1.95495 -2.24913 0
M  V30 776 H 71.4699 -0.973861 -1.10247 0
M  V30 777 H 73.4279 -0.368898 -4.15566 0
M  V30 778 H 72.0579 0.278752 -3.21594 0
M  V30 779 H 71.1099 -2.14016 -3.14486 0
M  V30 780 H 72.4219 -2.62219 -4.24314 0
M  V30 781 H 71.5759 -1.02965 -5.97899 0
M  V30 782 H 70.3149 -0.445808 -4.85658 0
M  V30 783 H 69.3199 -2.74871 -4.76157 0
M  V30 784 H 70.5449 -3.33024 -5.91837 0
M  V30 785 H 68.4909 -1.15208 -6.45804 0
M  V30 786 H 68.4079 -2.78687 -7.02759 0
M  V30 787 H 69.6759 -1.7432 -7.59758 0
M  V30 788 N 73.905 1.17692 -1.04816 0
M  V30 789 C 74.837 2.21103 -0.603822 0
M  V30 790 C 75.85 1.59411 0.33046 0
M  V30 791 O 77.039 1.7807 0.12379 0
M  V30 792 C 74.139 3.38623 0.136898 0
M  V30 793 C 73.312 4.29888 -0.807137 0
M  V30 794 C 72.371 5.26088 -0.10836 0
M  V30 795 O 71.397 5.64353 -0.741232 0
M  V30 796 N 72.599 5.68882 1.15558 0
M  V30 797 H 75.364 2.59848 -1.49329 0
M  V30 798 H 72.925 1.32553 -0.929587 0
M  V30 799 H 74.917 4.00009 0.614401 0
M  V30 800 H 73.487 2.98508 0.927993 0
M  V30 801 H 72.707 3.65993 -1.46434 0
M  V30 802 H 73.995 4.87759 -1.44807 0
M  V30 803 H 73.393 5.39861 1.69015 0
M  V30 804 H 71.95 6.32429 1.57722 0
M  V30 805 N 75.3831 0.828654 1.34056 0
M  V30 806 C 76.3311 0.242973 2.31327 0
M  V30 807 C 77.3251 -0.61944 1.57668 0
M  V30 808 O 78.5311 -0.51014 1.7262 0
M  V30 809 H 74.9061 0.059834 0.749616 0
M  V30 810 H 76.8771 1.07809 2.78244 0
M  V30 811 C 75.6261 -0.575733 3.429 0
M  V30 812 H 74.9491 0.0785582 3.99723 0
M  V30 813 H 76.3891 -0.951547 4.13185 0
M  V30 814 C 74.8481 -1.75044 2.87856 0
M  V30 815 O 75.3781 -2.84882 2.83205 0
M  V30 816 N 73.5841 -1.56903 2.44602 0
M  V30 817 H 73.1311 -0.675547 2.48584 0
M  V30 818 H 73.0891 -2.35652 2.08124 0
M  V30 819 N 76.8612 -1.46375 0.584142 0
M  V30 820 C 77.8242 -2.28784 -0.138108 0
M  V30 821 C 78.8242 -1.38471 -0.817462 0
M  V30 822 O 80.0142 -1.60833 -0.669199 0
M  V30 823 C 77.1462 -3.18892 -1.20503 0
M  V30 824 H 78.3392 -2.94117 0.586127 0
M  V30 825 H 75.8922 -1.52509 0.342171 0
M  V30 826 H 76.6272 -2.58309 -1.96079 0
M  V30 827 H 76.4122 -3.85388 -0.722384 0
M  V30 828 H 77.9022 -3.80914 -1.71155 0
M  V30 829 N 78.3393 -0.321999 -1.54275 0
M  V30 830 C 79.6163 0.335232 -1.92706 0
M  V30 831 C 79.9963 1.70006 -1.25145 0
M  V30 832 O 79.3443 2.25067 -0.394596 0
M  V30 833 C 79.5543 0.429008 -3.46353 0
M  V30 834 C 80.9023 0.690029 -4.18956 0
M  V30 835 O 81.9263 0.511992 -3.52501 0
M  V30 836 O 80.7853 1.03338 -5.36641 0
M  V30 837 H 77.8793 0.191143 -0.804608 0
M  V30 838 H 80.4253 -0.3716 -1.65581 0
M  V30 839 H 79.1973 -0.529611 -3.87699 0
M  V30 840 H 78.8203 1.18348 -3.79578 0
M  V30 841 N 79.8174 1.5752 -0.0501392 0
M  V30 842 C 81.2284 1.80271 0.485705 0
M  V30 843 C 81.5794 0.96228 1.70981 0
M  V30 844 O 80.7044 0.178578 2.15662 0
M  V30 845 C 81.2994 3.26957 0.887938 0
M  V30 846 C 79.8584 3.5063 1.36877 0
M  V30 847 C 79.0054 2.75165 0.343468 0
M  V30 848 H 81.9564 1.56281 -0.276028 0
M  V30 849 H 81.9774 3.37821 1.75093 0
M  V30 850 H 81.4894 3.881 -0.0031809 0
M  V30 851 H 79.5904 2.94766 2.27911 0
M  V30 852 H 79.7034 4.59343 1.36164 0
M  V30 853 H 78.0674 2.4127 0.816128 0
M  V30 854 H 78.8504 3.39034 -0.539548 0
M  V30 855 N 81.2955 -0.223234 1.56011 0
M  V30 856 C 82.5205 -0.968978 1.83373 0
M  V30 857 C 82.9455 -1.77227 0.630254 0
M  V30 858 O 82.3035 -1.76345 -0.420959 0
M  V30 859 C 82.3515 -1.86363 3.08709 0
M  V30 860 O 81.4555 -2.95873 2.87285 0
M  V30 861 H 80.7965 -0.274461 0.604622 0
M  V30 862 H 83.3265 -0.237056 2.03222 0
M  V30 863 H 83.3365 -2.27376 3.38768 0
M  V30 864 H 82.0115 -1.27319 3.95933 0
M  V30 865 H 80.5885 -2.58818 2.68454 0
M  V30 866 N 82.7736 -1.49793 -0.48987 0
M  V30 867 C 83.7036 -1.70201 -1.59856 0
M  V30 868 C 84.6846 -0.55076 -1.60937 0
M  V30 869 O 85.8696 -0.787841 -1.77501 0
M  V30 870 C 82.9996 -1.77882 -2.98287 0
M  V30 871 C 81.9536 -2.92907 -3.12073 0
M  V30 872 C 81.2796 -2.85712 -4.51965 0
M  V30 873 C 82.5796 -4.3369 -2.91051 0
M  V30 874 H 84.2736 -2.63025 -1.43032 0
M  V30 875 H 81.8196 -1.26574 -0.686664 0
M  V30 876 H 83.7726 -1.90744 -3.75759 0
M  V30 877 H 82.4966 -0.816653 -3.16225 0
M  V30 878 H 81.1556 -2.79665 -2.37029 0
M  V30 879 H 80.8036 -1.8738 -4.66795 0
M  V30 880 H 80.5036 -3.62921 -4.62128 0
M  V30 881 H 82.0276 -3.00598 -5.31482 0
M  V30 882 H 83.4416 -4.47555 -3.58284 0
M  V30 883 H 81.8386 -5.12205 -3.12675 0
M  V30 884 H 82.9086 -4.47362 -1.87071 0
M  V30 885 N 84.2517 0.741722 -1.39055 0
M  V30 886 C 85.5007 1.49656 -1.35225 0
M  V30 887 C 85.8137 1.95533 0.0512708 0
M  V30 888 O 87.0197 2.7067 0.212138 0
M  V30 889 C 85.4757 2.70389 -2.37525 0
M  V30 890 C 85.0837 2.31489 -3.83558 0
M  V30 891 C 86.8277 3.48236 -2.42759 0
M  V30 892 C 84.7347 3.48903 -4.77515 0
M  V30 893 H 83.6647 0.56197 -0.502699 0
M  V30 894 H 86.3157 0.809727 -1.64668 0
M  V30 895 H 84.6977 3.41113 -2.01142 0
M  V30 896 H 85.8717 1.68354 -4.28945 0
M  V30 897 H 84.1867 1.66749 -3.81554 0
M  V30 898 H 86.7837 4.35558 -3.1015 0
M  V30 899 H 87.1267 3.90229 -1.45008 0
M  V30 900 H 87.6597 2.84535 -2.78002 0
M  V30 901 H 84.3987 3.11966 -5.76504 0
M  V30 902 H 83.9187 4.11041 -4.36813 0
M  V30 903 H 85.5977 4.15328 -4.96096 0
M  V30 904 N 85.7298 1.2412 0.971189 0
M  V30 905 C 86.9548 1.10667 1.75407 0
M  V30 906 C 87.3798 -0.337048 1.85056 0
M  V30 907 O 86.7378 -1.24396 1.31892 0
M  V30 908 C 86.7858 1.74726 3.15441 0
M  V30 909 O 85.8898 1.01566 3.99697 0
M  V30 910 H 85.2308 0.387341 0.539317 0
M  V30 911 H 87.7608 1.64358 1.2185 0
M  V30 912 H 87.7708 1.80341 3.6598 0
M  V30 913 H 86.4458 2.79773 3.07734 0
M  V30 914 H 85.0228 1.03713 3.58187 0
M  V30 915 N 87.2079 -1.17134 1.05439 0
M  V30 916 C 88.4539 -1.87979 0.776872 0
M  V30 917 C 88.8089 -1.7965 -0.688751 0
M  V30 918 O 88.1019 -1.19535 -1.4974 0
M  V30 919 C 88.2959 -3.36833 1.19491 0
M  V30 920 C 88.1249 -3.59653 2.69963 0
M  V30 921 C 86.8949 -3.76234 3.37307 0
M  V30 922 C 89.0929 -3.59091 3.68182 0
M  V30 923 N 87.0749 -3.86922 4.76618 0
M  V30 924 C 88.4459 -3.75659 4.93235 0
M  V30 925 C 90.5009 -3.42255 3.61616 0
M  V30 926 C 89.2039 -3.77133 6.12506 0
M  V30 927 C 91.2299 -3.45018 4.8033 0
M  V30 928 C 90.5919 -3.62096 6.04207 0
M  V30 929 H 86.6909 -0.705876 0.336546 0
M  V30 930 H 89.2749 -1.40602 1.34682 0
M  V30 931 H 87.4459 -3.82873 0.652884 0
M  V30 932 H 89.1779 -3.95305 0.866966 0
M  V30 933 H 85.9329 -3.76193 2.87708 0
M  V30 934 H 86.3569 -3.96055 5.49062 0
M  V30 935 H 90.9989 -3.27986 2.66805 0
M  V30 936 H 88.7169 -3.90186 7.07659 0
M  V30 937 H 92.3029 -3.33246 4.76905 0
M  V30 938 H 91.1829 -3.64142 6.94529 0
M  V30 939 N 88.686 -0.835752 -1.33615 0
M  V30 940 C 89.963 -0.352017 -1.92406 0
M  V30 941 C 90.343 1.16225 -1.76224 0
M  V30 942 O 89.691 1.97526 -1.14873 0
M  V30 943 C 89.901 -0.795485 -3.39813 0
M  V30 944 C 91.249 -0.801703 -4.16963 0
M  V30 945 O 92.273 -0.738889 -3.48452 0
M  V30 946 O 91.132 -0.886607 -5.3926 0
M  V30 947 H 88.226 -0.0989641 -0.821057 0
M  V30 948 H 90.772 -0.921397 -1.42507 0
M  V30 949 H 89.544 -1.83795 -3.45449 0
M  V30 950 H 89.167 -0.202505 -3.97084 0
M  V30 951 N 90.1641 1.46063 -0.591896 0
M  V30 952 C 91.0741 2.34192 0.13831 0
M  V30 953 C 92.0901 1.50305 0.876608 0
M  V30 954 O 93.2661 1.8315 0.837728 0
M  V30 955 C 90.3311 3.27656 1.13326 0
M  V30 956 C 89.3921 4.27445 0.39863 0
M  V30 957 C 88.6251 5.16443 1.34618 0
M  V30 958 O 88.8481 5.08553 2.58321 0
M  V30 959 O 87.7821 5.95843 0.851768 0
M  V30 960 H 91.6081 2.98002 -0.58552 0
M  V30 961 H 89.1931 1.45188 -0.352239 0
M  V30 962 H 91.0751 3.85291 1.70671 0
M  V30 963 H 89.7501 2.6643 1.83839 0
M  V30 964 H 88.6571 3.73471 -0.216895 0
M  V30 965 H 89.9901 4.91482 -0.265709 0
M  V30 966 N 91.6422 0.330177 1.54103 0
M  V30 967 C 93.0532 -0.15652 1.86043 0
M  V30 968 C 93.4042 -1.51086 1.2517 0
M  V30 969 O 92.5292 -2.09023 0.560217 0
M  V30 970 C 93.1242 -0.290784 3.3755 0
M  V30 971 C 91.6832 -0.721705 3.69416 0
M  V30 972 C 90.8302 0.152622 2.7688 0
M  V30 973 H 93.7812 0.550237 1.48856 0
M  V30 974 H 93.8022 -1.12058 3.63625 0
M  V30 975 H 93.3142 0.695068 3.81825 0
M  V30 976 H 91.4152 -1.71706 3.30678 0
M  V30 977 H 91.5282 -0.520869 4.7626 0
M  V30 978 H 89.8922 -0.372894 2.51956 0
M  V30 979 H 90.6752 1.13536 3.23982 0
M  V30 980 N 93.1203 -1.57491 0.0584922 0
M  V30 981 C 94.3683 -1.92597 -0.612436 0
M  V30 982 C 94.6893 -0.938162 -1.70949 0
M  V30 983 O 93.9593 0.0158301 -1.95894 0
M  V30 984 H 92.5393 -0.710964 -0.229214 0
M  V30 985 H 95.2013 -1.94571 0.113218 0
M  V30 986 H 94.2973 -2.94038 -1.04633 0
M  V30 987 N 94.5984 0.214957 -1.56127 0
M  V30 988 C 95.8444 0.939762 -1.79712 0
M  V30 989 C 96.1774 1.83723 -0.629247 0
M  V30 990 O 95.4524 1.90925 0.371197 0
M  V30 991 C 95.7354 1.77306 -3.13424 0
M  V30 992 C 95.5884 0.90164 -4.40671 0
M  V30 993 C 96.9074 2.74956 -3.43638 0
M  V30 994 H 94.0264 0.340214 -0.653776 0
M  V30 995 H 96.6684 0.20824 -1.88855 0
M  V30 996 H 94.8184 2.39673 -3.0576 0
M  V30 997 H 96.4904 0.294206 -4.60361 0
M  V30 998 H 94.7334 0.207368 -4.33304 0
M  V30 999 H 95.4044 1.51923 -5.30682 0
M  V30 1000 H 97.8804 2.22724 -3.51473 0
M  V30 1001 H 96.7564 3.30358 -4.38355 0
M  V30 1002 H 97.0174 3.53023 -2.66134 0
M  V30 1003 N 96.0765 1.50051 0.48192 0
M  V30 1004 C 97.3535 1.51009 1.2432 0
M  V30 1005 C 97.7335 0.248587 2.09631 0
M  V30 1006 O 97.0815 -0.768409 2.15192 0
M  V30 1007 C 97.2915 2.79981 2.08355 0
M  V30 1008 C 98.6395 3.3022 2.66908 0
M  V30 1009 O 99.6635 2.81228 2.18607 0
M  V30 1010 O 98.5225 4.15595 3.54884 0
M  V30 1011 H 95.6165 0.605239 0.563573 0
M  V30 1012 H 98.1625 1.62332 0.494627 0
M  V30 1013 H 96.9345 3.63275 1.45419 0
M  V30 1014 H 96.5575 2.7161 2.90368 0
M  V30 1015 N 97.5546 -0.734337 1.39446 0
M  V30 1016 C 98.8016 -1.49391 1.36706 0
M  V30 1017 C 99.1296 -1.94465 -0.0367813 0
M  V30 1018 O 98.3846 -1.67154 -1.01774 0
M  V30 1019 C 98.6836 -2.74711 2.28623 0
M  V30 1020 C 98.3496 -2.48501 3.76242 0
M  V30 1021 C 97.0116 -2.41062 4.16464 0
M  V30 1022 C 99.3636 -2.26098 4.69606 0
M  V30 1023 C 96.6916 -2.09262 5.48112 0
M  V30 1024 C 99.0436 -1.95814 6.01531 0
M  V30 1025 C 97.7076 -1.86845 6.40816 0
M  V30 1026 H 96.9776 -0.546661 0.500243 0
M  V30 1027 H 99.6246 -0.842788 1.71957 0
M  V30 1028 H 97.9296 -3.44569 1.86492 0
M  V30 1029 H 99.6266 -3.32741 2.23796 0
M  V30 1030 H 96.2166 -2.55169 3.44364 0
M  V30 1031 H 100.401 -2.30812 4.39363 0
M  V30 1032 H 95.6566 -2.00841 5.77471 0
M  V30 1033 H 99.8306 -1.77488 6.73403 0
M  V30 1034 H 97.4576 -1.6197 7.42745 0
M  V30 1035 N 99.0327 -1.24633 -0.964593 0
M  V30 1036 C 100.263 -1.11339 -1.74032 0
M  V30 1037 C 100.671 0.336593 -1.86182 0
M  V30 1038 O 100.014 1.24389 -1.35178 0
M  V30 1039 C 100.076 -1.68284 -3.1768 0
M  V30 1040 C 99.7397 -3.17196 -3.28992 0
M  V30 1041 C 100.737 -4.14308 -3.14078 0
M  V30 1042 C 98.4217 -3.57215 -3.53133 0
M  V30 1043 C 100.416 -5.4942 -3.23135 0
M  V30 1044 C 98.1027 -4.92468 -3.61827 0
M  V30 1045 C 99.1007 -5.8838 -3.46841 0
M  V30 1046 O 98.7887 -7.21173 -3.55197 0
M  V30 1047 H 98.5207 -0.389551 -0.552472 0
M  V30 1048 H 101.075 -1.65282 -1.21946 0
M  V30 1049 H 99.3047 -1.08777 -3.71085 0
M  V30 1050 H 100.994 -1.50234 -3.77074 0
M  V30 1051 H 101.76 -3.84731 -2.95308 0
M  V30 1052 H 97.6387 -2.83063 -3.63863 0
M  V30 1053 H 101.183 -6.24263 -3.11355 0
M  V30 1054 H 97.0797 -5.21714 -3.80111 0
M  V30 1055 H 97.8477 -7.29135 -3.71892 0
M  V30 1056 N 100.511 1.16574 -1.06058 0
M  V30 1057 C 101.736 1.91493 -0.796562 0
M  V30 1058 C 102.161 1.76773 0.642868 0
M  V30 1059 O 101.519 1.09142 1.44768 0
M  V30 1060 C 101.567 3.40293 -1.19303 0
M  V30 1061 O 100.671 4.11074 -0.330394 0
M  V30 1062 H 100.012 0.596678 -0.291326 0
M  V30 1063 H 102.542 1.47708 -1.41575 0
M  V30 1064 H 102.552 3.91057 -1.16356 0
M  V30 1065 H 101.227 3.50326 -2.24153 0
M  V30 1066 H 99.8038 3.70513 -0.421225 0
M  V30 1067 N 101.989 0.842826 1.3317 0
M  V30 1068 C 102.936 0.276885 2.29133 0
M  V30 1069 C 103.906 -0.609527 1.54512 0
M  V30 1070 O 105.091 -0.546955 1.82792 0
M  V30 1071 C 102.231 -0.538707 3.40869 0
M  V30 1072 C 101.344 0.372169 4.30394 0
M  V30 1073 C 100.479 -0.454908 5.29249 0
M  V30 1074 C 99.5179 0.45411 6.10413 0
M  V30 1075 N 98.6549 -0.335075 7.013 0
M  V30 1076 H 103.495 1.10052 2.76934 0
M  V30 1077 H 101.032 0.554161 1.36262 0
M  V30 1078 H 102.99 -1.02709 4.0436 0
M  V30 1079 H 101.62 -1.32727 2.9425 0
M  V30 1080 H 100.672 0.97888 3.6759 0
M  V30 1081 H 101.984 1.0703 4.87182 0
M  V30 1082 H 101.138 -1.00695 5.98285 0
M  V30 1083 H 99.8769 -1.18646 4.73048 0
M  V30 1084 H 98.8819 1.01813 5.40291 0
M  V30 1085 H 100.107 1.18409 6.68697 0
M  V30 1086 H 98.0529 -1.04994 6.47543 0
M  V30 1087 H 97.9699 0.304262 7.55387 0
M  V30 1088 H 99.2379 -0.869224 7.74638 0
M  V30 1089 N 103.467 -1.45747 0.599634 0
M  V30 1090 C 104.878 -1.85853 0.177681 0
M  V30 1091 C 105.229 -1.50102 -1.26348 0
M  V30 1092 O 104.354 -0.923905 -1.95686 0
M  V30 1093 C 104.949 -3.37326 0.315688 0
M  V30 1094 C 103.508 -3.76365 -0.0515144 0
M  V30 1095 C 102.655 -2.69722 0.643822 0
M  V30 1096 H 105.606 -1.36661 0.806814 0
M  V30 1097 H 105.627 -3.77778 -0.454321 0
M  V30 1098 H 105.139 -3.63315 1.36468 0
M  V30 1099 H 103.24 -3.55993 -1.09999 0
M  V30 1100 H 103.353 -4.77916 0.336594 0
M  V30 1101 H 101.717 -2.54567 0.0822881 0
M  V30 1102 H 102.5 -2.98549 1.6948 0
M  V30 1103 N 104.945 -0.338344 -1.53925 0
M  V30 1104 C 105.908 0.508299 -2.23493 0
M  V30 1105 C 106.908 1.03175 -1.23335 0
M  V30 1106 O 108.098 0.921826 -1.47811 0
M  V30 1107 C 105.23 1.70754 -2.95052 0
M  V30 1108 H 106.423 -0.100058 -2.99733 0
M  V30 1109 H 103.976 -0.0896198 -1.56043 0
M  V30 1110 H 104.711 2.35474 -2.22986 0
M  V30 1111 H 104.496 1.33946 -3.68512 0
M  V30 1112 H 105.986 2.30818 -3.48013 0
M  V30 1113 N 106.423 1.57458 -0.0668435 0
M  V30 1114 C 107.671 1.92919 0.602214 0
M  V30 1115 C 107.992 0.947215 1.70449 0
M  V30 1116 O 107.262 -0.00544117 1.95899 0
M  V30 1117 H 105.842 0.71217 0.22544 0
M  V30 1118 H 108.504 1.94508 -0.123535 0
M  V30 1119 H 107.6 2.94589 1.03073 0
M  V30 1120 N 107.901 -0.206675 1.56239 0
M  V30 1121 C 109.317 -0.557025 1.49564 0
M  V30 1122 C 109.517 -1.86424 0.764735 0
M  V30 1123 O 108.573 -2.50584 0.310491 0
M  V30 1124 C 109.886 -0.622478 2.94186 0
M  V30 1125 C 111.434 -0.712099 3.04792 0
M  V30 1126 C 111.909 -0.808767 4.50803 0
M  V30 1127 N 113.4 -0.8726 4.54907 0
M  V30 1128 C 114.135 -0.967365 5.65181 0
M  V30 1129 N 113.631 -1.02515 6.85173 0
M  V30 1130 N 115.424 -1.00366 5.53067 0
M  V30 1131 H 107.575 0.650943 2.02179 0
M  V30 1132 H 109.838 0.230387 0.919579 0
M  V30 1133 H 109.544 0.268727 3.50672 0
M  V30 1134 H 109.418 -1.4811 3.46905 0
M  V30 1135 H 111.805 -1.59374 2.48363 0
M  V30 1136 H 111.886 0.172489 2.55218 0
M  V30 1137 H 111.53 0.0684754 5.07854 0
M  V30 1138 H 111.46 -1.70899 4.98098 0
M  V30 1139 H 113.951 -0.837657 3.68499 0
M  V30 1140 H 114.264 -1.09765 7.64965 0
M  V30 1141 H 112.609 -0.994026 6.87855 0
M  V30 1142 H 115.8 -0.95527 4.58249 0
M  V30 1143 H 115.973 -1.07405 6.39037 0
M  V30 1144 N 109.379 -1.50304 -0.473955 0
M  V30 1145 C 110.795 -1.37667 -0.807466 0
M  V30 1146 C 110.995 -0.430555 -1.96846 0
M  V30 1147 O 110.051 0.127874 -2.52176 0
M  V30 1148 C 111.364 -2.78974 -1.12223 0
M  V30 1149 C 112.912 -2.87868 -1.22885 0
M  V30 1150 C 113.387 -4.30003 -1.57676 0
M  V30 1151 N 114.878 -4.3294 -1.64673 0
M  V30 1152 C 115.613 -5.3991 -1.93091 0
M  V30 1153 N 115.109 -6.57092 -2.1955 0
M  V30 1154 N 116.902 -5.27351 -1.94569 0
M  V30 1155 H 109.053 -2.10394 0.291212 0
M  V30 1156 H 111.316 -0.945575 0.0677609 0
M  V30 1157 H 111.022 -3.50031 -0.342229 0
M  V30 1158 H 110.896 -3.16038 -2.05913 0
M  V30 1159 H 113.283 -2.17032 -1.99953 0
M  V30 1160 H 113.364 -2.54352 -0.271814 0
M  V30 1161 H 113.008 -5.01375 -0.81149 0
M  V30 1162 H 112.938 -4.61004 -2.54525 0
M  V30 1163 H 115.429 -3.48441 -1.46277 0
M  V30 1164 H 115.742 -7.34425 -2.405 0
M  V30 1165 H 114.087 -6.60272 -2.16948 0
M  V30 1166 H 117.278 -4.34801 -1.73394 0
M  V30 1167 H 117.451 -6.10805 -2.16381 0
M  V30 1168 N 110.857 0.726932 -1.39834 0
M  V30 1169 C 112.085 1.51613 -1.40787 0
M  V30 1170 C 112.5 1.88799 -0.00451505 0
M  V30 1171 O 111.857 1.54662 0.968809 0
M  V30 1172 C 111.908 2.79863 -2.28821 0
M  V30 1173 O 111.629 2.44253 -3.63692 0
M  V30 1174 C 113.13 3.73837 -2.38245 0
M  V30 1175 H 110.35 0.468264 -0.480593 0
M  V30 1176 H 112.894 0.897607 -1.83748 0
M  V30 1177 H 111.049 3.38027 -1.89252 0
M  V30 1178 H 111.463 3.26695 -4.1033 0
M  V30 1179 H 112.937 4.60699 -3.04073 0
M  V30 1180 H 113.414 4.16153 -1.40403 0
M  V30 1181 H 114.02 3.21589 -2.78317 0
M  V30 1182 N 112.336 1.25143 0.95797 0
M  V30 1183 C 113.613 1.00472 1.67823 0
M  V30 1184 C 113.993 -0.470056 2.058 0
M  V30 1185 O 113.341 -1.44663 1.76875 0
M  V30 1186 C 113.551 1.9372 2.90299 0
M  V30 1187 C 114.899 2.21371 3.62326 0
M  V30 1188 O 115.923 1.91451 3.00375 0
M  V30 1189 O 114.782 2.72231 4.7387 0
M  V30 1190 H 111.876 0.380752 0.734137 0
M  V30 1191 H 114.422 1.36283 1.01119 0
M  V30 1192 H 113.194 2.93316 2.59001 0
M  V30 1193 H 112.817 1.58286 3.64735 0
M  V30 1194 N 113.814 -1.1601 1.06675 0
M  V30 1195 C 114.744 -2.22688 0.702307 0
M  V30 1196 C 115.725 -1.67306 -0.307032 0
M  V30 1197 O 116.91 -1.93352 -0.181305 0
M  V30 1198 C 114.04 -3.47178 0.092038 0
M  V30 1199 C 112.994 -4.15477 1.02777 0
M  V30 1200 C 112.32 -5.33963 0.28061 0
M  V30 1201 C 113.62 -4.66019 2.35846 0
M  V30 1202 H 115.314 -2.53429 1.59419 0
M  V30 1203 H 112.86 -1.21813 0.767961 0
M  V30 1204 H 114.813 -4.21037 -0.174814 0
M  V30 1205 H 113.537 -3.15749 -0.834877 0
M  V30 1206 H 112.196 -3.43549 1.27944 0
M  V30 1207 H 111.844 -4.98788 -0.649545 0
M  V30 1208 H 111.544 -5.806 0.904258 0
M  V30 1209 H 113.068 -6.10596 0.021396 0
M  V30 1210 H 114.482 -5.3144 2.15045 0
M  V30 1211 H 112.879 -5.23293 2.93743 0
M  V30 1212 H 113.949 -3.82023 2.98641 0
M  V30 1213 N 115.292 -0.849877 -1.32721 0
M  V30 1214 C 116.239 -0.289033 -2.28983 0
M  V30 1215 C 117.209 0.601324 -1.54833 0
M  V30 1216 O 118.394 0.537253 -1.8308 0
M  V30 1217 C 115.534 0.520623 -3.4115 0
M  V30 1218 C 114.647 -0.394989 -4.3019 0
M  V30 1219 C 113.782 0.426834 -5.29482 0
M  V30 1220 C 112.821 -0.486476 -6.10164 0
M  V30 1221 N 111.958 0.297879 -7.01468 0
M  V30 1222 H 116.798 -1.11519 -2.76347 0
M  V30 1223 H 114.335 -0.56138 -1.35967 0
M  V30 1224 H 116.293 1.00563 -4.04899 0
M  V30 1225 H 114.923 1.31165 -2.9495 0
M  V30 1226 H 113.975 -0.99836 -3.67065 0
M  V30 1227 H 115.287 -1.09612 -4.86607 0
M  V30 1228 H 114.441 0.975205 -5.98811 0
M  V30 1229 H 113.18 1.16136 -4.73671 0
M  V30 1230 H 112.185 -1.04677 -5.39743 0
M  V30 1231 H 113.41 -1.21953 -6.6806 0
M  V30 1232 H 111.356 1.01558 -6.48091 0
M  V30 1233 H 111.273 -0.344318 -7.55216 0
M  V30 1234 H 112.541 0.828131 -7.75089 0
M  V30 1235 N 116.77 1.45427 -0.607355 0
M  V30 1236 C 117.7 2.3329 0.0989352 0
M  V30 1237 C 118.681 1.46816 0.859007 0
M  V30 1238 O 119.866 1.75588 0.829604 0
M  V30 1239 C 116.996 3.29518 1.09705 0
M  V30 1240 C 115.95 4.25626 0.450206 0
M  V30 1241 C 115.276 5.11542 1.55655 0
M  V30 1242 C 116.576 5.18505 -0.628455 0
M  V30 1243 H 118.27 2.92595 -0.634716 0
M  V30 1244 H 115.816 1.40696 -0.306681 0
M  V30 1245 H 117.769 3.89855 1.59971 0
M  V30 1246 H 116.493 2.68372 1.86129 0
M  V30 1247 H 115.152 3.66586 -0.0315886 0
M  V30 1248 H 114.8 4.46765 2.31107 0
M  V30 1249 H 114.5 5.76647 1.12925 0
M  V30 1250 H 116.024 5.74748 2.06148 0
M  V30 1251 H 117.438 5.72916 -0.209877 0
M  V30 1252 H 115.835 5.92085 -0.977489 0
M  V30 1253 H 116.905 4.60948 -1.50514 0
M  V30 1254 N 118.248 0.346503 1.53744 0
M  V30 1255 C 119.178 -0.501193 2.28058 0
M  V30 1256 C 120.159 -1.10014 1.29734 0
M  V30 1257 O 121.344 -1.12097 1.58581 0
M  V30 1258 C 118.474 -1.65078 3.05559 0
M  V30 1259 C 117.428 -1.18003 4.11411 0
M  V30 1260 C 116.754 -2.41837 4.76884 0
M  V30 1261 C 118.054 -0.278394 5.21558 0
M  V30 1262 H 119.748 0.11875 2.99164 0
M  V30 1263 H 117.294 0.0585531 1.43881 0
M  V30 1264 H 119.247 -2.25028 3.56287 0
M  V30 1265 H 117.971 -2.29767 2.32109 0
M  V30 1266 H 116.63 -0.603331 3.61601 0
M  V30 1267 H 116.278 -3.0494 4.00026 0
M  V30 1268 H 115.978 -2.1102 5.48402 0
M  V30 1269 H 117.502 -3.02508 5.30397 0
M  V30 1270 H 118.916 -0.784823 5.67903 0
M  V30 1271 H 117.313 -0.0619707 6.00068 0
M  V30 1272 H 118.383 0.684677 4.80042 0
M  V30 1273 N 119.726 -1.57421 0.075193 0
M  V30 1274 C 121.142 -1.57099 -0.281444 0
M  V30 1275 C 121.342 -1.08486 -1.69803 0
M  V30 1276 O 120.398 -0.752279 -2.41033 0
M  V30 1277 C 121.711 -3.00571 -0.0880041 0
M  V30 1278 C 123.259 -3.12605 -0.157281 0
M  V30 1279 C 123.734 -4.57999 0.0079207 0
M  V30 1280 N 125.225 -4.63176 -0.0475725 0
M  V30 1281 C 125.96 -5.73373 0.0557876 0
M  V30 1282 N 125.456 -6.92473 0.21286 0
M  V30 1283 N 127.249 -5.621 -0.00152098 0
M  V30 1284 H 119.4 -1.87335 1.00098 0
M  V30 1285 H 121.663 -0.86377 0.390646 0
M  V30 1286 H 121.369 -3.40262 0.889629 0
M  V30 1287 H 121.243 -3.67754 -0.838875 0
M  V30 1288 H 123.63 -2.72798 -1.1254 0
M  V30 1289 H 123.711 -2.48053 0.62475 0
M  V30 1290 H 123.355 -4.98496 0.972824 0
M  V30 1291 H 123.285 -5.20586 -0.793556 0
M  V30 1292 H 125.776 -3.7753 -0.167244 0
M  V30 1293 H 126.089 -7.72279 0.283781 0
M  V30 1294 H 124.434 -6.94556 0.248267 0
M  V30 1295 H 127.625 -4.67938 -0.122958 0
M  V30 1296 H 127.798 -6.47948 0.0824844 0
M  V30 1297 N 121.204 0.198386 -1.56346 0
M  V30 1298 C 122.452 0.91747 -1.80075 0
M  V30 1299 C 122.773 1.83929 -0.647692 0
M  V30 1300 O 122.043 1.93029 0.334166 0
M  V30 1301 H 120.623 0.341774 -0.664228 0
M  V30 1302 H 123.285 0.204684 -1.93822 0
M  V30 1303 H 122.381 1.51055 -2.7311 0
M  V30 1304 N 122.682 1.50554 0.465978 0
M  V30 1305 C 123.612 1.72722 1.57128 0
M  V30 1306 C 124.593 0.576294 1.6004 0
M  V30 1307 O 125.778 0.81598 1.76225 0
M  V30 1308 C 122.908 1.82605 2.95419 0
M  V30 1309 C 121.862 2.97835 3.07373 0
M  V30 1310 C 121.188 2.92867 4.47363 0
M  V30 1311 C 122.488 4.38265 2.84114 0
M  V30 1312 H 124.182 2.65267 1.38829 0
M  V30 1313 H 121.728 1.2765 0.666441 0
M  V30 1314 H 123.681 1.96698 3.72677 0
M  V30 1315 H 122.405 0.866858 3.14886 0
M  V30 1316 H 121.064 2.83401 2.3255 0
M  V30 1317 H 120.712 1.94783 4.63755 0
M  V30 1318 H 120.412 3.70227 4.56296 0
M  V30 1319 H 121.936 3.09015 5.26633 0
M  V30 1320 H 123.35 4.53198 3.51118 0
M  V30 1321 H 121.747 5.17115 3.04487 0
M  V30 1322 H 122.817 4.50281 1.7993 0
M  V30 1323 N 124.16 -0.719506 1.40217 0
M  V30 1324 C 125.385 -1.51371 1.4178 0
M  V30 1325 C 125.81 -1.88091 0.0182355 0
M  V30 1326 O 125.168 -1.52997 -0.972707 0
M  V30 1327 C 125.216 -2.768 2.31115 0
M  V30 1328 O 124.32 -3.73349 1.7517 0
M  V30 1329 H 123.661 -0.456529 0.482159 0
M  V30 1330 H 126.191 -0.88644 1.844 0
M  V30 1331 H 126.201 -3.25371 2.46167 0
M  V30 1332 H 124.876 -2.49407 3.3282 0
M  V30 1333 H 123.453 -3.32179 1.69444 0
M  V30 1334 N 125.638 -1.25649 -0.95132 0
M  V30 1335 C 126.886 -1.10375 -1.69298 0
M  V30 1336 C 127.207 0.355339 -1.91735 0
M  V30 1337 O 126.477 1.25188 -1.50681 0
M  V30 1338 H 125.057 -0.405461 -0.627384 0
M  V30 1339 H 127.719 -1.57823 -1.14358 0
M  V30 1340 H 126.815 -1.61465 -2.67087 0
M  V30 1341 N 127.117 1.15442 -1.07289 0
M  V30 1342 C 128.342 1.90638 -0.816828 0
M  V30 1343 C 128.767 1.77445 0.624083 0
M  V30 1344 O 128.125 1.10671 1.43602 0
M  V30 1345 C 128.173 3.39008 -1.22906 0
M  V30 1346 O 127.277 4.10701 -0.373975 0
M  V30 1347 H 126.618 0.593555 -0.297638 0
M  V30 1348 H 129.148 1.46198 -1.43134 0
M  V30 1349 H 129.158 3.89801 -1.20497 0
M  V30 1350 H 127.833 3.47929 -2.27856 0
M  V30 1351 H 126.41 3.70046 -0.460499 0
M  V30 1352 N 128.595 0.856903 1.32268 0
M  V30 1353 C 129.872 0.382583 1.91822 0
M  V30 1354 C 130.252 -1.13407 1.78051 0
M  V30 1355 O 129.6 -1.95673 1.18001 0
M  V30 1356 C 129.81 0.849446 3.38505 0
M  V30 1357 C 131.158 0.867936 4.15634 0
M  V30 1358 O 132.182 0.794232 3.47232 0
M  V30 1359 O 131.041 0.972286 5.37781 0
M  V30 1360 H 128.135 0.112014 0.819379 0
M  V30 1361 H 130.681 0.943952 1.41024 0
M  V30 1362 H 129.453 1.89267 3.42482 0
M  V30 1363 H 129.076 0.265652 3.96712 0
M  V30 1364 N 130.073 -1.45103 0.615059 0
M  V30 1365 C 131.484 -1.85654 0.197383 0
M  V30 1366 C 131.835 -1.51433 -1.24749 0
M  V30 1367 O 130.96 -0.944608 -1.94695 0
M  V30 1368 C 131.555 -3.36972 0.351448 0
M  V30 1369 C 130.114 -3.76398 -0.011593 0
M  V30 1370 C 129.261 -2.69024 0.672394 0
M  V30 1371 H 132.212 -1.35797 0.821263 0
M  V30 1372 H 132.233 -3.78239 -0.414227 0
M  V30 1373 H 131.745 -3.61847 1.40314 0
M  V30 1374 H 129.846 -3.5714 -1.06217 0
M  V30 1375 H 129.959 -4.77532 0.387265 0
M  V30 1376 H 128.323 -2.54465 0.109284 0
M  V30 1377 H 129.106 -2.96735 1.72636 0
M  V30 1378 N 131.551 -0.354651 -1.53558 0
M  V30 1379 C 132.779 0.239515 -2.05509 0
M  V30 1380 C 133.194 1.4333 -1.2289 0
M  V30 1381 O 132.551 1.80538 -0.266899 0
M  V30 1382 C 132.602 0.643719 -3.55723 0
M  V30 1383 O 132.323 -0.502602 -4.35207 0
M  V30 1384 C 133.824 1.29743 -4.23889 0
M  V30 1385 H 131.044 0.0442697 -0.669538 0
M  V30 1386 H 133.588 -0.509856 -1.98042 0
M  V30 1387 H 131.743 1.34302 -3.63376 0
M  V30 1388 H 132.157 -0.178172 -5.24197 0
M  V30 1389 H 133.631 1.53091 -5.30346 0
M  V30 1390 H 134.108 2.25441 -3.76926 0
M  V30 1391 H 134.714 0.639865 -4.20459 0
M  V30 1392 N 133.029 1.57378 -0.0835403 0
M  V30 1393 C 133.959 2.1641 0.87686 0
M  V30 1394 C 134.94 1.09429 1.30228 0
M  V30 1395 O 136.125 1.37516 1.37124 0
M  V30 1396 C 133.255 2.73517 2.14022 0
M  V30 1397 C 132.209 3.85769 1.85381 0
M  V30 1398 C 131.535 4.29529 3.18448 0
M  V30 1399 C 132.835 5.09486 1.14984 0
M  V30 1400 H 134.529 2.96914 0.385059 0
M  V30 1401 H 132.075 1.42823 0.18377 0
M  V30 1402 H 134.028 3.13463 2.81636 0
M  V30 1403 H 132.752 1.90252 2.65465 0
M  V30 1404 H 131.411 3.46345 1.20169 0
M  V30 1405 H 131.059 3.43169 3.67755 0
M  V30 1406 H 130.759 5.05204 3.00071 0
M  V30 1407 H 132.283 4.72099 3.8724 0
M  V30 1408 H 133.697 5.46674 1.72687 0
M  V30 1409 H 132.094 5.90515 1.06826 0
M  V30 1410 H 133.164 4.84724 0.130749 0
M  V30 1411 N 134.507 -0.190092 1.56449 0
M  V30 1412 C 135.455 -1.25501 1.95837 0
M  V30 1413 C 136.449 -1.4685 0.844485 0
M  V30 1414 O 137.655 -1.47651 1.02952 0
M  V30 1415 H 134.03 -0.421447 0.622805 0
M  V30 1416 H 136.001 -0.895821 2.84636 0
M  V30 1417 C 134.75 -2.59124 2.31841 0
M  V30 1418 H 134.073 -2.43514 3.17082 0
M  V30 1419 H 135.513 -3.32371 2.6326 0
M  V30 1420 C 133.972 -3.16488 1.15486 0
M  V30 1421 O 134.502 -3.99365 0.432535 0
M  V30 1422 N 132.708 -2.75305 0.930349 0
M  V30 1423 H 132.255 -2.08013 1.51948 0
M  V30 1424 H 132.213 -3.14024 0.153634 0
M  V30 1425 N 135.985 -1.50799 -0.457987 0
M  V30 1426 C 137.215 -1.65977 -1.23025 0
M  V30 1427 C 137.623 -0.347918 -1.85974 0
M  V30 1428 O 136.966 0.68148 -1.70592 0
M  V30 1429 C 137.028 -2.70309 -2.3701 0
M  V30 1430 C 136.692 -4.135 -1.94594 0
M  V30 1431 C 137.689 -4.98949 -1.46101 0
M  V30 1432 C 135.374 -4.5949 -2.02915 0
M  V30 1433 C 137.368 -6.28442 -1.06489 0
M  V30 1434 C 135.055 -5.88984 -1.62914 0
M  V30 1435 C 136.053 -6.73286 -1.1478 0
M  V30 1436 O 135.741 -8.00362 -0.75339 0
M  V30 1437 H 135.473 -0.56064 -0.377702 0
M  V30 1438 H 138.027 -1.97857 -0.551537 0
M  V30 1439 H 136.257 -2.337 -3.08093 0
M  V30 1440 H 137.946 -2.74574 -2.98938 0
M  V30 1441 H 138.712 -4.6463 -1.39084 0
M  V30 1442 H 134.591 -3.94009 -2.39328 0
M  V30 1443 H 138.135 -6.94194 -0.688488 0
M  V30 1444 H 134.032 -6.22822 -1.69595 0
M  V30 1445 H 134.8 -8.13744 -0.88108 0
M  V30 1446 N 137.463 0.71206 -1.40597 0
M  V30 1447 C 138.411 1.84746 -1.41321 0
M  V30 1448 C 139.405 1.66842 -0.293268 0
M  V30 1449 O 140.611 1.73904 -0.464481 0
M  V30 1450 H 136.986 0.608522 -0.441819 0
M  V30 1451 H 138.957 1.81252 -2.37045 0
M  V30 1452 C 137.706 3.22638 -1.29614 0
M  V30 1453 H 137.029 3.37023 -2.15071 0
M  V30 1454 H 138.469 4.02209 -1.3418 0
M  V30 1455 C 136.928 3.36899 -0.00673121 0
M  V30 1456 O 137.458 3.90186 0.954859 0
M  V30 1457 N 135.664 2.9053 0.0639327 0
M  V30 1458 H 135.211 2.47353 -0.719311 0
M  V30 1459 H 135.169 3.0045 0.926118 0
M  V30 1460 N 138.941 1.26152 0.944643 0
M  V30 1461 C 140.166 1.14363 1.7302 0
M  V30 1462 C 140.591 -0.29772 1.85729 0
M  V30 1463 O 139.949 -1.2157 1.34501 0
M  V30 1464 C 139.997 1.81378 3.11664 0
M  V30 1465 O 139.101 1.10022 3.97453 0
M  V30 1466 H 138.442 0.398694 0.53098 0
M  V30 1467 H 140.972 1.66906 1.18337 0
M  V30 1468 H 140.982 1.88064 3.62072 0
M  V30 1469 H 139.657 2.86237 3.0173 0
M  V30 1470 H 138.234 1.11287 3.55907 0
M  V30 1471 N 140.419 -1.14872 1.07899 0
M  V30 1472 C 141.349 -2.2193 0.725887 0
M  V30 1473 C 142.33 -1.67622 -0.28927 0
M  V30 1474 O 143.515 -1.93533 -0.160787 0
M  V30 1475 C 140.645 -3.47061 0.128856 0
M  V30 1476 C 139.599 -4.14363 1.07178 0
M  V30 1477 C 138.925 -5.33636 0.337229 0
M  V30 1478 C 140.225 -4.63492 2.40775 0
M  V30 1479 H 141.919 -2.51724 1.62097 0
M  V30 1480 H 139.465 -1.20991 0.780838 0
M  V30 1481 H 141.418 -4.21199 -0.130147 0
M  V30 1482 H 140.142 -3.16617 -0.80134 0
M  V30 1483 H 138.801 -3.42173 1.3158 0
M  V30 1484 H 138.449 -4.99449 -0.596606 0
M  V30 1485 H 138.149 -5.79609 0.965788 0
M  V30 1486 H 139.673 -6.10539 0.0861567 0
M  V30 1487 H 141.087 -5.2913 2.20669 0
M  V30 1488 H 139.484 -5.20148 2.99276 0
M  V30 1489 H 140.554 -3.78834 3.02676 0
M  V30 1490 N 141.898 -0.863906 -1.31812 0
M  V30 1491 C 143.123 -0.48527 -2.01643 0
M  V30 1492 C 143.548 0.913058 -1.64453 0
M  V30 1493 O 142.906 1.6014 -0.849985 0
M  V30 1494 C 142.954 -0.642625 -3.54828 0
M  V30 1495 O 142.058 0.320659 -4.11151 0
M  V30 1496 H 141.399 -0.193793 -0.635091 0
M  V30 1497 H 143.929 -1.16565 -1.68148 0
M  V30 1498 H 143.939 -0.533628 -4.04495 0
M  V30 1499 H 142.614 -1.66227 -3.81237 0
M  V30 1500 H 141.191 0.167126 -3.72525 0
M  V30 1501 N 143.376 1.44774 -0.622745 0
M  V30 1502 C 144.787 1.85546 -0.207226 0
M  V30 1503 C 145.138 1.52093 1.23944 0
M  V30 1504 O 144.263 0.95492 1.94191 0
M  V30 1505 C 144.858 3.36781 -0.369313 0
M  V30 1506 C 143.417 3.76399 -0.00836847 0
M  V30 1507 C 142.564 2.68664 -0.686651 0
M  V30 1508 H 145.515 1.3536 -0.828454 0
M  V30 1509 H 145.536 3.78453 0.394162 0
M  V30 1510 H 145.048 3.61098 -1.42231 0
M  V30 1511 H 143.149 3.57698 1.04322 0
M  V30 1512 H 143.262 4.7732 -0.412584 0
M  V30 1513 H 141.626 2.54404 -0.122777 0
M  V30 1514 H 142.409 2.95815 -1.74208 0
M  V30 1515 N 144.854 0.36279 1.53368 0
M  V30 1516 C 145.786 -0.519668 2.23231 0
M  V30 1517 C 146.799 -1.04844 1.24546 0
M  V30 1518 O 147.988 -0.955296 1.50786 0
M  V30 1519 C 145.088 -1.72995 2.9142 0
M  V30 1520 C 144.261 -1.33316 4.16588 0
M  V30 1521 C 143.32 -2.40521 4.68013 0
M  V30 1522 O 142.346 -2.03027 5.3176 0
M  V30 1523 N 143.548 -3.72065 4.45587 0
M  V30 1524 H 146.313 0.078751 2.99597 0
M  V30 1525 H 143.874 0.187833 1.60807 0
M  V30 1526 H 145.866 -2.44184 3.22733 0
M  V30 1527 H 144.436 -2.2353 2.18525 0
M  V30 1528 H 143.656 -0.451236 3.91609 0
M  V30 1529 H 144.944 -1.04432 4.97967 0
M  V30 1530 H 144.342 -4.05304 3.94646 0
M  V30 1531 H 142.899 -4.39366 4.81457 0
M  V30 1532 N 146.332 -1.57332 0.0918853 0
M  V30 1533 C 147.242 -2.17368 -0.882505 0
M  V30 1534 C 148.258 -1.14226 -1.31257 0
M  V30 1535 O 149.434 -1.46582 -1.38115 0
M  V30 1536 C 146.499 -2.73962 -2.12476 0
M  V30 1537 C 145.56 -3.92048 -1.7492 0
M  V30 1538 C 144.793 -4.45933 -2.93223 0
M  V30 1539 O 145.016 -3.98764 -4.07852 0
M  V30 1540 O 143.95 -5.36999 -2.71875 0
M  V30 1541 H 147.776 -3.01031 -0.40172 0
M  V30 1542 H 145.361 -1.48813 -0.132291 0
M  V30 1543 H 147.243 -3.10147 -2.85283 0
M  V30 1544 H 145.918 -1.93347 -2.59613 0
M  V30 1545 H 144.825 -3.6068 -0.993025 0
M  V30 1546 H 146.158 -4.74017 -1.32548 0
M  V30 1547 N 147.81 0.181792 -1.56548 0
M  V30 1548 C 149.058 0.89832 -1.81038 0
M  V30 1549 C 149.379 1.83232 -0.667164 0
M  V30 1550 O 148.649 1.93372 0.313673 0
M  V30 1551 H 147.229 0.33471 -0.667816 0
M  V30 1552 H 149.891 0.184116 -1.94028 0
M  V30 1553 H 148.987 1.4815 -2.74696 0
M  V30 1554 N 149.288 1.51039 0.449983 0
M  V30 1555 C 150.699 1.557 1.03026 0
M  V30 1556 C 151.05 0.372939 1.92623 0
M  V30 1557 O 150.175 -0.511771 2.10261 0
M  V30 1558 C 150.77 2.82171 1.87523 0
M  V30 1559 C 149.329 2.89444 2.40622 0
M  V30 1560 C 148.476 2.50228 1.19504 0
M  V30 1561 H 151.427 1.56999 0.231745 0
M  V30 1562 H 151.448 2.65219 2.72835 0
M  V30 1563 H 150.96 3.68331 1.22286 0
M  V30 1564 H 149.061 2.07685 3.0935 0
M  V30 1565 H 149.174 3.92816 2.74285 0
M  V30 1566 H 147.538 2.03139 1.53644 0
M  V30 1567 H 148.321 3.38719 0.558972 0
M  V30 1568 N 150.766 -0.704594 1.40972 0
M  V30 1569 C 152.177 -1.28418 1.3552 0
M  V30 1570 C 152.528 -1.96171 0.0339434 0
M  V30 1571 O 151.653 -1.98231 -0.867944 0
M  V30 1572 C 152.248 -2.33528 2.45459 0
M  V30 1573 C 150.807 -2.87085 2.43433 0
M  V30 1574 C 149.954 -1.61007 2.2577 0
M  V30 1575 H 152.905 -0.499963 1.50619 0
M  V30 1576 H 152.926 -3.14619 2.13998 0
M  V30 1577 H 152.438 -1.84187 3.41609 0
M  V30 1578 H 150.539 -3.40626 1.51013 0
M  V30 1579 H 150.652 -3.3813 3.39419 0
M  V30 1580 H 149.016 -1.86482 1.73483 0
M  V30 1581 H 149.799 -1.13675 3.23933 0
M  V30 1582 N 152.244 -1.26651 -0.937939 0
M  V30 1583 C 153.192 -1.08308 -2.05845 0
M  V30 1584 C 154.186 -0.0090757 -1.69398 0
M  V30 1585 O 155.392 -0.166007 -1.79233 0
M  V30 1586 H 151.767 -0.333416 -0.674046 0
M  V30 1587 H 153.738 -2.03261 -2.18467 0
M  V30 1588 C 152.487 -0.736229 -3.39816 0
M  V30 1589 H 151.81 -1.55453 -3.6834 0
M  V30 1590 H 153.25 -0.64769 -4.19024 0
M  V30 1591 C 151.709 0.558824 -3.32233 0
M  V30 1592 O 152.239 1.59621 -3.68624 0
M  V30 1593 N 150.445 0.550657 -2.85335 0
M  V30 1594 H 149.992 -0.293943 -2.55917 0
M  V30 1595 H 149.95 1.41726 -2.80644 0
M  V30 1596 N 153.722 1.14298 -1.08507 0
M  V30 1597 C 154.672 2.17449 -0.685569 0
M  V30 1598 C 155.656 1.58167 0.295315 0
M  V30 1599 O 156.848 1.76675 0.107172 0
M  V30 1600 C 153.977 3.43161 -0.0975318 0
M  V30 1601 C 153.063 4.09471 -1.10426 0
M  V30 1602 N 153.454 4.51089 -2.28806 0
M  V30 1603 C 151.752 4.35976 -0.940258 0
M  V30 1604 C 152.453 5.02654 -2.9277 0
M  V30 1605 N 151.429 4.96927 -2.20374 0
M  V30 1606 H 155.231 2.47369 -1.587 0
M  V30 1607 H 152.745 1.30992 -0.959936 0
M  V30 1608 H 154.742 4.16388 0.20664 0
M  V30 1609 H 153.402 3.14719 0.798872 0
M  V30 1610 H 154.413 4.44097 -2.66455 0
M  V30 1611 H 151.09 4.17386 -0.0977441 0
M  V30 1612 H 152.48 5.44723 -3.93352 0
M  V30 1613 N 155.201 0.870884 1.31352 0
M  V30 1614 C 156.426 0.495957 2.01383 0
M  V30 1615 C 156.851 -0.904324 1.64935 0
M  V30 1616 O 156.209 -1.59687 0.858466 0
M  V30 1617 C 156.257 0.661433 3.54482 0
M  V30 1618 O 155.361 -0.298851 4.11316 0
M  V30 1619 H 154.702 0.197158 0.634054 0
M  V30 1620 H 157.232 1.17455 1.67527 0
M  V30 1621 H 157.242 0.555072 4.04207 0
M  V30 1622 H 155.917 1.68246 3.8035 0
M  V30 1623 H 154.494 -0.147368 3.72609 0
M  V30 1624 N 156.679 -1.44442 0.630414 0
M  V30 1625 C 157.907 -2.06414 0.141671 0
M  V30 1626 C 158.322 -1.47105 -1.18345 0
M  V30 1627 O 157.679 -0.593662 -1.72574 0
M  V30 1628 C 157.73 -3.61494 0.0199784 0
M  V30 1629 O 157.451 -4.18594 1.29269 0
M  V30 1630 C 158.952 -4.40499 -0.497544 0
M  V30 1631 H 156.172 -0.666292 0.0793452 0
M  V30 1632 H 158.716 -1.85323 0.864614 0
M  V30 1633 H 156.871 -3.8185 -0.653402 0
M  V30 1634 H 157.285 -5.12026 1.13707 0
M  V30 1635 H 158.759 -5.49433 -0.531708 0
M  V30 1636 H 159.236 -4.11895 -1.52445 0
M  V30 1637 H 159.842 -4.25061 0.142562 0
M  V30 1638 N 158.157 -0.370918 -1.53173 0
M  V30 1639 C 159.382 0.220293 -2.06227 0
M  V30 1640 C 159.807 1.41243 -1.24225 0
M  V30 1641 O 159.165 1.79387 -0.262645 0
M  V30 1642 C 159.213 0.586663 -3.55796 0
M  V30 1643 O 158.317 1.68317 -3.76488 0
M  V30 1644 H 157.658 0.0308099 -0.663285 0
M  V30 1645 H 160.188 -0.533068 -1.97534 0
M  V30 1646 H 160.198 0.85617 -3.98916 0
M  V30 1647 H 158.873 -0.285013 -4.14922 0
M  V30 1648 H 157.45 1.40881 -3.45264 0
M  V30 1649 N 159.635 1.57281 -0.100228 0
M  V30 1650 C 160.567 2.11342 0.886972 0
M  V30 1651 C 161.58 1.05182 1.24261 0
M  V30 1652 O 162.769 1.32613 1.19483 0
M  V30 1653 C 159.869 2.5825 2.19454 0
M  V30 1654 C 159.042 3.88302 2.01346 0
M  V30 1655 C 158.101 4.21004 3.15661 0
M  V30 1656 O 157.127 4.9014 2.89398 0
M  V30 1657 N 158.329 3.76818 4.41575 0
M  V30 1658 H 161.094 2.96668 0.425216 0
M  V30 1659 H 158.655 1.61678 0.0847334 0
M  V30 1660 H 160.647 2.7717 2.94888 0
M  V30 1661 H 159.217 1.77907 2.57037 0
M  V30 1662 H 158.437 3.7848 1.10212 0
M  V30 1663 H 159.725 4.73375 1.8653 0
M  V30 1664 H 159.123 3.2102 4.65792 0
M  V30 1665 H 157.68 4.00882 5.13942 0
M  V30 1666 N 161.113 -0.173488 1.56642 0
M  V30 1667 C 162.361 -0.888706 1.81512 0
M  V30 1668 C 162.682 -1.82875 0.676872 0
M  V30 1669 O 161.952 -1.93536 -0.303414 0
M  V30 1670 H 160.532 -0.331164 0.669582 0
M  V30 1671 H 163.194 -0.173823 1.94123 0
M  V30 1672 H 162.29 -1.46691 2.75478 0
M  V30 1673 N 162.591 -1.51276 -0.441967 0
M  V30 1674 C 164.002 -1.56244 -1.02199 0
M  V30 1675 C 164.353 -0.383149 -1.92422 0
M  V30 1676 O 163.478 0.500613 -2.1053 0
M  V30 1677 C 164.073 -2.83162 -1.86024 0
M  V30 1678 C 162.632 -2.90716 -2.39084 0
M  V30 1679 C 161.779 -2.50858 -1.18175 0
M  V30 1680 H 164.73 -1.5712 -0.223416 0
M  V30 1681 H 164.751 -2.66663 -2.71425 0
M  V30 1682 H 164.263 -3.68974 -1.20331 0
M  V30 1683 H 162.364 -2.09323 -3.08244 0
M  V30 1684 H 162.477 -3.94266 -2.72198 0
M  V30 1685 H 160.841 -2.03951 -1.52565 0
M  V30 1686 H 161.624 -3.3901 -0.541001 0
M  V30 1687 N 164.069 0.697108 -1.41344 0
M  V30 1688 C 165.001 1.8224 -1.39001 0
M  V30 1689 C 166.014 1.60152 -0.292428 0
M  V30 1690 O 167.203 1.69684 -0.554048 0
M  V30 1691 C 164.303 3.18976 -1.14489 0
M  V30 1692 C 163.476 3.68105 -2.36258 0
M  V30 1693 C 162.535 4.83506 -2.07625 0
M  V30 1694 O 161.561 4.95201 -2.8065 0
M  V30 1695 N 162.763 5.70637 -1.06555 0
M  V30 1696 H 165.528 1.84742 -2.35988 0
M  V30 1697 H 163.089 0.87937 -1.35936 0
M  V30 1698 H 165.081 3.93801 -0.932885 0
M  V30 1699 H 163.651 3.11508 -0.261043 0
M  V30 1700 H 162.871 2.84204 -2.7317 0
M  V30 1701 H 164.159 3.97667 -3.17393 0
M  V30 1702 H 163.557 5.63817 -0.461125 0
M  V30 1703 H 162.114 6.45368 -0.913444 0
M  V30 1704 N 165.547 1.27147 0.931209 0
M  V30 1705 C 166.958 1.12044 1.49342 0
M  V30 1706 C 167.309 -0.295795 1.93957 0
M  V30 1707 O 166.434 -1.18835 1.80852 0
M  V30 1708 C 167.029 2.02781 2.71414 0
M  V30 1709 C 165.588 1.91794 3.2387 0
M  V30 1710 C 164.735 1.95543 1.96617 0
M  V30 1711 H 167.686 1.40091 0.745672 0
M  V30 1712 H 167.707 1.58156 3.46074 0
M  V30 1713 H 167.219 3.05848 2.38911 0
M  V30 1714 H 165.32 0.916992 3.6114 0
M  V30 1715 H 165.433 2.77852 3.90302 0
M  V30 1716 H 163.797 1.39722 2.12955 0
M  V30 1717 H 164.58 3.00259 1.66432 0
M  V30 1718 N 167.025 -1.13721 1.09112 0
M  V30 1719 C 168.273 -1.84559 0.823562 0
M  V30 1720 C 168.594 -1.83754 -0.652658 0
M  V30 1721 O 167.864 -1.29102 -1.47342 0
M  V30 1722 H 166.444 -0.683376 0.301673 0
M  V30 1723 H 169.106 -1.37771 1.37859 0
M  V30 1724 H 168.202 -2.8917 1.17419 0
M  V30 1725 N 168.503 -0.877838 -1.30888 0
M  V30 1726 C 169.728 -0.506629 -2.01117 0
M  V30 1727 C 170.153 0.895564 -1.65412 0
M  V30 1728 O 169.511 1.5923 -0.866922 0
M  V30 1729 C 169.559 -0.680223 -3.54126 0
M  V30 1730 O 168.663 0.277033 -4.11468 0
M  V30 1731 H 168.004 -0.200518 -0.633 0
M  V30 1732 H 170.534 -1.18342 -1.66902 0
M  V30 1733 H 170.544 -0.5765 -4.03907 0
M  V30 1734 H 169.219 -1.70261 -3.79452 0
M  V30 1735 H 167.796 0.127606 -3.72682 0
M  V30 1736 N 169.982 1.44106 -0.638065 0
M  V30 1737 C 171.259 1.95453 -0.0759321 0
M  V30 1738 C 171.639 1.57984 1.40015 0
M  V30 1739 O 170.987 0.857361 2.11806 0
M  V30 1740 C 171.197 3.47655 -0.306132 0
M  V30 1741 C 172.545 4.24114 -0.203008 0
M  V30 1742 O 173.569 3.55405 -0.237871 0
M  V30 1743 O 172.428 5.46381 -0.113827 0
M  V30 1744 H 169.522 0.826797 0.0183332 0
M  V30 1745 H 172.068 1.54122 -0.710251 0
M  V30 1746 H 170.84 3.68 -1.3301 0
M  V30 1747 H 170.463 3.95949 0.361991 0
M  V30 1748 N 171.46 0.379036 1.52974 0
M  V30 1749 C 172.871 -0.0972525 1.86447 0
M  V30 1750 C 173.222 -1.47027 1.29914 0
M  V30 1751 O 172.347 -2.07135 0.626433 0
M  V30 1752 C 172.942 -0.183248 3.38304 0
M  V30 1753 C 171.501 -0.603812 3.71525 0
M  V30 1754 C 170.648 0.240632 2.76254 0
M  V30 1755 H 173.599 0.597316 1.4703 0
M  V30 1756 H 173.62 -1.00432 3.67006 0
M  V30 1757 H 173.132 0.816191 3.79421 0
M  V30 1758 H 171.233 -1.61099 3.35973 0
M  V30 1759 H 171.346 -0.369086 4.77676 0
M  V30 1760 H 169.71 -0.292548 2.53014 0
M  V30 1761 H 170.493 1.23786 3.20206 0
M  V30 1762 N 172.938 -1.57226 0.108567 0
M  V30 1763 C 174.184 -1.95919 -0.546564 0
M  V30 1764 C 174.539 -0.990417 -1.6495 0
M  V30 1765 O 173.832 -0.0186593 -1.91591 0
M  V30 1766 C 174.026 -3.38911 -1.13463 0
M  V30 1767 C 173.855 -4.4961 -0.0901926 0
M  V30 1768 C 172.625 -5.04168 0.338008 0
M  V30 1769 C 174.823 -5.09693 0.686808 0
M  V30 1770 N 172.805 -5.98434 1.36931 0
M  V30 1771 C 174.176 -5.99804 1.56958 0
M  V30 1772 C 176.231 -4.92388 0.738846 0
M  V30 1773 C 174.934 -6.74463 2.49983 0
M  V30 1774 C 176.96 -5.67719 1.65676 0
M  V30 1775 C 176.322 -6.57507 2.52713 0
M  V30 1776 H 172.421 -0.763312 -0.169936 0
M  V30 1777 H 175.005 -1.93728 0.194264 0
M  V30 1778 H 173.176 -3.41769 -1.84522 0
M  V30 1779 H 174.908 -3.64752 -1.75322 0
M  V30 1780 H 171.663 -4.73571 -0.0523673 0
M  V30 1781 H 172.087 -6.5027 1.88356 0
M  V30 1782 H 176.729 -4.22724 0.080084 0
M  V30 1783 H 174.447 -7.4338 3.16878 0
M  V30 1784 H 178.033 -5.56338 1.70233 0
M  V30 1785 H 176.913 -7.14778 3.22586 0
M  V30 1786 N 174.416 0.165178 -1.56732 0
M  V30 1787 C 175.827 0.727046 -1.71962 0
M  V30 1788 C 176.178 1.82508 -0.720078 0
M  V30 1789 O 175.303 2.16082 0.117242 0
M  V30 1790 C 175.898 1.32559 -3.11791 0
M  V30 1791 C 174.457 1.83422 -3.28684 0
M  V30 1792 C 173.604 0.715567 -2.67908 0
M  V30 1793 H 176.555 -0.0602896 -1.58585 0
M  V30 1794 H 176.576 2.19533 -3.10782 0
M  V30 1795 H 176.088 0.526195 -3.84516 0
M  V30 1796 H 174.189 2.65986 -2.60926 0
M  V30 1797 H 174.302 1.97543 -4.36478 0
M  V30 1798 H 172.666 1.13758 -2.27884 0
M  V30 1799 H 173.449 -0.0720836 -3.43224 0
M  V30 1800 N 175.894 1.51508 0.433938 0
M  V30 1801 C 176.841 1.73068 1.52696 0
M  V30 1802 C 177.811 0.572441 1.55924 0
M  V30 1803 O 178.996 0.807253 1.72882 0
M  V30 1804 C 176.136 1.86474 2.90381 0
M  V30 1805 C 175.249 3.14037 2.96656 0
M  V30 1806 C 174.384 3.18019 4.25485 0
M  V30 1807 C 173.423 4.39882 4.2564 0
M  V30 1808 N 172.56 4.41394 5.45999 0
M  V30 1809 H 177.4 2.66366 1.33615 0
M  V30 1810 H 174.937 1.32008 0.649018 0
M  V30 1811 H 176.895 1.92229 3.70275 0
M  V30 1812 H 175.525 0.965809 3.08013 0
M  V30 1813 H 174.577 3.17575 2.09404 0
M  V30 1814 H 175.889 4.0394 2.92633 0
M  V30 1815 H 175.043 3.22708 5.13755 0
M  V30 1816 H 173.782 2.2601 4.3217 0
M  V30 1817 H 172.787 4.35366 3.35763 0
M  V30 1818 H 174.012 5.33159 4.20617 0
M  V30 1819 H 171.958 3.52258 5.53399 0
M  V30 1820 H 171.875 5.25111 5.4387 0
M  V30 1821 H 173.143 4.50281 6.36292 0
M  V30 1822 N 177.372 -0.689602 1.41712 0
M  V30 1823 C 178.62 -1.4468 1.4111 0
M  V30 1824 C 178.941 -1.94986 0.0232196 0
M  V30 1825 O 178.211 -1.72097 -0.935913 0
M  V30 1826 H 176.791 -0.536847 0.519427 0
M  V30 1827 H 179.453 -0.815825 1.77004 0
M  V30 1828 H 178.549 -2.30706 2.10193 0
M  V30 1829 N 178.85 -1.27639 -0.924453 0
M  V30 1830 C 180.075 -1.17101 -1.71179 0
M  V30 1831 C 180.5 0.268134 -1.86179 0
M  V30 1832 O 179.858 1.19415 -1.36418 0
M  V30 1833 C 179.906 -1.86313 -3.08739 0
M  V30 1834 O 179.01 -1.16331 -3.95652 0
M  V30 1835 H 178.351 -0.407091 -0.524569 0
M  V30 1836 H 180.881 -1.68767 -1.15666 0
M  V30 1837 H 180.891 -1.938 -3.59034 0
M  V30 1838 H 179.566 -2.91001 -2.97138 0
M  V30 1839 H 178.143 -1.16935 -3.54091 0
M  V30 1840 N 180.328 1.1314 -1.09713 0
M  V30 1841 C 181.258 2.20748 -0.761102 0
M  V30 1842 C 182.239 1.68061 0.262566 0
M  V30 1843 O 183.424 1.93765 0.129977 0
M  V30 1844 C 180.554 3.46812 -0.184054 0
M  V30 1845 C 179.508 4.12606 -1.13757 0
M  V30 1846 C 178.834 5.33031 -0.422083 0
M  V30 1847 C 180.134 4.59603 -2.48118 0
M  V30 1848 H 181.828 2.49113 -1.66082 0
M  V30 1849 H 179.374 1.19734 -0.799987 0
M  V30 1850 H 181.327 4.21353 0.0631215 0
M  V30 1851 H 180.051 3.17851 0.750868 0
M  V30 1852 H 178.71 3.40036 -1.37007 0
M  V30 1853 H 178.358 5.00335 0.517072 0
M  V30 1854 H 178.058 5.77999 -1.05788 0
M  V30 1855 H 179.582 6.10325 -0.183277 0
M  V30 1856 H 180.996 5.25552 -2.29059 0
M  V30 1857 H 179.393 5.15321 -3.07514 0
M  V30 1858 H 180.463 3.73971 -3.08665 0
M  V30 1859 N 181.806 0.884767 1.30421 0
M  V30 1860 C 183.031 0.517288 2.00845 0
M  V30 1861 C 183.456 -0.886779 1.65885 0
M  V30 1862 O 182.814 -1.58768 0.875354 0
M  V30 1863 C 182.862 0.698994 3.5376 0
M  V30 1864 O 181.966 -0.255208 4.1161 0
M  V30 1865 H 181.307 0.203872 0.631927 0
M  V30 1866 H 183.837 1.19225 1.66272 0
M  V30 1867 H 183.847 0.597912 4.03595 0
M  V30 1868 H 182.522 1.72271 3.78544 0
M  V30 1869 H 181.099 -0.10784 3.72744 0
M  V30 1870 N 183.284 -1.43765 0.645699 0
M  V30 1871 C 184.532 -2.01499 0.155731 0
M  V30 1872 C 184.853 -1.51151 -1.232 0
M  V30 1873 O 184.123 -0.721044 -1.82148 0
M  V30 1874 H 182.703 -0.745003 0.0545817 0
M  V30 1875 H 185.365 -1.76075 0.835677 0
M  V30 1876 H 184.461 -3.1181 0.134577 0
M  V30 1877 N 184.763 -0.387143 -1.52771 0
M  V30 1878 C 186.04 0.253197 -1.93954 0
M  V30 1879 C 186.42 1.64545 -1.32243 0
M  V30 1880 O 185.768 2.23191 -0.489699 0
M  V30 1881 C 185.978 0.281722 -3.47861 0
M  V30 1882 C 187.326 0.511715 -4.21505 0
M  V30 1883 O 188.35 0.362023 -3.54356 0
M  V30 1884 O 187.209 0.804847 -5.40541 0
M  V30 1885 H 184.303 0.156845 -0.811991 0
M  V30 1886 H 186.849 -0.441494 -1.63856 0
M  V30 1887 H 185.621 -0.693571 -3.85104 0
M  V30 1888 H 185.244 1.02142 -3.84256 0
M  V30 1889 N 186.241 1.57166 -0.116904 0
M  V30 1890 C 187.471 1.99184 0.548586 0
M  V30 1891 C 187.879 0.995436 1.60897 0
M  V30 1892 O 187.222 -0.0201293 1.83689 0
M  V30 1893 C 187.284 3.37611 1.23526 0
M  V30 1894 C 186.948 4.55857 0.323077 0
M  V30 1895 C 187.945 5.18056 -0.437476 0
M  V30 1896 C 185.63 5.01751 0.234761 0
M  V30 1897 C 187.624 6.24536 -1.2741 0
M  V30 1898 C 185.311 6.08093 -0.605496 0
M  V30 1899 C 186.309 6.69352 -1.35856 0
M  V30 1900 O 185.997 7.7364 -2.18487 0
M  V30 1901 H 185.729 0.659148 0.149999 0
M  V30 1902 H 188.283 2.0443 -0.199428 0
M  V30 1903 H 186.513 3.29113 2.0303 0
M  V30 1904 H 188.202 3.63932 1.79745 0
M  V30 1905 H 188.968 4.83516 -0.379105 0
M  V30 1906 H 184.847 4.53817 0.810601 0
M  V30 1907 H 188.391 6.72281 -1.86237 0
M  V30 1908 H 184.288 6.42063 -0.665268 0
M  V30 1909 H 185.056 7.90727 -2.11406 0
M  V30 1910 N 187.719 -0.156864 1.56817 0
M  V30 1911 C 188.649 -1.19589 2.00551 0
M  V30 1912 C 189.63 -1.4536 0.883426 0
M  V30 1913 O 190.815 -1.56449 1.15054 0
M  V30 1914 C 187.945 -2.53143 2.37773 0
M  V30 1915 C 186.899 -2.41913 3.53075 0
M  V30 1916 C 186.225 -3.80088 3.76081 0
M  V30 1917 C 187.525 -1.91157 4.86062 0
M  V30 1918 H 189.219 -0.832293 2.87599 0
M  V30 1919 H 186.765 -0.398918 1.38364 0
M  V30 1920 H 188.718 -3.26047 2.66967 0
M  V30 1921 H 187.442 -2.91319 1.4765 0
M  V30 1922 H 186.101 -1.71462 3.24031 0
M  V30 1923 H 185.749 -4.15683 2.83225 0
M  V30 1924 H 185.449 -3.73439 4.53671 0
M  V30 1925 H 186.973 -4.54556 4.0769 0
M  V30 1926 H 188.387 -2.53846 5.14038 0
M  V30 1927 H 186.784 -1.95422 5.67389 0
M  V30 1928 H 187.854 -0.866673 4.77092 0
M  V30 1929 N 189.197 -1.51736 -0.425897 0
M  V30 1930 C 190.427 -1.68549 -1.19476 0
M  V30 1931 C 190.835 -0.387288 -1.85194 0
M  V30 1932 O 190.178 0.645142 -1.71999 0
M  V30 1933 C 190.24 -2.75275 -2.31223 0
M  V30 1934 C 189.904 -4.17534 -1.8578 0
M  V30 1935 C 190.901 -5.01936 -1.35485 0
M  V30 1936 C 188.586 -4.6369 -1.93123 0
M  V30 1937 C 190.58 -6.30559 -0.931347 0
M  V30 1938 C 188.267 -5.92307 -1.50384 0
M  V30 1939 C 189.265 -6.75569 -1.00473 0
M  V30 1940 O 188.953 -8.0178 -0.583452 0
M  V30 1941 H 188.685 -0.568525 -0.365725 0
M  V30 1942 H 191.239 -1.98982 -0.509444 0
M  V30 1943 H 189.469 -2.40182 -3.03067 0
M  V30 1944 H 191.158 -2.80853 -2.93047 0
M  V30 1945 H 191.924 -4.67475 -1.29197 0
M  V30 1946 H 187.803 -3.98997 -2.30916 0
M  V30 1947 H 191.347 -6.95498 -0.541084 0
M  V30 1948 H 187.244 -6.2628 -1.56346 0
M  V30 1949 H 188.012 -8.1543 -0.708275 0
M  V30 1950 N 190.675 0.682077 -1.42076 0
M  V30 1951 C 191.924 1.43786 -1.41451 0
M  V30 1952 C 192.237 1.95574 -0.0317074 0
M  V30 1953 O 193.443 2.71326 0.0971462 0
M  V30 1954 C 191.899 2.60071 -2.48779 0
M  V30 1955 C 191.507 2.15013 -3.93031 0
M  V30 1956 C 193.251 3.37626 -2.57311 0
M  V30 1957 C 191.158 3.28336 -4.91883 0
M  V30 1958 H 190.088 0.540143 -0.526082 0
M  V30 1959 H 192.739 0.739157 -1.67955 0
M  V30 1960 H 191.121 3.32275 -2.15429 0
M  V30 1961 H 192.295 1.5001 -4.35699 0
M  V30 1962 H 190.61 1.50416 -3.88284 0
M  V30 1963 H 193.207 4.22012 -3.28345 0
M  V30 1964 H 193.55 3.83727 -1.61429 0
M  V30 1965 H 194.083 2.72488 -2.89819 0
M  V30 1966 H 190.822 2.87234 -5.89217 0
M  V30 1967 H 190.342 3.92145 -4.53853 0
M  V30 1968 H 192.021 3.93913 -5.13265 0
M  V30 1969 N 192.153 1.28127 0.917671 0
M  V30 1970 C 193.4 1.15052 1.66641 0
M  V30 1971 C 193.728 -0.301677 1.92146 0
M  V30 1972 O 192.983 -1.23622 1.51711 0
M  V30 1973 C 193.282 1.89018 3.03327 0
M  V30 1974 C 192.948 3.38832 2.97496 0
M  V30 1975 C 191.61 3.79693 2.95613 0
M  V30 1976 C 193.962 4.34378 2.88036 0
M  V30 1977 C 191.29 5.14447 2.82066 0
M  V30 1978 C 193.642 5.69201 2.7603 0
M  V30 1979 C 192.306 6.09343 2.72502 0
M  V30 1980 H 191.576 0.421006 0.609783 0
M  V30 1981 H 194.223 1.58855 1.06945 0
M  V30 1982 H 192.528 1.37752 3.66785 0
M  V30 1983 H 194.225 1.76321 3.60156 0
M  V30 1984 H 190.815 3.06342 2.99754 0
M  V30 1985 H 194.999 4.03775 2.88581 0
M  V30 1986 H 190.255 5.44681 2.77728 0
M  V30 1987 H 194.429 6.42901 2.67678 0
M  V30 1988 H 192.056 7.13712 2.61762 0
M  V30 1989 N 193.631 -1.12557 1.10312 0
M  V30 1990 C 194.908 -1.80363 0.756878 0
M  V30 1991 C 195.288 -1.97067 -0.756824 0
M  V30 1992 O 194.636 -1.54601 -1.68259 0
M  V30 1993 C 194.846 -3.14812 1.50647 0
M  V30 1994 C 196.194 -3.90029 1.67817 0
M  V30 1995 O 197.218 -3.24464 1.46974 0
M  V30 1996 O 196.077 -5.07652 2.02365 0
M  V30 1997 H 193.171 -0.780667 0.272926 0
M  V30 1998 H 195.717 -1.19404 1.20586 0
M  V30 1999 H 194.489 -2.97936 2.53672 0
M  V30 2000 H 194.112 -3.83478 1.05026 0
M  V30 2001 N 195.109 -0.891671 -1.2995 0
M  V30 2002 C 196.357 -0.512486 -1.95494 0
M  V30 2003 C 196.678 0.942776 -1.70695 0
M  V30 2004 O 195.948 1.66374 -1.03424 0
M  V30 2005 H 194.528 -0.186533 -0.723336 0
M  V30 2006 H 197.19 -1.13621 -1.58355 0
M  V30 2007 H 196.286 -0.688342 -3.04415 0
M  V30 2008 N 196.587 1.43421 -0.653314 0
M  V30 2009 C 197.812 2.06678 -0.172846 0
M  V30 2010 C 198.237 1.48648 1.15262 0
M  V30 2011 O 197.595 0.596457 1.71208 0
M  V30 2012 C 197.643 3.60474 -0.0953184 0
M  V30 2013 O 196.747 4.01487 0.942442 0
M  V30 2014 H 196.088 0.657181 -0.0949155 0
M  V30 2015 H 198.618 1.83925 -0.896265 0
M  V30 2016 H 198.628 4.07905 0.0879728 0
M  V30 2017 H 197.303 4.02088 -1.06291 0
M  V30 2018 H 195.88 3.65646 0.731932 0
M  V30 2019 N 198.065 0.39524 1.52563 0
M  V30 2020 C 199.342 -0.242908 1.94086 0
M  V30 2021 C 199.722 -1.63841 1.33114 0
M  V30 2022 O 199.07 -2.22928 0.501529 0
M  V30 2023 C 199.28 -0.26327 3.48006 0
M  V30 2024 C 200.628 -0.489354 4.21771 0
M  V30 2025 O 201.652 -0.343226 3.54543 0
M  V30 2026 O 200.511 -0.776169 5.4096 0
M  V30 2027 H 197.605 -0.152536 0.812811 0
M  V30 2028 H 200.151 0.450178 1.6362 0
M  V30 2029 H 198.923 0.713985 3.84731 0
M  V30 2030 H 198.546 -1.00103 3.84792 0
M  V30 2031 N 199.544 -1.57102 0.125237 0
M  V30 2032 C 200.792 -1.95021 -0.530198 0
M  V30 2033 C 201.113 -1.00982 -1.66816 0
M  V30 2034 O 200.383 -0.0672693 -1.95784 0
M  V30 2035 H 198.963 -0.720046 -0.198853 0
M  V30 2036 H 201.625 -1.93916 0.19564 0
M  V30 2037 H 200.721 -2.98211 -0.920681 0
M  V30 2038 N 201.022 0.148545 -1.56898 0
M  V30 2039 C 202.27 0.859717 -1.82902 0
M  V30 2040 C 202.591 1.81775 -0.70588 0
M  V30 2041 O 201.861 1.93994 0.272586 0
M  V30 2042 H 200.441 0.320469 -0.674766 0
M  V30 2043 H 203.103 0.142918 -1.94375 0
M  V30 2044 H 202.199 1.4229 -2.77777 0
M  V30 2045 N 202.5 1.5196 0.417844 0
M  V30 2046 C 203.746 1.65836 1.16732 0
M  V30 2047 C 204.079 0.382881 1.90388 0
M  V30 2048 O 203.354 -0.618368 1.84408 0
M  V30 2049 C 203.637 2.87466 2.16876 0
M  V30 2050 C 203.49 4.25041 1.47174 0
M  V30 2051 C 204.809 3.04613 3.17646 0
M  V30 2052 H 201.928 0.603515 0.423011 0
M  V30 2053 H 204.57 1.84494 0.454105 0
M  V30 2054 H 202.72 2.71689 2.777 0
M  V30 2055 H 204.392 4.52527 0.895376 0
M  V30 2056 H 202.635 4.26843 0.773806 0
M  V30 2057 H 203.306 5.06176 2.20204 0
M  V30 2058 H 205.782 3.1923 2.66892 0
M  V30 2059 H 204.658 3.91247 3.8499 0
M  V30 2060 H 204.919 2.17541 3.84874 0
M  V30 2061 N 203.978 -0.674533 1.42435 0
M  V30 2062 C 205.203 -1.46784 1.46524 0
M  V30 2063 C 205.628 -1.87938 0.078066 0
M  V30 2064 O 204.986 -1.56014 -0.92354 0
M  V30 2065 C 205.034 -2.69307 2.39805 0
M  V30 2066 O 204.138 -3.67587 1.86959 0
M  V30 2067 H 203.479 -0.440959 0.496439 0
M  V30 2068 H 206.009 -0.827326 1.87127 0
M  V30 2069 H 206.019 -3.17374 2.56393 0
M  V30 2070 H 204.694 -2.38692 3.40586 0
M  V30 2071 H 203.271 -3.2662 1.79927 0
M  V30 2072 N 205.456 -1.28612 -0.910864 0
M  V30 2073 C 206.681 -1.1891 -1.69927 0
M  V30 2074 C 207.106 0.248372 -1.86453 0
M  V30 2075 O 206.464 1.17961 -1.37676 0
M  V30 2076 C 206.512 -1.89578 -3.06745 0
M  V30 2077 O 205.616 -1.20521 -3.94396 0
M  V30 2078 H 204.957 -0.412632 -0.520222 0
M  V30 2079 H 207.487 -1.69985 -1.1387 0
M  V30 2080 H 207.497 -1.97597 -3.56958 0
M  V30 2081 H 206.172 -2.94136 -2.94035 0
M  V30 2082 H 204.749 -1.20684 -3.52831 0
M  V30 2083 N 206.934 1.1197 -1.10907 0
M  V30 2084 C 208.159 1.87942 -0.877064 0
M  V30 2085 C 208.584 1.79341 0.567314 0
M  V30 2086 O 207.942 1.15184 1.40009 0
M  V30 2087 C 207.99 3.34926 -1.33629 0
M  V30 2088 O 207.094 4.09303 -0.504447 0
M  V30 2089 H 206.435 0.583785 -0.316371 0
M  V30 2090 H 208.965 1.4157 -1.47712 0
M  V30 2091 H 208.975 3.8577 -1.32837 0
M  V30 2092 H 207.65 3.40504 -2.3881 0
M  V30 2093 H 206.227 3.68393 -0.577993 0
M  V30 2094 N 208.412 0.89855 1.29475 0
M  V30 2095 C 209.823 0.572537 1.77705 0
M  V30 2096 C 210.174 -0.911778 1.73727 0
M  V30 2097 O 209.299 -1.71288 1.32247 0
M  V30 2098 C 209.894 1.03252 3.22683 0
M  V30 2099 C 208.453 0.757687 3.68695 0
M  V30 2100 C 207.6 1.20787 2.49612 0
M  V30 2101 H 210.551 1.08139 1.16153 0
M  V30 2102 H 210.572 0.367307 3.78723 0
M  V30 2103 H 210.084 2.11285 3.25546 0
M  V30 2104 H 208.185 -0.310079 3.71308 0
M  V30 2105 H 208.298 1.35476 4.59547 0
M  V30 2106 H 206.662 0.626888 2.46865 0
M  V30 2107 H 207.445 2.29622 2.55203 0
M  V30 2108 N 209.89 -1.43072 0.660911 0
M  V30 2109 C 211.138 -2.01323 0.177094 0
M  V30 2110 C 211.459 -1.5245 -1.2159 0
M  V30 2111 O 210.729 -0.740322 -1.81373 0
M  V30 2112 H 209.309 -0.744382 0.0624804 0
M  V30 2113 H 211.971 -1.75179 0.854305 0
M  V30 2114 H 211.067 -3.11649 0.167641 0
M  V30 2115 N 211.368 -0.403325 -1.52352 0
M  V30 2116 C 212.779 0.0675782 -1.86578 0
M  V30 2117 C 213.13 1.44941 -1.32236 0
M  V30 2118 O 212.255 2.06112 -0.659307 0
M  V30 2119 C 212.85 0.129404 -3.38553 0
M  V30 2120 C 211.409 0.544629 -3.72439 0
M  V30 2121 C 210.556 -0.284551 -2.75836 0
M  V30 2122 H 213.507 -0.620631 -1.46061 0
M  V30 2123 H 213.528 0.94581 -3.68558 0
M  V30 2124 H 213.04 -0.87645 -3.78074 0
M  V30 2125 H 211.141 1.55734 -3.38493 0
M  V30 2126 H 211.254 0.293046 -4.78203 0
M  V30 2127 H 209.618 0.252258 -2.53448 0
M  V30 2128 H 210.401 -1.28865 -3.18196 0
M  V30 2129 N 212.846 1.57033 -0.133567 0
M  V30 2130 C 214.094 1.953 0.519848 0
M  V30 2131 C 214.415 1.01866 1.66278 0
M  V30 2132 O 213.685 0.0776513 1.95746 0
M  V30 2133 H 212.265 0.721091 0.195032 0
M  V30 2134 H 214.927 1.93809 -0.205921 0
M  V30 2135 H 214.023 2.98695 0.904854 0
M  V30 2136 N 214.325 -0.140222 1.56975 0
M  V30 2137 C 215.602 -0.880769 1.74648 0
M  V30 2138 C 215.982 -1.99036 0.703404 0
M  V30 2139 O 215.33 -2.26821 -0.27648 0
M  V30 2140 C 215.54 -1.417 3.18939 0
M  V30 2141 C 216.888 -1.87774 3.80823 0
M  V30 2142 O 217.912 -1.51427 3.2241 0
M  V30 2143 O 216.771 -2.54827 4.83452 0
M  V30 2144 H 213.865 -0.416713 0.714338 0
M  V30 2145 H 216.411 -0.125618 1.69234 0
M  V30 2146 H 215.183 -0.619902 3.86359 0
M  V30 2147 H 214.806 -2.23546 3.28805 0
M  V30 2148 N 215.803 -1.52179 -0.40978 0
M  V30 2149 C 217.052 -1.65434 -1.15388 0
M  V30 2150 C 217.365 -0.390056 -1.91671 0
M  V30 2151 O 218.571 -0.402399 -2.68501 0
M  V30 2152 C 217.027 -2.92279 -2.10003 0
M  V30 2153 C 216.635 -4.25813 -1.39239 0
M  V30 2154 C 218.379 -3.14897 -2.84675 0
M  V30 2155 C 216.286 -5.43782 -2.32498 0
M  V30 2156 H 215.216 -0.616267 -0.434432 0
M  V30 2157 H 217.867 -1.78666 -0.418401 0
M  V30 2158 H 216.249 -2.72744 -2.871 0
M  V30 2159 H 217.423 -4.55828 -0.675099 0
M  V30 2160 H 215.738 -4.09292 -0.766097 0
M  V30 2161 H 218.335 -4.0021 -3.54593 0
M  V30 2162 H 218.678 -2.29103 -3.47588 0
M  V30 2163 H 219.211 -3.34901 -2.14677 0
M  V30 2164 H 215.95 -6.3192 -1.74233 0
M  V30 2165 H 215.47 -5.18106 -3.02201 0
M  V30 2166 H 217.149 -5.76834 -2.93038 0
M  V30 2167 N 217.281 0.66697 -1.42791 0
M  V30 2168 C 218.191 1.80962 -1.49299 0
M  V30 2169 C 219.207 1.69775 -0.381108 0
M  V30 2170 O 220.383 1.91188 -0.633188 0
M  V30 2171 C 217.448 3.17156 -1.40045 0
M  V30 2172 C 216.509 3.40242 -2.6179 0
M  V30 2173 C 215.742 4.69939 -2.52969 0
M  V30 2174 O 215.965 5.48372 -1.56985 0
M  V30 2175 O 214.899 4.94441 -3.43237 0
M  V30 2176 H 218.725 1.78427 -2.45759 0
M  V30 2177 H 216.31 0.823713 -1.24641 0
M  V30 2178 H 218.192 3.98413 -1.37276 0
M  V30 2179 H 216.867 3.20312 -0.467138 0
M  V30 2180 H 215.774 2.58802 -2.70134 0
M  V30 2181 H 217.107 3.41923 -3.54047 0
M  V30 2182 N 218.759 1.29093 0.90403 0
M  V30 2183 C 220.007 1.16583 1.65085 0
M  V30 2184 C 220.328 -0.283933 1.92922 0
M  V30 2185 O 219.598 -1.19509 1.55224 0
M  V30 2186 H 218.178 0.428467 0.611903 0
M  V30 2187 H 220.84 1.61959 1.08422 0
M  V30 2188 H 219.936 1.71266 2.6091 0
M  V30 2189 N 220.237 -1.11381 1.11499 0
M  V30 2190 C 221.462 -1.87475 0.887019 0
M  V30 2191 C 221.887 -1.79639 -0.557796 0
M  V30 2192 O 221.245 -1.15924 -1.39396 0
M  V30 2193 C 221.293 -3.34213 1.35403 0
M  V30 2194 O 220.397 -4.0903 0.526146 0
M  V30 2195 H 219.738 -0.582099 0.319463 0
M  V30 2196 H 222.268 -1.40785 1.48461 0
M  V30 2197 H 222.278 -3.8506 1.34881 0
M  V30 2198 H 220.953 -3.39232 2.40612 0
M  V30 2199 H 219.53 -3.68082 0.597522 0
M  V30 2200 N 221.715 -0.905404 -1.28997 0
M  V30 2201 C 222.955 -0.541232 -1.97104 0
M  V30 2202 C 223.319 0.896841 -1.69767 0
M  V30 2203 O 224.52 1.36817 -2.31375 0
M  V30 2204 C 222.791 -0.832134 -3.47578 0
M  V30 2205 S 224.35 -0.573127 -4.35041 0
M  V30 2206 H 221.168 -0.200576 -0.682122 0
M  V30 2207 H 223.77 -1.16906 -1.56694 0
M  V30 2208 H 222.474 -1.87687 -3.64968 0
M  V30 2209 H 222.005 -0.192636 -3.92928 0
M  V30 2210 H 224.02 0.579297 -4.92807 0
M  V30 2211 N 223.193 1.4272 -0.668489 0
M  V30 2212 C 224.14 2.30796 0.0137489 0
M  V30 2213 C 225.11 1.4561 0.799177 0
M  V30 2214 O 226.295 1.74453 0.772702 0
M  V30 2215 C 223.435 3.31377 0.963507 0
M  V30 2216 C 222.548 4.31655 0.172569 0
M  V30 2217 C 221.683 5.19312 1.1175 0
M  V30 2218 C 220.722 6.11274 0.317886 0
M  V30 2219 N 219.859 6.91504 1.2152 0
M  V30 2220 H 224.699 2.88585 -0.743161 0
M  V30 2221 H 222.236 1.42154 -0.378226 0
M  V30 2222 H 224.194 3.88214 1.52792 0
M  V30 2223 H 222.824 2.75202 1.68712 0
M  V30 2224 H 221.876 3.76988 -0.508374 0
M  V30 2225 H 223.188 4.96779 -0.448527 0
M  V30 2226 H 222.342 5.80851 1.75206 0
M  V30 2227 H 221.081 4.5435 1.77249 0
M  V30 2228 H 220.086 5.48809 -0.329918 0
M  V30 2229 H 221.311 6.78283 -0.332917 0
M  V30 2230 H 219.257 6.29176 1.85671 0
M  V30 2231 H 219.174 7.53209 0.649036 0
M  V30 2232 H 220.442 7.57535 1.83742 0
M  V30 2233 N 224.671 0.411399 1.52136 0
M  V30 2234 C 225.618 -0.412975 2.27075 0
M  V30 2235 C 226.588 -1.03912 1.29582 0
M  V30 2236 O 227.773 -1.06296 1.58448 0
M  V30 2237 C 224.913 -1.52247 3.09701 0
M  V30 2238 C 224.026 -0.917021 4.22155 0
M  V30 2239 C 223.161 -1.9994 4.92135 0
M  V30 2240 C 222.2 -1.37101 5.96548 0
M  V30 2241 N 221.337 -2.39364 6.60038 0
M  V30 2242 H 226.177 0.232499 2.97092 0
M  V30 2243 H 223.714 0.126496 1.46555 0
M  V30 2244 H 225.672 -2.17674 3.55913 0
M  V30 2245 H 224.302 -2.13794 2.41851 0
M  V30 2246 H 223.354 -0.151742 3.80097 0
M  V30 2247 H 224.666 -0.418006 4.97045 0
M  V30 2248 H 223.82 -2.73088 5.41763 0
M  V30 2249 H 222.559 -2.53208 4.16818 0
M  V30 2250 H 221.564 -0.624873 5.46237 0
M  V30 2251 H 222.789 -0.845998 6.7381 0
M  V30 2252 H 220.735 -2.91759 5.87548 0
M  V30 2253 H 220.652 -1.9428 7.3061 0
M  V30 2254 H 221.92 -3.12074 7.14304 0
M  V30 2255 N 226.149 -1.5696 0.141893 0
M  V30 2256 C 227.079 -2.19516 -0.795936 0
M  V30 2257 C 228.06 -1.14187 -1.26077 0
M  V30 2258 O 229.245 -1.42511 -1.31925 0
M  V30 2259 C 226.375 -2.81272 -2.03723 0
M  V30 2260 C 225.329 -3.92384 -1.70936 0
M  V30 2261 C 224.655 -4.41052 -3.02287 0
M  V30 2262 C 225.955 -5.13403 -0.959954 0
M  V30 2263 H 227.649 -2.98138 -0.274596 0
M  V30 2264 H 225.195 -1.43406 -0.130636 0
M  V30 2265 H 227.148 -3.237 -2.69808 0
M  V30 2266 H 225.872 -1.99973 -2.58221 0
M  V30 2267 H 224.531 -3.50566 -1.07232 0
M  V30 2268 H 224.179 -3.56582 -3.54765 0
M  V30 2269 H 223.879 -5.15993 -2.81114 0
M  V30 2270 H 225.403 -4.86146 -3.69451 0
M  V30 2271 H 226.817 -5.52706 -1.52279 0
M  V30 2272 H 225.214 -5.94073 -0.848357 0
M  V30 2273 H 226.284 -4.84875 0.0492434 0
M  V30 2274 N 227.627 0.131896 -1.57047 0
M  V30 2275 C 228.852 0.860418 -1.8871 0
M  V30 2276 C 229.277 1.73251 -0.73251 0
M  V30 2277 O 228.635 1.785 0.317429 0
M  V30 2278 C 228.683 1.68047 -3.19049 0
M  V30 2279 O 227.787 2.7862 -3.04047 0
M  V30 2280 H 227.128 0.238743 -0.619595 0
M  V30 2281 H 229.658 0.118169 -2.04258 0
M  V30 2282 H 229.668 2.07238 -3.51449 0
M  V30 2283 H 228.343 1.04018 -4.02682 0
M  V30 2284 H 226.92 2.42726 -2.83088 0
M  V30 2285 N 229.106 1.52395 0.401703 0
M  V30 2286 C 230.517 1.58899 0.980202 0
M  V30 2287 C 230.868 0.434032 1.91339 0
M  V30 2288 O 229.993 -0.444619 2.11783 0
M  V30 2289 C 230.588 2.87994 1.78451 0
M  V30 2290 C 229.147 2.96953 2.31292 0
M  V30 2291 C 228.294 2.53903 1.11483 0
M  V30 2292 H 231.245 1.57657 0.18168 0
M  V30 2293 H 231.266 2.73765 2.64259 0
M  V30 2294 H 230.778 3.72035 1.10506 0
M  V30 2295 H 228.879 2.17422 3.02586 0
M  V30 2296 H 228.992 4.01344 2.61649 0
M  V30 2297 H 227.356 2.07925 1.47104 0
M  V30 2298 H 228.139 3.40326 0.450928 0
M  V30 2299 N 230.584 -0.659388 1.43143 0
M  V30 2300 C 231.995 -1.24041 1.39537 0
M  V30 2301 C 232.346 -1.95963 0.0963364 0
M  V30 2302 O 231.471 -2.00892 -0.804438 0
M  V30 2303 C 232.066 -2.25601 2.52764 0
M  V30 2304 C 230.625 -2.79195 2.52443 0
M  V30 2305 C 229.772 -1.53743 2.30778 0
M  V30 2306 H 232.723 -0.451792 1.52133 0
M  V30 2307 H 232.744 -3.07651 2.23899 0
M  V30 2308 H 232.256 -1.73226 3.47296 0
M  V30 2309 H 230.357 -3.35649 1.61773 0
M  V30 2310 H 230.47 -3.2716 3.50004 0
M  V30 2311 H 228.834 -1.80869 1.79328 0
M  V30 2312 H 229.617 -1.03312 3.27386 0
M  V30 2313 N 232.062 -1.29571 -0.897171 0
M  V30 2314 C 233.473 -1.15964 -1.46319 0
M  V30 2315 C 233.824 0.244267 -1.94674 0
M  V30 2316 O 232.949 1.13998 -1.83939 0
M  V30 2317 C 233.544 -2.09906 -2.65942 0
M  V30 2318 C 232.103 -2.00314 -3.18671 0
M  V30 2319 C 231.25 -2.00687 -1.91363 0
M  V30 2320 H 234.201 -1.42019 -0.708268 0
M  V30 2321 H 234.222 -1.67276 -3.41759 0
M  V30 2322 H 233.734 -3.12075 -2.30718 0
M  V30 2323 H 231.835 -1.01242 -3.58582 0
M  V30 2324 H 231.948 -2.88102 -3.82798 0
M  V30 2325 H 230.312 -1.45319 -2.09175 0
M  V30 2326 H 231.095 -3.04566 -1.58413 0
M  V30 2327 N 233.54 1.10788 -1.12088 0
M  V30 2328 C 234.47 2.19083 -0.807755 0
M  V30 2329 C 235.451 1.6858 0.226859 0
M  V30 2330 O 236.636 1.93997 0.0888475 0
M  V30 2331 C 233.766 3.46344 -0.257576 0
M  V30 2332 C 232.72 4.101 -1.22483 0
M  V30 2333 C 232.046 5.32016 -0.535052 0
M  V30 2334 C 233.346 4.54236 -2.57811 0
M  V30 2335 H 235.04 2.45534 -1.71328 0
M  V30 2336 H 232.586 1.1801 -0.825205 0
M  V30 2337 H 234.539 4.21392 -0.0262679 0
M  V30 2338 H 233.263 3.19373 0.683278 0
M  V30 2339 H 231.922 3.37054 -1.44189 0
M  V30 2340 H 231.57 5.01319 0.410827 0
M  V30 2341 H 231.27 5.75625 -1.18024 0
M  V30 2342 H 232.794 6.09799 -0.312695 0
M  V30 2343 H 234.208 5.20575 -2.40155 0
M  V30 2344 H 232.605 5.08682 -3.18375 0
M  V30 2345 H 233.675 3.6734 -3.16528 0
M  V30 2346 N 235.018 0.912232 1.28515 0
M  V30 2347 C 236.429 0.591352 1.77087 0
M  V30 2348 C 236.78 -0.8933 1.74684 0
M  V30 2349 O 235.905 -1.69876 1.34056 0
M  V30 2350 C 236.5 1.06668 3.2157 0
M  V30 2351 C 235.059 0.79675 3.67871 0
M  V30 2352 C 234.206 1.23427 2.48316 0
M  V30 2353 H 237.157 1.09365 1.15 0
M  V30 2354 H 237.178 0.407455 3.78312 0
M  V30 2355 H 236.69 2.14726 3.23287 0
M  V30 2356 H 234.791 -0.270679 3.71616 0
M  V30 2357 H 234.904 1.40343 4.58084 0
M  V30 2358 H 233.268 0.653036 2.46186 0
M  V30 2359 H 234.051 2.32316 2.52753 0
M  V30 2360 N 236.496 -1.42363 0.676048 0
M  V30 2361 C 237.907 -1.84649 0.275948 0
M  V30 2362 C 238.258 -1.56588 -1.18214 0
M  V30 2363 O 237.383 -1.02634 -1.90513 0
M  V30 2364 C 237.978 -3.35178 0.494053 0
M  V30 2365 C 236.537 -3.76109 0.148061 0
M  V30 2366 C 235.684 -2.65931 0.785891 0
M  V30 2367 H 238.635 -1.32192 0.878121 0
M  V30 2368 H 238.656 -3.79655 -0.25343 0
M  V30 2369 H 238.168 -3.55571 1.55535 0
M  V30 2370 H 236.269 -3.61323 -0.909742 0
M  V30 2371 H 236.382 -4.7546 0.589454 0
M  V30 2372 H 234.746 -2.53773 0.217113 0
M  V30 2373 H 235.529 -2.89146 1.85067 0
M  V30 2374 N 237.974 -0.419461 -1.51915 0
M  V30 2375 C 239.39 -0.0708431 -1.59443 0
M  V30 2376 C 239.59 1.41796 -1.43164 0
M  V30 2377 O 238.646 2.18596 -1.26381 0
M  V30 2378 C 239.959 -0.574991 -2.95151 0
M  V30 2379 C 241.507 -0.533867 -3.08413 0
M  V30 2380 C 241.982 -1.01469 -4.46618 0
M  V30 2381 N 243.473 -0.971939 -4.52888 0
M  V30 2382 C 244.208 -1.31505 -5.58116 0
M  V30 2383 N 243.704 -1.73014 -6.70849 0
M  V30 2384 N 245.497 -1.23436 -5.48379 0
M  V30 2385 H 237.648 -1.38836 -1.60743 0
M  V30 2386 H 239.911 -0.570998 -0.756747 0
M  V30 2387 H 239.617 -1.61597 -3.12377 0
M  V30 2388 H 239.491 0.00979777 -3.77199 0
M  V30 2389 H 241.878 0.498086 -2.90866 0
M  V30 2390 H 241.959 -1.15484 -2.28248 0
M  V30 2391 H 241.603 -2.04502 -4.6491 0
M  V30 2392 H 241.533 -0.370433 -5.25295 0
M  V30 2393 H 244.024 -0.666893 -3.71969 0
M  V30 2394 H 244.337 -1.97479 -7.47143 0
M  V30 2395 H 242.682 -1.76926 -6.72103 0
M  V30 2396 H 245.873 -0.908869 -4.59192 0
M  V30 2397 H 246.046 -1.50506 -6.30279 0
M  V30 2398 N 239.452 1.56882 -0.150215 0
M  V30 2399 C 240.415 2.1573 0.774157 0
M  V30 2400 C 241.415 1.0999 1.17298 0
M  V30 2401 O 242.605 1.35613 1.09338 0
M  V30 2402 C 239.737 2.72302 2.05096 0
M  V30 2403 H 240.93 2.98752 0.262201 0
M  V30 2404 H 238.483 1.55985 0.099248 0
M  V30 2405 H 239.218 1.92956 2.6065 0
M  V30 2406 H 239.003 3.49665 1.77416 0
M  V30 2407 H 240.493 3.17632 2.71109 0
M  V30 2408 N 240.93 -0.123565 1.57115 0
M  V30 2409 C 242.155 -0.850398 1.89164 0
M  V30 2410 C 242.58 -1.7286 0.741688 0
M  V30 2411 O 241.938 -1.78665 -0.307958 0
M  V30 2412 C 241.986 -1.66353 3.19936 0
M  V30 2413 O 241.09 -2.77004 3.0552 0
M  V30 2414 H 240.431 -0.235454 0.620852 0
M  V30 2415 H 242.961 -0.107335 2.04318 0
M  V30 2416 H 242.971 -2.05372 3.52543 0
M  V30 2417 H 241.646 -1.01881 4.03228 0
M  V30 2418 H 240.223 -2.41221 2.84371 0
M  V30 2419 N 242.408 -1.52605 -0.393616 0
M  V30 2420 C 243.657 -1.66649 -1.13627 0
M  V30 2421 C 243.97 -0.410364 -1.91247 0
M  V30 2422 O 245.176 -0.430854 -2.68059 0
M  V30 2423 C 243.632 -2.9449 -2.06891 0
M  V30 2424 C 243.24 -4.27266 -1.34714 0
M  V30 2425 C 244.984 -3.17899 -2.81319 0
M  V30 2426 C 242.891 -5.46217 -2.26717 0
M  V30 2427 H 241.821 -0.62084 -0.427871 0
M  V30 2428 H 244.472 -1.791 -0.399428 0
M  V30 2429 H 242.854 -2.75774 -2.84191 0
M  V30 2430 H 244.028 -4.56518 -0.626714 0
M  V30 2431 H 242.343 -4.10081 -0.722643 0
M  V30 2432 H 244.94 -4.03949 -3.50328 0
M  V30 2433 H 245.283 -2.32777 -3.45139 0
M  V30 2434 H 245.816 -3.37159 -2.11113 0
M  V30 2435 H 242.555 -6.33733 -1.67521 0
M  V30 2436 H 242.075 -5.21283 -2.96689 0
M  V30 2437 H 243.754 -5.7991 -2.86903 0
M  V30 2438 N 243.887 0.651787 -1.4349 0
M  V30 2439 C 245.133 1.4121 -1.46395 0
M  V30 2440 C 245.488 1.92202 -0.087366 0
M  V30 2441 O 244.781 1.69452 0.894231 0
M  V30 2442 C 244.975 2.60914 -2.44251 0
M  V30 2443 C 244.804 2.21639 -3.91288 0
M  V30 2444 C 243.574 2.09897 -4.59643 0
M  V30 2445 C 245.772 1.81835 -4.81083 0
M  V30 2446 N 243.754 1.63967 -5.91598 0
M  V30 2447 C 245.125 1.46998 -6.02322 0
M  V30 2448 C 247.18 1.69031 -4.6833 0
M  V30 2449 C 245.883 1.00638 -7.12225 0
M  V30 2450 C 247.909 1.24077 -5.78238 0
M  V30 2451 C 247.271 0.901772 -6.98604 0
M  V30 2452 H 243.37 0.512322 -0.590805 0
M  V30 2453 H 245.954 0.74989 -1.7968 0
M  V30 2454 H 244.125 3.24792 -2.1299 0
M  V30 2455 H 245.857 3.27622 -2.37584 0
M  V30 2456 H 242.612 2.297 -4.14168 0
M  V30 2457 H 243.036 1.43359 -6.61647 0
M  V30 2458 H 247.678 1.93878 -3.75727 0
M  V30 2459 H 245.396 0.745399 -8.04655 0
M  V30 2460 H 248.982 1.14657 -5.7039 0
M  V30 2461 H 247.862 0.559226 -7.82203 0
M  V30 2462 N 245.365 1.30045 0.890287 0
M  V30 2463 C 246.642 1.09227 1.62262 0
M  V30 2464 C 247.022 -0.360305 2.08002 0
M  V30 2465 O 246.37 -1.35084 1.84295 0
M  V30 2466 C 246.58 2.08835 2.79623 0
M  V30 2467 C 247.928 2.40266 3.50082 0
M  V30 2468 O 248.952 2.07104 2.89804 0
M  V30 2469 O 247.811 2.96967 4.58773 0
M  V30 2470 H 244.905 0.419132 0.712922 0
M  V30 2471 H 247.451 1.41451 0.937529 0
M  V30 2472 H 246.223 3.06633 2.43089 0
M  V30 2473 H 245.846 1.77397 3.55832 0
M  V30 2474 N 246.843 -1.10192 1.12674 0
M  V30 2475 C 248.071 -1.85983 0.906527 0
M  V30 2476 C 248.486 -1.80783 -0.544333 0
M  V30 2477 O 247.843 -1.19834 -1.37645 0
M  V30 2478 C 247.894 -3.34281 1.37618 0
M  V30 2479 O 247.615 -3.39401 2.77017 0
M  V30 2480 C 249.116 -4.26938 1.19325 0
M  V30 2481 H 246.336 -0.587716 0.323775 0
M  V30 2482 H 248.88 -1.39284 1.49734 0
M  V30 2483 H 247.035 -3.78436 0.828539 0
M  V30 2484 H 247.449 -4.31838 2.97684 0
M  V30 2485 H 248.923 -5.29181 1.57071 0
M  V30 2486 H 249.4 -4.38995 0.134097 0
M  V30 2487 H 250.006 -3.8859 1.72852 0
M  V30 2488 N 248.321 -0.919034 -1.28029 0
M  V30 2489 C 249.732 -0.600735 -1.76771 0
M  V30 2490 C 250.083 0.884024 -1.75156 0
M  V30 2491 O 249.208 1.69163 -1.34956 0
M  V30 2492 C 249.803 -1.08372 -3.21 0
M  V30 2493 C 248.362 -0.816248 -3.67443 0
M  V30 2494 C 247.509 -1.24742 -2.47658 0
M  V30 2495 H 250.46 -1.09974 -1.14418 0
M  V30 2496 H 250.481 -0.427512 -3.78091 0
M  V30 2497 H 249.993 -2.16437 -3.22144 0
M  V30 2498 H 248.094 0.250968 -3.71754 0
M  V30 2499 H 248.207 -1.4277 -4.57333 0
M  V30 2500 H 246.571 -0.666083 -2.45836 0
M  V30 2501 H 247.354 -2.33653 -2.51518 0
M  V30 2502 N 249.799 1.42003 -0.683588 0
M  V30 2503 C 251.21 1.84501 -0.285736 0
M  V30 2504 C 251.561 1.57213 1.17382 0
M  V30 2505 O 250.686 1.03642 1.89966 0
M  V30 2506 C 251.281 3.34912 -0.511821 0
M  V30 2507 C 249.84 3.76025 -0.168005 0
M  V30 2508 C 248.987 2.6551 -0.799983 0
M  V30 2509 H 251.938 1.31724 -0.885119 0
M  V30 2510 H 251.959 3.79784 0.233292 0
M  V30 2511 H 251.471 3.54741 -1.57418 0
M  V30 2512 H 249.572 3.61801 0.890567 0
M  V30 2513 H 249.685 4.75141 -0.614661 0
M  V30 2514 H 248.049 2.53654 -0.230568 0
M  V30 2515 H 248.832 2.8816 -1.86597 0
M  V30 2516 N 251.277 0.427512 1.51691 0
M  V30 2517 C 252.207 -0.3796 2.30394 0
M  V30 2518 C 253.188 -1.02982 1.35384 0
M  V30 2519 O 254.373 -1.03534 1.643 0
M  V30 2520 C 251.503 -1.48649 3.1388 0
M  V30 2521 C 250.457 -0.960294 4.17088 0
M  V30 2522 C 249.783 -2.16219 4.89033 0
M  V30 2523 C 251.083 -0.00153679 5.223 0
M  V30 2524 H 252.777 0.277164 2.98114 0
M  V30 2525 H 250.323 0.134739 1.43368 0
M  V30 2526 H 252.276 -2.05826 3.67714 0
M  V30 2527 H 251 -2.1714 2.43962 0
M  V30 2528 H 249.659 -0.410806 3.64291 0
M  V30 2529 H 249.307 -2.83307 4.15628 0
M  V30 2530 H 249.007 -1.81654 5.58816 0
M  V30 2531 H 250.531 -2.73968 5.45687 0
M  V30 2532 H 251.945 -0.482687 5.71264 0
M  V30 2533 H 250.342 0.256199 5.99553 0
M  V30 2534 H 251.412 0.938174 4.75738 0
M  V30 2535 N 252.755 -1.56801 0.158532 0
M  V30 2536 C 254.166 -1.83189 -0.360366 0
M  V30 2537 C 254.517 -1.07778 -1.63946 0
M  V30 2538 O 253.642 -0.326718 -2.13919 0
M  V30 2539 C 254.237 -3.32297 -0.660595 0
M  V30 2540 C 252.796 -3.59227 -1.12398 0
M  V30 2541 C 251.943 -2.76877 -0.153097 0
M  V30 2542 H 254.894 -1.54008 0.383031 0
M  V30 2543 H 254.915 -3.4908 -1.51405 0
M  V30 2544 H 254.427 -3.87156 0.270527 0
M  V30 2545 H 252.528 -3.09766 -2.07064 0
M  V30 2546 H 252.641 -4.67632 -1.04197 0
M  V30 2547 H 251.005 -2.46319 -0.647983 0
M  V30 2548 H 251.788 -3.34511 0.77182 0
M  V30 2549 N 254.233 0.115231 -1.57178 0
M  V30 2550 C 255.644 0.67197 -1.74188 0
M  V30 2551 C 255.995 1.80125 -0.777777 0
M  V30 2552 O 255.12 2.16346 0.0484376 0
M  V30 2553 C 255.715 1.22573 -3.1585 0
M  V30 2554 C 254.274 1.72872 -3.34353 0
M  V30 2555 C 253.421 0.629972 -2.70049 0
M  V30 2556 H 256.372 -0.110712 -1.58313 0
M  V30 2557 H 256.393 2.09535 -3.17609 0
M  V30 2558 H 255.905 0.403598 -3.85996 0
M  V30 2559 H 254.006 2.5755 -2.69256 0
M  V30 2560 H 254.119 1.83557 -4.42542 0
M  V30 2561 H 252.483 1.0645 -2.31388 0
M  V30 2562 H 253.266 -0.181241 -3.42821 0
M  V30 2563 N 255.711 1.52812 0.385517 0
M  V30 2564 C 257.127 1.4214 0.725829 0
M  V30 2565 C 257.327 0.544589 1.94001 0
M  V30 2566 O 256.383 0.0193693 2.52493 0
M  V30 2567 C 257.696 2.85042 0.957668 0
M  V30 2568 C 259.244 2.94543 1.05892 0
M  V30 2569 C 259.719 4.38464 1.32337 0
M  V30 2570 N 261.21 4.41804 1.39151 0
M  V30 2571 C 261.945 5.5025 1.61285 0
M  V30 2572 N 261.441 6.68775 1.80866 0
M  V30 2573 N 263.234 5.37798 1.63492 0
M  V30 2574 H 255.385 2.08338 -0.413383 0
M  V30 2575 H 257.648 0.940016 -0.122775 0
M  V30 2576 H 257.354 3.51431 0.137568 0
M  V30 2577 H 257.228 3.27505 1.87137 0
M  V30 2578 H 259.615 2.28321 1.86959 0
M  V30 2579 H 259.696 2.55504 0.123057 0
M  V30 2580 H 259.34 5.05254 0.517793 0
M  V30 2581 H 259.27 4.75059 2.27214 0
M  V30 2582 H 261.761 3.56377 1.25713 0
M  V30 2583 H 262.074 7.47197 1.97271 0
M  V30 2584 H 260.419 6.71797 1.78083 0
M  V30 2585 H 263.61 4.44171 1.47749 0
M  V30 2586 H 263.783 6.22382 1.80402 0
M  V30 2587 N 257.189 -0.644168 1.43834 0
M  V30 2588 C 258.136 -1.75671 1.49694 0
M  V30 2589 C 259.106 -1.6246 0.345809 0
M  V30 2590 O 260.291 -1.82573 0.554234 0
M  V30 2591 C 257.431 -3.13867 1.43463 0
M  V30 2592 C 256.544 -3.38147 2.6885 0
M  V30 2593 C 255.679 -4.66241 2.54544 0
M  V30 2594 C 254.718 -4.83657 3.75157 0
M  V30 2595 N 253.855 -6.03016 3.59605 0
M  V30 2596 H 258.695 -1.69998 2.44754 0
M  V30 2597 H 256.232 -0.829458 1.21484 0
M  V30 2598 H 258.19 -3.9377 1.37843 0
M  V30 2599 H 256.82 -3.18588 0.519783 0
M  V30 2600 H 255.872 -2.52276 2.84712 0
M  V30 2601 H 257.184 -3.46899 3.58417 0
M  V30 2602 H 256.338 -5.54285 2.46683 0
M  V30 2603 H 255.077 -4.59826 1.62516 0
M  V30 2604 H 254.082 -3.94046 3.83416 0
M  V30 2605 H 255.307 -4.91896 4.68204 0
M  V30 2606 H 253.253 -5.97715 2.7032 0
M  V30 2607 H 253.17 -6.12766 4.42779 0
M  V30 2608 H 254.438 -6.93657 3.55613 0
M  V30 2609 N 258.668 -1.30515 -0.883378 0
M  V30 2610 C 259.916 -1.19194 -1.63209 0
M  V30 2611 C 260.237 0.253205 -1.93349 0
M  V30 2612 O 259.507 1.17025 -1.57105 0
M  V30 2613 H 258.087 -0.438148 -0.605009 0
M  V30 2614 H 260.749 -1.63663 -1.05832 0
M  V30 2615 H 259.845 -1.75396 -2.58153 0
M  V30 2616 N 260.146 1.09593 -1.13257 0
M  V30 2617 C 261.371 1.8604 -0.916732 0
M  V30 2618 C 261.796 1.80504 0.529146 0
M  V30 2619 O 261.154 1.18127 1.37534 0
M  V30 2620 C 261.202 3.32017 -1.40703 0
M  V30 2621 O 260.306 4.08141 -0.591153 0
M  V30 2622 H 259.647 0.576943 -0.328683 0
M  V30 2623 H 262.177 1.38405 -1.50682 0
M  V30 2624 H 262.187 3.82865 -1.4099 0
M  V30 2625 H 260.862 3.35361 -2.45979 0
M  V30 2626 H 259.439 3.67084 -0.656005 0
M  V30 2627 N 261.624 0.925811 1.2754 0
M  V30 2628 C 263.035 0.610102 1.7645 0
M  V30 2629 C 263.386 -0.874723 1.75622 0
M  V30 2630 O 262.511 -1.68444 1.35851 0
M  V30 2631 C 263.106 1.10073 3.20421 0
M  V30 2632 C 261.665 0.835723 3.67005 0
M  V30 2633 C 260.812 1.26054 2.46993 0
M  V30 2634 H 263.763 1.10579 1.13833 0
M  V30 2635 H 263.784 0.447557 3.77859 0
M  V30 2636 H 263.296 2.18143 3.20991 0
M  V30 2637 H 261.397 -0.231249 3.71882 0
M  V30 2638 H 261.51 1.45193 4.56569 0
M  V30 2639 H 259.874 0.679111 2.45479 0
M  V30 2640 H 260.657 2.34984 2.50275 0
M  V30 2641 N 263.102 -1.41638 0.69111 0
M  V30 2642 C 264.327 -2.06148 0.227583 0
M  V30 2643 C 264.752 -1.51652 -1.11281 0
M  V30 2644 O 264.11 -0.64164 -1.69566 0
M  V30 2645 C 264.158 -3.60095 0.190858 0
M  V30 2646 O 263.262 -4.03845 -0.835664 0
M  V30 2647 H 262.603 -0.654434 0.112306 0
M  V30 2648 H 265.133 -1.81484 0.944714 0
M  V30 2649 H 265.143 -4.07995 0.020207 0
M  V30 2650 H 263.818 -3.99129 1.16915 0
M  V30 2651 H 262.395 -3.67458 -0.63473 0
M  V30 2652 N 264.58 -0.43555 -1.51462 0
M  V30 2653 C 265.805 0.132627 -2.06976 0
M  V30 2654 C 266.23 1.35848 -1.30104 0
M  V30 2655 O 265.588 1.78112 -0.338493 0
M  V30 2656 C 265.636 0.43523 -3.57964 0
M  V30 2657 O 264.74 1.52198 -3.83288 0
M  V30 2658 H 264.081 0.00265 -0.663995 0
M  V30 2659 H 266.611 -0.616369 -1.95095 0
M  V30 2660 H 266.621 0.686206 -4.02188 0
M  V30 2661 H 265.296 -0.460739 -4.1334 0
M  V30 2662 H 263.873 1.2611 -3.50928 0
M  V30 2663 N 266.058 1.56714 -0.166846 0
M  V30 2664 C 267.283 2.01557 0.488833 0
M  V30 2665 C 267.708 1.0463 1.56314 0
M  V30 2666 O 267.066 0.0251304 1.81283 0
M  V30 2667 C 267.114 3.4503 1.04818 0
M  V30 2668 O 266.218 3.51163 2.16236 0
M  V30 2669 H 265.559 0.653516 0.117526 0
M  V30 2670 H 268.089 2.02818 -0.269421 0
M  V30 2671 H 268.099 3.84243 1.37191 0
M  V30 2672 H 266.774 4.15077 0.261572 0
M  V30 2673 H 265.351 3.23807 1.84942 0
M  V30 2674 N 267.536 -0.106894 1.57237 0
M  V30 2675 C 268.483 -1.13049 2.01217 0
M  V30 2676 C 269.453 -1.40471 0.886403 0
M  V30 2677 O 270.638 -1.52133 1.15153 0
M  V30 2678 C 267.778 -2.4487 2.43172 0
M  V30 2679 C 266.891 -2.24281 3.69218 0
M  V30 2680 C 266.026 -3.49417 4.00101 0
M  V30 2681 C 265.065 -3.24038 5.19294 0
M  V30 2682 N 264.202 -4.41409 5.45988 0
M  V30 2683 H 269.042 -0.748456 2.88448 0
M  V30 2684 H 266.579 -0.358054 1.42676 0
M  V30 2685 H 268.537 -3.21786 2.65537 0
M  V30 2686 H 267.167 -2.80944 1.58967 0
M  V30 2687 H 266.219 -1.38224 3.54398 0
M  V30 2688 H 267.531 -2.01512 4.56283 0
M  V30 2689 H 266.685 -4.34746 4.2318 0
M  V30 2690 H 265.424 -3.75229 3.11535 0
M  V30 2691 H 264.429 -2.37102 4.96047 0
M  V30 2692 H 265.654 -2.99584 6.09447 0
M  V30 2693 H 263.6 -4.67319 4.60379 0
M  V30 2694 H 263.517 -4.21788 6.274 0
M  V30 2695 H 264.785 -5.27836 5.73593 0
M  V30 2696 N 269.014 -1.53014 -0.377408 0
M  V30 2697 C 270.263 -1.67845 -1.11853 0
M  V30 2698 C 270.576 -0.430625 -1.90801 0
M  V30 2699 O 271.782 -0.459261 -2.67587 0
M  V30 2700 C 270.238 -2.96668 -2.03756 0
M  V30 2701 C 269.846 -4.28671 -1.30175 0
M  V30 2702 C 271.59 -3.20865 -2.77932 0
M  V30 2703 C 269.497 -5.48591 -2.20911 0
M  V30 2704 H 268.427 -0.625343 -0.421263 0
M  V30 2705 H 271.078 -1.79514 -0.380409 0
M  V30 2706 H 269.46 -2.78773 -2.8125 0
M  V30 2707 H 270.634 -4.57157 -0.578259 0
M  V30 2708 H 268.949 -4.10825 -0.679108 0
M  V30 2709 H 271.546 -4.07642 -3.46024 0
M  V30 2710 H 271.889 -2.36424 -3.4265 0
M  V30 2711 H 272.422 -3.39379 -2.07525 0
M  V30 2712 H 269.161 -6.35474 -1.6079 0
M  V30 2713 H 268.681 -5.244 -2.91144 0
M  V30 2714 H 270.36 -5.8292 -2.80736 0
M  V30 2715 N 270.492 0.636531 -1.44174 0
M  V30 2716 C 271.717 1.42847 -1.50364 0
M  V30 2717 C 272.142 1.87665 -0.127867 0
M  V30 2718 O 271.5 1.58408 0.88185 0
M  V30 2719 C 271.548 2.62854 -2.4686 0
M  V30 2720 O 270.652 3.62501 -1.9664 0
M  V30 2721 H 269.993 0.427642 -0.507955 0
M  V30 2722 H 272.523 0.777422 -1.89255 0
M  V30 2723 H 272.533 3.10465 -2.64718 0
M  V30 2724 H 271.208 2.29578 -3.46795 0
M  V30 2725 H 269.785 3.21735 -1.88523 0
M  V30 2726 N 271.97 1.30982 0.876444 0
M  V30 2727 C 272.902 1.13902 1.98894 0
M  V30 2728 C 273.915 0.0798815 1.62604 0
M  V30 2729 O 275.104 0.326743 1.75484 0
M  V30 2730 C 272.204 0.716699 3.31235 0
M  V30 2731 C 271.377 1.85945 3.95908 0
M  V30 2732 C 270.436 1.42426 5.06558 0
M  V30 2733 O 269.462 2.13287 5.27729 0
M  V30 2734 N 270.664 0.308025 5.79682 0
M  V30 2735 H 273.429 2.09724 2.14094 0
M  V30 2736 H 270.99 1.2323 1.05004 0
M  V30 2737 H 272.982 0.408403 4.02634 0
M  V30 2738 H 271.552 -0.149719 3.12241 0
M  V30 2739 H 270.772 2.33541 3.17573 0
M  V30 2740 H 272.06 2.62503 4.35855 0
M  V30 2741 H 271.458 -0.282241 5.64995 0
M  V30 2742 H 270.015 0.0592282 6.51773 0
M  V30 2743 N 273.449 -1.08991 1.13837 0
M  V30 2744 C 274.86 -1.62746 0.914917 0
M  V30 2745 C 275.211 -1.88403 -0.547594 0
M  V30 2746 O 274.336 -1.63706 -1.41525 0
M  V30 2747 C 274.931 -2.95662 1.65437 0
M  V30 2748 C 273.49 -3.46225 1.47666 0
M  V30 2749 C 272.637 -2.20562 1.6807 0
M  V30 2750 H 275.588 -0.922946 1.29102 0
M  V30 2751 H 275.609 -3.63825 1.11407 0
M  V30 2752 H 275.121 -2.76956 2.71877 0
M  V30 2753 H 273.222 -3.70046 0.435478 0
M  V30 2754 H 273.335 -4.23368 2.24268 0
M  V30 2755 H 271.699 -2.29439 1.10589 0
M  V30 2756 H 272.482 -2.0437 2.7584 0
M  V30 2757 N 274.927 -0.932562 -1.27047 0
M  V30 2758 C 276.152 -0.591474 -1.98787 0
M  V30 2759 C 276.577 0.824601 -1.69062 0
M  V30 2760 O 275.935 1.5541 -0.933677 0
M  V30 2761 C 275.983 -0.829808 -3.50922 0
M  V30 2762 O 275.087 0.102266 -4.12273 0
M  V30 2763 H 274.428 -0.227185 -0.623926 0
M  V30 2764 H 276.958 -1.25314 -1.61733 0
M  V30 2765 H 276.968 -0.747292 -4.01098 0
M  V30 2766 H 275.643 -1.86201 -3.7189 0
M  V30 2767 H 274.22 -0.0305761 -3.72887 0
M  V30 2768 N 276.405 1.4127 -0.698611 0
M  V30 2769 C 277.682 1.94955 -0.158762 0
M  V30 2770 C 278.062 1.63781 1.33188 0
M  V30 2771 O 277.41 0.946423 2.07979 0
M  V30 2772 C 277.62 3.46044 -0.453309 0
M  V30 2773 C 278.968 4.22872 -0.382707 0
M  V30 2774 O 279.992 3.54076 -0.388396 0
M  V30 2775 O 278.851 5.45407 -0.345463 0
M  V30 2776 H 275.945 0.82683 -0.0167505 0
M  V30 2777 H 278.491 1.50971 -0.77498 0
M  V30 2778 H 277.263 3.62028 -1.48498 0
M  V30 2779 H 276.886 3.97128 0.19373 0
M  V30 2780 N 277.883 0.443576 1.51229 0
M  V30 2781 C 279.132 -0.122332 2.01329 0
M  V30 2782 C 279.445 -1.43237 1.33201 0
M  V30 2783 O 280.651 -2.0816 1.74304 0
M  V30 2784 C 279.107 -0.268551 3.58897 0
M  V30 2785 C 278.715 1.03142 4.35965 0
M  V30 2786 C 280.459 -0.787894 4.17124 0
M  V30 2787 C 278.366 0.850504 5.85252 0
M  V30 2788 H 277.296 -0.0494929 0.752374 0
M  V30 2789 H 279.947 0.574289 1.74282 0
M  V30 2790 H 278.329 -1.02832 3.82415 0
M  V30 2791 H 279.503 1.80001 4.24189 0
M  V30 2792 H 277.818 1.47977 3.89219 0
M  V30 2793 H 280.415 -0.939841 5.26375 0
M  V30 2794 H 280.758 -1.77201 3.76703 0
M  V30 2795 H 281.291 -0.0862669 3.97706 0
M  V30 2796 H 278.03 1.80718 6.30096 0
M  V30 2797 H 277.55 0.121825 5.99676 0
M  V30 2798 H 279.229 0.506163 6.45017 0
M  V30 2799 N 279.361 -1.56624 0.175154 0
M  V30 2800 C 280.309 -2.19468 -0.770495 0
M  V30 2801 C 281.303 -1.15985 -1.23466 0
M  V30 2802 O 282.509 -1.34176 -1.19987 0
M  V30 2803 H 278.884 -0.703095 -0.266761 0
M  V30 2804 H 280.855 -2.97613 -0.216542 0
M  V30 2805 C 279.604 -2.85264 -1.98796 0
M  V30 2806 H 278.927 -3.64623 -1.63983 0
M  V30 2807 H 280.367 -3.327 -2.62843 0
M  V30 2808 C 278.826 -1.85239 -2.81404 0
M  V30 2809 O 279.356 -1.34024 -3.78682 0
M  V30 2810 N 277.562 -1.53911 -2.46495 0
M  V30 2811 H 277.109 -1.95751 -1.67449 0
M  V30 2812 H 277.067 -0.872382 -3.02054 0
M  V30 2813 N 280.839 0.0985539 -1.57292 0
M  V30 2814 C 282.067 0.816318 -1.90115 0
M  V30 2815 C 282.482 1.72451 -0.768509 0
M  V30 2816 O 281.839 1.80643 0.259687 0
M  V30 2817 C 281.89 1.63259 -3.22535 0
M  V30 2818 O 281.611 0.760934 -4.31441 0
M  V30 2819 C 283.112 2.45372 -3.69199 0
M  V30 2820 H 280.332 0.233595 -0.629027 0
M  V30 2821 H 282.876 0.0768229 -2.04356 0
M  V30 2822 H 281.031 2.32463 -3.09903 0
M  V30 2823 H 281.445 1.32595 -5.07463 0
M  V30 2824 H 282.919 2.98144 -4.64558 0
M  V30 2825 H 283.396 3.23677 -2.96867 0
M  V30 2826 H 284.002 1.81373 -3.84687 0
M  V30 2827 N 282.317 1.53212 0.369288 0
M  V30 2828 C 283.564 1.69215 1.11232 0
M  V30 2829 C 283.892 0.442048 1.8941 0
M  V30 2830 O 283.147 -0.575944 1.87033 0
M  V30 2831 C 283.446 2.89101 2.10132 0
M  V30 2832 C 283.112 4.25758 1.48463 0
M  V30 2833 C 281.774 4.6292 1.31372 0
M  V30 2834 C 284.126 5.10757 1.03811 0
M  V30 2835 C 281.454 5.82722 0.68207 0
M  V30 2836 C 283.806 6.31201 0.420487 0
M  V30 2837 C 282.47 6.67079 0.237038 0
M  V30 2838 H 281.74 0.619201 0.407027 0
M  V30 2839 H 284.387 1.87391 0.394552 0
M  V30 2840 H 282.692 2.65421 2.88199 0
M  V30 2841 H 284.389 2.98676 2.6757 0
M  V30 2842 H 280.979 3.96494 1.62758 0
M  V30 2843 H 285.163 4.82599 1.1581 0
M  V30 2844 H 280.419 6.09113 0.528316 0
M  V30 2845 H 284.593 6.96368 0.0662874 0
M  V30 2846 H 282.22 7.59774 -0.254477 0
M  V30 2847 N 283.795 -0.628877 1.44509 0
M  V30 2848 C 285.02 -1.42048 1.5112 0
M  V30 2849 C 285.445 -1.87594 0.137818 0
M  V30 2850 O 284.803 -1.58873 -0.873437 0
M  V30 2851 C 284.851 -2.61541 2.48251 0
M  V30 2852 O 283.955 -3.61453 1.98559 0
M  V30 2853 H 283.296 -0.424942 0.510216 0
M  V30 2854 H 285.826 -0.767374 1.89664 0
M  V30 2855 H 285.836 -3.09057 2.66361 0
M  V30 2856 H 284.511 -2.27736 3.48007 0
M  V30 2857 H 283.088 -3.20731 1.90227 0
M  V30 2858 N 285.273 -1.31445 -0.869486 0
M  V30 2859 C 286.203 -1.21727 -1.99261 0
M  V30 2860 C 287.184 -0.104359 -1.6978 0
M  V30 2861 O 288.369 -0.289038 -1.92037 0
M  V30 2862 C 285.499 -0.924317 -3.34774 0
M  V30 2863 C 284.453 -1.99685 -3.78563 0
M  V30 2864 C 283.779 -1.55658 -5.11541 0
M  V30 2865 C 285.079 -3.41003 -3.95619 0
M  V30 2866 H 286.773 -2.1569 -2.07649 0
M  V30 2867 H 284.319 -1.03839 -0.997675 0
M  V30 2868 H 286.272 -0.842934 -4.12883 0
M  V30 2869 H 284.996 0.0509793 -3.2656 0
M  V30 2870 H 283.655 -2.06813 -3.02694 0
M  V30 2871 H 283.303 -0.569132 -4.9977 0
M  V30 2872 H 283.003 -2.27409 -5.41811 0
M  V30 2873 H 284.527 -1.48928 -5.92159 0
M  V30 2874 H 285.941 -3.36547 -4.64122 0
M  V30 2875 H 284.338 -4.10975 -4.37286 0
M  V30 2876 H 285.408 -3.81754 -2.98985 0
M  V30 2877 N 286.751 1.08385 -1.14413 0
M  V30 2878 C 287.997 1.81044 -0.913834 0
M  V30 2879 C 288.33 1.86004 0.558209 0
M  V30 2880 O 287.605 1.33606 1.4135 0
M  V30 2881 C 287.888 3.26648 -1.51569 0
M  V30 2882 C 287.741 3.29895 -3.0576 0
M  V30 2883 C 289.06 4.23629 -1.19273 0
M  V30 2884 H 286.179 0.65727 -0.333414 0
M  V30 2885 H 288.821 1.26896 -1.41412 0
M  V30 2886 H 286.971 3.72889 -1.09023 0
M  V30 2887 H 288.643 2.91977 -3.57137 0
M  V30 2888 H 286.886 2.69163 -3.40197 0
M  V30 2889 H 287.557 4.32516 -3.42977 0
M  V30 2890 H 290.033 3.85727 -1.56057 0
M  V30 2891 H 288.909 5.23822 -1.64017 0
M  V30 2892 H 289.17 4.41968 -0.108068 0
M  V30 2893 N 288.23 0.939286 1.26551 0
M  V30 2894 C 289.14 0.453432 2.30176 0
M  V30 2895 C 290.156 -0.471649 1.67486 0
M  V30 2896 O 291.332 -0.35164 1.98306 0
M  V30 2897 C 288.397 -0.275326 3.45605 0
M  V30 2898 C 287.458 0.686084 4.23782 0
M  V30 2899 C 286.691 -0.00798994 5.33699 0
M  V30 2900 O 286.914 -1.22528 5.57085 0
M  V30 2901 O 285.848 0.669746 5.98162 0
M  V30 2902 H 289.674 1.31416 2.73795 0
M  V30 2903 H 287.259 0.705095 1.31715 0
M  V30 2904 H 289.141 -0.685911 4.1578 0
M  V30 2905 H 287.816 -1.11147 3.0402 0
M  V30 2906 H 286.723 1.14658 3.56096 0
M  V30 2907 H 288.056 1.48979 4.69112 0
M  V30 2908 N 289.708 -1.40897 0.706093 0
M  V30 2909 C 290.64 -2.29199 0.00815776 0
M  V30 2910 C 291.653 -1.45336 -0.733582 0
M  V30 2911 O 292.842 -1.68727 -0.582537 0
M  V30 2912 C 289.942 -3.23417 -1.01265 0
M  V30 2913 C 289.115 -4.36089 -0.338387 0
M  V30 2914 C 288.174 -5.10811 -1.26326 0
M  V30 2915 O 287.2 -5.64215 -0.751651 0
M  V30 2916 N 288.402 -5.19269 -2.595 0
M  V30 2917 H 291.167 -2.89738 0.766297 0
M  V30 2918 H 288.728 -1.52164 0.55296 0
M  V30 2919 H 290.72 -3.70276 -1.63334 0
M  V30 2920 H 289.29 -2.64112 -1.67223 0
M  V30 2921 H 288.51 -3.91479 0.462352 0
M  V30 2922 H 289.798 -5.08634 0.130031 0
M  V30 2923 H 289.196 -4.77347 -3.03573 0
M  V30 2924 H 287.753 -5.69667 -3.16737 0
M  V30 2925 N 291.186 -0.45159 -1.50991 0
M  V30 2926 C 292.116 0.342898 -2.30969 0
M  V30 2927 C 293.097 1.00815 -1.37005 0
M  V30 2928 O 294.282 1.00907 -1.65926 0
M  V30 2929 C 291.412 1.43637 -3.16205 0
M  V30 2930 C 290.366 0.893818 -4.18563 0
M  V30 2931 C 289.692 2.08411 -4.92411 0
M  V30 2932 C 290.992 -0.0815568 -5.22236 0
M  V30 2933 H 292.686 -0.324556 -2.97636 0
M  V30 2934 H 290.232 -0.157531 -1.43136 0
M  V30 2935 H 292.185 1.9995 -3.70942 0
M  V30 2936 H 290.909 2.13232 -2.47386 0
M  V30 2937 H 289.568 0.352798 -3.64898 0
M  V30 2938 H 289.216 2.76658 -4.20082 0
M  V30 2939 H 288.916 1.72741 -5.61636 0
M  V30 2940 H 290.44 2.65251 -5.49976 0
M  V30 2941 H 291.854 0.391742 -5.7196 0
M  V30 2942 H 290.251 -0.351551 -5.99069 0
M  V30 2943 H 291.321 -1.01374 -4.74185 0
M  V30 2944 N 292.664 1.56529 -0.183458 0
M  V30 2945 C 294.075 1.83739 0.331177 0
M  V30 2946 C 294.426 1.10373 1.62211 0
M  V30 2947 O 293.551 0.36071 2.13373 0
M  V30 2948 C 294.146 3.33306 0.607646 0
M  V30 2949 C 292.705 3.60969 1.06668 0
M  V30 2950 C 291.852 2.77086 0.109029 0
M  V30 2951 H 294.803 1.53379 -0.407484 0
M  V30 2952 H 294.824 3.51444 1.45832 0
M  V30 2953 H 294.336 3.86677 -0.332086 0
M  V30 2954 H 292.437 3.13021 2.0211 0
M  V30 2955 H 292.55 4.69231 0.967447 0
M  V30 2956 H 290.914 2.47319 0.608714 0
M  V30 2957 H 291.697 3.33241 -0.82494 0
M  V30 2958 N 294.142 -0.090211 1.57342 0
M  V30 2959 C 295.39 -0.791241 1.85967 0
M  V30 2960 C 295.711 -1.7903 0.772859 0
M  V30 2961 O 294.981 -1.94872 -0.200398 0
M  V30 2962 H 293.561 -0.295205 0.686195 0
M  V30 2963 H 296.223 -0.0706782 1.94772 0
M  V30 2964 H 295.319 -1.31882 2.82867 0
M  V30 2965 N 295.62 -1.53406 -0.361157 0
M  V30 2966 C 296.567 -1.80156 -1.44265 0
M  V30 2967 C 297.537 -0.646183 -1.53015 0
M  V30 2968 O 298.722 -0.888818 -1.68833 0
M  V30 2969 C 295.862 -2.00116 -2.81154 0
M  V30 2970 C 294.975 -3.27833 -2.81335 0
M  V30 2971 C 294.11 -3.37957 -4.09828 0
M  V30 2972 C 293.149 -4.59689 -4.04168 0
M  V30 2973 N 292.286 -4.66942 -5.24318 0
M  V30 2974 H 297.126 -2.72438 -1.20754 0
M  V30 2975 H 294.663 -1.34954 -0.585296 0
M  V30 2976 H 296.621 -2.09677 -3.60682 0
M  V30 2977 H 295.251 -1.11167 -3.03054 0
M  V30 2978 H 294.303 -3.27204 -1.94014 0
M  V30 2979 H 295.615 -4.17442 -2.73027 0
M  V30 2980 H 294.769 -3.46853 -4.97773 0
M  V30 2981 H 293.508 -2.46372 -4.20894 0
M  V30 2982 H 292.513 -4.50889 -3.14609 0
M  V30 2983 H 293.738 -5.5262 -3.947 0
M  V30 2984 H 291.684 -3.7826 -5.35962 0
M  V30 2985 H 291.601 -5.50462 -5.18197 0
M  V30 2986 H 292.869 -4.80127 -6.14084 0
M  V30 2987 N 297.098 0.621204 -1.44841 0
M  V30 2988 C 298.028 1.74366 -1.55303 0
M  V30 2989 C 299.009 1.65199 -0.405385 0
M  V30 2990 O 300.194 1.83807 -0.626787 0
M  V30 2991 C 297.324 3.12931 -1.50637 0
M  V30 2992 C 296.278 3.36896 -2.63979 0
M  V30 2993 C 295.604 4.75594 -2.44366 0
M  V30 2994 C 296.904 3.28483 -4.06074 0
M  V30 2995 H 298.598 1.65867 -2.49256 0
M  V30 2996 H 296.144 0.796558 -1.19962 0
M  V30 2997 H 298.097 3.9124 -1.56555 0
M  V30 2998 H 296.821 3.22237 -0.532057 0
M  V30 2999 H 295.48 2.60972 -2.57467 0
M  V30 3000 H 295.128 4.81616 -1.45105 0
M  V30 3001 H 294.828 4.92586 -3.20364 0
M  V30 3002 H 296.352 5.5612 -2.52117 0
M  V30 3003 H 297.766 3.96684 -4.13902 0
M  V30 3004 H 296.163 3.57008 -4.82354 0
M  V30 3005 H 297.233 2.26133 -4.28943 0
M  V30 3006 N 298.576 1.31904 0.862503 0
M  V30 3007 C 299.506 1.22782 1.98612 0
M  V30 3008 C 300.487 0.113362 1.69722 0
M  V30 3009 O 301.672 0.299218 1.91881 0
M  V30 3010 C 298.802 0.942058 3.34279 0
M  V30 3011 C 297.756 2.0169 3.77499 0
M  V30 3012 C 297.082 1.58369 5.10709 0
M  V30 3013 C 298.382 3.43096 3.93805 0
M  V30 3014 H 300.076 2.16788 2.06502 0
M  V30 3015 H 297.622 1.04366 0.992154 0
M  V30 3016 H 299.575 0.864818 4.1243 0
M  V30 3017 H 298.299 -0.0336603 3.26583 0
M  V30 3018 H 296.958 2.08416 3.01593 0
M  V30 3019 H 296.606 0.595628 4.99461 0
M  V30 3020 H 296.306 2.30279 5.40597 0
M  V30 3021 H 297.83 1.52067 5.91361 0
M  V30 3022 H 299.244 3.39003 4.62331 0
M  V30 3023 H 297.641 4.13288 4.35101 0
M  V30 3024 H 298.711 3.83334 2.96957 0
M  V30 3025 N 300.054 -1.07777 1.14986 0
M  V30 3026 C 300.964 -2.18404 0.856546 0
M  V30 3027 C 301.98 -1.73211 -0.165485 0
M  V30 3028 O 303.156 -2.01399 0.00755219 0
M  V30 3029 C 300.221 -3.44977 0.34526 0
M  V30 3030 C 299.282 -4.0476 1.43065 0
M  V30 3031 C 298.515 -5.25291 0.943663 0
M  V30 3032 O 298.738 -5.70004 -0.212426 0
M  V30 3033 O 297.672 -5.76638 1.72547 0
M  V30 3034 H 301.498 -2.45978 1.78125 0
M  V30 3035 H 299.083 -1.17033 0.928631 0
M  V30 3036 H 300.965 -4.21348 0.0663671 0
M  V30 3037 H 299.64 -3.18965 -0.551631 0
M  V30 3038 H 298.547 -3.29949 1.76309 0
M  V30 3039 H 299.88 -4.35035 2.30229 0
M  V30 3040 N 301.532 -0.945985 -1.26051 0
M  V30 3041 C 302.482 -0.430164 -2.23905 0
M  V30 3042 C 303.466 0.47579 -1.53704 0
M  V30 3043 O 304.658 0.310252 -1.7426 0
M  V30 3044 C 301.787 0.298957 -3.41996 0
M  V30 3045 C 300.873 -0.624566 -4.19476 0
M  V30 3046 N 301.264 -1.75245 -4.74471 0
M  V30 3047 C 299.562 -0.431082 -4.43912 0
M  V30 3048 C 300.263 -2.32834 -5.3307 0
M  V30 3049 N 299.239 -1.61583 -5.1903 0
M  V30 3050 H 303.041 -1.29107 -2.64024 0
M  V30 3051 H 300.555 -0.802428 -1.41191 0
M  V30 3052 H 302.552 0.685565 -4.11225 0
M  V30 3053 H 301.212 1.15657 -3.03403 0
M  V30 3054 H 302.223 -2.13449 -4.71868 0
M  V30 3055 H 298.9 0.384364 -4.15727 0
M  V30 3056 H 300.29 -3.27893 -5.86461 0
M  V30 3057 N 303.011 1.40521 -0.713556 0
M  V30 3058 C 304.427 1.54839 -0.386907 0
M  V30 3059 C 304.627 1.68532 1.1045 0
M  V30 3060 O 303.683 1.67377 1.89053 0
M  V30 3061 C 304.996 2.77792 -1.15118 0
M  V30 3062 C 306.544 2.91607 -1.13729 0
M  V30 3063 C 307.019 4.1747 -1.88368 0
M  V30 3064 N 308.51 4.24466 -1.85427 0
M  V30 3065 C 309.245 5.20755 -2.40004 0
M  V30 3066 N 308.741 6.22965 -3.03129 0
M  V30 3067 N 310.534 5.1282 -2.30158 0
M  V30 3068 H 302.685 1.29879 -1.68063 0
M  V30 3069 H 304.948 0.627896 -0.710247 0
M  V30 3070 H 304.654 2.73944 -2.20561 0
M  V30 3071 H 304.528 3.6984 -0.741477 0
M  V30 3072 H 306.915 2.94959 -0.0910608 0
M  V30 3073 H 306.996 2.00682 -1.5862 0
M  V30 3074 H 306.64 4.1488 -2.9298 0
M  V30 3075 H 306.57 5.074 -1.40898 0
M  V30 3076 H 309.061 3.51241 -1.3942 0
M  V30 3077 H 309.374 6.92859 -3.42295 0
M  V30 3078 H 307.719 6.23415 -3.07212 0
M  V30 3079 H 310.91 4.31899 -1.80501 0
M  V30 3080 H 311.083 5.87689 -2.72993 0
M  V30 3081 N 304.489 0.459591 1.5075 0
M  V30 3082 C 305.738 -0.100971 2.01447 0
M  V30 3083 C 306.051 -1.41816 1.34713 0
M  V30 3084 O 307.257 -2.06299 1.76502 0
M  V30 3085 C 305.713 -0.23047 3.59161 0
M  V30 3086 C 305.321 1.0776 4.34847 0
M  V30 3087 C 307.065 -0.743608 4.17936 0
M  V30 3088 C 304.972 0.91253 5.84317 0
M  V30 3089 H 303.902 -0.0415102 0.752856 0
M  V30 3090 H 306.553 0.592742 1.73663 0
M  V30 3091 H 304.935 -0.987703 3.83485 0
M  V30 3092 H 306.109 1.8449 4.22256 0
M  V30 3093 H 304.424 1.52097 3.87628 0
M  V30 3094 H 307.021 -0.883959 5.27343 0
M  V30 3095 H 307.364 -1.73196 3.78562 0
M  V30 3096 H 307.897 -0.04408 3.97776 0
M  V30 3097 H 304.636 1.87391 6.28144 0
M  V30 3098 H 304.156 0.185422 5.99513 0
M  V30 3099 H 305.835 0.574547 6.44444 0
M  V30 3100 N 305.967 -1.56429 0.191757 0
M  V30 3101 C 306.897 -2.21937 -0.725696 0
M  V30 3102 C 307.878 -1.1814 -1.2238 0
M  V30 3103 O 309.063 -1.46636 -1.27325 0
M  V30 3104 C 306.193 -2.87611 -1.94672 0
M  V30 3105 C 305.147 -3.97623 -1.58366 0
M  V30 3106 C 304.473 -4.50446 -2.88102 0
M  V30 3107 C 305.773 -5.16197 -0.796133 0
M  V30 3108 H 307.467 -2.98861 -0.179606 0
M  V30 3109 H 305.013 -1.43749 -0.0849464 0
M  V30 3110 H 306.966 -3.3212 -2.59373 0
M  V30 3111 H 305.69 -2.08087 -2.51728 0
M  V30 3112 H 304.349 -3.53801 -0.960247 0
M  V30 3113 H 303.997 -3.67688 -3.43241 0
M  V30 3114 H 303.697 -5.24675 -2.64556 0
M  V30 3115 H 305.221 -4.97654 -3.53798 0
M  V30 3116 H 306.635 -5.57271 -1.34618 0
M  V30 3117 H 305.032 -5.96471 -0.658928 0
M  V30 3118 H 306.102 -4.84473 0.203478 0
M  V30 3119 N 307.445 0.0818655 -1.57387 0
M  V30 3120 C 308.355 1.11642 -2.06333 0
M  V30 3121 C 309.371 1.43033 -0.99083 0
M  V30 3122 O 310.547 1.53411 -1.30488 0
M  V30 3123 C 307.612 2.41342 -2.48907 0
M  V30 3124 C 306.673 2.17014 -3.7041 0
M  V30 3125 C 305.906 3.4053 -4.10944 0
M  V30 3126 O 306.129 4.4927 -3.51444 0
M  V30 3127 O 305.063 3.29336 -5.03807 0
M  V30 3128 H 308.889 0.730657 -2.9478 0
M  V30 3129 H 306.474 0.295301 -1.46452 0
M  V30 3130 H 308.356 3.17691 -2.76858 0
M  V30 3131 H 307.031 2.79319 -1.63593 0
M  V30 3132 H 305.938 1.38403 -3.47556 0
M  V30 3133 H 307.271 1.83923 -4.56545 0
M  V30 3134 N 308.923 1.53595 0.353017 0
M  V30 3135 C 309.833 1.83897 1.45667 0
M  V30 3136 C 310.849 0.728334 1.58023 0
M  V30 3137 O 312.025 1.01968 1.73679 0
M  V30 3138 C 309.09 2.03383 2.80778 0
M  V30 3139 C 308.151 3.27262 2.77845 0
M  V30 3140 C 307.384 3.45809 4.06512 0
M  V30 3141 O 307.607 2.68387 5.03314 0
M  V30 3142 O 306.541 4.39207 4.11559 0
M  V30 3143 H 310.367 2.77686 1.2298 0
M  V30 3144 H 307.952 1.39132 0.544308 0
M  V30 3145 H 309.834 2.17698 3.60812 0
M  V30 3146 H 308.509 1.12783 3.03417 0
M  V30 3147 H 307.416 3.18359 1.96465 0
M  V30 3148 H 308.749 4.17824 2.60161 0
M  V30 3149 N 310.401 -0.613514 1.45168 0
M  V30 3150 C 311.311 -1.75296 1.55912 0
M  V30 3151 C 312.327 -1.68244 0.443856 0
M  V30 3152 O 313.503 -1.88706 0.70371 0
M  V30 3153 C 310.568 -3.1174 1.5172 0
M  V30 3154 C 309.629 -3.30291 2.74238 0
M  V30 3155 C 308.862 -4.60226 2.70236 0
M  V30 3156 O 309.085 -5.42168 1.77229 0
M  V30 3157 O 308.019 -4.81361 3.61352 0
M  V30 3158 H 311.845 -1.69183 2.52212 0
M  V30 3159 H 309.43 -0.776886 1.27612 0
M  V30 3160 H 311.312 -3.93044 1.51968 0
M  V30 3161 H 309.987 -3.18357 0.585697 0
M  V30 3162 H 308.894 -2.48598 2.79553 0
M  V30 3163 H 310.227 -3.28547 3.66494 0
M  V30 3164 N 311.879 -1.3236 -0.855495 0
M  V30 3165 C 312.789 -1.23221 -1.99634 0
M  V30 3166 C 313.805 -0.145983 -1.73387 0
M  V30 3167 O 314.981 -0.366502 -1.98037 0
M  V30 3168 C 312.046 -0.954782 -3.33294 0
M  V30 3169 C 311.107 -2.12937 -3.72769 0
M  V30 3170 C 310.34 -1.86508 -5.00051 0
M  V30 3171 O 310.563 -0.807231 -5.64659 0
M  V30 3172 O 309.497 -2.72591 -5.36636 0
M  V30 3173 H 313.323 -2.19126 -2.1028 0
M  V30 3174 H 310.908 -1.12241 -0.986018 0
M  V30 3175 H 312.79 -0.816519 -4.13414 0
M  V30 3176 H 311.465 -0.0258854 -3.2369 0
M  V30 3177 H 310.372 -2.3231 -2.93228 0
M  V30 3178 H 311.705 -3.04102 -3.87018 0
M  V30 3179 N 313.357 1.07166 -1.15556 0
M  V30 3180 C 314.603 1.80065 -0.932984 0
M  V30 3181 C 314.936 1.86586 0.53845 0
M  V30 3182 O 314.211 1.35098 1.39924 0
M  V30 3183 C 314.494 3.25022 -1.55025 0
M  V30 3184 C 314.347 3.26634 -3.09242 0
M  V30 3185 C 315.666 4.22341 -1.2376 0
M  V30 3186 H 312.785 0.653697 -0.340366 0
M  V30 3187 H 315.427 1.25389 -1.4275 0
M  V30 3188 H 313.577 3.71712 -1.12972 0
M  V30 3189 H 315.249 2.88173 -3.60214 0
M  V30 3190 H 313.492 2.65539 -3.43033 0
M  V30 3191 H 314.163 4.28854 -3.47546 0
M  V30 3192 H 316.639 3.8405 -1.60139 0
M  V30 3193 H 315.515 5.22053 -1.69564 0
M  V30 3194 H 315.776 4.41828 -0.154938 0
M  V30 3195 N 314.835 0.952656 1.25548 0
M  V30 3196 C 315.765 0.489287 2.28316 0
M  V30 3197 C 316.746 -0.463359 1.63667 0
M  V30 3198 O 317.931 -0.36274 1.90782 0
M  V30 3199 C 315.061 -0.235603 3.465 0
M  V30 3200 C 314.015 0.631593 4.23314 0
M  V30 3201 C 313.341 -0.223923 5.34231 0
M  V30 3202 C 314.641 1.90871 4.86174 0
M  V30 3203 H 316.335 1.34822 2.67326 0
M  V30 3204 H 313.881 0.649728 1.28509 0
M  V30 3205 H 315.834 -0.570882 4.17515 0
M  V30 3206 H 314.558 -1.12877 3.06474 0
M  V30 3207 H 313.217 0.949929 3.54079 0
M  V30 3208 H 312.865 -1.11678 4.90446 0
M  V30 3209 H 312.565 0.35299 5.86539 0
M  V30 3210 H 314.089 -0.554214 6.0808 0
M  V30 3211 H 315.503 1.63997 5.49343 0
M  V30 3212 H 313.9 2.43112 5.4865 0
M  V30 3213 H 314.97 2.61304 4.08471 0
M  V30 3214 N 316.313 -1.40141 0.720998 0
M  V30 3215 C 317.561 -2.0039 0.262323 0
M  V30 3216 C 317.882 -1.57469 -1.15015 0
M  V30 3217 O 317.152 -0.816582 -1.78069 0
M  V30 3218 H 315.732 -0.741063 0.093996 0
M  V30 3219 H 318.394 -1.71398 0.927835 0
M  V30 3220 H 317.49 -3.10658 0.299671 0
M  V30 3221 N 317.792 -0.46758 -1.50504 0
M  V30 3222 C 319.04 0.0884469 -2.01906 0
M  V30 3223 C 319.361 1.40532 -1.35188 0
M  V30 3224 O 318.631 1.89515 -0.496079 0
M  V30 3225 H 317.211 0.0356765 -0.746148 0
M  V30 3226 H 319.873 -0.6172 -1.84869 0
M  V30 3227 H 318.969 0.2425 -3.11156 0
M  V30 3228 N 319.27 1.56325 -0.20005 0
M  V30 3229 C 320.518 1.97329 0.436547 0
M  V30 3230 C 320.839 1.08826 1.61808 0
M  V30 3231 O 320.109 0.160604 1.95241 0
M  V30 3232 H 318.689 0.728714 0.164272 0
M  V30 3233 H 321.351 1.92761 -0.287937 0
M  V30 3234 H 320.447 3.02264 0.777353 0
M  V30 3235 N 320.748 -0.0735177 1.57428 0
M  V30 3236 C 321.996 -0.771472 1.86796 0
M  V30 3237 C 322.317 -1.78201 0.791804 0
M  V30 3238 O 321.587 -1.95074 -0.179718 0
M  V30 3239 H 320.167 -0.28791 0.689287 0
M  V30 3240 H 322.829 -0.0500161 1.94836 0
M  V30 3241 H 321.925 -1.28874 2.8425 0
M  V30 3242 N 322.226 -1.5378 -0.344866 0
M  V30 3243 C 323.158 -1.77988 -1.44406 0
M  V30 3244 C 324.171 -0.661138 -1.48771 0
M  V30 3245 O 325.36 -0.937842 -1.51877 0
M  V30 3246 C 322.46 -1.86345 -2.8307 0
M  V30 3247 C 321.633 -3.16256 -3.0216 0
M  V30 3248 C 320.692 -3.15588 -4.21059 0
M  V30 3249 O 319.718 -3.89314 -4.15239 0
M  V30 3250 N 320.92 -2.37864 -5.29529 0
M  V30 3251 H 323.685 -2.72839 -1.24012 0
M  V30 3252 H 321.246 -1.52814 -0.534737 0
M  V30 3253 H 323.238 -1.83351 -3.60783 0
M  V30 3254 H 321.808 -0.986858 -2.96614 0
M  V30 3255 H 321.028 -3.32385 -2.11929 0
M  V30 3256 H 322.316 -4.0207 -3.11797 0
M  V30 3257 H 321.714 -1.77514 -5.37127 0
M  V30 3258 H 320.271 -2.40668 -6.05741 0
M  V30 3259 N 323.704 0.605807 -1.45491 0
M  V30 3260 C 324.952 1.36207 -1.49305 0
M  V30 3261 C 325.273 1.94519 -0.136863 0
M  V30 3262 O 324.543 1.77261 0.833983 0
M  V30 3263 H 323.123 0.50565 -0.549843 0
M  V30 3264 H 325.785 0.711239 -1.81459 0
M  V30 3265 H 324.881 2.18058 -2.23287 0
M  V30 3266 N 325.182 1.32811 0.848464 0
M  V30 3267 C 326.598 1.11937 1.13764 0
M  V30 3268 C 326.798 -0.0960789 2.01271 0
M  V30 3269 O 325.854 -0.779165 2.40178 0
M  V30 3270 C 327.167 2.402 1.809 0
M  V30 3271 C 328.715 2.46016 1.93508 0
M  V30 3272 C 329.19 3.74215 2.64059 0
M  V30 3273 N 330.681 3.75232 2.71579 0
M  V30 3274 C 331.416 4.71134 3.26833 0
M  V30 3275 N 330.912 5.77406 3.8285 0
M  V30 3276 N 332.705 4.58623 3.24995 0
M  V30 3277 H 324.856 2.1073 0.265855 0
M  V30 3278 H 327.119 0.930671 0.180431 0
M  V30 3279 H 326.825 3.29093 1.24058 0
M  V30 3280 H 326.699 2.51628 2.81004 0
M  V30 3281 H 329.086 1.57577 2.49506 0
M  V30 3282 H 329.167 2.38536 0.923811 0
M  V30 3283 H 328.811 4.63031 2.08722 0
M  V30 3284 H 328.741 3.78968 3.65637 0
M  V30 3285 H 331.232 2.98423 2.31845 0
M  V30 3286 H 331.545 6.46632 4.23187 0
M  V30 3287 H 329.89 5.81152 3.81165 0
M  V30 3288 H 333.081 3.74762 2.80484 0
M  V30 3289 H 333.254 5.33535 3.67756 0
M  V30 3290 N 326.66 -1.06551 1.16123 0
M  V30 3291 C 327.59 -2.15935 0.88851 0
M  V30 3292 C 328.571 -1.69306 -0.164135 0
M  V30 3293 O 329.756 -1.94193 -0.0167857 0
M  V30 3294 C 326.886 -3.45149 0.385942 0
M  V30 3295 C 325.84 -4.05271 1.3762 0
M  V30 3296 C 325.166 -5.29664 0.732137 0
M  V30 3297 C 326.466 -4.44355 2.74493 0
M  V30 3298 H 328.16 -2.39006 1.80323 0
M  V30 3299 H 325.706 -1.14866 0.868435 0
M  V30 3300 H 327.659 -4.21004 0.182647 0
M  V30 3301 H 326.383 -3.21689 -0.564274 0
M  V30 3302 H 325.042 -3.3147 1.56599 0
M  V30 3303 H 324.69 -5.02499 -0.224483 0
M  V30 3304 H 324.39 -5.70848 1.39307 0
M  V30 3305 H 325.914 -6.08218 0.538802 0
M  V30 3306 H 327.328 -5.11303 2.59311 0
M  V30 3307 H 325.725 -4.96515 3.37035 0
M  V30 3308 H 326.795 -3.55339 3.29943 0
M  V30 3309 N 328.138 -0.959301 -1.25041 0
M  V30 3310 C 329.068 -0.501388 -2.28053 0
M  V30 3311 C 330.049 0.454673 -1.63911 0
M  V30 3312 O 331.234 0.352618 -1.90972 0
M  V30 3313 C 328.364 0.217224 -3.4662 0
M  V30 3314 C 327.318 -0.654034 -4.22973 0
M  V30 3315 C 326.644 0.195589 -5.34342 0
M  V30 3316 C 327.944 -1.93447 -4.85155 0
M  V30 3317 H 329.638 -1.36238 -2.66608 0
M  V30 3318 H 327.184 -0.656534 -1.28163 0
M  V30 3319 H 329.137 0.548732 -4.17812 0
M  V30 3320 H 327.861 1.1125 -3.07068 0
M  V30 3321 H 326.52 -0.968693 -3.5357 0
M  V30 3322 H 326.168 1.09076 -4.91031 0
M  V30 3323 H 325.868 -0.384091 -5.86343 0
M  V30 3324 H 327.392 0.521958 -6.08365 0
M  V30 3325 H 328.806 -1.66908 -5.48466 0
M  V30 3326 H 327.203 -2.46018 -5.47353 0
M  V30 3327 H 328.273 -2.63466 -4.07079 0
M  V30 3328 N 329.616 1.39756 -0.72842 0
M  V30 3329 C 330.864 2.00248 -0.272946 0
M  V30 3330 C 331.185 1.58077 1.14178 0
M  V30 3331 O 330.455 0.826014 1.77634 0
M  V30 3332 H 329.035 0.740554 -0.0979247 0
M  V30 3333 H 331.697 1.70903 -0.936912 0
M  V30 3334 H 330.793 3.10495 -0.316142 0
M  V30 3335 N 331.094 0.475555 1.50254 0
M  V30 3336 C 332.319 -0.0777042 2.07254 0
M  V30 3337 C 332.744 -1.3235 1.3366 0
M  V30 3338 O 332.102 -1.77152 0.385597 0
M  V30 3339 C 332.15 -0.340169 3.58992 0
M  V30 3340 O 331.254 -1.41982 3.87188 0
M  V30 3341 H 330.595 0.0149556 0.663832 0
M  V30 3342 H 333.125 0.667878 1.93392 0
M  V30 3343 H 333.135 -0.579332 4.03866 0
M  V30 3344 H 331.81 0.570167 4.11973 0
M  V30 3345 H 330.387 -1.16762 3.54148 0
M  V30 3346 N 332.573 -1.56217 0.208337 0
M  V30 3347 C 333.819 -1.98242 -0.427552 0
M  V30 3348 C 334.152 -1.09554 -1.60348 0
M  V30 3349 O 333.427 -0.15035 -1.93918 0
M  V30 3350 C 333.71 -3.4931 -0.874907 0
M  V30 3351 C 333.563 -4.48773 0.303751 0
M  V30 3352 C 334.882 -4.04424 -1.73577 0
M  V30 3353 H 332.001 -0.720744 -0.153936 0
M  V30 3354 H 334.643 -1.87586 0.30192 0
M  V30 3355 H 332.793 -3.58522 -1.49648 0
M  V30 3356 H 334.465 -4.51586 0.941682 0
M  V30 3357 H 332.708 -4.23194 0.953375 0
M  V30 3358 H 333.379 -5.51976 -0.0519883 0
M  V30 3359 H 335.855 -3.98075 -1.21143 0
M  V30 3360 H 334.731 -5.1047 -2.01771 0
M  V30 3361 H 334.992 -3.50494 -2.69456 0
M  V30 3362 N 334.051 0.0651679 -1.57465 0
M  V30 3363 C 335.328 0.79644 -1.78651 0
M  V30 3364 C 335.708 1.95454 -0.797566 0
M  V30 3365 O 335.056 2.27882 0.167946 0
M  V30 3366 C 335.266 1.26322 -3.25337 0
M  V30 3367 C 336.614 1.6939 -3.89348 0
M  V30 3368 O 337.638 1.35872 -3.29268 0
M  V30 3369 O 336.497 2.31471 -4.95059 0
M  V30 3370 H 333.591 0.382157 -0.733407 0
M  V30 3371 H 336.137 0.0447311 -1.69641 0
M  V30 3372 H 334.909 0.434859 -3.88876 0
M  V30 3373 H 334.532 2.07604 -3.39096 0
M  V30 3374 N 335.529 1.53961 0.336706 0
M  V30 3375 C 336.759 1.75229 1.09446 0
M  V30 3376 C 337.167 0.494602 1.82621 0
M  V30 3377 O 336.51 -0.543764 1.75468 0
M  V30 3378 C 336.572 2.88288 2.1478 0
M  V30 3379 C 336.236 4.27656 1.6112 0
M  V30 3380 C 337.233 5.08981 1.0599 0
M  V30 3381 C 334.918 4.74161 1.6576 0
M  V30 3382 C 336.912 6.34916 0.562129 0
M  V30 3383 C 334.599 6.00067 1.15595 0
M  V30 3384 C 335.597 6.80278 0.609147 0
M  V30 3385 O 335.285 8.03818 0.114999 0
M  V30 3386 H 335.017 0.588881 0.331956 0
M  V30 3387 H 337.571 2.01614 0.392566 0
M  V30 3388 H 335.801 2.57443 2.88548 0
M  V30 3389 H 337.49 2.97461 2.76174 0
M  V30 3390 H 338.256 4.74213 1.01722 0
M  V30 3391 H 334.135 4.11781 2.07261 0
M  V30 3392 H 337.679 6.9747 0.134668 0
M  V30 3393 H 333.576 6.3433 1.19566 0
M  V30 3394 H 334.344 8.18172 0.231651 0
M  V30 3395 N 337.007 -0.598083 1.45811 0
M  V30 3396 C 338.284 -1.35777 1.40797 0
M  V30 3397 C 338.664 -2.10935 0.083462 0
M  V30 3398 O 338.012 -2.08505 -0.934763 0
M  V30 3399 C 338.222 -2.29666 2.62783 0
M  V30 3400 C 339.57 -2.91977 3.08277 0
M  V30 3401 O 340.594 -2.39984 2.63223 0
M  V30 3402 O 339.453 -3.86376 3.86491 0
M  V30 3403 H 336.547 -0.609291 0.55919 0
M  V30 3404 H 339.093 -0.620379 1.57954 0
M  V30 3405 H 337.865 -1.73454 3.50756 0
M  V30 3406 H 337.488 -3.1077 2.48008 0
M  V30 3407 N 338.485 -1.33259 -0.841409 0
M  V30 3408 C 339.733 -1.24326 -1.59334 0
M  V30 3409 C 340.054 0.191564 -1.94057 0
M  V30 3410 O 339.324 1.11967 -1.60749 0
M  V30 3411 H 337.904 -0.457174 -0.590763 0
M  V30 3412 H 340.566 -1.66947 -1.00571 0
M  V30 3413 H 339.662 -1.8352 -2.52442 0
M  V30 3414 N 339.963 1.05934 -1.16686 0
M  V30 3415 C 341.212 1.78188 -0.945085 0
M  V30 3416 C 341.525 1.88338 0.528021 0
M  V30 3417 O 342.731 2.57258 0.867799 0
M  V30 3418 C 341.187 3.20277 -1.64167 0
M  V30 3419 C 340.795 3.18281 -3.15279 0
M  V30 3420 C 342.539 3.97039 -1.502 0
M  V30 3421 C 340.446 4.55112 -3.7766 0
M  V30 3422 H 339.376 0.667866 -0.349959 0
M  V30 3423 H 342.027 1.18794 -1.39858 0
M  V30 3424 H 340.409 3.79952 -1.11589 0
M  V30 3425 H 341.583 2.68167 -3.74731 0
M  V30 3426 H 339.898 2.55018 -3.29173 0
M  V30 3427 H 342.495 4.98194 -1.94183 0
M  V30 3428 H 342.838 4.13845 -0.451461 0
M  V30 3429 H 343.371 3.43894 -1.99954 0
M  V30 3430 H 340.11 4.43512 -4.82677 0
M  V30 3431 H 339.63 5.05406 -3.22994 0
M  V30 3432 H 341.309 5.24064 -3.79428 0
M  V30 3433 N 341.441 0.965919 1.2453 0
M  V30 3434 C 342.389 0.486506 2.27455 0
M  V30 3435 C 343.383 -0.449041 1.6334 0
M  V30 3436 O 344.589 -0.324527 1.7705 0
M  V30 3437 H 340.964 0.138857 0.739069 0
M  V30 3438 H 342.935 1.3666 2.65267 0
M  V30 3439 C 341.684 -0.209481 3.47068 0
M  V30 3440 H 341.007 0.50129 3.96645 0
M  V30 3441 H 342.447 -0.508775 4.20936 0
M  V30 3442 C 340.906 -1.43586 3.0477 0
M  V30 3443 O 341.436 -2.53299 3.11773 0
M  V30 3444 N 339.642 -1.30126 2.59838 0
M  V30 3445 H 339.189 -0.408583 2.54339 0
M  V30 3446 H 339.147 -2.12294 2.31902 0
M  V30 3447 N 342.919 -1.39368 0.735821 0
M  V30 3448 C 344.196 -1.94465 0.210395 0
M  V30 3449 C 344.576 -1.67254 -1.28799 0
M  V30 3450 O 343.924 -1.00123 -2.05396 0
M  V30 3451 C 344.134 -3.4472 0.544897 0
M  V30 3452 C 345.482 -4.21708 0.494689 0
M  V30 3453 O 346.506 -3.52922 0.482136 0
M  V30 3454 O 345.365 -5.44299 0.489947 0
M  V30 3455 H 342.459 -0.826096 0.0386666 0
M  V30 3456 H 345.005 -1.48863 0.814735 0
M  V30 3457 H 343.777 -3.57963 1.58045 0
M  V30 3458 H 343.4 -3.97502 -0.08837 0
M  V30 3459 N 344.397 -0.483516 -1.5 0
M  V30 3460 C 345.36 0.292965 -2.2732 0
M  V30 3461 C 346.36 0.909499 -1.32608 0
M  V30 3462 O 347.55 0.776745 -1.55924 0
M  V30 3463 C 344.682 1.41854 -3.09984 0
M  V30 3464 H 345.875 -0.385289 -2.97415 0
M  V30 3465 H 343.428 -0.237942 -1.54478 0
M  V30 3466 H 344.163 2.13148 -2.44414 0
M  V30 3467 H 343.948 0.982114 -3.79601 0
M  V30 3468 H 345.438 1.96597 -3.68429 0
M  V30 3469 N 345.875 1.56104 -0.216619 0
M  V30 3470 C 347.124 1.97348 0.416744 0
M  V30 3471 C 347.437 1.10715 1.6125 0
M  V30 3472 O 348.643 1.41836 2.31506 0
M  V30 3473 C 347.099 3.51059 0.792835 0
M  V30 3474 C 346.707 4.46387 -0.379828 0
M  V30 3475 C 348.451 4.01026 1.39208 0
M  V30 3476 C 346.358 5.91397 0.0184223 0
M  V30 3477 H 345.288 0.736942 0.159475 0
M  V30 3478 H 347.939 1.80827 -0.31205 0
M  V30 3479 H 346.321 3.63162 1.57891 0
M  V30 3480 H 347.495 4.46029 -1.15737 0
M  V30 3481 H 345.81 4.06734 -0.891979 0
M  V30 3482 H 348.407 5.0686 1.70286 0
M  V30 3483 H 348.75 3.46587 2.30614 0
M  V30 3484 H 349.283 3.92125 0.669537 0
M  V30 3485 H 346.022 6.49807 -0.862002 0
M  V30 3486 H 345.542 5.94961 0.760384 0
M  V30 3487 H 347.221 6.45455 0.446818 0
M  V30 3488 N 347.353 -0.0568162 1.57498 0
M  V30 3489 C 348.581 -0.765626 1.92213 0
M  V30 3490 C 348.996 -1.70353 0.813961 0
M  V30 3491 O 348.353 -1.81268 -0.211701 0
M  V30 3492 C 348.404 -1.5465 3.2675 0
M  V30 3493 O 348.125 -0.646278 4.33307 0
M  V30 3494 C 349.626 -2.35497 3.75574 0
M  V30 3495 H 346.846 -0.216835 0.634999 0
M  V30 3496 H 349.39 -0.0226146 2.04487 0
M  V30 3497 H 347.545 -2.24165 3.15957 0
M  V30 3498 H 347.959 -1.19093 5.108 0
M  V30 3499 H 349.433 -2.85722 4.72299 0
M  V30 3500 H 349.91 -3.15692 3.05344 0
M  V30 3501 H 350.516 -1.7111 3.8936 0
M  V30 3502 N 348.832 -1.54138 -0.328536 0
M  V30 3503 C 350.248 -1.44736 -0.672574 0
M  V30 3504 C 350.448 -0.616217 -1.91846 0
M  V30 3505 O 349.504 -0.113067 -2.52247 0
M  V30 3506 C 350.817 -2.884 -0.851217 0
M  V30 3507 C 352.365 -2.98271 -0.948877 0
M  V30 3508 C 352.84 -4.43074 -1.15973 0
M  V30 3509 N 354.331 -4.46665 -1.22658 0
M  V30 3510 C 355.066 -5.55857 -1.40751 0
M  V30 3511 N 354.562 -6.75026 -1.5592 0
M  V30 3512 N 356.355 -5.43495 -1.4342 0
M  V30 3513 H 348.506 -2.06661 0.490421 0
M  V30 3514 H 350.769 -0.934812 0.157579 0
M  V30 3515 H 350.475 -3.51699 -0.00704236 0
M  V30 3516 H 350.349 -3.34225 -1.74853 0
M  V30 3517 H 352.736 -2.35102 -1.78356 0
M  V30 3518 H 352.817 -2.55785 -0.0281435 0
M  V30 3519 H 352.461 -5.06827 -0.329915 0
M  V30 3520 H 352.391 -4.83165 -2.09426 0
M  V30 3521 H 354.882 -3.60797 -1.124 0
M  V30 3522 H 355.195 -7.54004 -1.69404 0
M  V30 3523 H 353.54 -6.77944 -1.53027 0
M  V30 3524 H 356.731 -4.49349 -1.31162 0
M  V30 3525 H 356.904 -6.28649 -1.57178 0
M  V30 3526 N 350.31 0.590341 -1.46126 0
M  V30 3527 C 351.24 1.71032 -1.58966 0
M  V30 3528 C 352.221 1.64302 -0.440335 0
M  V30 3529 O 353.406 1.82436 -0.665634 0
M  V30 3530 C 350.536 3.09665 -1.57241 0
M  V30 3531 C 349.49 3.31221 -2.71066 0
M  V30 3532 C 348.816 4.70303 -2.54399 0
M  V30 3533 C 350.116 3.19796 -4.1295 0
M  V30 3534 H 351.81 1.60543 -2.52718 0
M  V30 3535 H 349.356 0.770933 -1.21625 0
M  V30 3536 H 351.309 3.87831 -1.64819 0
M  V30 3537 H 350.033 3.21036 -0.600289 0
M  V30 3538 H 348.692 2.55452 -2.62944 0
M  V30 3539 H 348.34 4.78429 -1.55288 0
M  V30 3540 H 348.04 4.85679 -3.30741 0
M  V30 3541 H 349.564 5.50647 -2.63857 0
M  V30 3542 H 350.978 3.87815 -4.22223 0
M  V30 3543 H 349.375 3.46696 -4.89818 0
M  V30 3544 H 350.445 2.16983 -4.33643 0
M  V30 3545 N 351.788 1.33704 0.83433 0
M  V30 3546 C 352.736 1.24323 1.96587 0
M  V30 3547 C 353.73 0.143659 1.6879 0
M  V30 3548 O 354.936 0.30791 1.77347 0
M  V30 3549 H 351.311 0.385925 0.645419 0
M  V30 3550 H 353.282 2.19978 2.01624 0
M  V30 3551 C 352.031 1.00394 3.32891 0
M  V30 3552 H 351.354 1.84231 3.54822 0
M  V30 3553 H 352.794 0.97862 4.12552 0
M  V30 3554 C 351.253 -0.293047 3.35623 0
M  V30 3555 O 351.783 -1.29823 3.80143 0
M  V30 3556 N 349.989 -0.322174 2.88809 0
M  V30 3557 H 349.536 0.496379 2.52772 0
M  V30 3558 H 349.494 -1.18977 2.91019 0
M  V30 3559 N 353.266 -1.05314 1.17247 0
M  V30 3560 C 354.196 -2.1498 0.911362 0
M  V30 3561 C 355.177 -1.69471 -0.146169 0
M  V30 3562 O 356.362 -1.942 0.003812 0
M  V30 3563 C 353.492 -3.4472 0.422528 0
M  V30 3564 C 352.446 -4.03789 1.4191 0
M  V30 3565 C 351.772 -5.28858 0.788274 0
M  V30 3566 C 353.072 -4.41418 2.7919 0
M  V30 3567 H 354.766 -2.3708 1.82848 0
M  V30 3568 H 352.312 -1.13938 0.880569 0
M  V30 3569 H 354.265 -4.20787 0.227289 0
M  V30 3570 H 352.989 -3.22269 -0.530123 0
M  V30 3571 H 351.648 -3.2979 1.60106 0
M  V30 3572 H 351.296 -5.02709 -0.171173 0
M  V30 3573 H 350.996 -5.69338 1.45353 0
M  V30 3574 H 352.52 -6.07612 0.603282 0
M  V30 3575 H 353.934 -5.08524 2.64719 0
M  V30 3576 H 352.331 -4.92913 3.42282 0
M  V30 3577 H 353.401 -3.51819 3.33693 0
M  V30 3578 N 354.744 -0.972509 -1.24016 0
M  V30 3579 C 355.691 -0.505969 -2.25186 0
M  V30 3580 C 356.661 0.451009 -1.5986 0
M  V30 3581 O 357.846 0.360307 -1.87367 0
M  V30 3582 C 354.986 0.193089 -3.44559 0
M  V30 3583 C 354.099 -0.803222 -4.24467 0
M  V30 3584 C 353.234 -0.0797793 -5.3114 0
M  V30 3585 C 352.273 -1.06583 -6.02749 0
M  V30 3586 N 351.41 -0.372074 -7.01113 0
M  V30 3587 H 356.25 -1.37351 -2.64459 0
M  V30 3588 H 353.787 -0.688419 -1.29997 0
M  V30 3589 H 355.745 0.615125 -4.1264 0
M  V30 3590 H 354.375 1.02455 -3.06109 0
M  V30 3591 H 353.427 -1.34368 -3.55878 0
M  V30 3592 H 354.739 -1.55494 -4.73944 0
M  V30 3593 H 353.893 0.400015 -6.0538 0
M  V30 3594 H 352.632 0.704597 -4.82583 0
M  V30 3595 H 351.637 -1.55645 -5.27309 0
M  V30 3596 H 352.862 -1.85074 -6.53395 0
M  V30 3597 H 350.808 0.393238 -6.5482 0
M  V30 3598 H 350.725 -1.06258 -7.48495 0
M  V30 3599 H 351.993 0.0855932 -7.79453 0
M  V30 3600 N 356.222 1.38976 -0.743202 0
M  V30 3601 C 357.447 2.05161 -0.303936 0
M  V30 3602 C 357.872 1.55677 1.05576 0
M  V30 3603 O 357.23 0.704131 1.67068 0
M  V30 3604 C 357.278 3.59138 -0.324373 0
M  V30 3605 O 356.382 4.06668 0.685204 0
M  V30 3606 H 355.723 0.649815 -0.136518 0
M  V30 3607 H 358.253 1.77852 -1.01142 0
M  V30 3608 H 358.263 4.07639 -0.171618 0
M  V30 3609 H 356.938 3.94515 -1.31647 0
M  V30 3610 H 355.515 3.69561 0.497913 0
M  V30 3611 N 357.7 0.491464 1.49741 0
M  V30 3612 C 358.928 -0.0535151 2.06831 0
M  V30 3613 C 359.343 -1.31683 1.35296 0
M  V30 3614 O 358.7 -1.77402 0.42836 0
M  V30 3615 C 358.751 -0.320835 3.60073 0
M  V30 3616 O 358.472 0.892394 4.28915 0
M  V30 3617 C 359.973 -0.910519 4.33848 0
M  V30 3618 H 357.193 0.0161909 0.670805 0
M  V30 3619 H 359.737 0.68609 1.92647 0
M  V30 3620 H 357.892 -1.0104 3.73991 0
M  V30 3621 H 358.306 0.649401 5.20464 0
M  V30 3622 H 359.78 -1.04721 5.41976 0
M  V30 3623 H 360.257 -1.90589 3.95692 0
M  V30 3624 H 360.863 -0.258712 4.24512 0
M  V30 3625 N 359.178 -1.55987 0.224894 0
M  V30 3626 C 360.408 -2.02489 -0.41007 0
M  V30 3627 C 360.816 -1.10391 -1.53657 0
M  V30 3628 O 360.159 -0.106458 -1.83391 0
M  V30 3629 C 360.221 -3.45319 -0.999757 0
M  V30 3630 C 359.885 -4.56999 -0.00827976 0
M  V30 3631 C 360.882 -5.13812 0.793314 0
M  V30 3632 C 358.567 -5.02176 0.111442 0
M  V30 3633 C 360.561 -6.14276 1.7013 0
M  V30 3634 C 358.248 -6.02477 1.02296 0
M  V30 3635 C 359.246 -6.58403 1.81643 0
M  V30 3636 O 358.934 -7.56751 2.71262 0
M  V30 3637 H 358.666 -0.667915 -0.104235 0
M  V30 3638 H 361.22 -2.0257 0.339782 0
M  V30 3639 H 359.45 -3.42318 -1.79876 0
M  V30 3640 H 361.139 -3.7545 -1.54248 0
M  V30 3641 H 361.905 -4.79756 0.711288 0
M  V30 3642 H 357.784 -4.58323 -0.49605 0
M  V30 3643 H 361.328 -6.57854 2.32107 0
M  V30 3644 H 357.225 -6.35954 1.10599 0
M  V30 3645 H 357.993 -7.74286 2.65375 0
M  V30 3646 N 360.656 0.0484629 -1.57525 0
M  V30 3647 C 361.933 0.777447 -1.79486 0
M  V30 3648 C 362.313 1.94597 -0.818251 0
M  V30 3649 O 361.661 2.28047 0.143767 0
M  V30 3650 C 361.871 1.22864 -3.26658 0
M  V30 3651 C 363.219 1.65251 -3.91123 0
M  V30 3652 O 364.243 1.32372 -3.3069 0
M  V30 3653 O 363.102 2.26207 -4.97486 0
M  V30 3654 H 360.196 0.374357 -0.737419 0
M  V30 3655 H 362.742 0.0267359 -1.69679 0
M  V30 3656 H 361.514 0.393589 -3.89316 0
M  V30 3657 H 361.137 2.03996 -3.41279 0
M  V30 3658 N 362.134 1.5431 0.320358 0
M  V30 3659 C 363.097 1.83195 1.3774 0
M  V30 3660 C 364.097 0.703906 1.44575 0
M  V30 3661 O 365.287 0.972214 1.44546 0
M  V30 3662 C 362.419 1.99487 2.76438 0
M  V30 3663 H 363.612 2.77642 1.1338 0
M  V30 3664 H 361.165 1.46076 0.556012 0
M  V30 3665 H 361.9 1.07262 3.06048 0
M  V30 3666 H 361.685 2.81575 2.7287 0
M  V30 3667 H 363.175 2.23271 3.52902 0
M  V30 3668 N 363.613 -0.582584 1.46437 0
M  V30 3669 C 364.523 -1.71949 1.59595 0
M  V30 3670 C 365.539 -1.67264 0.479443 0
M  V30 3671 O 366.715 -1.87171 0.743579 0
M  V30 3672 C 363.78 -3.08452 1.58298 0
M  V30 3673 C 362.841 -3.244 2.81182 0
M  V30 3674 C 362.074 -4.54391 2.79937 0
M  V30 3675 O 362.297 -5.38287 1.8869 0
M  V30 3676 O 361.231 -4.73588 3.71481 0
M  V30 3677 H 365.057 -1.63795 2.55744 0
M  V30 3678 H 362.642 -0.749643 1.29231 0
M  V30 3679 H 364.524 -3.89732 1.60271 0
M  V30 3680 H 363.199 -3.17043 0.653094 0
M  V30 3681 H 362.106 -2.42613 2.84763 0
M  V30 3682 H 363.439 -3.20699 3.7338 0
M  V30 3683 N 365.091 -1.34144 -0.827227 0
M  V30 3684 C 366.024 -1.19707 -1.94282 0
M  V30 3685 C 367.002 -0.0897256 -1.62352 0
M  V30 3686 O 368.186 -0.254095 -1.8678 0
M  V30 3687 C 365.313 -0.838646 -3.28153 0
M  V30 3688 C 364.359 -1.95514 -3.79047 0
M  V30 3689 S 365.192 -3.56793 -3.99323 0
M  V30 3690 C 366.348 -3.22983 -5.36127 0
M  V30 3691 H 366.581 -2.1414 -2.06231 0
M  V30 3692 H 364.114 -1.19121 -0.982321 0
M  V30 3693 H 366.072 -0.638637 -4.05502 0
M  V30 3694 H 364.733 0.0872776 -3.13979 0
M  V30 3695 H 363.926 -1.658 -4.75948 0
M  V30 3696 H 363.528 -2.11241 -3.08631 0
M  V30 3697 H 365.82 -2.74531 -6.19386 0
M  V30 3698 H 366.763 -4.19008 -5.70822 0
M  V30 3699 H 367.171 -2.59276 -5.01434 0
M  V30 3700 N 366.569 1.04691 -1.17803 0
M  V30 3701 C 367.499 2.14494 -0.92275 0
M  V30 3702 C 368.48 1.69546 0.137179 0
M  V30 3703 O 369.665 1.94195 -0.0141108 0
M  V30 3704 C 366.795 3.44491 -0.440803 0
M  V30 3705 C 365.749 4.03031 -1.4405 0
M  V30 3706 C 365.075 5.28432 -0.81631 0
M  V30 3707 C 366.375 4.39932 -2.81527 0
M  V30 3708 H 368.069 2.36107 -1.84103 0
M  V30 3709 H 365.615 1.1347 -0.886599 0
M  V30 3710 H 367.568 4.2066 -0.249602 0
M  V30 3711 H 366.292 3.22546 0.513025 0
M  V30 3712 H 364.951 3.28937 -1.61853 0
M  V30 3713 H 364.599 5.02792 0.144511 0
M  V30 3714 H 364.299 5.68559 -1.48371 0
M  V30 3715 H 365.823 6.07284 -0.635496 0
M  V30 3716 H 367.237 5.07113 -2.67412 0
M  V30 3717 H 365.634 4.9109 -3.44892 0
M  V30 3718 H 366.704 3.50045 -3.35554 0
M  V30 3719 N 368.047 0.979072 1.23499 0
M  V30 3720 C 369.463 0.687475 1.44034 0
M  V30 3721 C 369.663 -0.746801 1.8715 0
M  V30 3722 O 368.719 -1.51939 2.0167 0
M  V30 3723 C 370.032 1.68127 2.49307 0
M  V30 3724 C 371.58 1.69516 2.63122 0
M  V30 3725 C 372.055 2.67723 3.71603 0
M  V30 3726 N 373.546 2.66233 3.79044 0
M  V30 3727 C 374.281 3.38891 4.62537 0
M  V30 3728 N 373.777 4.21103 5.50131 0
M  V30 3729 N 375.57 3.27661 4.56721 0
M  V30 3730 H 367.721 1.90559 0.938135 0
M  V30 3731 H 369.984 0.821051 0.473897 0
M  V30 3732 H 369.69 2.70693 2.2454 0
M  V30 3733 H 369.564 1.46306 3.4767 0
M  V30 3734 H 371.951 0.676561 2.8724 0
M  V30 3735 H 372.032 1.95404 1.65079 0
M  V30 3736 H 371.676 3.69724 3.48233 0
M  V30 3737 H 371.606 2.39111 4.69184 0
M  V30 3738 H 374.097 2.06568 3.16446 0
M  V30 3739 H 374.41 4.73403 6.10827 0
M  V30 3740 H 372.755 4.25195 5.49759 0
M  V30 3741 H 375.946 2.62887 3.87309 0
M  V30 3742 H 376.119 3.84547 5.21562 0
M  V30 3743 N 369.525 -1.3858 0.750561 0
M  V30 3744 C 370.802 -1.94231 0.231009 0
M  V30 3745 C 371.182 -1.68611 -1.27018 0
M  V30 3746 O 370.53 -1.02296 -2.04323 0
M  V30 3747 C 370.74 -3.44123 0.581428 0
M  V30 3748 C 372.088 -4.2116 0.539389 0
M  V30 3749 O 373.112 -3.52391 0.519541 0
M  V30 3750 O 371.971 -5.43749 0.54765 0
M  V30 3751 H 369.065 -0.825639 0.0474263 0
M  V30 3752 H 371.611 -1.4799 0.830478 0
M  V30 3753 H 370.383 -3.56267 1.61833 0
M  V30 3754 H 370.006 -3.97573 -0.0462047 0
M  V30 3755 N 371.003 -0.499398 -1.49478 0
M  V30 3756 C 371.966 0.268838 -2.27618 0
M  V30 3757 C 372.966 0.895383 -1.33565 0
M  V30 3758 O 374.156 0.760164 -1.56739 0
M  V30 3759 C 371.288 1.38559 -3.11471 0
M  V30 3760 H 372.481 -0.416812 -2.96989 0
M  V30 3761 H 370.034 -0.254313 -1.54217 0
M  V30 3762 H 370.769 2.10544 -2.46661 0
M  V30 3763 H 370.554 0.941797 -3.80621 0
M  V30 3764 H 372.044 1.92678 -3.70493 0
M  V30 3765 N 372.481 1.55866 -0.233164 0
M  V30 3766 C 373.709 2.02998 0.399905 0
M  V30 3767 C 374.124 1.11274 1.52524 0
M  V30 3768 O 373.481 0.124528 1.82075 0
M  V30 3769 C 373.532 3.4958 0.920639 0
M  V30 3770 O 373.253 4.37808 -0.159834 0
M  V30 3771 C 374.754 4.12411 1.62578 0
M  V30 3772 H 371.974 0.664006 0.0966281 0
M  V30 3773 H 374.518 2.0143 -0.353013 0
M  V30 3774 H 372.673 3.51727 1.62379 0
M  V30 3775 H 373.087 5.23981 0.23337 0
M  V30 3776 H 374.561 5.16711 1.94201 0
M  V30 3777 H 375.038 3.5809 2.54299 0
M  V30 3778 H 375.644 4.14148 0.967553 0
M  V30 3779 N 373.959 -0.0401083 1.57549 0
M  V30 3780 C 375.375 -0.395556 1.54621 0
M  V30 3781 C 375.575 -1.77281 0.957799 0
M  V30 3782 O 374.631 -2.45888 0.574031 0
M  V30 3783 C 375.944 -0.307535 2.99123 0
M  V30 3784 C 377.492 -0.385425 3.10618 0
M  V30 3785 C 377.967 -0.326973 4.56831 0
M  V30 3786 N 379.458 -0.386102 4.61588 0
M  V30 3787 C 380.193 -0.363591 5.72246 0
M  V30 3788 N 379.689 -0.29402 6.92176 0
M  V30 3789 N 381.482 -0.412503 5.60584 0
M  V30 3790 H 373.633 0.861325 1.94152 0
M  V30 3791 H 375.896 0.326445 0.890021 0
M  V30 3792 H 375.602 0.638461 3.45856 0
M  V30 3793 H 375.476 -1.10552 3.60636 0
M  V30 3794 H 377.863 -1.32185 2.63839 0
M  V30 3795 H 377.944 0.44171 2.51957 0
M  V30 3796 H 377.588 0.605738 5.04275 0
M  V30 3797 H 377.518 -1.17207 5.13391 0
M  V30 3798 H 380.009 -0.442832 3.75296 0
M  V30 3799 H 380.322 -0.28164 7.72287 0
M  V30 3800 H 378.667 -0.260232 6.94513 0
M  V30 3801 H 381.858 -0.464769 4.65787 0
M  V30 3802 H 382.031 -0.391492 6.46816 0
M  V30 3803 N 375.437 -1.54477 -0.31217 0
M  V30 3804 C 376.685 -1.72884 -1.04668 0
M  V30 3805 C 377.006 -0.511477 -1.88173 0
M  V30 3806 O 376.276 0.474407 -1.90069 0
M  V30 3807 H 374.856 -0.637461 -0.389425 0
M  V30 3808 H 377.518 -1.91807 -0.345852 0
M  V30 3809 H 376.614 -2.61334 -1.70619 0
M  V30 3810 N 376.915 0.57481 -1.46744 0
M  V30 3811 C 378.161 1.33251 -1.53674 0
M  V30 3812 C 378.516 1.91468 -0.189125 0
M  V30 3813 O 377.809 1.73954 0.803151 0
M  V30 3814 C 378.003 2.476 -2.57738 0
M  V30 3815 C 377.832 2.00586 -4.02487 0
M  V30 3816 C 376.602 1.85237 -4.70123 0
M  V30 3817 C 378.8 1.56078 -4.90045 0
M  V30 3818 N 376.782 1.32377 -5.99458 0
M  V30 3819 C 378.153 1.14863 -6.09267 0
M  V30 3820 C 380.208 1.43968 -4.76632 0
M  V30 3821 C 378.911 0.627435 -7.16558 0
M  V30 3822 C 380.937 0.932512 -5.84002 0
M  V30 3823 C 380.299 0.53019 -7.02402 0
M  V30 3824 H 376.398 0.480284 -0.617131 0
M  V30 3825 H 378.982 0.653592 -1.83402 0
M  V30 3826 H 377.153 3.13045 -2.29907 0
M  V30 3827 H 378.885 3.14567 -2.54616 0
M  V30 3828 H 375.64 2.07423 -4.25761 0
M  V30 3829 H 376.064 1.08085 -6.68316 0
M  V30 3830 H 380.706 1.73689 -3.85476 0
M  V30 3831 H 378.424 0.317821 -8.07475 0
M  V30 3832 H 382.01 0.842611 -5.75666 0
M  V30 3833 H 380.89 0.14381 -7.84068 0
M  V30 3834 N 378.394 1.34581 0.820102 0
M  V30 3835 C 379.341 1.2639 1.93117 0
M  V30 3836 C 380.311 0.138554 1.65521 0
M  V30 3837 O 381.496 0.320004 1.88097 0
M  V30 3838 C 378.636 1.02812 3.29429 0
M  V30 3839 C 377.749 2.24146 3.693 0
M  V30 3840 C 376.884 1.93829 4.94574 0
M  V30 3841 C 375.923 3.1129 5.27034 0
M  V30 3842 N 375.06 2.80838 6.43486 0
M  V30 3843 H 379.9 2.21408 1.99455 0
M  V30 3844 H 377.437 1.10077 0.975784 0
M  V30 3845 H 379.395 0.871788 4.0799 0
M  V30 3846 H 378.025 0.114612 3.22596 0
M  V30 3847 H 377.077 2.50691 2.86109 0
M  V30 3848 H 378.389 3.11899 3.89257 0
M  V30 3849 H 377.543 1.74948 5.80929 0
M  V30 3850 H 376.282 1.03341 4.76626 0
M  V30 3851 H 375.287 3.30764 4.39175 0
M  V30 3852 H 376.512 4.02561 5.4692 0
M  V30 3853 H 374.458 1.92929 6.26988 0
M  V30 3854 H 374.375 3.62123 6.63629 0
M  V30 3855 H 375.643 2.65467 7.32903 0
M  V30 3856 N 379.872 -1.04064 1.18357 0
M  V30 3857 C 380.782 -2.15569 0.925596 0
M  V30 3858 C 381.798 -1.7365 -0.110295 0
M  V30 3859 O 382.974 -2.01273 0.0716218 0
M  V30 3860 C 380.039 -3.43704 0.454836 0
M  V30 3861 C 379.1 -4.00004 1.55869 0
M  V30 3862 C 378.333 -5.22023 1.1103 0
M  V30 3863 O 378.556 -5.70392 -0.0309756 0
M  V30 3864 O 377.49 -5.70856 1.90805 0
M  V30 3865 H 381.316 -2.40187 1.8586 0
M  V30 3866 H 378.901 -1.1402 0.965394 0
M  V30 3867 H 380.783 -4.20923 0.200382 0
M  V30 3868 H 379.458 -3.20559 -0.449876 0
M  V30 3869 H 378.365 -3.24172 1.86716 0
M  V30 3870 H 379.698 -4.2749 2.43953 0
M  V30 3871 N 381.35 -0.985608 -1.22978 0
M  V30 3872 C 382.598 -0.656087 -1.91154 0
M  V30 3873 C 382.919 0.813561 -1.77218 0
M  V30 3874 O 382.189 1.58244 -1.1548 0
M  V30 3875 H 380.769 -0.239674 -0.707506 0
M  V30 3876 H 383.431 -1.25054 -1.49491 0
M  V30 3877 H 382.527 -0.912253 -2.9847 0
M  V30 3878 N 382.828 1.3818 -0.7579 0
M  V30 3879 C 384.244 1.5353 -0.435972 0
M  V30 3880 C 384.444 1.71961 1.05032 0
M  V30 3881 O 383.5 1.73307 1.83633 0
M  V30 3882 C 384.813 2.73989 -1.23898 0
M  V30 3883 C 386.361 2.87841 -1.22949 0
M  V30 3884 C 386.836 4.11266 -2.01554 0
M  V30 3885 N 388.327 4.18352 -1.98837 0
M  V30 3886 C 389.062 5.12856 -2.5645 0
M  V30 3887 N 388.558 6.13005 -3.22794 0
M  V30 3888 N 390.351 5.05238 -2.46356 0
M  V30 3889 H 382.502 1.24467 -1.7211 0
M  V30 3890 H 384.765 0.604982 -0.729864 0
M  V30 3891 H 384.471 2.66789 -2.29165 0
M  V30 3892 H 384.345 3.67294 -0.858764 0
M  V30 3893 H 386.732 2.9452 -0.184854 0
M  V30 3894 H 386.813 1.95534 -1.64924 0
M  V30 3895 H 386.457 4.05349 -3.06031 0
M  V30 3896 H 386.387 5.02661 -1.5697 0
M  V30 3897 H 388.878 3.46628 -1.50524 0
M  V30 3898 H 389.191 6.81619 -3.64165 0
M  V30 3899 H 387.536 6.13325 -3.2689 0
M  V30 3900 H 390.727 4.25938 -1.9415 0
M  V30 3901 H 390.9 5.78707 -2.91552 0
M  V30 3902 N 384.306 0.507319 1.49211 0
M  V30 3903 C 385.554 -0.0348839 2.0207 0
M  V30 3904 C 385.875 -1.36898 1.38866 0
M  V30 3905 O 385.145 -1.88133 0.546151 0
M  V30 3906 H 383.725 -0.0158812 0.746831 0
M  V30 3907 H 386.387 0.665998 1.83168 0
M  V30 3908 H 385.483 -0.159917 3.1169 0
M  V30 3909 N 385.784 -1.5574 0.241426 0
M  V30 3910 C 387.195 -1.84842 -0.262755 0
M  V30 3911 C 387.546 -1.16317 -1.58003 0
M  V30 3912 O 386.671 -0.439653 -2.11887 0
M  V30 3913 C 387.266 -3.35332 -0.483523 0
M  V30 3914 C 385.825 -3.6468 -0.931977 0
M  V30 3915 C 384.972 -2.77299 -0.0061151 0
M  V30 3916 H 387.923 -1.51761 0.464129 0
M  V30 3917 H 387.944 -3.56615 -1.32688 0
M  V30 3918 H 387.456 -3.85178 0.47537 0
M  V30 3919 H 385.557 -3.20307 -1.90353 0
M  V30 3920 H 385.67 -4.72498 -0.792628 0
M  V30 3921 H 384.034 -2.49408 -0.516503 0
M  V30 3922 H 384.817 -3.2995 0.948052 0
M  V30 3923 N 387.262 0.0317525 -1.57568 0
M  V30 3924 C 388.192 1.03274 -2.0942 0
M  V30 3925 C 389.173 1.3788 -0.996143 0
M  V30 3926 O 390.358 1.46811 -1.27122 0
M  V30 3927 C 387.488 2.33448 -2.57137 0
M  V30 3928 C 386.442 2.13091 -3.71182 0
M  V30 3929 C 385.768 3.49001 -4.05095 0
M  V30 3930 C 387.068 1.51928 -4.99715 0
M  V30 3931 H 388.762 0.60112 -2.93303 0
M  V30 3932 H 386.308 0.287705 -1.41097 0
M  V30 3933 H 388.261 3.03802 -2.92032 0
M  V30 3934 H 386.985 2.78665 -1.70333 0
M  V30 3935 H 385.644 1.45171 -3.36632 0
M  V30 3936 H 385.292 3.91862 -3.15362 0
M  V30 3937 H 384.992 3.36207 -4.81911 0
M  V30 3938 H 386.516 4.20721 -4.42522 0
M  V30 3939 H 387.93 2.12196 -5.32584 0
M  V30 3940 H 386.327 1.49716 -5.81124 0
M  V30 3941 H 387.397 0.484811 -4.8247 0
M  V30 3942 N 388.74 1.54641 0.303973 0
M  V30 3943 C 390.017 1.64455 1.05896 0
M  V30 3944 C 390.397 0.490923 2.05312 0
M  V30 3945 O 389.745 -0.512685 2.22674 0
M  V30 3946 C 389.955 3.02331 1.74347 0
M  V30 3947 C 391.303 3.59045 2.26653 0
M  V30 3948 O 392.327 3.04764 1.84384 0
M  V30 3949 O 391.186 4.54081 3.04093 0
M  V30 3950 H 388.28 0.666729 0.489287 0
M  V30 3951 H 390.826 1.66986 0.302298 0
M  V30 3952 H 389.598 3.77734 1.02142 0
M  V30 3953 H 389.221 3.03565 2.56777 0
M  V30 3954 N 390.218 -0.567019 1.47046 0
M  V30 3955 C 391.465 -1.32462 1.53167 0
M  V30 3956 C 391.793 -1.93571 0.189841 0
M  V30 3957 O 391.048 -1.77865 -0.816243 0
M  V30 3958 C 391.347 -2.4623 2.59047 0
M  V30 3959 C 391.013 -2.03014 4.02612 0
M  V30 3960 C 389.675 -1.90944 4.41694 0
M  V30 3961 C 392.027 -1.69895 4.92732 0
M  V30 3962 C 389.355 -1.44035 5.68745 0
M  V30 3963 C 391.707 -1.2446 6.20236 0
M  V30 3964 C 390.371 -1.10979 6.5821 0
M  V30 3965 H 389.641 -0.484713 0.560477 0
M  V30 3966 H 392.288 -0.636888 1.80599 0
M  V30 3967 H 390.593 -3.20517 2.25335 0
M  V30 3968 H 392.29 -3.04427 2.61008 0
M  V30 3969 H 388.88 -2.13348 3.71726 0
M  V30 3970 H 393.064 -1.78098 4.63244 0
M  V30 3971 H 388.32 -1.32254 5.96925 0
M  V30 3972 H 392.494 -0.978924 6.89485 0
M  V30 3973 H 390.121 -0.744078 7.5655 0
M  V30 3974 N 391.696 -1.35014 -0.812953 0
M  V30 3975 C 392.921 -1.31187 -1.60639 0
M  V30 3976 C 393.346 0.109382 -1.87782 0
M  V30 3977 O 392.704 1.07424 -1.46047 0
M  V30 3978 C 392.752 -2.11809 -2.91838 0
M  V30 3979 O 391.856 -1.49444 -3.8437 0
M  V30 3980 H 391.197 -0.450084 -0.488181 0
M  V30 3981 H 393.727 -1.77963 -1.00947 0
M  V30 3982 H 393.737 -2.23531 -3.41318 0
M  V30 3983 H 392.412 -3.15137 -2.71407 0
M  V30 3984 H 390.989 -1.46524 -3.42907 0
M  V30 3985 N 393.175 1.03435 -1.18907 0
M  V30 3986 C 394.122 2.11591 -0.921837 0
M  V30 3987 C 395.092 1.65499 0.141226 0
M  V30 3988 O 396.277 1.908 0.000242829 0
M  V30 3989 C 393.417 3.42012 -0.460616 0
M  V30 3990 C 392.53 4.01682 -1.58982 0
M  V30 3991 C 391.665 5.20091 -1.08069 0
M  V30 3992 C 390.704 5.71805 -2.18416 0
M  V30 3993 N 389.841 6.81494 -1.68849 0
M  V30 3994 H 394.681 2.33787 -1.8479 0
M  V30 3995 H 392.218 1.1467 -0.921373 0
M  V30 3996 H 394.176 4.16834 -0.174642 0
M  V30 3997 H 392.806 3.19944 0.428467 0
M  V30 3998 H 391.858 3.24127 -1.99113 0
M  V30 3999 H 393.17 4.36084 -2.4214 0
M  V30 4000 H 392.324 6.02051 -0.749615 0
M  V30 4001 H 391.063 4.87209 -0.218771 0
M  V30 4002 H 390.068 4.88461 -2.5236 0
M  V30 4003 H 391.293 6.06728 -3.05054 0
M  V30 4004 H 389.239 6.50475 -0.849572 0
M  V30 4005 H 389.156 7.14994 -2.45601 0
M  V30 4006 H 390.424 7.67063 -1.38689 0
M  V30 4007 N 394.653 0.992116 1.22453 0
M  V30 4008 C 395.93 0.583508 1.86694 0
M  V30 4009 C 396.31 -0.9392 1.89056 0
M  V30 4010 O 395.658 -1.82081 1.38053 0
M  V30 4011 C 395.868 1.20304 3.2761 0
M  V30 4012 C 397.216 1.30308 4.0411 0
M  V30 4013 O 398.24 1.15737 3.36873 0
M  V30 4014 O 397.099 1.53615 5.24466 0
M  V30 4015 H 394.193 0.198129 0.802916 0
M  V30 4016 H 396.739 1.08794 1.30238 0
M  V30 4017 H 395.511 2.24461 3.2052 0
M  V30 4018 H 395.134 0.684144 3.9167 0
M  V30 4019 N 396.131 -1.37776 0.765217 0
M  V30 4020 C 397.359 -2.04124 0.337767 0
M  V30 4021 C 397.774 -1.57715 -1.03785 0
M  V30 4022 O 397.131 -0.755447 -1.6613 0
M  V30 4023 C 397.182 -3.59658 0.364442 0
M  V30 4024 O 396.903 -4.04367 1.68579 0
M  V30 4025 C 398.404 -4.43236 -0.0754221 0
M  V30 4026 H 395.624 -0.655696 0.142491 0
M  V30 4027 H 398.168 -1.76238 1.03732 0
M  V30 4028 H 396.323 -3.86339 -0.286471 0
M  V30 4029 H 396.737 -4.98857 1.61993 0
M  V30 4030 H 398.211 -5.52 -0.00560067 0
M  V30 4031 H 398.688 -4.2455 -1.12491 0
M  V30 4032 H 399.294 -4.21767 0.547055 0
M  V30 4033 N 397.609 -0.515225 -1.4894 0
M  V30 4034 C 398.834 0.022727 -2.07388 0
M  V30 4035 C 399.259 1.2876 -1.37122 0
M  V30 4036 O 398.617 1.76067 -0.432431 0
M  V30 4037 C 398.665 0.244869 -3.59768 0
M  V30 4038 O 397.769 1.31667 -3.90817 0
M  V30 4039 H 397.11 -0.0325506 -0.663202 0
M  V30 4040 H 399.64 -0.718918 -1.91553 0
M  V30 4041 H 399.65 0.47205 -4.0526 0
M  V30 4042 H 398.325 -0.679194 -4.10317 0
M  V30 4043 H 396.902 1.07331 -3.5712 0
M  V30 4044 N 399.087 1.5561 -0.249682 0
M  V30 4045 C 400.335 1.98618 0.373548 0
M  V30 4046 C 400.656 1.13919 1.58264 0
M  V30 4047 O 399.926 0.222637 1.94631 0
M  V30 4048 H 398.506 0.733571 0.141006 0
M  V30 4049 H 401.168 1.91748 -0.349117 0
M  V30 4050 H 400.264 3.04584 0.680796 0
M  V30 4051 N 400.565 -0.0233959 1.57583 0
M  V30 4052 C 401.512 -1.02224 2.06927 0
M  V30 4053 C 402.482 -1.35575 0.959617 0
M  V30 4054 O 403.667 -1.45815 1.23055 0
M  V30 4055 C 400.807 -2.31636 2.5581 0
M  V30 4056 C 399.92 -2.04394 3.80588 0
M  V30 4057 C 399.055 -3.27717 4.18061 0
M  V30 4058 C 398.094 -2.96056 5.3574 0
M  V30 4059 N 397.231 -4.11847 5.68618 0
M  V30 4060 H 402.071 -0.594504 2.9201 0
M  V30 4061 H 399.608 -0.281921 1.44373 0
M  V30 4062 H 401.566 -3.07258 2.82221 0
M  V30 4063 H 400.196 -2.72122 1.73636 0
M  V30 4064 H 399.248 -1.19244 3.61227 0
M  V30 4065 H 400.56 -1.77042 4.66323 0
M  V30 4066 H 399.714 -4.11702 4.4563 0
M  V30 4067 H 398.453 -3.58188 3.30988 0
M  V30 4068 H 397.458 -2.10474 5.07918 0
M  V30 4069 H 398.683 -2.66857 6.24471 0
M  V30 4070 H 396.629 -4.42258 4.84504 0
M  V30 4071 H 396.546 -3.87938 6.48876 0
M  V30 4072 H 397.814 -4.96689 6.00766 0
M  V30 4073 N 402.043 -1.548 -0.295768 0
M  V30 4074 C 403.454 -1.65274 -0.868411 0
M  V30 4075 C 403.805 -0.56481 -1.87894 0
M  V30 4076 O 402.93 0.29767 -2.14343 0
M  V30 4077 C 403.525 -2.99603 -1.58188 0
M  V30 4078 C 402.084 -3.12181 -2.10286 0
M  V30 4079 C 401.231 -2.6098 -0.93727 0
M  V30 4080 H 404.182 -1.58534 -0.0726422 0
M  V30 4081 H 404.203 -2.91319 -2.44772 0
M  V30 4082 H 403.715 -3.78764 -0.846151 0
M  V30 4083 H 401.816 -2.3775 -2.8689 0
M  V30 4084 H 401.929 -4.18415 -2.33379 0
M  V30 4085 H 400.293 -2.17564 -1.32431 0
M  V30 4086 H 401.076 -3.42623 -0.215414 0
M  V30 4087 N 403.521 0.559213 -1.47345 0
M  V30 4088 C 404.767 1.31843 -1.54095 0
M  V30 4089 C 405.1 1.93149 -0.201726 0
M  V30 4090 O 404.375 1.77759 0.789428 0
M  V30 4091 C 404.658 2.43006 -2.65744 0
M  V30 4092 C 404.511 1.86581 -4.09277 0
M  V30 4093 C 405.83 3.44943 -2.73318 0
M  V30 4094 H 402.949 0.478012 -0.560957 0
M  V30 4095 H 405.591 0.625977 -1.79392 0
M  V30 4096 H 403.741 3.02072 -2.44305 0
M  V30 4097 H 405.413 1.31792 -4.42073 0
M  V30 4098 H 403.656 1.17268 -4.17649 0
M  V30 4099 H 404.327 2.66933 -4.83168 0
M  V30 4100 H 406.803 2.95793 -2.92653 0
M  V30 4101 H 405.679 4.20153 -3.53218 0
M  V30 4102 H 405.94 4.03665 -1.80296 0
M  V30 4103 N 404.999 1.35443 0.805782 0
M  V30 4104 C 405.962 1.28301 1.89925 0
M  V30 4105 C 406.962 0.194285 1.59622 0
M  V30 4106 O 408.152 0.448036 1.6834 0
M  V30 4107 C 405.284 0.984997 3.2636 0
M  V30 4108 H 406.477 2.2553 1.97677 0
M  V30 4109 H 404.03 1.19979 1.00173 0
M  V30 4110 H 404.765 0.016603 3.24296 0
M  V30 4111 H 404.55 1.77269 3.4974 0
M  V30 4112 H 406.04 0.960651 4.064 0
M  V30 4113 N 406.477 -1.02803 1.19454 0
M  V30 4114 C 407.893 -1.28473 0.946937 0
M  V30 4115 C 408.093 -1.97881 -0.380202 0
M  V30 4116 O 407.149 -2.26719 -1.11151 0
M  V30 4117 C 408.462 -2.13099 2.12154 0
M  V30 4118 C 410.01 -2.26404 2.16126 0
M  V30 4119 C 410.485 -3.14402 3.33039 0
M  V30 4120 N 411.976 -3.21991 3.32981 0
M  V30 4121 C 412.711 -3.90272 4.20089 0
M  V30 4122 N 412.207 -4.60777 5.17355 0
M  V30 4123 N 414 -3.8668 4.07964 0
M  V30 4124 H 406.151 -0.561665 2.04839 0
M  V30 4125 H 408.414 -0.310438 0.89573 0
M  V30 4126 H 408.12 -1.69422 3.08203 0
M  V30 4127 H 407.994 -3.13813 2.09287 0
M  V30 4128 H 410.381 -2.69311 1.20647 0
M  V30 4129 H 410.462 -1.25237 2.23045 0
M  V30 4130 H 410.106 -2.72204 4.28798 0
M  V30 4131 H 410.036 -4.1563 3.23356 0
M  V30 4132 H 412.527 -2.71778 2.62574 0
M  V30 4133 H 412.84 -5.10513 5.80169 0
M  V30 4134 H 411.185 -4.5964 5.21302 0
M  V30 4135 H 414.376 -3.30739 3.31254 0
M  V30 4136 H 414.549 -4.39621 4.76064 0
M  V30 4137 N 407.956 -0.998596 -1.21925 0
M  V30 4138 C 409.181 -0.696015 -1.95372 0
M  V30 4139 C 409.606 0.733826 -1.73195 0
M  V30 4140 O 408.964 1.50242 -1.01474 0
M  V30 4141 C 409.012 -1.01466 -3.4603 0
M  V30 4142 O 408.116 -0.116415 -4.12236 0
M  V30 4143 H 407.457 -0.259938 -0.611006 0
M  V30 4144 H 409.987 -1.33711 -1.54863 0
M  V30 4145 H 409.997 -0.958855 -3.96573 0
M  V30 4146 H 408.672 -2.05653 -3.61497 0
M  V30 4147 H 407.249 -0.228193 -3.72201 0
M  V30 4148 N 409.434 1.37368 -0.772513 0
M  V30 4149 C 410.381 2.30262 -0.157488 0
M  V30 4150 C 411.351 1.51137 0.688965 0
M  V30 4151 O 412.536 1.79704 0.641168 0
M  V30 4152 C 409.676 3.37611 0.715045 0
M  V30 4153 C 408.789 4.31746 -0.148098 0
M  V30 4154 C 407.924 5.26171 0.729213 0
M  V30 4155 C 406.963 6.11948 -0.136418 0
M  V30 4156 N 406.1 6.98613 0.698914 0
M  V30 4157 H 410.94 2.82277 -0.955179 0
M  V30 4158 H 408.477 1.38957 -0.482631 0
M  V30 4159 H 410.435 3.98479 1.23575 0
M  V30 4160 H 409.065 2.86959 1.47833 0
M  V30 4161 H 408.117 3.72178 -0.786613 0
M  V30 4162 H 409.429 4.92084 -0.81579 0
M  V30 4163 H 408.583 5.92247 1.31637 0
M  V30 4164 H 407.322 4.66246 1.43059 0
M  V30 4165 H 406.327 5.4485 -0.736102 0
M  V30 4166 H 407.552 6.73945 -0.835134 0
M  V30 4167 H 405.498 6.41215 1.38489 0
M  V30 4168 H 405.415 7.55948 0.0885358 0
M  V30 4169 H 406.683 7.69077 1.27044 0
M  V30 4170 N 410.912 0.523116 1.48665 0
M  V30 4171 C 412.14 -0.0096312 2.06898 0
M  V30 4172 C 412.555 -1.28784 1.38059 0
M  V30 4173 O 411.912 -1.76453 0.465893 0
M  V30 4174 C 411.963 -0.244386 3.60673 0
M  V30 4175 O 411.684 0.983172 4.26925 0
M  V30 4176 C 413.185 -0.818289 4.35682 0
M  V30 4177 H 410.405 0.0304161 0.67031 0
M  V30 4178 H 412.949 0.726799 1.91149 0
M  V30 4179 H 411.104 -0.930847 3.76051 0
M  V30 4180 H 411.518 0.759653 5.1897 0
M  V30 4181 H 412.992 -0.93201 5.44075 0
M  V30 4182 H 413.469 -1.82153 3.99646 0
M  V30 4183 H 414.075 -0.168609 4.24966 0
M  V30 4184 N 412.39 -1.55475 0.257931 0
M  V30 4185 C 413.323 -2.179 -0.677862 0
M  V30 4186 C 414.301 -1.13448 -1.16483 0
M  V30 4187 O 415.485 -1.41889 -1.24095 0
M  V30 4188 C 412.612 -2.78851 -1.92249 0
M  V30 4189 C 411.658 -3.96454 -1.57246 0
M  V30 4190 S 412.491 -5.31349 -0.665501 0
M  V30 4191 C 413.647 -5.9576 -1.91889 0
M  V30 4192 H 413.88 -2.96934 -0.147396 0
M  V30 4193 H 411.413 -1.54342 0.0423023 0
M  V30 4194 H 413.371 -3.14602 -2.63697 0
M  V30 4195 H 412.032 -1.99742 -2.42409 0
M  V30 4196 H 411.225 -4.37731 -2.49814 0
M  V30 4197 H 410.827 -3.62038 -0.938325 0
M  V30 4198 H 413.119 -6.13947 -2.86487 0
M  V30 4199 H 414.062 -6.9094 -1.54942 0
M  V30 4200 H 414.47 -5.2494 -2.076 0
M  V30 4201 N 413.868 0.0150385 -1.57593 0
M  V30 4202 C 415.279 0.559832 -1.78109 0
M  V30 4203 C 415.63 1.74814 -0.890756 0
M  V30 4204 O 414.755 2.16216 -0.0892482 0
M  V30 4205 C 415.35 1.02238 -3.23006 0
M  V30 4206 C 413.909 1.51258 -3.44671 0
M  V30 4207 C 413.056 0.456955 -2.73509 0
M  V30 4208 H 416.007 -0.211169 -1.57289 0
M  V30 4209 H 416.028 1.88912 -3.30292 0
M  V30 4210 H 415.54 0.157302 -3.87781 0
M  V30 4211 H 413.641 2.39905 -2.8509 0
M  V30 4212 H 413.754 1.55042 -4.5332 0
M  V30 4213 H 412.118 0.915196 -2.37689 0
M  V30 4214 H 412.901 -0.398896 -3.40975 0
M  V30 4215 N 415.346 1.54954 0.287554 0
M  V30 4216 C 416.757 1.65732 0.859634 0
M  V30 4217 C 417.108 0.574767 1.87592 0
M  V30 4218 O 416.233 -0.286299 2.14498 0
M  V30 4219 C 416.828 3.00438 1.56597 0
M  V30 4220 C 415.387 3.13292 2.08627 0
M  V30 4221 C 414.534 2.61473 0.923416 0
M  V30 4222 H 417.485 1.5857 0.0642338 0
M  V30 4223 H 417.506 2.92613 2.43224 0
M  V30 4224 H 417.018 3.79207 0.826053 0
M  V30 4225 H 415.119 2.39268 2.85625 0
M  V30 4226 H 415.232 4.19647 2.31157 0
M  V30 4227 H 413.596 2.18264 1.31275 0
M  V30 4228 H 414.379 3.42733 0.197241 0
M  V30 4229 N 416.824 -0.551391 1.4764 0
M  V30 4230 C 417.756 -1.67333 1.56628 0
M  V30 4231 C 418.769 -1.56398 0.452045 0
M  V30 4232 O 419.958 -1.6325 0.721926 0
M  V30 4233 C 417.058 -3.05841 1.45994 0
M  V30 4234 C 416.231 -3.42472 2.72088 0
M  V30 4235 C 415.29 -4.60168 2.55209 0
M  V30 4236 O 414.316 -4.64458 3.2904 0
M  V30 4237 N 415.518 -5.57024 1.63416 0
M  V30 4238 H 418.283 -1.60066 2.53375 0
M  V30 4239 H 415.844 -0.738169 1.44093 0
M  V30 4240 H 417.836 -3.8242 1.32428 0
M  V30 4241 H 416.406 -3.07302 0.573071 0
M  V30 4242 H 415.626 -2.55284 3.00373 0
M  V30 4243 H 416.914 -3.63723 3.55785 0
M  V30 4244 H 416.312 -5.56319 1.02594 0
M  V30 4245 H 414.869 -6.32906 1.558 0
M  V30 4246 N 418.302 -1.35869 -0.798587 0
M  V30 4247 C 419.548 -1.2978 -1.55836 0
M  V30 4248 C 419.881 0.125322 -1.93795 0
M  V30 4249 O 419.156 1.07658 -1.61987 0
M  V30 4250 C 419.439 -2.21188 -2.84162 0
M  V30 4251 C 419.292 -3.72155 -2.52628 0
M  V30 4252 C 420.611 -2.11545 -3.85923 0
M  V30 4253 H 417.73 -0.472769 -0.565383 0
M  V30 4254 H 420.372 -1.66341 -0.918192 0
M  V30 4255 H 418.522 -1.90139 -3.38791 0
M  V30 4256 H 420.194 -4.13682 -2.04121 0
M  V30 4257 H 418.437 -3.92042 -1.85704 0
M  V30 4258 H 419.108 -4.31511 -3.44242 0
M  V30 4259 H 421.584 -2.38855 -3.40716 0
M  V30 4260 H 420.46 -2.77688 -4.73477 0
M  V30 4261 H 420.721 -1.09987 -4.282 0
M  V30 4262 N 419.78 1.02168 -1.19998 0
M  V30 4263 C 421.191 1.57135 -1.00825 0
M  V30 4264 C 421.542 1.91276 0.436818 0
M  V30 4265 O 420.667 1.71679 1.3174 0
M  V30 4266 C 421.262 2.85514 -1.82393 0
M  V30 4267 C 419.821 3.37027 -1.67601 0
M  V30 4268 C 418.968 2.10388 -1.80644 0
M  V30 4269 H 421.919 0.846106 -1.34264 0
M  V30 4270 H 421.94 3.56711 -1.32429 0
M  V30 4271 H 421.452 2.60634 -2.87561 0
M  V30 4272 H 419.553 3.66878 -0.650485 0
M  V30 4273 H 419.666 4.09572 -2.4857 0
M  V30 4274 H 418.03 2.22601 -1.23778 0
M  V30 4275 H 418.813 1.8794 -2.87286 0
M  V30 4276 N 421.258 1.00505 1.21394 0
M  V30 4277 C 422.669 0.721082 1.72213 0
M  V30 4278 C 423.02 -0.761263 1.80829 0
M  V30 4279 O 422.145 -1.59464 1.46288 0
M  V30 4280 C 422.74 1.30228 3.12772 0
M  V30 4281 C 421.299 1.06743 3.60947 0
M  V30 4282 C 420.446 1.41507 2.38477 0
M  V30 4283 H 423.397 1.17594 1.06571 0
M  V30 4284 H 423.418 0.686955 3.74247 0
M  V30 4285 H 422.93 2.38115 3.06468 0
M  V30 4286 H 421.031 0.00572162 3.726 0
M  V30 4287 H 421.144 1.73936 4.46411 0
M  V30 4288 H 419.508 0.833852 2.40664 0
M  V30 4289 H 420.291 2.50424 2.34824 0
M  V30 4290 N 422.737 -1.36956 0.779787 0
M  V30 4291 C 424.153 -1.52817 0.460342 0
M  V30 4292 C 424.353 -1.7361 -1.02283 0
M  V30 4293 O 423.409 -1.76207 -1.80852 0
M  V30 4294 C 424.722 -2.71983 1.28241 0
M  V30 4295 C 426.27 -2.85849 1.27512 0
M  V30 4296 C 426.745 -4.08008 2.08072 0
M  V30 4297 N 428.236 -4.15135 2.05467 0
M  V30 4298 C 428.971 -5.08711 2.64577 0
M  V30 4299 N 428.467 -6.07792 3.32506 0
M  V30 4300 N 430.26 -5.01254 2.54363 0
M  V30 4301 H 422.411 -1.21713 1.74068 0
M  V30 4302 H 424.674 -0.593294 0.739396 0
M  V30 4303 H 424.38 -2.63109 2.33381 0
M  V30 4304 H 424.254 -3.65882 0.917088 0
M  V30 4305 H 426.641 -2.94189 0.231686 0
M  V30 4306 H 426.722 -1.92886 1.68014 0
M  V30 4307 H 426.366 -4.00429 3.12441 0
M  V30 4308 H 426.296 -5.001 1.64947 0
M  V30 4309 H 428.787 -3.44189 1.5602 0
M  V30 4310 H 429.1 -6.75739 3.74963 0
M  V30 4311 H 427.445 -6.08047 3.36606 0
M  V30 4312 H 430.636 -4.22795 2.00902 0
M  V30 4313 H 430.809 -5.73995 3.00722 0
M  V30 4314 N 424.215 -0.530993 -1.48385 0
M  V30 4315 C 425.443 -0.00134122 -2.069 0
M  V30 4316 C 425.858 1.2805 -1.3874 0
M  V30 4317 O 425.215 1.76204 -0.475244 0
M  V30 4318 C 425.266 0.225256 -3.60798 0
M  V30 4319 O 424.987 -1.0058 -4.26398 0
M  V30 4320 C 426.488 0.795172 -4.3611 0
M  V30 4321 H 423.708 -0.0339704 -0.67014 0
M  V30 4322 H 426.252 -0.736926 -1.90761 0
M  V30 4323 H 424.407 0.910891 -3.76539 0
M  V30 4324 H 424.821 -0.787165 -5.1856 0
M  V30 4325 H 426.295 0.903143 -5.44562 0
M  V30 4326 H 426.772 1.80031 -4.00606 0
M  V30 4327 H 427.378 0.146069 -4.25049 0
M  V30 4328 N 425.693 1.55336 -0.266172 0
M  V30 4329 C 426.923 2.03506 0.356239 0
M  V30 4330 C 427.331 1.14426 1.50676 0
M  V30 4331 O 426.674 0.155043 1.83045 0
M  V30 4332 C 426.736 3.47848 0.90785 0
M  V30 4333 C 426.4 4.56861 -0.112888 0
M  V30 4334 C 427.397 5.11528 -0.929264 0
M  V30 4335 C 425.082 5.01704 -0.244546 0
M  V30 4336 C 427.076 6.09549 -1.86357 0
M  V30 4337 C 424.763 5.99553 -1.18234 0
M  V30 4338 C 425.761 6.53356 -1.99036 0
M  V30 4339 O 425.449 7.49293 -2.91231 0
M  V30 4340 H 425.181 0.670444 0.08649 0
M  V30 4341 H 427.735 2.01598 -0.39337 0
M  V30 4342 H 425.965 3.46967 1.70737 0
M  V30 4343 H 427.654 3.79407 1.44239 0
M  V30 4344 H 428.42 4.77701 -0.838237 0
M  V30 4345 H 424.299 4.59477 0.374359 0
M  V30 4346 H 427.843 6.51469 -2.49467 0
M  V30 4347 H 423.74 6.32799 -1.27421 0
M  V30 4348 H 424.508 7.66978 -2.8581 0
M  V30 4349 N 427.171 -0.0066808 1.57599 0
M  V30 4350 C 428.134 -0.985035 2.06953 0
M  V30 4351 C 429.134 -1.27663 0.977687 0
M  V30 4352 O 430.324 -1.22293 1.24057 0
M  V30 4353 C 427.456 -2.3118 2.50536 0
M  V30 4354 H 428.649 -0.558255 2.94658 0
M  V30 4355 H 426.202 -0.254011 1.54222 0
M  V30 4356 H 426.937 -2.78561 1.66054 0
M  V30 4357 H 426.722 -2.11338 3.3027 0
M  V30 4358 H 428.212 -3.01377 2.8907 0
M  V30 4359 N 428.649 -1.55105 -0.279332 0
M  V30 4360 C 429.874 -1.7976 -1.03446 0
M  V30 4361 C 430.299 -0.565952 -1.79384 0
M  V30 4362 O 429.657 0.484259 -1.74713 0
M  V30 4363 C 429.705 -3.0179 -1.97371 0
M  V30 4364 O 428.809 -2.76432 -3.06038 0
M  V30 4365 H 428.15 -0.594334 -0.29608 0
M  V30 4366 H 430.68 -2.02235 -0.310165 0
M  V30 4367 H 430.69 -3.30351 -2.39441 0
M  V30 4368 H 429.365 -3.91085 -1.4151 0
M  V30 4369 H 427.942 -2.58949 -2.68328 0
M  V30 4370 N 430.127 0.543554 -1.4793 0
M  V30 4371 C 431.543 0.870806 -1.3375 0
M  V30 4372 C 431.743 1.9864 -0.338261 0
M  V30 4373 O 430.799 2.51305 0.245371 0
M  V30 4374 C 432.112 1.25114 -2.73435 0
M  V30 4375 C 433.66 1.3618 -2.81823 0
M  V30 4376 C 434.135 1.77563 -4.22179 0
M  V30 4377 N 435.626 1.8469 -4.24787 0
M  V30 4378 C 436.361 2.18067 -5.30315 0
M  V30 4379 N 435.857 2.49963 -6.46135 0
M  V30 4380 N 437.65 2.18958 -5.17701 0
M  V30 4381 H 429.801 -0.19275 -2.11524 0
M  V30 4382 H 432.064 -0.0235777 -0.947707 0
M  V30 4383 H 431.77 0.50514 -3.48053 0
M  V30 4384 H 431.644 2.20431 -3.06088 0
M  V30 4385 H 434.031 2.09859 -2.07468 0
M  V30 4386 H 434.112 0.390169 -2.52807 0
M  V30 4387 H 433.756 1.04449 -4.97044 0
M  V30 4388 H 433.686 2.75753 -4.48629 0
M  V30 4389 H 436.177 1.62372 -3.41239 0
M  V30 4390 H 436.49 2.74497 -7.22406 0
M  V30 4391 H 434.835 2.47513 -6.49432 0
M  V30 4392 H 438.026 1.93488 -4.2624 0
M  V30 4393 H 438.199 2.44639 -6.00047 0
M  V30 4394 N 431.605 1.3629 0.791371 0
M  V30 4395 C 432.835 1.33368 1.57786 0
M  V30 4396 C 433.243 -0.0875188 1.88997 0
M  V30 4397 O 432.586 -1.05427 1.50435 0
M  V30 4398 C 432.648 2.08802 2.92646 0
M  V30 4399 C 432.312 3.57903 2.84174 0
M  V30 4400 C 433.309 4.52191 2.56553 0
M  V30 4401 C 430.994 4.00762 3.02812 0
M  V30 4402 C 432.988 5.87315 2.47669 0
M  V30 4403 C 430.675 5.35977 2.93551 0
M  V30 4404 C 431.673 6.29066 2.66017 0
M  V30 4405 O 431.361 7.61798 2.56746 0
M  V30 4406 H 431.093 0.459166 0.496128 0
M  V30 4407 H 433.647 1.79952 0.990269 0
M  V30 4408 H 431.877 1.56878 3.53449 0
M  V30 4409 H 433.566 1.98762 3.53904 0
M  V30 4410 H 434.332 4.20393 2.41858 0
M  V30 4411 H 430.211 3.2868 3.2325 0
M  V30 4412 H 433.755 6.59943 2.26099 0
M  V30 4413 H 429.652 5.67384 3.07808 0
M  V30 4414 H 430.42 7.71898 2.72242 0
M  V30 4415 N 433.083 -1.0153 1.20538 0
M  V30 4416 C 434.331 -1.74803 1.01432 0
M  V30 4417 C 434.652 -1.8963 -0.454456 0
M  V30 4418 O 433.922 -1.43975 -1.32846 0
M  V30 4419 H 432.502 -0.647598 0.372324 0
M  V30 4420 H 435.164 -1.22402 1.5167 0
M  V30 4421 H 434.26 -2.75114 1.47373 0
M  V30 4422 N 434.561 -1.01147 -1.20859 0
M  V30 4423 C 435.509 -0.57059 -2.25493 0
M  V30 4424 C 436.503 0.388109 -1.64894 0
M  V30 4425 O 437.709 0.258592 -1.78133 0
M  V30 4426 H 434.084 -0.166191 -0.733406 0
M  V30 4427 H 436.055 -1.46411 -2.60012 0
M  V30 4428 C 434.804 0.0805241 -3.47607 0
M  V30 4429 H 434.127 -0.648156 -3.94511 0
M  V30 4430 H 435.567 0.352197 -4.22535 0
M  V30 4431 C 434.026 1.32175 -3.09889 0
M  V30 4432 O 434.556 2.41553 -3.20959 0
M  V30 4433 N 432.762 1.20392 -2.64488 0
M  V30 4434 H 432.309 0.313905 -2.5568 0
M  V30 4435 H 432.267 2.03541 -2.39621 0
M  V30 4436 N 436.039 1.36541 -0.78704 0
M  V30 4437 C 437.455 1.52571 -0.46844 0
M  V30 4438 C 437.655 1.7415 1.01361 0
M  V30 4439 O 436.711 1.77163 1.79915 0
M  V30 4440 C 438.024 2.71299 -1.29682 0
M  V30 4441 C 439.572 2.85169 -1.29027 0
M  V30 4442 C 440.047 4.06898 -2.10233 0
M  V30 4443 N 441.538 4.1404 -2.07666 0
M  V30 4444 C 442.273 5.07301 -2.67271 0
M  V30 4445 N 441.769 6.06021 -3.35724 0
M  V30 4446 N 443.562 4.99898 -2.57018 0
M  V30 4447 H 435.713 1.20788 -1.74711 0
M  V30 4448 H 437.976 0.589364 -0.742532 0
M  V30 4449 H 437.682 2.61868 -2.34773 0
M  V30 4450 H 437.556 3.6539 -0.936479 0
M  V30 4451 H 439.943 2.94062 -0.247284 0
M  V30 4452 H 440.024 1.91992 -1.69035 0
M  V30 4453 H 439.668 3.98766 -3.1456 0
M  V30 4454 H 439.598 4.99218 -1.67597 0
M  V30 4455 H 442.089 3.43357 -1.57843 0
M  V30 4456 H 442.402 6.73741 -3.78541 0
M  V30 4457 H 440.747 6.06253 -3.39826 0
M  V30 4458 H 443.938 4.21724 -2.03142 0
M  V30 4459 H 444.111 5.72392 -3.03761 0
M  V30 4460 N 437.518 0.538854 1.48102 0
M  V30 4461 C 438.465 -0.219042 2.29758 0
M  V30 4462 C 439.435 -0.925562 1.37922 0
M  V30 4463 O 440.62 -0.924855 1.66886 0
M  V30 4464 C 437.76 -1.25452 3.2149 0
M  V30 4465 C 436.873 -0.555943 4.28408 0
M  V30 4466 C 436.008 -1.57512 5.0731 0
M  V30 4467 C 435.047 -0.860498 6.06021 0
M  V30 4468 N 434.184 -1.82564 6.77949 0
M  V30 4469 H 439.024 0.483449 2.94052 0
M  V30 4470 H 436.561 0.250247 1.44956 0
M  V30 4471 H 438.519 -1.86727 3.7308 0
M  V30 4472 H 437.149 -1.92528 2.591 0
M  V30 4473 H 436.201 0.170938 3.80016 0
M  V30 4474 H 437.513 0.00474616 4.988 0
M  V30 4475 H 436.667 -2.26191 5.62959 0
M  V30 4476 H 435.406 -2.16972 4.36778 0
M  V30 4477 H 434.411 -0.159686 5.49568 0
M  V30 4478 H 435.636 -0.271897 6.78555 0
M  V30 4479 H 433.582 -2.40915 6.10161 0
M  V30 4480 H 433.499 -1.31662 7.44447 0
M  V30 4481 H 434.767 -2.50414 7.38182 0
M  V30 4482 N 438.996 -1.55193 0.274407 0
M  V30 4483 C 439.944 -2.23924 -0.629362 0
M  V30 4484 C 440.938 -1.23602 -1.1584 0
M  V30 4485 O 442.144 -1.41535 -1.11211 0
M  V30 4486 H 438.519 -0.718637 -0.221507 0
M  V30 4487 H 440.49 -2.98388 -0.0268322 0
M  V30 4488 C 439.239 -2.97329 -1.80252 0
M  V30 4489 H 438.562 -3.74313 -1.40462 0
M  V30 4490 H 440.002 -3.48743 -2.41152 0
M  V30 4491 C 438.461 -2.0276 -2.69054 0
M  V30 4492 O 438.991 -1.57836 -3.69392 0
M  V30 4493 N 437.197 -1.69275 -2.36208 0
M  V30 4494 H 436.744 -2.06004 -1.54661 0
M  V30 4495 H 436.702 -1.06271 -2.95895 0
M  V30 4496 N 440.474 -0.00167713 -1.576 0
M  V30 4497 C 441.437 0.974046 -2.07473 0
M  V30 4498 C 442.437 1.27143 -0.984444 0
M  V30 4499 O 443.627 1.21633 -1.24703 0
M  V30 4500 C 440.759 2.29849 -2.51759 0
M  V30 4501 H 441.952 0.54262 -2.9495 0
M  V30 4502 H 439.505 0.245829 -1.54355 0
M  V30 4503 H 440.24 2.77677 -1.67529 0
M  V30 4504 H 440.025 2.09584 -3.31386 0
M  V30 4505 H 441.515 2.9984 -2.90664 0
M  V30 4506 N 441.952 1.55251 0.271103 0
M  V30 4507 C 443.18 1.79974 1.02064 0
M  V30 4508 C 443.595 0.574003 1.79863 0
M  V30 4509 O 442.952 -0.456962 1.76686 0
M  V30 4510 C 443.003 3.02603 1.97772 0
M  V30 4511 O 442.724 4.20443 1.23124 0
M  V30 4512 C 444.225 3.39944 2.84522 0
M  V30 4513 H 441.445 0.599489 0.301419 0
M  V30 4514 H 443.989 2.02268 0.301313 0
M  V30 4515 H 442.144 2.8243 2.65165 0
M  V30 4516 H 442.558 4.89783 1.87651 0
M  V30 4517 H 444.032 4.28915 3.47471 0
M  V30 4518 H 444.509 2.59432 3.54389 0
M  V30 4519 H 445.115 3.62383 2.22618 0
M  V30 4520 N 443.43 -0.535701 1.48216 0
M  V30 4521 C 444.841 -1.11769 1.49548 0
M  V30 4522 C 445.192 -1.94442 0.26207 0
M  V30 4523 O 444.317 -2.06987 -0.631287 0
M  V30 4524 C 444.912 -2.03367 2.70975 0
M  V30 4525 C 443.471 -2.56795 2.75196 0
M  V30 4526 C 442.618 -1.33631 2.42977 0
M  V30 4527 H 445.569 -0.321232 1.55415 0
M  V30 4528 H 445.59 -2.87569 2.49167 0
M  V30 4529 H 445.102 -1.43169 3.60727 0
M  V30 4530 H 443.203 -3.20731 1.89638 0
M  V30 4531 H 443.316 -2.9632 3.76472 0
M  V30 4532 H 441.68 -1.6502 1.94012 0
M  V30 4533 H 442.463 -0.75194 3.34964 0
M  V30 4534 N 444.908 -1.36708 -0.784132 0
M  V30 4535 C 446.156 -1.30972 -1.53918 0
M  V30 4536 C 446.477 0.109086 -1.94695 0
M  V30 4537 O 445.747 1.05048 -1.65353 0
M  V30 4538 H 444.327 -0.481819 -0.570841 0
M  V30 4539 H 446.989 -1.71063 -0.934002 0
M  V30 4540 H 446.085 -1.94061 -2.44431 0
M  V30 4541 N 446.386 1.0089 -1.21074 0
M  V30 4542 C 447.333 2.09588 -0.966512 0
M  V30 4543 C 448.303 1.65761 0.106089 0
M  V30 4544 O 449.488 1.90758 -0.0402287 0
M  V30 4545 C 446.628 3.40958 -0.533058 0
M  V30 4546 C 445.741 3.9822 -1.67467 0
M  V30 4547 C 444.876 5.17682 -1.19076 0
M  V30 4548 C 443.915 5.67043 -2.30496 0
M  V30 4549 N 443.052 6.77759 -1.83267 0
M  V30 4550 H 447.892 2.29815 -1.89708 0
M  V30 4551 H 445.429 1.12689 -0.945489 0
M  V30 4552 H 447.387 4.1637 -0.263019 0
M  V30 4553 H 446.017 3.20781 0.360505 0
M  V30 4554 H 445.069 3.1983 -2.05944 0
M  V30 4555 H 446.381 4.3085 -2.51336 0
M  V30 4556 H 445.535 6.00326 -0.877151 0
M  V30 4557 H 444.274 4.86635 -0.322066 0
M  V30 4558 H 443.279 4.82999 -2.62664 0
M  V30 4559 H 444.504 6.00121 -3.17855 0
M  V30 4560 H 442.45 6.48527 -0.987356 0
M  V30 4561 H 442.367 7.09624 -2.60711 0
M  V30 4562 H 443.635 7.63949 -1.54928 0
M  V30 4563 N 447.864 1.01787 1.20321 0
M  V30 4564 C 448.812 0.58254 2.25187 0
M  V30 4565 C 449.806 -0.379359 1.65098 0
M  V30 4566 O 451.012 -0.249142 1.78267 0
M  V30 4567 H 447.387 0.170078 0.732514 0
M  V30 4568 H 449.358 1.47788 2.59232 0
M  V30 4569 C 448.107 -0.0620885 3.47645 0
M  V30 4570 H 447.43 0.669069 3.94162 0
M  V30 4571 H 448.87 -0.329784 4.22716 0
M  V30 4572 C 447.329 -1.3053 3.10586 0
M  V30 4573 O 447.859 -2.39848 3.22236 0
M  V30 4574 N 446.065 -1.18988 2.65123 0
M  V30 4575 H 445.612 -0.300341 2.55843 0
M  V30 4576 H 445.57 -2.02267 2.40698 0
M  V30 4577 N 449.342 -1.36122 0.79427 0
M  V30 4578 C 450.758 -1.5232 0.476525 0
M  V30 4579 C 450.958 -1.74685 -1.00436 0
M  V30 4580 O 450.014 -1.78115 -1.78973 0
M  V30 4581 C 451.327 -2.70607 1.31119 0
M  V30 4582 C 452.875 -2.8448 1.30537 0
M  V30 4583 C 453.35 -4.05778 2.12387 0
M  V30 4584 N 454.841 -4.12933 2.09859 0
M  V30 4585 C 455.576 -5.05876 2.69957 0
M  V30 4586 N 455.072 -6.04232 3.38934 0
M  V30 4587 N 456.865 -4.98528 2.59665 0
M  V30 4588 H 449.016 -1.1986 1.75349 0
M  V30 4589 H 451.279 -0.585418 0.745647 0
M  V30 4590 H 450.985 -2.60619 2.36158 0
M  V30 4591 H 450.859 -3.64888 0.955843 0
M  V30 4592 H 453.246 -2.93927 0.262876 0
M  V30 4593 H 453.327 -1.91093 1.70051 0
M  V30 4594 H 452.971 -3.97092 3.1667 0
M  V30 4595 H 452.901 -4.98323 1.70242 0
M  V30 4596 H 455.392 -3.42515 1.59662 0
M  V30 4597 H 455.705 -6.71724 3.82109 0
M  V30 4598 H 454.05 -6.04443 3.43036 0
M  V30 4599 H 457.241 -4.20641 2.05375 0
M  V30 4600 H 457.414 -5.70773 3.06793 0
M  V30 4601 N 450.82 -0.546701 -1.47814 0
M  V30 4602 C 452.236 -0.205717 -1.58269 0
M  V30 4603 C 452.436 1.29153 -1.54667 0
M  V30 4604 O 451.492 2.07098 -1.44453 0
M  V30 4605 C 452.805 -0.823065 -2.89216 0
M  V30 4606 C 454.353 -0.793328 -3.02779 0
M  V30 4607 C 454.828 -1.38955 -4.36412 0
M  V30 4608 N 456.319 -1.35227 -4.43021 0
M  V30 4609 C 457.054 -1.78333 -5.44963 0
M  V30 4610 N 456.55 -2.29246 -6.53772 0
M  V30 4611 N 458.343 -1.69467 -5.35945 0
M  V30 4612 H 450.494 -1.5196 -1.48398 0
M  V30 4613 H 452.757 -0.633078 -0.705632 0
M  V30 4614 H 452.463 -1.8749 -2.97558 0
M  V30 4615 H 452.337 -0.309915 -3.75925 0
M  V30 4616 H 454.724 0.249784 -2.94041 0
M  V30 4617 H 454.805 -1.34412 -2.17639 0
M  V30 4618 H 454.449 -2.43168 -4.45906 0
M  V30 4619 H 454.379 -0.814291 -5.20266 0
M  V30 4620 H 456.87 -0.979739 -3.64979 0
M  V30 4621 H 457.183 -2.60089 -7.27718 0
M  V30 4622 H 455.528 -2.3325 -6.5469 0
M  V30 4623 H 458.719 -1.29477 -4.49837 0
M  V30 4624 H 458.892 -2.03381 -6.15256 0
M  V30 4625 N 452.299 1.55045 -0.282633 0
M  V30 4626 C 453.548 1.98938 0.332667 0
M  V30 4627 C 453.861 1.17455 1.56409 0
M  V30 4628 O 455.067 1.51527 2.25282 0
M  V30 4629 C 453.523 3.54105 0.643226 0
M  V30 4630 C 453.131 4.44374 -0.568814 0
M  V30 4631 C 454.875 4.06569 1.22074 0
M  V30 4632 C 452.782 5.90943 -0.232426 0
M  V30 4633 H 451.712 0.743043 0.128075 0
M  V30 4634 H 454.363 1.79341 -0.388464 0
M  V30 4635 H 452.745 3.69532 1.42346 0
M  V30 4636 H 453.919 4.40718 -1.34551 0
M  V30 4637 H 452.234 4.02585 -1.06369 0
M  V30 4638 H 454.831 5.13626 1.48635 0
M  V30 4639 H 455.174 3.56057 2.15707 0
M  V30 4640 H 455.707 3.94612 0.502621 0
M  V30 4641 H 452.446 6.45567 -1.13683 0
M  V30 4642 H 451.966 5.9765 0.507357 0
M  V30 4643 H 453.645 6.4677 0.172657 0
M  V30 4644 N 453.777 0.010035 1.57597 0
M  V30 4645 C 455.002 -0.687021 1.95691 0
M  V30 4646 C 455.427 -1.65952 0.885519 0
M  V30 4647 O 454.785 -1.80633 -0.15543 0
M  V30 4648 C 454.833 -1.3864 3.32884 0
M  V30 4649 O 453.937 -2.50115 3.27897 0
M  V30 4650 H 453.278 -0.181989 0.638573 0
M  V30 4651 H 455.808 0.0662122 2.04493 0
M  V30 4652 H 455.818 -1.74754 3.6868 0
M  V30 4653 H 454.493 -0.673411 4.10412 0
M  V30 4654 H 453.07 -2.16253 3.03791 0
M  V30 4655 N 455.255 -1.55392 -0.262866 0
M  V30 4656 C 456.218 -1.88181 -1.30846 0
M  V30 4657 C 457.218 -0.757079 -1.41862 0
M  V30 4658 O 458.408 -1.02519 -1.40838 0
M  V30 4659 C 455.54 -2.09609 -2.68844 0
M  V30 4660 H 456.733 -2.81659 -1.02997 0
M  V30 4661 H 454.286 -1.48039 -0.501414 0
M  V30 4662 H 455.021 -1.18547 -3.01856 0
M  V30 4663 H 454.806 -2.91508 -2.62231 0
M  V30 4664 H 456.296 -2.36215 -3.44372 0
M  V30 4665 N 456.733 0.527833 -1.48498 0
M  V30 4666 C 457.696 1.61439 -1.62696 0
M  V30 4667 C 458.696 1.52824 -0.500136 0
M  V30 4668 O 459.886 1.56456 -0.765976 0
M  V30 4669 C 457.018 3.01063 -1.59918 0
M  V30 4670 H 458.211 1.50189 -2.59583 0
M  V30 4671 H 455.764 0.750055 -1.37127 0
M  V30 4672 H 456.499 3.17818 -0.645163 0
M  V30 4673 H 456.284 3.08725 -2.41726 0
M  V30 4674 H 457.774 3.80057 -1.73051 0
M  V30 4675 N 458.211 1.37122 0.776871 0
M  V30 4676 C 459.622 1.28667 1.35284 0
M  V30 4677 C 459.973 -0.0680035 1.96082 0
M  V30 4678 O 459.098 -0.969743 1.93455 0
M  V30 4679 C 459.693 2.32997 2.45963 0
M  V30 4680 C 458.252 2.28191 2.99342 0
M  V30 4681 C 457.399 2.17101 1.72517 0
M  V30 4682 H 460.35 1.47819 0.577527 0
M  V30 4683 H 460.371 1.97366 3.2531 0
M  V30 4684 H 459.883 3.3158 2.01684 0
M  V30 4685 H 457.984 1.33115 3.4801 0
M  V30 4686 H 458.097 3.21397 3.55304 0
M  V30 4687 H 456.461 1.63562 1.95242 0
M  V30 4688 H 457.244 3.17591 1.30348 0
M  V30 4689 N 459.689 -1.00246 1.21608 0
M  V30 4690 C 460.935 -1.74319 1.03638 0
M  V30 4691 C 461.268 -1.89408 -0.428749 0
M  V30 4692 O 460.543 -1.43026 -1.3181 0
M  V30 4693 C 460.826 -3.15431 1.73711 0
M  V30 4694 C 460.679 -3.08049 3.27759 0
M  V30 4695 C 461.998 -4.14407 1.48173 0
M  V30 4696 H 459.117 -0.632741 0.377899 0
M  V30 4697 H 461.759 -1.16853 1.49818 0
M  V30 4698 H 459.909 -3.64493 1.34452 0
M  V30 4699 H 461.581 -2.66681 3.76403 0
M  V30 4700 H 459.824 -2.45088 3.57931 0
M  V30 4701 H 460.495 -4.07862 3.71958 0
M  V30 4702 H 462.971 -3.74061 1.82258 0
M  V30 4703 H 461.847 -5.11279 1.99713 0
M  V30 4704 H 462.108 -4.40174 0.412273 0
M  V30 4705 N 461.167 -1.02423 -1.1978 0
M  V30 4706 C 462.415 -0.716569 -1.8897 0
M  V30 4707 C 462.736 0.756769 -1.79716 0
M  V30 4708 O 462.006 1.5449 -1.20456 0
M  V30 4709 H 460.586 -0.262062 -0.699523 0
M  V30 4710 H 463.248 -1.29747 -1.45436 0
M  V30 4711 H 462.344 -1.00675 -2.95417 0
M  V30 4712 N 462.645 1.35699 -0.801477 0
M  V30 4713 C 463.87 2.03687 -0.390678 0
M  V30 4714 C 464.295 1.60015 0.988778 0
M  V30 4715 O 463.653 0.774357 1.63931 0
M  V30 4716 C 463.701 3.57439 -0.476404 0
M  V30 4717 O 462.805 4.09208 0.512106 0
M  V30 4718 H 462.146 0.64344 -0.163956 0
M  V30 4719 H 464.676 1.73403 -1.08594 0
M  V30 4720 H 464.686 4.06544 -0.344357 0
M  V30 4721 H 463.361 3.88576 -1.48262 0
M  V30 4722 H 461.938 3.7134 0.340721 0
M  V30 4723 N 464.123 0.554532 1.47522 0
M  V30 4724 C 465.539 0.214107 1.58157 0
M  V30 4725 C 465.739 -1.28331 1.55349 0
M  V30 4726 O 464.795 -2.06329 1.45549 0
M  V30 4727 C 466.108 0.838391 2.88776 0
M  V30 4728 C 467.656 0.809374 3.02354 0
M  V30 4729 C 468.131 1.41268 4.35669 0
M  V30 4730 N 469.622 1.37574 4.42298 0
M  V30 4731 C 470.357 1.8122 5.4401 0
M  V30 4732 N 469.853 2.3271 6.52547 0
M  V30 4733 N 471.646 1.72307 5.35039 0
M  V30 4734 H 463.797 1.52744 1.4759 0
M  V30 4735 H 466.06 0.636812 0.702264 0
M  V30 4736 H 465.766 1.89065 2.96559 0
M  V30 4737 H 465.64 0.329847 3.75755 0
M  V30 4738 H 468.027 -0.234187 2.94169 0
M  V30 4739 H 468.108 1.35565 2.16924 0
M  V30 4740 H 467.752 2.45529 4.4461 0
M  V30 4741 H 467.682 0.841871 5.19827 0
M  V30 4742 H 470.173 0.999081 3.64454 0
M  V30 4743 H 470.486 2.63944 7.26329 0
M  V30 4744 H 468.831 2.36719 6.53444 0
M  V30 4745 H 472.022 1.3186 4.49144 0
M  V30 4746 H 472.195 2.06641 6.14169 0
M  V30 4747 N 465.601 -1.54893 0.290851 0
M  V30 4748 C 467.012 -1.85584 -0.203816 0
M  V30 4749 C 467.363 -1.21285 -1.54222 0
M  V30 4750 O 466.488 -0.506841 -2.10381 0
M  V30 4751 C 467.083 -3.367 -0.376595 0
M  V30 4752 C 465.642 -3.6746 -0.815485 0
M  V30 4753 C 464.789 -2.77178 0.0821087 0
M  V30 4754 H 467.74 -1.50208 0.512175 0
M  V30 4755 H 467.761 -3.60656 -1.21275 0
M  V30 4756 H 467.273 -3.8347 0.59767 0
M  V30 4757 H 465.374 -3.26201 -1.80066 0
M  V30 4758 H 465.487 -4.7478 -0.641905 0
M  V30 4759 H 463.851 -2.50925 -0.436895 0
M  V30 4760 H 464.634 -3.26767 1.05254 0
M  V30 4761 N 467.08 -0.0183926 -1.57589 0
M  V30 4762 C 468.03 0.975944 -2.06057 0
M  V30 4763 C 469.014 1.29204 -0.958908 0
M  V30 4764 O 470.206 1.27995 -1.22255 0
M  V30 4765 C 467.335 2.26194 -2.58247 0
M  V30 4766 C 466.421 1.97467 -3.75323 0
M  V30 4767 N 466.812 1.38968 -4.86335 0
M  V30 4768 C 465.11 2.27515 -3.83605 0
M  V30 4769 C 465.811 1.27131 -5.67638 0
M  V30 4770 N 464.787 1.76319 -5.14211 0
M  V30 4771 H 468.589 0.518444 -2.89291 0
M  V30 4772 H 466.103 0.18688 -1.61321 0
M  V30 4773 H 468.1 2.98289 -2.91255 0
M  V30 4774 H 466.76 2.7258 -1.76438 0
M  V30 4775 H 467.771 1.06608 -5.06809 0
M  V30 4776 H 464.448 2.76649 -3.12684 0
M  V30 4777 H 465.838 0.819882 -6.66879 0
M  V30 4778 N 468.558 1.5553 0.254621 0
M  V30 4779 C 469.786 1.81046 1.00149 0
M  V30 4780 C 470.201 0.593047 1.79244 0
M  V30 4781 O 469.558 -0.438196 1.77161 0
M  V30 4782 C 469.609 3.04684 1.94551 0
M  V30 4783 O 469.33 4.21725 1.18658 0
M  V30 4784 C 470.831 3.42943 2.80901 0
M  V30 4785 H 468.051 0.602653 0.295044 0
M  V30 4786 H 470.595 2.02576 0.279842 0
M  V30 4787 H 468.75 2.85226 2.62154 0
M  V30 4788 H 469.164 4.91746 1.82445 0
M  V30 4789 H 470.638 4.32576 3.42902 0
M  V30 4790 H 471.115 2.63176 3.51617 0
M  V30 4791 H 471.721 3.64724 2.18762 0
M  V30 4792 N 470.036 -0.519951 1.48776 0
M  V30 4793 C 471.282 -1.27711 1.57536 0
M  V30 4794 C 471.615 -1.92547 0.252866 0
M  V30 4795 O 470.89 -1.7979 -0.742021 0
M  V30 4796 C 471.173 -2.35875 2.72094 0
M  V30 4797 C 471.026 -1.75664 4.1408 0
M  V30 4798 C 472.345 -3.37575 2.82367 0
M  V30 4799 H 469.464 -0.462971 0.573434 0
M  V30 4800 H 472.106 -0.578194 1.80989 0
M  V30 4801 H 470.256 -2.95488 2.52228 0
M  V30 4802 H 471.928 -1.20025 4.45412 0
M  V30 4803 H 470.171 -1.06154 4.20611 0
M  V30 4804 H 470.842 -2.54029 4.90075 0
M  V30 4805 H 473.318 -2.87929 3.00393 0
M  V30 4806 H 472.194 -4.1064 3.64233 0
M  V30 4807 H 472.455 -3.98743 1.90936 0
M  V30 4808 N 471.514 -1.37532 -0.769588 0
M  V30 4809 C 472.477 -1.33292 -1.86456 0
M  V30 4810 C 473.477 -0.236537 -1.59051 0
M  V30 4811 O 474.667 -0.492511 -1.67093 0
M  V30 4812 C 471.799 -1.07118 -3.23633 0
M  V30 4813 H 472.992 -2.30692 -1.91628 0
M  V30 4814 H 470.545 -1.22593 -0.969572 0
M  V30 4815 H 471.28 -0.102578 -3.24138 0
M  V30 4816 H 471.065 -1.86479 -3.44917 0
M  V30 4817 H 472.555 -1.06806 -4.03711 0
M  V30 4818 N 472.992 0.995999 -1.22138 0
M  V30 4819 C 473.94 2.10673 -0.985876 0
M  V30 4820 C 474.934 1.69255 0.0699553 0
M  V30 4821 O 476.14 1.79812 -0.0822176 0
M  V30 4822 H 472.515 0.688865 -0.30161 0
M  V30 4823 H 474.486 2.27711 -1.92848 0
M  V30 4824 C 473.235 3.42881 -0.576909 0
M  V30 4825 H 472.558 3.75191 -1.38101 0
M  V30 4826 H 473.998 4.21589 -0.451518 0
M  V30 4827 C 472.457 3.29265 0.713196 0
M  V30 4828 O 472.987 3.60777 1.76643 0
M  V30 4829 N 471.193 2.82456 0.683162 0
M  V30 4830 H 470.74 2.5701 -0.174242 0
M  V30 4831 H 470.698 2.73727 1.54663 0
M  V30 4832 N 474.47 1.03057 1.19235 0
M  V30 4833 C 475.718 0.726581 1.88587 0
M  V30 4834 C 476.039 -0.747227 1.80115 0
M  V30 4835 O 475.309 -1.53849 1.21274 0
M  V30 4836 H 473.889 0.265768 0.698124 0
M  V30 4837 H 476.551 1.30516 1.44746 0
M  V30 4838 H 475.647 1.0224 2.94879 0
M  V30 4839 N 475.948 -1.35272 0.808662 0
M  V30 4840 C 476.898 -2.27181 0.193124 0
M  V30 4841 C 477.882 -1.47871 -0.634265 0
M  V30 4842 O 479.074 -1.70048 -0.491182 0
M  V30 4843 C 476.203 -3.36979 -0.655751 0
M  V30 4844 C 475.289 -4.23712 0.181481 0
M  V30 4845 N 475.68 -4.90225 1.24551 0
M  V30 4846 C 473.978 -4.45985 -0.0365493 0
M  V30 4847 C 474.679 -5.54537 1.75682 0
M  V30 4848 N 473.655 -5.33107 1.06294 0
M  V30 4849 H 477.457 -2.76101 1.00724 0
M  V30 4850 H 474.971 -1.48823 0.650029 0
M  V30 4851 H 476.968 -4.01774 -1.11279 0
M  V30 4852 H 475.628 -2.89611 -1.46819 0
M  V30 4853 H 476.639 -4.91641 1.62818 0
M  V30 4854 H 473.316 -4.09409 -0.817964 0
M  V30 4855 H 474.706 -6.17597 2.64621 0
M  V30 4856 N 477.426 -0.562348 -1.47226 0
M  V30 4857 C 478.336 0.185466 -2.33866 0
M  V30 4858 C 479.352 0.906713 -1.48508 0
M  V30 4859 O 480.528 0.874458 -1.81425 0
M  V30 4860 C 477.593 1.19904 -3.25306 0
M  V30 4861 C 476.654 0.484669 -4.26555 0
M  V30 4862 C 475.887 1.44996 -5.13626 0
M  V30 4863 O 476.11 2.68515 -5.03245 0
M  V30 4864 O 475.044 0.971642 -5.94006 0
M  V30 4865 H 478.87 -0.525361 -2.99121 0
M  V30 4866 H 476.455 -0.322916 -1.45868 0
M  V30 4867 H 478.337 1.78399 -3.81774 0
M  V30 4868 H 477.012 1.8917 -2.62672 0
M  V30 4869 H 475.919 -0.141605 -3.73832 0
M  V30 4870 H 477.252 -0.166634 -4.91918 0
M  V30 4871 N 478.904 1.54736 -0.299062 0
M  V30 4872 C 479.834 2.26409 0.571085 0
M  V30 4873 C 480.815 1.2629 1.13951 0
M  V30 4874 O 482 1.55059 1.16921 0
M  V30 4875 C 479.13 3.00338 1.74396 0
M  V30 4876 C 478.084 4.07588 1.30599 0
M  V30 4877 C 477.41 4.69222 2.56387 0
M  V30 4878 C 478.71 5.20455 0.438645 0
M  V30 4879 H 480.404 2.99388 -0.0266991 0
M  V30 4880 H 477.95 1.43993 -0.0142812 0
M  V30 4881 H 479.903 3.49198 2.35878 0
M  V30 4882 H 478.627 2.24934 2.36796 0
M  V30 4883 H 477.286 3.59575 0.71424 0
M  V30 4884 H 476.934 3.9046 3.17097 0
M  V30 4885 H 476.634 5.41653 2.27784 0
M  V30 4886 H 478.158 5.20844 3.18675 0
M  V30 4887 H 479.572 5.65221 0.959085 0
M  V30 4888 H 477.969 5.99594 0.246466 0
M  V30 4889 H 479.039 4.8192 -0.536738 0
M  V30 4890 N 480.382 0.0267497 1.57577 0
M  V30 4891 C 481.629 -0.652404 1.91703 0
M  V30 4892 C 481.957 -1.72271 0.902936 0
M  V30 4893 O 481.212 -1.955 -0.0884843 0
M  V30 4894 C 481.511 -1.30914 3.3256 0
M  V30 4895 C 481.177 -0.369441 4.49384 0
M  V30 4896 C 479.839 -0.110791 4.81072 0
M  V30 4897 C 482.191 0.275971 5.20469 0
M  V30 4898 C 479.519 0.801116 5.81205 0
M  V30 4899 C 481.871 1.17592 6.21575 0
M  V30 4900 C 480.535 1.44348 6.51705 0
M  V30 4901 H 479.805 -0.238732 0.70149 0
M  V30 4902 H 482.452 0.0880091 1.91298 0
M  V30 4903 H 480.757 -2.12425 3.29216 0
M  V30 4904 H 482.454 -1.84115 3.56234 0
M  V30 4905 H 479.044 -0.581211 4.24641 0
M  V30 4906 H 483.228 0.0892 4.9622 0
M  V30 4907 H 478.484 1.01614 6.02897 0
M  V30 4908 H 482.658 1.68223 6.75777 0
M  V30 4909 H 480.285 2.15176 7.29111 0
M  V30 4910 N 481.861 -1.55662 -0.24637 0
M  V30 4911 C 482.771 -1.93495 -1.32653 0
M  V30 4912 C 483.787 -0.835462 -1.5263 0
M  V30 4913 O 484.963 -1.1369 -1.66242 0
M  V30 4914 C 482.028 -2.22242 -2.66101 0
M  V30 4915 C 481.089 -3.45625 -2.54641 0
M  V30 4916 C 480.322 -3.72991 -3.81724 0
M  V30 4917 O 480.545 -3.02421 -4.8363 0
M  V30 4918 O 479.479 -4.66515 -3.80325 0
M  V30 4919 H 483.305 -2.85498 -1.03559 0
M  V30 4920 H 480.89 -1.42551 -0.44717 0
M  V30 4921 H 482.772 -2.42037 -3.44958 0
M  V30 4922 H 481.447 -1.33417 -2.94926 0
M  V30 4923 H 480.354 -3.31136 -1.74067 0
M  V30 4924 H 481.687 -4.34754 -2.3076 0
M  V30 4925 N 483.339 0.512053 -1.4905 0
M  V30 4926 C 484.585 1.26874 -1.58212 0
M  V30 4927 C 484.918 1.9241 -0.263073 0
M  V30 4928 O 484.193 1.80181 0.732476 0
M  V30 4929 C 484.476 2.34428 -2.73341 0
M  V30 4930 C 484.329 1.73466 -4.15006 0
M  V30 4931 C 485.648 3.36073 -2.84154 0
M  V30 4932 H 482.767 0.459924 -0.575881 0
M  V30 4933 H 485.409 0.568587 -1.81293 0
M  V30 4934 H 483.559 2.94146 -2.53792 0
M  V30 4935 H 485.231 1.17661 -4.46042 0
M  V30 4936 H 483.474 1.03921 -4.21168 0
M  V30 4937 H 484.145 2.51426 -4.91415 0
M  V30 4938 H 486.621 2.86332 -3.01916 0
M  V30 4939 H 485.497 4.08703 -3.66406 0
M  V30 4940 H 485.758 3.97725 -1.93048 0
M  V30 4941 N 484.817 1.37938 0.762283 0
M  V30 4942 C 486.042 1.37059 1.55659 0
M  V30 4943 C 486.467 -0.0396123 1.88058 0
M  V30 4944 O 485.825 -1.01929 1.49934 0
M  V30 4945 C 485.873 2.22494 2.83776 0
M  V30 4946 O 484.977 1.63607 3.78559 0
M  V30 4947 H 484.318 0.467892 0.47114 0
M  V30 4948 H 486.848 1.81587 0.942725 0
M  V30 4949 H 486.858 2.36045 3.32786 0
M  V30 4950 H 485.533 3.24993 2.59524 0
M  V30 4951 H 484.11 1.5915 3.37233 0
M  V30 4952 N 486.295 -0.989507 1.22664 0
M  V30 4953 C 487.205 -2.11449 1.01619 0
M  V30 4954 C 488.221 -1.73962 -0.036545 0
M  V30 4955 O 489.397 -2.00788 0.156924 0
M  V30 4956 C 486.462 -3.41465 0.600204 0
M  V30 4957 C 485.523 -3.93033 1.72695 0
M  V30 4958 C 484.756 -5.16844 1.33071 0
M  V30 4959 O 484.979 -5.7001 0.210975 0
M  V30 4960 O 483.913 -5.6225 2.14845 0
M  V30 4961 H 487.739 -2.32088 1.9588 0
M  V30 4962 H 485.324 -1.09823 1.01289 0
M  V30 4963 H 487.206 -4.19695 0.37873 0
M  V30 4964 H 485.881 -3.22178 -0.313511 0
M  V30 4965 H 484.788 -3.15961 2.00298 0
M  V30 4966 H 486.121 -4.16758 2.61865 0
M  V30 4967 N 487.773 -1.03688 -1.18687 0
M  V30 4968 C 488.683 -0.634908 -2.25845 0
M  V30 4969 C 489.699 0.337065 -1.70704 0
M  V30 4970 O 490.875 0.192943 -2.00474 0
M  V30 4971 C 487.94 -0.000180054 -3.467 0
M  V30 4972 C 487.001 -1.02067 -4.1699 0
M  V30 4973 C 486.234 -0.41614 -5.32075 0
M  V30 4974 O 486.457 0.778712 -5.65059 0
M  V30 4975 O 485.391 -1.14296 -5.90948 0
M  V30 4976 H 489.217 -1.52757 -2.62486 0
M  V30 4977 H 486.802 -0.807533 -1.25695 0
M  V30 4978 H 488.684 0.353342 -4.19916 0
M  V30 4979 H 487.359 0.866367 -3.11891 0
M  V30 4980 H 486.266 -1.42592 -3.45859 0
M  V30 4981 H 487.599 -1.85786 -4.5579 0
M  V30 4982 N 489.251 1.34841 -0.815825 0
M  V30 4983 C 490.667 1.51543 -0.500697 0
M  V30 4984 C 490.867 1.76261 0.976444 0
M  V30 4985 O 489.923 1.8094 1.76117 0
M  V30 4986 C 491.236 2.68487 -1.35407 0
M  V30 4987 C 492.784 2.82368 -1.35046 0
M  V30 4988 C 493.259 4.02347 -2.18816 0
M  V30 4989 N 494.75 4.09542 -2.16402 0
M  V30 4990 C 495.485 5.01517 -2.77971 0
M  V30 4991 N 494.981 5.98763 -3.48503 0
M  V30 4992 N 496.774 4.94334 -2.67563 0
M  V30 4993 H 488.925 1.17055 -1.77234 0
M  V30 4994 H 491.188 0.573481 -0.754866 0
M  V30 4995 H 490.894 2.56829 -2.40274 0
M  V30 4996 H 490.768 3.63321 -1.01377 0
M  V30 4997 H 493.155 2.93471 -0.309604 0
M  V30 4998 H 493.236 1.88363 -1.73069 0
M  V30 4999 H 492.88 3.92004 -3.22948 0
M  V30 5000 H 492.81 4.95551 -1.78148 0
M  V30 5001 H 495.301 3.39932 -1.65091 0
M  V30 5002 H 495.614 6.6556 -3.92747 0
M  V30 5003 H 493.959 5.98909 -3.52609 0
M  V30 5004 H 497.15 4.1732 -2.12041 0
M  V30 5005 H 497.323 5.6582 -3.15834 0
M  V30 5006 N 490.729 0.570148 1.46925 0
M  V30 5007 C 492.006 -0.0153259 1.95594 0
M  V30 5008 C 492.386 -1.47232 1.51281 0
M  V30 5009 O 491.734 -2.15574 0.757624 0
M  V30 5010 C 491.944 0.143624 3.48704 0
M  V30 5011 C 493.292 0.00494484 4.246 0
M  V30 5012 O 494.316 0.0718214 3.56128 0
M  V30 5013 O 493.175 -0.141175 5.46318 0
M  V30 5014 H 490.269 -0.0568819 0.825041 0
M  V30 5015 H 492.815 0.637583 1.57267 0
M  V30 5016 H 491.587 1.15699 3.73804 0
M  V30 5017 H 491.21 -0.5463 3.93829 0
M  V30 5018 N 492.207 -1.54576 0.307264 0
M  V30 5019 C 493.117 -2.27435 -0.57536 0
M  V30 5020 C 494.133 -1.31183 -1.14311 0
M  V30 5021 O 495.309 -1.64175 -1.16656 0
M  V30 5022 C 492.374 -3.00566 -1.72803 0
M  V30 5023 C 491.435 -4.12369 -1.19373 0
M  V30 5024 C 490.668 -4.82003 -2.29147 0
M  V30 5025 O 490.891 -4.51038 -3.49171 0
M  V30 5026 O 489.825 -5.69271 -1.95485 0
M  V30 5027 H 493.651 -3.03696 0.0158558 0
M  V30 5028 H 491.236 -1.49219 0.0735064 0
M  V30 5029 H 493.118 -3.46416 -2.39946 0
M  V30 5030 H 491.793 -2.27195 -2.30574 0
M  V30 5031 H 490.7 -3.70905 -0.487851 0
M  V30 5032 H 492.033 -4.87736 -0.661376 0
M  V30 5033 N 493.685 -0.035106 -1.57561 0
M  V30 5034 C 494.595 0.960295 -2.14046 0
M  V30 5035 C 495.611 1.3529 -1.0942 0
M  V30 5036 O 496.787 1.43309 -1.41508 0
M  V30 5037 C 493.852 2.22214 -2.66124 0
M  V30 5038 C 492.913 1.8894 -3.85487 0
M  V30 5039 C 492.146 3.09109 -4.35072 0
M  V30 5040 O 492.369 4.21963 -3.83802 0
M  V30 5041 O 491.303 2.91058 -5.26848 0
M  V30 5042 H 495.129 0.509983 -2.99387 0
M  V30 5043 H 492.714 0.185853 -1.48239 0
M  V30 5044 H 494.596 2.96279 -2.99661 0
M  V30 5045 H 493.271 2.66414 -1.83862 0
M  V30 5046 H 492.178 1.12241 -3.56865 0
M  V30 5047 H 493.511 1.49551 -4.6893 0
M  V30 5048 N 495.163 1.55791 0.238111 0
M  V30 5049 C 496.409 1.78297 0.966337 0
M  V30 5050 C 496.742 0.601903 1.84637 0
M  V30 5051 O 496.017 -0.399499 1.90353 0
M  V30 5052 C 496.3 3.10758 1.81939 0
M  V30 5053 C 496.153 4.39283 0.966958 0
M  V30 5054 C 497.472 3.39519 2.80027 0
M  V30 5055 H 494.591 0.648654 0.349882 0
M  V30 5056 H 497.233 1.88525 0.236253 0
M  V30 5057 H 495.383 3.02168 2.44185 0
M  V30 5058 H 497.055 4.59873 0.362514 0
M  V30 5059 H 495.298 4.32948 0.271669 0
M  V30 5060 H 495.969 5.28368 1.59784 0
M  V30 5061 H 498.445 3.48128 2.27917 0
M  V30 5062 H 497.321 4.33402 3.36829 0
M  V30 5063 H 497.582 2.60864 3.56934 0
M  V30 5064 N 496.642 -0.504142 1.49319 0
M  V30 5065 C 497.605 -1.5883 1.65244 0
M  V30 5066 C 498.605 -1.52009 0.524386 0
M  V30 5067 O 499.795 -1.55218 0.79077 0
M  V30 5068 C 496.927 -2.98481 1.64687 0
M  V30 5069 H 498.12 -1.4604 2.61939 0
M  V30 5070 H 495.673 -0.728144 1.38303 0
M  V30 5071 H 496.408 -3.16751 0.695644 0
M  V30 5072 H 496.193 -3.0484 2.46607 0
M  V30 5073 H 497.683 -3.77256 1.79075 0
M  V30 5074 N 498.12 -1.38341 -0.754957 0
M  V30 5075 C 499.083 -1.35262 -1.85032 0
M  V30 5076 C 500.083 -0.253393 -1.58791 0
M  V30 5077 O 501.273 -0.510205 -1.66561 0
M  V30 5078 C 498.405 -1.10544 -3.22479 0
M  V30 5079 H 499.598 -2.32712 -1.8917 0
M  V30 5080 H 497.151 -1.23614 -0.956515 0
M  V30 5081 H 497.886 -0.136952 -3.24011 0
M  V30 5082 H 497.671 -1.90127 -3.4292 0
M  V30 5083 H 499.161 -1.11082 -4.02555 0
M  V30 5084 N 499.598 0.982988 -1.23187 0
M  V30 5085 C 500.845 1.72392 -1.06241 0
M  V30 5086 C 501.173 1.9032 0.40108 0
M  V30 5087 O 500.428 1.45084 1.31336 0
M  V30 5088 C 500.727 3.12736 -1.73006 0
M  V30 5089 C 500.393 3.14695 -3.22921 0
M  V30 5090 C 499.055 3.14937 -3.63824 0
M  V30 5091 C 501.407 3.10211 -4.1883 0
M  V30 5092 C 498.735 3.08408 -4.99101 0
M  V30 5093 C 501.087 3.05224 -5.54095 0
M  V30 5094 C 499.751 3.03787 -5.94365 0
M  V30 5095 H 499.021 0.630829 -0.388762 0
M  V30 5096 H 501.668 1.15053 -1.53085 0
M  V30 5097 H 499.973 3.73446 -1.18514 0
M  V30 5098 H 501.67 3.68828 -1.57374 0
M  V30 5099 H 498.26 3.15262 -2.90358 0
M  V30 5100 H 502.444 3.09166 -3.8824 0
M  V30 5101 H 497.7 3.05646 -5.29519 0
M  V30 5102 H 501.874 3.00712 -6.28128 0
M  V30 5103 H 499.501 2.98483 -6.99151 0
M  V30 5104 N 501.076 1.04316 1.18135 0
M  V30 5105 C 502.316 0.756937 1.89868 0
M  V30 5106 C 502.68 -0.702609 1.78682 0
M  V30 5107 O 503.881 -1.10255 2.45148 0
M  V30 5108 C 502.152 1.21327 3.36176 0
M  V30 5109 S 503.711 1.05307 4.25976 0
M  V30 5110 H 500.529 0.275143 0.655604 0
M  V30 5111 H 503.131 1.33597 1.42731 0
M  V30 5112 H 501.835 2.27086 3.41848 0
M  V30 5113 H 501.366 0.628137 3.88353 0
M  V30 5114 H 503.381 -0.0280093 4.96192 0
M  V30 5115 N 502.554 -1.34406 0.822964 0
M  V30 5116 C 503.504 -2.26963 0.217208 0
M  V30 5117 C 504.488 -1.48536 -0.618545 0
M  V30 5118 O 505.68 -1.7056 -0.473118 0
M  V30 5119 C 502.809 -3.37655 -0.619973 0
M  V30 5120 C 501.895 -4.23495 0.226411 0
M  V30 5121 N 502.286 -4.88876 1.29744 0
M  V30 5122 C 500.584 -4.45999 0.0107554 0
M  V30 5123 C 501.285 -5.52642 1.81553 0
M  V30 5124 N 500.261 -5.31949 1.11942 0
M  V30 5125 H 504.063 -2.75017 1.03647 0
M  V30 5126 H 501.577 -1.48126 0.665777 0
M  V30 5127 H 503.574 -4.02932 -1.07011 0
M  V30 5128 H 502.234 -2.91151 -1.43739 0
M  V30 5129 H 503.245 -4.89886 1.68024 0
M  V30 5130 H 499.922 -4.10253 -0.774495 0
M  V30 5131 H 501.312 -6.14755 2.71156 0
M  V30 5132 N 504.032 -0.577932 -1.46621 0
M  V30 5133 C 504.965 0.206312 -2.27265 0
M  V30 5134 C 505.943 0.901306 -1.35334 0
M  V30 5135 O 507.127 0.916151 -1.64739 0
M  V30 5136 C 504.254 1.29563 -3.1294 0
M  V30 5137 C 503.3 0.706981 -4.206 0
M  V30 5138 S 504.133 -0.462459 -5.33499 0
M  V30 5139 C 505.289 0.628171 -6.2274 0
M  V30 5140 H 505.522 -0.477961 -2.93433 0
M  V30 5141 H 503.055 -0.364715 -1.50031 0
M  V30 5142 H 505.013 1.91935 -3.62865 0
M  V30 5143 H 503.674 1.95183 -2.46095 0
M  V30 5144 H 502.867 1.52565 -4.80354 0
M  V30 5145 H 502.469 0.159022 -3.73662 0
M  V30 5146 H 504.761 1.51506 -6.60342 0
M  V30 5147 H 505.704 0.0674961 -7.08068 0
M  V30 5148 H 506.112 0.930167 -5.56784 0
M  V30 5149 N 505.51 1.54411 -0.315457 0
M  V30 5150 C 506.44 2.27002 0.547039 0
M  V30 5151 C 507.421 1.27492 1.12605 0
M  V30 5152 O 508.606 1.5629 1.15269 0
M  V30 5153 C 505.736 3.02171 1.71201 0
M  V30 5154 C 504.69 4.0895 1.26268 0
M  V30 5155 C 504.016 4.71915 2.51396 0
M  V30 5156 C 505.316 5.20891 0.383419 0
M  V30 5157 H 507.01 2.99343 -0.0584517 0
M  V30 5158 H 504.556 1.4397 -0.0295527 0
M  V30 5159 H 506.509 3.51681 2.32161 0
M  V30 5160 H 505.233 2.27433 2.34397 0
M  V30 5161 H 503.892 3.60312 0.676062 0
M  V30 5162 H 503.54 3.93801 3.12937 0
M  V30 5163 H 503.24 5.44039 2.22026 0
M  V30 5164 H 504.764 5.24195 3.13133 0
M  V30 5165 H 506.178 5.66206 0.899082 0
M  V30 5166 H 504.575 5.99821 0.182857 0
M  V30 5167 H 505.645 4.81324 -0.587821 0
M  V30 5168 N 506.988 0.0434614 1.5754 0
M  V30 5169 C 508.265 -0.671479 1.83713 0
M  V30 5170 C 508.645 -1.89495 0.930315 0
M  V30 5171 O 507.993 -2.28498 -0.0105639 0
M  V30 5172 C 508.203 -1.0361 3.33266 0
M  V30 5173 C 509.551 -1.42167 4.00092 0
M  V30 5174 O 510.575 -1.12866 3.37846 0
M  V30 5175 O 509.434 -1.96817 5.09829 0
M  V30 5176 H 506.528 -0.330726 0.75799 0
M  V30 5177 H 509.074 0.0722373 1.69546 0
M  V30 5178 H 507.846 -0.165938 3.90948 0
M  V30 5179 H 507.469 -1.83751 3.52592 0
M  V30 5180 N 508.466 -1.55915 -0.229846 0
M  V30 5181 C 509.715 -1.77742 -0.953455 0
M  V30 5182 C 510.028 -0.610524 -1.85828 0
M  V30 5183 O 511.234 -0.712219 -2.61992 0
M  V30 5184 C 509.69 -3.14738 -1.74551 0
M  V30 5185 C 509.298 -4.39126 -0.887242 0
M  V30 5186 C 511.042 -3.45895 -2.46084 0
M  V30 5187 C 508.949 -5.67149 -1.67617 0
M  V30 5188 H 507.879 -0.662648 -0.359741 0
M  V30 5189 H 510.53 -1.82322 -0.207576 0
M  V30 5190 H 508.912 -3.04311 -2.53399 0
M  V30 5191 H 510.086 -4.60588 -0.139892 0
M  V30 5192 H 508.401 -4.15427 -0.284443 0
M  V30 5193 H 510.998 -4.38767 -3.05594 0
M  V30 5194 H 511.341 -2.68007 -3.18556 0
M  V30 5195 H 511.874 -3.57614 -1.74233 0
M  V30 5196 H 508.613 -6.47906 -0.994881 0
M  V30 5197 H 508.133 -5.49763 -2.39836 0
M  V30 5198 H 509.812 -6.07025 -2.23898 0
M  V30 5199 N 509.944 0.496216 -1.49584 0
M  V30 5200 C 510.874 1.60576 -1.69521 0
M  V30 5201 C 511.855 1.61169 -0.543933 0
M  V30 5202 O 513.04 1.77834 -0.78031 0
M  V30 5203 C 510.17 2.99038 -1.76616 0
M  V30 5204 C 509.124 3.13312 -2.91581 0
M  V30 5205 C 508.45 4.53172 -2.83794 0
M  V30 5206 C 509.75 2.92886 -4.32452 0
M  V30 5207 H 511.444 1.44146 -2.62416 0
M  V30 5208 H 508.99 0.692024 -1.26282 0
M  V30 5209 H 510.943 3.76564 -1.8915 0
M  V30 5210 H 509.667 3.16568 -0.80324 0
M  V30 5211 H 508.326 2.38213 -2.78658 0
M  V30 5212 H 507.974 4.67585 -1.854 0
M  V30 5213 H 507.674 4.63662 -3.60958 0
M  V30 5214 H 509.198 5.32752 -2.98342 0
M  V30 5215 H 510.612 3.60178 -4.46032 0
M  V30 5216 H 509.009 3.14844 -5.10875 0
M  V30 5217 H 510.079 1.88966 -4.46565 0
M  V30 5218 N 511.423 1.38739 0.74761 0
M  V30 5219 C 512.839 1.20067 1.05148 0
M  V30 5220 C 513.039 0.0534835 2.01429 0
M  V30 5221 O 512.095 -0.59886 2.45296 0
M  V30 5222 C 513.408 2.52957 1.62584 0
M  V30 5223 C 514.956 2.59692 1.74726 0
M  V30 5224 C 515.431 3.92772 2.35573 0
M  V30 5225 N 516.922 3.94343 2.42997 0
M  V30 5226 C 517.657 4.9408 2.90985 0
M  V30 5227 N 517.153 6.04214 3.38965 0
M  V30 5228 N 518.946 4.81466 2.9008 0
M  V30 5229 H 511.097 2.12121 0.108808 0
M  V30 5230 H 513.36 0.941491 0.110899 0
M  V30 5231 H 513.066 3.37389 0.993051 0
M  V30 5232 H 512.94 2.71779 2.61565 0
M  V30 5233 H 515.327 1.75651 2.3713 0
M  V30 5234 H 515.408 2.44731 0.744326 0
M  V30 5235 H 515.052 4.77238 1.738 0
M  V30 5236 H 514.982 4.05046 3.36519 0
M  V30 5237 H 517.473 3.14799 2.0907 0
M  V30 5238 H 517.786 6.76241 3.74056 0
M  V30 5239 H 516.131 6.07825 3.37007 0
M  V30 5240 H 519.322 3.94535 2.51912 0
M  V30 5241 H 519.495 5.59344 3.27166 0
M  V30 5242 N 512.901 -0.976442 1.23707 0
M  V30 5243 C 514.126 -1.75875 1.09922 0
M  V30 5244 C 514.551 -1.84911 -0.34489 0
M  V30 5245 O 513.909 -1.31363 -1.24954 0
M  V30 5246 C 513.957 -3.16179 1.73388 0
M  V30 5247 O 513.061 -4.00124 0.99871 0
M  V30 5248 H 512.402 -0.540954 0.385052 0
M  V30 5249 H 514.932 -1.22546 1.6384 0
M  V30 5250 H 514.942 -3.66741 1.78788 0
M  V30 5251 H 513.617 -3.08917 2.78466 0
M  V30 5252 H 512.194 -3.58624 1.02193 0
M  V30 5253 N 514.379 -1.04941 -1.1758 0
M  V30 5254 C 515.627 -0.756492 -1.87408 0
M  V30 5255 C 515.948 0.718478 -1.81281 0
M  V30 5256 O 515.218 1.519 -1.23706 0
M  V30 5257 H 513.798 -0.276841 -0.693807 0
M  V30 5258 H 516.46 -1.32803 -1.42652 0
M  V30 5259 H 515.556 -1.06918 -2.93215 0
M  V30 5260 N 515.857 1.33968 -0.830081 0
M  V30 5261 C 517.082 2.02813 -0.433796 0
M  V30 5262 C 517.507 1.62076 0.954614 0
M  V30 5263 O 516.865 0.808955 1.62252 0
M  V30 5264 C 516.913 3.56348 -0.552115 0
M  V30 5265 O 516.017 4.10202 0.425191 0
M  V30 5266 H 515.358 0.639817 -0.177567 0
M  V30 5267 H 517.888 1.7106 -1.12248 0
M  V30 5268 H 517.898 4.05722 -0.430513 0
M  V30 5269 H 516.573 3.85344 -1.56471 0
M  V30 5270 H 515.15 3.71979 0.261878 0
M  V30 5271 N 517.335 0.585699 1.46312 0
M  V30 5272 C 518.612 0.00542031 1.95599 0
M  V30 5273 C 518.992 -1.45619 1.52834 0
M  V30 5274 O 518.34 -2.14759 0.780446 0
M  V30 5275 C 518.55 0.180601 3.48532 0
M  V30 5276 C 519.898 0.049979 4.24571 0
M  V30 5277 O 520.922 0.109589 3.56031 0
M  V30 5278 O 519.781 -0.0832226 5.46437 0
M  V30 5279 H 516.875 -0.0481281 0.825598 0
M  V30 5280 H 519.421 0.654227 1.56582 0
M  V30 5281 H 518.193 1.19657 3.72556 0
M  V30 5282 H 517.816 -0.504498 3.94386 0
M  V30 5283 N 518.813 -1.54241 0.323641 0
M  V30 5284 C 520.062 -1.9975 -0.279806 0
M  V30 5285 C 520.375 -1.2156 -1.5324 0
M  V30 5286 O 521.581 -1.57447 -2.21185 0
M  V30 5287 C 520.037 -3.55686 -0.549115 0
M  V30 5288 C 519.645 -4.4271 0.686432 0
M  V30 5289 C 521.389 -4.09663 -1.11251 0
M  V30 5290 C 519.296 -5.90119 0.389022 0
M  V30 5291 H 518.226 -0.746177 -0.10833 0
M  V30 5292 H 520.877 -1.78248 0.435877 0
M  V30 5293 H 519.259 -3.73176 -1.32499 0
M  V30 5294 H 520.433 -4.36996 1.46188 0
M  V30 5295 H 518.748 -3.99623 1.17005 0
M  V30 5296 H 521.345 -5.17386 -1.34965 0
M  V30 5297 H 521.688 -3.61651 -2.06191 0
M  V30 5298 H 522.221 -3.95806 -0.39782 0
M  V30 5299 H 518.96 -6.42326 1.30759 0
M  V30 5300 H 518.48 -5.98785 -0.348722 0
M  V30 5301 H 520.159 -6.47 -0.0011164 0
M  V30 5302 N 520.291 -0.0518155 -1.57515 0
M  V30 5303 C 521.223 0.951542 -2.08515 0
M  V30 5304 C 522.236 1.27436 -1.01311 0
M  V30 5305 O 523.425 1.23504 -1.28876 0
M  V30 5306 C 520.525 2.27291 -2.5138 0
M  V30 5307 C 519.698 2.13191 -3.81927 0
M  V30 5308 C 518.757 3.28458 -4.11098 0
M  V30 5309 O 517.783 3.04334 -4.81009 0
M  V30 5310 N 518.985 4.52954 -3.63061 0
M  V30 5311 H 521.75 0.516242 -2.9522 0
M  V30 5312 H 519.311 0.13441 -1.61341 0
M  V30 5313 H 521.303 3.03272 -2.67971 0
M  V30 5314 H 519.873 2.62386 -1.69919 0
M  V30 5315 H 519.093 1.21798 -3.74912 0
M  V30 5316 H 520.381 2.00999 -4.67415 0
M  V30 5317 H 519.779 4.75444 -3.06545 0
M  V30 5318 H 518.336 5.26026 -3.84889 0
M  V30 5319 N 521.769 1.56035 0.221574 0
M  V30 5320 C 523.046 1.69837 0.970301 0
M  V30 5321 C 523.426 0.599065 2.02421 0
M  V30 5322 O 522.774 -0.393929 2.25079 0
M  V30 5323 C 522.984 3.11148 1.58076 0
M  V30 5324 C 524.332 3.70555 2.07302 0
M  V30 5325 O 525.356 3.14109 1.6797 0
M  V30 5326 O 524.215 4.69562 2.79596 0
M  V30 5327 H 521.309 0.691727 0.453257 0
M  V30 5328 H 523.855 1.68353 0.213358 0
M  V30 5329 H 522.627 3.82617 0.819759 0
M  V30 5330 H 522.25 3.16749 2.40324 0
M  V30 5331 N 523.247 -0.488276 1.49845 0
M  V30 5332 C 524.477 -1.26344 1.63465 0
M  V30 5333 C 524.885 -1.86637 0.310379 0
M  V30 5334 O 524.228 -1.69184 -0.715712 0
M  V30 5335 C 524.29 -2.42407 2.65479 0
M  V30 5336 C 523.954 -2.02886 4.09495 0
M  V30 5337 C 524.951 -1.56124 4.95904 0
M  V30 5338 C 522.636 -2.12131 4.55308 0
M  V30 5339 C 524.63 -1.19129 6.26169 0
M  V30 5340 C 522.317 -1.74747 5.85582 0
M  V30 5341 C 523.315 -1.28322 6.70837 0
M  V30 5342 O 523.003 -0.914491 7.98682 0
M  V30 5343 H 522.735 -0.388921 0.552916 0
M  V30 5344 H 525.289 -0.591288 1.96705 0
M  V30 5345 H 523.519 -3.12739 2.27445 0
M  V30 5346 H 525.208 -3.04409 2.68495 0
M  V30 5347 H 525.974 -1.48417 4.61733 0
M  V30 5348 H 521.853 -2.47217 3.89107 0
M  V30 5349 H 525.397 -0.828211 6.92666 0
M  V30 5350 H 521.294 -1.82109 6.19279 0
M  V30 5351 H 522.062 -1.04485 8.11804 0
M  V30 5352 N 524.725 -1.39134 -0.740242 0
M  V30 5353 C 525.972 -1.36071 -1.49969 0
M  V30 5354 C 526.3 0.0450245 -1.94448 0
M  V30 5355 O 525.555 1.02482 -1.66721 0
M  V30 5356 C 525.854 -2.27457 -2.75678 0
M  V30 5357 C 525.52 -3.75185 -2.50094 0
M  V30 5358 C 524.182 -4.15439 -2.42825 0
M  V30 5359 C 526.534 -4.68643 -2.28086 0
M  V30 5360 C 523.862 -5.4722 -2.11584 0
M  V30 5361 C 526.214 -6.00695 -1.98363 0
M  V30 5362 C 524.878 -6.40018 -1.8956 0
M  V30 5363 H 524.148 -0.497921 -0.548777 0
M  V30 5364 H 526.795 -1.71599 -0.85007 0
M  V30 5365 H 525.1 -1.8503 -3.45356 0
M  V30 5366 H 526.797 -2.22384 -3.33686 0
M  V30 5367 H 523.387 -3.43279 -2.56627 0
M  V30 5368 H 527.571 -4.3838 -2.32672 0
M  V30 5369 H 522.827 -5.76615 -2.03287 0
M  V30 5370 H 527.001 -6.72644 -1.80341 0
M  V30 5371 H 524.628 -7.42051 -1.65117 0
M  V30 5372 N 526.204 0.969867 -1.24223 0
M  V30 5373 C 527.134 2.08191 -1.05729 0
M  V30 5374 C 528.115 1.70075 0.0290765 0
M  V30 5375 O 529.3 1.93712 -0.137583 0
M  V30 5376 C 526.43 3.40991 -0.658995 0
M  V30 5377 C 525.384 3.93054 -1.69389 0
M  V30 5378 C 524.71 5.22171 -1.15072 0
M  V30 5379 C 526.01 4.21137 -3.08935 0
M  V30 5380 H 527.704 2.23921 -1.98746 0
M  V30 5381 H 525.25 1.07602 -0.956967 0
M  V30 5382 H 527.203 4.18221 -0.51662 0
M  V30 5383 H 525.927 3.25155 0.30686 0
M  V30 5384 H 524.586 3.17977 -1.82444 0
M  V30 5385 H 524.234 5.02694 -0.175539 0
M  V30 5386 H 523.934 5.57973 -1.84229 0
M  V30 5387 H 525.458 6.02013 -1.02042 0
M  V30 5388 H 526.872 4.8908 -2.99121 0
M  V30 5389 H 525.269 4.68163 -3.75425 0
M  V30 5390 H 526.339 3.27996 -3.57137 0
M  V30 5391 N 527.682 1.05563 1.17022 0
M  V30 5392 C 528.91 0.78845 1.91288 0
M  V30 5393 C 529.325 -0.656318 1.77025 0
M  V30 5394 O 528.682 -1.44869 1.10992 0
M  V30 5395 C 528.733 1.16444 3.42232 0
M  V30 5396 O 528.454 2.5525 3.5606 0
M  V30 5397 C 529.955 0.923937 4.33565 0
M  V30 5398 H 527.175 0.286389 0.606813 0
M  V30 5399 H 529.719 1.4073 1.48375 0
M  V30 5400 H 527.874 0.590266 3.82877 0
M  V30 5401 H 528.288 2.70097 4.49609 0
M  V30 5402 H 529.762 1.23672 5.37968 0
M  V30 5403 H 530.239 -0.140688 4.38975 0
M  V30 5404 H 530.845 1.48214 3.98639 0
M  V30 5405 N 529.16 -1.33526 0.837174 0
M  V30 5406 C 530.408 -1.97446 0.431211 0
M  V30 5407 C 530.729 -1.6665 -1.01255 0
M  V30 5408 O 529.999 -0.964559 -1.70508 0
M  V30 5409 H 528.579 -0.73043 0.156463 0
M  V30 5410 H 531.241 -1.62918 1.06976 0
M  V30 5411 H 530.337 -3.07001 0.561877 0
M  V30 5412 N 530.638 -0.59345 -1.46 0
M  V30 5413 C 531.868 -0.0889642 -2.06408 0
M  V30 5414 C 532.276 1.22597 -1.44106 0
M  V30 5415 O 531.619 1.75448 -0.544398 0
M  V30 5416 C 531.681 0.139902 -3.59228 0
M  V30 5417 C 531.345 -1.09107 -4.43784 0
M  V30 5418 C 532.342 -2.00577 -4.79651 0
M  V30 5419 C 530.027 -1.31593 -4.84756 0
M  V30 5420 C 532.021 -3.12873 -5.55328 0
M  V30 5421 C 529.708 -2.44192 -5.60191 0
M  V30 5422 C 530.706 -3.34661 -5.95392 0
M  V30 5423 O 530.394 -4.45302 -6.69299 0
M  V30 5424 H 530.126 -0.0594613 -0.67338 0
M  V30 5425 H 532.68 -0.817 -1.88452 0
M  V30 5426 H 530.91 0.922672 -3.75531 0
M  V30 5427 H 532.599 0.594228 -4.01527 0
M  V30 5428 H 533.365 -1.84425 -4.48567 0
M  V30 5429 H 529.244 -0.620801 -4.56801 0
M  V30 5430 H 532.788 -3.83511 -5.82722 0
M  V30 5431 H 528.685 -2.60303 -5.90688 0
M  V30 5432 H 529.453 -4.43805 -6.87735 0
M  V30 5433 N 532.116 1.54067 -0.331816 0
M  V30 5434 C 533.362 2.01012 0.268667 0
M  V30 5435 C 533.695 1.2195 1.51136 0
M  V30 5436 O 532.97 0.303972 1.9211 0
M  V30 5437 C 533.253 3.55158 0.59456 0
M  V30 5438 C 533.106 4.4494 -0.659409 0
M  V30 5439 C 534.425 4.16939 1.4089 0
M  V30 5440 H 531.544 0.730698 0.0961756 0
M  V30 5441 H 534.186 1.84593 -0.450031 0
M  V30 5442 H 532.336 3.6928 1.20685 0
M  V30 5443 H 534.008 4.42675 -1.29756 0
M  V30 5444 H 532.251 4.1428 -1.28665 0
M  V30 5445 H 532.922 5.50643 -0.386804 0
M  V30 5446 H 535.398 4.06443 0.891272 0
M  V30 5447 H 534.274 5.24889 1.60569 0
M  V30 5448 H 534.535 3.70798 2.40752 0
M  V30 5449 N 533.594 0.0601682 1.57485 0
M  V30 5450 C 534.84 -0.606552 1.94146 0
M  V30 5451 C 535.195 -1.67918 0.939225 0
M  V30 5452 O 534.488 -1.91558 -0.0402649 0
M  V30 5453 C 534.682 -1.23831 3.35262 0
M  V30 5454 C 534.511 -0.228408 4.4912 0
M  V30 5455 C 533.281 0.182813 5.04969 0
M  V30 5456 C 535.479 0.52975 5.11564 0
M  V30 5457 N 533.461 1.18464 6.02362 0
M  V30 5458 C 534.832 1.38439 6.04346 0
M  V30 5459 C 536.887 0.587084 4.94427 0
M  V30 5460 C 535.59 2.29125 6.81832 0
M  V30 5461 C 537.616 1.4814 5.72546 0
M  V30 5462 C 536.978 2.32375 6.64967 0
M  V30 5463 H 533.077 -0.193328 0.757726 0
M  V30 5464 H 535.661 0.1346 1.94234 0
M  V30 5465 H 533.832 -1.94944 3.35933 0
M  V30 5466 H 535.564 -1.86456 3.59188 0
M  V30 5467 H 532.319 -0.197968 4.73186 0
M  V30 5468 H 532.743 1.68271 6.55754 0
M  V30 5469 H 537.385 -0.049944 4.22771 0
M  V30 5470 H 535.103 2.93868 7.52773 0
M  V30 5471 H 538.689 1.53045 5.6131 0
M  V30 5472 H 537.569 3.00454 7.2436 0
M  V30 5473 N 535.072 -1.5615 -0.213296 0
M  V30 5474 C 536.297 -1.83986 -0.957282 0
M  V30 5475 C 536.722 -0.641526 -1.76822 0
M  V30 5476 O 536.08 0.409722 -1.7661 0
M  V30 5477 C 536.128 -3.09889 -1.84393 0
M  V30 5478 O 535.232 -2.89163 -2.94038 0
M  V30 5479 H 534.573 -0.606357 -0.270605 0
M  V30 5480 H 537.103 -2.03369 -0.224111 0
M  V30 5481 H 537.113 -3.40209 -2.25215 0
M  V30 5482 H 535.788 -3.96735 -1.24795 0
M  V30 5483 H 534.365 -2.70097 -2.57103 0
M  V30 5484 N 536.55 0.480323 -1.50102 0
M  V30 5485 C 537.513 1.56181 -1.6775 0
M  V30 5486 C 538.513 1.51156 -0.548503 0
M  V30 5487 O 539.703 1.5394 -0.815363 0
M  V30 5488 C 536.835 2.95823 -1.69415 0
M  V30 5489 H 538.028 1.41855 -2.6423 0
M  V30 5490 H 535.581 0.70605 -1.39444 0
M  V30 5491 H 536.316 3.15604 -0.745948 0
M  V30 5492 H 536.101 3.00878 -2.51425 0
M  V30 5493 H 537.591 3.74359 -1.85054 0
M  V30 5494 N 538.028 1.39524 0.732853 0
M  V30 5495 C 539.274 1.37068 1.49467 0
M  V30 5496 C 539.607 -0.0327166 1.94172 0
M  V30 5497 O 538.882 -0.998071 1.66939 0
M  V30 5498 C 539.165 2.34494 2.73285 0
M  V30 5499 C 539.018 3.83784 2.34585 0
M  V30 5500 C 540.337 2.29717 3.75391 0
M  V30 5501 H 537.456 0.499206 0.542183 0
M  V30 5502 H 540.098 1.70532 0.837783 0
M  V30 5503 H 538.248 2.06087 3.29333 0
M  V30 5504 H 539.92 4.22949 1.84151 0
M  V30 5505 H 538.163 4.00455 1.66787 0
M  V30 5506 H 538.834 4.47444 3.23262 0
M  V30 5507 H 541.31 2.54839 3.28932 0
M  V30 5508 H 540.186 2.99962 4.59689 0
M  V30 5509 H 540.447 1.30291 4.22465 0
M  V30 5510 N 539.506 -0.963266 1.24736 0
M  V30 5511 C 540.734 -1.74166 1.11686 0
M  V30 5512 C 541.149 -1.8589 -0.330187 0
M  V30 5513 O 540.506 -1.35042 -1.2276 0
M  V30 5514 C 540.557 -3.15989 1.75595 0
M  V30 5515 O 540.278 -3.04847 3.14642 0
M  V30 5516 C 541.779 -4.10145 1.68213 0
M  V30 5517 H 538.999 -0.546031 0.389989 0
M  V30 5518 H 541.543 -1.20907 1.64929 0
M  V30 5519 H 539.698 -3.66219 1.26343 0
M  V30 5520 H 540.112 -3.9425 3.4593 0
M  V30 5521 H 541.586 -5.07299 2.17604 0
M  V30 5522 H 542.063 -4.3445 0.644208 0
M  V30 5523 H 542.669 -3.65827 2.16912 0
M  V30 5524 N 540.985 -1.06182 -1.16461 0
M  V30 5525 C 542.396 -0.802426 -1.68576 0
M  V30 5526 C 542.747 0.67412 -1.84255 0
M  V30 5527 O 541.872 1.52303 -1.5373 0
M  V30 5528 C 542.467 -1.45002 -3.06202 0
M  V30 5529 C 541.026 -1.23843 -3.55443 0
M  V30 5530 C 540.173 -1.52724 -2.31454 0
M  V30 5531 H 543.124 -1.22545 -1.00839 0
M  V30 5532 H 543.145 -0.864731 -3.70544 0
M  V30 5533 H 542.657 -2.52466 -2.94759 0
M  V30 5534 H 540.758 -0.183487 -3.72148 0
M  V30 5535 H 540.871 -1.95036 -4.37604 0
M  V30 5536 H 539.235 -0.947726 -2.36411 0
M  V30 5537 H 540.018 -2.61343 -2.22609 0
M  V30 5538 N 542.463 1.3308 -0.844243 0
M  V30 5539 C 543.688 2.02341 -0.455282 0
M  V30 5540 C 544.113 1.6308 0.93737 0
M  V30 5541 O 543.471 0.826118 1.61385 0
M  V30 5542 C 543.519 3.55743 -0.58988 0
M  V30 5543 O 542.623 4.1063 0.38166 0
M  V30 5544 H 541.964 0.637898 -0.184343 0
M  V30 5545 H 544.494 1.6986 -1.14056 0
M  V30 5546 H 544.504 4.05243 -0.473522 0
M  V30 5547 H 543.179 3.83662 -1.60549 0
M  V30 5548 H 541.756 3.72236 0.22241 0
M  V30 5549 N 543.941 0.601185 1.45683 0
M  V30 5550 C 545.352 0.179659 1.85834 0
M  V30 5551 C 545.703 -1.26189 1.50236 0
M  V30 5552 O 544.828 -1.95587 0.925987 0
M  V30 5553 C 545.423 0.319277 3.37292 0
M  V30 5554 C 543.982 -0.0475092 3.7637 0
M  V30 5555 C 543.129 0.646692 2.69654 0
M  V30 5556 H 546.08 0.808268 1.36575 0
M  V30 5557 H 546.101 -0.4503 3.77826 0
M  V30 5558 H 545.613 1.36855 3.6317 0
M  V30 5559 H 543.714 -1.0962 3.5611 0
M  V30 5560 H 543.827 0.34168 4.7788 0
M  V30 5561 H 542.191 0.0849971 2.54558 0
M  V30 5562 H 542.974 1.69797 2.98369 0
M  V30 5563 N 545.419 -1.53889 0.339982 0
M  V30 5564 C 546.329 -2.28604 -0.526988 0
M  V30 5565 C 547.345 -1.33578 -1.11503 0
M  V30 5566 O 548.521 -1.66612 -1.13148 0
M  V30 5567 C 545.586 -3.04164 -1.66389 0
M  V30 5568 C 544.647 -4.14809 -1.10599 0
M  V30 5569 C 543.88 -4.86756 -2.18871 0
M  V30 5570 O 544.103 -4.58343 -3.39526 0
M  V30 5571 O 543.037 -5.73289 -1.83366 0
M  V30 5572 H 546.863 -3.03594 0.0802707 0
M  V30 5573 H 544.448 -1.4903 0.105141 0
M  V30 5574 H 546.33 -3.51427 -2.32544 0
M  V30 5575 H 545.005 -2.32035 -2.25703 0
M  V30 5576 H 543.912 -3.71857 -0.409067 0
M  V30 5577 H 545.245 -4.89029 -0.557771 0
M  V30 5578 N 546.897 -0.0685191 -1.57451 0
M  V30 5579 C 547.847 0.909895 -2.09057 0
M  V30 5580 C 548.831 1.26088 -0.999528 0
M  V30 5581 O 550.023 1.24041 -1.26265 0
M  V30 5582 C 547.152 2.17863 -2.65312 0
M  V30 5583 C 546.238 1.85427 -3.81415 0
M  V30 5584 N 546.629 1.23426 -4.9051 0
M  V30 5585 C 544.927 2.15196 -3.90649 0
M  V30 5586 C 545.628 1.09008 -5.71395 0
M  V30 5587 N 544.604 1.59871 -5.1956 0
M  V30 5588 H 548.406 0.426145 -2.90794 0
M  V30 5589 H 545.92 0.135462 -1.61834 0
M  V30 5590 H 547.917 2.88872 -3.00597 0
M  V30 5591 H 546.577 2.66829 -1.85021 0
M  V30 5592 H 547.588 0.904305 -5.09944 0
M  V30 5593 H 544.265 2.66562 -3.21327 0
M  V30 5594 H 545.655 0.607305 -6.6915 0
M  V30 5595 N 548.375 1.56261 0.205012 0
M  V30 5596 C 549.305 1.96779 1.257 0
M  V30 5597 C 550.286 0.838309 1.48008 0
M  V30 5598 O 551.471 1.10189 1.59913 0
M  V30 5599 C 548.601 2.29876 2.60335 0
M  V30 5600 C 547.555 3.45469 2.52656 0
M  V30 5601 C 546.881 3.64215 3.91473 0
M  V30 5602 C 548.181 4.79954 2.06014 0
M  V30 5603 H 549.875 2.84904 0.920338 0
M  V30 5604 H 547.421 1.37072 0.441277 0
M  V30 5605 H 549.374 2.56814 3.34102 0
M  V30 5606 H 548.098 1.38622 2.95722 0
M  V30 5607 H 546.757 3.18605 1.81345 0
M  V30 5608 H 546.405 2.70309 4.24196 0
M  V30 5609 H 546.105 4.41973 3.87213 0
M  V30 5610 H 547.629 3.93519 4.66878 0
M  V30 5611 H 549.043 5.05989 2.69533 0
M  V30 5612 H 547.44 5.61111 2.12777 0
M  V30 5613 H 548.51 4.74201 1.01297 0
M  V30 5614 N 549.853 -0.472356 1.50355 0
M  V30 5615 C 551.101 -1.22211 1.60962 0
M  V30 5616 C 551.422 -1.92497 0.311439 0
M  V30 5617 O 550.692 -1.8405 -0.671002 0
M  V30 5618 H 549.272 -0.454092 0.593135 0
M  V30 5619 H 551.934 -0.544977 1.87126 0
M  V30 5620 H 551.03 -1.9707 2.42012 0
M  V30 5621 N 551.331 -1.39911 -0.725443 0
M  V30 5622 C 552.608 -1.28158 -1.47766 0
M  V30 5623 C 552.988 0.104545 -2.10841 0
M  V30 5624 O 552.336 1.11657 -1.99361 0
M  V30 5625 C 552.546 -2.41306 -2.52135 0
M  V30 5626 C 553.894 -2.81076 -3.18247 0
M  V30 5627 O 554.918 -2.40827 -2.62452 0
M  V30 5628 O 553.777 -3.50581 -4.19231 0
M  V30 5629 H 550.871 -0.502761 -0.656628 0
M  V30 5630 H 553.417 -1.51808 -0.758456 0
M  V30 5631 H 552.189 -3.33932 -2.03974 0
M  V30 5632 H 551.812 -2.19374 -3.31603 0
M  V30 5633 N 552.809 0.956637 -1.25245 0
M  V30 5634 C 553.719 2.0868 -1.0719 0
M  V30 5635 C 554.735 1.73997 -0.00959074 0
M  V30 5636 O 555.911 2.00301 -0.210104 0
M  V30 5637 C 552.976 3.39754 -0.690526 0
M  V30 5638 C 552.037 3.88316 -1.83055 0
M  V30 5639 C 551.27 5.13134 -1.46728 0
M  V30 5640 O 551.493 5.6925 -0.362029 0
M  V30 5641 O 550.427 5.56356 -2.29677 0
M  V30 5642 H 554.253 2.26813 -2.01965 0
M  V30 5643 H 551.838 1.07098 -1.04165 0
M  V30 5644 H 553.72 4.18543 -0.489871 0
M  V30 5645 H 552.395 3.22896 0.227981 0
M  V30 5646 H 551.302 3.1054 -2.08604 0
M  V30 5647 H 552.635 4.09669 -2.72822 0
M  V30 5648 N 554.287 1.06798 1.15896 0
M  V30 5649 C 555.533 0.788934 1.86825 0
M  V30 5650 C 555.866 -0.683084 1.8179 0
M  V30 5651 O 555.141 -1.50086 1.23711 0
M  V30 5652 C 555.424 1.29065 3.36176 0
M  V30 5653 C 555.277 2.8268 3.49874 0
M  V30 5654 C 556.596 0.902655 4.30744 0
M  V30 5655 H 553.715 0.288066 0.678371 0
M  V30 5656 H 556.357 1.32479 1.36195 0
M  V30 5657 H 554.507 0.834806 3.79425 0
M  V30 5658 H 556.179 3.36511 3.15528 0
M  V30 5659 H 554.422 3.21157 2.91617 0
M  V30 5660 H 555.093 3.12852 4.54783 0
M  V30 5661 H 557.569 1.29535 3.95424 0
M  V30 5662 H 556.445 1.28111 5.3374 0
M  V30 5663 H 556.706 -0.191951 4.41683 0
M  V30 5664 N 555.766 -1.3263 0.851289 0
M  V30 5665 C 556.714 -2.30882 0.282202 0
M  V30 5666 C 557.708 -1.58697 -0.592589 0
M  V30 5667 O 558.914 -1.73461 -0.480768 0
M  V30 5668 H 555.289 -0.748492 0.0725487 0
M  V30 5669 H 557.26 -2.76374 1.12516 0
M  V30 5670 C 556.009 -3.43828 -0.517449 0
M  V30 5671 H 555.332 -3.99532 0.146392 0
M  V30 5672 H 556.772 -4.1474 -0.88128 0
M  V30 5673 C 555.231 -2.90786 -1.70133 0
M  V30 5674 O 555.761 -2.88 -2.80034 0
M  V30 5675 N 553.967 -2.4723 -1.52728 0
M  V30 5676 H 553.514 -2.49695 -0.633257 0
M  V30 5677 H 553.472 -2.12094 -2.32085 0
M  V30 5678 N 557.244 -0.608902 -1.45362 0
M  V30 5679 C 558.174 0.0964526 -2.33301 0
M  V30 5680 C 559.155 0.857444 -1.46908 0
M  V30 5681 O 560.34 0.827735 -1.75676 0
M  V30 5682 C 557.47 1.09354 -3.29635 0
M  V30 5683 C 556.424 0.445676 -4.25673 0
M  V30 5684 C 555.75 1.5511 -5.11708 0
M  V30 5685 C 557.05 -0.633972 -5.18438 0
M  V30 5686 H 558.744 -0.637829 -2.92527 0
M  V30 5687 H 556.29 -0.308178 -1.40664 0
M  V30 5688 H 558.243 1.59556 -3.90025 0
M  V30 5689 H 556.967 1.85843 -2.6857 0
M  V30 5690 H 555.626 -0.0354897 -3.66583 0
M  V30 5691 H 555.274 2.30631 -4.4701 0
M  V30 5692 H 554.974 1.12311 -5.76767 0
M  V30 5693 H 556.498 2.05537 -5.74967 0
M  V30 5694 H 557.912 -0.215974 -5.72893 0
M  V30 5695 H 556.309 -0.983789 -5.91981 0
M  V30 5696 H 557.379 -1.51005 -4.60788 0
M  V30 5697 N 558.722 1.53707 -0.348139 0
M  V30 5698 C 559.669 2.25173 0.506518 0
M  V30 5699 C 560.639 1.25174 1.09182 0
M  V30 5700 O 561.824 1.53917 1.12757 0
M  V30 5701 C 558.964 3.03141 1.64923 0
M  V30 5702 C 558.077 4.18002 1.0908 0
M  V30 5703 C 557.212 4.83447 2.20119 0
M  V30 5704 C 556.251 5.90369 1.61651 0
M  V30 5705 N 555.388 6.49575 2.66451 0
M  V30 5706 H 560.228 2.97799 -0.109452 0
M  V30 5707 H 557.765 1.46953 -0.0657866 0
M  V30 5708 H 559.723 3.46607 2.32205 0
M  V30 5709 H 558.353 2.32803 2.23612 0
M  V30 5710 H 557.405 3.79145 0.308783 0
M  V30 5711 H 558.717 4.94892 0.623178 0
M  V30 5712 H 557.871 5.30008 2.95257 0
M  V30 5713 H 556.61 4.05991 2.70227 0
M  V30 5714 H 555.615 5.43186 0.850209 0
M  V30 5715 H 556.84 6.69735 1.1239 0
M  V30 5716 H 554.786 5.74981 3.15805 0
M  V30 5717 H 554.703 7.21952 2.24325 0
M  V30 5718 H 555.971 7.00789 3.41344 0
M  V30 5719 N 560.2 0.0768682 1.57412 0
M  V30 5720 C 561.446 -0.591961 1.93968 0
M  V30 5721 C 561.779 -1.68954 0.9575 0
M  V30 5722 O 561.054 -1.94496 -0.0124675 0
M  V30 5723 C 561.337 -1.16418 3.40762 0
M  V30 5724 C 561.19 -0.0728933 4.49741 0
M  V30 5725 C 562.509 -2.06814 3.88479 0
M  V30 5726 H 559.628 -0.213716 0.705333 0
M  V30 5727 H 562.27 0.14387 1.89455 0
M  V30 5728 H 560.42 -1.79128 3.4474 0
M  V30 5729 H 562.092 0.560446 4.57883 0
M  V30 5730 H 560.335 0.595859 4.29688 0
M  V30 5731 H 561.006 -0.513755 5.49604 0
M  V30 5732 H 563.482 -1.54033 3.8654 0
M  V30 5733 H 562.358 -2.43785 4.91793 0
M  V30 5734 H 562.619 -2.97844 3.26713 0
M  V30 5735 N 561.678 -1.56367 -0.196722 0
M  V30 5736 C 562.906 -1.84639 -0.933608 0
M  V30 5737 C 563.321 -0.659164 -1.76919 0
M  V30 5738 O 562.678 0.372142 -1.78665 0
M  V30 5739 C 562.729 -3.11694 -1.83109 0
M  V30 5740 O 562.45 -4.25838 -1.02924 0
M  V30 5741 C 563.951 -3.53132 -2.67979 0
M  V30 5742 H 561.171 -0.613188 -0.272473 0
M  V30 5743 H 563.715 -2.03475 -0.204465 0
M  V30 5744 H 561.87 -2.94759 -2.51387 0
M  V30 5745 H 562.284 -4.98178 -1.64069 0
M  V30 5746 H 563.758 -4.45005 -3.26611 0
M  V30 5747 H 564.235 -2.76045 -3.41608 0
M  V30 5748 H 564.841 -3.72592 -2.05074 0
M  V30 5749 N 563.156 0.464375 -1.50603 0
M  V30 5750 C 564.402 1.21776 -1.62168 0
M  V30 5751 C 564.735 1.91476 -0.324154 0
M  V30 5752 O 564.01 1.8242 0.674782 0
M  V30 5753 C 564.293 2.25614 -2.80661 0
M  V30 5754 C 564.146 1.60175 -4.20314 0
M  V30 5755 C 565.465 3.26862 -2.94702 0
M  V30 5756 H 562.584 0.44137 -0.590222 0
M  V30 5757 H 565.226 0.510623 -1.8301 0
M  V30 5758 H 563.376 2.85923 -2.63021 0
M  V30 5759 H 565.048 1.03411 -4.4956 0
M  V30 5760 H 563.291 0.904697 -4.24261 0
M  V30 5761 H 563.962 2.35665 -4.99165 0
M  V30 5762 H 566.438 2.76582 -3.10872 0
M  V30 5763 H 565.314 3.96839 -3.79223 0
M  V30 5764 H 565.575 3.91382 -2.05603 0
M  V30 5765 N 564.634 1.40294 0.718013 0
M  V30 5766 C 565.564 1.43118 1.84498 0
M  V30 5767 C 566.545 0.292403 1.67568 0
M  V30 5768 O 567.73 0.500675 1.87635 0
M  V30 5769 C 564.86 1.29065 3.22427 0
M  V30 5770 C 563.814 2.40521 3.54025 0
M  V30 5771 C 563.14 2.11546 4.91073 0
M  V30 5772 C 564.44 3.82859 3.55269 0
M  V30 5773 H 566.134 2.37432 1.82391 0
M  V30 5774 H 563.68 1.14283 0.87609 0
M  V30 5775 H 565.633 1.29658 4.00957 0
M  V30 5776 H 564.357 0.312271 3.25104 0
M  V30 5777 H 563.016 2.39173 2.77834 0
M  V30 5778 H 562.664 1.12104 4.90348 0
M  V30 5779 H 562.364 2.86216 5.1318 0
M  V30 5780 H 563.888 2.13817 5.71939 0
M  V30 5781 H 565.302 3.86044 4.23843 0
M  V30 5782 H 563.699 4.57029 3.88902 0
M  V30 5783 H 564.769 4.12617 2.54706 0
M  V30 5784 N 566.112 -0.949982 1.2575 0
M  V30 5785 C 567.352 -1.70994 1.11984 0
M  V30 5786 C 567.716 -1.89095 -0.332746 0
M  V30 5787 O 568.917 -2.62192 -0.592331 0
M  V30 5788 C 567.188 -3.05286 1.85837 0
M  V30 5789 S 568.747 -3.96477 1.88019 0
M  V30 5790 H 565.565 -0.587689 0.400178 0
M  V30 5791 H 568.167 -1.13271 1.59342 0
M  V30 5792 H 566.871 -2.89785 2.90608 0
M  V30 5793 H 566.402 -3.68069 1.38885 0
M  V30 5794 H 568.417 -4.86814 0.96057 0
M  V30 5795 N 567.59 -1.07411 -1.15328 0
M  V30 5796 C 568.867 -0.710732 -1.82231 0
M  V30 5797 C 569.247 0.806732 -1.95077 0
M  V30 5798 O 568.595 1.72139 -1.50268 0
M  V30 5799 C 568.805 -1.42586 -3.18544 0
M  V30 5800 C 570.153 -1.57836 -3.94174 0
M  V30 5801 O 571.177 -1.38669 -3.281 0
M  V30 5802 O 570.036 -1.8938 -5.12638 0
M  V30 5803 H 567.13 -0.25297 -0.78736 0
M  V30 5804 H 569.676 -1.17508 -1.22434 0
M  V30 5805 H 568.448 -2.46008 -3.04296 0
M  V30 5806 H 568.071 -0.952332 -3.86026 0
M  V30 5807 N 569.068 1.32177 -0.85831 0
M  V30 5808 C 570.484 1.49873 -0.548656 0
M  V30 5809 C 570.684 1.79278 0.919874 0
M  V30 5810 O 569.74 1.86451 1.70271 0
M  V30 5811 C 571.053 2.64043 -1.4388 0
M  V30 5812 C 572.601 2.77928 -1.43961 0
M  V30 5813 C 573.076 3.95182 -2.31506 0
M  V30 5814 N 574.567 4.0245 -2.29321 0
M  V30 5815 C 575.302 4.9242 -2.93786 0
M  V30 5816 N 574.798 5.87373 -3.67376 0
M  V30 5817 N 576.591 4.85572 -2.83155 0
M  V30 5818 H 568.742 1.11357 -1.80868 0
M  V30 5819 H 571.005 0.549175 -0.772729 0
M  V30 5820 H 570.711 2.49055 -2.48324 0
M  V30 5821 H 570.585 3.59912 -1.12885 0
M  V30 5822 H 572.972 2.92338 -0.402813 0
M  V30 5823 H 573.053 1.82762 -1.78974 0
M  V30 5824 H 572.697 3.81531 -3.35256 0
M  V30 5825 H 572.627 4.89633 -1.93823 0
M  V30 5826 H 575.118 3.34507 -1.75822 0
M  V30 5827 H 575.431 6.52728 -4.13722 0
M  V30 5828 H 573.776 5.87388 -3.71484 0
M  V30 5829 H 576.967 4.10363 -2.25211 0
M  V30 5830 H 577.14 5.55486 -3.33676 0
M  V30 5831 N 570.547 0.616602 1.45037 0
M  V30 5832 C 571.477 -0.0840787 2.33349 0
M  V30 5833 C 572.458 -0.849641 1.4736 0
M  V30 5834 O 573.643 -0.818407 1.76113 0
M  V30 5835 C 570.773 -1.07604 3.3021 0
M  V30 5836 C 569.727 -0.423096 4.25904 0
M  V30 5837 C 569.053 -1.52394 5.12523 0
M  V30 5838 C 570.353 0.661457 5.18095 0
M  V30 5839 H 572.047 0.653333 2.92185 0
M  V30 5840 H 569.593 0.315634 1.40498 0
M  V30 5841 H 571.546 -1.57485 3.90866 0
M  V30 5842 H 570.27 -1.84416 2.69552 0
M  V30 5843 H 568.929 0.05493 3.66559 0
M  V30 5844 H 568.577 -2.28257 4.48227 0
M  V30 5845 H 568.277 -1.09251 5.77354 0
M  V30 5846 H 569.801 -2.02485 5.76049 0
M  V30 5847 H 571.215 0.246353 5.7277 0
M  V30 5848 H 569.612 1.01517 5.91451 0
M  V30 5849 H 570.682 1.53446 4.59981 0
M  V30 5850 N 572.025 -1.5352 0.356285 0
M  V30 5851 C 572.957 -2.23009 -0.529127 0
M  V30 5852 C 573.97 -1.241 -1.05371 0
M  V30 5853 O 575.159 -1.50379 -0.961679 0
M  V30 5854 C 572.259 -2.90685 -1.74229 0
M  V30 5855 C 571.432 -4.16019 -1.35081 0
M  V30 5856 C 570.491 -4.66989 -2.42502 0
M  V30 5857 O 569.517 -5.30895 -2.05279 0
M  V30 5858 N 570.719 -4.44006 -3.7395 0
M  V30 5859 H 573.484 -2.99627 0.0660501 0
M  V30 5860 H 571.045 -1.60885 0.181014 0
M  V30 5861 H 573.037 -3.21695 -2.4555 0
M  V30 5862 H 571.607 -2.17575 -2.24454 0
M  V30 5863 H 570.827 -3.91414 -0.467833 0
M  V30 5864 H 572.115 -4.9752 -1.06542 0
M  V30 5865 H 571.513 -3.92924 -4.06973 0
M  V30 5866 H 570.07 -4.7959 -4.41403 0
M  V30 5867 N 573.503 -0.0852151 -1.57369 0
M  V30 5868 C 574.413 0.891712 -2.16992 0
M  V30 5869 C 575.429 1.3174 -1.13669 0
M  V30 5870 O 576.605 1.38735 -1.45995 0
M  V30 5871 C 573.67 2.13635 -2.73059 0
M  V30 5872 C 572.731 1.7658 -3.91303 0
M  V30 5873 C 571.964 2.95111 -4.44686 0
M  V30 5874 O 572.187 4.09539 -3.97032 0
M  V30 5875 O 571.121 2.74149 -5.35841 0
M  V30 5876 H 574.947 0.414477 -3.00858 0
M  V30 5877 H 572.532 0.138598 -1.48756 0
M  V30 5878 H 574.414 2.86595 -3.08935 0
M  V30 5879 H 573.089 2.6043 -1.92244 0
M  V30 5880 H 571.996 1.00831 -3.60255 0
M  V30 5881 H 573.329 1.34557 -4.7345 0
M  V30 5882 N 574.981 1.5647 0.188427 0
M  V30 5883 C 575.944 1.9421 1.21718 0
M  V30 5884 C 576.944 0.823901 1.38089 0
M  V30 5885 O 578.134 1.09122 1.35787 0
M  V30 5886 C 575.266 2.22197 2.58537 0
M  V30 5887 H 576.459 2.86252 0.894418 0
M  V30 5888 H 574.012 1.50263 0.430211 0
M  V30 5889 H 574.747 1.32814 2.95856 0
M  V30 5890 H 574.532 3.03688 2.48025 0
M  V30 5891 H 576.022 2.52376 3.3271 0
M  V30 5892 N 576.459 -0.456382 1.50847 0
M  V30 5893 C 577.389 -1.56025 1.73719 0
M  V30 5894 C 578.37 -1.5967 0.586473 0
M  V30 5895 O 579.555 -1.75702 0.827185 0
M  V30 5896 C 576.685 -2.94251 1.84483 0
M  V30 5897 C 575.639 -3.05471 2.99786 0
M  V30 5898 C 574.965 -4.45489 2.95709 0
M  V30 5899 C 576.265 -2.81318 4.40065 0
M  V30 5900 H 577.959 -1.37138 2.66146 0
M  V30 5901 H 575.505 -0.658299 1.28072 0
M  V30 5902 H 577.458 -3.71417 1.99067 0
M  V30 5903 H 576.182 -3.14328 0.886891 0
M  V30 5904 H 574.841 -2.30741 2.84876 0
M  V30 5905 H 574.489 -4.62505 1.97732 0
M  V30 5906 H 574.189 -4.53929 3.73125 0
M  V30 5907 H 575.713 -5.24655 3.12362 0
M  V30 5908 H 577.127 -3.48226 4.55425 0
M  V30 5909 H 575.524 -3.01188 5.19043 0
M  V30 5910 H 576.594 -1.7706 4.51418 0
M  V30 5911 N 577.937 -1.40673 -0.710563 0
M  V30 5912 C 579.165 -1.42547 -1.4996 0
M  V30 5913 C 579.58 -0.0265485 -1.88781 0
M  V30 5914 O 578.937 0.950694 -1.55782 0
M  V30 5915 C 578.988 -2.32071 -2.77173 0
M  V30 5916 O 578.709 -3.66518 -2.39992 0
M  V30 5917 C 580.21 -2.42591 -3.71032 0
M  V30 5918 H 577.43 -0.486025 -0.462623 0
M  V30 5919 H 579.974 -1.84783 -0.876102 0
M  V30 5920 H 578.129 -1.93184 -3.35795 0
M  V30 5921 H 578.543 -4.14115 -3.21884 0
M  V30 5922 H 580.017 -3.09429 -4.57119 0
M  V30 5923 H 580.494 -1.4525 -4.14486 0
M  V30 5924 H 581.1 -2.82051 -3.18319 0
M  V30 5925 N 579.415 0.9433 -1.26252 0
M  V30 5926 C 580.662 1.68925 -1.11672 0
M  V30 5927 C 580.99 1.91499 0.340329 0
M  V30 5928 O 580.245 1.49189 1.26653 0
M  V30 5929 C 580.544 3.07073 -1.82868 0
M  V30 5930 C 580.21 3.04262 -3.32769 0
M  V30 5931 C 578.872 3.03203 -3.7366 0
M  V30 5932 C 581.224 2.96729 -4.28487 0
M  V30 5933 C 578.552 2.92373 -5.0866 0
M  V30 5934 C 580.904 2.87442 -5.63525 0
M  V30 5935 C 579.568 2.84724 -6.03729 0
M  V30 5936 H 578.838 0.618141 -0.408635 0
M  V30 5937 H 581.485 1.10124 -1.56668 0
M  V30 5938 H 579.79 3.69486 -1.30335 0
M  V30 5939 H 581.487 3.63635 -1.69029 0
M  V30 5940 H 578.077 3.05865 -3.00241 0
M  V30 5941 H 582.261 2.96658 -3.97879 0
M  V30 5942 H 577.517 2.88645 -5.38975 0
M  V30 5943 H 581.691 2.80576 -6.37377 0
M  V30 5944 H 579.318 2.76089 -7.08293 0
M  V30 5945 N 580.893 1.08022 1.14757 0
M  V30 5946 C 582.121 0.828847 1.89572 0
M  V30 5947 C 582.536 -0.618621 1.78377 0
M  V30 5948 O 581.893 -1.42482 1.1404 0
M  V30 5949 C 581.944 1.23677 3.39685 0
M  V30 5950 O 581.665 2.62746 3.50566 0
M  V30 5951 C 583.166 1.01569 4.31507 0
M  V30 5952 H 580.386 0.299196 0.600602 0
M  V30 5953 H 582.93 1.43846 1.45357 0
M  V30 5954 H 581.085 0.671347 3.81539 0
M  V30 5955 H 581.499 2.79573 4.43778 0
M  V30 5956 H 582.973 1.35055 5.35223 0
M  V30 5957 H 583.45 -0.0475433 4.39174 0
M  V30 5958 H 584.056 1.56636 3.95405 0
M  V30 5959 N 582.371 -1.3172 0.865308 0
M  V30 5960 C 583.611 -1.98675 0.480365 0
M  V30 5961 C 583.975 -1.66929 -0.948621 0
M  V30 5962 O 585.176 -2.27059 -1.43867 0
M  V30 5963 C 583.447 -3.49972 0.724858 0
M  V30 5964 S 585.006 -4.36598 0.439078 0
M  V30 5965 H 581.824 -0.687967 0.179506 0
M  V30 5966 H 584.426 -1.60215 1.12033 0
M  V30 5967 H 583.13 -3.70567 1.76375 0
M  V30 5968 H 582.661 -3.93335 0.0717173 0
M  V30 5969 H 584.676 -4.90792 -0.730564 0
M  V30 5970 N 583.85 -0.624285 -1.44708 0
M  V30 5971 C 584.798 0.0969952 -2.32398 0
M  V30 5972 C 585.792 0.842762 -1.46949 0
M  V30 5973 O 586.998 0.756436 -1.63334 0
M  V30 5974 H 583.373 0.0501306 -0.750327 0
M  V30 5975 H 585.344 -0.660767 -2.90992 0
M  V30 5976 C 584.093 1.06967 -3.30837 0
M  V30 5977 H 583.416 0.505242 -3.96595 0
M  V30 5978 H 584.856 1.54397 -3.94889 0
M  V30 5979 C 583.315 2.15153 -2.5925 0
M  V30 5980 O 583.845 3.23139 -2.3863 0
M  V30 5981 N 582.051 1.90898 -2.19103 0
M  V30 5982 H 581.598 1.03086 -2.36074 0
M  V30 5983 H 581.556 2.63485 -1.71531 0
M  V30 5984 N 585.328 1.53329 -0.364422 0
M  V30 5985 C 586.568 2.0315 0.22572 0
M  V30 5986 C 586.932 1.24589 1.46087 0
M  V30 5987 O 588.133 1.64411 2.12656 0
M  V30 5988 C 586.404 3.53718 0.511663 0
M  V30 5989 S 587.963 4.25412 1.07564 0
M  V30 5990 H 584.781 0.70795 0.0657843 0
M  V30 5991 H 587.383 1.88811 -0.507019 0
M  V30 5992 H 586.087 4.08497 -0.394784 0
M  V30 5993 H 585.618 3.72217 1.27351 0
M  V30 5994 H 587.633 4.36486 2.35997 0
M  V30 5995 N 586.806 0.0935595 1.57322 0
M  V30 5996 C 588.031 -0.582324 1.99057 0
M  V30 5997 C 588.456 -1.61025 0.972242 0
M  V30 5998 O 587.814 -1.81202 -0.0594622 0
M  V30 5999 C 587.862 -1.20799 3.39765 0
M  V30 6000 O 586.966 -2.32382 3.40694 0
M  V30 6001 H 586.307 -0.147884 0.647323 0
M  V30 6002 H 588.837 0.174516 2.03854 0
M  V30 6003 H 588.847 -1.54966 3.77425 0
M  V30 6004 H 587.522 -0.454914 4.13405 0
M  V30 6005 H 586.099 -1.99845 3.14827 0
M  V30 6006 N 588.284 -1.56567 -0.180126 0
M  V30 6007 C 589.509 -1.85975 -0.918041 0
M  V30 6008 C 589.934 -0.678888 -1.75422 0
M  V30 6009 O 589.292 0.372168 -1.77439 0
M  V30 6010 C 589.34 -3.13731 -1.77779 0
M  V30 6011 O 588.444 -2.95335 -2.87838 0
M  V30 6012 H 587.785 -0.61196 -0.257683 0
M  V30 6013 H 590.315 -2.03798 -0.180923 0
M  V30 6014 H 590.325 -3.4491 -2.17948 0
M  V30 6015 H 589 -3.99293 -1.16352 0
M  V30 6016 H 587.577 -2.7549 -2.51316 0
M  V30 6017 N 589.762 0.448376 -1.51087 0
M  V30 6018 C 590.99 1.22143 -1.66999 0
M  V30 6019 C 591.405 1.85283 -0.362699 0
M  V30 6020 O 590.762 1.70236 0.65772 0
M  V30 6021 C 590.813 2.31357 -2.7777 0
M  V30 6022 O 590.534 1.70801 -4.03434 0
M  V30 6023 C 592.035 3.21836 -3.04855 0
M  V30 6024 H 589.255 0.368558 -0.560719 0
M  V30 6025 H 591.799 0.532618 -1.97442 0
M  V30 6026 H 589.954 2.95973 -2.49958 0
M  V30 6027 H 590.368 2.42895 -4.64868 0
M  V30 6028 H 591.842 3.94627 -3.85971 0
M  V30 6029 H 592.319 3.81949 -2.16821 0
M  V30 6030 H 592.925 2.62933 -3.34285 0
M  V30 6031 N 591.24 1.41047 0.703093 0
M  V30 6032 C 592.486 1.40207 1.46526 0
M  V30 6033 C 592.819 0.00847763 1.94198 0
M  V30 6034 O 592.094 -0.962437 1.69019 0
M  V30 6035 C 592.377 2.40238 2.6825 0
M  V30 6036 C 592.23 3.88674 2.26391 0
M  V30 6037 C 593.549 2.37627 3.70434 0
M  V30 6038 H 590.668 0.510594 0.531472 0
M  V30 6039 H 593.31 1.72271 0.801422 0
M  V30 6040 H 591.46 2.13026 3.24888 0
M  V30 6041 H 593.132 4.2676 1.75138 0
M  V30 6042 H 591.375 4.03903 1.58255 0
M  V30 6043 H 592.046 4.542 3.13698 0
M  V30 6044 H 594.522 2.61759 3.23452 0
M  V30 6045 H 593.398 3.09645 4.53223 0
M  V30 6046 H 593.659 1.39223 4.19606 0
M  V30 6047 N 592.718 -0.936591 1.26751 0
M  V30 6048 C 593.995 -1.66094 1.03306 0
M  V30 6049 C 594.375 -2.06568 -0.435058 0
M  V30 6050 O 593.723 -1.79305 -1.41641 0
M  V30 6051 C 593.933 -2.86969 1.98619 0
M  V30 6052 C 595.281 -3.58516 2.27489 0
M  V30 6053 O 596.305 -2.97082 1.96522 0
M  V30 6054 O 595.164 -4.69181 2.80235 0
M  V30 6055 H 592.258 -0.727568 0.393158 0
M  V30 6056 H 594.804 -0.987914 1.3798 0
M  V30 6057 H 593.576 -2.53985 2.9767 0
M  V30 6058 H 593.199 -3.61996 1.64454 0
M  V30 6059 N 594.196 -1.08629 -1.14182 0
M  V30 6060 C 595.126 -0.740003 -2.21464 0
M  V30 6061 C 596.107 0.278591 -1.67803 0
M  V30 6062 O 597.292 0.148461 -1.93632 0
M  V30 6063 C 594.422 -0.150952 -3.46972 0
M  V30 6064 C 593.376 -1.09815 -4.13672 0
M  V30 6065 C 592.702 -0.3712 -5.3341 0
M  V30 6066 C 594.002 -2.43722 -4.61949 0
M  V30 6067 H 595.696 -1.63697 -2.50686 0
M  V30 6068 H 593.242 -0.788526 -1.20492 0
M  V30 6069 H 595.195 0.103325 -4.21273 0
M  V30 6070 H 593.919 0.781164 -3.1712 0
M  V30 6071 H 592.578 -1.33756 -3.41328 0
M  V30 6072 H 592.226 0.564792 -4.99819 0
M  V30 6073 H 591.926 -1.00267 -5.78982 0
M  V30 6074 H 593.45 -0.12503 -6.10472 0
M  V30 6075 H 594.864 -2.24034 -5.27714 0
M  V30 6076 H 593.261 -3.02582 -5.18232 0
M  V30 6077 H 594.331 -3.05082 -3.76899 0
M  V30 6078 N 595.674 1.31259 -0.872281 0
M  V30 6079 C 596.604 2.30929 -0.345554 0
M  V30 6080 C 597.585 1.60449 0.5648 0
M  V30 6081 O 598.77 1.8814 0.481335 0
M  V30 6082 C 595.9 3.44348 0.451823 0
M  V30 6083 C 594.854 4.26435 -0.365641 0
M  V30 6084 C 594.18 5.31785 0.557562 0
M  V30 6085 C 595.48 4.97159 -1.60095 0
M  V30 6086 H 597.174 2.75234 -1.17841 0
M  V30 6087 H 594.72 1.3232 -0.568094 0
M  V30 6088 H 596.673 4.13128 0.830854 0
M  V30 6089 H 595.397 2.98816 1.31821 0
M  V30 6090 H 594.056 3.59326 -0.726649 0
M  V30 6091 H 593.704 4.82502 1.4213 0
M  V30 6092 H 593.404 5.87598 0.0144878 0
M  V30 6093 H 594.928 6.03424 0.933387 0
M  V30 6094 H 596.342 5.58523 -1.29323 0
M  V30 6095 H 594.739 5.62779 -2.08327 0
M  V30 6096 H 595.809 4.24012 -2.35249 0
M  V30 6097 N 597.152 0.631951 1.44375 0
M  V30 6098 C 598.401 0.134214 2.01253 0
M  V30 6099 C 598.714 -1.25171 1.50305 0
M  V30 6100 O 599.92 -1.8435 1.99317 0
M  V30 6101 C 598.376 0.189187 3.59402 0
M  V30 6102 C 597.984 1.57647 4.19346 0
M  V30 6103 C 599.728 -0.252044 4.23751 0
M  V30 6104 C 597.635 1.58651 5.69722 0
M  V30 6105 H 596.565 0.0464101 0.75257 0
M  V30 6106 H 599.216 0.790868 1.65582 0
M  V30 6107 H 597.598 -0.534584 3.92375 0
M  V30 6108 H 598.772 2.32389 3.97909 0
M  V30 6109 H 597.087 1.96186 3.67288 0
M  V30 6110 H 599.684 -0.264084 5.34047 0
M  V30 6111 H 600.027 -1.27951 3.96149 0
M  V30 6112 H 600.56 0.41926 3.95584 0
M  V30 6113 H 597.299 2.59237 6.0206 0
M  V30 6114 H 596.819 0.882039 5.93279 0
M  V30 6115 H 598.498 1.32082 6.33375 0
M  V30 6116 N 598.631 -1.53133 0.372548 0
M  V30 6117 C 599.861 -2.05476 -0.215202 0
M  V30 6118 C 600.269 -1.24534 -1.42436 0
M  V30 6119 O 599.612 -0.280771 -1.81542 0
M  V30 6120 C 599.674 -3.53276 -0.666068 0
M  V30 6121 C 599.338 -4.54998 0.427342 0
M  V30 6122 C 600.335 -5.03911 1.27944 0
M  V30 6123 C 598.02 -4.98828 0.589579 0
M  V30 6124 C 600.014 -5.95263 2.27905 0
M  V30 6125 C 597.701 -5.89984 1.59255 0
M  V30 6126 C 598.699 -6.38093 2.43571 0
M  V30 6127 O 598.387 -7.27451 3.42156 0
M  V30 6128 H 598.119 -0.67481 -0.040099 0
M  V30 6129 H 600.673 -1.98409 0.531312 0
M  V30 6130 H 598.903 -3.57904 -1.4643 0
M  V30 6131 H 600.592 -3.88442 -1.1776 0
M  V30 6132 H 601.358 -4.70792 1.16532 0
M  V30 6133 H 597.237 -4.60965 -0.0569456 0
M  V30 6134 H 600.781 -6.32736 2.93753 0
M  V30 6135 H 596.678 -6.22518 1.70711 0
M  V30 6136 H 597.446 -7.45467 3.37967 0
M  V30 6137 N 600.109 -0.101901 -1.5727 0
M  V30 6138 C 601.041 0.884723 -2.11436 0
M  V30 6139 C 602.054 1.24149 -1.05314 0
M  V30 6140 O 603.243 1.19341 -1.3274 0
M  V30 6141 C 600.343 2.19179 -2.58484 0
M  V30 6142 C 599.516 2.00933 -3.88516 0
M  V30 6143 C 598.575 3.15213 -4.2134 0
M  V30 6144 O 597.601 2.88877 -4.90448 0
M  V30 6145 N 598.803 4.41174 -3.77288 0
M  V30 6146 H 601.568 0.422058 -2.96713 0
M  V30 6147 H 599.129 0.0830128 -1.61687 0
M  V30 6148 H 601.121 2.94593 -2.77484 0
M  V30 6149 H 599.691 2.56847 -1.7818 0
M  V30 6150 H 598.911 1.09809 -3.78597 0
M  V30 6151 H 600.199 1.86026 -4.73573 0
M  V30 6152 H 599.597 4.6545 -3.21516 0
M  V30 6153 H 598.154 5.13515 -4.01429 0
M  V30 6154 N 601.587 1.56661 0.17182 0
M  V30 6155 C 602.815 1.861 0.904115 0
M  V30 6156 C 603.23 0.687227 1.75848 0
M  V30 6157 O 602.587 -0.343671 1.79235 0
M  V30 6158 C 602.638 3.14568 1.78127 0
M  V30 6159 O 602.359 4.27422 0.961366 0
M  V30 6160 C 603.86 3.5735 2.62327 0
M  V30 6161 H 601.08 0.617445 0.262684 0
M  V30 6162 H 603.624 2.03775 0.172068 0
M  V30 6163 H 601.779 2.98721 2.46666 0
M  V30 6164 H 602.193 5.00725 1.56123 0
M  V30 6165 H 603.667 4.50144 3.1949 0
M  V30 6166 H 604.144 2.81445 3.37173 0
M  V30 6167 H 604.75 3.75807 1.99121 0
M  V30 6168 N 603.065 -0.440357 1.51323 0
M  V30 6169 C 603.995 -1.54174 1.75364 0
M  V30 6170 C 604.976 -1.59039 0.603375 0
M  V30 6171 O 606.161 -1.74815 0.845774 0
M  V30 6172 C 603.291 -2.92277 1.87593 0
M  V30 6173 C 602.245 -3.02274 3.03009 0
M  V30 6174 C 601.571 -4.42327 3.00418 0
M  V30 6175 C 602.871 -2.76634 4.43024 0
M  V30 6176 H 604.565 -1.34307 2.67585 0
M  V30 6177 H 602.111 -0.644678 1.28763 0
M  V30 6178 H 604.064 -3.69284 2.02995 0
M  V30 6179 H 602.788 -3.13369 0.920179 0
M  V30 6180 H 601.447 -2.27706 2.87307 0
M  V30 6181 H 601.095 -4.60382 2.02626 0
M  V30 6182 H 600.795 -4.49946 3.77918 0
M  V30 6183 H 602.319 -5.21312 3.17909 0
M  V30 6184 H 603.733 -3.43376 4.59093 0
M  V30 6185 H 602.13 -2.95666 5.22208 0
M  V30 6186 H 603.2 -1.72262 4.5327 0
M  V30 6187 N 604.543 -1.41418 -0.695603 0
M  V30 6188 C 605.783 -1.42241 -1.46788 0
M  V30 6189 C 606.147 -0.0300827 -1.91976 0
M  V30 6190 O 607.348 0.0868914 -2.6866 0
M  V30 6191 C 605.619 -2.4011 -2.6473 0
M  V30 6192 S 607.178 -2.59462 -3.53871 0
M  V30 6193 H 603.996 -0.503893 -0.50161 0
M  V30 6194 H 606.598 -1.77855 -0.811654 0
M  V30 6195 H 605.302 -3.40073 -2.29736 0
M  V30 6196 H 604.833 -2.05849 -3.35246 0
M  V30 6197 H 606.848 -1.862 -4.59939 0
M  V30 6198 N 606.021 0.929856 -1.27246 0
M  V30 6199 C 607.251 1.70895 -1.16096 0
M  V30 6200 C 607.659 1.87039 0.285122 0
M  V30 6201 O 607.002 1.38557 1.20614 0
M  V30 6202 C 607.064 3.12919 -1.7698 0
M  V30 6203 C 606.728 3.2012 -3.26148 0
M  V30 6204 C 607.725 3.02533 -4.22812 0
M  V30 6205 C 605.41 3.43148 -3.66817 0
M  V30 6206 C 607.404 3.07861 -5.58122 0
M  V30 6207 C 605.091 3.48109 -5.02258 0
M  V30 6208 C 606.089 3.30483 -5.97721 0
M  V30 6209 O 605.777 3.35175 -7.30694 0
M  V30 6210 H 605.509 0.54152 -0.404639 0
M  V30 6211 H 608.063 1.17342 -1.68582 0
M  V30 6212 H 606.293 3.67945 -1.18969 0
M  V30 6213 H 607.982 3.72787 -1.60576 0
M  V30 6214 H 608.748 2.84586 -3.92728 0
M  V30 6215 H 604.627 3.55918 -2.9299 0
M  V30 6216 H 608.171 2.94021 -6.32612 0
M  V30 6217 H 604.068 3.65579 -5.31998 0
M  V30 6218 H 604.836 3.51644 -7.39114 0
M  V30 6219 N 607.499 1.09233 1.13605 0
M  V30 6220 C 608.727 0.848908 1.88683 0
M  V30 6221 C 609.142 -0.599667 1.79024 0
M  V30 6222 O 608.499 -1.41265 1.15544 0
M  V30 6223 C 608.55 1.27273 3.38355 0
M  V30 6224 O 608.271 2.66449 3.47759 0
M  V30 6225 C 609.772 1.0614 4.30406 0
M  V30 6226 H 606.992 0.305549 0.597395 0
M  V30 6227 H 609.536 1.4538 1.43823 0
M  V30 6228 H 607.691 0.711776 3.80805 0
M  V30 6229 H 608.105 2.84264 4.40788 0
M  V30 6230 H 609.579 1.40725 5.33761 0
M  V30 6231 H 610.056 -0.000960332 4.392 0
M  V30 6232 H 610.662 1.60821 3.93722 0
M  V30 6233 N 608.977 -1.30795 0.87923 0
M  V30 6234 C 609.927 -2.25838 0.313276 0
M  V30 6235 C 610.911 -1.51025 -0.55499 0
M  V30 6236 O 612.103 -1.72413 -0.400353 0
M  V30 6237 C 609.232 -3.39981 -0.476204 0
M  V30 6238 C 608.318 -4.22154 0.405826 0
M  V30 6239 N 608.709 -4.82934 1.50362 0
M  V30 6240 C 607.007 -4.45552 0.199909 0
M  V30 6241 C 607.708 -5.44444 2.0483 0
M  V30 6242 N 606.684 -5.26723 1.34403 0
M  V30 6243 H 610.486 -2.70374 1.15218 0
M  V30 6244 H 608 -1.45168 0.728003 0
M  V30 6245 H 609.997 -4.07108 -0.898251 0
M  V30 6246 H 608.657 -2.96986 -1.31261 0
M  V30 6247 H 609.668 -4.82319 1.8865 0
M  V30 6248 H 606.345 -4.13169 -0.599795 0
M  V30 6249 H 607.735 -6.02701 2.96986 0
M  V30 6250 N 610.455 -0.639598 -1.44038 0
M  V30 6251 C 611.732 -0.078012 -1.95444 0
M  V30 6252 C 612.112 1.39847 -1.58133 0
M  V30 6253 O 611.46 2.11714 -0.859614 0
M  V30 6254 C 611.67 -0.309832 -3.47622 0
M  V30 6255 C 613.018 -0.207521 -4.24093 0
M  V30 6256 O 614.042 -0.241653 -3.55379 0
M  V30 6257 O 612.901 -0.119641 -5.46369 0
M  V30 6258 H 609.995 0.0174534 -0.826816 0
M  V30 6259 H 612.541 -0.711891 -1.54046 0
M  V30 6260 H 611.313 -1.33401 -3.67858 0
M  V30 6261 H 610.936 0.357777 -3.95987 0
M  V30 6262 N 611.933 1.52934 -0.380664 0
M  V30 6263 C 613.21 1.93845 0.261417 0
M  V30 6264 C 613.59 1.31544 1.65104 0
M  V30 6265 O 612.938 0.480234 2.23397 0
M  V30 6266 C 613.148 3.47739 0.296466 0
M  V30 6267 C 614.496 4.21284 0.529578 0
M  V30 6268 O 615.52 3.54199 0.377041 0
M  V30 6269 O 614.379 5.40195 0.827753 0
M  V30 6270 H 611.473 0.811318 0.160285 0
M  V30 6271 H 614.019 1.64042 -0.434544 0
M  V30 6272 H 612.791 3.85395 -0.67724 0
M  V30 6273 H 612.414 3.8382 1.0377 0
M  V30 6274 N 613.412 0.11024 1.57214 0
M  V30 6275 C 614.342 -0.840002 2.17867 0
M  V30 6276 C 615.323 -1.28352 1.11624 0
M  V30 6277 O 616.508 -1.3477 1.39824 0
M  V30 6278 C 613.638 -2.09349 2.77111 0
M  V30 6279 C 612.592 -1.78807 3.8886 0
M  V30 6280 C 611.918 -3.11112 4.34872 0
M  V30 6281 C 613.218 -1.0632 5.11364 0
M  V30 6282 H 614.912 -0.334608 2.97524 0
M  V30 6283 H 612.458 -0.159502 1.43114 0
M  V30 6284 H 614.411 -2.76275 3.18198 0
M  V30 6285 H 613.135 -2.62198 1.9473 0
M  V30 6286 H 611.794 -1.14273 3.48335 0
M  V30 6287 H 611.442 -3.61877 3.49362 0
M  V30 6288 H 611.142 -2.91453 5.10224 0
M  V30 6289 H 612.666 -3.79171 4.78604 0
M  V30 6290 H 614.08 -1.63383 5.49526 0
M  V30 6291 H 612.477 -0.967876 5.92243 0
M  V30 6292 H 613.547 -0.0484569 4.84876 0
M  V30 6293 N 614.89 -1.56749 -0.16351 0
M  V30 6294 C 616.306 -1.51043 -0.515567 0
M  V30 6295 C 616.506 -0.815855 -1.84245 0
M  V30 6296 O 615.562 -0.379477 -2.49632 0
M  V30 6297 C 616.875 -2.95791 -0.541114 0
M  V30 6298 C 618.423 -3.0664 -0.627776 0
M  V30 6299 C 618.898 -4.52861 -0.684141 0
M  V30 6300 N 620.389 -4.5714 -0.746818 0
M  V30 6301 C 621.124 -5.67634 -0.811137 0
M  V30 6302 N 620.62 -6.8774 -0.835811 0
M  V30 6303 N 622.413 -5.55624 -0.850756 0
M  V30 6304 H 614.564 -2.00307 0.70645 0
M  V30 6305 H 616.827 -0.912876 0.255659 0
M  V30 6306 H 616.533 -3.49797 0.365329 0
M  V30 6307 H 616.407 -3.50858 -1.38487 0
M  V30 6308 H 618.794 -2.52663 -1.52464 0
M  V30 6309 H 618.875 -2.54645 0.242805 0
M  V30 6310 H 618.519 -5.07472 0.2085 0
M  V30 6311 H 618.449 -5.02621 -1.57098 0
M  V30 6312 H 620.94 -3.70669 -0.735717 0
M  V30 6313 H 621.253 -7.67701 -0.886279 0
M  V30 6314 H 619.598 -6.90334 -0.803958 0
M  V30 6315 H 622.789 -4.60709 -0.828535 0
M  V30 6316 H 622.962 -6.41756 -0.897418 0
M  V30 6317 N 616.368 0.432326 -1.51554 0
M  V30 6318 C 617.316 1.54572 -1.73811 0
M  V30 6319 C 618.31 1.58246 -0.604539 0
M  V30 6320 O 619.516 1.6193 -0.786041 0
M  V30 6321 H 615.891 0.513626 -0.549265 0
M  V30 6322 H 617.862 1.32977 -2.67132 0
M  V30 6323 C 616.611 2.92181 -1.88483 0
M  V30 6324 H 615.934 2.90088 -2.75116 0
M  V30 6325 H 617.374 3.69439 -2.08065 0
M  V30 6326 C 615.833 3.3065 -0.645909 0
M  V30 6327 O 616.363 4.01216 0.197093 0
M  V30 6328 N 614.569 2.86464 -0.488538 0
M  V30 6329 H 614.116 2.29209 -1.17562 0
M  V30 6330 H 614.074 3.12565 0.339156 0
M  V30 6331 N 617.846 1.41785 0.688094 0
M  V30 6332 C 619.092 1.41753 1.4503 0
M  V30 6333 C 619.425 0.0290745 1.94178 0
M  V30 6334 O 618.7 -0.944456 1.7003 0
M  V30 6335 C 618.983 2.43069 2.65686 0
M  V30 6336 C 618.836 3.91053 2.22256 0
M  V30 6337 C 620.155 2.41543 3.67893 0
M  V30 6338 H 617.274 0.516202 0.526027 0
M  V30 6339 H 619.916 1.73111 0.783105 0
M  V30 6340 H 618.066 2.1646 3.2261 0
M  V30 6341 H 619.738 4.28594 1.70602 0
M  V30 6342 H 617.981 4.05559 1.53963 0
M  V30 6343 H 618.652 4.57501 3.08863 0
M  V30 6344 H 621.128 2.65175 3.20658 0
M  V30 6345 H 620.004 3.14434 4.49914 0
M  V30 6346 H 620.265 1.43666 4.18106 0
M  V30 6347 N 619.324 -0.923095 1.27737 0
M  V30 6348 C 620.601 -1.64989 1.05062 0
M  V30 6349 C 620.981 -2.07018 -0.413124 0
M  V30 6350 O 620.329 -1.80797 -1.39731 0
M  V30 6351 C 620.539 -2.84847 2.01652 0
M  V30 6352 C 621.887 -3.56083 2.31279 0
M  V30 6353 O 622.911 -2.94981 1.99662 0
M  V30 6354 O 621.77 -4.66182 2.85196 0
M  V30 6355 H 618.864 -0.723357 0.400853 0
M  V30 6356 H 621.41 -0.973224 1.3902 0
M  V30 6357 H 620.182 -2.50814 3.00347 0
M  V30 6358 H 619.805 -3.60231 1.68284 0
M  V30 6359 N 620.802 -1.09834 -1.13024 0
M  V30 6360 C 622.048 -0.83819 -1.84668 0
M  V30 6361 C 622.381 0.634645 -1.83537 0
M  V30 6362 O 621.656 1.46753 -1.27647 0
M  V30 6363 C 621.939 -1.37933 -3.32636 0
M  V30 6364 C 621.792 -2.91857 -3.42257 0
M  V30 6365 C 623.111 -1.01654 -4.28199 0
M  V30 6366 H 620.23 -0.30595 -0.670495 0
M  V30 6367 H 622.872 -1.36044 -1.32635 0
M  V30 6368 H 621.022 -0.935111 -3.77078 0
M  V30 6369 H 622.694 -3.44759 -3.06495 0
M  V30 6370 H 620.937 -3.28776 -2.83 0
M  V30 6371 H 621.608 -3.24799 -4.46329 0
M  V30 6372 H 624.084 -1.39973 -3.9185 0
M  V30 6373 H 622.96 -1.42217 -5.30156 0
M  V30 6374 H 623.221 0.0747794 -4.42037 0
M  V30 6375 N 622.28 1.30327 -0.886154 0
M  V30 6376 C 623.528 1.9571 -0.504195 0
M  V30 6377 C 623.849 1.70294 0.950003 0
M  V30 6378 O 623.119 1.02718 1.66811 0
M  V30 6379 H 621.699 0.72412 -0.183465 0
M  V30 6380 H 624.361 1.58835 -1.12949 0
M  V30 6381 H 623.457 3.04704 -0.675431 0
M  V30 6382 N 623.758 0.647228 1.43697 0
M  V30 6383 C 625.035 0.0883758 1.954 0
M  V30 6384 C 625.415 -1.39006 1.58873 0
M  V30 6385 O 624.763 -2.11255 0.87083 0
M  V30 6386 C 624.973 0.328263 3.47453 0
M  V30 6387 C 626.321 0.230009 4.23977 0
M  V30 6388 O 627.345 0.260496 3.55246 0
M  V30 6389 O 626.204 0.148615 5.46298 0
M  V30 6390 H 623.298 -0.0130683 0.826897 0
M  V30 6391 H 625.844 0.72005 1.53666 0
M  V30 6392 H 624.616 1.3535 3.67146 0
M  V30 6393 H 624.239 -0.336772 3.96171 0
M  V30 6394 N 625.236 -1.5273 0.388769 0
M  V30 6395 C 626.483 -2.01573 -0.19359 0
M  V30 6396 C 626.811 -1.27525 -1.46859 0
M  V30 6397 O 626.066 -0.363926 -1.92286 0
M  V30 6398 C 626.365 -3.53765 -0.508445 0
M  V30 6399 C 626.031 -4.4582 0.674947 0
M  V30 6400 C 624.693 -4.70703 0.999596 0
M  V30 6401 C 627.045 -5.00138 1.46666 0
M  V30 6402 C 624.373 -5.47155 2.11751 0
M  V30 6403 C 626.725 -5.77812 2.57518 0
M  V30 6404 C 625.389 -6.00975 2.90492 0
M  V30 6405 H 624.659 -0.737606 -0.0708397 0
M  V30 6406 H 627.306 -1.84134 0.526006 0
M  V30 6407 H 625.611 -3.69274 -1.30936 0
M  V30 6408 H 627.308 -3.8905 -0.971664 0
M  V30 6409 H 623.898 -4.26616 0.411906 0
M  V30 6410 H 628.082 -4.8084 1.22909 0
M  V30 6411 H 623.338 -5.63314 2.3767 0
M  V30 6412 H 627.512 -6.18904 3.19267 0
M  V30 6413 H 625.139 -6.59998 3.77236 0
M  V30 6414 N 626.714 -0.118576 -1.57153 0
M  V30 6415 C 627.96 0.540326 -1.95469 0
M  V30 6416 C 628.293 1.66356 -1.00196 0
M  V30 6417 O 627.568 1.94461 -0.039104 0
M  V30 6418 C 627.851 1.07342 -3.43729 0
M  V30 6419 C 627.704 -0.0463732 -4.49776 0
M  V30 6420 C 629.023 1.96442 -3.93826 0
M  V30 6421 H 626.142 0.19494 -0.710751 0
M  V30 6422 H 628.784 -0.19405 -1.89006 0
M  V30 6423 H 626.934 1.69925 -3.49368 0
M  V30 6424 H 628.606 -0.681648 -4.56236 0
M  V30 6425 H 626.849 -0.709574 -4.27957 0
M  V30 6426 H 627.52 0.367856 -5.50773 0
M  V30 6427 H 629.996 1.43731 -3.90488 0
M  V30 6428 H 628.872 2.3066 -4.98084 0
M  V30 6429 H 629.133 2.89077 -3.34495 0
M  V30 6430 N 628.193 1.56834 0.155195 0
M  V30 6431 C 629.123 2.00678 1.19376 0
M  V30 6432 C 630.104 0.884973 1.45266 0
M  V30 6433 O 631.289 1.1522 1.56326 0
M  V30 6434 C 628.419 2.38042 2.5289 0
M  V30 6435 C 627.373 3.53332 2.41538 0
M  V30 6436 C 626.699 3.76485 3.79688 0
M  V30 6437 C 627.999 4.86265 1.9064 0
M  V30 6438 H 629.693 2.87688 0.829232 0
M  V30 6439 H 627.239 1.38407 0.397445 0
M  V30 6440 H 629.192 2.67314 3.25763 0
M  V30 6441 H 627.916 1.4796 2.91162 0
M  V30 6442 H 626.575 3.24213 1.71117 0
M  V30 6443 H 626.223 2.83667 4.15382 0
M  V30 6444 H 625.923 4.54068 3.72956 0
M  V30 6445 H 627.447 4.08174 4.54122 0
M  V30 6446 H 628.861 5.14308 2.53299 0
M  V30 6447 H 627.258 5.67597 1.94818 0
M  V30 6448 H 628.328 4.77184 0.861596 0
M  V30 6449 N 629.671 -0.424282 1.51781 0
M  V30 6450 C 630.618 -1.51591 1.74037 0
M  V30 6451 C 631.588 -1.55556 0.582358 0
M  V30 6452 O 632.773 -1.72364 0.818245 0
M  V30 6453 C 629.913 -2.89188 1.8832 0
M  V30 6454 C 629.026 -2.9465 3.1592 0
M  V30 6455 C 628.161 -4.23452 3.20721 0
M  V30 6456 C 627.2 -4.22831 4.42584 0
M  V30 6457 N 626.337 -5.43178 4.44862 0
M  V30 6458 H 631.177 -1.31917 2.67212 0
M  V30 6459 H 628.714 -0.640599 1.32419 0
M  V30 6460 H 630.672 -3.69044 1.94583 0
M  V30 6461 H 629.302 -3.07392 0.985402 0
M  V30 6462 H 628.354 -2.07378 3.18902 0
M  V30 6463 H 629.666 -2.90055 4.05795 0
M  V30 6464 H 628.82 -5.1169 3.25973 0
M  V30 6465 H 627.559 -4.30722 2.28757 0
M  V30 6466 H 626.564 -3.32984 4.37495 0
M  V30 6467 H 627.789 -4.17213 5.35826 0
M  V30 6468 H 625.735 -5.51145 3.55775 0
M  V30 6469 H 625.652 -5.40515 5.28563 0
M  V30 6470 H 626.92 -6.33412 4.54324 0
M  V30 6471 N 631.149 -1.42148 -0.680565 0
M  V30 6472 C 632.56 -1.3768 -1.26099 0
M  V30 6473 C 632.911 -0.0672348 -1.96085 0
M  V30 6474 O 632.036 0.834172 -1.99676 0
M  V30 6475 C 632.631 -2.49387 -2.29328 0
M  V30 6476 C 631.19 -2.4827 -2.82911 0
M  V30 6477 C 630.337 -2.2847 -1.57152 0
M  V30 6478 H 633.288 -1.51446 -0.474326 0
M  V30 6479 H 633.309 -2.19307 -3.10941 0
M  V30 6480 H 632.821 -3.44686 -1.78363 0
M  V30 6481 H 630.922 -1.56773 -3.38013 0
M  V30 6482 H 631.035 -3.45109 -3.3232 0
M  V30 6483 H 629.399 -1.76623 -1.83511 0
M  V30 6484 H 630.182 -3.25816 -1.0816 0
M  V30 6485 N 632.627 0.916307 -1.28225 0
M  V30 6486 C 633.867 1.67964 -1.16479 0
M  V30 6487 C 634.231 1.8991 0.282494 0
M  V30 6488 O 635.432 2.63671 0.522607 0
M  V30 6489 C 633.703 3.00251 -1.93866 0
M  V30 6490 S 635.262 3.91353 -1.98465 0
M  V30 6491 H 632.08 0.576873 -0.415619 0
M  V30 6492 H 634.682 1.09006 -1.62289 0
M  V30 6493 H 633.386 2.81978 -2.98189 0
M  V30 6494 H 632.917 3.64257 -1.48595 0
M  V30 6495 H 634.932 4.84096 -1.0893 0
M  V30 6496 N 634.105 1.10431 1.1244 0
M  V30 6497 C 635.353 0.845045 1.83585 0
M  V30 6498 C 635.674 -0.631168 1.84503 0
M  V30 6499 O 634.944 -1.45825 1.30813 0
M  V30 6500 H 633.524 0.309628 0.679809 0
M  V30 6501 H 636.186 1.39458 1.36153 0
M  V30 6502 H 635.282 1.20786 2.8778 0
M  V30 6503 N 635.583 -1.29855 0.893053 0
M  V30 6504 C 636.513 -2.3035 0.382249 0
M  V30 6505 C 637.494 -1.61328 -0.539203 0
M  V30 6506 O 638.679 -1.88882 -0.451342 0
M  V30 6507 C 635.809 -3.45024 -0.396983 0
M  V30 6508 C 634.763 -4.258 0.433437 0
M  V30 6509 C 634.089 -5.32605 -0.472889 0
M  V30 6510 C 635.389 -4.94549 1.67984 0
M  V30 6511 H 637.083 -2.73325 1.22205 0
M  V30 6512 H 634.629 -1.314 0.589073 0
M  V30 6513 H 636.582 -4.14398 -0.765024 0
M  V30 6514 H 635.306 -3.00875 -1.2705 0
M  V30 6515 H 633.965 -3.58125 0.783723 0
M  V30 6516 H 633.613 -4.84702 -1.34435 0
M  V30 6517 H 633.313 -5.87547 0.0789958 0
M  V30 6518 H 634.837 -6.04832 -0.837269 0
M  V30 6519 H 636.251 -5.56395 1.38192 0
M  V30 6520 H 634.648 -5.59393 2.17254 0
M  V30 6521 H 635.718 -4.20215 2.41965 0
M  V30 6522 N 637.061 -0.65484 -1.43351 0
M  V30 6523 C 637.971 0.0363603 -2.34572 0
M  V30 6524 C 638.987 0.810432 -1.53974 0
M  V30 6525 O 640.163 0.757308 -1.86619 0
M  V30 6526 C 637.228 0.989733 -3.32273 0
M  V30 6527 C 636.289 0.212414 -4.28774 0
M  V30 6528 C 635.522 1.12038 -5.21808 0
M  V30 6529 O 635.745 2.35967 -5.19303 0
M  V30 6530 O 634.679 0.59191 -5.98982 0
M  V30 6531 H 638.505 -0.714527 -2.95175 0
M  V30 6532 H 636.09 -0.415029 -1.4352 0
M  V30 6533 H 637.972 1.53759 -3.92347 0
M  V30 6534 H 636.647 1.72082 -2.74171 0
M  V30 6535 H 635.554 -0.379062 -3.72175 0
M  V30 6536 H 636.887 -0.479138 -4.89862 0
M  V30 6537 N 638.539 1.52521 -0.396863 0
M  V30 6538 C 639.449 2.30403 0.44178 0
M  V30 6539 C 640.465 1.37625 1.06468 0
M  V30 6540 O 641.641 1.70697 1.06886 0
M  V30 6541 C 638.706 3.1013 1.54986 0
M  V30 6542 C 637.767 4.18628 0.951279 0
M  V30 6543 C 637 4.94543 2.00655 0
M  V30 6544 O 637.223 4.70629 3.22281 0
M  V30 6545 O 636.157 5.797 1.61962 0
M  V30 6546 H 639.983 3.03087 -0.192892 0
M  V30 6547 H 637.568 1.48537 -0.16038 0
M  V30 6548 H 639.45 3.59816 2.19341 0
M  V30 6549 H 638.125 2.40251 2.16935 0
M  V30 6550 H 637.032 3.73119 0.270773 0
M  V30 6551 H 638.365 4.90763 0.375887 0
M  V30 6552 N 640.017 0.126909 1.57088 0
M  V30 6553 C 641.264 -0.529168 1.95464 0
M  V30 6554 C 641.592 -1.6618 1.01067 0
M  V30 6555 O 640.847 -1.95667 0.0360254 0
M  V30 6556 C 641.146 -1.095 3.40212 0
M  V30 6557 C 640.812 -0.0829015 4.50824 0
M  V30 6558 C 639.474 0.195377 4.80803 0
M  V30 6559 C 641.826 0.606411 5.1766 0
M  V30 6560 C 639.154 1.16912 5.74933 0
M  V30 6561 C 641.506 1.56884 6.12838 0
M  V30 6562 C 640.17 1.85502 6.41206 0
M  V30 6563 H 639.44 -0.193636 0.715252 0
M  V30 6564 H 642.087 0.209489 1.90351 0
M  V30 6565 H 640.392 -1.91058 3.42059 0
M  V30 6566 H 642.089 -1.61087 3.67222 0
M  V30 6567 H 638.679 -0.309979 4.27478 0
M  V30 6568 H 642.863 0.404597 4.94648 0
M  V30 6569 H 638.119 1.3975 5.95214 0
M  V30 6570 H 642.293 2.10859 6.6371 0
M  V30 6571 H 639.92 2.61109 7.13951 0
M  V30 6572 N 641.495 -1.56914 -0.146875 0
M  V30 6573 C 642.425 -2.01308 -1.1831 0
M  V30 6574 C 643.406 -0.892664 -1.44795 0
M  V30 6575 O 644.591 -1.16048 -1.55713 0
M  V30 6576 C 641.721 -2.3938 -2.51624 0
M  V30 6577 C 640.675 -3.54608 -2.3966 0
M  V30 6578 C 640.001 -3.78493 -3.77686 0
M  V30 6579 C 641.301 -4.87269 -1.88058 0
M  V30 6580 H 642.995 -2.88123 -0.813964 0
M  V30 6581 H 640.541 -1.38615 -0.3901 0
M  V30 6582 H 642.494 -2.69037 -3.24341 0
M  V30 6583 H 641.218 -1.49502 -2.90373 0
M  V30 6584 H 639.877 -3.25116 -1.69396 0
M  V30 6585 H 639.525 -2.85866 -4.13871 0
M  V30 6586 H 639.225 -4.56039 -3.70543 0
M  V30 6587 H 640.749 -4.10576 -4.51951 0
M  V30 6588 H 642.163 -5.15644 -2.50568 0
M  V30 6589 H 640.56 -5.68622 -1.91805 0
M  V30 6590 H 641.63 -4.77634 -0.836277 0
M  V30 6591 N 642.974 0.416227 -1.52004 0
M  V30 6592 C 643.906 1.52552 -1.71058 0
M  V30 6593 C 644.919 1.51693 -0.59102 0
M  V30 6594 O 646.108 1.56087 -0.865973 0
M  V30 6595 C 643.208 2.91455 -1.72937 0
M  V30 6596 C 642.381 3.16584 -3.01816 0
M  V30 6597 C 641.44 4.35322 -2.95603 0
M  V30 6598 O 640.466 4.32947 -3.6952 0
M  V30 6599 N 641.668 5.40049 -2.12903 0
M  V30 6600 H 644.433 1.36604 -2.66757 0
M  V30 6601 H 641.994 0.60544 -1.50153 0
M  V30 6602 H 643.986 3.68944 -1.66321 0
M  V30 6603 H 642.556 3.00895 -0.847418 0
M  V30 6604 H 641.776 2.27203 -3.22137 0
M  V30 6605 H 643.064 3.30213 -3.87088 0
M  V30 6606 H 642.462 5.44823 -1.52265 0
M  V30 6607 H 641.019 6.16308 -2.1215 0
M  V30 6608 N 644.452 1.42507 0.673017 0
M  V30 6609 C 645.4 1.46362 1.80779 0
M  V30 6610 C 646.394 0.339166 1.6597 0
M  V30 6611 O 647.6 0.512262 1.72557 0
M  V30 6612 H 643.975 0.458433 0.596107 0
M  V30 6613 H 645.946 2.41953 1.74646 0
M  V30 6614 C 644.695 1.38462 3.18941 0
M  V30 6615 H 644.018 2.24283 3.30964 0
M  V30 6616 H 645.458 1.45221 3.98355 0
M  V30 6617 C 643.917 0.0996354 3.36753 0
M  V30 6618 O 644.447 -0.846894 3.92671 0
M  V30 6619 N 642.653 0.016211 2.90595 0
M  V30 6620 H 642.2 0.78725 2.45276 0
M  V30 6621 H 642.158 -0.84291 3.0289 0
M  V30 6622 N 645.93 -0.909495 1.28709 0
M  V30 6623 C 646.877 -2.01245 1.13 0
M  V30 6624 C 647.847 -1.6608 0.0259684 0
M  V30 6625 O 649.032 -1.89835 0.191687 0
M  V30 6626 C 646.172 -3.35644 0.802315 0
M  V30 6627 C 645.285 -3.83653 1.98582 0
M  V30 6628 C 644.42 -5.06582 1.59837 0
M  V30 6629 C 643.459 -5.46934 2.74827 0
M  V30 6630 N 642.596 -6.61053 2.36546 0
M  V30 6631 H 647.436 -2.14013 2.0737 0
M  V30 6632 H 644.973 -1.0482 1.03205 0
M  V30 6633 H 646.931 -4.12963 0.593057 0
M  V30 6634 H 645.561 -3.22631 -0.104457 0
M  V30 6635 H 644.613 -3.02454 2.30708 0
M  V30 6636 H 645.925 -4.09515 2.84779 0
M  V30 6637 H 645.079 -5.91457 1.35143 0
M  V30 6638 H 643.818 -4.82537 0.707753 0
M  V30 6639 H 642.823 -4.60599 3.00215 0
M  V30 6640 H 644.048 -5.72965 3.64538 0
M  V30 6641 H 641.994 -6.3863 1.49959 0
M  V30 6642 H 641.911 -6.86662 3.16277 0
M  V30 6643 H 643.179 -7.49221 2.15146 0
M  V30 6644 N 647.408 -1.11026 -1.11852 0
M  V30 6645 C 648.358 -0.733836 -2.15868 0
M  V30 6646 C 649.342 0.26001 -1.58785 0
M  V30 6647 O 650.534 0.0677901 -1.7687 0
M  V30 6648 C 647.663 -0.173948 -3.42859 0
M  V30 6649 C 646.749 -1.1952 -4.0691 0
M  V30 6650 N 647.14 -2.38797 -4.45881 0
M  V30 6651 C 645.438 -1.03714 -4.33773 0
M  V30 6652 C 646.139 -3.03894 -4.96007 0
M  V30 6653 N 645.115 -2.31389 -4.91894 0
M  V30 6654 H 648.917 -1.64171 -2.43773 0
M  V30 6655 H 646.431 -0.988877 -1.28822 0
M  V30 6656 H 648.428 0.113836 -4.16745 0
M  V30 6657 H 647.088 0.728568 -3.16421 0
M  V30 6658 H 648.099 -2.76281 -4.38051 0
M  V30 6659 H 644.776 -0.190694 -4.17064 0
M  V30 6660 H 646.166 -4.05389 -5.35826 0
M  V30 6661 N 648.886 1.2938 -0.899927 0
M  V30 6662 C 649.849 2.25983 -0.382677 0
M  V30 6663 C 650.849 1.53366 0.483259 0
M  V30 6664 O 652.039 1.71798 0.28828 0
M  V30 6665 C 649.171 3.37878 0.452915 0
M  V30 6666 H 650.364 2.73252 -1.23586 0
M  V30 6667 H 647.917 1.40825 -0.678088 0
M  V30 6668 H 648.652 2.95949 1.32608 0
M  V30 6669 H 648.437 3.91742 -0.167562 0
M  V30 6670 H 649.927 4.09746 0.806107 0
M  V30 6671 N 650.364 0.662433 1.43002 0
M  V30 6672 C 651.294 -0.00979809 2.33498 0
M  V30 6673 C 652.275 -0.802329 1.49989 0
M  V30 6674 O 653.46 -0.761964 1.78627 0
M  V30 6675 C 650.59 -0.970446 3.33466 0
M  V30 6676 C 649.544 -0.287383 4.27034 0
M  V30 6677 C 648.87 -1.36012 5.17112 0
M  V30 6678 C 650.17 0.82595 5.15728 0
M  V30 6679 H 651.864 0.745959 2.89958 0
M  V30 6680 H 649.41 0.360172 1.39423 0
M  V30 6681 H 651.363 -1.44971 3.95679 0
M  V30 6682 H 650.087 -1.75748 2.75282 0
M  V30 6683 H 648.746 0.17152 3.66199 0
M  V30 6684 H 648.394 -2.13882 4.55262 0
M  V30 6685 H 648.094 -0.908276 5.80538 0
M  V30 6686 H 649.618 -1.84056 5.82199 0
M  V30 6687 H 651.032 0.42845 5.71697 0
M  V30 6688 H 649.429 1.20282 5.87922 0
M  V30 6689 H 650.499 1.68003 4.54866 0
M  V30 6690 N 651.842 -1.52309 0.404946 0
M  V30 6691 C 653.09 -2.01368 -0.17186 0
M  V30 6692 C 653.411 -1.29261 -1.46002 0
M  V30 6693 O 652.681 -0.41729 -1.91404 0
M  V30 6694 H 651.261 -0.744034 -0.0664993 0
M  V30 6695 H 653.923 -1.87263 0.540228 0
M  V30 6696 H 653.019 -3.09888 -0.370957 0
M  V30 6697 N 653.32 -0.135238 -1.57019 0
M  V30 6698 C 654.545 0.529343 -2.00531 0
M  V30 6699 C 654.97 1.58391 -1.01459 0
M  V30 6700 O 654.328 1.81296 0.0113986 0
M  V30 6701 C 654.376 1.11748 -3.42848 0
M  V30 6702 O 653.48 2.23267 -3.46736 0
M  V30 6703 H 652.821 0.130669 -0.651016 0
M  V30 6704 H 655.351 -0.228503 -2.0332 0
M  V30 6705 H 655.361 1.44905 -3.81401 0
M  V30 6706 H 654.036 0.345147 -4.14465 0
M  V30 6707 H 652.613 1.91428 -3.20015 0
M  V30 6708 N 654.798 1.5699 0.138552 0
M  V30 6709 C 655.748 1.9532 1.17619 0
M  V30 6710 C 656.732 0.825545 1.38107 0
M  V30 6711 O 657.924 1.08908 1.39528 0
M  V30 6712 C 655.053 2.34451 2.50774 0
M  V30 6713 C 654.139 3.53805 2.33844 0
M  V30 6714 N 654.53 4.70088 1.86685 0
M  V30 6715 C 652.828 3.59055 2.64567 0
M  V30 6716 C 653.529 5.52165 1.82998 0
M  V30 6717 N 652.505 4.94108 2.26624 0
M  V30 6718 H 656.307 2.82694 0.803809 0
M  V30 6719 H 653.821 1.5866 0.346519 0
M  V30 6720 H 655.818 2.60119 3.25797 0
M  V30 6721 H 654.478 1.48431 2.88788 0
M  V30 6722 H 655.489 4.93681 1.56523 0
M  V30 6723 H 652.166 2.83596 3.06398 0
M  V30 6724 H 653.556 6.55407 1.47957 0
M  V30 6725 N 656.276 -0.40816 1.52223 0
M  V30 6726 C 657.186 -1.52202 1.78526 0
M  V30 6727 C 658.202 -1.60546 0.670892 0
M  V30 6728 O 659.378 -1.77242 0.956404 0
M  V30 6729 C 656.443 -2.87928 1.93128 0
M  V30 6730 C 655.504 -2.89463 3.17033 0
M  V30 6731 C 654.737 -4.18715 3.30929 0
M  V30 6732 O 654.96 -5.12662 2.50067 0
M  V30 6733 O 653.894 -4.27125 4.24084 0
M  V30 6734 H 657.72 -1.32911 2.73072 0
M  V30 6735 H 655.305 -0.594112 1.37079 0
M  V30 6736 H 657.187 -3.68426 2.04549 0
M  V30 6737 H 655.862 -3.07285 1.01772 0
M  V30 6738 H 654.769 -2.07815 3.11069 0
M  V30 6739 H 656.102 -2.75055 4.08174 0
M  V30 6740 N 657.755 -1.42862 -0.66545 0
M  V30 6741 C 658.985 -1.47032 -1.45138 0
M  V30 6742 C 659.393 -0.0829977 -1.89018 0
M  V30 6743 O 658.736 0.914551 -1.59316 0
M  V30 6744 C 658.798 -2.34302 -2.72659 0
M  V30 6745 C 658.462 -3.82034 -2.50796 0
M  V30 6746 C 659.459 -4.73453 -2.14799 0
M  V30 6747 C 657.144 -4.26397 -2.655 0
M  V30 6748 C 659.138 -6.07228 -1.93785 0
M  V30 6749 C 656.825 -5.6023 -2.44103 0
M  V30 6750 C 657.823 -6.50462 -2.08299 0
M  V30 6751 O 657.511 -7.8182 -1.87116 0
M  V30 6752 H 657.243 -0.501969 -0.452772 0
M  V30 6753 H 659.797 -1.88137 -0.82423 0
M  V30 6754 H 658.027 -1.88063 -3.37889 0
M  V30 6755 H 659.716 -2.29818 -3.34572 0
M  V30 6756 H 660.482 -4.4046 -2.03026 0
M  V30 6757 H 656.361 -3.56448 -2.92345 0
M  V30 6758 H 659.905 -6.7762 -1.65763 0
M  V30 6759 H 655.802 -5.92793 -2.55475 0
M  V30 6760 H 656.57 -7.93274 -2.01639 0
M  V30 6761 N 659.233 0.902656 -1.29189 0
M  V30 6762 C 660.482 1.6475 -1.16362 0
M  V30 6763 C 660.795 1.93517 0.284682 0
M  V30 6764 O 662.001 2.66192 0.534229 0
M  V30 6765 C 660.457 2.96848 -2.03493 0
M  V30 6766 C 660.065 2.75687 -3.5313 0
M  V30 6767 C 661.809 3.74762 -1.99383 0
M  V30 6768 C 659.716 4.03492 -4.32375 0
M  V30 6769 H 658.646 0.618041 -0.431904 0
M  V30 6770 H 661.297 1.0008 -1.53806 0
M  V30 6771 H 659.679 3.62715 -1.58916 0
M  V30 6772 H 660.853 2.18431 -4.05739 0
M  V30 6773 H 659.168 2.11171 -3.58881 0
M  V30 6774 H 661.765 4.69515 -2.5585 0
M  V30 6775 H 662.108 4.04767 -0.973123 0
M  V30 6776 H 662.641 3.15732 -2.41988 0
M  V30 6777 H 659.38 3.78656 -5.3507 0
M  V30 6778 H 658.9 4.60318 -3.84535 0
M  V30 6779 H 660.579 4.71662 -4.42881 0
M  V30 6780 N 660.711 1.11618 1.11262 0
M  V30 6781 C 661.643 0.734015 2.17129 0
M  V30 6782 C 662.656 -0.235243 1.61091 0
M  V30 6783 O 663.845 -0.0178597 1.78491 0
M  V30 6784 C 660.945 0.0643682 3.38839 0
M  V30 6785 C 660.118 1.06092 4.24339 0
M  V30 6786 C 659.177 0.420482 5.24517 0
M  V30 6787 O 658.203 1.07495 5.58957 0
M  V30 6788 N 659.405 -0.815828 5.74739 0
M  V30 6789 H 662.17 1.64492 2.50524 0
M  V30 6790 H 659.731 1.00664 1.26801 0
M  V30 6791 H 661.723 -0.375851 4.02951 0
M  V30 6792 H 660.293 -0.749147 3.03491 0
M  V30 6793 H 659.513 1.67903 3.56654 0
M  V30 6794 H 660.801 1.73507 4.78302 0
M  V30 6795 H 660.199 -1.36668 5.48943 0
M  V30 6796 H 658.756 -1.199 6.40677 0
M  V30 6797 N 662.189 -1.289 0.906776 0
M  V30 6798 C 663.419 -1.99112 0.551168 0
M  V30 6799 C 663.827 -1.67998 -0.870243 0
M  V30 6800 O 663.17 -0.92525 -1.58697 0
M  V30 6801 C 663.232 -3.53162 0.672065 0
M  V30 6802 C 662.896 -4.07849 2.06174 0
M  V30 6803 C 663.893 -4.22212 3.0337 0
M  V30 6804 C 661.578 -4.4271 2.37304 0
M  V30 6805 C 663.572 -4.70678 4.29815 0
M  V30 6806 C 661.259 -4.90871 3.6399 0
M  V30 6807 C 662.257 -5.04811 4.6006 0
M  V30 6808 O 661.945 -5.51925 5.84495 0
M  V30 6809 H 661.677 -0.642728 0.209469 0
M  V30 6810 H 664.231 -1.65234 1.22012 0
M  V30 6811 H 662.461 -3.86662 -0.05394 0
M  V30 6812 H 664.15 -4.046 0.324579 0
M  V30 6813 H 664.916 -3.9556 2.80637 0
M  V30 6814 H 660.795 -4.31114 1.63283 0
M  V30 6815 H 664.339 -4.81474 5.04806 0
M  V30 6816 H 660.236 -5.16961 3.86551 0
M  V30 6817 H 661.004 -5.70225 5.87185 0
M  V30 6818 N 663.667 -0.670007 -1.42649 0
M  V30 6819 C 664.907 -0.194106 -2.03476 0
M  V30 6820 C 665.271 1.1755 -1.51809 0
M  V30 6821 O 666.472 1.74579 -2.04391 0
M  V30 6822 C 664.743 -0.221828 -3.56711 0
M  V30 6823 S 666.302 0.183772 -4.38415 0
M  V30 6824 H 663.12 -0.0802478 -0.706457 0
M  V30 6825 H 665.722 -0.882092 -1.74469 0
M  V30 6826 H 664.426 -1.22107 -3.91814 0
M  V30 6827 H 663.957 0.486149 -3.90385 0
M  V30 6828 H 665.972 1.41839 -4.75496 0
M  V30 6829 N 665.145 1.52092 -0.413018 0
M  V30 6830 C 666.561 1.59471 -0.0640836 0
M  V30 6831 C 666.761 1.42562 1.42402 0
M  V30 6832 O 665.817 1.25453 2.19129 0
M  V30 6833 C 667.13 2.95392 -0.562474 0
M  V30 6834 C 668.678 3.08637 -0.520788 0
M  V30 6835 C 669.153 4.47044 -0.995752 0
M  V30 6836 N 670.644 4.53296 -0.952732 0
M  V30 6837 C 671.379 5.58669 -1.29138 0
M  V30 6838 N 670.875 6.71576 -1.70168 0
M  V30 6839 N 672.668 5.48898 -1.2111 0
M  V30 6840 H 664.819 1.6133 -1.38153 0
M  V30 6841 H 667.082 0.75916 -0.567785 0
M  V30 6842 H 666.788 3.13059 -1.60271 0
M  V30 6843 H 666.662 3.77191 0.0257875 0
M  V30 6844 H 669.049 2.90652 0.510412 0
M  V30 6845 H 669.13 2.28735 -1.14515 0
M  V30 6846 H 668.774 4.65773 -2.0253 0
M  V30 6847 H 668.704 5.25448 -0.348162 0
M  V30 6848 H 671.195 3.72248 -0.651119 0
M  V30 6849 H 671.508 7.47973 -1.9431 0
M  V30 6850 H 669.853 6.72847 -1.74075 0
M  V30 6851 H 673.044 4.59573 -0.889396 0
M  V30 6852 H 673.217 6.30912 -1.47833 0
M  V30 6853 N 666.623 0.143563 1.56945 0
M  V30 6854 C 667.57 -0.797433 2.16586 0
M  V30 6855 C 668.54 -1.24654 1.09775 0
M  V30 6856 O 669.725 -1.31968 1.37801 0
M  V30 6857 C 666.865 -2.03253 2.78895 0
M  V30 6858 C 665.978 -1.62954 4.00087 0
M  V30 6859 C 665.113 -2.81617 4.50406 0
M  V30 6860 C 664.152 -2.37675 5.64072 0
M  V30 6861 N 663.289 -3.49335 6.09023 0
M  V30 6862 H 668.129 -0.282023 2.96662 0
M  V30 6863 H 665.666 -0.127494 1.46546 0
M  V30 6864 H 667.624 -2.75653 3.13163 0
M  V30 6865 H 666.254 -2.52211 2.01469 0
M  V30 6866 H 665.306 -0.803322 3.71821 0
M  V30 6867 H 666.618 -1.26679 4.82446 0
M  V30 6868 H 665.772 -3.62212 4.86711 0
M  V30 6869 H 664.511 -3.21134 3.67048 0
M  V30 6870 H 663.516 -1.55519 5.27346 0
M  V30 6871 H 664.741 -1.99247 6.49213 0
M  V30 6872 H 662.687 -3.8848 5.28601 0
M  V30 6873 H 662.604 -3.17064 6.86299 0
M  V30 6874 H 663.872 -4.30297 6.49973 0
M  V30 6875 N 668.101 -1.57061 -0.130224 0
M  V30 6876 C 669.348 -1.84257 -0.839972 0
M  V30 6877 C 669.676 -0.726986 -1.80403 0
M  V30 6878 O 668.931 0.282632 -1.93648 0
M  V30 6879 C 669.23 -3.17878 -1.63365 0
M  V30 6880 C 668.896 -4.43475 -0.814891 0
M  V30 6881 C 667.558 -4.77581 -0.589066 0
M  V30 6882 C 669.91 -5.20631 -0.243437 0
M  V30 6883 C 667.238 -5.86292 0.218648 0
M  V30 6884 C 669.59 -6.30192 0.551408 0
M  V30 6885 C 668.254 -6.62837 0.787653 0
M  V30 6886 H 667.524 -0.674245 -0.307367 0
M  V30 6887 H 670.171 -1.91224 -0.102832 0
M  V30 6888 H 668.476 -3.06437 -2.44138 0
M  V30 6889 H 670.173 -3.3614 -2.18658 0
M  V30 6890 H 666.763 -4.16747 -1.00098 0
M  V30 6891 H 670.947 -4.94644 -0.405145 0
M  V30 6892 H 666.203 -6.10017 0.411016 0
M  V30 6893 H 670.377 -6.89165 1.00126 0
M  V30 6894 H 668.004 -7.46908 1.41537 0
M  V30 6895 N 669.579 0.400081 -1.52437 0
M  V30 6896 C 670.856 1.15973 -1.57511 0
M  V30 6897 C 671.236 2.0798 -0.361572 0
M  V30 6898 O 670.584 2.19032 0.650929 0
M  V30 6899 C 670.794 1.92912 -2.90837 0
M  V30 6900 C 672.142 2.48662 -3.44169 0
M  V30 6901 O 673.166 2.03081 -2.92637 0
M  V30 6902 O 672.025 3.31894 -4.34176 0
M  V30 6903 H 669.119 0.530023 -0.634827 0
M  V30 6904 H 671.665 0.40613 -1.64769 0
M  V30 6905 H 670.437 1.25564 -3.70607 0
M  V30 6906 H 670.06 2.75257 -2.86913 0
M  V30 6907 N 671.057 1.43213 0.657864 0
M  V30 6908 C 672.306 1.43871 1.41365 0
M  V30 6909 C 672.619 0.064898 1.95492 0
M  V30 6910 O 673.825 -0.0510796 2.71452 0
M  V30 6911 C 672.281 2.53158 2.55811 0
M  V30 6912 C 671.889 3.96624 2.08311 0
M  V30 6913 C 673.633 2.63004 3.3321 0
M  V30 6914 C 671.54 4.97385 3.1994 0
M  V30 6915 H 670.47 0.535174 0.531136 0
M  V30 6916 H 673.121 1.69185 0.710543 0
M  V30 6917 H 671.503 2.21037 3.2857 0
M  V30 6918 H 672.677 4.38182 1.42593 0
M  V30 6919 H 670.992 3.90781 1.43804 0
M  V30 6920 H 673.589 3.3546 4.16378 0
M  V30 6921 H 673.932 1.67918 3.80932 0
M  V30 6922 H 674.465 2.94403 2.67529 0
M  V30 6923 H 671.204 5.94007 2.77192 0
M  V30 6924 H 670.724 4.60444 3.84385 0
M  V30 6925 H 672.403 5.19877 3.85145 0
M  V30 6926 N 672.536 -0.895792 1.29666 0
M  V30 6927 C 673.813 -1.62723 1.08538 0
M  V30 6928 C 674.193 -2.07848 -0.369119 0
M  V30 6929 O 673.541 -1.8372 -1.35864 0
M  V30 6930 C 673.751 -2.80505 2.07648 0
M  V30 6931 C 675.099 -3.51098 2.3878 0
M  V30 6932 O 676.123 -2.90679 2.05874 0
M  V30 6933 O 674.982 -4.60028 2.9502 0
M  V30 6934 H 672.076 -0.714692 0.416106 0
M  V30 6935 H 674.622 -0.943517 1.41053 0
M  V30 6936 H 673.394 -2.44386 3.05599 0
M  V30 6937 H 673.017 -3.5658 1.75887 0
M  V30 6938 N 674.014 -1.12206 -1.10668 0
M  V30 6939 C 675.263 -0.870595 -1.81944 0
M  V30 6940 C 675.576 0.605447 -1.85994 0
M  V30 6941 O 676.782 0.973433 -2.53449 0
M  V30 6942 C 675.238 -1.50783 -3.26791 0
M  V30 6943 C 674.846 -3.01849 -3.31046 0
M  V30 6944 C 676.59 -1.33653 -4.02911 0
M  V30 6945 C 674.497 -3.58518 -4.70339 0
M  V30 6946 H 673.427 -0.322043 -0.681765 0
M  V30 6947 H 676.078 -1.34827 -1.24475 0
M  V30 6948 H 674.46 -0.957825 -3.84242 0
M  V30 6949 H 675.634 -3.63321 -2.83433 0
M  V30 6950 H 673.949 -3.18346 -2.68411 0
M  V30 6951 H 676.546 -1.73416 -5.05797 0
M  V30 6952 H 676.889 -0.279949 -4.15358 0
M  V30 6953 H 677.422 -1.85562 -3.51868 0
M  V30 6954 H 674.161 -4.63925 -4.63091 0
M  V30 6955 H 673.681 -3.01819 -5.18329 0
M  V30 6956 H 675.36 -3.57434 -5.39305 0
M  V30 6957 N 675.492 1.28418 -0.913599 0
M  V30 6958 C 676.908 1.47411 -0.611728 0
M  V30 6959 C 677.108 1.83018 0.843008 0
M  V30 6960 O 676.164 1.93505 1.6221 0
M  V30 6961 C 677.477 2.57703 -1.5495 0
M  V30 6962 C 679.025 2.71572 -1.5562 0
M  V30 6963 C 679.5 3.85008 -2.48058 0
M  V30 6964 N 680.991 3.92361 -2.46184 0
M  V30 6965 C 681.726 4.79516 -3.14407 0
M  V30 6966 N 681.222 5.71262 -3.91958 0
M  V30 6967 N 683.015 4.73125 -3.03495 0
M  V30 6968 H 675.166 1.03585 -1.85429 0
M  V30 6969 H 677.429 0.515907 -0.795326 0
M  V30 6970 H 677.135 2.38298 -2.58663 0
M  V30 6971 H 677.009 3.54801 -1.28048 0
M  V30 6972 H 679.396 2.90366 -0.526441 0
M  V30 6973 H 679.477 1.75006 -1.86565 0
M  V30 6974 H 679.121 3.66969 -3.51136 0
M  V30 6975 H 679.051 4.80971 -2.14416 0
M  V30 6976 H 681.542 3.26749 -1.89851 0
M  V30 6977 H 681.855 6.34593 -4.41034 0
M  V30 6978 H 680.2 5.71103 -3.96063 0
M  V30 6979 H 683.391 4.00442 -2.42413 0
M  V30 6980 H 683.564 5.40834 -3.56935 0
M  V30 6981 N 676.97 0.677563 1.42291 0
M  V30 6982 C 677.9 0.014968 2.33495 0
M  V30 6983 C 678.881 -0.786376 1.50831 0
M  V30 6984 O 680.066 -0.742975 1.79426 0
M  V30 6985 C 677.196 -0.935023 3.34477 0
M  V30 6986 C 676.15 -0.242074 4.27315 0
M  V30 6987 C 675.476 -1.30519 5.18526 0
M  V30 6988 C 676.776 0.880604 5.14823 0
M  V30 6989 H 678.47 0.776671 2.89151 0
M  V30 6990 H 676.016 0.37494 1.39033 0
M  V30 6991 H 677.969 -1.40766 3.97194 0
M  V30 6992 H 676.693 -1.72818 2.77131 0
M  V30 6993 H 675.352 0.210351 3.65996 0
M  V30 6994 H 675 -2.09041 4.57505 0
M  V30 6995 H 674.7 -0.846652 5.81468 0
M  V30 6996 H 676.224 -1.7787 5.84119 0
M  V30 6997 H 677.638 0.489062 5.7121 0
M  V30 6998 H 676.035 1.26511 5.86613 0
M  V30 6999 H 677.105 1.72818 4.53059 0
M  V30 7000 N 678.448 -1.51871 0.421078 0
M  V30 7001 C 679.38 -2.25052 -0.434065 0
M  V30 7002 C 680.393 -1.28458 -1.00013 0
M  V30 7003 O 681.582 -1.54323 -0.897033 0
M  V30 7004 C 678.682 -2.97813 -1.61743 0
M  V30 7005 C 677.855 -4.21374 -1.17315 0
M  V30 7006 C 676.914 -4.76854 -2.22478 0
M  V30 7007 O 675.94 -5.39123 -1.82577 0
M  V30 7008 N 677.142 -4.59467 -3.54782 0
M  V30 7009 H 679.907 -2.99077 0.193073 0
M  V30 7010 H 677.468 -1.59972 0.249088 0
M  V30 7011 H 679.46 -3.3182 -2.31685 0
M  V30 7012 H 678.03 -2.26899 -2.15024 0
M  V30 7013 H 677.25 -3.93046 -0.3014 0
M  V30 7014 H 678.538 -5.01591 -0.853444 0
M  V30 7015 H 677.936 -4.09832 -3.89941 0
M  V30 7016 H 676.493 -4.9788 -4.20665 0
M  V30 7017 N 679.926 -0.151884 -1.56866 0
M  V30 7018 C 680.856 0.781943 -2.20018 0
M  V30 7019 C 681.837 1.25347 -1.14987 0
M  V30 7020 O 683.022 1.31015 -1.43348 0
M  V30 7021 C 680.152 2.01928 -2.82564 0
M  V30 7022 C 679.106 1.68434 -3.93464 0
M  V30 7023 C 678.432 2.99472 -4.42968 0
M  V30 7024 C 679.732 0.927244 -5.14003 0
M  V30 7025 H 681.426 0.255607 -2.98307 0
M  V30 7026 H 678.972 0.121502 -1.43486 0
M  V30 7027 H 680.925 2.67741 -3.25411 0
M  V30 7028 H 679.649 2.56943 -2.01614 0
M  V30 7029 H 678.308 1.04998 -3.51242 0
M  V30 7030 H 677.956 3.52488 -3.58834 0
M  V30 7031 H 677.656 2.77823 -5.17772 0
M  V30 7032 H 679.18 3.66348 -4.88489 0
M  V30 7033 H 680.594 1.48756 -5.53665 0
M  V30 7034 H 678.991 0.810513 -5.94601 0
M  V30 7035 H 680.061 -0.0801163 -4.84834 0
M  V30 7036 N 681.404 1.57128 0.121893 0
M  V30 7037 C 682.337 1.95327 1.17995 0
M  V30 7038 C 683.315 0.822524 1.40262 0
M  V30 7039 O 684.499 1.08044 1.54463 0
M  V30 7040 C 681.626 2.24699 2.53432 0
M  V30 7041 C 680.672 3.47263 2.4761 0
M  V30 7042 S 681.505 4.99951 1.91857 0
M  V30 7043 C 682.661 5.32473 3.28973 0
M  V30 7044 H 682.894 2.84765 0.854182 0
M  V30 7045 H 680.427 1.50864 0.328534 0
M  V30 7046 H 682.385 2.423 3.31362 0
M  V30 7047 H 681.046 1.3588 2.83188 0
M  V30 7048 H 680.239 3.65171 3.4737 0
M  V30 7049 H 679.841 3.29034 1.778 0
M  V30 7050 H 682.133 5.27478 4.25175 0
M  V30 7051 H 683.076 6.33732 3.15895 0
M  V30 7052 H 683.484 4.59952 3.27268 0
M  V30 7053 N 682.882 -0.391992 1.52647 0
M  V30 7054 C 683.792 -1.503 1.80131 0
M  V30 7055 C 684.808 -1.59825 0.687882 0
M  V30 7056 O 685.984 -1.76218 0.975149 0
M  V30 7057 C 683.049 -2.85863 1.96171 0
M  V30 7058 C 682.11 -2.86084 3.20085 0
M  V30 7059 C 681.343 -4.15181 3.35351 0
M  V30 7060 O 681.566 -5.09981 2.55491 0
M  V30 7061 O 680.5 -4.22603 4.28591 0
M  V30 7062 H 684.326 -1.30007 2.74466 0
M  V30 7063 H 681.911 -0.579539 1.37701 0
M  V30 7064 H 683.793 -3.66236 2.08445 0
M  V30 7065 H 682.468 -3.06189 1.05025 0
M  V30 7066 H 681.375 -2.04504 3.13256 0
M  V30 7067 H 682.708 -2.7071 4.11068 0
M  V30 7068 N 684.36 -1.4356 -0.65026 0
M  V30 7069 C 685.292 -1.44918 -1.77571 0
M  V30 7070 C 686.305 -0.344925 -1.59104 0
M  V30 7071 O 687.494 -0.609537 -1.6777 0
M  V30 7072 C 684.594 -1.24914 -3.15039 0
M  V30 7073 C 683.767 -2.48232 -3.60138 0
M  V30 7074 C 682.826 -2.23409 -4.76419 0
M  V30 7075 O 681.852 -2.9678 -4.85706 0
M  V30 7076 N 683.054 -1.25259 -5.66825 0
M  V30 7077 H 685.819 -2.41935 -1.76883 0
M  V30 7078 H 683.38 -1.38754 -0.834202 0
M  V30 7079 H 685.372 -1.06185 -3.90521 0
M  V30 7080 H 683.942 -0.363319 -3.10481 0
M  V30 7081 H 683.162 -2.82366 -2.75069 0
M  V30 7082 H 684.45 -3.30296 -3.87017 0
M  V30 7083 H 683.848 -0.646246 -5.61997 0
M  V30 7084 H 682.405 -1.12513 -6.42016 0
M  V30 7085 N 685.838 0.888903 -1.30139 0
M  V30 7086 C 686.785 1.99422 -1.16188 0
M  V30 7087 C 687.755 1.66017 -0.0523869 0
M  V30 7088 O 688.94 1.89506 -0.221864 0
M  V30 7089 C 686.08 3.34325 -0.855612 0
M  V30 7090 C 685.193 3.80445 -2.0466 0
M  V30 7091 C 684.328 5.03975 -1.67876 0
M  V30 7092 C 683.367 5.42492 -2.83493 0
M  V30 7093 N 682.504 6.57206 -2.47032 0
M  V30 7094 H 687.344 2.10687 -2.10749 0
M  V30 7095 H 684.881 1.03165 -1.04859 0
M  V30 7096 H 686.839 4.11968 -0.658681 0
M  V30 7097 H 685.469 3.22756 0.0531155 0
M  V30 7098 H 684.521 2.98745 -2.3549 0
M  V30 7099 H 685.833 4.04933 -2.91257 0
M  V30 7100 H 684.987 5.89232 -1.44535 0
M  V30 7101 H 683.726 4.8135 -0.784431 0
M  V30 7102 H 682.731 4.55764 -3.07505 0
M  V30 7103 H 683.956 5.67093 -3.73607 0
M  V30 7104 H 681.902 6.36164 -1.601 0
M  V30 7105 H 681.819 6.81543 -3.27161 0
M  V30 7106 H 683.087 7.45704 -2.27038 0
M  V30 7107 N 687.317 1.12792 1.10072 0
M  V30 7108 C 688.563 0.886857 1.82381 0
M  V30 7109 C 688.896 -0.58576 1.85155 0
M  V30 7110 O 688.171 -1.43317 1.31493 0
M  V30 7111 C 688.454 1.46703 3.28862 0
M  V30 7112 C 688.307 3.00829 3.34398 0
M  V30 7113 C 689.626 1.12971 4.25353 0
M  V30 7114 H 686.745 0.32362 0.662148 0
M  V30 7115 H 689.387 1.39513 1.28982 0
M  V30 7116 H 687.537 1.03476 3.74466 0
M  V30 7117 H 689.209 3.52764 2.97247 0
M  V30 7118 H 687.452 3.36164 2.74183 0
M  V30 7119 H 688.123 3.36519 4.3756 0
M  V30 7120 H 690.599 1.50313 3.88001 0
M  V30 7121 H 689.475 1.56223 5.26199 0
M  V30 7122 H 689.736 0.0424452 4.4208 0
M  V30 7123 N 688.795 -1.27931 0.920396 0
M  V30 7124 C 690.041 -1.94977 0.557832 0
M  V30 7125 C 690.374 -1.72224 -0.897365 0
M  V30 7126 O 689.649 -1.04705 -1.63912 0
M  V30 7127 C 689.932 -3.49289 0.875741 0
M  V30 7128 C 689.785 -3.81416 2.38416 0
M  V30 7129 C 691.104 -4.38486 0.376517 0
M  V30 7130 H 688.223 -0.708164 0.20414 0
M  V30 7131 H 690.865 -1.5118 1.15085 0
M  V30 7132 H 689.015 -3.86724 0.371062 0
M  V30 7133 H 690.687 -3.53813 2.95997 0
M  V30 7134 H 688.93 -3.28225 2.83639 0
M  V30 7135 H 689.601 -4.89198 2.55713 0
M  V30 7136 H 692.077 -4.08161 0.808945 0
M  V30 7137 H 690.953 -5.45296 0.627976 0
M  V30 7138 H 691.214 -4.36143 -0.723293 0
M  V30 7139 N 690.273 -0.685099 -1.4193 0
M  V30 7140 C 691.689 -0.355632 -1.55587 0
M  V30 7141 C 691.889 1.13823 -1.66273 0
M  V30 7142 O 690.945 1.92387 -1.63534 0
M  V30 7143 C 692.258 -1.09498 -2.80055 0
M  V30 7144 C 693.806 -1.07831 -2.93839 0
M  V30 7145 C 694.281 -1.79919 -4.21181 0
M  V30 7146 N 695.772 -1.76837 -4.28115 0
M  V30 7147 C 696.507 -2.29463 -5.25485 0
M  V30 7148 N 696.003 -2.90516 -6.28945 0
M  V30 7149 N 697.796 -2.19779 -5.17353 0
M  V30 7150 H 689.947 -1.65412 -1.33239 0
M  V30 7151 H 692.21 -0.697453 -0.642078 0
M  V30 7152 H 691.916 -2.14997 -2.78333 0
M  V30 7153 H 691.79 -0.666813 -3.71259 0
M  V30 7154 H 694.177 -0.0316152 -2.95083 0
M  V30 7155 H 694.258 -1.54545 -2.03837 0
M  V30 7156 H 693.902 -2.84562 -4.20698 0
M  V30 7157 H 693.832 -1.30647 -5.10136 0
M  V30 7158 H 696.323 -1.32315 -3.53979 0
M  V30 7159 H 696.636 -3.28266 -6.99615 0
M  V30 7160 H 694.981 -2.94589 -6.29478 0
M  V30 7161 H 698.172 -1.71763 -4.35448 0
M  V30 7162 H 698.345 -2.61097 -5.9307 0
M  V30 7163 N 691.751 1.51645 -0.429126 0
M  V30 7164 C 692.976 2.06917 0.141399 0
M  V30 7165 C 693.401 1.29527 1.36398 0
M  V30 7166 O 692.759 0.33094 1.78254 0
M  V30 7167 C 692.807 3.57776 0.4504 0
M  V30 7168 O 691.911 3.82639 1.53821 0
M  V30 7169 H 691.252 0.663978 0.0054647 0
M  V30 7170 H 693.782 1.95355 -0.608093 0
M  V30 7171 H 693.792 4.01894 0.703249 0
M  V30 7172 H 692.467 4.13532 -0.443213 0
M  V30 7173 H 691.044 3.5039 1.27597 0
M  V30 7174 N 693.229 0.160201 1.56784 0
M  V30 7175 C 694.506 -0.533355 1.88188 0
M  V30 7176 C 694.886 -1.82072 1.06831 0
M  V30 7177 O 694.234 -2.27946 0.158959 0
M  V30 7178 C 694.444 -0.786034 3.40033 0
M  V30 7179 C 695.792 -1.12097 4.09536 0
M  V30 7180 O 696.816 -0.874949 3.45287 0
M  V30 7181 O 695.675 -1.58457 5.23023 0
M  V30 7182 H 692.769 -0.273589 0.780434 0
M  V30 7183 H 695.315 0.197803 1.68543 0
M  V30 7184 H 694.087 0.124515 3.91102 0
M  V30 7185 H 693.71 -1.57091 3.65251 0
M  V30 7186 N 694.707 -1.5719 -0.113559 0
M  V30 7187 C 695.637 -2.03772 -1.14013 0
M  V30 7188 C 696.618 -0.923176 -1.42869 0
M  V30 7189 O 697.803 -1.19325 -1.53216 0
M  V30 7190 C 694.933 -2.44663 -2.4649 0
M  V30 7191 C 693.887 -3.59612 -2.32085 0
M  V30 7192 C 693.213 -3.8642 -3.69573 0
M  V30 7193 C 694.513 -4.91149 -1.7768 0
M  V30 7194 H 696.207 -2.89785 -0.752665 0
M  V30 7195 H 693.753 -1.39412 -0.360609 0
M  V30 7196 H 695.706 -2.75857 -3.18561 0
M  V30 7197 H 694.43 -1.55628 -2.87137 0
M  V30 7198 H 693.089 -3.28636 -1.62461 0
M  V30 7199 H 692.737 -2.94581 -4.07715 0
M  V30 7200 H 692.437 -4.63797 -3.60786 0
M  V30 7201 H 693.961 -4.2007 -4.4314 0
M  V30 7202 H 695.375 -5.20843 -2.39574 0
M  V30 7203 H 693.772 -5.72562 -1.79701 0
M  V30 7204 H 694.842 -4.79301 -0.734776 0
M  V30 7205 N 696.185 0.383891 -1.52853 0
M  V30 7206 C 697.148 1.45197 -1.77343 0
M  V30 7207 C 698.148 1.47362 -0.643522 0
M  V30 7208 O 699.338 1.48443 -0.911613 0
M  V30 7209 C 696.47 2.8445 -1.87885 0
M  V30 7210 H 697.663 1.24764 -2.72716 0
M  V30 7211 H 695.216 0.615939 -1.43652 0
M  V30 7212 H 695.951 3.10222 -0.94515 0
M  V30 7213 H 695.736 2.8428 -2.70051 0
M  V30 7214 H 697.226 3.61832 -2.08488 0
M  V30 7215 N 697.663 1.43903 0.642637 0
M  V30 7216 C 699.079 1.27536 0.959519 0
M  V30 7217 C 699.279 0.202751 2.00477 0
M  V30 7218 O 698.335 -0.415256 2.49062 0
M  V30 7219 C 699.648 2.6432 1.43372 0
M  V30 7220 C 701.196 2.71937 1.54981 0
M  V30 7221 C 701.671 4.09164 2.05789 0
M  V30 7222 N 703.162 4.11282 2.13076 0
M  V30 7223 C 703.897 5.14303 2.53534 0
M  V30 7224 N 703.393 6.27693 2.93212 0
M  V30 7225 N 705.186 5.01657 2.53567 0
M  V30 7226 H 697.337 2.12344 -0.0488376 0
M  V30 7227 H 699.6 0.947124 0.0407559 0
M  V30 7228 H 699.306 3.43826 0.740048 0
M  V30 7229 H 699.18 2.90432 2.40685 0
M  V30 7230 H 701.567 1.92757 2.23448 0
M  V30 7231 H 701.648 2.49578 0.560739 0
M  V30 7232 H 701.292 4.88815 1.37921 0
M  V30 7233 H 701.222 4.28893 3.05546 0
M  V30 7234 H 703.713 3.2944 1.85143 0
M  V30 7235 H 704.026 7.02125 3.22863 0
M  V30 7236 H 702.371 6.31149 2.90991 0
M  V30 7237 H 705.562 4.12134 2.21952 0
M  V30 7238 H 705.735 5.82072 2.84774 0
M  V30 7239 N 699.141 -0.881989 1.30609 0
M  V30 7240 C 700.369 -1.66711 1.22536 0
M  V30 7241 C 700.784 -1.87614 -0.2113 0
M  V30 7242 O 700.141 -1.42576 -1.13923 0
M  V30 7243 C 700.192 -3.04182 1.95335 0
M  V30 7244 O 699.913 -2.8422 3.33393 0
M  V30 7245 C 701.414 -3.98617 1.93956 0
M  V30 7246 H 698.634 -0.520124 0.423925 0
M  V30 7247 H 701.178 -1.10174 1.72285 0
M  V30 7248 H 699.333 -3.57442 1.49378 0
M  V30 7249 H 699.747 -3.71452 3.70302 0
M  V30 7250 H 701.221 -4.92433 2.49426 0
M  V30 7251 H 701.698 -4.29473 0.919198 0
M  V30 7252 H 702.304 -3.51292 2.39738 0
M  V30 7253 N 700.619 -1.13374 -1.09472 0
M  V30 7254 C 701.865 -0.896516 -1.81908 0
M  V30 7255 C 702.198 0.575933 -1.85463 0
M  V30 7256 O 701.473 1.42618 -1.32251 0
M  V30 7257 C 701.756 -1.48445 -3.28079 0
M  V30 7258 C 701.609 -3.02598 -3.32798 0
M  V30 7259 C 702.928 -1.15226 -4.24748 0
M  V30 7260 H 700.047 -0.327127 -0.660422 0
M  V30 7261 H 702.689 -1.40195 -1.2824 0
M  V30 7262 H 700.839 -1.0546 -3.73912 0
M  V30 7263 H 702.511 -3.54335 -2.95372 0
M  V30 7264 H 700.754 -3.37613 -2.72397 0
M  V30 7265 H 701.425 -3.38835 -4.3577 0
M  V30 7266 H 703.901 -1.52369 -3.87199 0
M  V30 7267 H 702.777 -1.59012 -5.25363 0
M  V30 7268 H 703.038 -0.0658891 -4.42051 0
M  V30 7269 N 702.098 1.27442 -0.927168 0
M  V30 7270 C 703.046 2.28844 -0.416333 0
M  V30 7271 C 704.04 1.61882 0.499057 0
M  V30 7272 O 705.246 1.75969 0.378817 0
M  V30 7273 H 701.621 0.742989 -0.116065 0
M  V30 7274 H 703.592 2.69344 -1.28438 0
M  V30 7275 C 702.341 3.4626 0.316107 0
M  V30 7276 H 701.664 3.97999 -0.379082 0
M  V30 7277 H 703.104 4.19173 0.637975 0
M  V30 7278 C 701.563 3.00211 1.5289 0
M  V30 7279 O 702.093 3.03837 2.62766 0
M  V30 7280 N 700.299 2.55713 1.38054 0
M  V30 7281 H 699.846 2.52962 0.4866 0
M  V30 7282 H 699.804 2.25264 2.19325 0
M  V30 7283 N 703.576 0.692616 1.41565 0
M  V30 7284 C 704.853 0.150496 1.9502 0
M  V30 7285 C 705.233 -1.33881 1.63215 0
M  V30 7286 O 704.581 -2.08378 0.937598 0
M  V30 7287 C 704.791 0.438636 3.46233 0
M  V30 7288 C 706.139 0.364777 4.2303 0
M  V30 7289 O 707.163 0.373383 3.54238 0
M  V30 7290 O 706.022 0.32234 5.45549 0
M  V30 7291 H 703.116 0.0132454 0.826894 0
M  V30 7292 H 705.662 0.768574 1.51298 0
M  V30 7293 H 704.434 1.46962 3.62654 0
M  V30 7294 H 704.057 -0.210562 3.97042 0
M  V30 7295 N 705.054 -1.51416 0.437162 0
M  V30 7296 C 706.331 -1.94682 -0.189292 0
M  V30 7297 C 706.711 -1.37581 -1.60108 0
M  V30 7298 O 706.059 -0.562815 -2.2146 0
M  V30 7299 C 706.269 -3.48599 -0.167201 0
M  V30 7300 C 707.617 -4.2296 -0.372856 0
M  V30 7301 O 708.641 -3.55354 -0.245323 0
M  V30 7302 O 707.5 -5.42895 -0.626693 0
M  V30 7303 H 704.594 -0.816708 -0.130063 0
M  V30 7304 H 707.14 -1.62316 0.495128 0
M  V30 7305 H 705.912 -3.82616 0.81981 0
M  V30 7306 H 705.535 -3.87406 -0.894537 0
M  V30 7307 N 706.532 -0.168513 -1.56696 0
M  V30 7308 C 707.464 0.794249 -2.14998 0
M  V30 7309 C 708.477 1.1957 -1.10485 0
M  V30 7310 O 709.666 1.13604 -1.37682 0
M  V30 7311 C 706.766 2.08018 -2.67547 0
M  V30 7312 C 705.939 1.84274 -3.96689 0
M  V30 7313 C 704.998 2.97059 -4.3433 0
M  V30 7314 O 704.024 2.67815 -5.02259 0
M  V30 7315 N 705.226 4.24775 -3.9566 0
M  V30 7316 H 707.991 0.295832 -2.98236 0
M  V30 7317 H 705.552 0.0143611 -1.61894 0
M  V30 7318 H 707.544 2.82559 -2.89729 0
M  V30 7319 H 706.114 2.49059 -1.88914 0
M  V30 7320 H 705.334 0.936528 -3.82914 0
M  V30 7321 H 706.622 1.65773 -4.81037 0
M  V30 7322 H 706.02 4.51395 -3.40968 0
M  V30 7323 H 704.577 4.96027 -4.22848 0
M  V30 7324 N 708.01 1.57248 0.105221 0
M  V30 7325 C 709.235 1.90143 0.828264 0
M  V30 7326 C 709.66 0.761811 1.71983 0
M  V30 7327 O 709.018 -0.287086 1.79013 0
M  V30 7328 C 709.066 3.21856 1.62608 0
M  V30 7329 O 708.17 3.08732 2.7342 0
M  V30 7330 H 707.511 0.623558 0.228192 0
M  V30 7331 H 710.041 2.0443 0.0834826 0
M  V30 7332 H 710.051 3.54916 2.01243 0
M  V30 7333 H 708.726 4.0439 0.971687 0
M  V30 7334 H 707.303 2.87167 2.37886 0
M  V30 7335 N 709.488 -0.375779 1.53054 0
M  V30 7336 C 710.899 -0.95309 1.6054 0
M  V30 7337 C 711.25 -1.90575 0.466446 0
M  V30 7338 O 710.375 -2.12507 -0.408609 0
M  V30 7339 C 710.97 -1.73537 2.90982 0
M  V30 7340 C 709.529 -2.26218 3.00836 0
M  V30 7341 C 708.676 -1.07157 2.55759 0
M  V30 7342 H 711.627 -0.154895 1.57942 0
M  V30 7343 H 711.648 -2.59574 2.78211 0
M  V30 7344 H 711.16 -1.04176 3.73857 0
M  V30 7345 H 709.261 -2.98852 2.22527 0
M  V30 7346 H 709.374 -2.54799 4.05727 0
M  V30 7347 H 707.738 -1.43553 2.10391 0
M  V30 7348 H 708.521 -0.393099 3.41042 0
M  V30 7349 N 710.966 -1.44241 -0.634997 0
M  V30 7350 C 712.191 -1.50516 -1.42687 0
M  V30 7351 C 712.616 -0.129864 -1.87651 0
M  V30 7352 O 711.974 0.880164 -1.58502 0
M  V30 7353 C 712.022 -2.4714 -2.62591 0
M  V30 7354 O 711.126 -1.97025 -3.62291 0
M  V30 7355 H 710.467 -0.50841 -0.427101 0
M  V30 7356 H 712.997 -1.89337 -0.775408 0
M  V30 7357 H 713.007 -2.65048 -3.10183 0
M  V30 7358 H 711.682 -3.47039 -2.29209 0
M  V30 7359 H 710.259 -1.88866 -3.21534 0
M  V30 7360 N 712.444 0.87505 -1.31075 0
M  V30 7361 C 713.672 1.66058 -1.23419 0
M  V30 7362 C 714.087 1.87723 0.201347 0
M  V30 7363 O 713.444 1.43178 1.13165 0
M  V30 7364 C 713.495 3.03142 -1.96945 0
M  V30 7365 O 713.216 2.82448 -3.34895 0
M  V30 7366 C 714.717 3.97583 -1.96067 0
M  V30 7367 H 711.937 0.517868 -0.426677 0
M  V30 7368 H 714.481 1.09258 -1.72867 0
M  V30 7369 H 712.636 3.56645 -1.51271 0
M  V30 7370 H 713.05 3.69483 -3.72267 0
M  V30 7371 H 714.524 4.91104 -2.52034 0
M  V30 7372 H 715.001 4.2898 -0.941961 0
M  V30 7373 H 715.607 3.50015 -2.41597 0
M  V30 7374 N 713.922 1.13953 1.08869 0
M  V30 7375 C 714.852 0.844824 2.17681 0
M  V30 7376 C 715.833 -0.198213 1.68941 0
M  V30 7377 O 717.018 -0.0559073 1.9412 0
M  V30 7378 C 714.148 0.316325 3.45856 0
M  V30 7379 C 713.102 1.29426 4.07962 0
M  V30 7380 C 712.428 0.625275 5.31031 0
M  V30 7381 C 713.728 2.65484 4.49795 0
M  V30 7382 H 715.422 1.75471 2.42591 0
M  V30 7383 H 712.968 0.845116 1.16592 0
M  V30 7384 H 714.921 0.0977876 4.21287 0
M  V30 7385 H 713.645 -0.628972 3.20486 0
M  V30 7386 H 712.304 1.49889 3.34558 0
M  V30 7387 H 711.952 -0.325678 5.01945 0
M  V30 7388 H 711.652 1.27777 5.73539 0
M  V30 7389 H 713.176 0.416152 6.0918 0
M  V30 7390 H 714.59 2.48957 5.16424 0
M  V30 7391 H 712.987 3.26963 5.03205 0
M  V30 7392 H 714.057 3.22717 3.61914 0
M  V30 7393 N 715.4 -1.26948 0.933913 0
M  V30 7394 C 716.348 -2.2862 0.428463 0
M  V30 7395 C 717.342 -1.62144 -0.490464 0
M  V30 7396 O 718.548 -1.76167 -0.36948 0
M  V30 7397 H 714.923 -0.742363 0.120003 0
M  V30 7398 H 716.894 -2.68659 1.29865 0
M  V30 7399 C 715.643 -3.46423 -0.29774 0
M  V30 7400 H 714.966 -3.97792 0.400183 0
M  V30 7401 H 716.406 -4.19505 -0.615736 0
M  V30 7402 C 714.865 -3.01017 -1.51295 0
M  V30 7403 O 715.395 -3.05226 -2.61151 0
M  V30 7404 N 713.601 -2.56442 -1.36696 0
M  V30 7405 H 713.148 -2.53217 -0.473178 0
M  V30 7406 H 713.106 -2.26424 -2.18127 0
M  V30 7407 N 716.879 -0.700114 -1.41195 0
M  V30 7408 C 718.109 -0.241828 -2.0518 0
M  V30 7409 C 718.517 1.1157 -1.52803 0
M  V30 7410 O 717.86 1.70926 -0.673042 0
M  V30 7411 C 717.922 -0.12695 -3.59276 0
M  V30 7412 C 717.586 -1.41725 -4.34469 0
M  V30 7413 C 718.583 -2.35604 -4.63451 0
M  V30 7414 C 716.268 -1.67189 -4.73659 0
M  V30 7415 C 718.262 -3.53204 -5.3059 0
M  V30 7416 C 715.949 -2.85073 -5.40534 0
M  V30 7417 C 716.947 -3.77904 -5.68927 0
M  V30 7418 O 716.635 -4.93723 -6.34424 0
M  V30 7419 H 716.367 -0.109247 -0.667114 0
M  V30 7420 H 718.921 -0.954538 -1.81873 0
M  V30 7421 H 717.151 0.641571 -3.81341 0
M  V30 7422 H 718.84 0.294748 -4.04828 0
M  V30 7423 H 719.606 -2.1719 -4.33651 0
M  V30 7424 H 715.485 -0.957935 -4.50937 0
M  V30 7425 H 719.029 -4.25679 -5.52669 0
M  V30 7426 H 714.926 -3.03402 -5.69752 0
M  V30 7427 H 715.694 -4.93597 -6.5292 0
M  V30 7428 N 718.357 1.51182 -0.445186 0
M  V30 7429 C 719.287 2.30821 0.352686 0
M  V30 7430 C 720.268 1.36576 1.01395 0
M  V30 7431 O 721.453 1.65497 1.01609 0
M  V30 7432 C 718.583 3.15593 1.44976 0
M  V30 7433 C 717.537 4.1818 0.911553 0
M  V30 7434 C 716.863 4.91523 2.10497 0
M  V30 7435 C 718.163 5.22266 -0.059418 0
M  V30 7436 H 719.857 2.97771 -0.311936 0
M  V30 7437 H 717.403 1.43201 -0.151461 0
M  V30 7438 H 719.356 3.70091 2.01521 0
M  V30 7439 H 718.08 2.4648 2.14278 0
M  V30 7440 H 716.739 3.64746 0.368264 0
M  V30 7441 H 716.387 4.18906 2.78437 0
M  V30 7442 H 716.087 5.60898 1.7512 0
M  V30 7443 H 717.611 5.48847 2.6758 0
M  V30 7444 H 719.025 5.71789 0.415985 0
M  V30 7445 H 717.422 5.99213 -0.326152 0
M  V30 7446 H 718.492 4.7461 -0.993631 0
M  V30 7447 N 719.835 0.176821 1.56605 0
M  V30 7448 C 721.081 -0.467406 1.9734 0
M  V30 7449 C 721.414 -1.62523 1.06301 0
M  V30 7450 O 720.689 -1.94182 0.11125 0
M  V30 7451 C 720.972 -0.945106 3.47476 0
M  V30 7452 C 720.825 0.213273 4.49294 0
M  V30 7453 C 722.144 -1.8169 4.00845 0
M  V30 7454 H 719.263 -0.168426 0.717497 0
M  V30 7455 H 721.905 0.264065 1.88156 0
M  V30 7456 H 720.055 -1.56841 3.55434 0
M  V30 7457 H 721.727 0.850508 4.53392 0
M  V30 7458 H 719.97 0.867918 4.25029 0
M  V30 7459 H 720.641 -0.163187 5.51759 0
M  V30 7460 H 723.117 -1.29139 3.95553 0
M  V30 7461 H 721.993 -2.12015 5.06301 0
M  V30 7462 H 722.254 -2.76463 3.44994 0
M  V30 7463 N 721.313 -1.57302 -0.09688 0
M  V30 7464 C 722.263 -1.98369 -1.12399 0
M  V30 7465 C 723.247 -0.861872 -1.3587 0
M  V30 7466 O 724.439 -1.1257 -1.36591 0
M  V30 7467 C 721.568 -2.41017 -2.4447 0
M  V30 7468 C 720.654 -3.59881 -2.24381 0
M  V30 7469 N 721.045 -4.74872 -1.74155 0
M  V30 7470 C 719.343 -3.65943 -2.54954 0
M  V30 7471 C 720.044 -5.56823 -1.68294 0
M  V30 7472 N 719.02 -4.99942 -2.13444 0
M  V30 7473 H 722.822 -2.84726 -0.728575 0
M  V30 7474 H 720.336 -1.59523 -0.304332 0
M  V30 7475 H 722.333 -2.68665 -3.18786 0
M  V30 7476 H 720.993 -1.56036 -2.84751 0
M  V30 7477 H 722.004 -4.97657 -1.43379 0
M  V30 7478 H 718.681 -2.9162 -2.98771 0
M  V30 7479 H 720.071 -6.59099 -1.30528 0
M  V30 7480 N 722.791 0.367657 -1.53252 0
M  V30 7481 C 723.721 1.45632 -1.8252 0
M  V30 7482 C 724.702 1.55979 -0.678568 0
M  V30 7483 O 725.887 1.70581 -0.928217 0
M  V30 7484 C 723.017 2.82994 -2.01325 0
M  V30 7485 C 721.971 2.87473 -3.17086 0
M  V30 7486 C 721.297 4.2749 -3.21179 0
M  V30 7487 C 722.597 2.55182 -4.55719 0
M  V30 7488 H 724.291 1.21387 -2.73689 0
M  V30 7489 H 721.837 0.58251 -1.31692 0
M  V30 7490 H 723.79 3.59179 -2.20383 0
M  V30 7491 H 722.514 3.08622 -1.06864 0
M  V30 7492 H 721.173 2.13739 -2.97844 0
M  V30 7493 H 720.821 4.5019 -2.24361 0
M  V30 7494 H 720.521 4.31403 -3.98955 0
M  V30 7495 H 722.045 5.0555 -3.42419 0
M  V30 7496 H 723.459 3.21081 -4.74953 0
M  V30 7497 H 721.856 2.70414 -5.3572 0
M  V30 7498 H 722.926 1.5044 -4.60973 0
M  V30 7499 N 724.269 1.44576 0.627338 0
M  V30 7500 C 725.201 1.47724 1.75243 0
M  V30 7501 C 726.214 0.370193 1.58535 0
M  V30 7502 O 727.403 0.636151 1.66779 0
M  V30 7503 C 724.503 1.2991 3.13012 0
M  V30 7504 C 723.676 2.5393 3.56143 0
M  V30 7505 C 722.735 2.30961 4.72804 0
M  V30 7506 O 721.761 3.04469 4.80923 0
M  V30 7507 N 722.963 1.34261 5.6476 0
M  V30 7508 H 725.728 2.44718 1.73012 0
M  V30 7509 H 723.289 1.40064 0.812022 0
M  V30 7510 H 725.281 1.12385 3.88782 0
M  V30 7511 H 723.851 0.412668 3.09864 0
M  V30 7512 H 723.071 2.86707 2.70542 0
M  V30 7513 H 724.359 3.36411 3.81713 0
M  V30 7514 H 723.757 0.735573 5.60897 0
M  V30 7515 H 722.314 1.22713 6.40144 0
M  V30 7516 N 725.747 -0.868086 1.31537 0
M  V30 7517 C 726.657 -2.00801 1.21311 0
M  V30 7518 C 727.673 -1.73518 0.129431 0
M  V30 7519 O 728.849 -1.98378 0.347588 0
M  V30 7520 C 725.914 -3.3419 0.922935 0
M  V30 7521 C 724.975 -3.74783 2.0937 0
M  V30 7522 C 724.208 -5.01807 1.81728 0
M  V30 7523 O 724.431 -5.65404 0.753313 0
M  V30 7524 O 723.365 -5.39213 2.67457 0
M  V30 7525 H 727.191 -2.12361 2.17109 0
M  V30 7526 H 724.776 -0.996684 1.11295 0
M  V30 7527 H 726.658 -4.14174 0.777033 0
M  V30 7528 H 725.333 -3.237 -0.00500301 0
M  V30 7529 H 724.24 -2.95432 2.29501 0
M  V30 7530 H 725.573 -3.89902 3.00396 0
M  V30 7531 N 727.225 -1.14528 -1.08264 0
M  V30 7532 C 728.641 -0.885976 -1.3275 0
M  V30 7533 C 728.841 0.472096 -1.95892 0
M  V30 7534 O 727.897 1.21606 -2.21288 0
M  V30 7535 C 729.21 -2.01982 -2.22764 0
M  V30 7536 C 730.758 -2.05329 -2.36239 0
M  V30 7537 C 731.233 -3.1801 -3.29596 0
M  V30 7538 N 732.724 -3.17598 -3.37173 0
M  V30 7539 C 733.459 -4.01426 -4.09444 0
M  V30 7540 N 732.955 -4.95297 -4.8441 0
M  V30 7541 N 734.748 -3.89482 -4.0529 0
M  V30 7542 H 726.899 -2.01996 -0.656607 0
M  V30 7543 H 729.162 -0.880274 -0.351884 0
M  V30 7544 H 728.868 -2.99964 -1.83615 0
M  V30 7545 H 728.742 -1.94421 -3.23234 0
M  V30 7546 H 731.129 -1.07953 -2.74646 0
M  V30 7547 H 731.21 -2.1696 -1.35506 0
M  V30 7548 H 730.854 -4.15633 -2.9191 0
M  V30 7549 H 730.784 -3.03616 -4.30261 0
M  V30 7550 H 733.275 -2.4961 -2.83731 0
M  V30 7551 H 733.588 -5.55723 -5.37021 0
M  V30 7552 H 731.933 -4.99293 -4.83457 0
M  V30 7553 H 735.124 -3.15465 -3.45832 0
M  V30 7554 H 735.297 -4.55039 -4.6135 0
M  V30 7555 N 728.703 1.26451 -0.940633 0
M  V30 7556 C 730.114 1.75726 -0.630653 0
M  V30 7557 C 730.465 1.76631 0.854167 0
M  V30 7558 O 729.59 1.37807 1.66848 0
M  V30 7559 C 730.185 3.19114 -1.13805 0
M  V30 7560 C 728.744 3.66005 -0.878497 0
M  V30 7561 C 727.891 2.45505 -1.28928 0
M  V30 7562 H 730.842 1.12535 -1.119 0
M  V30 7563 H 730.863 3.77311 -0.491625 0
M  V30 7564 H 730.375 3.18424 -2.21874 0
M  V30 7565 H 728.476 3.72126 0.187833 0
M  V30 7566 H 728.589 4.54844 -1.50512 0
M  V30 7567 H 726.953 2.4467 -0.707713 0
M  V30 7568 H 727.736 2.47516 -2.37888 0
M  V30 7569 N 730.181 0.707592 1.40822 0
M  V30 7570 C 731.427 0.244031 2.01326 0
M  V30 7571 C 731.76 -1.15722 1.55955 0
M  V30 7572 O 731.035 -1.78347 0.776044 0
M  V30 7573 C 731.318 0.315128 3.58718 0
M  V30 7574 C 731.171 1.75419 4.14184 0
M  V30 7575 C 732.49 -0.318251 4.38948 0
M  V30 7576 H 729.609 0.0901471 0.731466 0
M  V30 7577 H 732.251 0.898584 1.67408 0
M  V30 7578 H 730.401 -0.242176 3.87744 0
M  V30 7579 H 732.073 2.36626 3.95987 0
M  V30 7580 H 730.316 2.28449 3.68773 0
M  V30 7581 H 730.987 1.75538 5.23345 0
M  V30 7582 H 733.463 0.156514 4.15806 0
M  V30 7583 H 732.339 -0.238019 5.48384 0
M  V30 7584 H 732.6 -1.40067 4.19325 0
M  V30 7585 N 731.66 -1.50943 0.453197 0
M  V30 7586 C 732.607 -2.28128 -0.350197 0
M  V30 7587 C 733.577 -1.32398 -1.00299 0
M  V30 7588 O 734.762 -1.61319 -1.01887 0
M  V30 7589 C 731.902 -3.13782 -1.43649 0
M  V30 7590 C 731.015 -4.24523 -0.800255 0
M  V30 7591 C 730.15 -4.97462 -1.86293 0
M  V30 7592 C 729.189 -6.00102 -1.20598 0
M  V30 7593 N 728.326 -6.66387 -2.21071 0
M  V30 7594 H 733.166 -2.96337 0.31434 0
M  V30 7595 H 730.703 -1.46151 0.166863 0
M  V30 7596 H 732.661 -3.6178 -2.07776 0
M  V30 7597 H 731.291 -2.47655 -2.07044 0
M  V30 7598 H 730.343 -3.80371 -0.0468651 0
M  V30 7599 H 731.655 -4.98009 -0.280777 0
M  V30 7600 H 730.809 -5.49088 -2.58044 0
M  V30 7601 H 729.548 -4.23642 -2.41617 0
M  V30 7602 H 728.553 -5.47753 -0.474 0
M  V30 7603 H 729.778 -6.75887 -0.659859 0
M  V30 7604 H 727.724 -5.9537 -2.75446 0
M  V30 7605 H 727.641 -7.3569 -1.74058 0
M  V30 7606 H 728.909 -7.22638 -2.92257 0
M  V30 7607 N 733.138 -0.185124 -1.56509 0
M  V30 7608 C 734.07 0.771401 -2.15829 0
M  V30 7609 C 735.083 1.18392 -1.11747 0
M  V30 7610 O 736.272 1.12137 -1.38879 0
M  V30 7611 C 733.372 2.05169 -2.69739 0
M  V30 7612 C 732.545 1.80056 -3.98621 0
M  V30 7613 C 731.604 2.92435 -4.37456 0
M  V30 7614 O 730.63 2.62473 -5.05071 0
M  V30 7615 N 731.832 4.20554 -4.00143 0
M  V30 7616 H 734.597 0.264184 -2.98533 0
M  V30 7617 H 732.158 -0.00281069 -1.619 0
M  V30 7618 H 734.15 2.7947 -2.92709 0
M  V30 7619 H 732.72 2.47041 -1.91545 0
M  V30 7620 H 731.94 0.895862 -3.83885 0
M  V30 7621 H 733.228 1.60662 -4.82768 0
M  V30 7622 H 732.626 4.47753 -3.45736 0
M  V30 7623 H 731.183 4.91514 -4.28085 0
M  V30 7624 N 734.616 1.57351 0.0885366 0
M  V30 7625 C 735.844 1.90631 0.804196 0
M  V30 7626 C 736.259 0.779474 1.71958 0
M  V30 7627 O 735.616 -0.248179 1.80805 0
M  V30 7628 C 735.667 3.23568 1.61202 0
M  V30 7629 O 735.388 4.31917 0.733447 0
M  V30 7630 C 736.889 3.70753 2.43016 0
M  V30 7631 H 734.109 0.630501 0.229585 0
M  V30 7632 H 736.653 2.044 0.0638092 0
M  V30 7633 H 734.808 3.11377 2.30485 0
M  V30 7634 H 735.222 5.08297 1.29361 0
M  V30 7635 H 736.696 4.66447 2.9518 0
M  V30 7636 H 737.173 2.98922 3.2178 0
M  V30 7637 H 737.779 3.85834 1.7892 0
M  V30 7638 N 736.094 -0.359525 1.53444 0
M  V30 7639 C 737.343 -1.09886 1.69139 0
M  V30 7640 C 737.656 -1.90285 0.452863 0
M  V30 7641 O 738.862 -2.67033 0.490459 0
M  V30 7642 C 737.318 -2.0028 2.99025 0
M  V30 7643 C 736.926 -1.25164 4.30161 0
M  V30 7644 C 738.67 -2.74168 3.24086 0
M  V30 7645 C 736.577 -2.14494 5.51132 0
M  V30 7646 H 735.507 -0.413936 0.630217 0
M  V30 7647 H 738.158 -0.359434 1.79945 0
M  V30 7648 H 736.54 -2.77978 2.82036 0
M  V30 7649 H 737.714 -0.524867 4.57801 0
M  V30 7650 H 736.029 -0.631116 4.11589 0
M  V30 7651 H 738.626 -3.41243 4.11652 0
M  V30 7652 H 738.969 -3.39868 2.40407 0
M  V30 7653 H 739.502 -2.0355 3.41778 0
M  V30 7654 H 736.241 -1.53362 6.37307 0
M  V30 7655 H 735.761 -2.85004 5.27762 0
M  V30 7656 H 737.44 -2.73914 5.86157 0
M  V30 7657 N 737.572 -1.44907 -0.619662 0
M  V30 7658 C 738.797 -1.52021 -1.41083 0
M  V30 7659 C 739.222 -0.14976 -1.87503 0
M  V30 7660 O 738.58 0.863303 -1.59426 0
M  V30 7661 C 738.628 -2.49911 -2.59955 0
M  V30 7662 O 737.732 -2.00857 -3.60181 0
M  V30 7663 H 737.073 -0.512912 -0.421684 0
M  V30 7664 H 739.603 -1.90149 -0.755282 0
M  V30 7665 H 739.613 -2.68323 -3.07354 0
M  V30 7666 H 738.288 -3.4945 -2.25516 0
M  V30 7667 H 736.865 -1.92265 -3.19513 0
M  V30 7668 N 739.05 0.861098 -1.31996 0
M  V30 7669 C 740.466 1.14827 -1.10846 0
M  V30 7670 C 740.666 2.0117 0.11528 0
M  V30 7671 O 739.722 2.39423 0.802048 0
M  V30 7672 C 741.035 1.83183 -2.38462 0
M  V30 7673 C 742.583 1.95847 -2.44158 0
M  V30 7674 C 743.058 2.67617 -3.71679 0
M  V30 7675 N 744.549 2.75147 -3.72624 0
M  V30 7676 C 745.284 3.31314 -4.67994 0
M  V30 7677 N 744.78 3.88343 -5.73726 0
M  V30 7678 N 746.573 3.29356 -4.55501 0
M  V30 7679 H 738.724 0.285951 -2.10466 0
M  V30 7680 H 740.987 0.189303 -0.928907 0
M  V30 7681 H 740.693 1.27193 -3.27895 0
M  V30 7682 H 740.567 2.83393 -2.48935 0
M  V30 7683 H 742.954 2.50999 -1.55189 0
M  V30 7684 H 743.035 0.94653 -2.37644 0
M  V30 7685 H 742.679 2.13131 -4.61018 0
M  V30 7686 H 742.609 3.69237 -3.75462 0
M  V30 7687 H 745.1 2.34682 -2.96197 0
M  V30 7688 H 745.413 4.29338 -6.42564 0
M  V30 7689 H 743.758 3.86693 -5.77489 0
M  V30 7690 H 746.949 2.84047 -3.72069 0
M  V30 7691 H 747.122 3.7283 -5.30001 0
M  V30 7692 N 740.528 1.15101 1.07655 0
M  V30 7693 C 741.46 0.802722 2.14684 0
M  V30 7694 C 742.473 -0.183874 1.61758 0
M  V30 7695 O 743.662 0.0389349 1.78458 0
M  V30 7696 C 740.762 0.172135 3.38463 0
M  V30 7697 C 739.935 1.19538 4.20749 0
M  V30 7698 C 738.994 0.58714 5.22914 0
M  V30 7699 O 738.02 1.25224 5.55255 0
M  V30 7700 N 739.222 -0.632566 5.77043 0
M  V30 7701 H 741.987 1.72379 2.45164 0
M  V30 7702 H 739.548 1.04647 1.23534 0
M  V30 7703 H 741.54 -0.247465 4.03943 0
M  V30 7704 H 740.11 -0.652214 3.0572 0
M  V30 7705 H 739.33 1.79165 3.51132 0
M  V30 7706 H 740.618 1.88636 4.7254 0
M  V30 7707 H 740.016 -1.19135 5.53013 0
M  V30 7708 H 738.573 -0.994566 6.44167 0
M  V30 7709 N 742.006 -1.2595 0.947325 0
M  V30 7710 C 742.969 -2.24407 0.466285 0
M  V30 7711 C 743.969 -1.55054 -0.426005 0
M  V30 7712 O 745.159 -1.7275 -0.224319 0
M  V30 7713 C 742.291 -3.39326 -0.327201 0
M  V30 7714 H 743.484 -2.68477 1.33642 0
M  V30 7715 H 741.037 -1.38211 0.729887 0
M  V30 7716 H 741.772 -3.00667 -1.21532 0
M  V30 7717 H 741.557 -3.9085 0.312839 0
M  V30 7718 H 743.047 -4.12455 -0.653477 0
M  V30 7719 N 743.484 -0.715051 -1.40445 0
M  V30 7720 C 744.414 -0.0768699 -2.33373 0
M  V30 7721 C 745.395 0.746109 -1.52863 0
M  V30 7722 O 746.58 0.695142 -1.81332 0
M  V30 7723 C 743.71 0.846014 -3.36838 0
M  V30 7724 C 742.664 0.128694 -4.27806 0
M  V30 7725 C 741.99 1.16726 -5.21804 0
M  V30 7726 C 743.29 -1.01679 -5.12307 0
M  V30 7727 H 744.984 -0.853061 -2.8699 0
M  V30 7728 H 742.53 -0.41167 -1.3799 0
M  V30 7729 H 744.483 1.30185 -4.00786 0
M  V30 7730 H 743.207 1.6541 -2.81615 0
M  V30 7731 H 741.866 -0.307314 -3.6531 0
M  V30 7732 H 741.514 1.96838 -4.62887 0
M  V30 7733 H 741.214 0.692188 -5.83509 0
M  V30 7734 H 742.738 1.62321 -5.88629 0
M  V30 7735 H 744.152 -0.640337 -5.69713 0
M  V30 7736 H 742.549 -1.4202 -5.83053 0
M  V30 7737 H 743.619 -1.84769 -4.48317 0
M  V30 7738 N 744.962 1.50701 -0.461195 0
M  V30 7739 C 746.187 2.07171 0.0974773 0
M  V30 7740 C 746.612 1.32391 1.3362 0
M  V30 7741 O 745.97 0.368676 1.77512 0
M  V30 7742 C 746.018 3.58651 0.374409 0
M  V30 7743 O 745.122 3.85816 1.4567 0
M  V30 7744 H 744.463 0.663944 -0.00862047 0
M  V30 7745 H 746.993 1.94021 -0.649394 0
M  V30 7746 H 747.003 4.03295 0.617843 0
M  V30 7747 H 745.678 4.12498 -0.530829 0
M  V30 7748 H 744.255 3.53018 1.20136 0
M  V30 7749 N 746.441 0.193421 1.56409 0
M  V30 7750 C 747.371 -0.723334 2.22014 0
M  V30 7751 C 748.352 -1.22254 1.1827 0
M  V30 7752 O 749.537 -1.27168 1.46771 0
M  V30 7753 C 746.667 -1.94366 2.87818 0
M  V30 7754 C 745.621 -1.57943 3.97791 0
M  V30 7755 C 744.947 -2.87623 4.50752 0
M  V30 7756 C 746.247 -0.790639 5.16281 0
M  V30 7757 H 747.941 -0.176426 2.9888 0
M  V30 7758 H 745.487 -0.0834166 1.43758 0
M  V30 7759 H 747.44 -2.5902 3.32396 0
M  V30 7760 H 746.164 -2.51507 2.08355 0
M  V30 7761 H 744.823 -0.956482 3.53903 0
M  V30 7762 H 744.471 -3.4285 3.68053 0
M  V30 7763 H 744.171 -2.63998 5.24956 0
M  V30 7764 H 745.695 -3.53268 4.9803 0
M  V30 7765 H 747.109 -1.34024 5.57414 0
M  V30 7766 H 745.506 -0.65258 5.96541 0
M  V30 7767 H 746.576 0.208633 4.84451 0
M  V30 7768 N 747.919 -1.57396 -0.0801906 0
M  V30 7769 C 748.849 -2.06145 -1.09665 0
M  V30 7770 C 749.83 -0.953273 -1.40878 0
M  V30 7771 O 751.015 -1.22548 -1.50651 0
M  V30 7772 C 748.145 -2.49836 -2.41245 0
M  V30 7773 C 747.099 -3.64454 -2.24405 0
M  V30 7774 C 746.425 -3.94172 -3.61293 0
M  V30 7775 C 747.725 -4.94807 -1.67223 0
M  V30 7776 H 749.419 -2.91316 -0.691028 0
M  V30 7777 H 746.965 -1.40145 -0.330957 0
M  V30 7778 H 748.918 -2.82552 -3.12638 0
M  V30 7779 H 747.642 -1.61683 -2.83771 0
M  V30 7780 H 746.301 -3.32008 -1.55454 0
M  V30 7781 H 745.949 -3.03163 -4.01374 0
M  V30 7782 H 745.649 -4.71345 -3.50867 0
M  V30 7783 H 747.173 -4.29376 -4.3413 0
M  V30 7784 H 748.587 -5.25807 -2.28472 0
M  V30 7785 H 746.984 -5.76245 -1.67515 0
M  V30 7786 H 748.054 -4.80751 -0.632944 0
M  V30 7787 N 749.397 0.351382 -1.53633 0
M  V30 7788 C 750.644 1.0925 -1.70502 0
M  V30 7789 C 750.972 1.88881 -0.464123 0
M  V30 7790 O 750.227 1.87693 0.554077 0
M  V30 7791 C 750.526 2.06744 -2.91533 0
M  V30 7792 C 750.192 1.43484 -4.27461 0
M  V30 7793 C 748.854 1.2596 -4.64422 0
M  V30 7794 C 751.206 0.978436 -5.11934 0
M  V30 7795 C 748.534 0.614017 -5.83478 0
M  V30 7796 C 750.886 0.346795 -6.31649 0
M  V30 7797 C 749.55 0.15917 -6.6731 0
M  V30 7798 H 748.82 0.399773 -0.623909 0
M  V30 7799 H 751.467 0.372656 -1.87839 0
M  V30 7800 H 749.772 2.85082 -2.68767 0
M  V30 7801 H 751.469 2.64066 -3.01778 0
M  V30 7802 H 748.059 1.5812 -3.98367 0
M  V30 7803 H 752.243 1.1017 -4.83918 0
M  V30 7804 H 747.499 0.457194 -6.09688 0
M  V30 7805 H 751.673 -0.0149864 -6.96398 0
M  V30 7806 H 749.3 -0.343129 -7.59425 0
M  V30 7807 N 750.875 1.45233 0.611969 0
M  V30 7808 C 752.152 1.39495 1.37115 0
M  V30 7809 C 752.532 0.0633303 2.11005 0
M  V30 7810 O 751.88 -0.954617 2.07604 0
M  V30 7811 C 752.09 2.60579 2.32163 0
M  V30 7812 C 753.438 3.05477 2.94905 0
M  V30 7813 O 754.462 2.60921 2.42485 0
M  V30 7814 O 753.321 3.82787 3.90047 0
M  V30 7815 H 750.415 0.55335 0.614599 0
M  V30 7816 H 752.961 1.57355 0.635423 0
M  V30 7817 H 751.733 3.49085 1.76793 0
M  V30 7818 H 751.356 2.45031 3.13122 0
M  V30 7819 N 752.353 -0.854086 1.3245 0
M  V30 7820 C 753.581 -1.64074 1.26045 0
M  V30 7821 C 753.996 -1.8802 -0.171456 0
M  V30 7822 O 753.353 -1.4496 -1.10873 0
M  V30 7823 C 753.404 -2.9997 2.01743 0
M  V30 7824 O 753.125 -2.77084 3.39346 0
M  V30 7825 C 754.626 -3.94414 2.02368 0
M  V30 7826 H 751.846 -0.511015 0.434862 0
M  V30 7827 H 754.39 -1.06494 1.74583 0
M  V30 7828 H 752.545 -3.54193 1.56926 0
M  V30 7829 H 752.959 -3.63514 3.78098 0
M  V30 7830 H 754.433 -4.87032 2.59815 0
M  V30 7831 H 754.91 -4.27427 1.01009 0
M  V30 7832 H 755.516 -3.46127 2.47135 0
M  V30 7833 N 753.831 -1.1567 -1.07043 0
M  V30 7834 C 755.061 -0.956083 -1.83146 0
M  V30 7835 C 755.469 0.498969 -1.82502 0
M  V30 7836 O 754.812 1.35791 -1.23719 0
M  V30 7837 C 754.874 -1.39704 -3.31245 0
M  V30 7838 C 754.538 -2.87045 -3.55604 0
M  V30 7839 C 755.535 -3.85092 -3.49285 0
M  V30 7840 C 753.22 -3.24787 -3.8317 0
M  V30 7841 C 755.214 -5.18885 -3.70185 0
M  V30 7842 C 752.901 -4.58751 -4.03721 0
M  V30 7843 C 753.899 -5.55609 -3.97224 0
M  V30 7844 O 753.587 -6.87154 -4.17223 0
M  V30 7845 H 753.319 -0.339473 -0.58458 0
M  V30 7846 H 755.873 -1.53922 -1.36005 0
M  V30 7847 H 754.103 -0.757326 -3.79212 0
M  V30 7848 H 755.792 -1.16503 -3.88821 0
M  V30 7849 H 756.558 -3.5728 -3.27988 0
M  V30 7850 H 752.437 -2.49979 -3.87339 0
M  V30 7851 H 755.981 -5.94473 -3.6503 0
M  V30 7852 H 751.878 -4.86277 -4.24505 0
M  V30 7853 H 752.646 -6.93618 -4.34553 0
M  V30 7854 N 755.309 1.25446 -0.953992 0
M  V30 7855 C 756.259 2.23627 -0.444413 0
M  V30 7856 C 757.243 1.54004 0.465993 0
M  V30 7857 O 758.435 1.74454 0.29915 0
M  V30 7858 C 755.564 3.42179 0.277175 0
M  V30 7859 C 754.65 4.1907 -0.651263 0
M  V30 7860 N 755.041 4.73346 -1.78262 0
M  V30 7861 C 753.339 4.43628 -0.459338 0
M  V30 7862 C 754.04 5.31576 -2.36224 0
M  V30 7863 N 753.016 5.17991 -1.64884 0
M  V30 7864 H 756.818 2.63197 -1.30785 0
M  V30 7865 H 754.332 1.40677 -0.811402 0
M  V30 7866 H 756.329 4.11653 0.659367 0
M  V30 7867 H 754.989 3.04134 1.13723 0
M  V30 7868 H 756 4.705 -2.1645 0
M  V30 7869 H 752.677 4.15963 0.357885 0
M  V30 7870 H 754.067 5.84361 -3.3162 0
M  V30 7871 N 756.787 0.722489 1.40064 0
M  V30 7872 C 757.735 0.063329 2.32514 0
M  V30 7873 C 758.729 -0.73953 1.52405 0
M  V30 7874 O 759.935 -0.642122 1.68157 0
M  V30 7875 H 756.31 0.00167692 0.751998 0
M  V30 7876 H 758.281 0.859656 2.85749 0
M  V30 7877 C 757.03 -0.839219 3.3742 0
M  V30 7878 H 756.353 -0.230836 3.99133 0
M  V30 7879 H 757.793 -1.26827 4.04587 0
M  V30 7880 C 756.252 -1.96783 2.73456 0
M  V30 7881 O 756.782 -3.05933 2.60323 0
M  V30 7882 N 754.988 -1.75351 2.31734 0
M  V30 7883 H 754.535 -0.865787 2.42615 0
M  V30 7884 H 754.493 -2.51043 1.89275 0
M  V30 7885 N 758.265 -1.50454 0.469181 0
M  V30 7886 C 759.175 -2.32248 -0.331349 0
M  V30 7887 C 760.191 -1.42548 -0.997807 0
M  V30 7888 O 761.367 -1.75602 -0.9862 0
M  V30 7889 C 758.432 -3.17171 -1.40012 0
M  V30 7890 C 757.493 -4.2269 -0.750463 0
M  V30 7891 C 756.726 -5.03554 -1.76831 0
M  V30 7892 O 756.949 -4.85469 -2.99459 0
M  V30 7893 O 755.883 -5.86767 -1.3412 0
M  V30 7894 H 759.709 -3.01821 0.337279 0
M  V30 7895 H 757.294 -1.47602 0.231066 0
M  V30 7896 H 759.176 -3.69871 -2.01924 0
M  V30 7897 H 757.851 -2.50328 -2.05226 0
M  V30 7898 H 756.758 -3.73986 -0.0924446 0
M  V30 7899 H 758.091 -4.91997 -0.14131 0
M  V30 7900 N 759.743 -0.201713 -1.56304 0
M  V30 7901 C 760.989 0.435952 -1.98059 0
M  V30 7902 C 761.322 1.60811 -1.08873 0
M  V30 7903 O 760.597 1.9398 -0.142128 0
M  V30 7904 C 760.88 0.889706 -3.48936 0
M  V30 7905 C 760.733 -0.284725 -4.48898 0
M  V30 7906 C 762.052 1.7529 -4.03685 0
M  V30 7907 H 759.171 0.15699 -0.720085 0
M  V30 7908 H 761.813 -0.293965 -1.87712 0
M  V30 7909 H 759.963 1.51166 -3.57884 0
M  V30 7910 H 761.635 -0.922531 -4.51981 0
M  V30 7911 H 759.878 -0.935427 -4.23594 0
M  V30 7912 H 760.549 0.0753865 -5.51949 0
M  V30 7913 H 763.025 1.2283 -3.97558 0
M  V30 7914 H 761.901 2.03933 -5.0961 0
M  V30 7915 H 762.162 2.70939 -3.49348 0
M  V30 7916 N 761.222 1.57436 0.0718424 0
M  V30 7917 C 762.499 1.78312 0.804006 0
M  V30 7918 C 762.879 0.789273 1.9579 0
M  V30 7919 O 762.227 -0.177605 2.27809 0
M  V30 7920 C 762.437 3.24798 1.277 0
M  V30 7921 C 763.785 3.88627 1.71039 0
M  V30 7922 O 764.809 3.28689 1.37266 0
M  V30 7923 O 763.668 4.94073 2.33567 0
M  V30 7924 H 760.762 0.73178 0.385262 0
M  V30 7925 H 763.308 1.69621 0.0519219 0
M  V30 7926 H 762.08 3.88688 0.45134 0
M  V30 7927 H 761.703 3.38213 2.0904 0
M  V30 7928 N 762.7 -0.34323 1.53817 0
M  V30 7929 C 763.663 -1.40444 1.8113 0
M  V30 7930 C 764.663 -1.45604 0.682366 0
M  V30 7931 O 765.853 -1.45974 0.950649 0
M  V30 7932 C 762.985 -2.79369 1.95361 0
M  V30 7933 H 764.178 -1.17489 2.75928 0
M  V30 7934 H 761.731 -0.577636 1.45234 0
M  V30 7935 H 762.466 -3.07607 1.02707 0
M  V30 7936 H 762.251 -2.7702 2.77493 0
M  V30 7937 H 763.741 -3.56178 2.18008 0
M  V30 7938 N 764.178 -1.45556 -0.604258 0
M  V30 7939 C 765.425 -1.49746 -1.36317 0
M  V30 7940 C 765.753 -0.140516 -1.93992 0
M  V30 7941 O 765.008 0.861244 -1.7573 0
M  V30 7942 C 765.307 -2.52697 -2.52743 0
M  V30 7943 C 764.973 -3.97315 -2.13195 0
M  V30 7944 C 763.635 -4.36692 -2.02123 0
M  V30 7945 C 765.987 -4.88249 -1.8238 0
M  V30 7946 C 763.315 -5.64895 -1.58463 0
M  V30 7947 C 765.667 -6.16867 -1.40205 0
M  V30 7948 C 764.331 -6.55172 -1.27694 0
M  V30 7949 H 763.601 -0.54796 -0.49882 0
M  V30 7950 H 766.248 -1.7892 -0.682643 0
M  V30 7951 H 764.553 -2.17105 -3.26148 0
M  V30 7952 H 766.25 -2.53176 -3.10971 0
M  V30 7953 H 762.84 -3.66176 -2.22739 0
M  V30 7954 H 767.024 -4.58561 -1.89829 0
M  V30 7955 H 762.28 -5.93365 -1.47402 0
M  V30 7956 H 766.454 -6.86771 -1.15408 0
M  V30 7957 H 764.081 -7.54411 -0.936375 0
M  V30 7958 N 765.656 0.84705 -1.32902 0
M  V30 7959 C 766.586 1.97166 -1.25091 0
M  V30 7960 C 767.567 1.69578 -0.133161 0
M  V30 7961 O 768.752 1.91519 -0.321591 0
M  V30 7962 C 765.882 3.33157 -0.981006 0
M  V30 7963 C 764.836 3.75119 -2.06082 0
M  V30 7964 C 764.162 5.08826 -1.64318 0
M  V30 7965 C 765.462 3.89774 -3.47669 0
M  V30 7966 H 767.156 2.03958 -2.19184 0
M  V30 7967 H 764.702 0.979907 -1.05517 0
M  V30 7968 H 766.655 4.11393 -0.912891 0
M  V30 7969 H 765.379 3.266 -0.00445559 0
M  V30 7970 H 764.038 2.9914 -2.11921 0
M  V30 7971 H 763.686 4.98732 -0.653876 0
M  V30 7972 H 763.386 5.37873 -2.36572 0
M  V30 7973 H 764.91 5.89546 -1.58958 0
M  V30 7974 H 766.324 4.58343 -3.44376 0
M  V30 7975 H 764.721 4.30248 -4.18338 0
M  V30 7976 H 765.791 2.92463 -3.86773 0
M  V30 7977 N 767.134 1.16236 1.06428 0
M  V30 7978 C 768.064 0.890807 2.1584 0
M  V30 7979 C 769.045 -0.162333 1.69324 0
M  V30 7980 O 770.23 -0.0147191 1.94194 0
M  V30 7981 C 767.36 0.389615 3.45108 0
M  V30 7982 C 766.314 1.38051 4.05125 0
M  V30 7983 C 765.64 0.737773 5.29586 0
M  V30 7984 C 766.94 2.74965 4.44062 0
M  V30 7985 H 768.634 1.80577 2.38814 0
M  V30 7986 H 766.18 0.869657 1.14774 0
M  V30 7987 H 768.133 0.187127 4.20984 0
M  V30 7988 H 766.857 -0.560851 3.21748 0
M  V30 7989 H 765.516 1.56952 3.31303 0
M  V30 7990 H 765.164 -0.219135 5.02522 0
M  V30 7991 H 764.864 1.39914 5.70699 0
M  V30 7992 H 766.388 0.545275 6.0816 0
M  V30 7993 H 767.802 2.59855 5.11027 0
M  V30 7994 H 766.199 3.37563 4.96156 0
M  V30 7995 H 767.269 3.30321 3.54987 0
M  V30 7996 N 768.612 -1.24939 0.960631 0
M  V30 7997 C 769.575 -2.239 0.49006 0
M  V30 7998 C 770.575 -1.55497 -0.409535 0
M  V30 7999 O 771.765 -1.72978 -0.205984 0
M  V30 8000 C 768.897 -3.39654 -0.291193 0
M  V30 8001 H 770.09 -2.67044 1.36482 0
M  V30 8002 H 767.643 -1.37429 0.744505 0
M  V30 8003 H 768.378 -3.01939 -1.18336 0
M  V30 8004 H 768.163 -3.90496 0.354276 0
M  V30 8005 H 769.653 -4.13125 -0.609693 0
M  V30 8006 N 770.09 -0.729906 -1.39679 0
M  V30 8007 C 771.367 -0.202149 -1.94553 0
M  V30 8008 C 771.747 1.29507 -1.66707 0
M  V30 8009 O 771.095 2.05819 -0.992517 0
M  V30 8010 C 771.305 -0.530279 -3.44948 0
M  V30 8011 C 772.653 -0.476808 -4.21914 0
M  V30 8012 O 773.677 -0.467171 -3.53123 0
M  V30 8013 O 772.536 -0.466869 -5.44502 0
M  V30 8014 H 769.63 -0.0351644 -0.826252 0
M  V30 8015 H 772.176 -0.808417 -1.49207 0
M  V30 8016 H 770.948 -1.56526 -3.5863 0
M  V30 8017 H 770.571 0.10522 -3.97461 0
M  V30 8018 N 771.568 1.50203 -0.477153 0
M  V30 8019 C 772.816 2.01959 0.0755889 0
M  V30 8020 C 773.137 1.3608 1.39668 0
M  V30 8021 O 772.407 0.508136 1.89195 0
M  V30 8022 H 770.987 0.74636 0.0309248 0
M  V30 8023 H 773.649 1.84473 -0.628959 0
M  V30 8024 H 772.745 3.11305 0.222683 0
M  V30 8025 N 773.046 0.209999 1.56195 0
M  V30 8026 C 774.323 -0.473214 1.89789 0
M  V30 8027 C 774.703 -1.78581 1.1257 0
M  V30 8028 O 774.051 -2.27325 0.231398 0
M  V30 8029 C 774.261 -0.677458 3.42362 0
M  V30 8030 C 775.609 -0.990114 4.12895 0
M  V30 8031 O 776.633 -0.764655 3.47896 0
M  V30 8032 O 775.492 -1.41737 5.278 0
M  V30 8033 H 772.586 -0.248622 0.788743 0
M  V30 8034 H 775.132 0.251324 1.67829 0
M  V30 8035 H 773.904 0.248878 3.90508 0
M  V30 8036 H 773.527 -1.45391 3.70064 0
M  V30 8037 N 774.524 -1.57472 -0.0634922 0
M  V30 8038 C 775.771 -1.87654 -0.761066 0
M  V30 8039 C 776.099 -0.802847 -1.77157 0
M  V30 8040 O 775.354 0.200244 -1.94673 0
M  V30 8041 C 775.653 -3.24521 -1.49736 0
M  V30 8042 C 775.319 -4.46532 -0.626065 0
M  V30 8043 C 773.981 -4.7965 -0.385978 0
M  V30 8044 C 776.333 -5.21195 -0.0224001 0
M  V30 8045 C 773.661 -5.84837 0.467118 0
M  V30 8046 C 776.013 -6.27286 0.818198 0
M  V30 8047 C 774.677 -6.58899 1.06808 0
M  V30 8048 H 773.947 -0.686675 -0.278494 0
M  V30 8049 H 776.594 -1.91488 -0.0216348 0
M  V30 8050 H 774.899 -3.16516 -2.30921 0
M  V30 8051 H 776.596 -3.45111 -2.04204 0
M  V30 8052 H 773.186 -4.20618 -0.823325 0
M  V30 8053 H 777.37 -4.95917 -0.194985 0
M  V30 8054 H 772.626 -6.07725 0.669375 0
M  V30 8055 H 776.8 -6.84298 1.29265 0
M  V30 8056 H 774.427 -7.40233 1.73088 0
M  V30 8057 N 776.003 0.335068 -1.53997 0
M  V30 8058 C 777.414 0.910191 -1.6301 0
M  V30 8059 C 777.765 1.89271 -0.516809 0
M  V30 8060 O 776.89 2.13516 0.352123 0
M  V30 8061 C 777.485 1.65761 -2.9548 0
M  V30 8062 C 776.044 2.18163 -3.06728 0
M  V30 8063 C 775.191 1.00338 -2.5851 0
M  V30 8064 H 778.142 0.112965 -1.58297 0
M  V30 8065 H 778.163 2.52107 -2.84995 0
M  V30 8066 H 777.675 0.94227 -3.76488 0
M  V30 8067 H 775.776 2.92847 -2.30372 0
M  V30 8068 H 775.889 2.43952 -4.1234 0
M  V30 8069 H 774.253 1.37925 -2.14124 0
M  V30 8070 H 775.036 0.30254 -3.41964 0
M  V30 8071 N 777.481 1.45874 0.596531 0
M  V30 8072 C 778.411 1.5824 1.71705 0
M  V30 8073 C 779.392 0.433366 1.64487 0
M  V30 8074 O 780.577 0.657895 1.82717 0
M  V30 8075 C 777.707 1.55927 3.10329 0
M  V30 8076 C 776.661 2.69659 3.32367 0
M  V30 8077 C 775.987 2.52403 4.71377 0
M  V30 8078 C 777.287 4.11591 3.21544 0
M  V30 8079 H 778.981 2.52035 1.61613 0
M  V30 8080 H 776.527 1.21297 0.776082 0
M  V30 8081 H 778.48 1.63173 3.88526 0
M  V30 8082 H 777.204 0.586674 3.21288 0
M  V30 8083 H 775.863 2.61859 2.56564 0
M  V30 8084 H 775.511 1.53258 4.79083 0
M  V30 8085 H 775.211 3.28679 4.87077 0
M  V30 8086 H 776.735 2.6152 5.5176 0
M  V30 8087 H 778.149 4.20576 3.89601 0
M  V30 8088 H 776.546 4.88344 3.4877 0
M  V30 8089 H 777.616 4.32719 2.1882 0
M  V30 8090 N 778.959 -0.83999 1.33349 0
M  V30 8091 C 779.906 -1.94972 1.23509 0
M  V30 8092 C 780.876 -1.65709 0.113967 0
M  V30 8093 O 782.061 -1.88552 0.292045 0
M  V30 8094 C 779.201 -3.30919 0.979105 0
M  V30 8095 C 778.314 -3.72587 2.18639 0
M  V30 8096 C 777.449 -4.97397 1.86465 0
M  V30 8097 C 776.488 -5.31597 3.03432 0
M  V30 8098 N 775.625 -6.47584 2.71254 0
M  V30 8099 H 780.465 -2.0272 2.18423 0
M  V30 8100 H 778.002 -0.992017 1.08616 0
M  V30 8101 H 779.96 -4.09239 0.811126 0
M  V30 8102 H 778.59 -3.22731 0.0667099 0
M  V30 8103 H 777.642 -2.89799 2.46416 0
M  V30 8104 H 778.954 -3.93844 3.06086 0
M  V30 8105 H 778.108 -5.83462 1.66305 0
M  V30 8106 H 776.847 -4.78107 0.96254 0
M  V30 8107 H 775.852 -4.44037 3.24208 0
M  V30 8108 H 777.077 -5.52836 3.94397 0
M  V30 8109 H 775.023 -6.29783 1.836 0
M  V30 8110 H 774.94 -6.68931 3.52231 0
M  V30 8111 H 776.208 -7.36764 2.54558 0
M  V30 8112 N 780.437 -1.16799 -1.0581 0
M  V30 8113 C 781.4 -0.881396 -2.11575 0
M  V30 8114 C 782.4 0.12574 -1.60308 0
M  V30 8115 O 783.59 -0.105716 -1.73879 0
M  V30 8116 C 780.722 -0.319037 -3.39404 0
M  V30 8117 H 781.915 -1.81907 -2.38432 0
M  V30 8118 H 779.468 -0.977597 -1.21954 0
M  V30 8119 H 780.203 0.626082 -3.18199 0
M  V30 8120 H 779.988 -1.04481 -3.77923 0
M  V30 8121 H 781.478 -0.13663 -4.17376 0
M  V30 8122 N 781.915 1.24427 -0.967243 0
M  V30 8123 C 783.192 1.87831 -0.545776 0
M  V30 8124 C 783.572 1.87126 0.977099 0
M  V30 8125 O 782.92 1.34357 1.84826 0
M  V30 8126 C 783.13 3.29967 -1.13679 0
M  V30 8127 C 784.478 4.06654 -1.22139 0
M  V30 8128 O 785.502 3.39136 -1.08926 0
M  V30 8129 O 784.361 5.27455 -1.43017 0
M  V30 8130 H 781.455 0.806745 -0.181912 0
M  V30 8131 H 784.001 1.32403 -1.06148 0
M  V30 8132 H 782.773 3.24977 -2.17958 0
M  V30 8133 H 782.396 3.92969 -0.605093 0
M  V30 8134 N 783.393 0.737304 1.3929 0
M  V30 8135 C 784.809 0.413132 1.5416 0
M  V30 8136 C 785.009 -1.07574 1.70382 0
M  V30 8137 O 784.065 -1.86185 1.70562 0
M  V30 8138 C 785.378 1.19817 2.75798 0
M  V30 8139 C 786.926 1.18662 2.89635 0
M  V30 8140 C 787.401 1.95427 4.14213 0
M  V30 8141 N 788.892 1.92605 4.21257 0
M  V30 8142 C 789.627 2.48808 5.16606 0
M  V30 8143 N 789.123 3.13659 6.1773 0
M  V30 8144 N 790.916 2.38829 5.08839 0
M  V30 8145 H 783.067 1.70243 1.27008 0
M  V30 8146 H 785.33 0.720802 0.61575 0
M  V30 8147 H 785.036 2.25179 2.70161 0
M  V30 8148 H 784.91 0.804144 3.68529 0
M  V30 8149 H 787.297 0.141112 2.94762 0
M  V30 8150 H 787.378 1.62003 1.97961 0
M  V30 8151 H 787.022 2.9998 4.09847 0
M  V30 8152 H 786.952 1.4949 5.04936 0
M  V30 8153 H 789.443 1.45362 3.48824 0
M  V30 8154 H 789.756 3.54006 6.8695 0
M  V30 8155 H 788.101 3.17749 6.1811 0
M  V30 8156 H 791.292 1.87806 4.28773 0
M  V30 8157 H 791.465 2.82929 5.82971 0
M  V30 8158 N 784.871 -1.49948 0.485112 0
M  V30 8159 C 786.117 -2.02695 -0.0651022 0
M  V30 8160 C 786.45 -1.36534 -1.38102 0
M  V30 8161 O 785.725 -0.495677 -1.88078 0
M  V30 8162 C 786.008 -3.59337 -0.234285 0
M  V30 8163 C 785.861 -4.3605 1.10364 0
M  V30 8164 C 787.18 -4.28996 -0.982351 0
M  V30 8165 H 784.299 -0.736666 -0.0221856 0
M  V30 8166 H 786.941 -1.7913 0.633433 0
M  V30 8167 H 785.091 -3.79546 -0.829262 0
M  V30 8168 H 786.763 -4.27377 1.73627 0
M  V30 8169 H 785.006 -3.99236 1.69686 0
M  V30 8170 H 785.677 -5.43959 0.938743 0
M  V30 8171 H 788.153 -4.13346 -0.477904 0
M  V30 8172 H 787.029 -5.38379 -1.06955 0
M  V30 8173 H 787.29 -3.93135 -2.02231 0
M  V30 8174 N 786.349 -0.21828 -1.56081 0
M  V30 8175 C 787.595 0.414921 -1.9851 0
M  V30 8176 C 787.928 1.59648 -1.10573 0
M  V30 8177 O 787.203 1.93818 -0.162695 0
M  V30 8178 C 787.486 0.852647 -3.4986 0
M  V30 8179 C 787.339 -0.33232 -4.48571 0
M  V30 8180 C 788.658 1.70998 -4.05521 0
M  V30 8181 H 785.777 0.149344 -0.72171 0
M  V30 8182 H 788.419 -0.313858 -1.8739 0
M  V30 8183 H 786.569 1.47362 -3.59467 0
M  V30 8184 H 788.241 -0.970418 -4.50977 0
M  V30 8185 H 786.484 -0.980302 -4.22578 0
M  V30 8186 H 787.155 0.0168407 -5.51997 0
M  V30 8187 H 789.631 1.18606 -3.98838 0
M  V30 8188 H 788.507 1.98517 -5.11744 0
M  V30 8189 H 788.768 2.67219 -3.52202 0
M  V30 8190 N 787.827 1.57504 0.0551401 0
M  V30 8191 C 788.759 2.0158 1.09078 0
M  V30 8192 C 789.772 0.92434 1.34014 0
M  V30 8193 O 790.961 1.20202 1.31961 0
M  V30 8194 C 788.061 2.35385 2.43818 0
M  V30 8195 C 787.234 3.66588 2.38605 0
M  V30 8196 C 786.293 3.87874 3.55585 0
M  V30 8197 O 785.319 4.59259 3.36258 0
M  V30 8198 N 786.521 3.31503 4.76536 0
M  V30 8199 H 789.286 2.91039 0.71529 0
M  V30 8200 H 786.847 1.60058 0.243532 0
M  V30 8201 H 788.839 2.46784 3.20749 0
M  V30 8202 H 787.409 1.51731 2.73307 0
M  V30 8203 H 786.629 3.65787 1.46947 0
M  V30 8204 H 787.917 4.52706 2.32239 0
M  V30 8205 H 787.315 2.73592 4.9514 0
M  V30 8206 H 785.872 3.48324 5.50921 0
M  V30 8207 N 789.305 -0.326896 1.54172 0
M  V30 8208 C 790.53 -1.08924 1.76494 0
M  V30 8209 C 790.955 -1.81039 0.510523 0
M  V30 8210 O 790.313 -1.73141 -0.537756 0
M  V30 8211 C 790.361 -2.06558 2.95578 0
M  V30 8212 O 789.465 -3.14394 2.6689 0
M  V30 8213 H 788.806 -0.314216 0.584948 0
M  V30 8214 H 791.336 -0.372207 2.01186 0
M  V30 8215 H 791.346 -2.49487 3.22832 0
M  V30 8216 H 790.021 -1.53469 3.86549 0
M  V30 8217 H 788.598 -2.76164 2.50576 0
M  V30 8218 N 790.784 -1.46188 -0.588786 0
M  V30 8219 C 792.03 -1.51407 -1.34921 0
M  V30 8220 C 792.363 -0.162771 -1.93517 0
M  V30 8221 O 791.638 0.825082 -1.76132 0
M  V30 8222 C 791.921 -2.60795 -2.48311 0
M  V30 8223 C 791.774 -4.05435 -1.94789 0
M  V30 8224 C 793.093 -2.66313 -3.50379 0
M  V30 8225 H 790.212 -0.551213 -0.489217 0
M  V30 8226 H 792.854 -1.78095 -0.661993 0
M  V30 8227 H 791.004 -2.3817 -3.06932 0
M  V30 8228 H 792.676 -4.39328 -1.40672 0
M  V30 8229 H 790.919 -4.15202 -1.25659 0
M  V30 8230 H 791.59 -4.77691 -2.76613 0
M  V30 8231 H 794.066 -2.86634 -3.01629 0
M  V30 8232 H 792.942 -3.44681 -4.27184 0
M  V30 8233 H 793.203 -1.72127 -4.07216 0
M  V30 8234 N 792.262 0.832906 -1.33792 0
M  V30 8235 C 793.209 1.94314 -1.24541 0
M  V30 8236 C 794.179 1.65646 -0.122753 0
M  V30 8237 O 795.364 1.88394 -0.30204 0
M  V30 8238 C 792.504 3.30395 -0.996641 0
M  V30 8239 C 791.617 3.71422 -2.20612 0
M  V30 8240 C 790.752 4.96401 -1.89101 0
M  V30 8241 C 789.791 5.2998 -3.06247 0
M  V30 8242 N 788.928 6.46137 -2.74685 0
M  V30 8243 H 793.768 2.01559 -2.19495 0
M  V30 8244 H 791.305 0.986243 -1.09141 0
M  V30 8245 H 793.263 4.08803 -0.832817 0
M  V30 8246 H 791.893 3.22691 -0.0838242 0
M  V30 8247 H 790.945 2.88488 -2.47949 0
M  V30 8248 H 792.257 3.92215 -3.0817 0
M  V30 8249 H 791.411 5.82572 -1.69396 0
M  V30 8250 H 790.15 4.7759 -0.987882 0
M  V30 8251 H 789.155 4.42312 -3.26559 0
M  V30 8252 H 790.38 5.50737 -3.97323 0
M  V30 8253 H 788.326 6.28801 -1.86938 0
M  V30 8254 H 788.243 6.67054 -3.55774 0
M  V30 8255 H 789.511 7.35403 -2.58461 0
M  V30 8256 N 793.74 1.17359 1.05189 0
M  V30 8257 C 794.703 0.892604 2.11105 0
M  V30 8258 C 795.703 -0.117236 1.60372 0
M  V30 8259 O 796.893 0.114936 1.7382 0
M  V30 8260 C 794.025 0.337032 3.3923 0
M  V30 8261 H 795.218 1.83169 2.37464 0
M  V30 8262 H 792.771 0.984051 1.21434 0
M  V30 8263 H 793.506 -0.609198 3.18527 0
M  V30 8264 H 793.291 1.06484 3.77364 0
M  V30 8265 H 794.781 0.158763 4.17298 0
M  V30 8266 N 795.218 -1.23913 0.973828 0
M  V30 8267 C 796.467 -1.91455 0.63464 0
M  V30 8268 C 796.78 -1.76893 -0.834759 0
M  V30 8269 O 797.986 -2.3918 -1.28473 0
M  V30 8270 C 796.442 -3.43172 1.08447 0
M  V30 8271 C 796.05 -3.66409 2.57776 0
M  V30 8272 C 797.794 -4.1653 0.818721 0
M  V30 8273 C 795.701 -5.11728 2.9646 0
M  V30 8274 H 794.631 -0.716881 0.233661 0
M  V30 8275 H 797.282 -1.40457 1.18085 0
M  V30 8276 H 795.664 -3.93242 0.466524 0
M  V30 8277 H 796.838 -3.26913 3.24753 0
M  V30 8278 H 795.153 -3.06349 2.82027 0
M  V30 8279 H 797.75 -5.23603 1.08367 0
M  V30 8280 H 798.093 -4.15578 -0.245128 0
M  V30 8281 H 798.626 -3.72428 1.39793 0
M  V30 8282 H 795.365 -5.17806 4.01941 0
M  V30 8283 H 794.885 -5.52199 2.34172 0
M  V30 8284 H 796.564 -5.80009 2.86703 0
M  V30 8285 N 796.696 -0.74468 -1.38897 0
M  V30 8286 C 797.936 -0.301691 -2.02161 0
M  V30 8287 C 798.3 1.09338 -1.57826 0
M  V30 8288 O 799.501 1.63499 -2.13358 0
M  V30 8289 C 797.772 -0.410601 -3.55034 0
M  V30 8290 S 799.331 -0.0488802 -4.38773 0
M  V30 8291 H 796.149 -0.117583 -0.70121 0
M  V30 8292 H 798.751 -0.973334 -1.69548 0
M  V30 8293 H 797.455 -1.42705 -3.8479 0
M  V30 8294 H 796.986 0.278531 -3.92413 0
M  V30 8295 H 799.001 1.16434 -4.82346 0
M  V30 8296 N 798.174 1.49689 -0.493057 0
M  V30 8297 C 799.122 2.30613 0.303383 0
M  V30 8298 C 800.116 1.38867 0.970165 0
M  V30 8299 O 801.322 1.55956 0.898761 0
M  V30 8300 H 797.697 0.742891 0.116691 0
M  V30 8301 H 799.668 2.95717 -0.39924 0
M  V30 8302 C 798.417 3.20008 1.35978 0
M  V30 8303 H 797.74 3.90526 0.856103 0
M  V30 8304 H 799.18 3.79586 1.88919 0
M  V30 8305 C 797.639 2.39079 2.37367 0
M  V30 8306 O 798.169 2.08933 3.43089 0
M  V30 8307 N 796.375 2.0125 2.09635 0
M  V30 8308 H 795.922 2.25966 1.23682 0
M  V30 8309 H 795.88 1.47408 2.77702 0
M  V30 8310 N 799.652 0.226554 1.55963 0
M  V30 8311 C 800.615 -0.668015 2.19249 0
M  V30 8312 C 801.615 -1.11794 1.1558 0
M  V30 8313 O 802.805 -1.02593 1.40784 0
M  V30 8314 C 799.937 -1.91571 2.81981 0
M  V30 8315 H 801.13 -0.116175 2.99675 0
M  V30 8316 H 798.683 -0.0230497 1.56283 0
M  V30 8317 H 799.418 -2.50929 2.05439 0
M  V30 8318 H 799.203 -1.6015 3.57903 0
M  V30 8319 H 800.693 -2.55294 3.30477 0
M  V30 8320 N 801.13 -1.57531 -0.0467866 0
M  V30 8321 C 802.06 -2.08425 -1.05268 0
M  V30 8322 C 803.041 -0.982941 -1.38825 0
M  V30 8323 O 804.226 -1.25716 -1.48018 0
M  V30 8324 C 801.356 -2.54897 -2.35891 0
M  V30 8325 C 800.31 -3.69132 -2.16623 0
M  V30 8326 C 799.636 -4.01747 -3.52851 0
M  V30 8327 C 800.936 -4.98243 -1.56689 0
M  V30 8328 H 802.63 -2.92716 -0.62908 0
M  V30 8329 H 800.176 -1.40816 -0.301156 0
M  V30 8330 H 802.129 -2.8912 -3.06574 0
M  V30 8331 H 800.853 -1.67666 -2.80278 0
M  V30 8332 H 799.512 -3.35231 -1.48377 0
M  V30 8333 H 799.16 -3.11608 -3.94853 0
M  V30 8334 H 798.86 -4.78681 -3.4079 0
M  V30 8335 H 800.384 -4.38487 -4.24925 0
M  V30 8336 H 801.798 -5.30535 -2.17268 0
M  V30 8337 H 800.195 -5.79669 -1.55255 0
M  V30 8338 H 801.265 -4.81986 -0.530827 0
M  V30 8339 N 802.608 0.318715 -1.54344 0
M  V30 8340 C 803.571 1.37545 -1.83342 0
M  V30 8341 C 804.571 1.445 -0.705444 0
M  V30 8342 O 805.761 1.44443 -0.973752 0
M  V30 8343 C 802.893 2.76225 -1.99781 0
M  V30 8344 H 804.086 1.13084 -2.77762 0
M  V30 8345 H 801.639 0.554457 -1.46135 0
M  V30 8346 H 802.374 3.05934 -1.07588 0
M  V30 8347 H 802.159 2.7257 -2.81865 0
M  V30 8348 H 803.649 3.52664 -2.23647 0
M  V30 8349 N 804.086 1.46499 0.581025 0
M  V30 8350 C 805.049 1.5677 1.672 0
M  V30 8351 C 806.049 0.444716 1.54528 0
M  V30 8352 O 807.239 0.709074 1.59116 0
M  V30 8353 C 804.371 1.4896 3.06633 0
M  V30 8354 H 805.564 2.54 1.5945 0
M  V30 8355 H 803.117 1.34334 0.799003 0
M  V30 8356 H 803.852 0.530168 3.19937 0
M  V30 8357 H 803.637 2.30439 3.17239 0
M  V30 8358 H 805.127 1.59237 3.86048 0
M  V30 8359 N 805.565 -0.825799 1.34232 0
M  V30 8360 C 806.811 -1.58419 1.26614 0
M  V30 8361 C 807.144 -1.93503 -0.164341 0
M  V30 8362 O 806.419 -1.59785 -1.109 0
M  V30 8363 C 806.702 -2.8856 2.15418 0
M  V30 8364 C 806.555 -2.60075 3.66989 0
M  V30 8365 C 807.874 -3.90107 2.03726 0
M  V30 8366 H 804.993 -0.574794 0.461282 0
M  V30 8367 H 807.635 -0.951519 1.64457 0
M  V30 8368 H 805.785 -3.42553 1.83275 0
M  V30 8369 H 807.457 -2.12414 4.09485 0
M  V30 8370 H 805.7 -1.93565 3.88221 0
M  V30 8371 H 806.371 -3.52866 4.24488 0
M  V30 8372 H 808.847 -3.45459 2.31942 0
M  V30 8373 H 807.723 -4.78976 2.68092 0
M  V30 8374 H 807.984 -4.30329 1.01337 0
M  V30 8375 N 807.043 -1.17915 -1.04565 0
M  V30 8376 C 807.953 -0.916449 -2.15959 0
M  V30 8377 C 808.969 0.117655 -1.73602 0
M  V30 8378 O 810.145 -0.063089 -2.01301 0
M  V30 8379 C 807.21 -0.440262 -3.43893 0
M  V30 8380 C 806.271 -1.54172 -4.00661 0
M  V30 8381 C 805.504 -1.08816 -5.22489 0
M  V30 8382 O 805.727 0.0551547 -5.70373 0
M  V30 8383 O 804.661 -1.88383 -5.7166 0
M  V30 8384 H 808.487 -1.8484 -2.40972 0
M  V30 8385 H 806.072 -0.960552 -1.14428 0
M  V30 8386 H 807.954 -0.182537 -4.21004 0
M  V30 8387 H 806.629 0.46346 -3.20365 0
M  V30 8388 H 805.536 -1.85341 -3.24961 0
M  V30 8389 H 806.869 -2.42139 -4.2852 0
M  V30 8390 N 808.521 1.23394 -0.980386 0
M  V30 8391 C 809.749 1.95844 -0.667286 0
M  V30 8392 C 810.164 1.72574 0.765735 0
M  V30 8393 O 809.521 1.01715 1.51526 0
M  V30 8394 C 809.572 3.48844 -0.948151 0
M  V30 8395 O 809.293 3.71325 -2.32485 0
M  V30 8396 C 810.794 4.38494 -0.651002 0
M  V30 8397 H 808.014 0.623535 -0.247882 0
M  V30 8398 H 810.558 1.56885 -1.31176 0
M  V30 8399 H 808.713 3.85819 -0.349681 0
M  V30 8400 H 809.127 4.65619 -2.41452 0
M  V30 8401 H 810.601 5.44648 -0.897887 0
M  V30 8402 H 811.078 4.37236 0.414922 0
M  V30 8403 H 811.684 4.07127 -1.22995 0
M  V30 8404 N 809.999 0.752036 1.385 0
M  V30 8405 C 811.41 0.375385 1.82887 0
M  V30 8406 C 811.761 -1.09575 1.62751 0
M  V30 8407 O 810.886 -1.84685 1.12785 0
M  V30 8408 C 811.481 0.674563 3.32017 0
M  V30 8409 C 810.04 0.351208 3.74758 0
M  V30 8410 C 809.187 0.928531 2.61292 0
M  V30 8411 H 812.138 0.948313 1.27251 0
M  V30 8412 H 812.159 -0.0477781 3.8047 0
M  V30 8413 H 811.671 1.74533 3.46641 0
M  V30 8414 H 809.772 -0.713042 3.65714 0
M  V30 8415 H 809.885 0.845675 4.71577 0
M  V30 8416 H 808.249 0.354012 2.52228 0
M  V30 8417 H 809.032 2.0043 2.78716 0
M  V30 8418 N 811.477 -1.49425 0.500989 0
M  V30 8419 C 812.387 -2.32899 -0.282011 0
M  V30 8420 C 813.403 -1.44632 -0.967346 0
M  V30 8421 O 814.579 -1.77654 -0.94873 0
M  V30 8422 C 811.644 -3.20069 -1.33253 0
M  V30 8423 C 810.705 -4.24186 -0.660636 0
M  V30 8424 C 809.938 -5.07191 -1.6611 0
M  V30 8425 O 810.161 -4.91712 -2.89094 0
M  V30 8426 O 809.095 -5.8948 -1.21643 0
M  V30 8427 H 812.921 -3.01038 0.401224 0
M  V30 8428 H 810.506 -1.47079 0.262323 0
M  V30 8429 H 812.388 -3.74071 -1.94033 0
M  V30 8430 H 811.063 -2.54625 -1.9987 0
M  V30 8431 H 809.97 -3.74098 -0.0130959 0
M  V30 8432 H 811.303 -4.92186 -0.0369179 0
M  V30 8433 N 812.955 -0.234822 -1.55841 0
M  V30 8434 C 814.204 0.393685 -1.97821 0
M  V30 8435 C 814.517 1.59947 -1.1259 0
M  V30 8436 O 815.723 2.29835 -1.44528 0
M  V30 8437 C 814.179 0.751811 -3.5196 0
M  V30 8438 C 813.787 -0.431898 -4.45913 0
M  V30 8439 C 815.531 1.34518 -4.02623 0
M  V30 8440 C 813.438 -0.0505976 -5.91378 0
M  V30 8441 H 812.368 0.150864 -0.738753 0
M  V30 8442 H 815.019 -0.333132 -1.80451 0
M  V30 8443 H 813.401 1.53642 -3.6498 0
M  V30 8444 H 814.575 -1.20935 -4.44647 0
M  V30 8445 H 812.89 -0.939385 -4.05666 0
M  V30 8446 H 815.487 1.64359 -5.08813 0
M  V30 8447 H 815.83 2.26554 -3.49255 0
M  V30 8448 H 816.363 0.623729 -3.9288 0
M  V30 8449 H 813.102 -0.937779 -6.48757 0
M  V30 8450 H 812.622 0.690898 -5.95808 0
M  V30 8451 H 814.301 0.37146 -6.45933 0
M  V30 8452 N 814.433 1.57553 0.0384317 0
M  V30 8453 C 815.661 1.93093 0.743141 0
M  V30 8454 C 816.076 0.833787 1.69391 0
M  V30 8455 O 815.433 -0.190532 1.81503 0
M  V30 8456 C 815.484 3.28533 1.50826 0
M  V30 8457 O 815.205 4.34032 0.595665 0
M  V30 8458 C 816.706 3.78297 2.31098 0
M  V30 8459 H 813.926 0.637486 0.20941 0
M  V30 8460 H 816.47 2.045 -0.00125154 0
M  V30 8461 H 814.625 3.18552 2.20462 0
M  V30 8462 H 815.039 5.12155 1.13124 0
M  V30 8463 H 816.513 4.75602 2.80191 0
M  V30 8464 H 816.99 3.09008 3.12107 0
M  V30 8465 H 817.596 3.91331 1.66555 0
M  V30 8466 N 815.911 -0.310526 1.54511 0
M  V30 8467 C 817.136 -1.07046 1.7764 0
M  V30 8468 C 817.561 -1.80488 0.529696 0
M  V30 8469 O 816.919 -1.73702 -0.519361 0
M  V30 8470 C 816.967 -2.03411 2.97752 0
M  V30 8471 O 816.071 -3.11545 2.7021 0
M  V30 8472 H 815.412 -0.307994 0.588248 0
M  V30 8473 H 817.942 -0.350848 2.01569 0
M  V30 8474 H 817.952 -2.46048 3.2546 0
M  V30 8475 H 816.627 -1.49361 3.88155 0
M  V30 8476 H 815.204 -2.7349 2.53491 0
M  V30 8477 N 817.389 -1.46805 -0.573248 0
M  V30 8478 C 818.352 -1.57655 -1.66366 0
M  V30 8479 C 819.352 -0.452905 -1.5429 0
M  V30 8480 O 820.542 -0.717502 -1.58737 0
M  V30 8481 C 817.674 -1.50584 -3.05839 0
M  V30 8482 H 818.867 -2.54842 -1.581 0
M  V30 8483 H 816.42 -1.34756 -0.791868 0
M  V30 8484 H 817.155 -0.547127 -3.19651 0
M  V30 8485 H 816.94 -2.32118 -3.16012 0
M  V30 8486 H 818.43 -1.61282 -3.85199 0
M  V30 8487 N 818.867 0.818669 -1.34668 0
M  V30 8488 C 819.797 1.94468 -1.29245 0
M  V30 8489 C 820.778 1.69257 -0.169101 0
M  V30 8490 O 821.963 1.90794 -0.362143 0
M  V30 8491 C 819.093 3.31001 -1.05145 0
M  V30 8492 C 818.047 3.70663 -2.13992 0
M  V30 8493 C 817.373 5.05226 -1.75074 0
M  V30 8494 C 818.673 3.82312 -3.55858 0
M  V30 8495 H 820.367 1.99263 -2.2346 0
M  V30 8496 H 817.913 0.957304 -1.07572 0
M  V30 8497 H 819.866 4.09364 -0.999949 0
M  V30 8498 H 818.59 3.26517 -0.0737312 0
M  V30 8499 H 817.249 2.94578 -2.18219 0
M  V30 8500 H 816.897 4.97233 -0.759518 0
M  V30 8501 H 816.597 5.32734 -2.47928 0
M  V30 8502 H 818.121 5.86042 -1.71427 0
M  V30 8503 H 819.535 4.50935 -3.5402 0
M  V30 8504 H 817.932 4.21278 -4.2737 0
M  V30 8505 H 819.002 2.84193 -3.9289 0
M  V30 8506 N 820.346 1.18468 1.03938 0
M  V30 8507 C 821.294 0.909286 2.14091 0
M  V30 8508 C 822.288 -0.130928 1.68893 0
M  V30 8509 O 823.494 0.0173403 1.79992 0
M  V30 8510 H 819.869 0.27658 0.699291 0
M  V30 8511 H 821.84 1.84514 2.34515 0
M  V30 8512 C 820.589 0.452922 3.44737 0
M  V30 8513 H 819.912 1.24485 3.79926 0
M  V30 8514 H 821.352 0.299238 4.22943 0
M  V30 8515 C 819.811 -0.831435 3.26479 0
M  V30 8516 O 820.341 -1.89535 3.54174 0
M  V30 8517 N 818.547 -0.784545 2.79809 0
M  V30 8518 H 818.094 0.0814746 2.57471 0
M  V30 8519 H 818.052 -1.64431 2.67973 0
M  V30 8520 N 821.824 -1.22873 0.986916 0
M  V30 8521 C 822.756 -2.23889 0.490537 0
M  V30 8522 C 823.769 -1.57523 -0.411144 0
M  V30 8523 O 824.958 -1.7721 -0.214236 0
M  V30 8524 C 822.058 -3.37488 -0.30902 0
M  V30 8525 C 821.231 -4.33438 0.587354 0
M  V30 8526 C 820.29 -5.25958 -0.159467 0
M  V30 8527 O 819.316 -5.67394 0.453115 0
M  V30 8528 N 820.518 -5.62265 -1.44355 0
M  V30 8529 H 823.283 -2.67109 1.35914 0
M  V30 8530 H 820.844 -1.37111 0.860937 0
M  V30 8531 H 822.836 -3.96365 -0.817139 0
M  V30 8532 H 821.406 -2.934 -1.07868 0
M  V30 8533 H 820.626 -3.72969 1.27622 0
M  V30 8534 H 821.914 -4.94495 1.19801 0
M  V30 8535 H 821.312 -5.30562 -1.96266 0
M  V30 8536 H 819.869 -6.23585 -1.89698 0
M  V30 8537 N 823.302 -0.75937 -1.38099 0
M  V30 8538 C 824.232 -0.151077 -2.33011 0
M  V30 8539 C 825.213 0.697099 -1.5516 0
M  V30 8540 O 826.398 0.637101 -1.83452 0
M  V30 8541 C 823.528 0.738423 -3.39359 0
M  V30 8542 C 822.482 -0.0074741 -4.27999 0
M  V30 8543 C 821.808 1.00066 -5.25253 0
M  V30 8544 C 823.108 -1.17926 -5.08813 0
M  V30 8545 H 824.802 -0.943933 -2.84131 0
M  V30 8546 H 822.348 -0.455362 -1.36611 0
M  V30 8547 H 824.301 1.17369 -4.04725 0
M  V30 8548 H 823.025 1.56366 -2.86735 0
M  V30 8549 H 821.684 -0.423379 -3.64147 0
M  V30 8550 H 821.332 1.82012 -4.68914 0
M  V30 8551 H 821.032 0.506199 -5.85416 0
M  V30 8552 H 822.556 1.43512 -5.93495 0
M  V30 8553 H 823.97 -0.821262 -5.67387 0
M  V30 8554 H 822.367 -1.60497 -5.78239 0
M  V30 8555 H 823.437 -1.98938 -4.42212 0
M  V30 8556 N 824.78 1.49157 -0.508906 0
M  V30 8557 C 826.191 1.86593 -0.0630975 0
M  V30 8558 C 826.542 1.42051 1.35337 0
M  V30 8559 O 825.667 0.801866 2.00995 0
M  V30 8560 C 826.262 3.38629 -0.107729 0
M  V30 8561 C 824.821 3.75336 0.282776 0
M  V30 8562 C 823.968 2.7317 -0.4768 0
M  V30 8563 H 826.919 1.41362 -0.72128 0
M  V30 8564 H 826.94 3.74271 0.685689 0
M  V30 8565 H 826.452 3.71017 -1.13876 0
M  V30 8566 H 824.553 3.48558 1.31675 0
M  V30 8567 H 824.666 4.79081 -0.0421728 0
M  V30 8568 H 823.03 2.54591 0.0743552 0
M  V30 8569 H 823.813 3.08403 -1.50807 0
M  V30 8570 N 826.258 0.243083 1.55714 0
M  V30 8571 C 827.669 -0.260788 1.8487 0
M  V30 8572 C 828.02 -1.57879 1.16485 0
M  V30 8573 O 827.145 -2.1184 0.441908 0
M  V30 8574 C 827.74 -0.479954 3.35383 0
M  V30 8575 C 826.299 -0.928096 3.64778 0
M  V30 8576 C 825.446 -0.00316416 2.773 0
M  V30 8577 H 828.397 0.465743 1.51712 0
M  V30 8578 H 828.418 -1.32308 3.56756 0
M  V30 8579 H 827.93 0.479468 3.85127 0
M  V30 8580 H 826.031 -1.90012 3.20509 0
M  V30 8581 H 826.144 -0.7876 4.72582 0
M  V30 8582 H 824.508 -0.513849 2.49463 0
M  V30 8583 H 825.291 0.951562 3.29849 0
M  V30 8584 N 827.736 -1.57571 -0.0300757 0
M  V30 8585 C 828.976 -1.91074 -0.725946 0
M  V30 8586 C 829.34 -0.841545 -1.72575 0
M  V30 8587 O 830.541 -1.06088 -2.46979 0
M  V30 8588 C 828.812 -3.2973 -1.37888 0
M  V30 8589 S 830.371 -3.85065 -2.10405 0
M  V30 8590 H 827.189 -0.669084 -0.240515 0
M  V30 8591 H 829.791 -1.9549 0.019384 0
M  V30 8592 H 828.495 -4.05411 -0.637974 0
M  V30 8593 H 828.026 -3.28614 -2.16278 0
M  V30 8594 H 830.041 -3.63711 -3.37533 0
M  V30 8595 N 829.214 0.302327 -1.54673 0
M  V30 8596 C 830.625 0.875409 -1.64904 0
M  V30 8597 C 830.976 1.88132 -0.55684 0
M  V30 8598 O 830.101 2.14215 0.306754 0
M  V30 8599 C 830.696 1.59457 -2.9893 0
M  V30 8600 C 829.255 2.11607 -3.11287 0
M  V30 8601 C 828.402 0.948324 -2.6058 0
M  V30 8602 H 831.353 0.079362 -1.58501 0
M  V30 8603 H 831.374 2.46005 -2.90279 0
M  V30 8604 H 830.886 0.8622 -3.78402 0
M  V30 8605 H 828.987 2.87895 -2.36532 0
M  V30 8606 H 829.1 2.35151 -4.17422 0
M  V30 8607 H 827.464 1.33352 -2.17001 0
M  V30 8608 H 828.247 0.229936 -3.42529 0
M  V30 8609 N 830.692 1.47107 0.565454 0
M  V30 8610 C 831.917 1.57153 1.35343 0
M  V30 8611 C 832.342 0.219247 1.86818 0
M  V30 8612 O 831.7 -0.803539 1.62521 0
M  V30 8613 C 831.748 2.59387 2.50501 0
M  V30 8614 O 830.852 2.14086 3.52478 0
M  V30 8615 H 830.193 0.528209 0.402357 0
M  V30 8616 H 832.723 1.92821 0.684189 0
M  V30 8617 H 832.733 2.79546 2.97184 0
M  V30 8618 H 831.408 3.57579 2.12391 0
M  V30 8619 H 829.985 2.03991 3.12157 0
M  V30 8620 N 832.17 -0.811516 1.35101 0
M  V30 8621 C 833.586 -1.10634 1.15031 0
M  V30 8622 C 833.786 -2.01459 -0.0405379 0
M  V30 8623 O 832.842 -2.42235 -0.712635 0
M  V30 8624 C 834.155 -1.74207 2.45097 0
M  V30 8625 C 835.703 -1.8665 2.51258 0
M  V30 8626 C 836.178 -2.53638 3.81355 0
M  V30 8627 N 837.669 -2.61128 3.82579 0
M  V30 8628 C 838.404 -3.13717 4.79968 0
M  V30 8629 N 837.9 -3.66782 5.87744 0
M  V30 8630 N 839.693 -3.12224 4.67411 0
M  V30 8631 H 831.844 -0.207641 2.11383 0
M  V30 8632 H 834.107 -0.154697 0.935293 0
M  V30 8633 H 833.813 -1.14936 3.32389 0
M  V30 8634 H 833.687 -2.73958 2.59281 0
M  V30 8635 H 836.074 -2.45066 1.64398 0
M  V30 8636 H 836.155 -0.857678 2.40993 0
M  V30 8637 H 835.799 -1.95873 4.68611 0
M  V30 8638 H 835.729 -3.55047 3.88907 0
M  V30 8639 H 838.22 -2.23527 3.04703 0
M  V30 8640 H 838.533 -4.05194 6.58056 0
M  V30 8641 H 836.878 -3.64994 5.91443 0
M  V30 8642 H 840.069 -2.70042 3.82354 0
M  V30 8643 H 840.242 -3.52903 5.43474 0
M  V30 8644 N 833.648 -1.19017 -1.03309 0
M  V30 8645 C 834.581 -0.867457 -2.1107 0
M  V30 8646 C 835.559 0.173752 -1.61669 0
M  V30 8647 O 836.743 0.0510077 -1.88431 0
M  V30 8648 C 833.87 -0.297459 -3.37391 0
M  V30 8649 C 832.916 -1.31706 -4.05655 0
M  V30 8650 S 833.749 -2.87591 -4.51721 0
M  V30 8651 C 834.905 -2.32122 -5.81266 0
M  V30 8652 H 835.138 -1.78008 -2.38119 0
M  V30 8653 H 832.671 -1.01686 -1.16187 0
M  V30 8654 H 834.629 0.0248889 -4.10492 0
M  V30 8655 H 833.29 0.5934 -3.08444 0
M  V30 8656 H 832.483 -0.867264 -4.96482 0
M  V30 8657 H 832.085 -1.58603 -3.38705 0
M  V30 8658 H 834.377 -1.70855 -6.55603 0
M  V30 8659 H 835.32 -3.2128 -6.31019 0
M  V30 8660 H 835.728 -1.74858 -5.36736 0
M  V30 8661 N 835.127 1.22348 -0.993418 0
M  V30 8662 C 836.059 2.23626 -0.502404 0
M  V30 8663 C 837.072 1.57739 0.402784 0
M  V30 8664 O 838.261 1.77321 0.204835 0
M  V30 8665 C 835.361 3.37647 0.291118 0
M  V30 8666 C 834.534 4.33121 -0.610332 0
M  V30 8667 C 833.593 5.26035 0.131572 0
M  V30 8668 O 832.619 5.67145 -0.483199 0
M  V30 8669 N 833.821 5.63023 1.41371 0
M  V30 8670 H 836.586 2.66385 -1.37329 0
M  V30 8671 H 834.147 1.36653 -0.868196 0
M  V30 8672 H 836.139 3.96792 0.796107 0
M  V30 8673 H 834.709 2.93967 1.0631 0
M  V30 8674 H 833.929 3.72287 -1.29598 0
M  V30 8675 H 835.217 4.93853 -1.22422 0
M  V30 8676 H 834.615 5.31596 1.93449 0
M  V30 8677 H 833.172 6.24582 1.86388 0
M  V30 8678 N 836.605 0.766683 1.37694 0
M  V30 8679 C 838.016 0.394761 1.82479 0
M  V30 8680 C 838.367 -1.07842 1.63904 0
M  V30 8681 O 837.492 -1.83479 1.14737 0
M  V30 8682 C 838.087 0.70974 3.31283 0
M  V30 8683 C 836.646 0.390936 3.74364 0
M  V30 8684 C 835.793 0.956192 2.60293 0
M  V30 8685 H 838.744 0.961756 1.26238 0
M  V30 8686 H 838.765 -0.00742144 3.80499 0
M  V30 8687 H 838.277 1.782 3.4477 0
M  V30 8688 H 836.378 -0.674213 3.66449 0
M  V30 8689 H 836.491 0.895645 4.70654 0
M  V30 8690 H 834.855 0.380744 2.51838 0
M  V30 8691 H 835.638 2.03375 2.76575 0
M  V30 8692 N 838.083 -1.48885 0.516809 0
M  V30 8693 C 839.03 -2.29408 -0.253125 0
M  V30 8694 C 840 -1.36533 -0.945935 0
M  V30 8695 O 841.185 -1.65495 -0.949527 0
M  V30 8696 C 838.325 -3.19592 -1.30211 0
M  V30 8697 C 837.438 -4.27535 -0.61948 0
M  V30 8698 C 836.573 -5.04916 -1.65026 0
M  V30 8699 C 835.612 -6.04677 -0.950368 0
M  V30 8700 N 834.749 -6.75164 -1.92608 0
M  V30 8701 H 839.589 -2.94738 0.439744 0
M  V30 8702 H 837.126 -1.45311 0.2287 0
M  V30 8703 H 839.084 -3.70267 -1.92245 0
M  V30 8704 H 837.714 -2.56213 -1.96353 0
M  V30 8705 H 836.766 -3.80228 0.114505 0
M  V30 8706 H 838.078 -4.98752 -0.0693016 0
M  V30 8707 H 837.232 -5.59539 -2.34523 0
M  V30 8708 H 835.971 -4.33508 -2.23432 0
M  V30 8709 H 834.976 -5.4927 -0.241252 0
M  V30 8710 H 836.201 -6.78077 -0.372599 0
M  V30 8711 H 834.147 -6.06517 -2.49946 0
M  V30 8712 H 834.064 -7.4241 -1.42699 0
M  V30 8713 H 835.332 -7.34384 -2.61345 0
M  V30 8714 N 839.561 -0.251338 -1.55583 0
M  V30 8715 C 840.81 0.372681 -1.98227 0
M  V30 8716 C 841.123 1.58743 -1.1428 0
M  V30 8717 O 842.329 2.28289 -1.46957 0
M  V30 8718 C 840.785 0.714439 -3.52738 0
M  V30 8719 C 840.393 -0.479168 -4.4543 0
M  V30 8720 C 842.137 1.3024 -4.04027 0
M  V30 8721 C 840.044 -0.113318 -5.91291 0
M  V30 8722 H 838.974 0.14302 -0.740312 0
M  V30 8723 H 841.625 -0.352253 -1.80087 0
M  V30 8724 H 840.007 1.49762 -3.66589 0
M  V30 8725 H 841.181 -1.25644 -4.4334 0
M  V30 8726 H 839.496 -0.982359 -4.04646 0
M  V30 8727 H 842.093 1.58953 -5.10527 0
M  V30 8728 H 842.436 2.22837 -3.51638 0
M  V30 8729 H 842.969 0.582024 -3.93519 0
M  V30 8730 H 839.708 -1.00654 -6.47726 0
M  V30 8731 H 839.228 0.627666 -5.96507 0
M  V30 8732 H 840.907 0.30293 -6.4629 0
M  V30 8733 N 841.039 1.57585 0.0217189 0
M  V30 8734 C 841.971 2.03849 1.04777 0
M  V30 8735 C 842.984 0.952558 1.32023 0
M  V30 8736 O 844.173 1.22974 1.29381 0
M  V30 8737 C 841.273 2.40504 2.3877 0
M  V30 8738 C 840.446 3.71566 2.30775 0
M  V30 8739 C 839.505 3.95329 3.47277 0
M  V30 8740 O 838.531 4.66289 3.26441 0
M  V30 8741 N 839.733 3.41536 4.69397 0
M  V30 8742 H 842.498 2.92491 0.653395 0
M  V30 8743 H 840.059 1.60538 0.209527 0
M  V30 8744 H 842.051 2.53532 3.15442 0
M  V30 8745 H 840.621 1.57494 2.70027 0
M  V30 8746 H 839.841 3.68822 1.39155 0
M  V30 8747 H 841.129 4.5753 2.22584 0
M  V30 8748 H 840.527 2.84033 4.89226 0
M  V30 8749 H 839.084 3.59932 5.43408 0
M  V30 8750 N 842.517 -0.29412 1.54831 0
M  V30 8751 C 843.464 -1.36296 1.86258 0
M  V30 8752 C 844.434 -1.50061 0.712097 0
M  V30 8753 O 845.619 -1.64809 0.961381 0
M  V30 8754 C 842.759 -2.72187 2.12151 0
M  V30 8755 C 841.872 -2.66816 3.39755 0
M  V30 8756 C 841.007 -3.94747 3.55455 0
M  V30 8757 C 840.046 -3.838 4.76827 0
M  V30 8758 N 839.183 -5.03521 4.89296 0
M  V30 8759 H 844.023 -1.08796 2.7743 0
M  V30 8760 H 841.56 -0.526069 1.37371 0
M  V30 8761 H 843.518 -3.51225 2.25159 0
M  V30 8762 H 842.148 -2.97934 1.24237 0
M  V30 8763 H 841.2 -1.79605 3.3533 0
M  V30 8764 H 842.512 -2.5462 4.28917 0
M  V30 8765 H 841.666 -4.82223 3.68166 0
M  V30 8766 H 840.405 -4.09785 2.64438 0
M  V30 8767 H 839.41 -2.94708 4.64141 0
M  V30 8768 H 840.635 -3.70301 5.69258 0
M  V30 8769 H 838.581 -5.1901 4.01204 0
M  V30 8770 H 838.498 -4.93775 5.72471 0
M  V30 8771 H 839.766 -5.92629 5.06371 0
M  V30 8772 N 843.995 -1.47404 -0.557645 0
M  V30 8773 C 845.272 -1.44488 -1.31843 0
M  V30 8774 C 845.652 -0.1416 -2.10625 0
M  V30 8775 O 845 0.876908 -2.11004 0
M  V30 8776 C 845.21 -2.69016 -2.22331 0
M  V30 8777 C 846.558 -3.16212 -2.83364 0
M  V30 8778 O 847.582 -2.69741 -2.32634 0
M  V30 8779 O 846.441 -3.96999 -3.75571 0
M  V30 8780 H 843.535 -0.57578 -0.593639 0
M  V30 8781 H 846.081 -1.59605 -0.576584 0
M  V30 8782 H 844.853 -3.55406 -1.63715 0
M  V30 8783 H 844.476 -2.56484 -3.03812 0
M  V30 8784 N 845.473 0.80434 -1.35529 0
M  V30 8785 C 846.884 1.37849 -1.25915 0
M  V30 8786 C 847.235 1.95905 0.107495 0
M  V30 8787 O 846.36 1.91462 1.00852 0
M  V30 8788 C 846.955 2.50608 -2.27994 0
M  V30 8789 C 845.514 3.03879 -2.22114 0
M  V30 8790 C 844.661 1.76856 -2.13582 0
M  V30 8791 H 847.612 0.607192 -1.46625 0
M  V30 8792 H 847.633 3.29221 -1.90772 0
M  V30 8793 H 847.145 2.08323 -3.27449 0
M  V30 8794 H 845.246 3.50622 -1.26077 0
M  V30 8795 H 845.359 3.61707 -3.14173 0
M  V30 8796 H 843.723 1.98498 -1.59595 0
M  V30 8797 H 844.506 1.36721 -3.14901 0
M  V30 8798 N 846.951 1.19563 1.02676 0
M  V30 8799 C 848.176 1.02556 1.80269 0
M  V30 8800 C 848.601 -0.421056 1.83327 0
M  V30 8801 O 847.959 -1.30279 1.26084 0
M  V30 8802 C 848.007 1.60165 3.23078 0
M  V30 8803 O 847.111 0.832404 4.03912 0
M  V30 8804 H 846.452 0.362354 0.556413 0
M  V30 8805 H 848.982 1.58633 1.29216 0
M  V30 8806 H 848.992 1.6347 3.7382 0
M  V30 8807 H 847.667 2.65454 3.20167 0
M  V30 8808 H 846.244 0.872768 3.62543 0
M  V30 8809 N 848.429 -1.21819 0.999893 0
M  V30 8810 C 849.675 -1.91035 0.680701 0
M  V30 8811 C 850.008 -1.77582 -0.786021 0
M  V30 8812 O 849.283 -1.14917 -1.56921 0
M  V30 8813 C 849.566 -3.43013 1.0961 0
M  V30 8814 C 849.419 -3.65481 2.6219 0
M  V30 8815 C 850.738 -4.35204 0.654616 0
M  V30 8816 H 847.857 -0.693748 0.248763 0
M  V30 8817 H 850.499 -1.43555 1.24466 0
M  V30 8818 H 848.649 -3.83581 0.616253 0
M  V30 8819 H 850.321 -3.34273 3.17899 0
M  V30 8820 H 848.564 -3.09522 3.03938 0
M  V30 8821 H 849.235 -4.71945 2.86307 0
M  V30 8822 H 851.711 -4.0219 1.06688 0
M  V30 8823 H 850.587 -5.40198 0.973492 0
M  V30 8824 H 850.848 -4.3986 -0.444458 0
M  V30 8825 N 849.908 -0.773975 -1.37286 0
M  V30 8826 C 850.838 -0.175782 -2.32837 0
M  V30 8827 C 851.819 0.680603 -1.5589 0
M  V30 8828 O 853.004 0.617607 -1.84117 0
M  V30 8829 C 850.134 0.702388 -3.40123 0
M  V30 8830 C 849.088 -0.0528687 -4.27967 0
M  V30 8831 C 848.414 0.944891 -5.26285 0
M  V30 8832 C 849.714 -1.23316 -5.07534 0
M  V30 8833 H 851.408 -0.974016 -2.83114 0
M  V30 8834 H 848.954 -0.469826 -1.3612 0
M  V30 8835 H 850.907 1.13069 -4.05947 0
M  V30 8836 H 849.631 1.53316 -2.88378 0
M  V30 8837 H 848.29 -0.461978 -3.63678 0
M  V30 8838 H 847.938 1.77028 -4.70819 0
M  V30 8839 H 847.638 0.444079 -5.8592 0
M  V30 8840 H 849.162 1.37209 -5.94984 0
M  V30 8841 H 850.576 -0.881395 -5.66484 0
M  V30 8842 H 848.973 -1.66621 -5.76504 0
M  V30 8843 H 850.043 -2.03617 -4.40077 0
M  V30 8844 N 851.386 1.48609 -0.524698 0
M  V30 8845 C 852.349 2.28041 0.230166 0
M  V30 8846 C 853.349 1.35065 0.872584 0
M  V30 8847 O 854.539 1.58007 0.73345 0
M  V30 8848 C 851.671 3.13778 1.33252 0
M  V30 8849 H 852.864 2.96239 -0.467161 0
M  V30 8850 H 850.417 1.53763 -0.280452 0
M  V30 8851 H 851.152 2.502 2.06327 0
M  V30 8852 H 850.937 3.82165 0.877058 0
M  V30 8853 H 852.427 3.7371 1.86362 0
M  V30 8854 N 852.864 0.259585 1.55447 0
M  V30 8855 C 854.11 -0.362143 1.9954 0
M  V30 8856 C 854.443 -1.5666 1.14767 0
M  V30 8857 O 853.718 -1.93319 0.214025 0
M  V30 8858 C 854.001 -0.759588 3.51998 0
M  V30 8859 C 853.854 0.451134 4.47532 0
M  V30 8860 C 855.173 -1.60186 4.09913 0
M  V30 8861 H 852.292 -0.130157 0.725416 0
M  V30 8862 H 854.934 0.363431 1.86492 0
M  V30 8863 H 853.084 -1.3778 3.63248 0
M  V30 8864 H 854.756 1.08965 4.48246 0
M  V30 8865 H 852.999 1.092 4.19831 0
M  V30 8866 H 853.67 0.129518 5.51848 0
M  V30 8867 H 856.146 -1.0799 4.01842 0
M  V30 8868 H 855.022 -1.84879 5.16828 0
M  V30 8869 H 855.283 -2.57787 3.59163 0
M  V30 8870 N 854.342 -1.57594 -0.0133615 0
M  V30 8871 C 855.758 -1.5527 -0.369255 0
M  V30 8872 C 855.958 -0.987751 -1.7563 0
M  V30 8873 O 855.014 -0.615683 -2.44879 0
M  V30 8874 C 856.327 -2.99602 -0.25672 0
M  V30 8875 C 857.875 -3.11227 -0.332647 0
M  V30 8876 C 858.35 -4.57321 -0.249387 0
M  V30 8877 N 859.841 -4.62177 -0.3077 0
M  V30 8878 C 860.576 -5.72781 -0.26641 0
M  V30 8879 N 860.072 -6.92575 -0.176494 0
M  V30 8880 N 861.865 -5.61204 -0.317295 0
M  V30 8881 H 854.016 -1.92662 0.894154 0
M  V30 8882 H 856.279 -0.884352 0.341505 0
M  V30 8883 H 855.985 -3.44723 0.697072 0
M  V30 8884 H 855.859 -3.6246 -1.04415 0
M  V30 8885 H 858.246 -2.66045 -1.27688 0
M  V30 8886 H 858.327 -2.51171 0.484412 0
M  V30 8887 H 857.971 -5.03174 0.691242 0
M  V30 8888 H 857.901 -5.15306 -1.08476 0
M  V30 8889 H 860.392 -3.75994 -0.379069 0
M  V30 8890 H 860.705 -7.72653 -0.150518 0
M  V30 8891 H 859.05 -6.94854 -0.142314 0
M  V30 8892 H 862.241 -4.66509 -0.385643 0
M  V30 8893 H 862.414 -6.47388 -0.28165 0
M  V30 8894 N 855.82 0.285905 -1.54985 0
M  V30 8895 C 856.73 1.37534 -1.90057 0
M  V30 8896 C 857.746 1.54707 -0.796348 0
M  V30 8897 O 858.922 1.69082 -1.09423 0
M  V30 8898 C 855.987 2.7167 -2.15398 0
M  V30 8899 C 855.048 2.63354 -3.39033 0
M  V30 8900 C 854.281 3.91093 -3.63155 0
M  V30 8901 O 854.504 4.91169 -2.90015 0
M  V30 8902 O 853.438 3.92075 -4.56685 0
M  V30 8903 H 857.264 1.10791 -2.8277 0
M  V30 8904 H 854.849 0.483303 -1.41367 0
M  V30 8905 H 856.731 3.51006 -2.33179 0
M  V30 8906 H 855.406 2.98226 -1.25868 0
M  V30 8907 H 854.313 1.82438 -3.26599 0
M  V30 8908 H 855.646 2.41749 -4.2874 0
M  V30 8909 N 857.298 1.47698 0.54982 0
M  V30 8910 C 858.246 1.61156 1.67724 0
M  V30 8911 C 859.24 0.478606 1.62498 0
M  V30 8912 O 860.446 0.656661 1.67595 0
M  V30 8913 H 856.821 0.507304 0.55511 0
M  V30 8914 H 858.792 2.55884 1.53512 0
M  V30 8915 C 857.541 1.64994 3.06059 0
M  V30 8916 H 856.864 2.51525 3.10765 0
M  V30 8917 H 858.304 1.78459 3.84615 0
M  V30 8918 C 856.763 0.384677 3.34697 0
M  V30 8919 O 857.293 -0.511057 3.98436 0
M  V30 8920 N 855.499 0.262434 2.89413 0
M  V30 8921 H 855.046 0.99229 2.37721 0
M  V30 8922 H 855.004 -0.583177 3.08944 0
M  V30 8923 N 858.776 -0.797141 1.35954 0
M  V30 8924 C 860.192 -1.09408 1.16198 0
M  V30 8925 C 860.392 -2.01491 -0.0191682 0
M  V30 8926 O 859.448 -2.42977 -0.686902 0
M  V30 8927 C 860.761 -1.71597 2.46931 0
M  V30 8928 C 862.309 -1.83974 2.53224 0
M  V30 8929 C 862.784 -2.49579 3.84024 0
M  V30 8930 N 864.275 -2.57055 3.85327 0
M  V30 8931 C 865.01 -3.08608 4.83268 0
M  V30 8932 N 864.506 -3.60527 5.91601 0
M  V30 8933 N 866.299 -3.07249 4.70696 0
M  V30 8934 H 858.45 -0.185209 2.11591 0
M  V30 8935 H 860.713 -0.144768 0.936881 0
M  V30 8936 H 860.419 -1.11404 3.3359 0
M  V30 8937 H 860.293 -2.71193 2.62172 0
M  V30 8938 H 862.68 -2.43308 1.66988 0
M  V30 8939 H 862.761 -0.83207 2.41889 0
M  V30 8940 H 862.405 -1.90892 4.70662 0
M  V30 8941 H 862.335 -3.50902 3.92651 0
M  V30 8942 H 864.826 -2.20283 3.07057 0
M  V30 8943 H 865.139 -3.98192 6.62317 0
M  V30 8944 H 863.484 -3.587 5.95281 0
M  V30 8945 H 866.675 -2.65972 3.85197 0
M  V30 8946 H 866.848 -3.47119 5.47186 0
M  V30 8947 N 860.254 -1.20106 -1.0204 0
M  V30 8948 C 861.164 -0.962051 -2.13967 0
M  V30 8949 C 862.18 0.0808053 -1.73812 0
M  V30 8950 O 863.356 -0.105774 -2.01122 0
M  V30 8951 C 860.421 -0.513108 -3.42882 0
M  V30 8952 C 859.482 -1.62636 -3.97301 0
M  V30 8953 C 858.715 -1.19875 -5.20063 0
M  V30 8954 O 858.938 -0.0658423 -5.70362 0
M  V30 8955 O 857.872 -2.00467 -5.67536 0
M  V30 8956 H 861.698 -1.8991 -2.36998 0
M  V30 8957 H 859.283 -0.984608 -1.12365 0
M  V30 8958 H 861.165 -0.271797 -4.20523 0
M  V30 8959 H 859.84 0.395402 -3.21276 0
M  V30 8960 H 858.747 -1.92192 -3.20957 0
M  V30 8961 H 860.08 -2.51174 -4.23288 0
M  V30 8962 N 861.732 1.21287 -1.00634 0
M  V30 8963 C 862.679 2.23705 -0.567876 0
M  V30 8964 C 863.649 1.61043 0.406753 0
M  V30 8965 O 864.834 1.88289 0.308499 0
M  V30 8966 C 861.974 3.44961 0.097996 0
M  V30 8967 C 861.087 4.22091 -0.919972 0
M  V30 8968 C 860.222 5.30718 -0.226222 0
M  V30 8969 C 859.261 5.99581 -1.23165 0
M  V30 8970 N 858.398 6.99821 -0.565278 0
M  V30 8971 H 863.238 2.60571 -1.44592 0
M  V30 8972 H 860.775 1.28049 -0.724006 0
M  V30 8973 H 862.733 4.1418 0.501097 0
M  V30 8974 H 861.363 3.08818 0.939744 0
M  V30 8975 H 860.415 3.52038 -1.44131 0
M  V30 8976 H 861.727 4.69476 -1.68505 0
M  V30 8977 H 860.881 6.06253 0.232917 0
M  V30 8978 H 859.62 4.84343 0.571247 0
M  V30 8979 H 858.625 5.22816 -1.70128 0
M  V30 8980 H 859.85 6.48042 -2.03022 0
M  V30 8981 H 857.796 6.55656 0.212508 0
M  V30 8982 H 857.713 7.4528 -1.26858 0
M  V30 8983 H 858.981 7.79393 -0.129389 0
M  V30 8984 N 863.21 0.781244 1.36873 0
M  V30 8985 C 864.456 0.350407 1.9975 0
M  V30 8986 C 864.789 -1.07293 1.6187 0
M  V30 8987 O 864.064 -1.73983 0.869491 0
M  V30 8988 C 864.347 0.504834 3.56544 0
M  V30 8989 C 864.2 1.97127 4.04303 0
M  V30 8990 C 865.519 -0.0851272 4.40018 0
M  V30 8991 H 862.638 0.128794 0.725659 0
M  V30 8992 H 865.28 0.98606 1.6241 0
M  V30 8993 H 863.43 -0.0363006 3.88483 0
M  V30 8994 H 865.102 2.57284 3.82887 0
M  V30 8995 H 863.345 2.47676 3.56145 0
M  V30 8996 H 864.016 2.03033 5.13305 0
M  V30 8997 H 866.492 0.376704 4.14391 0
M  V30 8998 H 865.368 0.0530015 5.48874 0
M  V30 8999 H 865.629 -1.17642 4.2616 0
M  V30 9000 N 864.689 -1.48329 0.532571 0
M  V30 9001 C 865.935 -2.028 -0.000583219 0
M  V30 9002 C 866.268 -1.40858 -1.33688 0
M  V30 9003 O 865.543 -0.555261 -1.86406 0
M  V30 9004 C 865.826 -3.59901 -0.119846 0
M  V30 9005 C 865.679 -4.32318 1.2418 0
M  V30 9006 C 866.998 -4.31904 -0.845372 0
M  V30 9007 H 864.117 -0.736999 0.00126205 0
M  V30 9008 H 866.759 -1.77024 0.690102 0
M  V30 9009 H 864.909 -3.81993 -0.708092 0
M  V30 9010 H 866.581 -4.21637 1.87136 0
M  V30 9011 H 864.824 -3.93635 1.82301 0
M  V30 9012 H 865.495 -5.40697 1.11132 0
M  V30 9013 H 867.971 -4.14658 -0.346159 0
M  V30 9014 H 866.847 -5.41509 -0.897723 0
M  V30 9015 H 867.108 -3.99369 -1.89622 0
M  V30 9016 N 866.167 -0.267825 -1.55308 0
M  V30 9017 C 867.077 0.633055 -2.25897 0
M  V30 9018 C 868.093 1.17613 -1.28231 0
M  V30 9019 O 869.269 1.20797 -1.61153 0
M  V30 9020 C 866.334 1.80397 -2.96071 0
M  V30 9021 C 865.395 1.29829 -4.09198 0
M  V30 9022 C 864.628 2.4134 -4.76016 0
M  V30 9023 O 864.851 3.60537 -4.42006 0
M  V30 9024 O 863.785 2.09909 -5.64111 0
M  V30 9025 H 867.611 0.0614381 -3.03638 0
M  V30 9026 H 865.196 -0.0355072 -1.49358 0
M  V30 9027 H 867.078 2.48685 -3.40197 0
M  V30 9028 H 865.753 2.36281 -2.21253 0
M  V30 9029 H 864.66 0.582086 -3.69544 0
M  V30 9030 H 865.993 0.785288 -4.85895 0
M  V30 9031 N 867.645 1.57599 0.00500368 0
M  V30 9032 C 868.608 2.07058 0.982832 0
M  V30 9033 C 869.608 0.979045 1.27559 0
M  V30 9034 O 870.798 1.24187 1.22161 0
M  V30 9035 C 867.93 2.50782 2.30914 0
M  V30 9036 H 869.123 2.94718 0.555119 0
M  V30 9037 H 866.676 1.54249 0.25237 0
M  V30 9038 H 867.411 1.66351 2.78385 0
M  V30 9039 H 867.196 3.30495 2.10987 0
M  V30 9040 H 868.686 2.89391 3.0107 0
M  V30 9041 N 869.123 -0.277682 1.55134 0
M  V30 9042 C 870.053 -1.34742 1.90701 0
M  V30 9043 C 871.034 -1.51757 0.768354 0
M  V30 9044 O 872.219 -1.64879 1.02609 0
M  V30 9045 C 869.349 -2.70775 2.17481 0
M  V30 9046 C 868.303 -2.68497 3.33307 0
M  V30 9047 C 867.629 -4.08037 3.45557 0
M  V30 9048 C 868.929 -2.28178 4.69821 0
M  V30 9049 H 870.623 -1.05224 2.803 0
M  V30 9050 H 868.169 -0.504738 1.34864 0
M  V30 9051 H 870.122 -3.45719 2.40949 0
M  V30 9052 H 868.846 -3.01867 1.24676 0
M  V30 9053 H 867.505 -1.9601 3.09799 0
M  V30 9054 H 867.153 -4.36344 2.50226 0
M  V30 9055 H 866.853 -4.07409 4.23429 0
M  V30 9056 H 868.377 -4.84726 3.71312 0
M  V30 9057 H 869.791 -2.92843 4.92865 0
M  V30 9058 H 868.188 -2.3872 5.50575 0
M  V30 9059 H 869.258 -1.23308 4.6896 0
M  V30 9060 N 870.601 -1.47988 -0.541979 0
M  V30 9061 C 871.829 -1.59034 -1.32347 0
M  V30 9062 C 872.244 -0.246123 -1.87189 0
M  V30 9063 O 871.601 0.762889 -1.6579 0
M  V30 9064 C 871.652 -2.62759 -2.48274 0
M  V30 9065 O 871.373 -3.91963 -1.95695 0
M  V30 9066 C 872.874 -2.84133 -3.4027 0
M  V30 9067 H 870.094 -0.536574 -0.402901 0
M  V30 9068 H 872.638 -1.93725 -0.655045 0
M  V30 9069 H 870.793 -2.3096 -3.11025 0
M  V30 9070 H 871.207 -4.48769 -2.7149 0
M  V30 9071 H 872.681 -3.60538 -4.17991 0
M  V30 9072 H 873.158 -1.92512 -3.9476 0
M  V30 9073 H 873.764 -3.17188 -2.83322 0
M  V30 9074 N 872.079 0.78992 -1.36375 0
M  V30 9075 C 873.042 1.88414 -1.30509 0
M  V30 9076 C 874.042 1.59384 -0.2129 0
M  V30 9077 O 875.232 1.67805 -0.467651 0
M  V30 9078 C 872.364 3.25188 -1.02302 0
M  V30 9079 H 873.557 1.95031 -2.27822 0
M  V30 9080 H 871.11 0.987664 -1.2114 0
M  V30 9081 H 871.845 3.24254 -0.0544486 0
M  V30 9082 H 871.63 3.47647 -1.81338 0
M  V30 9083 H 873.12 4.05252 -1.00801 0
M  V30 9084 N 873.557 1.20646 1.01402 0
M  V30 9085 C 874.52 0.959314 2.08158 0
M  V30 9086 C 875.52 -0.0661558 1.60664 0
M  V30 9087 O 876.71 0.170177 1.73367 0
M  V30 9088 C 873.842 0.444785 3.37986 0
M  V30 9089 H 875.035 1.90631 2.31517 0
M  V30 9090 H 872.588 1.02219 1.18241 0
M  V30 9091 H 873.323 -0.507553 3.20304 0
M  V30 9092 H 873.108 1.18435 3.73785 0
M  V30 9093 H 874.598 0.291443 4.16582 0
M  V30 9094 N 875.035 -1.20752 1.01276 0
M  V30 9095 C 876.284 -1.8934 0.695229 0
M  V30 9096 C 876.597 -1.79459 -0.77806 0
M  V30 9097 O 877.803 -2.43146 -1.20799 0
M  V30 9098 C 876.259 -3.39548 1.1931 0
M  V30 9099 C 875.867 -3.58023 2.69302 0
M  V30 9100 C 877.611 -4.13714 0.950823 0
M  V30 9101 C 875.518 -5.02037 3.1259 0
M  V30 9102 H 874.448 -0.709084 0.25635 0
M  V30 9103 H 877.099 -1.36629 1.22494 0
M  V30 9104 H 875.481 -3.91559 0.591395 0
M  V30 9105 H 876.655 -3.16416 3.34989 0
M  V30 9106 H 874.97 -2.97222 2.9163 0
M  V30 9107 H 877.567 -5.19891 1.24971 0
M  V30 9108 H 877.91 -4.16147 -0.112791 0
M  V30 9109 H 878.443 -3.67792 1.51571 0
M  V30 9110 H 875.182 -5.04757 4.18211 0
M  V30 9111 H 874.702 -5.44469 2.51621 0
M  V30 9112 H 876.381 -5.70594 3.0501 0
M  V30 9113 N 876.513 -0.788492 -1.36457 0
M  V30 9114 C 877.443 -0.200468 -2.32638 0
M  V30 9115 C 878.424 0.664031 -1.56603 0
M  V30 9116 O 879.609 0.598045 -1.84762 0
M  V30 9117 C 876.739 0.666274 -3.40849 0
M  V30 9118 C 875.693 -0.0982574 -4.27887 0
M  V30 9119 C 875.019 0.889018 -5.27258 0
M  V30 9120 C 876.319 -1.28692 -5.06197 0
M  V30 9121 H 878.013 -1.00399 -2.82065 0
M  V30 9122 H 875.559 -0.484237 -1.35614 0
M  V30 9123 H 877.512 1.08757 -4.07124 0
M  V30 9124 H 876.236 1.50249 -2.89987 0
M  V30 9125 H 874.895 -0.500525 -3.63167 0
M  V30 9126 H 874.543 1.72024 -4.7267 0
M  V30 9127 H 874.243 0.381909 -5.86358 0
M  V30 9128 H 875.767 1.30891 -5.96406 0
M  V30 9129 H 877.181 -0.941429 -5.65517 0
M  V30 9130 H 875.578 -1.72726 -5.74705 0
M  V30 9131 H 876.648 -2.08273 -4.37893 0
M  V30 9132 N 877.991 1.48044 -0.54043 0
M  V30 9133 C 879.268 1.95523 0.0547302 0
M  V30 9134 C 879.648 1.48284 1.5025 0
M  V30 9135 O 878.996 0.714037 2.17057 0
M  V30 9136 C 879.206 3.48923 -0.0733393 0
M  V30 9137 C 880.554 4.24523 0.0806026 0
M  V30 9138 O 881.578 3.562 -5.58687e-05 0
M  V30 9139 O 880.437 5.45922 0.251216 0
M  V30 9140 H 877.531 0.823728 0.073493 0
M  V30 9141 H 880.077 1.5852 -0.605768 0
M  V30 9142 H 878.849 3.76059 -1.08144 0
M  V30 9143 H 878.472 3.92648 0.625536 0
M  V30 9144 N 879.47 0.276058 1.55163 0
M  V30 9145 C 880.4 -0.604633 2.25536 0
M  V30 9146 C 881.381 -1.15813 1.24585 0
M  V30 9147 O 882.566 -1.1921 1.53306 0
M  V30 9148 C 879.696 -1.78836 2.97716 0
M  V30 9149 C 878.65 -1.36635 4.05604 0
M  V30 9150 C 877.976 -2.63325 4.65364 0
M  V30 9151 C 879.276 -0.515858 5.19746 0
M  V30 9152 H 880.97 -0.0177483 2.99395 0
M  V30 9153 H 878.516 -0.00709627 1.43998 0
M  V30 9154 H 880.469 -2.41036 3.45658 0
M  V30 9155 H 879.193 -2.40109 2.21394 0
M  V30 9156 H 877.852 -0.767541 3.58475 0
M  V30 9157 H 877.5 -3.22858 3.85709 0
M  V30 9158 H 877.2 -2.358 5.38212 0
M  V30 9159 H 878.724 -3.26372 5.16056 0
M  V30 9160 H 880.138 -1.04289 5.63735 0
M  V30 9161 H 878.535 -0.335449 5.99162 0
M  V30 9162 H 879.605 0.465137 4.82664 0
M  V30 9163 N 880.948 -1.576 0.00335426 0
M  V30 9164 C 882.194 -1.90996 -0.681799 0
M  V30 9165 C 882.527 -0.877643 -1.73237 0
M  V30 9166 O 881.802 0.103183 -1.94226 0
M  V30 9167 C 882.085 -3.34961 -1.32187 0
M  V30 9168 C 881.938 -4.48911 -0.28261 0
M  V30 9169 C 883.257 -3.78408 -2.24711 0
M  V30 9170 H 880.376 -0.694596 -0.246386 0
M  V30 9171 H 883.018 -1.89919 0.055336 0
M  V30 9172 H 881.168 -3.36008 -1.95014 0
M  V30 9173 H 882.84 -4.59999 0.346241 0
M  V30 9174 H 881.083 -4.32 0.394768 0
M  V30 9175 H 881.754 -5.46609 -0.769576 0
M  V30 9176 H 884.23 -3.78934 -1.71897 0
M  V30 9177 H 883.106 -4.79885 -2.66461 0
M  V30 9178 H 883.367 -3.12464 -3.1276 0
M  V30 9179 N 882.426 0.269451 -1.5528 0
M  V30 9180 C 883.336 1.35511 -1.91505 0
M  V30 9181 C 884.352 1.53854 -0.812712 0
M  V30 9182 O 885.528 1.67912 -1.1121 0
M  V30 9183 C 882.593 2.6937 -2.18267 0
M  V30 9184 C 881.654 2.59743 -3.41807 0
M  V30 9185 C 880.887 3.87219 -3.67283 0
M  V30 9186 O 881.11 4.88066 -2.95208 0
M  V30 9187 O 880.044 3.87209 -4.60818 0
M  V30 9188 H 883.87 1.07785 -2.8393 0
M  V30 9189 H 881.455 0.468282 -1.41871 0
M  V30 9190 H 883.337 3.48513 -2.36889 0
M  V30 9191 H 882.012 2.96874 -1.29024 0
M  V30 9192 H 880.919 1.78964 -3.28516 0
M  V30 9193 H 882.252 2.37188 -4.3128 0
M  V30 9194 N 883.904 1.48273 0.534124 0
M  V30 9195 C 884.834 1.6538 1.64839 0
M  V30 9196 C 885.815 0.502741 1.62501 0
M  V30 9197 O 887 0.734799 1.79762 0
M  V30 9198 C 884.13 1.68949 3.03436 0
M  V30 9199 C 883.084 2.83513 3.20631 0
M  V30 9200 C 882.41 2.72169 4.60248 0
M  V30 9201 C 883.71 4.24858 3.03797 0
M  V30 9202 H 885.404 2.58663 1.50777 0
M  V30 9203 H 882.95 1.24479 0.723937 0
M  V30 9204 H 884.903 1.79505 3.81256 0
M  V30 9205 H 883.627 0.722415 3.1851 0
M  V30 9206 H 882.286 2.72505 2.45227 0
M  V30 9207 H 881.934 1.7344 4.72152 0
M  V30 9208 H 881.634 3.49042 4.72698 0
M  V30 9209 H 883.158 2.84687 5.40172 0
M  V30 9210 H 884.572 4.36721 3.71413 0
M  V30 9211 H 882.969 5.02697 3.27743 0
M  V30 9212 H 884.039 4.41611 2.0027 0
M  V30 9213 N 885.382 -0.782676 1.36792 0
M  V30 9214 C 886.612 -1.56934 1.3437 0
M  V30 9215 C 887.02 -1.89049 -0.0754828 0
M  V30 9216 O 886.363 -1.51103 -1.04467 0
M  V30 9217 C 886.425 -2.91311 2.10661 0
M  V30 9218 C 886.089 -2.81889 3.59705 0
M  V30 9219 C 887.086 -2.53668 4.53815 0
M  V30 9220 C 884.771 -3.00254 4.02682 0
M  V30 9221 C 886.765 -2.43925 5.8888 0
M  V30 9222 C 884.452 -2.90132 5.37835 0
M  V30 9223 C 885.45 -2.62006 6.30747 0
M  V30 9224 O 885.138 -2.5189 7.63418 0
M  V30 9225 H 884.87 -0.493194 0.462316 0
M  V30 9226 H 887.424 -0.978791 1.80579 0
M  V30 9227 H 885.654 -3.52443 1.59125 0
M  V30 9228 H 887.343 -3.52632 2.01012 0
M  V30 9229 H 888.109 -2.39176 4.21924 0
M  V30 9230 H 883.988 -3.21151 3.30731 0
M  V30 9231 H 887.532 -2.21892 6.6137 0
M  V30 9232 H 883.429 -3.04189 5.69332 0
M  V30 9233 H 884.197 -2.67321 7.73616 0
M  V30 9234 N 886.86 -1.21182 -1.00761 0
M  V30 9235 C 888.1 -1.03886 -1.76031 0
M  V30 9236 C 888.464 0.420593 -1.87337 0
M  V30 9237 O 889.665 0.713994 -2.59144 0
M  V30 9238 C 887.936 -1.71394 -3.13622 0
M  V30 9239 S 889.495 -1.69319 -4.04816 0
M  V30 9240 H 886.313 -0.372327 -0.605717 0
M  V30 9241 H 888.915 -1.53885 -1.20581 0
M  V30 9242 H 887.619 -2.76773 -3.03026 0
M  V30 9243 H 887.15 -1.21564 -3.74147 0
M  V30 9244 H 889.165 -0.732434 -4.90765 0
M  V30 9245 N 888.338 1.20213 -1.01915 0
M  V30 9246 C 889.286 2.25125 -0.584936 0
M  V30 9247 C 890.28 1.65138 0.377602 0
M  V30 9248 O 891.486 1.78294 0.247245 0
M  V30 9249 H 887.861 0.732333 -0.170858 0
M  V30 9250 H 889.832 2.59075 -1.48063 0
M  V30 9251 C 888.581 3.47651 0.058389 0
M  V30 9252 H 887.904 3.9409 -0.673263 0
M  V30 9253 H 889.344 4.2275 0.325285 0
M  V30 9254 C 887.803 3.10725 1.30199 0
M  V30 9255 O 888.333 3.22491 2.39505 0
M  V30 9256 N 886.539 2.6525 1.18706 0
M  V30 9257 H 886.086 2.55875 0.297618 0
M  V30 9258 H 886.044 2.40913 2.02011 0
M  V30 9259 N 889.816 0.795718 1.36037 0
M  V30 9260 C 891.044 0.383153 2.03321 0
M  V30 9261 C 891.459 -1.00246 1.59988 0
M  V30 9262 O 890.816 -1.64406 0.792265 0
M  V30 9263 C 890.867 0.444467 3.58757 0
M  V30 9264 O 890.588 1.77544 4.00512 0
M  V30 9265 C 892.089 0.0233291 4.43294 0
M  V30 9266 H 889.309 0.157061 0.652359 0
M  V30 9267 H 891.853 1.07632 1.73884 0
M  V30 9268 H 890.008 -0.200341 3.86882 0
M  V30 9269 H 890.422 1.73065 4.95125 0
M  V30 9270 H 891.896 0.117361 5.51875 0
M  V30 9271 H 892.373 -1.03007 4.2695 0
M  V30 9272 H 892.979 0.64087 4.20444 0
M  V30 9273 N 891.294 -1.47756 0.548274 0
M  V30 9274 C 892.541 -2.02489 0.0208955 0
M  V30 9275 C 892.869 -1.42356 -1.32533 0
M  V30 9276 O 892.124 -0.565448 -1.87353 0
M  V30 9277 C 892.423 -3.5716 -0.131069 0
M  V30 9278 C 892.089 -4.36169 1.14313 0
M  V30 9279 C 890.751 -4.57476 1.4923 0
M  V30 9280 C 893.103 -4.81801 1.9879 0
M  V30 9281 C 890.431 -5.21662 2.68487 0
M  V30 9282 C 892.783 -5.47303 3.17242 0
M  V30 9283 C 891.447 -5.66844 3.52483 0
M  V30 9284 H 890.717 -0.740961 0.00764621 0
M  V30 9285 H 893.364 -1.77531 0.717987 0
M  V30 9286 H 891.669 -3.8106 -0.911063 0
M  V30 9287 H 893.366 -3.9715 -0.55433 0
M  V30 9288 H 889.956 -4.19858 0.861235 0
M  V30 9289 H 894.14 -4.65126 1.73123 0
M  V30 9290 H 889.396 -5.34987 2.95971 0
M  V30 9291 H 893.57 -5.81626 3.82994 0
M  V30 9292 H 891.197 -6.16352 4.44988 0
M  V30 9293 N 892.772 -0.284283 -1.55015 0
M  V30 9294 C 893.72 0.615091 -2.2432 0
M  V30 9295 C 894.714 1.15051 -1.24337 0
M  V30 9296 O 895.92 1.10308 -1.4224 0
M  V30 9297 H 892.295 0.216927 -0.720033 0
M  V30 9298 H 894.266 0.00783216 -2.98399 0
M  V30 9299 C 893.015 1.78355 -2.98471 0
M  V30 9300 H 892.338 1.38076 -3.752 0
M  V30 9301 H 893.778 2.38927 -3.50271 0
M  V30 9302 C 892.237 2.67757 -2.04469 0
M  V30 9303 O 892.767 3.6838 -1.60185 0
M  V30 9304 N 890.973 2.35125 -1.70776 0
M  V30 9305 H 890.52 1.53346 -2.06985 0
M  V30 9306 H 890.478 2.95212 -1.08153 0
M  V30 9307 N 894.251 1.57596 -0.0117121 0
M  V30 9308 C 895.214 2.08089 0.960816 0
M  V30 9309 C 896.214 0.992519 1.26514 0
M  V30 9310 O 897.404 1.25475 1.20837 0
M  V30 9311 C 894.536 2.53217 2.28241 0
M  V30 9312 H 895.729 2.9529 0.523829 0
M  V30 9313 H 893.282 1.54508 0.235995 0
M  V30 9314 H 894.017 1.69294 2.76604 0
M  V30 9315 H 893.802 3.32714 2.0747 0
M  V30 9316 H 895.292 2.92568 2.97983 0
M  V30 9317 N 895.729 -0.261212 1.5542 0
M  V30 9318 C 897.006 -1.01321 1.67312 0
M  V30 9319 C 897.386 -2.0388 0.547356 0
M  V30 9320 O 896.734 -2.24003 -0.451083 0
M  V30 9321 C 896.944 -1.65943 3.07024 0
M  V30 9322 C 898.292 -2.16666 3.65159 0
M  V30 9323 O 899.316 -1.75909 3.09733 0
M  V30 9324 O 898.175 -2.91455 4.62294 0
M  V30 9325 H 895.269 -0.470714 0.679968 0
M  V30 9326 H 897.815 -0.256133 1.67756 0
M  V30 9327 H 896.587 -0.916868 3.80407 0
M  V30 9328 H 896.21 -2.48308 3.1053 0
M  V30 9329 N 897.207 -1.48554 -0.526253 0
M  V30 9330 C 898.454 -1.56761 -1.28188 0
M  V30 9331 C 898.782 -0.24315 -1.92974 0
M  V30 9332 O 898.037 0.766883 -1.80048 0
M  V30 9333 C 898.336 -2.65739 -2.38993 0
M  V30 9334 C 898.002 -4.08057 -1.91834 0
M  V30 9335 C 896.664 -4.46792 -1.78691 0
M  V30 9336 C 899.016 -4.9723 -1.56242 0
M  V30 9337 C 896.344 -5.72501 -1.28296 0
M  V30 9338 C 898.696 -6.23432 -1.07309 0
M  V30 9339 C 897.36 -6.6102 -0.927853 0
M  V30 9340 H 896.63 -0.573631 -0.469072 0
M  V30 9341 H 899.277 -1.82287 -0.586842 0
M  V30 9342 H 897.582 -2.34088 -3.14181 0
M  V30 9343 H 899.279 -2.69304 -2.97113 0
M  V30 9344 H 895.869 -3.77469 -2.03016 0
M  V30 9345 H 900.053 -4.67979 -1.65255 0
M  V30 9346 H 895.309 -6.00345 -1.15742 0
M  V30 9347 H 899.483 -6.91923 -0.788412 0
M  V30 9348 H 897.11 -7.58314 -0.535162 0
M  V30 9349 N 898.685 0.775411 -1.37205 0
M  V30 9350 C 899.617 1.89761 -1.28544 0
M  V30 9351 C 900.63 1.61542 -0.201996 0
M  V30 9352 O 901.819 1.72528 -0.457848 0
M  V30 9353 C 898.919 3.24904 -0.963885 0
M  V30 9354 C 898.092 3.80796 -2.15205 0
M  V30 9355 C 897.151 4.94407 -1.80135 0
M  V30 9356 O 896.177 5.10185 -2.52388 0
M  V30 9357 N 897.379 5.75722 -0.743298 0
M  V30 9358 H 900.144 1.97708 -2.25237 0
M  V30 9359 H 897.705 0.954348 -1.30782 0
M  V30 9360 H 899.697 3.9842 -0.710182 0
M  V30 9361 H 898.267 3.12483 -0.085632 0
M  V30 9362 H 897.487 2.99101 -2.56773 0
M  V30 9363 H 898.775 4.1487 -2.94552 0
M  V30 9364 H 898.173 5.65518 -0.143655 0
M  V30 9365 H 896.73 6.4948 -0.549446 0
M  V30 9366 N 900.163 1.21714 1.00117 0
M  V30 9367 C 901.391 1.06278 1.77518 0
M  V30 9368 C 901.806 -0.387193 1.84787 0
M  V30 9369 O 901.163 -1.26854 1.31203 0
M  V30 9370 C 901.214 1.65795 3.21239 0
M  V30 9371 O 900.935 3.05119 3.14378 0
M  V30 9372 C 902.436 1.55521 4.15124 0
M  V30 9373 H 899.656 0.373013 0.557765 0
M  V30 9374 H 902.2 1.61133 1.25922 0
M  V30 9375 H 900.355 1.15022 3.69931 0
M  V30 9376 H 900.769 3.33643 4.04701 0
M  V30 9377 H 902.243 2.01902 5.13751 0
M  V30 9378 H 902.72 0.510307 4.36225 0
M  V30 9379 H 903.326 2.0556 3.72324 0
M  V30 9380 N 901.641 -1.19671 1.02551 0
M  V30 9381 C 902.604 -2.20987 0.608055 0
M  V30 9382 C 903.604 -1.5745 -0.326534 0
M  V30 9383 O 904.794 -1.73827 -0.114003 0
M  V30 9384 C 901.926 -3.4072 -0.11074 0
M  V30 9385 H 903.119 -2.59434 1.50446 0
M  V30 9386 H 900.672 -1.3329 0.816307 0
M  V30 9387 H 901.407 -3.07787 -1.02165 0
M  V30 9388 H 901.192 -3.88069 0.560772 0
M  V30 9389 H 902.682 -4.15776 -0.389848 0
M  V30 9390 N 903.119 -0.802921 -1.35613 0
M  V30 9391 C 904.365 -0.382141 -1.99167 0
M  V30 9392 C 904.698 1.04704 -1.63556 0
M  V30 9393 O 903.973 1.72578 -0.89706 0
M  V30 9394 C 904.256 -0.561493 -3.55695 0
M  V30 9395 C 904.109 -2.03534 -4.01116 0
M  V30 9396 C 905.428 0.0151135 -4.40097 0
M  V30 9397 H 902.547 -0.140322 -0.723518 0
M  V30 9398 H 905.189 -1.01177 -1.6082 0
M  V30 9399 H 903.339 -0.0255083 -3.88492 0
M  V30 9400 H 905.011 -2.63343 -3.78746 0
M  V30 9401 H 903.254 -2.5331 -3.52159 0
M  V30 9402 H 903.925 -2.11173 -5.1001 0
M  V30 9403 H 906.401 -0.442582 -4.1374 0
M  V30 9404 H 905.277 -0.140316 -5.48721 0
M  V30 9405 H 905.538 1.10848 -4.27978 0
M  V30 9406 N 904.597 1.47463 -0.556102 0
M  V30 9407 C 906.008 1.86298 -0.122429 0
M  V30 9408 C 906.359 1.46285 1.30749 0
M  V30 9409 O 905.484 0.865405 1.98342 0
M  V30 9410 C 906.079 3.38115 -0.215407 0
M  V30 9411 C 904.638 3.76046 0.163223 0
M  V30 9412 C 903.785 2.71515 -0.563466 0
M  V30 9413 H 906.736 1.38996 -0.765888 0
M  V30 9414 H 906.757 3.76263 0.566271 0
M  V30 9415 H 906.269 3.67207 -1.25622 0
M  V30 9416 H 904.37 3.5257 1.20519 0
M  V30 9417 H 904.483 4.78705 -0.194568 0
M  V30 9418 H 902.847 2.54699 -0.00667879 0
M  V30 9419 H 903.63 3.03449 -1.60542 0
M  V30 9420 N 906.075 0.2925 1.54862 0
M  V30 9421 C 907.323 -0.318633 1.99572 0
M  V30 9422 C 907.644 -1.55062 1.1824 0
M  V30 9423 O 906.914 -1.93943 0.276226 0
M  V30 9424 H 905.494 -0.120722 0.737181 0
M  V30 9425 H 908.156 0.401862 1.90712 0
M  V30 9426 H 907.252 -0.596542 3.06346 0
M  V30 9427 N 907.553 -1.57587 0.0200696 0
M  V30 9428 C 908.778 -1.96124 -0.674547 0
M  V30 9429 C 909.203 -0.896068 -1.65385 0
M  V30 9430 O 908.561 0.143925 -1.80728 0
M  V30 9431 C 908.609 -3.3376 -1.36517 0
M  V30 9432 O 907.713 -3.29483 -2.48022 0
M  V30 9433 H 907.054 -0.639719 -0.177919 0
M  V30 9434 H 909.584 -2.04447 0.0792317 0
M  V30 9435 H 909.594 -3.69785 -1.72403 0
M  V30 9436 H 908.269 -4.10832 -0.647265 0
M  V30 9437 H 906.846 -3.05162 -2.14314 0
M  V30 9438 N 909.032 0.252966 -1.55557 0
M  V30 9439 C 910.448 0.60118 -1.47844 0
M  V30 9440 C 910.648 1.88612 -0.709055 0
M  V30 9441 O 909.704 2.51395 -0.235964 0
M  V30 9442 C 911.017 0.709539 -2.92209 0
M  V30 9443 C 912.565 0.802269 -3.02544 0
M  V30 9444 C 913.04 0.94224 -4.48203 0
M  V30 9445 N 914.531 1.00726 -4.52116 0
M  V30 9446 C 915.266 1.13472 -5.6206 0
M  V30 9447 N 914.762 1.22811 -6.81828 0
M  V30 9448 N 916.555 1.1674 -5.49844 0
M  V30 9449 H 908.706 -0.590635 -2.04023 0
M  V30 9450 H 910.969 -0.202986 -0.926013 0
M  V30 9451 H 910.675 -0.164505 -3.51315 0
M  V30 9452 H 910.549 1.58343 -3.42356 0
M  V30 9453 H 912.936 1.66677 -2.43522 0
M  V30 9454 H 913.017 -0.0966469 -2.55617 0
M  V30 9455 H 912.661 0.0823209 -5.07833 0
M  V30 9456 H 912.591 1.85611 -4.92805 0
M  V30 9457 H 915.082 0.946684 -3.6585 0
M  V30 9458 H 915.395 1.32426 -7.61369 0
M  V30 9459 H 913.74 1.19779 -6.84601 0
M  V30 9460 H 916.931 1.09089 -4.55211 0
M  V30 9461 H 917.104 1.26329 -6.35567 0
M  V30 9462 N 910.51 1.48831 0.518367 0
M  V30 9463 C 911.457 1.64216 1.62178 0
M  V30 9464 C 912.427 0.483942 1.58894 0
M  V30 9465 O 913.612 0.708857 1.77144 0
M  V30 9466 C 910.752 1.69867 3.00399 0
M  V30 9467 C 909.865 2.96875 3.1383 0
M  V30 9468 C 909 2.93613 4.42679 0
M  V30 9469 C 908.039 4.15276 4.4968 0
M  V30 9470 N 907.176 4.10024 5.69934 0
M  V30 9471 H 912.016 2.58439 1.48368 0
M  V30 9472 H 909.553 1.28154 0.722152 0
M  V30 9473 H 911.511 1.71124 3.8049 0
M  V30 9474 H 910.141 0.791249 3.12952 0
M  V30 9475 H 909.193 3.0531 2.26914 0
M  V30 9476 H 910.505 3.86863 3.14863 0
M  V30 9477 H 909.659 2.93337 5.31073 0
M  V30 9478 H 908.398 2.01375 4.44184 0
M  V30 9479 H 907.403 4.15816 3.59691 0
M  V30 9480 H 908.628 5.08687 4.49904 0
M  V30 9481 H 906.574 3.20613 5.72314 0
M  V30 9482 H 906.491 4.93728 5.72511 0
M  V30 9483 H 907.759 4.13824 6.60583 0
M  V30 9484 N 911.988 -0.768124 1.37614 0
M  V30 9485 C 912.938 -1.8718 1.30184 0
M  V30 9486 C 913.922 -1.59787 0.188943 0
M  V30 9487 O 915.114 -1.71855 0.423656 0
M  V30 9488 C 912.243 -3.24698 1.11471 0
M  V30 9489 C 911.329 -3.58031 2.27321 0
M  V30 9490 N 911.72 -3.6252 3.52722 0
M  V30 9491 C 910.018 -3.88216 2.19554 0
M  V30 9492 C 910.719 -3.92704 4.29137 0
M  V30 9493 N 909.695 -4.08789 3.58319 0
M  V30 9494 H 913.497 -1.88907 2.25147 0
M  V30 9495 H 911.011 -0.964753 1.30638 0
M  V30 9496 H 913.008 -4.0366 1.04233 0
M  V30 9497 H 911.668 -3.24232 0.174281 0
M  V30 9498 H 912.679 -3.44636 3.86583 0
M  V30 9499 H 909.356 -3.95551 1.33588 0
M  V30 9500 H 910.746 -4.02922 5.37683 0
M  V30 9501 N 913.466 -1.22244 -0.994698 0
M  V30 9502 C 914.743 -0.954459 -1.70732 0
M  V30 9503 C 915.123 0.530945 -2.04314 0
M  V30 9504 O 914.471 1.49851 -1.72502 0
M  V30 9505 C 914.681 -1.85016 -2.95922 0
M  V30 9506 C 916.029 -2.10517 -3.68738 0
M  V30 9507 O 917.053 -1.82449 -3.05926 0
M  V30 9508 O 915.912 -2.58044 -4.81742 0
M  V30 9509 H 913.006 -0.35879 -0.745116 0
M  V30 9510 H 915.552 -1.33221 -1.0512 0
M  V30 9511 H 914.324 -2.85498 -2.67594 0
M  V30 9512 H 913.947 -1.47388 -3.69273 0
M  V30 9513 N 914.944 1.19125 -1.03184 0
M  V30 9514 C 915.874 2.24675 -0.635889 0
M  V30 9515 C 916.855 1.66321 0.356565 0
M  V30 9516 O 918.04 1.92728 0.238625 0
M  V30 9517 C 915.17 3.47298 0.011069 0
M  V30 9518 C 914.124 4.18345 -0.903979 0
M  V30 9519 C 913.45 5.34561 -0.12197 0
M  V30 9520 C 914.75 4.72816 -2.21907 0
M  V30 9521 H 916.444 2.5805 -1.51825 0
M  V30 9522 H 913.99 1.24039 -0.73146 0
M  V30 9523 H 915.943 4.20333 0.299729 0
M  V30 9524 H 914.667 3.13131 0.928245 0
M  V30 9525 H 913.326 3.47196 -1.17688 0
M  V30 9526 H 912.974 4.9664 0.797334 0
M  V30 9527 H 912.674 5.83029 -0.731498 0
M  V30 9528 H 914.198 6.10391 0.159881 0
M  V30 9529 H 915.612 5.3759 -1.99173 0
M  V30 9530 H 914.009 5.31782 -2.78078 0
M  V30 9531 H 915.079 3.9072 -2.87168 0
M  V30 9532 N 916.422 0.810101 1.35185 0
M  V30 9533 C 917.668 0.392698 1.98962 0
M  V30 9534 C 918.001 -1.03835 1.64109 0
M  V30 9535 O 917.276 -1.721 0.9062 0
M  V30 9536 C 917.559 0.580349 3.55393 0
M  V30 9537 C 917.412 2.05658 4.00031 0
M  V30 9538 C 918.731 0.00822618 4.40099 0
M  V30 9539 H 915.85 0.144157 0.722764 0
M  V30 9540 H 918.492 1.02029 1.60281 0
M  V30 9541 H 916.642 0.0461106 3.88473 0
M  V30 9542 H 918.314 2.65348 3.77344 0
M  V30 9543 H 916.557 2.55174 3.50811 0
M  V30 9544 H 917.228 2.13875 5.08883 0
M  V30 9545 H 919.704 0.464517 4.13499 0
M  V30 9546 H 918.58 0.169414 5.48638 0
M  V30 9547 H 918.841 -1.08576 4.2856 0
M  V30 9548 N 917.9 -1.47166 0.563914 0
M  V30 9549 C 918.832 -2.28165 -0.217583 0
M  V30 9550 C 919.845 -1.37405 -0.873134 0
M  V30 9551 O 921.034 -1.6217 -0.745857 0
M  V30 9552 C 918.134 -3.11873 -1.32621 0
M  V30 9553 C 917.307 -4.30637 -0.766177 0
M  V30 9554 C 916.366 -4.95889 -1.76014 0
M  V30 9555 O 915.392 -5.54071 -1.3036 0
M  V30 9556 N 916.594 -4.91191 -3.09373 0
M  V30 9557 H 919.359 -2.95876 0.477256 0
M  V30 9558 H 916.92 -1.5687 0.40043 0
M  V30 9559 H 918.912 -3.52392 -1.99003 0
M  V30 9560 H 917.482 -2.46361 -1.92419 0
M  V30 9561 H 916.702 -3.94129 0.0745998 0
M  V30 9562 H 917.99 -5.07442 -0.371472 0
M  V30 9563 H 917.388 -4.45133 -3.49104 0
M  V30 9564 H 915.945 -5.35708 -3.71295 0
M  V30 9565 N 919.378 -0.300708 -1.54705 0
M  V30 9566 C 920.288 0.584996 -2.27189 0
M  V30 9567 C 921.304 1.14866 -1.30697 0
M  V30 9568 O 922.48 1.17351 -1.63679 0
M  V30 9569 C 919.545 1.74076 -2.99831 0
M  V30 9570 C 918.606 1.2112 -4.1186 0
M  V30 9571 C 917.839 2.31188 -4.81028 0
M  V30 9572 O 918.062 3.5108 -4.49554 0
M  V30 9573 O 916.996 1.97897 -5.68437 0
M  V30 9574 H 920.822 -0.00298177 -3.037 0
M  V30 9575 H 918.407 -0.0671802 -1.49249 0
M  V30 9576 H 920.289 2.41413 -3.45395 0
M  V30 9577 H 918.964 2.31535 -2.26215 0
M  V30 9578 H 917.871 0.50357 -3.70695 0
M  V30 9579 H 919.204 0.682046 -4.87452 0
M  V30 9580 N 920.856 1.57574 -0.0284266 0
M  V30 9581 C 921.819 2.09096 0.938691 0
M  V30 9582 C 922.819 1.00588 1.25454 0
M  V30 9583 O 924.009 1.2675 1.19499 0
M  V30 9584 C 921.141 2.55624 2.25542 0
M  V30 9585 H 922.334 2.95829 0.49248 0
M  V30 9586 H 919.887 1.5475 0.219594 0
M  V30 9587 H 920.622 1.72218 2.74793 0
M  V30 9588 H 920.407 3.34896 2.03929 0
M  V30 9589 H 921.897 2.95712 2.94863 0
M  V30 9590 N 922.334 -0.244713 1.55689 0
M  V30 9591 C 923.574 -0.979776 1.79387 0
M  V30 9592 C 923.938 -1.8244 0.598298 0
M  V30 9593 O 925.139 -2.59141 0.7141 0
M  V30 9594 C 923.41 -1.81573 3.07841 0
M  V30 9595 S 924.969 -2.60959 3.52769 0
M  V30 9596 H 921.787 -0.329526 0.630027 0
M  V30 9597 H 924.389 -0.247435 1.93928 0
M  V30 9598 H 923.093 -1.18497 3.92921 0
M  V30 9599 H 922.624 -2.59078 2.96044 0
M  V30 9600 H 924.639 -3.83987 3.14275 0
M  V30 9601 N 923.813 -1.49104 -0.510467 0
M  V30 9602 C 924.763 -1.6147 -1.6097 0
M  V30 9603 C 925.747 -0.470797 -1.53858 0
M  V30 9604 O 926.939 -0.723266 -1.61548 0
M  V30 9605 C 924.068 -1.67575 -2.99622 0
M  V30 9606 C 923.154 -2.87511 -3.11766 0
M  V30 9607 N 923.545 -4.11704 -2.93826 0
M  V30 9608 C 921.843 -2.85251 -3.42852 0
M  V30 9609 C 922.544 -4.92276 -3.09902 0
M  V30 9610 N 921.52 -4.2546 -3.38355 0
M  V30 9611 H 925.322 -2.5522 -1.45739 0
M  V30 9612 H 922.836 -1.45745 -0.716383 0
M  V30 9613 H 924.833 -1.74531 -3.78609 0
M  V30 9614 H 923.493 -0.749557 -3.1593 0
M  V30 9615 H 924.504 -4.41834 -2.70191 0
M  V30 9616 H 921.181 -2.0197 -3.65396 0
M  V30 9617 H 922.571 -6.00905 -3.00604 0
M  V30 9618 N 925.291 0.760815 -1.38019 0
M  V30 9619 C 926.538 1.51973 -1.3383 0
M  V30 9620 C 926.866 1.9436 0.0738855 0
M  V30 9621 O 926.121 1.65181 1.04946 0
M  V30 9622 C 926.42 2.79024 -2.23339 0
M  V30 9623 C 926.086 2.55636 -3.71431 0
M  V30 9624 C 924.748 2.48966 -4.11788 0
M  V30 9625 C 927.1 2.35018 -4.65205 0
M  V30 9626 C 924.428 2.19684 -5.44018 0
M  V30 9627 C 926.78 2.07258 -5.97685 0
M  V30 9628 C 925.444 1.9904 -6.37134 0
M  V30 9629 H 924.714 0.556108 -0.489719 0
M  V30 9630 H 927.361 0.87545 -1.70318 0
M  V30 9631 H 925.666 3.48065 -1.79883 0
M  V30 9632 H 927.363 3.36951 -2.17405 0
M  V30 9633 H 923.953 2.61695 -3.39432 0
M  V30 9634 H 928.137 2.39154 -4.34878 0
M  V30 9635 H 923.393 2.11825 -5.73533 0
M  V30 9636 H 927.567 1.90307 -6.69893 0
M  V30 9637 H 925.194 1.76115 -7.39519 0
M  V30 9638 N 926.769 1.22769 0.988202 0
M  V30 9639 C 927.732 1.00325 2.06076 0
M  V30 9640 C 928.732 -0.0320618 1.60768 0
M  V30 9641 O 929.922 0.206912 1.72967 0
M  V30 9642 C 927.054 0.516376 3.36966 0
M  V30 9643 H 928.247 1.95499 2.27421 0
M  V30 9644 H 925.8 1.04704 1.16047 0
M  V30 9645 H 926.535 -0.439498 3.21308 0
M  V30 9646 H 926.32 1.26337 3.71189 0
M  V30 9647 H 927.81 0.37974 4.1587 0
M  V30 9648 N 928.247 -1.18576 1.03814 0
M  V30 9649 C 929.663 -1.4051 0.756909 0
M  V30 9650 C 929.863 -1.9057 -0.654631 0
M  V30 9651 O 928.919 -2.0884 -1.41922 0
M  V30 9652 C 930.232 -2.4081 1.80087 0
M  V30 9653 C 931.78 -2.54541 1.82148 0
M  V30 9654 C 932.255 -3.58102 2.85529 0
M  V30 9655 N 933.746 -3.65607 2.84404 0
M  V30 9656 C 934.481 -4.45458 3.61047 0
M  V30 9657 N 933.977 -5.28937 4.47434 0
M  V30 9658 N 935.77 -4.40196 3.49548 0
M  V30 9659 H 927.921 -0.844075 1.94908 0
M  V30 9660 H 930.184 -0.433287 0.843188 0
M  V30 9661 H 929.89 -2.1107 2.81322 0
M  V30 9662 H 929.764 -3.4012 1.63089 0
M  V30 9663 H 932.151 -2.83598 0.815855 0
M  V30 9664 H 932.232 -1.55352 2.03223 0
M  V30 9665 H 931.876 -3.29786 3.86269 0
M  V30 9666 H 931.806 -4.56963 2.6171 0
M  V30 9667 H 934.297 -3.05994 2.21756 0
M  V30 9668 H 934.61 -5.8701 5.02632 0
M  V30 9669 H 932.955 -5.28366 4.51503 0
M  V30 9670 H 936.146 -3.74026 2.81464 0
M  V30 9671 H 936.319 -5.02186 4.09528 0
M  V30 9672 N 929.725 -0.817259 -1.34754 0
M  V30 9673 C 930.95 -0.414423 -2.03217 0
M  V30 9674 C 931.375 0.970037 -1.61158 0
M  V30 9675 O 930.733 1.63016 -0.793436 0
M  V30 9676 C 930.781 -0.518087 -3.56859 0
M  V30 9677 O 929.885 0.464314 -4.09778 0
M  V30 9678 H 929.226 -0.171454 -0.641482 0
M  V30 9679 H 931.756 -1.10611 -1.72123 0
M  V30 9680 H 931.766 -0.391779 -4.06115 0
M  V30 9681 H 930.441 -1.52786 -3.86819 0
M  V30 9682 H 929.018 0.297361 -3.71712 0
M  V30 9683 N 931.203 1.46865 -0.571711 0
M  V30 9684 C 932.133 2.3298 0.155795 0
M  V30 9685 C 933.114 1.44678 0.894553 0
M  V30 9686 O 934.299 1.73513 0.872176 0
M  V30 9687 C 931.429 3.26745 1.17708 0
M  V30 9688 C 930.383 4.24401 0.553863 0
M  V30 9689 C 929.709 5.07595 1.68083 0
M  V30 9690 C 931.009 5.19884 -0.501827 0
M  V30 9691 H 932.703 2.94056 -0.563176 0
M  V30 9692 H 930.249 1.41402 -0.27228 0
M  V30 9693 H 932.202 3.85838 1.6943 0
M  V30 9694 H 930.926 2.63753 1.92618 0
M  V30 9695 H 929.585 3.66554 0.057815 0
M  V30 9696 H 929.233 4.40996 2.41933 0
M  V30 9697 H 928.933 5.73722 1.26953 0
M  V30 9698 H 930.457 5.6955 2.20103 0
M  V30 9699 H 931.871 5.73257 -0.0701057 0
M  V30 9700 H 930.268 5.94293 -0.832815 0
M  V30 9701 H 931.338 4.64482 -1.39229 0
M  V30 9702 N 932.681 0.308908 1.54543 0
M  V30 9703 C 933.644 -0.550857 2.22482 0
M  V30 9704 C 934.644 -1.0551 1.21344 0
M  V30 9705 O 935.834 -0.949866 1.46025 0
M  V30 9706 C 932.966 -1.76354 2.9174 0
M  V30 9707 H 934.159 0.0428395 2.99869 0
M  V30 9708 H 931.712 0.059825 1.56185 0
M  V30 9709 H 932.447 -2.39686 2.18451 0
M  V30 9710 H 932.232 -1.40954 3.65889 0
M  V30 9711 H 933.722 -2.37417 3.43545 0
M  V30 9712 N 934.159 -1.57557 0.0367827 0
M  V30 9713 C 935.406 -1.92114 -0.640185 0
M  V30 9714 C 935.734 -0.913887 -1.71693 0
M  V30 9715 O 934.989 0.0760343 -1.95552 0
M  V30 9716 C 935.288 -3.33387 -1.28794 0
M  V30 9717 C 934.954 -4.4961 -0.340819 0
M  V30 9718 C 933.616 -4.81133 -0.0801574 0
M  V30 9719 C 935.968 -5.20283 0.309106 0
M  V30 9720 C 933.296 -5.80683 0.838107 0
M  V30 9721 C 935.648 -6.20813 1.21547 0
M  V30 9722 C 934.312 -6.50773 1.48495 0
M  V30 9723 H 933.582 -0.702996 -0.23426 0
M  V30 9724 H 936.229 -1.91238 0.100188 0
M  V30 9725 H 934.534 -3.30561 -2.10324 0
M  V30 9726 H 936.231 -3.57399 -1.81843 0
M  V30 9727 H 932.821 -4.25002 -0.554161 0
M  V30 9728 H 937.005 -4.96153 0.120794 0
M  V30 9729 H 932.261 -6.02238 1.05451 0
M  V30 9730 H 936.435 -6.74692 1.72522 0
M  V30 9731 H 934.062 -7.27727 2.19814 0
M  V30 9732 N 935.637 0.236453 -1.55816 0
M  V30 9733 C 936.865 0.980295 -1.82203 0
M  V30 9734 C 937.28 1.7854 -0.613926 0
M  V30 9735 O 936.637 1.77661 0.417491 0
M  V30 9736 C 936.688 1.90982 -3.06933 0
M  V30 9737 O 936.409 1.13728 -4.23081 0
M  V30 9738 C 937.91 2.76879 -3.46198 0
M  V30 9739 H 935.13 0.28799 -0.606055 0
M  V30 9740 H 937.674 0.256182 -2.02889 0
M  V30 9741 H 935.829 2.58808 -2.88266 0
M  V30 9742 H 936.243 1.76694 -4.93842 0
M  V30 9743 H 937.717 3.37831 -4.36548 0
M  V30 9744 H 938.194 3.48522 -2.67262 0
M  V30 9745 H 938.8 2.1449 -3.67252 0
M  V30 9746 N 937.115 1.49373 0.502552 0
M  V30 9747 C 938.361 1.59016 1.25864 0
M  V30 9748 C 938.694 0.27532 1.92238 0
M  V30 9749 O 937.969 -0.720988 1.80643 0
M  V30 9750 C 938.252 2.74828 2.32683 0
M  V30 9751 C 938.105 4.16102 1.7082 0
M  V30 9752 C 939.424 2.86288 3.34256 0
M  V30 9753 H 936.543 0.578798 0.456248 0
M  V30 9754 H 939.185 1.81651 0.557032 0
M  V30 9755 H 937.335 2.5566 2.92524 0
M  V30 9756 H 939.007 4.46782 1.14818 0
M  V30 9757 H 937.25 4.21822 1.01238 0
M  V30 9758 H 937.921 4.93006 2.48292 0
M  V30 9759 H 940.397 3.03733 2.84404 0
M  V30 9760 H 939.273 3.69001 4.06362 0
M  V30 9761 H 939.534 1.95576 3.96488 0
M  V30 9762 N 938.594 -0.753485 1.38421 0
M  V30 9763 C 939.824 -1.54049 1.37669 0
M  V30 9764 C 940.232 -1.89167 -0.0353656 0
M  V30 9765 O 939.575 -1.53285 -1.01239 0
M  V30 9766 C 939.637 -2.86777 2.16793 0
M  V30 9767 C 939.301 -2.74196 3.65603 0
M  V30 9768 C 940.298 -2.43985 4.59094 0
M  V30 9769 C 937.983 -2.91645 4.0896 0
M  V30 9770 C 939.977 -2.31379 5.93921 0
M  V30 9771 C 937.664 -2.78658 5.43868 0
M  V30 9772 C 938.662 -2.48568 6.36163 0
M  V30 9773 O 938.35 -2.3564 7.68589 0
M  V30 9774 H 938.082 -0.483276 0.472673 0
M  V30 9775 H 940.636 -0.940267 1.82615 0
M  V30 9776 H 938.866 -3.48988 1.66565 0
M  V30 9777 H 940.555 -3.48289 2.08446 0
M  V30 9778 H 941.321 -2.30172 4.26902 0
M  V30 9779 H 937.2 -3.14063 3.37469 0
M  V30 9780 H 940.744 -2.07813 6.65927 0
M  V30 9781 H 936.641 -2.92044 5.75656 0
M  V30 9782 H 937.409 -2.50851 7.79112 0
M  V30 9783 N 940.072 -1.23292 -0.981677 0
M  V30 9784 C 941.035 -1.01417 -2.05542 0
M  V30 9785 C 942.035 0.0235354 -1.60783 0
M  V30 9786 O 943.225 -0.216082 -1.72855 0
M  V30 9787 C 940.357 -0.534239 -3.36688 0
M  V30 9788 H 941.55 -1.96702 -2.26381 0
M  V30 9789 H 939.103 -1.05318 -1.1549 0
M  V30 9790 H 939.838 0.422452 -3.21537 0
M  V30 9791 H 939.623 -1.28304 -3.70514 0
M  V30 9792 H 941.113 -0.40179 -4.15663 0
M  V30 9793 N 941.55 1.18024 -1.04442 0
M  V30 9794 C 942.778 1.92032 -0.770161 0
M  V30 9795 C 943.193 1.76391 0.673181 0
M  V30 9796 O 942.55 1.09604 1.45922 0
M  V30 9797 C 942.601 3.43328 -1.13173 0
M  V30 9798 O 942.322 3.5848 -2.51841 0
M  V30 9799 C 943.823 4.34427 -0.882523 0
M  V30 9800 H 941.043 0.609518 -0.280586 0
M  V30 9801 H 943.587 1.49711 -1.39308 0
M  V30 9802 H 941.742 3.83423 -0.553704 0
M  V30 9803 H 942.156 4.52166 -2.65794 0
M  V30 9804 H 943.63 5.39123 -1.18533 0
M  V30 9805 H 944.107 4.3882 0.18257 0
M  V30 9806 H 944.713 4.00035 -1.44403 0
M  V30 9807 N 943.028 0.824394 1.34319 0
M  V30 9808 C 943.978 0.219624 2.2694 0
M  V30 9809 C 944.962 -0.616964 1.48601 0
M  V30 9810 O 946.154 -0.471303 1.7061 0
M  V30 9811 C 943.283 -0.616379 3.37721 0
M  V30 9812 C 942.369 0.230917 4.23471 0
M  V30 9813 N 942.76 1.30264 4.88738 0
M  V30 9814 C 941.058 0.0155016 4.45997 0
M  V30 9815 C 941.759 1.82141 5.52449 0
M  V30 9816 N 940.735 1.12508 5.3183 0
M  V30 9817 H 944.537 1.03939 2.74907 0
M  V30 9818 H 942.051 0.667353 1.48055 0
M  V30 9819 H 944.048 -1.06582 4.03046 0
M  V30 9820 H 942.708 -1.43429 2.91304 0
M  V30 9821 H 943.719 1.68545 4.89707 0
M  V30 9822 H 940.396 -0.770128 4.10336 0
M  V30 9823 H 941.786 2.7181 6.14466 0
M  V30 9824 N 944.506 -1.46559 0.579492 0
M  V30 9825 C 945.922 -1.57771 0.240921 0
M  V30 9826 C 946.122 -1.57505 -1.25676 0
M  V30 9827 O 945.178 -1.4903 -2.03829 0
M  V30 9828 C 946.491 -2.87311 0.887285 0
M  V30 9829 C 948.039 -3.00937 0.860576 0
M  V30 9830 C 948.514 -4.33208 1.48642 0
M  V30 9831 N 950.005 -4.39899 1.45062 0
M  V30 9832 C 950.74 -5.40856 1.90428 0
M  V30 9833 N 950.236 -6.48503 2.43752 0
M  V30 9834 N 952.029 -5.32037 1.81364 0
M  V30 9835 H 944.18 -1.44976 1.55228 0
M  V30 9836 H 946.443 -0.691354 0.648639 0
M  V30 9837 H 946.149 -2.93307 1.94071 0
M  V30 9838 H 946.023 -3.75141 0.393577 0
M  V30 9839 H 948.41 -2.94524 -0.184223 0
M  V30 9840 H 948.491 -2.14591 1.39227 0
M  V30 9841 H 948.135 -4.40378 2.5304 0
M  V30 9842 H 948.065 -5.18323 0.92998 0
M  V30 9843 H 950.556 -3.62706 1.0608 0
M  V30 9844 H 950.869 -7.21744 2.76234 0
M  V30 9845 H 949.214 -6.49332 2.47776 0
M  V30 9846 H 952.405 -4.46841 1.39465 0
M  V30 9847 H 952.578 -6.10573 2.17035 0
M  V30 9848 N 945.984 -0.3171 -1.54377 0
M  V30 9849 C 947.233 0.288271 -1.99629 0
M  V30 9850 C 947.546 1.53754 -1.2091 0
M  V30 9851 O 948.752 2.2185 -1.56508 0
M  V30 9852 C 947.208 0.564188 -3.5545 0
M  V30 9853 C 946.816 -0.667659 -4.42997 0
M  V30 9854 C 948.56 1.12987 -4.09187 0
M  V30 9855 C 946.467 -0.364003 -5.90279 0
M  V30 9856 H 945.397 0.111492 -0.745711 0
M  V30 9857 H 948.048 -0.428317 -1.78431 0
M  V30 9858 H 946.43 1.34079 -3.72611 0
M  V30 9859 H 947.604 -1.44335 -4.37612 0
M  V30 9860 H 945.919 -1.1531 -4.00116 0
M  V30 9861 H 948.516 1.37157 -5.1681 0
M  V30 9862 H 948.859 2.07722 -3.60773 0
M  V30 9863 H 949.392 0.414595 -3.95634 0
M  V30 9864 H 946.131 -1.28035 -6.42874 0
M  V30 9865 H 945.651 0.374102 -5.98632 0
M  V30 9866 H 947.33 0.0285433 -6.46994 0
M  V30 9867 N 947.462 1.57535 -0.0451378 0
M  V30 9868 C 948.873 1.80116 0.491426 0
M  V30 9869 C 949.224 0.956846 1.71286 0
M  V30 9870 O 948.349 0.17173 2.15718 0
M  V30 9871 C 948.944 3.26674 0.898315 0
M  V30 9872 C 947.503 3.50194 1.37989 0
M  V30 9873 C 946.65 2.75054 0.352202 0
M  V30 9874 H 949.601 1.56368 -0.271065 0
M  V30 9875 H 949.622 3.37263 1.76164 0
M  V30 9876 H 949.134 3.88099 0.009141 0
M  V30 9877 H 947.235 2.94041 2.28846 0
M  V30 9878 H 947.348 4.58909 1.37622 0
M  V30 9879 H 945.712 2.4101 0.823784 0
M  V30 9880 H 946.495 3.39203 -0.528782 0
M  V30 9881 N 948.94 -0.228186 1.55939 0
M  V30 9882 C 950.189 -0.951563 1.77843 0
M  V30 9883 C 950.502 -1.85763 0.612501 0
M  V30 9884 O 951.708 -2.61916 0.715006 0
M  V30 9885 C 950.164 -1.74216 3.14923 0
M  V30 9886 C 949.772 -0.882569 4.39221 0
M  V30 9887 C 951.516 -2.45715 3.46156 0
M  V30 9888 C 949.423 -1.67014 5.67327 0
M  V30 9889 H 948.353 -0.359035 0.663031 0
M  V30 9890 H 951.004 -0.205636 1.82344 0
M  V30 9891 H 949.386 -2.53075 3.0458 0
M  V30 9892 H 950.56 -0.13499 4.60602 0
M  V30 9893 H 948.875 -0.280022 4.15457 0
M  V30 9894 H 951.472 -3.05127 4.39092 0
M  V30 9895 H 951.815 -3.1827 2.68346 0
M  V30 9896 H 952.348 -1.73852 3.57799 0
M  V30 9897 H 949.087 -0.987985 6.48012 0
M  V30 9898 H 948.607 -2.3925 5.50018 0
M  V30 9899 H 950.286 -2.23252 6.07262 0
M  V30 9900 N 950.418 -1.49637 -0.494624 0
M  V30 9901 C 951.667 -1.58691 -1.24499 0
M  V30 9902 C 951.98 -0.281763 -1.9356 0
M  V30 9903 O 953.186 -0.250925 -2.70338 0
M  V30 9904 C 951.642 -2.8002 -2.26091 0
M  V30 9905 C 951.25 -4.17318 -1.6294 0
M  V30 9906 C 952.994 -2.98407 -3.01916 0
M  V30 9907 C 950.901 -5.29862 -2.62679 0
M  V30 9908 H 949.831 -0.590888 -0.468367 0
M  V30 9909 H 952.482 -1.76034 -0.518112 0
M  V30 9910 H 950.864 -2.56185 -3.01969 0
M  V30 9911 H 952.038 -4.51315 -0.930108 0
M  V30 9912 H 950.353 -4.04342 -0.994819 0
M  V30 9913 H 952.95 -3.79658 -3.76516 0
M  V30 9914 H 953.293 -2.09214 -3.5991 0
M  V30 9915 H 953.826 -3.22312 -2.33152 0
M  V30 9916 H 950.565 -6.21134 -2.09458 0
M  V30 9917 H 950.085 -5.00311 -3.3083 0
M  V30 9918 H 951.764 -5.59461 -3.2498 0
M  V30 9919 N 951.896 0.746133 -1.38819 0
M  V30 9920 C 953.142 1.50669 -1.3664 0
M  V30 9921 C 953.497 1.92356 0.0411513 0
M  V30 9922 O 952.79 1.63104 1.00537 0
M  V30 9923 C 952.984 2.76639 -2.26286 0
M  V30 9924 C 952.813 2.47268 -3.75618 0
M  V30 9925 C 951.583 2.40116 -4.44603 0
M  V30 9926 C 953.781 2.13548 -4.67869 0
M  V30 9927 N 951.763 2.03098 -5.79331 0
M  V30 9928 C 953.134 1.86883 -5.91164 0
M  V30 9929 C 955.189 1.99922 -4.56 0
M  V30 9930 C 953.892 1.47965 -7.03917 0
M  V30 9931 C 955.918 1.62406 -5.68664 0
M  V30 9932 C 955.28 1.36618 -6.91025 0
M  V30 9933 H 951.379 0.550624 -0.555282 0
M  V30 9934 H 953.963 0.868179 -1.74272 0
M  V30 9935 H 952.134 3.38287 -1.9083 0
M  V30 9936 H 953.866 3.42753 -2.1518 0
M  V30 9937 H 950.621 2.56839 -3.97908 0
M  V30 9938 H 951.045 1.87214 -6.506 0
M  V30 9939 H 955.687 2.18531 -3.61945 0
M  V30 9940 H 953.405 1.28096 -7.97883 0
M  V30 9941 H 956.991 1.52483 -5.61462 0
M  V30 9942 H 955.871 1.08021 -7.76725 0
M  V30 9943 N 953.375 1.23811 0.975125 0
M  V30 9944 C 954.338 1.02505 2.05001 0
M  V30 9945 C 955.338 -0.0150084 1.60793 0
M  V30 9946 O 956.528 0.225246 1.72738 0
M  V30 9947 C 953.66 0.552087 3.364 0
M  V30 9948 H 954.853 1.979 2.25335 0
M  V30 9949 H 952.406 1.05929 1.1493 0
M  V30 9950 H 953.141 -0.405394 3.21756 0
M  V30 9951 H 952.926 1.30267 3.69828 0
M  V30 9952 H 954.416 0.423828 4.15444 0
M  V30 9953 N 954.853 -1.17469 1.05066 0
M  V30 9954 C 956.081 -1.9162 0.780334 0
M  V30 9955 C 956.496 -1.76745 -0.663817 0
M  V30 9956 O 955.853 -1.10377 -1.45338 0
M  V30 9957 C 955.904 -3.42723 1.14992 0
M  V30 9958 O 955.625 -3.57139 2.53739 0
M  V30 9959 C 957.126 -4.33952 0.905549 0
M  V30 9960 H 954.346 -0.608022 0.283814 0
M  V30 9961 H 956.89 -1.4897 1.401 0
M  V30 9962 H 955.045 -3.83124 0.57403 0
M  V30 9963 H 955.459 -4.5075 2.68189 0
M  V30 9964 H 956.933 -5.38487 1.21391 0
M  V30 9965 H 957.41 -4.38911 -0.159295 0
M  V30 9966 H 958.016 -3.99263 1.46522 0
M  V30 9967 N 956.331 -0.831506 -1.3388 0
M  V30 9968 C 957.556 -0.435954 -2.02766 0
M  V30 9969 C 957.981 0.952889 -1.62178 0
M  V30 9970 O 957.339 1.62166 -0.810681 0
M  V30 9971 C 957.387 -0.555907 -3.56289 0
M  V30 9972 O 956.491 0.420826 -4.10247 0
M  V30 9973 H 955.832 -0.178248 -0.639628 0
M  V30 9974 H 958.362 -1.1243 -1.70941 0
M  V30 9975 H 958.372 -0.434831 -4.05676 0
M  V30 9976 H 957.047 -1.56881 -3.85177 0
M  V30 9977 H 955.624 0.257919 -3.72007 0
M  V30 9978 N 957.809 1.4625 -0.587256 0
M  V30 9979 C 959.039 2.06444 -0.0802135 0
M  V30 9980 C 959.447 1.43585 1.23207 0
M  V30 9981 O 958.79 0.536956 1.75677 0
M  V30 9982 C 958.852 3.59165 0.155129 0
M  V30 9983 C 958.516 4.44243 -1.07225 0
M  V30 9984 C 959.513 4.80497 -1.98542 0
M  V30 9985 C 957.198 4.8531 -1.29537 0
M  V30 9986 C 959.192 5.56649 -3.10516 0
M  V30 9987 C 956.879 5.61221 -2.41815 0
M  V30 9988 C 957.877 5.96805 -3.32134 0
M  V30 9989 O 957.565 6.71181 -4.42461 0
M  V30 9990 H 957.297 0.673626 -0.0566063 0
M  V30 9991 H 959.851 1.88797 -0.809004 0
M  V30 9992 H 958.081 3.75137 0.938583 0
M  V30 9993 H 959.77 4.01271 0.611243 0
M  V30 9994 H 960.536 4.49345 -1.82522 0
M  V30 9995 H 956.415 4.5706 -0.601431 0
M  V30 9996 H 959.959 5.84343 -3.81037 0
M  V30 9997 H 955.856 5.91786 -2.57797 0
M  V30 9998 H 956.624 6.8961 -4.40886 0
M  V30 9999 N 959.287 0.325282 1.54207 0
M  V30 10000 C 960.197 -0.548778 2.28091 0
M  V30 10001 C 961.213 -1.12772 1.32508 0
M  V30 10002 O 962.389 -1.14732 1.65525 0
M  V30 10003 C 959.454 -1.69284 3.02562 0
M  V30 10004 C 958.515 -1.14553 4.13734 0
M  V30 10005 C 957.748 -2.23506 4.84645 0
M  V30 10006 O 957.971 -3.43884 4.55082 0
M  V30 10007 O 956.905 -1.88828 5.71513 0
M  V30 10008 H 960.731 0.0512974 3.03657 0
M  V30 10009 H 958.316 0.0909159 1.49123 0
M  V30 10010 H 960.198 -2.35887 3.49192 0
M  V30 10011 H 958.873 -2.27906 2.2987 0
M  V30 10012 H 957.78 -0.444532 3.71449 0
M  V30 10013 H 959.113 -0.60441 4.88475 0
M  V30 10014 N 960.765 -1.57509 0.0534917 0
M  V30 10015 C 962.042 -1.84137 -0.659767 0
M  V30 10016 C 962.422 -0.942362 -1.88899 0
M  V30 10017 O 961.77 -0.00398566 -2.285 0
M  V30 10018 C 961.98 -3.33919 -1.01486 0
M  V30 10019 C 963.328 -4.00989 -1.39616 0
M  V30 10020 O 964.352 -3.38557 -1.10713 0
M  V30 10021 O 963.211 -5.11071 -1.93567 0
M  V30 10022 H 960.305 -0.760081 -0.325893 0
M  V30 10023 H 962.851 -1.69497 0.0830315 0
M  V30 10024 H 961.623 -3.91046 -0.141041 0
M  V30 10025 H 961.246 -3.53755 -1.81503 0
M  V30 10026 N 962.243 0.219913 -1.56058 0
M  V30 10027 C 963.49 0.944064 -1.79147 0
M  V30 10028 C 963.818 1.84268 -0.622531 0
M  V30 10029 O 963.073 1.91713 0.393013 0
M  V30 10030 C 963.372 1.81293 -3.08006 0
M  V30 10031 C 963.038 1.0674 -4.38084 0
M  V30 10032 C 961.7 0.86147 -4.73426 0
M  V30 10033 C 964.052 0.541049 -5.18384 0
M  V30 10034 C 961.38 0.117307 -5.86583 0
M  V30 10035 C 963.732 -0.189779 -6.32315 0
M  V30 10036 C 962.396 -0.406951 -6.66258 0
M  V30 10037 H 961.666 0.345458 -0.655546 0
M  V30 10038 H 964.313 0.212121 -1.90322 0
M  V30 10039 H 962.618 2.61278 -2.9196 0
M  V30 10040 H 964.315 2.3754 -3.23072 0
M  V30 10041 H 960.905 1.23789 -4.10334 0
M  V30 10042 H 965.089 0.687617 -4.91514 0
M  V30 10043 H 960.345 -0.0611651 -6.11369 0
M  V30 10044 H 964.519 -0.605134 -6.93766 0
M  V30 10045 H 962.146 -0.985511 -7.53785 0
M  V30 10046 N 963.721 1.49897 0.486681 0
M  V30 10047 C 964.951 1.63599 1.2617 0
M  V30 10048 C 965.359 0.312365 1.86604 0
M  V30 10049 O 964.702 -0.713911 1.6926 0
M  V30 10050 C 964.764 2.65736 2.42125 0
M  V30 10051 C 964.428 4.09711 2.0245 0
M  V30 10052 C 965.425 4.9607 1.55596 0
M  V30 10053 C 963.11 4.55534 2.11647 0
M  V30 10054 C 965.104 6.26295 1.18462 0
M  V30 10055 C 962.791 5.85768 1.74124 0
M  V30 10056 C 963.789 6.70973 1.27608 0
M  V30 10057 O 963.477 7.98778 0.905991 0
M  V30 10058 H 963.209 0.55333 0.388332 0
M  V30 10059 H 965.763 1.96768 0.589195 0
M  V30 10060 H 963.993 2.27778 3.12497 0
M  V30 10061 H 965.682 2.68819 3.04123 0
M  V30 10062 H 966.448 4.61891 1.47925 0
M  V30 10063 H 962.327 3.8937 2.46803 0
M  V30 10064 H 965.871 6.92754 0.820839 0
M  V30 10065 H 961.768 6.19473 1.8145 0
M  V30 10066 H 962.536 8.11914 1.03621 0
M  V30 10067 N 965.199 -0.738761 1.39212 0
M  V30 10068 C 966.129 -1.86602 1.40364 0
M  V30 10069 C 967.11 -1.67984 0.267495 0
M  V30 10070 O 968.295 -1.88358 0.472765 0
M  V30 10071 C 965.425 -3.24308 1.24265 0
M  V30 10072 C 964.379 -3.57557 2.35239 0
M  V30 10073 C 963.705 -4.94159 2.04233 0
M  V30 10074 C 965.005 -3.60914 3.77543 0
M  V30 10075 H 966.699 -1.85896 2.34698 0
M  V30 10076 H 964.245 -0.892959 1.1297 0
M  V30 10077 H 966.198 -4.02838 1.23692 0
M  V30 10078 H 964.922 -3.25531 0.263974 0
M  V30 10079 H 963.581 -2.81354 2.35022 0
M  V30 10080 H 963.229 -4.91959 1.04813 0
M  V30 10081 H 962.929 -5.17373 2.78567 0
M  V30 10082 H 964.453 -5.7505 2.05303 0
M  V30 10083 H 965.867 -4.29528 3.79709 0
M  V30 10084 H 964.264 -3.95644 4.51205 0
M  V30 10085 H 965.334 -2.60803 4.08791 0
M  V30 10086 N 966.677 -1.24326 -0.968545 0
M  V30 10087 C 967.902 -1.1104 -1.75171 0
M  V30 10088 C 968.327 0.333109 -1.85127 0
M  V30 10089 O 967.685 1.24115 -1.32156 0
M  V30 10090 C 967.733 -1.75397 -3.15068 0
M  V30 10091 O 966.837 -1.02417 -3.9948 0
M  V30 10092 H 966.178 -0.388488 -0.538491 0
M  V30 10093 H 968.708 -1.64617 -1.215 0
M  V30 10094 H 968.718 -1.8112 -3.65595 0
M  V30 10095 H 967.393 -2.80427 -3.07138 0
M  V30 10096 H 965.97 -1.04475 -3.57966 0
M  V30 10097 N 968.156 1.1691 -1.05688 0
M  V30 10098 C 969.396 1.88972 -0.779044 0
M  V30 10099 C 969.76 1.7949 0.681708 0
M  V30 10100 O 970.961 2.46418 1.07386 0
M  V30 10101 C 969.232 3.34737 -1.25242 0
M  V30 10102 S 970.791 4.24718 -1.10272 0
M  V30 10103 H 967.609 0.652349 -0.282776 0
M  V30 10104 H 970.211 1.41162 -1.35254 0
M  V30 10105 H 968.915 3.39175 -2.3106 0
M  V30 10106 H 968.446 3.87593 -0.673417 0
M  V30 10107 H 970.461 4.96191 -0.0299004 0
M  V30 10108 N 969.634 0.838594 1.33437 0
M  V30 10109 C 970.859 0.446701 2.02532 0
M  V30 10110 C 971.284 -0.944275 1.62681 0
M  V30 10111 O 970.642 -1.61733 0.81927 0
M  V30 10112 C 970.69 0.574794 3.55989 0
M  V30 10113 O 969.794 -0.399063 4.10465 0
M  V30 10114 H 969.135 0.181637 0.638674 0
M  V30 10115 H 971.665 1.13335 1.70342 0
M  V30 10116 H 971.675 0.456339 4.0544 0
M  V30 10117 H 970.35 1.58921 3.8434 0
M  V30 10118 H 968.927 -0.238187 3.72139 0
M  V30 10119 N 971.112 -1.45937 0.595003 0
M  V30 10120 C 972.042 -2.33198 -0.11871 0
M  V30 10121 C 973.023 -1.46083 -0.871423 0
M  V30 10122 O 974.208 -1.74879 -0.844461 0
M  V30 10123 C 971.338 -3.28576 -1.12495 0
M  V30 10124 C 970.292 -4.25229 -0.486275 0
M  V30 10125 C 969.618 -5.10204 -1.59986 0
M  V30 10126 C 970.918 -5.19019 0.584473 0
M  V30 10127 H 972.612 -2.93122 0.609886 0
M  V30 10128 H 970.158 -1.40951 0.294742 0
M  V30 10129 H 972.111 -3.88485 -1.6327 0
M  V30 10130 H 970.835 -2.66784 -1.88398 0
M  V30 10131 H 969.494 -3.666 0.000507962 0
M  V30 10132 H 969.142 -4.44789 -2.34886 0
M  V30 10133 H 968.842 -5.75669 -1.1781 0
M  V30 10134 H 970.366 -5.7298 -2.11014 0
M  V30 10135 H 971.78 -5.73073 0.161297 0
M  V30 10136 H 970.177 -5.92893 0.927256 0
M  V30 10137 H 971.247 -4.62208 1.46601 0
M  V30 10138 N 972.59 -0.333456 -1.54032 0
M  V30 10139 C 973.815 0.270517 -2.05628 0
M  V30 10140 C 974.24 1.44231 -1.20744 0
M  V30 10141 O 973.598 1.79975 -0.218822 0
M  V30 10142 C 973.646 0.673251 -3.54259 0
M  V30 10143 O 972.75 1.77448 -3.72271 0
M  V30 10144 H 972.091 0.0469753 -0.662336 0
M  V30 10145 H 974.621 -0.484739 -1.98775 0
M  V30 10146 H 974.631 0.953194 -3.96709 0
M  V30 10147 H 973.306 -0.183747 -4.15494 0
M  V30 10148 H 971.883 1.49259 -3.41725 0
M  V30 10149 N 974.068 1.57479 -0.061844 0
M  V30 10150 C 975.018 2.0867 0.918749 0
M  V30 10151 C 976.002 0.994174 1.26511 0
M  V30 10152 O 977.194 1.25738 1.24575 0
M  V30 10153 C 974.323 2.64386 2.18986 0
M  V30 10154 C 973.409 3.80626 1.87042 0
M  V30 10155 N 973.8 4.89982 1.25504 0
M  V30 10156 C 972.098 3.89733 2.1685 0
M  V30 10157 C 972.799 5.70928 1.11429 0
M  V30 10158 N 971.775 5.18877 1.62072 0
M  V30 10159 H 975.577 2.90611 0.438469 0
M  V30 10160 H 973.091 1.61775 0.142321 0
M  V30 10161 H 975.088 2.9937 2.90144 0
M  V30 10162 H 973.748 1.83888 2.67611 0
M  V30 10163 H 974.759 5.09556 0.925914 0
M  V30 10164 H 971.436 3.20194 2.67921 0
M  V30 10165 H 972.826 6.68886 0.635665 0
M  V30 10166 N 975.546 -0.211634 1.56173 0
M  V30 10167 C 976.794 -0.932704 1.7929 0
M  V30 10168 C 977.115 -1.84472 0.632076 0
M  V30 10169 O 976.385 -1.92739 -0.350519 0
M  V30 10170 H 974.965 -0.347393 0.661307 0
M  V30 10171 H 977.627 -0.22111 1.93642 0
M  V30 10172 H 976.723 -1.53365 2.71819 0
M  V30 10173 N 977.024 -1.50153 -0.478725 0
M  V30 10174 C 978.272 -1.60443 -1.22892 0
M  V30 10175 C 978.593 -0.303276 -1.92627 0
M  V30 10176 O 977.863 0.678798 -1.83764 0
M  V30 10177 H 976.443 -0.591205 -0.456602 0
M  V30 10178 H 979.105 -1.86893 -0.552905 0
M  V30 10179 H 978.201 -2.41175 -1.98094 0
M  V30 10180 N 978.502 0.731368 -1.39602 0
M  V30 10181 C 979.449 1.84541 -1.38612 0
M  V30 10182 C 980.419 1.64279 -0.245287 0
M  V30 10183 O 981.604 1.85635 -0.440954 0
M  V30 10184 C 978.744 3.22092 -1.23897 0
M  V30 10185 C 977.857 3.54034 -2.47555 0
M  V30 10186 C 976.992 4.81007 -2.25402 0
M  V30 10187 C 976.031 5.05804 -3.44716 0
M  V30 10188 N 975.168 6.23981 -3.21857 0
M  V30 10189 H 980.008 1.84722 -2.33841 0
M  V30 10190 H 977.545 0.902569 -1.16156 0
M  V30 10191 H 979.503 4.01499 -1.13376 0
M  V30 10192 H 978.133 3.2118 -0.322958 0
M  V30 10193 H 977.185 2.69301 -2.68665 0
M  V30 10194 H 978.497 3.68275 -3.36415 0
M  V30 10195 H 977.651 5.68401 -2.12143 0
M  V30 10196 H 976.39 4.68946 -1.33943 0
M  V30 10197 H 975.395 4.1687 -3.58468 0
M  V30 10198 H 976.62 5.19747 -4.37081 0
M  V30 10199 H 974.566 6.13202 -2.33065 0
M  V30 10200 H 974.483 6.38826 -4.04274 0
M  V30 10201 H 975.751 7.14205 -3.123 0
M  V30 10202 N 979.98 1.24838 0.961938 0
M  V30 10203 C 980.89 1.06304 2.09133 0
M  V30 10204 C 981.906 0.00221475 1.74 0
M  V30 10205 O 983.082 0.201611 2.00388 0
M  V30 10206 C 980.147 0.676117 3.40043 0
M  V30 10207 C 979.208 1.81407 3.89089 0
M  V30 10208 C 978.441 1.44551 5.13752 0
M  V30 10209 O 978.664 0.337894 5.69398 0
M  V30 10210 O 977.598 2.27316 5.57325 0
M  V30 10211 H 981.424 2.01001 2.27667 0
M  V30 10212 H 979.009 1.0371 1.07539 0
M  V30 10213 H 980.891 0.472124 4.18747 0
M  V30 10214 H 979.566 -0.241667 3.22797 0
M  V30 10215 H 978.473 2.07286 3.11421 0
M  V30 10216 H 979.806 2.71083 4.10822 0
M  V30 10217 N 981.458 -1.16348 1.06306 0
M  V30 10218 C 982.388 -2.2291 0.695234 0
M  V30 10219 C 983.369 -1.67208 -0.312343 0
M  V30 10220 O 984.554 -1.93293 -0.187442 0
M  V30 10221 C 981.684 -3.47205 0.0810149 0
M  V30 10222 C 980.638 -4.15801 1.01458 0
M  V30 10223 C 979.964 -5.3405 0.263656 0
M  V30 10224 C 981.264 -4.66766 2.34365 0
M  V30 10225 H 982.958 -2.53934 1.58613 0
M  V30 10226 H 980.504 -1.22056 0.76409 0
M  V30 10227 H 982.457 -4.2098 -0.18818 0
M  V30 10228 H 981.181 -3.15482 -0.844897 0
M  V30 10229 H 979.84 -3.43954 1.26852 0
M  V30 10230 H 979.488 -4.9858 -0.665378 0
M  V30 10231 H 979.188 -5.80885 0.88582 0
M  V30 10232 H 980.712 -6.106 0.00200994 0
M  V30 10233 H 982.126 -5.3212 2.13356 0
M  V30 10234 H 980.523 -5.24223 2.9208 0
M  V30 10235 H 981.593 -3.82969 2.97426 0
M  V30 10236 N 982.937 -0.845659 -1.3299 0
M  V30 10237 C 984.177 -0.450819 -1.99366 0
M  V30 10238 C 984.541 0.973297 -1.65502 0
M  V30 10239 O 985.742 1.47222 -2.24898 0
M  V30 10240 C 984.013 -0.672825 -3.5101 0
M  V30 10241 S 985.572 -0.374216 -4.37201 0
M  V30 10242 H 982.39 -0.169273 -0.690556 0
M  V30 10243 H 984.992 -1.09642 -1.61861 0
M  V30 10244 H 983.696 -1.70855 -3.73145 0
M  V30 10245 H 983.227 -0.0133185 -3.93398 0
M  V30 10246 H 985.242 0.803342 -4.89654 0
M  V30 10247 N 984.415 1.45619 -0.602734 0
M  V30 10248 C 985.64 2.07157 -0.100429 0
M  V30 10249 C 986.065 1.44524 1.20393 0
M  V30 10250 O 985.423 0.536191 1.7319 0
M  V30 10251 C 985.471 3.60587 0.0308604 0
M  V30 10252 O 984.575 3.97944 1.08234 0
M  V30 10253 H 983.916 0.6601 -0.0718643 0
M  V30 10254 H 986.446 1.86948 -0.831366 0
M  V30 10255 H 986.456 4.07348 0.230634 0
M  V30 10256 H 985.131 4.05561 -0.921581 0
M  V30 10257 H 983.708 3.62862 0.859414 0
M  V30 10258 N 985.893 0.34162 1.53853 0
M  V30 10259 C 987.304 -0.14269 1.86154 0
M  V30 10260 C 987.655 -1.50151 1.2629 0
M  V30 10261 O 986.78 -2.08601 0.575735 0
M  V30 10262 C 987.375 -0.265691 3.37757 0
M  V30 10263 C 985.934 -0.694231 3.69942 0
M  V30 10264 C 985.081 0.173195 2.76759 0
M  V30 10265 H 988.032 0.561284 1.48443 0
M  V30 10266 H 988.053 -1.09352 3.64448 0
M  V30 10267 H 987.565 0.723424 3.81298 0
M  V30 10268 H 985.666 -1.69244 3.31945 0
M  V30 10269 H 985.779 -0.485461 4.76634 0
M  V30 10270 H 984.143 -0.35416 2.52226 0
M  V30 10271 H 984.926 1.15941 3.23129 0
M  V30 10272 N 987.371 -1.57444 0.0701946 0
M  V30 10273 C 988.301 -2.15659 -0.895176 0
M  V30 10274 C 989.282 -1.08321 -1.31151 0
M  V30 10275 O 990.467 -1.36349 -1.38284 0
M  V30 10276 C 987.597 -2.71693 -2.16334 0
M  V30 10277 C 986.551 -3.84183 -1.88645 0
M  V30 10278 C 985.877 -4.26814 -3.22078 0
M  V30 10279 C 987.177 -5.08493 -1.19299 0
M  V30 10280 H 988.871 -2.96576 -0.410217 0
M  V30 10281 H 986.417 -1.42662 -0.195872 0
M  V30 10282 H 988.37 -3.11064 -2.84284 0
M  V30 10283 H 987.094 -1.87994 -2.67069 0
M  V30 10284 H 985.753 -3.45314 -1.23101 0
M  V30 10285 H 985.401 -3.40039 -3.70651 0
M  V30 10286 H 985.101 -5.02642 -3.04344 0
M  V30 10287 H 986.625 -4.68799 -3.91228 0
M  V30 10288 H 988.039 -5.4519 -1.77316 0
M  V30 10289 H 986.436 -5.89588 -1.11828 0
M  V30 10290 H 987.506 -4.84595 -0.171839 0
M  V30 10291 N 988.849 0.203349 -1.56283 0
M  V30 10292 C 989.781 1.27592 -1.90402 0
M  V30 10293 C 990.794 1.4213 -0.79391 0
M  V30 10294 O 991.983 1.42703 -1.07229 0
M  V30 10295 C 989.083 2.64919 -2.11356 0
M  V30 10296 C 988.256 2.72095 -3.42466 0
M  V30 10297 C 987.315 3.9056 -3.52631 0
M  V30 10298 O 986.341 3.78048 -4.25521 0
M  V30 10299 N 987.543 5.0566 -2.85111 0
M  V30 10300 H 990.308 0.986423 -2.83001 0
M  V30 10301 H 987.869 0.39331 -1.5705 0
M  V30 10302 H 989.861 3.42581 -2.15453 0
M  V30 10303 H 988.431 2.86391 -1.25295 0
M  V30 10304 H 987.651 1.8077 -3.50308 0
M  V30 10305 H 988.939 2.73874 -4.28801 0
M  V30 10306 H 988.337 5.18723 -2.25705 0
M  V30 10307 H 986.894 5.81299 -2.94847 0
M  V30 10308 N 990.327 1.50405 0.470755 0
M  V30 10309 C 991.555 1.65168 1.24608 0
M  V30 10310 C 991.97 0.335153 1.85801 0
M  V30 10311 O 991.327 -0.682919 1.69241 0
M  V30 10312 C 991.378 2.74305 2.35455 0
M  V30 10313 O 991.099 4.00854 1.76771 0
M  V30 10314 C 992.6 3.00044 3.26326 0
M  V30 10315 H 989.82 0.555186 0.376842 0
M  V30 10316 H 992.364 1.9663 0.56187 0
M  V30 10317 H 990.519 2.45536 2.99651 0
M  V30 10318 H 990.933 4.61211 2.49769 0
M  V30 10319 H 992.407 3.8007 4.00313 0
M  V30 10320 H 992.884 2.11128 3.85126 0
M  V30 10321 H 993.49 3.30345 2.67866 0
M  V30 10322 N 991.805 -0.723954 1.39988 0
M  V30 10323 C 993.221 -1.03095 1.21834 0
M  V30 10324 C 993.421 -2.01309 0.0876647 0
M  V30 10325 O 992.477 -2.46277 -0.55714 0
M  V30 10326 C 993.79 -1.58267 2.5568 0
M  V30 10327 C 995.338 -1.70293 2.6262 0
M  V30 10328 C 995.813 -2.28872 3.96713 0
M  V30 10329 N 997.304 -2.36269 3.98411 0
M  V30 10330 C 998.039 -2.82557 4.98948 0
M  V30 10331 N 997.535 -3.28661 6.0988 0
M  V30 10332 N 999.328 -2.81866 4.86321 0
M  V30 10333 H 991.479 -0.0727891 2.12275 0
M  V30 10334 H 993.742 -0.0949029 0.943238 0
M  V30 10335 H 993.448 -0.935642 3.39026 0
M  V30 10336 H 993.322 -2.56914 2.76179 0
M  V30 10337 H 995.709 -2.34115 1.7965 0
M  V30 10338 H 995.79 -0.70268 2.45959 0
M  V30 10339 H 995.434 -1.65675 4.80119 0
M  V30 10340 H 995.364 -3.29595 4.107 0
M  V30 10341 H 997.855 -2.03697 3.18302 0
M  V30 10342 H 998.168 -3.62524 6.82493 0
M  V30 10343 H 996.513 -3.26641 6.13458 0
M  V30 10344 H 999.704 -2.45179 3.98754 0
M  V30 10345 H 999.877 -3.17626 5.64817 0
M  V30 10346 N 993.283 -1.25346 -0.955304 0
M  V30 10347 C 994.699 -1.02154 -1.22625 0
M  V30 10348 C 994.899 0.26206 -1.99789 0
M  V30 10349 O 993.955 0.974958 -2.32918 0
M  V30 10350 C 995.268 -2.2443 -2.00129 0
M  V30 10351 C 996.816 -2.29185 -2.13174 0
M  V30 10352 C 997.291 -3.51117 -2.94077 0
M  V30 10353 N 998.782 -3.51509 -3.01655 0
M  V30 10354 C 999.517 -4.42517 -3.64645 0
M  V30 10355 N 999.013 -5.43796 -4.29252 0
M  V30 10356 N 1000.81 -4.302 -3.61779 0
M  V30 10357 H 992.957 -2.07812 -0.439071 0
M  V30 10358 H 995.22 -0.91258 -0.256715 0
M  V30 10359 H 994.926 -3.17717 -1.50827 0
M  V30 10360 H 994.8 -2.27548 -3.00835 0
M  V30 10361 H 997.187 -1.36422 -2.61674 0
M  V30 10362 H 997.268 -2.30087 -1.11775 0
M  V30 10363 H 996.912 -4.44201 -2.46268 0
M  V30 10364 H 996.842 -3.4746 -3.95701 0
M  V30 10365 H 999.333 -2.78245 -2.55711 0
M  V30 10366 H 999.646 -6.09453 -4.75171 0
M  V30 10367 H 997.991 -5.4767 -4.27882 0
M  V30 10368 H 1001.18 -3.50304 -3.10491 0
M  V30 10369 H 1001.36 -5.01323 -4.10584 0
M  V30 10370 N 994.761 1.15782 -1.06922 0
M  V30 10371 C 995.724 2.18578 -0.689654 0
M  V30 10372 C 996.724 1.58553 0.267872 0
M  V30 10373 O 997.914 1.7413 0.0494097 0
M  V30 10374 C 995.046 3.40896 -0.0157919 0
M  V30 10375 H 996.239 2.53672 -1.59971 0
M  V30 10376 H 993.792 1.30168 -0.865214 0
M  V30 10377 H 994.527 3.11367 0.906712 0
M  V30 10378 H 994.312 3.85721 -0.704415 0
M  V30 10379 H 995.802 4.16937 0.235266 0
M  V30 10380 N 996.239 0.8527 1.3254 0
M  V30 10381 C 997.189 0.267711 2.26423 0
M  V30 10382 C 998.173 -0.585305 1.49877 0
M  V30 10383 O 999.365 -0.435008 1.71571 0
M  V30 10384 C 996.494 -0.544605 3.38953 0
M  V30 10385 C 995.58 0.32069 4.22886 0
M  V30 10386 N 995.971 1.40601 4.85865 0
M  V30 10387 C 994.269 0.110101 4.45864 0
M  V30 10388 C 994.97 1.93819 5.48461 0
M  V30 10389 N 993.946 1.23764 5.29324 0
M  V30 10390 H 997.748 1.09747 2.7264 0
M  V30 10391 H 995.262 0.698607 1.46606 0
M  V30 10392 H 997.259 -0.98009 4.05216 0
M  V30 10393 H 995.919 -1.37218 2.94281 0
M  V30 10394 H 996.93 1.78894 4.86022 0
M  V30 10395 H 993.607 -0.682917 4.11877 0
M  V30 10396 H 994.997 2.84783 6.08562 0
M  V30 10397 N 997.718 -1.45297 0.610449 0
M  V30 10398 C 998.965 -2.02218 0.106759 0
M  V30 10399 C 999.293 -1.47849 -1.26376 0
M  V30 10400 O 998.548 -0.644402 -1.84786 0
M  V30 10401 C 998.847 -3.57394 0.0205329 0
M  V30 10402 C 998.513 -4.30928 1.32709 0
M  V30 10403 C 997.175 -4.50735 1.68498 0
M  V30 10404 C 999.527 -4.72936 2.19046 0
M  V30 10405 C 996.855 -5.09806 2.90371 0
M  V30 10406 C 999.207 -5.33355 3.40169 0
M  V30 10407 C 997.871 -5.51384 3.76207 0
M  V30 10408 H 997.141 -0.739969 0.039066 0
M  V30 10409 H 999.788 -1.74326 0.792638 0
M  V30 10410 H 998.093 -3.84581 -0.748623 0
M  V30 10411 H 999.79 -3.99144 -0.385386 0
M  V30 10412 H 996.38 -4.15827 1.03854 0
M  V30 10413 H 1000.56 -4.57365 1.92695 0
M  V30 10414 H 995.82 -5.21953 3.18395 0
M  V30 10415 H 999.994 -5.64859 4.07318 0
M  V30 10416 H 997.621 -5.96924 4.70729 0
M  V30 10417 N 999.196 -0.349774 -1.5367 0
M  V30 10418 C 1000.42 0.248692 -2.05904 0
M  V30 10419 C 1000.85 1.42942 -1.22267 0
M  V30 10420 O 1000.2 1.79732 -0.237899 0
M  V30 10421 C 1000.25 0.635639 -3.54953 0
M  V30 10422 O 999.356 1.7349 -3.74132 0
M  V30 10423 H 998.697 0.0399477 -0.662797 0
M  V30 10424 H 1001.23 -0.505795 -1.9825 0
M  V30 10425 H 1001.24 0.911064 -3.97698 0
M  V30 10426 H 999.912 -0.227805 -4.15276 0
M  V30 10427 H 998.489 1.45626 -3.43289 0
M  V30 10428 N 1000.67 1.57404 -0.0785433 0
M  V30 10429 C 1001.62 2.13104 0.88631 0
M  V30 10430 C 1002.59 1.04527 1.29086 0
M  V30 10431 O 1003.78 1.32226 1.37553 0
M  V30 10432 C 1000.92 2.70252 2.14611 0
M  V30 10433 C 1000.03 3.93007 1.79358 0
M  V30 10434 C 999.164 4.38376 3 0
M  V30 10435 C 998.203 5.53761 2.60796 0
M  V30 10436 N 997.34 5.94058 3.74219 0
M  V30 10437 H 1002.18 2.95243 0.404452 0
M  V30 10438 H 999.717 1.45894 0.187982 0
M  V30 10439 H 1001.67 3.01497 2.88367 0
M  V30 10440 H 1000.3 1.90868 2.60326 0
M  V30 10441 H 999.357 3.68181 0.956384 0
M  V30 10442 H 1000.67 4.76795 1.4652 0
M  V30 10443 H 999.823 4.71317 3.82027 0
M  V30 10444 H 998.562 3.53455 3.36037 0
M  V30 10445 H 997.567 5.20464 1.77192 0
M  V30 10446 H 998.792 6.40419 2.25922 0
M  V30 10447 H 996.738 5.12085 4.10005 0
M  V30 10448 H 996.655 6.72602 3.45171 0
M  V30 10449 H 997.923 6.31624 4.56805 0
M  V30 10450 N 1002.15 -0.195058 1.56388 0
M  V30 10451 C 1003.38 -0.930291 1.8447 0
M  V30 10452 C 1003.79 -1.77356 0.658901 0
M  V30 10453 O 1003.13 -1.79691 -0.381664 0
M  V30 10454 C 1003.19 -1.87626 3.06654 0
M  V30 10455 C 1002.86 -1.21494 4.40555 0
M  V30 10456 C 1003.86 -0.591847 5.1652 0
M  V30 10457 C 1001.54 -1.21878 4.8729 0
M  V30 10458 C 1003.53 0.0185743 6.37397 0
M  V30 10459 C 1001.22 -0.604524 6.08103 0
M  V30 10460 C 1002.22 0.0130731 6.82999 0
M  V30 10461 O 1001.91 0.617703 8.01523 0
M  V30 10462 H 1001.64 -0.276933 0.616672 0
M  V30 10463 H 1004.19 -0.207277 2.04351 0
M  V30 10464 H 1002.42 -2.63897 2.82658 0
M  V30 10465 H 1004.11 -2.47929 3.21382 0
M  V30 10466 H 1004.88 -0.581018 4.81507 0
M  V30 10467 H 1000.76 -1.68888 4.2895 0
M  V30 10468 H 1004.3 0.50124 6.95797 0
M  V30 10469 H 1000.2 -0.612855 6.42584 0
M  V30 10470 H 1000.97 0.514612 8.16881 0
M  V30 10471 N 1003.63 -1.50653 -0.462772 0
M  V30 10472 C 1004.56 -1.73056 -1.5676 0
M  V30 10473 C 1005.54 -0.579699 -1.59917 0
M  V30 10474 O 1006.73 -0.819729 -1.76051 0
M  V30 10475 C 1003.86 -1.83234 -2.9503 0
M  V30 10476 C 1002.81 -2.98488 -3.06739 0
M  V30 10477 C 1002.14 -2.93818 -4.46738 0
M  V30 10478 C 1003.44 -4.38869 -2.83181 0
M  V30 10479 H 1005.13 -2.65562 -1.38265 0
M  V30 10480 H 1002.68 -1.27792 -0.663722 0
M  V30 10481 H 1004.63 -1.97491 -3.72257 0
M  V30 10482 H 1003.35 -0.873558 -3.14701 0
M  V30 10483 H 1002.01 -2.83895 -2.31946 0
M  V30 10484 H 1001.66 -1.95769 -4.63339 0
M  V30 10485 H 1001.36 -3.71197 -4.55507 0
M  V30 10486 H 1002.88 -3.10135 -5.25974 0
M  V30 10487 H 1004.3 -4.53945 -3.50153 0
M  V30 10488 H 1002.69 -5.17762 -3.03386 0
M  V30 10489 H 1003.76 -4.50663 -1.78972 0
M  V30 10490 N 1005.11 0.71652 -1.4037 0
M  V30 10491 C 1006.36 1.47638 -1.38597 0
M  V30 10492 C 1006.68 1.94496 0.0120141 0
M  V30 10493 O 1005.94 1.68437 0.996373 0
M  V30 10494 C 1006.24 2.71777 -2.32103 0
M  V30 10495 C 1005.9 2.43689 -3.79376 0
M  V30 10496 C 1004.57 2.35739 -4.195 0
M  V30 10497 C 1006.92 2.20099 -4.72447 0
M  V30 10498 C 1004.25 2.02265 -5.50732 0
M  V30 10499 C 1006.6 1.88138 -6.03976 0
M  V30 10500 C 1005.26 1.78669 -6.43143 0
M  V30 10501 H 1004.53 0.540246 -0.507163 0
M  V30 10502 H 1007.18 0.820822 -1.73017 0
M  V30 10503 H 1005.48 3.42166 -1.90865 0
M  V30 10504 H 1007.18 3.29864 -2.28015 0
M  V30 10505 H 1003.77 2.50763 -3.47585 0
M  V30 10506 H 1007.95 2.25198 -4.42266 0
M  V30 10507 H 1003.21 1.93471 -5.79982 0
M  V30 10508 H 1007.38 1.68898 -6.75608 0
M  V30 10509 H 1005.01 1.52498 -7.44747 0
M  V30 10510 N 1006.59 1.25851 0.948643 0
M  V30 10511 C 1007.54 1.03437 2.03187 0
M  V30 10512 C 1008.52 -0.0307632 1.60871 0
M  V30 10513 O 1009.71 0.185296 1.76027 0
M  V30 10514 C 1006.84 0.661426 3.36868 0
M  V30 10515 C 1005.93 1.76363 3.8569 0
M  V30 10516 N 1006.32 2.9998 4.07241 0
M  V30 10517 C 1004.62 1.64552 4.14534 0
M  V30 10518 C 1005.32 3.71564 4.47566 0
M  V30 10519 N 1004.29 2.99214 4.53841 0
M  V30 10520 H 1008.1 1.97277 2.17851 0
M  V30 10521 H 1005.61 1.16258 1.13392 0
M  V30 10522 H 1007.61 0.482021 4.14104 0
M  V30 10523 H 1006.27 -0.269582 3.23579 0
M  V30 10524 H 1007.28 3.35963 3.94143 0
M  V30 10525 H 1003.95 0.783891 4.10075 0
M  V30 10526 H 1005.34 4.77702 4.72494 0
M  V30 10527 N 1008.06 -1.15214 1.07534 0
M  V30 10528 C 1008.99 -2.2216 0.718837 0
M  V30 10529 C 1009.98 -1.6753 -0.29459 0
M  V30 10530 O 1011.16 -1.93481 -0.166931 0
M  V30 10531 C 1008.29 -3.471 0.117836 0
M  V30 10532 C 1007.24 -4.14701 1.05862 0
M  V30 10533 C 1006.57 -5.3374 0.320284 0
M  V30 10534 C 1007.87 -4.64254 2.39302 0
M  V30 10535 H 1009.56 -2.52237 1.61297 0
M  V30 10536 H 1007.11 -1.21239 0.776992 0
M  V30 10537 H 1009.06 -4.21156 -0.143519 0
M  V30 10538 H 1007.79 -3.16361 -0.811389 0
M  V30 10539 H 1006.45 -3.42589 1.30493 0
M  V30 10540 H 1006.09 -4.99257 -0.61246 0
M  V30 10541 H 1005.79 -5.79912 0.947381 0
M  V30 10542 H 1007.32 -6.10563 0.0667721 0
M  V30 10543 H 1008.73 -5.29827 2.18988 0
M  V30 10544 H 1007.13 -5.21095 2.97623 0
M  V30 10545 H 1008.2 -3.79793 3.01472 0
M  V30 10546 N 1009.54 -0.859717 -1.32086 0
M  V30 10547 C 1010.79 -0.461779 -1.96343 0
M  V30 10548 C 1011.1 0.988837 -1.68764 0
M  V30 10549 O 1012.31 1.49244 -2.268 0
M  V30 10550 C 1010.77 -0.77484 -3.5146 0
M  V30 10551 C 1010.37 -2.24153 -3.87891 0
M  V30 10552 C 1012.12 -0.444873 -4.22162 0
M  V30 10553 C 1010.03 -2.49754 -5.36075 0
M  V30 10554 H 1008.96 -0.168951 -0.734828 0
M  V30 10555 H 1011.61 -1.0512 -1.50406 0
M  V30 10556 H 1009.99 -0.114792 -3.95834 0
M  V30 10557 H 1011.16 -2.94378 -3.54511 0
M  V30 10558 H 1009.48 -2.53651 -3.30227 0
M  V30 10559 H 1012.07 -0.613508 -5.31169 0
M  V30 10560 H 1012.42 0.61391 -4.11749 0
M  V30 10561 H 1012.95 -1.06103 -3.83389 0
M  V30 10562 H 1009.69 -3.54276 -5.51515 0
M  V30 10563 H 1009.21 -1.84112 -5.70844 0
M  V30 10564 H 1010.89 -2.3396 -6.03218 0
M  V30 10565 N 1011.02 1.44971 -0.618145 0
M  V30 10566 C 1012.27 2.02458 -0.117656 0
M  V30 10567 C 1012.6 1.48413 1.25248 0
M  V30 10568 O 1011.87 0.662997 1.82851 0
M  V30 10569 C 1012.16 3.59987 -0.0901897 0
M  V30 10570 C 1012.01 4.24343 -1.49175 0
M  V30 10571 C 1013.33 4.36099 0.592121 0
M  V30 10572 H 1010.45 0.735672 -0.0442291 0
M  V30 10573 H 1013.09 1.727 -0.792138 0
M  V30 10574 H 1011.24 3.85471 0.484175 0
M  V30 10575 H 1012.91 4.10009 -2.114 0
M  V30 10576 H 1011.16 3.82337 -2.04941 0
M  V30 10577 H 1011.83 5.33298 -1.42468 0
M  V30 10578 H 1014.3 4.1597 0.103813 0
M  V30 10579 H 1013.18 5.45822 0.580481 0
M  V30 10580 H 1013.44 4.09746 1.66015 0
M  V30 10581 N 1012.5 0.357919 1.53482 0
M  V30 10582 C 1013.74 -0.22712 2.02128 0
M  V30 10583 C 1014.1 -1.47044 1.2408 0
M  V30 10584 O 1013.39 -1.88841 0.323966 0
M  V30 10585 C 1013.59 -0.579617 3.52669 0
M  V30 10586 C 1013.42 0.627992 4.45294 0
M  V30 10587 C 1012.19 1.13772 4.92325 0
M  V30 10588 C 1014.38 1.49087 4.92217 0
M  V30 10589 N 1012.37 2.30615 5.68937 0
M  V30 10590 C 1013.74 2.50604 5.67096 0
M  V30 10591 C 1015.79 1.51464 4.74303 0
M  V30 10592 C 1014.49 3.54346 6.25964 0
M  V30 10593 C 1016.52 2.54095 5.34032 0
M  V30 10594 C 1015.88 3.54337 6.0879 0
M  V30 10595 H 1011.98 -0.0460295 0.780644 0
M  V30 10596 H 1014.57 0.500733 1.88151 0
M  V30 10597 H 1012.74 -1.27656 3.66822 0
M  V30 10598 H 1014.47 -1.14908 3.88044 0
M  V30 10599 H 1011.22 0.703546 4.68345 0
M  V30 10600 H 1011.65 2.8965 6.11909 0
M  V30 10601 H 1016.29 0.753213 4.16037 0
M  V30 10602 H 1014.01 4.31375 6.83331 0
M  V30 10603 H 1017.59 2.56779 5.22069 0
M  V30 10604 H 1016.47 4.32449 6.54184 0
M  V30 10605 N 1013.98 -1.5736 0.0868897 0
M  V30 10606 C 1015.25 -1.85495 -0.620561 0
M  V30 10607 C 1015.63 -0.982218 -1.86857 0
M  V30 10608 O 1014.98 -0.0524529 -2.2844 0
M  V30 10609 C 1015.19 -3.35996 -0.943798 0
M  V30 10610 C 1016.54 -4.03861 -1.31079 0
M  V30 10611 O 1017.56 -3.4083 -1.03507 0
M  V30 10612 O 1016.42 -5.15062 -1.82683 0
M  V30 10613 H 1013.52 -0.766822 -0.309697 0
M  V30 10614 H 1016.06 -1.69282 0.118966 0
M  V30 10615 H 1014.83 -3.91257 -0.0580628 0
M  V30 10616 H 1014.46 -3.57525 -1.73958 0
M  V30 10617 N 1015.45 0.186762 -1.56489 0
M  V30 10618 C 1016.39 1.25565 -1.91745 0
M  V30 10619 C 1017.4 1.4128 -0.80894 0
M  V30 10620 O 1018.59 1.41558 -1.08737 0
M  V30 10621 C 1015.69 2.62662 -2.14154 0
M  V30 10622 C 1014.86 2.68448 -3.45333 0
M  V30 10623 C 1013.92 3.86798 -3.56754 0
M  V30 10624 O 1012.95 3.73514 -4.29507 0
M  V30 10625 N 1014.15 5.02607 -2.90459 0
M  V30 10626 H 1016.91 0.956351 -2.84032 0
M  V30 10627 H 1014.47 0.376631 -1.57458 0
M  V30 10628 H 1016.47 3.40277 -2.19075 0
M  V30 10629 H 1015.04 2.85046 -1.28326 0
M  V30 10630 H 1014.26 1.77044 -3.52206 0
M  V30 10631 H 1015.54 2.69311 -4.31682 0
M  V30 10632 H 1014.94 5.163 -2.31194 0
M  V30 10633 H 1013.5 5.78139 -3.00996 0
M  V30 10634 N 1016.93 1.50896 0.454776 0
M  V30 10635 C 1017.86 1.6712 1.56855 0
M  V30 10636 C 1018.88 0.552223 1.53148 0
M  V30 10637 O 1020.07 0.825969 1.5824 0
M  V30 10638 C 1017.17 1.65464 2.95762 0
M  V30 10639 C 1016.34 2.93662 3.24163 0
M  V30 10640 C 1015.4 2.84428 4.42704 0
M  V30 10641 O 1014.42 3.58382 4.42211 0
M  V30 10642 N 1015.63 1.9909 5.45292 0
M  V30 10643 H 1018.39 2.63194 1.43349 0
M  V30 10644 H 1015.95 1.48564 0.643457 0
M  V30 10645 H 1017.94 1.56878 3.73057 0
M  V30 10646 H 1016.51 0.770568 3.02954 0
M  V30 10647 H 1015.73 3.16251 2.35328 0
M  V30 10648 H 1017.02 3.78558 3.39957 0
M  V30 10649 H 1016.42 1.3835 5.48521 0
M  V30 10650 H 1014.98 1.96396 6.21508 0
M  V30 10651 N 1018.41 -0.709066 1.40748 0
M  V30 10652 C 1019.66 -1.4646 1.38681 0
M  V30 10653 C 1019.97 -1.95599 -0.0056209 0
M  V30 10654 O 1021.18 -2.71091 -0.148907 0
M  V30 10655 C 1019.63 -2.64771 2.43771 0
M  V30 10656 C 1019.24 -2.22474 3.88856 0
M  V30 10657 C 1020.99 -3.42475 2.50821 0
M  V30 10658 C 1018.89 -3.37663 4.85528 0
M  V30 10659 H 1017.82 -0.550084 0.515678 0
M  V30 10660 H 1020.47 -0.771074 1.66513 0
M  V30 10661 H 1018.86 -3.36325 2.09048 0
M  V30 10662 H 1020.03 -1.58297 4.32757 0
M  V30 10663 H 1018.35 -1.57798 3.85342 0
M  V30 10664 H 1020.94 -4.28201 3.20232 0
M  V30 10665 H 1021.29 -3.86738 1.54076 0
M  V30 10666 H 1021.82 -2.77969 2.84567 0
M  V30 10667 H 1018.56 -2.98426 5.83628 0
M  V30 10668 H 1018.08 -4.00734 4.46287 0
M  V30 10669 H 1019.76 -4.03636 5.05655 0
M  V30 10670 N 1019.89 -1.26353 -0.941956 0
M  V30 10671 C 1021.13 -1.13071 -1.70277 0
M  V30 10672 C 1021.49 0.320699 -1.89303 0
M  V30 10673 O 1022.69 0.575624 -2.62564 0
M  V30 10674 C 1020.97 -1.87777 -3.04096 0
M  V30 10675 S 1022.52 -1.9054 -3.95272 0
M  V30 10676 H 1019.34 -0.403912 -0.585129 0
M  V30 10677 H 1021.94 -1.6006 -1.12254 0
M  V30 10678 H 1020.65 -2.92447 -2.87929 0
M  V30 10679 H 1020.18 -1.41226 -3.67177 0
M  V30 10680 H 1022.19 -0.991548 -4.86192 0
M  V30 10681 N 1021.37 1.14642 -1.08144 0
M  V30 10682 C 1022.61 1.85617 -0.809484 0
M  V30 10683 C 1022.94 1.8279 0.664672 0
M  V30 10684 O 1022.2 1.25178 1.50429 0
M  V30 10685 C 1022.5 3.33953 -1.2732 0
M  V30 10686 C 1022.16 3.56969 -2.7547 0
M  V30 10687 C 1020.82 3.6296 -3.15933 0
M  V30 10688 C 1023.18 3.66014 -3.71057 0
M  V30 10689 C 1020.5 3.75515 -4.50783 0
M  V30 10690 C 1022.86 3.80094 -5.05679 0
M  V30 10691 C 1021.52 3.84333 -5.45751 0
M  V30 10692 H 1020.79 0.67922 -0.296211 0
M  V30 10693 H 1023.44 1.35433 -1.35389 0
M  V30 10694 H 1021.74 3.86399 -0.648329 0
M  V30 10695 H 1023.44 3.87291 -1.03957 0
M  V30 10696 H 1020.03 3.52953 -2.4315 0
M  V30 10697 H 1024.21 3.60679 -3.40917 0
M  V30 10698 H 1019.47 3.77057 -4.81288 0
M  V30 10699 H 1023.64 3.86035 -5.79612 0
M  V30 10700 H 1021.27 3.93814 -6.50242 0
M  V30 10701 N 1022.85 0.866709 1.31628 0
M  V30 10702 C 1024.26 0.529032 1.79048 0
M  V30 10703 C 1024.61 -0.953871 1.71452 0
M  V30 10704 O 1023.73 -1.74462 1.28031 0
M  V30 10705 C 1024.33 0.953522 3.25105 0
M  V30 10706 C 1022.89 0.667554 3.70433 0
M  V30 10707 C 1022.03 1.14664 2.52483 0
M  V30 10708 H 1024.98 1.05275 1.18756 0
M  V30 10709 H 1025.01 0.274844 3.79506 0
M  V30 10710 H 1024.52 2.03283 3.30602 0
M  V30 10711 H 1022.62 -0.400532 3.70441 0
M  V30 10712 H 1022.73 1.2423 4.62714 0
M  V30 10713 H 1021.1 0.566502 2.4832 0
M  V30 10714 H 1021.88 2.2333 2.60727 0
M  V30 10715 N 1024.32 -1.44642 0.625825 0
M  V30 10716 C 1025.57 -2.02393 0.128391 0
M  V30 10717 C 1025.9 -1.49075 -1.2446 0
M  V30 10718 O 1025.18 -0.672684 -1.82497 0
M  V30 10719 C 1025.46 -3.59934 0.109279 0
M  V30 10720 C 1025.31 -4.23546 1.51423 0
M  V30 10721 C 1026.63 -4.36406 -0.568985 0
M  V30 10722 H 1023.75 -0.735427 0.0481299 0
M  V30 10723 H 1026.39 -1.72277 0.801286 0
M  V30 10724 H 1024.54 -3.85722 -0.463726 0
M  V30 10725 H 1026.22 -4.08882 2.13572 0
M  V30 10726 H 1024.46 -3.81245 2.06966 0
M  V30 10727 H 1025.13 -5.32535 1.45294 0
M  V30 10728 H 1027.61 -4.1602 -0.0817516 0
M  V30 10729 H 1026.48 -5.46122 -0.551527 0
M  V30 10730 H 1026.74 -4.1062 -1.6384 0
M  V30 10731 N 1025.8 -0.366053 -1.5329 0
M  V30 10732 C 1026.73 0.514916 -2.23341 0
M  V30 10733 C 1027.75 1.04579 -1.24768 0
M  V30 10734 O 1028.94 0.952084 -1.50989 0
M  V30 10735 C 1026.04 1.72374 -2.91788 0
M  V30 10736 C 1025.21 1.32429 -4.16871 0
M  V30 10737 C 1024.27 2.39524 -4.68524 0
M  V30 10738 O 1023.29 2.01895 -5.32191 0
M  V30 10739 N 1024.5 3.71116 -4.46378 0
M  V30 10740 H 1027.26 -0.0851272 -2.99579 0
M  V30 10741 H 1024.82 -0.191255 -1.60766 0
M  V30 10742 H 1026.81 2.43496 -3.23252 0
M  V30 10743 H 1025.38 2.23064 -2.19 0
M  V30 10744 H 1024.6 0.442901 -3.91704 0
M  V30 10745 H 1025.89 1.03372 -4.98188 0
M  V30 10746 H 1025.29 4.04463 -3.95508 0
M  V30 10747 H 1023.85 4.38341 -4.82391 0
M  V30 10748 N 1027.28 1.57312 -0.0952337 0
M  V30 10749 C 1028.53 1.94646 0.569284 0
M  V30 10750 C 1028.86 0.977152 1.67825 0
M  V30 10751 O 1028.13 0.0102318 1.94497 0
M  V30 10752 C 1028.42 3.42098 1.12433 0
M  V30 10753 C 1028.27 4.49795 0.0204016 0
M  V30 10754 C 1029.59 3.90866 2.02266 0
M  V30 10755 H 1026.71 0.707779 0.205469 0
M  V30 10756 H 1029.35 1.89274 -0.16597 0
M  V30 10757 H 1027.5 3.46807 1.75092 0
M  V30 10758 H 1029.17 4.57198 -0.613845 0
M  V30 10759 H 1027.41 4.28964 -0.645965 0
M  V30 10760 H 1028.09 5.50166 0.449579 0
M  V30 10761 H 1030.56 3.88311 1.49512 0
M  V30 10762 H 1029.44 4.94604 2.38029 0
M  V30 10763 H 1029.7 3.30167 2.9401 0
M  V30 10764 N 1028.76 -0.17846 1.56586 0
M  V30 10765 C 1029.71 -1.24042 1.96765 0
M  V30 10766 C 1030.7 -1.46218 0.855375 0
M  V30 10767 O 1031.91 -1.46882 1.04046 0
M  V30 10768 H 1028.28 -0.416807 0.62592 0
M  V30 10769 H 1030.25 -0.874644 2.85294 0
M  V30 10770 C 1029 -2.57394 2.3376 0
M  V30 10771 H 1028.32 -2.41151 3.18883 0
M  V30 10772 H 1029.76 -3.30405 2.65723 0
M  V30 10773 C 1028.22 -3.15621 1.17835 0
M  V30 10774 O 1028.75 -3.99032 0.462202 0
M  V30 10775 N 1026.96 -2.74606 0.950783 0
M  V30 10776 H 1026.51 -2.06878 1.5349 0
M  V30 10777 H 1026.46 -3.13902 0.176967 0
M  V30 10778 N 1030.24 -1.51135 -0.446768 0
M  V30 10779 C 1031.65 -1.39101 -0.782504 0
M  V30 10780 C 1031.85 -0.46599 -1.96038 0
M  V30 10781 O 1030.91 0.0823679 -2.52366 0
M  V30 10782 C 1032.22 -2.80953 -1.07173 0
M  V30 10783 C 1033.77 -2.90038 -1.17673 0
M  V30 10784 C 1034.24 -4.32777 -1.49894 0
M  V30 10785 N 1035.73 -4.3584 -1.56837 0
M  V30 10786 C 1036.47 -5.43305 -1.83322 0
M  V30 10787 N 1035.97 -6.60945 -2.07662 0
M  V30 10788 N 1037.76 -5.30775 -1.85026 0
M  V30 10789 H 1029.91 -2.09835 0.329114 0
M  V30 10790 H 1032.17 -0.944199 0.0848054 0
M  V30 10791 H 1031.88 -3.50591 -0.279037 0
M  V30 10792 H 1031.75 -3.197 -2.00179 0
M  V30 10793 H 1034.14 -2.20603 -1.96005 0
M  V30 10794 H 1034.22 -2.54801 -0.225892 0
M  V30 10795 H 1033.86 -5.02757 -0.720924 0
M  V30 10796 H 1033.79 -4.6552 -2.46168 0
M  V30 10797 H 1036.29 -3.51023 -1.39968 0
M  V30 10798 H 1036.6 -7.38643 -2.27214 0
M  V30 10799 H 1034.94 -6.64077 -2.05003 0
M  V30 10800 H 1038.13 -4.37858 -1.65523 0
M  V30 10801 H 1038.31 -6.14609 -2.05329 0
M  V30 10802 N 1031.71 0.701592 -1.41122 0
M  V30 10803 C 1032.64 1.82815 -1.45262 0
M  V30 10804 C 1033.62 1.67215 -0.311939 0
M  V30 10805 O 1034.81 1.87038 -0.522538 0
M  V30 10806 C 1031.94 3.20899 -1.32819 0
M  V30 10807 C 1030.89 3.51194 -2.44636 0
M  V30 10808 C 1030.22 4.8857 -2.17263 0
M  V30 10809 C 1031.52 3.50777 -3.86979 0
M  V30 10810 H 1033.21 1.79608 -2.39544 0
M  V30 10811 H 1030.76 0.862693 -1.15298 0
M  V30 10812 H 1032.71 3.99417 -1.34329 0
M  V30 10813 H 1031.44 3.24717 -0.350191 0
M  V30 10814 H 1030.1 2.75024 -2.42399 0
M  V30 10815 H 1029.74 4.89007 -1.17819 0
M  V30 10816 H 1029.44 5.09805 -2.92186 0
M  V30 10817 H 1030.97 5.69405 -2.20478 0
M  V30 10818 H 1032.38 4.19309 -3.90964 0
M  V30 10819 H 1030.78 3.83542 -4.61536 0
M  V30 10820 H 1031.85 2.49873 -4.15562 0
M  V30 10821 N 1033.19 1.2685 0.935242 0
M  V30 10822 C 1034.6 1.11569 1.49697 0
M  V30 10823 C 1034.95 -0.301952 1.93863 0
M  V30 10824 O 1034.08 -1.19408 1.80473 0
M  V30 10825 C 1034.67 2.01918 2.72056 0
M  V30 10826 C 1033.23 1.90765 3.24477 0
M  V30 10827 C 1032.38 1.94918 1.97237 0
M  V30 10828 H 1035.33 1.39853 0.750116 0
M  V30 10829 H 1035.35 1.57056 3.46574 0
M  V30 10830 H 1034.86 3.05088 2.39881 0
M  V30 10831 H 1032.96 0.905521 3.61429 0
M  V30 10832 H 1033.08 2.76611 3.91182 0
M  V30 10833 H 1031.44 1.39046 2.13397 0
M  V30 10834 H 1032.22 2.99729 1.67385 0
M  V30 10835 N 1034.67 -1.14067 1.0875 0
M  V30 10836 C 1036.09 -1.37173 0.815823 0
M  V30 10837 C 1036.29 -1.93175 -0.573215 0
M  V30 10838 O 1035.34 -2.14672 -1.32937 0
M  V30 10839 C 1036.66 -2.32955 1.90138 0
M  V30 10840 C 1038.2 -2.46586 1.9278 0
M  V30 10841 C 1038.68 -3.4567 3.0046 0
M  V30 10842 N 1040.17 -3.53216 2.99655 0
M  V30 10843 C 1040.9 -4.29743 3.79616 0
M  V30 10844 N 1040.4 -5.09484 4.69466 0
M  V30 10845 N 1042.19 -4.24975 3.67903 0
M  V30 10846 H 1034.34 -0.760648 1.98313 0
M  V30 10847 H 1036.61 -0.397135 0.860807 0
M  V30 10848 H 1036.31 -1.98949 2.90021 0
M  V30 10849 H 1036.19 -3.32897 1.77368 0
M  V30 10850 H 1038.57 -2.79882 0.935404 0
M  V30 10851 H 1038.66 -1.46593 2.09629 0
M  V30 10852 H 1038.3 -3.13106 3.99909 0
M  V30 10853 H 1038.23 -4.45452 2.80856 0
M  V30 10854 H 1040.72 -2.96314 2.34535 0
M  V30 10855 H 1041.03 -5.65163 5.27077 0
M  V30 10856 H 1039.38 -5.08741 4.73506 0
M  V30 10857 H 1042.57 -3.61751 2.97075 0
M  V30 10858 H 1042.74 -4.84364 4.30459 0
M  V30 10859 N 1036.15 -0.873678 -1.31166 0
M  V30 10860 C 1037.06 -0.335726 -2.32185 0
M  V30 10861 C 1038.07 0.556259 -1.64869 0
M  V30 10862 O 1039.25 0.452087 -1.9626 0
M  V30 10863 C 1036.32 0.450822 -3.43756 0
M  V30 10864 C 1035.38 -0.469565 -4.26724 0
M  V30 10865 C 1034.61 0.279538 -5.32967 0
M  V30 10866 O 1034.83 1.50715 -5.50128 0
M  V30 10867 O 1033.77 -0.36452 -6.00795 0
M  V30 10868 H 1037.59 -1.17314 -2.80127 0
M  V30 10869 H 1035.18 -0.637163 -1.35132 0
M  V30 10870 H 1037.06 0.896582 -4.11752 0
M  V30 10871 H 1035.73 1.26472 -2.9797 0
M  V30 10872 H 1034.64 -0.963902 -3.61469 0
M  V30 10873 H 1035.97 -1.24916 -4.76085 0
M  V30 10874 N 1037.63 1.44308 -0.633487 0
M  V30 10875 C 1038.85 2.06384 -0.146063 0
M  V30 10876 C 1039.27 1.47357 1.18031 0
M  V30 10877 O 1038.63 0.597334 1.72448 0
M  V30 10878 C 1038.68 3.61489 -0.0276722 0
M  V30 10879 O 1038.4 4.18318 -1.3016 0
M  V30 10880 C 1039.9 4.40604 0.488168 0
M  V30 10881 H 1037.12 0.666122 -0.0807632 0
M  V30 10882 H 1039.66 1.85139 -0.868557 0
M  V30 10883 H 1037.82 3.81988 0.645273 0
M  V30 10884 H 1038.23 5.11783 -1.14797 0
M  V30 10885 H 1039.71 5.49545 0.520013 0
M  V30 10886 H 1040.18 4.12218 1.51568 0
M  V30 10887 H 1040.79 4.2503 -0.151608 0
M  V30 10888 N 1039.1 0.374177 1.53094 0
M  V30 10889 C 1040.03 -0.459976 2.28925 0
M  V30 10890 C 1041.02 -1.07656 1.31698 0
M  V30 10891 O 1042.2 -1.09219 1.60577 0
M  V30 10892 C 1039.33 -1.5954 3.08487 0
M  V30 10893 C 1038.28 -1.10563 4.13473 0
M  V30 10894 C 1037.61 -2.33196 4.81169 0
M  V30 10895 C 1038.91 -0.184275 5.21975 0
M  V30 10896 H 1040.6 0.172692 2.98902 0
M  V30 10897 H 1038.15 0.0844956 1.43752 0
M  V30 10898 H 1040.1 -2.18565 3.60288 0
M  V30 10899 H 1038.83 -2.25543 2.36216 0
M  V30 10900 H 1037.49 -0.53801 3.62631 0
M  V30 10901 H 1037.13 -2.97675 4.05461 0
M  V30 10902 H 1036.83 -2.01094 5.52119 0
M  V30 10903 H 1038.36 -2.92892 5.35767 0
M  V30 10904 H 1039.77 -0.682262 5.69226 0
M  V30 10905 H 1038.17 0.0462746 6.00082 0
M  V30 10906 H 1039.24 0.771152 4.78729 0
M  V30 10907 N 1040.58 -1.57259 0.103575 0
M  V30 10908 C 1041.51 -2.17509 -0.84923 0
M  V30 10909 C 1042.49 -1.11079 -1.28824 0
M  V30 10910 O 1043.68 -1.39252 -1.35361 0
M  V30 10911 C 1040.81 -2.76221 -2.10522 0
M  V30 10912 C 1039.76 -3.88098 -1.80454 0
M  V30 10913 C 1039.09 -4.33549 -3.12952 0
M  V30 10914 C 1040.39 -5.10909 -1.08486 0
M  V30 10915 H 1042.08 -2.9738 -0.347217 0
M  V30 10916 H 1039.63 -1.43045 -0.165568 0
M  V30 10917 H 1041.58 -3.17024 -2.77621 0
M  V30 10918 H 1040.31 -1.93617 -2.63021 0
M  V30 10919 H 1038.96 -3.47847 -1.15749 0
M  V30 10920 H 1038.61 -3.47825 -3.63355 0
M  V30 10921 H 1038.31 -5.08984 -2.93614 0
M  V30 10922 H 1039.84 -4.76992 -3.81196 0
M  V30 10923 H 1041.25 -5.48828 -1.65711 0
M  V30 10924 H 1039.65 -5.91828 -0.992973 0
M  V30 10925 H 1040.72 -4.84851 -0.0690108 0
M  V30 10926 N 1042.06 0.170153 -1.56679 0
M  V30 10927 C 1043.3 0.893073 -1.83857 0
M  V30 10928 C 1043.66 1.79378 -0.684661 0
M  V30 10929 O 1044.87 2.55439 -0.836926 0
M  V30 10930 C 1043.14 1.66679 -3.16153 0
M  V30 10931 S 1044.7 2.43831 -3.64818 0
M  V30 10932 H 1041.51 0.299091 -0.645031 0
M  V30 10933 H 1044.12 0.154628 -1.94888 0
M  V30 10934 H 1042.82 0.996152 -3.98127 0
M  V30 10935 H 1042.35 2.44658 -3.08068 0
M  V30 10936 H 1044.37 3.68555 -3.32237 0
M  V30 10937 N 1043.54 1.5137 0.438746 0
M  V30 10938 C 1044.5 1.71993 1.51496 0
M  V30 10939 C 1045.5 0.589978 1.49586 0
M  V30 10940 O 1046.69 0.857505 1.51633 0
M  V30 10941 C 1043.82 1.77508 2.91039 0
M  V30 10942 H 1045.02 2.68041 1.34514 0
M  V30 10943 H 1042.57 1.41338 0.667326 0
M  V30 10944 H 1043.3 0.832698 3.13427 0
M  V30 10945 H 1043.09 2.59627 2.9383 0
M  V30 10946 H 1044.58 1.95308 3.69113 0
M  V30 10947 N 1045.02 -0.694098 1.41492 0
M  V30 10948 C 1046.24 -1.48286 1.44288 0
M  V30 10949 C 1046.66 -1.88737 0.0485783 0
M  V30 10950 O 1046.02 -1.56881 -0.932449 0
M  V30 10951 C 1046.07 -2.74446 2.3529 0
M  V30 10952 O 1045.79 -2.35698 3.69294 0
M  V30 10953 C 1047.29 -3.68175 2.46905 0
M  V30 10954 H 1044.51 -0.45692 0.491391 0
M  V30 10955 H 1047.05 -0.854477 1.85793 0
M  V30 10956 H 1045.21 -3.33518 1.9709 0
M  V30 10957 H 1045.62 -3.17029 4.17843 0
M  V30 10958 H 1047.1 -4.53476 3.14743 0
M  V30 10959 H 1047.57 -4.12763 1.50078 0
M  V30 10960 H 1048.18 -3.15006 2.85747 0
M  V30 10961 N 1046.49 -1.27344 -0.928501 0
M  V30 10962 C 1047.42 -1.12517 -2.04602 0
M  V30 10963 C 1048.41 -0.0268563 -1.70079 0
M  V30 10964 O 1049.59 -0.201197 -1.93155 0
M  V30 10965 C 1046.72 -0.770749 -3.3864 0
M  V30 10966 C 1045.67 -1.8222 -3.87272 0
M  V30 10967 C 1045 -1.32178 -5.18105 0
M  V30 10968 C 1046.3 -3.22614 -4.10752 0
M  V30 10969 H 1047.99 -2.06 -2.17265 0
M  V30 10970 H 1045.54 -0.991827 -1.04397 0
M  V30 10971 H 1047.49 -0.653843 -4.16297 0
M  V30 10972 H 1046.22 0.19979 -3.25988 0
M  V30 10973 H 1044.88 -1.928 -3.11807 0
M  V30 10974 H 1044.52 -0.340719 -5.01845 0
M  V30 10975 H 1044.22 -2.02474 -5.51614 0
M  V30 10976 H 1045.75 -1.2178 -5.98333 0
M  V30 10977 H 1047.16 -3.1504 -4.78981 0
M  V30 10978 H 1045.56 -3.90614 -4.55566 0
M  V30 10979 H 1046.63 -3.67727 -3.16077 0
M  V30 10980 N 1047.97 1.13488 -1.09353 0
M  V30 10981 C 1049.2 1.88319 -0.849681 0
M  V30 10982 C 1049.61 1.79347 0.602616 0
M  V30 10983 O 1048.95 1.15744 1.4265 0
M  V30 10984 C 1049.02 3.38698 -1.20514 0
M  V30 10985 C 1048.68 3.71452 -2.66219 0
M  V30 10986 C 1049.68 3.70755 -3.64467 0
M  V30 10987 C 1047.36 4.01132 -3.02321 0
M  V30 10988 C 1049.36 3.9928 -4.96845 0
M  V30 10989 C 1047.04 4.29318 -4.3489 0
M  V30 10990 C 1048.04 4.28376 -5.31961 0
M  V30 10991 O 1047.73 4.55872 -6.62145 0
M  V30 10992 H 1047.46 0.603053 -0.305455 0
M  V30 10993 H 1050.01 1.44592 -1.45884 0
M  V30 10994 H 1048.24 3.82925 -0.539022 0
M  V30 10995 H 1049.93 3.94852 -0.940552 0
M  V30 10996 H 1050.7 3.47901 -3.3792 0
M  V30 10997 H 1046.58 4.01013 -2.27398 0
M  V30 10998 H 1050.12 3.9846 -5.72604 0
M  V30 10999 H 1046.02 4.51644 -4.61181 0
M  V30 11000 H 1046.79 4.73544 -6.67607 0
M  V30 11001 N 1049.45 0.880621 1.30701 0
M  V30 11002 C 1050.41 0.349087 2.26526 0
M  V30 11003 C 1051.41 -0.505973 1.52632 0
M  V30 11004 O 1052.6 -0.313751 1.71351 0
M  V30 11005 C 1049.74 -0.503023 3.37168 0
M  V30 11006 H 1050.93 1.19516 2.75056 0
M  V30 11007 H 1048.48 0.657107 1.41816 0
M  V30 11008 H 1049.22 -1.36986 2.93948 0
M  V30 11009 H 1049 0.109389 3.91947 0
M  V30 11010 H 1050.49 -0.866845 4.08504 0
M  V30 11011 N 1050.93 -1.4397 0.641131 0
M  V30 11012 C 1051.86 -2.33458 -0.04446 0
M  V30 11013 C 1052.84 -1.48781 -0.824507 0
M  V30 11014 O 1054.03 -1.77477 -0.788397 0
M  V30 11015 C 1051.16 -3.31989 -1.01984 0
M  V30 11016 C 1050.11 -4.2656 -0.350745 0
M  V30 11017 C 1049.44 -5.15036 -1.43673 0
M  V30 11018 C 1050.74 -5.16897 0.749299 0
M  V30 11019 H 1052.43 -2.91034 0.702832 0
M  V30 11020 H 1049.98 -1.39942 0.339435 0
M  V30 11021 H 1051.93 -3.93483 -1.50828 0
M  V30 11022 H 1050.65 -2.72643 -1.79815 0
M  V30 11023 H 1049.31 -3.66413 0.117139 0
M  V30 11024 H 1048.96 -4.52037 -2.20617 0
M  V30 11025 H 1048.66 -5.79125 -0.994358 0
M  V30 11026 H 1050.18 -5.79403 -1.92678 0
M  V30 11027 H 1051.6 -5.7227 0.343534 0
M  V30 11028 H 1049.99 -5.89643 1.11541 0
M  V30 11029 H 1051.06 -4.5731 1.61232 0
M  V30 11030 N 1052.41 -0.382291 -1.52893 0
M  V30 11031 C 1053.82 0.0932841 -1.86467 0
M  V30 11032 C 1054.17 1.4675 -1.30226 0
M  V30 11033 O 1053.29 2.07001 -0.63084 0
M  V30 11034 C 1053.89 0.176048 -3.38342 0
M  V30 11035 C 1052.45 0.595904 -3.71653 0
M  V30 11036 C 1051.6 -0.246511 -2.76202 0
M  V30 11037 H 1054.55 -0.600443 -1.46903 0
M  V30 11038 H 1054.57 0.996512 -3.67219 0
M  V30 11039 H 1054.08 -0.824264 -3.79246 0
M  V30 11040 H 1052.18 1.60384 -3.36315 0
M  V30 11041 H 1052.29 0.358919 -4.77754 0
M  V30 11042 H 1050.66 0.287162 -2.53076 0
M  V30 11043 H 1051.44 -1.24467 -3.19942 0
M  V30 11044 N 1053.89 1.57202 -0.111913 0
M  V30 11045 C 1055.13 1.94125 0.547573 0
M  V30 11046 C 1055.45 0.997026 1.68282 0
M  V30 11047 O 1056.65 1.26063 2.40459 0
M  V30 11048 C 1055.11 3.44982 1.02545 0
M  V30 11049 C 1054.72 4.47927 -0.0809529 0
M  V30 11050 C 1056.46 3.90837 1.65671 0
M  V30 11051 C 1054.37 5.89955 0.413224 0
M  V30 11052 H 1053.3 0.724651 0.208321 0
M  V30 11053 H 1055.95 1.82507 -0.190625 0
M  V30 11054 H 1054.33 3.5181 1.81785 0
M  V30 11055 H 1055.51 4.52761 -0.857003 0
M  V30 11056 H 1053.82 4.11782 -0.618434 0
M  V30 11057 H 1056.42 4.9436 2.03746 0
M  V30 11058 H 1056.76 3.30417 2.53239 0
M  V30 11059 H 1057.29 3.8678 0.929844 0
M  V30 11060 H 1054.03 6.54113 -0.426238 0
M  V30 11061 H 1053.55 5.88557 1.15591 0
M  V30 11062 H 1055.23 6.41032 0.876756 0
M  V30 11063 N 1055.36 -0.161842 1.56767 0
M  V30 11064 C 1056.77 -0.723385 1.72116 0
M  V30 11065 C 1057.13 -1.82355 0.723961 0
M  V30 11066 O 1056.25 -2.16107 -0.112643 0
M  V30 11067 C 1056.85 -1.31895 3.12072 0
M  V30 11068 C 1055.4 -1.82722 3.29074 0
M  V30 11069 C 1054.55 -0.709863 2.6806 0
M  V30 11070 H 1057.5 0.0636647 1.58572 0
M  V30 11071 H 1057.52 -2.18871 3.11249 0
M  V30 11072 H 1057.04 -0.51801 3.84627 0
M  V30 11073 H 1055.14 -2.6543 2.61491 0
M  V30 11074 H 1055.25 -1.96614 4.36898 0
M  V30 11075 H 1053.61 -1.13273 2.28126 0
M  V30 11076 H 1054.4 0.0793884 3.43208 0
M  V30 11077 N 1056.84 -1.516 -0.430713 0
M  V30 11078 C 1058.25 -1.57 -1.01035 0
M  V30 11079 C 1058.6 -0.397439 -1.92132 0
M  V30 11080 O 1057.73 0.484954 -2.10896 0
M  V30 11081 C 1058.32 -2.84536 -1.83915 0
M  V30 11082 C 1056.88 -2.92485 -2.36917 0
M  V30 11083 C 1056.03 -2.5173 -1.16308 0
M  V30 11084 H 1058.98 -1.57281 -0.211734 0
M  V30 11085 H 1059 -2.68672 -2.69435 0
M  V30 11086 H 1058.51 -3.69858 -1.17586 0
M  V30 11087 H 1056.61 -2.11608 -3.0668 0
M  V30 11088 H 1056.73 -3.96277 -2.6926 0
M  V30 11089 H 1055.09 -2.05079 -1.51045 0
M  V30 11090 H 1055.87 -3.39403 -0.515793 0
M  V30 11091 N 1058.32 0.686584 -1.41858 0
M  V30 11092 C 1059.73 1.26682 -1.37145 0
M  V30 11093 C 1060.08 1.96112 -0.058922 0
M  V30 11094 O 1059.21 1.99321 0.842629 0
M  V30 11095 C 1059.8 2.30383 -2.48413 0
M  V30 11096 C 1058.36 2.83961 -2.47069 0
M  V30 11097 C 1057.51 1.58119 -2.27802 0
M  V30 11098 H 1060.46 0.480742 -1.51243 0
M  V30 11099 H 1060.48 3.11868 -2.17987 0
M  V30 11100 H 1059.99 1.79822 -3.43927 0
M  V30 11101 H 1058.09 3.38675 -1.55338 0
M  V30 11102 H 1058.21 3.3378 -3.43697 0
M  V30 11103 H 1056.57 1.84258 -1.75844 0
M  V30 11104 H 1057.35 1.09541 -3.25355 0
M  V30 11105 N 1059.8 1.27835 0.921735 0
M  V30 11106 C 1061.05 1.14296 1.66676 0
M  V30 11107 C 1061.37 -0.310493 1.92512 0
M  V30 11108 O 1060.64 -1.21637 1.53562 0
M  V30 11109 H 1059.22 0.419994 0.617749 0
M  V30 11110 H 1061.88 1.60449 1.10644 0
M  V30 11111 H 1060.97 1.67654 2.63246 0
M  V30 11112 N 1061.28 -1.12907 1.09954 0
M  V30 11113 C 1062.5 -1.88679 0.861099 0
M  V30 11114 C 1062.93 -1.78853 -0.582499 0
M  V30 11115 O 1062.28 -1.13992 -1.4098 0
M  V30 11116 C 1062.33 -3.36047 1.30785 0
M  V30 11117 O 1061.44 -4.09716 0.469728 0
M  V30 11118 H 1060.78 -0.586447 0.31141 0
M  V30 11119 H 1063.31 -1.42818 1.46507 0
M  V30 11120 H 1063.32 -3.86882 1.29562 0
M  V30 11121 H 1061.99 -3.42516 2.35914 0
M  V30 11122 H 1060.57 -3.6887 0.54674 0
M  V30 11123 N 1062.75 -0.88754 -1.30232 0
M  V30 11124 C 1063.98 -0.521562 -2.00735 0
M  V30 11125 C 1064.4 0.883247 -1.66073 0
M  V30 11126 O 1063.76 1.58581 -0.878731 0
M  V30 11127 C 1063.81 -0.706521 -3.53611 0
M  V30 11128 O 1062.91 0.246447 -4.11663 0
M  V30 11129 H 1062.25 -0.205216 -0.631492 0
M  V30 11130 H 1064.78 -1.19579 -1.66018 0
M  V30 11131 H 1064.79 -0.606501 -4.03467 0
M  V30 11132 H 1063.47 -1.73076 -3.78177 0
M  V30 11133 H 1062.05 0.0999062 -3.72766 0
M  V30 11134 N 1064.23 1.43628 -0.648757 0
M  V30 11135 C 1065.46 2.06732 -0.166284 0
M  V30 11136 C 1065.88 1.48281 1.15734 0
M  V30 11137 O 1065.24 0.591018 1.71396 0
M  V30 11138 C 1065.29 3.60502 -0.0838732 0
M  V30 11139 O 1064.39 4.01186 0.955185 0
M  V30 11140 H 1063.73 0.657479 -0.0928285 0
M  V30 11141 H 1066.26 1.84208 -0.890421 0
M  V30 11142 H 1066.27 4.07875 0.100923 0
M  V30 11143 H 1064.95 4.02424 -1.05014 0
M  V30 11144 H 1063.53 3.65412 0.743537 0
M  V30 11145 N 1065.71 0.390394 1.52688 0
M  V30 11146 C 1066.62 -0.451543 2.30213 0
M  V30 11147 C 1067.64 -1.07051 1.37172 0
M  V30 11148 O 1068.81 -1.07609 1.70242 0
M  V30 11149 C 1065.88 -1.56299 3.0947 0
M  V30 11150 C 1064.94 -0.969017 4.18221 0
M  V30 11151 C 1064.17 -2.0275 4.93688 0
M  V30 11152 O 1064.39 -3.24273 4.69258 0
M  V30 11153 O 1063.33 -1.64418 5.79008 0
M  V30 11154 H 1067.15 0.180042 3.03166 0
M  V30 11155 H 1064.74 0.154082 1.48603 0
M  V30 11156 H 1066.62 -2.20864 3.58883 0
M  V30 11157 H 1065.3 -2.17952 2.3933 0
M  V30 11158 H 1064.2 -0.286587 3.73001 0
M  V30 11159 H 1065.54 -0.396687 4.90599 0
M  V30 11160 N 1067.19 -1.57141 0.120249 0
M  V30 11161 C 1068.15 -2.14213 -0.815185 0
M  V30 11162 C 1069.15 -1.07731 -1.19376 0
M  V30 11163 O 1070.34 -1.33502 -1.11906 0
M  V30 11164 C 1067.47 -2.68339 -2.10255 0
M  V30 11165 H 1068.67 -2.98197 -0.319166 0
M  V30 11166 H 1066.22 -1.55767 -0.128997 0
M  V30 11167 H 1066.95 -1.87946 -2.64285 0
M  V30 11168 H 1066.74 -3.46216 -1.84057 0
M  V30 11169 H 1068.23 -3.124 -2.77121 0
M  V30 11170 N 1068.67 0.153526 -1.5685 0
M  V30 11171 C 1069.61 1.20896 -1.98713 0
M  V30 11172 C 1070.61 1.44839 -0.878529 0
M  V30 11173 O 1071.81 1.45208 -1.0637 0
M  V30 11174 H 1068.19 0.406797 -0.632472 0
M  V30 11175 H 1070.16 0.829145 -2.86649 0
M  V30 11176 C 1068.91 2.53642 -2.37825 0
M  V30 11177 H 1068.23 2.36047 -3.22679 0
M  V30 11178 H 1069.67 3.26136 -2.70946 0
M  V30 11179 C 1068.13 3.13706 -1.22841 0
M  V30 11180 O 1068.66 3.98246 -0.525626 0
M  V30 11181 N 1066.87 2.73059 -0.99435 0
M  V30 11182 H 1066.41 2.0441 -1.56761 0
M  V30 11183 H 1066.37 3.1358 -0.226883 0
M  V30 11184 N 1070.14 1.51827 0.422667 0
M  V30 11185 C 1071.09 1.74198 1.51406 0
M  V30 11186 C 1072.06 0.584013 1.55494 0
M  V30 11187 O 1073.25 0.820079 1.72277 0
M  V30 11188 C 1070.39 1.88627 2.88988 0
M  V30 11189 C 1069.5 3.16233 2.94314 0
M  V30 11190 C 1068.63 3.21172 4.2311 0
M  V30 11191 C 1067.67 4.43033 4.2236 0
M  V30 11192 N 1066.81 4.4544 5.42704 0
M  V30 11193 H 1071.65 2.67352 1.31632 0
M  V30 11194 H 1069.19 1.32487 0.63919 0
M  V30 11195 H 1071.15 1.94976 3.68837 0
M  V30 11196 H 1069.78 0.988673 3.07287 0
M  V30 11197 H 1068.83 3.19123 2.07039 0
M  V30 11198 H 1070.14 4.06104 2.89623 0
M  V30 11199 H 1069.29 3.26517 5.11343 0
M  V30 11200 H 1068.03 2.29216 4.30478 0
M  V30 11201 H 1067.04 4.37849 3.32518 0
M  V30 11202 H 1068.26 5.3627 4.16643 0
M  V30 11203 H 1066.21 3.56361 5.50766 0
M  V30 11204 H 1066.13 5.29138 5.39953 0
M  V30 11205 H 1067.39 4.54997 6.32928 0
M  V30 11206 N 1071.62 -0.679052 1.4222 0
M  V30 11207 C 1072.55 -1.80455 1.41311 0
M  V30 11208 C 1073.57 -1.59767 0.312799 0
M  V30 11209 O 1074.76 -1.68964 0.575612 0
M  V30 11210 C 1071.86 -3.17492 1.18541 0
M  V30 11211 C 1071.03 -3.65066 2.40926 0
M  V30 11212 C 1070.09 -4.80823 2.13765 0
M  V30 11213 O 1069.11 -4.91587 2.86934 0
M  V30 11214 N 1070.32 -5.69233 1.13813 0
M  V30 11215 H 1073.08 -1.81722 2.38322 0
M  V30 11216 H 1070.64 -0.861988 1.37045 0
M  V30 11217 H 1072.63 -3.92581 0.982958 0
M  V30 11218 H 1071.2 -3.1115 0.300691 0
M  V30 11219 H 1070.42 -2.80702 2.76767 0
M  V30 11220 H 1071.71 -3.93593 3.22431 0
M  V30 11221 H 1071.11 -5.63185 0.532887 0
M  V30 11222 H 1069.67 -6.44152 0.995554 0
M  V30 11223 N 1073.1 -1.28322 -0.914942 0
M  V30 11224 C 1074.52 -1.06003 -1.19313 0
M  V30 11225 C 1074.72 0.198366 -2.00521 0
M  V30 11226 O 1073.77 0.900364 -2.35902 0
M  V30 11227 C 1075.09 -2.30684 -1.92887 0
M  V30 11228 C 1076.63 -2.35851 -2.05775 0
M  V30 11229 C 1077.11 -3.60295 -2.82757 0
M  V30 11230 N 1078.6 -3.60928 -2.9032 0
M  V30 11231 C 1079.33 -4.53894 -3.50383 0
M  V30 11232 N 1078.83 -5.57178 -4.11734 0
M  V30 11233 N 1080.62 -4.41492 -3.4791 0
M  V30 11234 H 1072.77 -2.09104 -0.372735 0
M  V30 11235 H 1075.04 -0.920285 -0.227552 0
M  V30 11236 H 1074.74 -3.22355 -1.40643 0
M  V30 11237 H 1074.62 -2.37003 -2.93444 0
M  V30 11238 H 1077 -1.44678 -2.57201 0
M  V30 11239 H 1077.09 -2.33526 -1.04399 0
M  V30 11240 H 1076.73 -4.51811 -2.32011 0
M  V30 11241 H 1076.66 -3.59873 -3.84446 0
M  V30 11242 H 1079.15 -2.8624 -2.46729 0
M  V30 11243 H 1079.46 -6.24261 -4.55541 0
M  V30 11244 H 1077.81 -5.61005 -4.10242 0
M  V30 11245 H 1081 -3.60005 -2.99189 0
M  V30 11246 H 1081.17 -5.14132 -3.94427 0
M  V30 11247 N 1074.58 1.12322 -1.10551 0
M  V30 11248 C 1075.99 1.35858 -0.837543 0
M  V30 11249 C 1076.19 1.94062 0.54241 0
M  V30 11250 O 1075.25 2.1676 1.29505 0
M  V30 11251 C 1076.56 2.299 -1.9382 0
M  V30 11252 C 1078.11 2.43488 -1.96679 0
M  V30 11253 C 1078.59 3.40846 -3.05922 0
M  V30 11254 N 1080.08 3.48404 -3.05236 0
M  V30 11255 C 1080.81 4.2365 -3.86405 0
M  V30 11256 N 1080.31 5.01951 -4.77512 0
M  V30 11257 N 1082.1 4.19068 -3.74618 0
M  V30 11258 H 1074.25 0.729002 -1.99498 0
M  V30 11259 H 1076.52 0.38339 -0.867016 0
M  V30 11260 H 1076.22 1.94309 -2.9315 0
M  V30 11261 H 1076.1 3.30033 -1.82641 0
M  V30 11262 H 1078.48 2.78359 -0.979813 0
M  V30 11263 H 1078.56 1.43239 -2.11934 0
M  V30 11264 H 1078.21 3.06704 -4.04839 0
M  V30 11265 H 1078.14 4.40927 -2.87907 0
M  V30 11266 H 1080.63 2.92545 -2.39219 0
M  V30 11267 H 1080.94 5.56707 -5.36002 0
M  V30 11268 H 1079.29 5.01143 -4.8154 0
M  V30 11269 H 1082.48 3.5698 -3.02792 0
M  V30 11270 H 1082.65 4.77455 -4.38111 0
M  V30 11271 N 1076.06 0.894434 1.2976 0
M  V30 11272 C 1077.3 0.518435 1.96061 0
M  V30 11273 C 1077.64 -0.931882 1.70381 0
M  V30 11274 O 1076.91 -1.65988 1.01381 0
M  V30 11275 C 1077.19 0.80519 3.50982 0
M  V30 11276 C 1077.05 2.30683 3.86142 0
M  V30 11277 C 1078.37 0.288096 4.39156 0
M  V30 11278 H 1075.48 0.18983 0.712133 0
M  V30 11279 H 1078.13 1.12016 1.53468 0
M  V30 11280 H 1076.28 0.293071 3.87393 0
M  V30 11281 H 1077.95 2.88808 3.59705 0
M  V30 11282 H 1076.19 2.76968 3.33873 0
M  V30 11283 H 1076.86 2.45805 4.94251 0
M  V30 11284 H 1079.34 0.726547 4.09708 0
M  V30 11285 H 1078.21 0.517985 5.4645 0
M  V30 11286 H 1078.48 -0.811018 4.34597 0
M  V30 11287 N 1077.53 -1.43282 0.656365 0
M  V30 11288 C 1078.95 -1.85012 0.250475 0
M  V30 11289 C 1079.3 -1.54944 -1.20361 0
M  V30 11290 O 1078.42 -0.999983 -1.9191 0
M  V30 11291 C 1079.02 -3.35827 0.447815 0
M  V30 11292 C 1077.58 -3.76277 0.0962151 0
M  V30 11293 C 1076.72 -2.66988 0.749168 0
M  V30 11294 H 1079.67 -1.3339 0.85982 0
M  V30 11295 H 1079.69 -3.7927 -0.305726 0
M  V30 11296 H 1079.21 -3.5768 1.5062 0
M  V30 11297 H 1077.31 -3.60035 -0.959449 0
M  V30 11298 H 1077.42 -4.76227 0.523875 0
M  V30 11299 H 1075.78 -2.54048 0.18212 0
M  V30 11300 H 1076.57 -2.91669 1.81064 0
M  V30 11301 N 1079.01 -0.398486 -1.52479 0
M  V30 11302 C 1079.92 0.439328 -2.3045 0
M  V30 11303 C 1080.94 1.06322 -1.37738 0
M  V30 11304 O 1082.12 1.06704 -1.7081 0
M  V30 11305 C 1079.18 1.54655 -3.10294 0
M  V30 11306 C 1078.24 0.946824 -4.18729 0
M  V30 11307 C 1077.47 2.00129 -4.94757 0
M  V30 11308 O 1077.7 3.2178 -4.70971 0
M  V30 11309 O 1076.63 1.61345 -5.79872 0
M  V30 11310 H 1080.46 -0.196118 -3.03066 0
M  V30 11311 H 1078.04 -0.161961 -1.4852 0
M  V30 11312 H 1079.92 2.18958 -3.60049 0
M  V30 11313 H 1078.6 2.1668 -2.40482 0
M  V30 11314 H 1077.51 0.266802 -3.73147 0
M  V30 11315 H 1078.84 0.370664 -4.90802 0
M  V30 11316 N 1080.49 1.57075 -0.12858 0
M  V30 11317 C 1081.45 2.14643 0.803813 0
M  V30 11318 C 1082.45 1.08363 1.18803 0
M  V30 11319 O 1083.64 1.34093 1.11197 0
M  V30 11320 C 1080.78 2.6945 2.08829 0
M  V30 11321 H 1081.97 2.98362 0.303347 0
M  V30 11322 H 1079.52 1.55833 0.120735 0
M  V30 11323 H 1080.26 1.89345 2.63285 0
M  V30 11324 H 1080.04 3.47187 1.82218 0
M  V30 11325 H 1081.53 3.13865 2.7546 0
M  V30 11326 N 1081.97 -0.145205 1.5693 0
M  V30 11327 C 1082.9 -1.18096 2.01434 0
M  V30 11328 C 1083.88 -1.447 0.894204 0
M  V30 11329 O 1085.07 -1.55589 1.16214 0
M  V30 11330 C 1082.2 -2.51369 2.39647 0
M  V30 11331 C 1081.15 -2.39283 3.54863 0
M  V30 11332 C 1080.48 -3.77283 3.78895 0
M  V30 11333 C 1081.78 -1.8754 4.87469 0
M  V30 11334 H 1083.47 -0.810897 2.8821 0
M  V30 11335 H 1081.02 -0.388624 1.38657 0
M  V30 11336 H 1082.97 -3.24054 2.69382 0
M  V30 11337 H 1081.69 -2.90214 1.49811 0
M  V30 11338 H 1080.35 -1.6905 3.25296 0
M  V30 11339 H 1080 -4.13567 2.86307 0
M  V30 11340 H 1079.7 -3.70057 4.56433 0
M  V30 11341 H 1081.22 -4.51514 4.11057 0
M  V30 11342 H 1082.64 -2.50019 5.1591 0
M  V30 11343 H 1081.03 -1.912 5.68826 0
M  V30 11344 H 1082.1 -0.831194 4.77723 0
M  V30 11345 N 1083.45 -1.52049 -0.414609 0
M  V30 11346 C 1084.7 -1.65511 -1.15977 0
M  V30 11347 C 1085.02 -0.384703 -1.91168 0
M  V30 11348 O 1084.29 0.600247 -1.86477 0
M  V30 11349 H 1082.87 -0.610039 -0.431116 0
M  V30 11350 H 1085.53 -1.8907 -0.473139 0
M  V30 11351 H 1084.62 -2.4936 -1.87686 0
M  V30 11352 N 1084.93 0.6715 -1.42579 0
M  V30 11353 C 1086.17 1.43214 -1.44435 0
M  V30 11354 C 1086.53 1.92304 -0.0608703 0
M  V30 11355 O 1085.82 1.68204 0.917499 0
M  V30 11356 C 1086.01 2.64256 -2.40632 0
M  V30 11357 C 1085.84 2.2701 -3.88197 0
M  V30 11358 C 1084.61 2.16211 -4.56706 0
M  V30 11359 C 1086.81 1.88447 -4.78531 0
M  V30 11360 N 1084.79 1.72104 -5.89282 0
M  V30 11361 C 1086.16 1.55284 -6.00239 0
M  V30 11362 C 1088.22 1.75469 -4.65956 0
M  V30 11363 C 1086.92 1.10444 -7.1077 0
M  V30 11364 C 1088.95 1.32034 -5.76473 0
M  V30 11365 C 1088.31 0.997961 -6.97295 0
M  V30 11366 H 1084.41 0.520415 -0.583688 0
M  V30 11367 H 1086.99 0.774581 -1.78629 0
M  V30 11368 H 1085.16 3.27696 -2.08494 0
M  V30 11369 H 1086.9 3.30865 -2.33046 0
M  V30 11370 H 1083.65 2.35386 -4.10963 0
M  V30 11371 H 1084.07 1.52464 -6.59609 0
M  V30 11372 H 1088.72 1.99038 -3.7302 0
M  V30 11373 H 1086.43 0.856218 -8.03551 0
M  V30 11374 H 1090.02 1.22507 -5.68756 0
M  V30 11375 H 1088.9 0.666968 -7.81359 0
M  V30 11376 N 1086.4 1.28806 0.908124 0
M  V30 11377 C 1087.65 1.1646 1.66027 0
M  V30 11378 C 1087.98 -0.285025 1.92097 0
M  V30 11379 O 1087.26 -1.20675 1.52538 0
M  V30 11380 C 1087.54 1.96951 3.01467 0
M  V30 11381 C 1087.39 3.50007 2.82515 0
M  V30 11382 C 1088.71 1.78932 4.02084 0
M  V30 11383 H 1085.83 0.424435 0.602515 0
M  V30 11384 H 1088.47 1.58185 1.0525 0
M  V30 11385 H 1086.62 1.61495 3.53344 0
M  V30 11386 H 1088.3 3.95401 2.37605 0
M  V30 11387 H 1086.54 3.75356 2.17463 0
M  V30 11388 H 1087.21 4.01591 3.7872 0
M  V30 11389 H 1089.69 2.09885 3.59287 0
M  V30 11390 H 1088.56 2.37615 4.94803 0
M  V30 11391 H 1088.82 0.742286 4.35824 0
M  V30 11392 N 1087.88 -1.11734 1.11145 0
M  V30 11393 C 1089.11 -1.87215 0.880811 0
M  V30 11394 C 1089.52 -1.80016 -0.569195 0
M  V30 11395 O 1088.88 -1.17926 -1.39283 0
M  V30 11396 C 1088.93 -3.36146 1.32998 0
M  V30 11397 O 1088.65 -3.43187 2.72313 0
M  V30 11398 C 1090.15 -4.28542 1.1343 0
M  V30 11399 H 1087.37 -0.592123 0.315645 0
M  V30 11400 H 1089.92 -1.41335 1.478 0
M  V30 11401 H 1088.07 -3.79542 0.776308 0
M  V30 11402 H 1088.49 -4.359 2.91705 0
M  V30 11403 H 1089.96 -5.31295 1.49764 0
M  V30 11404 H 1090.44 -4.39138 0.0735859 0
M  V30 11405 H 1091.04 -3.90935 1.67481 0
M  V30 11406 N 1089.36 -0.901303 -1.29284 0
M  V30 11407 C 1090.59 -0.543511 -1.99634 0
M  V30 11408 C 1091 0.872154 -1.67448 0
M  V30 11409 O 1090.36 1.57591 -0.920406 0
M  V30 11410 C 1090.41 -0.728148 -3.54091 0
M  V30 11411 O 1090.13 -2.08809 -3.85137 0
M  V30 11412 C 1091.63 -0.375519 -4.41707 0
M  V30 11413 H 1088.85 -0.208405 -0.637815 0
M  V30 11414 H 1091.4 -1.21109 -1.64781 0
M  V30 11415 H 1089.55 -0.107728 -3.8725 0
M  V30 11416 H 1089.97 -2.11863 -4.79807 0
M  V30 11417 H 1091.44 -0.555538 -5.49197 0
M  V30 11418 H 1091.92 0.687532 -4.33785 0
M  V30 11419 H 1092.52 -0.972949 -4.14021 0
M  V30 11420 N 1090.84 1.42931 -0.663954 0
M  V30 11421 C 1092.25 1.84877 -0.260283 0
M  V30 11422 C 1092.6 1.5558 1.19538 0
M  V30 11423 O 1091.72 1.01015 1.91377 0
M  V30 11424 C 1092.32 3.35585 -0.465618 0
M  V30 11425 C 1090.88 3.76221 -0.116169 0
M  V30 11426 C 1090.03 2.66587 -0.763317 0
M  V30 11427 H 1092.98 1.32932 -0.866882 0
M  V30 11428 H 1093 3.79427 0.285608 0
M  V30 11429 H 1092.51 3.56877 -1.52515 0
M  V30 11430 H 1090.61 3.60539 0.940342 0
M  V30 11431 H 1090.72 4.75943 -0.549123 0
M  V30 11432 H 1089.09 2.53948 -0.19559 0
M  V30 11433 H 1089.87 2.90704 -1.82609 0
M  V30 11434 N 1092.32 0.406567 1.52266 0
M  V30 11435 C 1093.25 -0.411314 2.29849 0
M  V30 11436 C 1094.23 -1.04838 1.33952 0
M  V30 11437 O 1095.41 -1.05788 1.62857 0
M  V30 11438 C 1092.54 -1.52961 3.11802 0
M  V30 11439 C 1091.5 -1.01768 4.15725 0
M  V30 11440 C 1090.82 -2.22938 4.86007 0
M  V30 11441 C 1092.12 -0.073515 5.22248 0
M  V30 11442 H 1093.82 0.236054 2.98468 0
M  V30 11443 H 1091.36 0.114968 1.4354 0
M  V30 11444 H 1093.31 -2.10874 3.64843 0
M  V30 11445 H 1092.04 -2.20482 2.40947 0
M  V30 11446 H 1090.7 -0.46097 3.6369 0
M  V30 11447 H 1090.35 -2.89007 4.11684 0
M  V30 11448 H 1090.05 -1.89338 5.5626 0
M  V30 11449 H 1091.57 -2.81462 5.41859 0
M  V30 11450 H 1092.98 -0.561367 5.70545 0
M  V30 11451 H 1091.38 0.173551 5.99849 0
M  V30 11452 H 1092.45 0.872524 4.76985 0
M  V30 11453 N 1093.79 -1.57004 0.136909 0
M  V30 11454 C 1095.04 -1.95797 -0.516711 0
M  V30 11455 C 1095.37 -1.02123 -1.65533 0
M  V30 11456 O 1094.62 -0.0484835 -1.9564 0
M  V30 11457 C 1094.92 -3.40903 -1.07331 0
M  V30 11458 C 1094.59 -4.50867 -0.0541941 0
M  V30 11459 C 1093.25 -4.80669 0.225988 0
M  V30 11460 C 1095.6 -5.17264 0.639361 0
M  V30 11461 C 1092.93 -5.74177 1.2057 0
M  V30 11462 C 1095.28 -6.11827 1.60783 0
M  V30 11463 C 1093.95 -6.40012 1.89581 0
M  V30 11464 H 1093.22 -0.716471 -0.189078 0
M  V30 11465 H 1095.86 -1.90213 0.221605 0
M  V30 11466 H 1094.17 -3.43268 -1.88876 0
M  V30 11467 H 1095.87 -3.6824 -1.58745 0
M  V30 11468 H 1092.46 -4.27666 -0.282754 0
M  V30 11469 H 1096.64 -4.9438 0.436085 0
M  V30 11470 H 1091.9 -5.94312 1.43538 0
M  V30 11471 H 1096.07 -6.62354 2.15081 0
M  V30 11472 H 1093.7 -7.12274 2.65649 0
M  V30 11473 N 1095.27 0.136881 -1.57004 0
M  V30 11474 C 1096.22 1.18782 -1.99984 0
M  V30 11475 C 1097.21 1.43899 -0.893841 0
M  V30 11476 O 1098.42 1.44072 -1.07904 0
M  V30 11477 H 1094.8 0.400065 -0.636751 0
M  V30 11478 H 1096.77 0.798696 -2.87512 0
M  V30 11479 C 1095.52 2.51105 -2.40502 0
M  V30 11480 H 1094.84 2.32611 -3.25165 0
M  V30 11481 H 1096.28 3.23244 -2.74389 0
M  V30 11482 C 1094.74 3.12386 -1.26161 0
M  V30 11483 O 1095.27 3.97666 -0.567836 0
M  V30 11484 N 1093.47 2.71989 -1.02326 0
M  V30 11485 H 1093.02 2.02736 -1.58921 0
M  V30 11486 H 1092.98 3.13322 -0.26013 0
M  V30 11487 N 1096.75 1.52266 0.40654 0
M  V30 11488 C 1098 1.66452 1.15325 0
M  V30 11489 C 1098.33 0.395728 1.90432 0
M  V30 11490 O 1097.58 -0.621382 1.85573 0
M  V30 11491 C 1097.88 2.8389 2.1712 0
M  V30 11492 C 1097.55 4.22011 1.58801 0
M  V30 11493 C 1096.21 4.59579 1.42621 0
M  V30 11494 C 1098.56 5.08074 1.16236 0
M  V30 11495 C 1095.89 5.80885 0.823967 0
M  V30 11496 C 1098.24 6.29988 0.574284 0
M  V30 11497 C 1096.9 6.66303 0.399638 0
M  V30 11498 H 1096.17 0.609092 0.422005 0
M  V30 11499 H 1098.82 1.86374 0.440131 0
M  V30 11500 H 1097.13 2.58314 2.94586 0
M  V30 11501 H 1098.82 2.92063 2.74774 0
M  V30 11502 H 1095.41 3.92408 1.72378 0
M  V30 11503 H 1099.6 4.79631 1.27544 0
M  V30 11504 H 1094.85 6.07644 0.676694 0
M  V30 11505 H 1099.03 6.96 0.236081 0
M  V30 11506 H 1096.65 7.60169 -0.0691262 0
M  V30 11507 N 1098.23 -0.663929 1.42933 0
M  V30 11508 C 1099.64 -0.978346 1.26097 0
M  V30 11509 C 1099.84 -2.00756 0.172968 0
M  V30 11510 O 1098.9 -2.48418 -0.452184 0
M  V30 11511 C 1100.21 -1.4728 2.62162 0
M  V30 11512 C 1101.76 -1.59001 2.69606 0
M  V30 11513 C 1102.24 -2.1184 4.06064 0
M  V30 11514 N 1103.73 -2.19158 4.08074 0
M  V30 11515 C 1104.46 -2.61141 5.10483 0
M  V30 11516 N 1103.96 -3.02498 6.23271 0
M  V30 11517 N 1105.75 -2.60986 4.97838 0
M  V30 11518 H 1097.9 0.0173096 2.12393 0
M  V30 11519 H 1100.17 -0.0548116 0.946414 0
M  V30 11520 H 1099.87 -0.791008 3.42689 0
M  V30 11521 H 1099.75 -2.4497 2.86827 0
M  V30 11522 H 1102.13 -2.26284 1.89418 0
M  V30 11523 H 1102.21 -0.597728 2.48718 0
M  V30 11524 H 1101.86 -1.45162 4.86714 0
M  V30 11525 H 1101.79 -3.1188 4.2431 0
M  V30 11526 H 1104.28 -1.90013 3.26655 0
M  V30 11527 H 1104.59 -3.33251 6.97254 0
M  V30 11528 H 1102.94 -3.00328 6.2676 0
M  V30 11529 H 1106.13 -2.28046 4.08794 0
M  V30 11530 H 1106.3 -2.93384 5.7778 0
M  V30 11531 N 1099.71 -1.29285 -0.901281 0
M  V30 11532 C 1100.64 -1.10086 -2.01032 0
M  V30 11533 C 1101.65 -0.0488364 -1.62727 0
M  V30 11534 O 1102.84 -0.293194 -1.76076 0
M  V30 11535 C 1099.94 -0.653357 -3.32542 0
M  V30 11536 C 1099.11 -1.78355 -3.99385 0
M  V30 11537 C 1098.17 -1.32733 -5.09184 0
M  V30 11538 O 1097.2 -2.03177 -5.31703 0
M  V30 11539 N 1098.4 -0.197345 -5.80164 0
M  V30 11540 H 1101.17 -2.056 -2.18057 0
M  V30 11541 H 1098.73 -1.21204 -1.07337 0
M  V30 11542 H 1100.72 -0.331491 -4.0334 0
M  V30 11543 H 1099.29 0.209278 -3.11899 0
M  V30 11544 H 1098.51 -2.27438 -3.21972 0
M  V30 11545 H 1099.8 -2.54137 -4.40785 0
M  V30 11546 H 1099.19 0.390011 -5.64354 0
M  V30 11547 H 1097.75 0.0651642 -6.51767 0
M  V30 11548 N 1101.18 1.11143 -1.11736 0
M  V30 11549 C 1102.43 1.83219 -0.869413 0
M  V30 11550 C 1102.76 1.84588 0.603402 0
M  V30 11551 O 1102.04 1.30119 1.44566 0
M  V30 11552 C 1102.32 3.30247 -1.43559 0
M  V30 11553 C 1102.17 3.37253 -2.97624 0
M  V30 11554 C 1103.49 4.26412 -1.08907 0
M  V30 11555 H 1100.61 0.665205 -0.317286 0
M  V30 11556 H 1103.25 1.30307 -1.38275 0
M  V30 11557 H 1101.4 3.75437 -0.998978 0
M  V30 11558 H 1103.08 3.00599 -3.49911 0
M  V30 11559 H 1101.32 2.77378 -3.33532 0
M  V30 11560 H 1101.99 4.40752 -3.32328 0
M  V30 11561 H 1104.47 3.89418 -1.46604 0
M  V30 11562 H 1103.34 5.27666 -1.51195 0
M  V30 11563 H 1103.6 4.421 -0.000259009 0
M  V30 11564 N 1102.66 0.908147 1.28804 0
M  V30 11565 C 1103.59 0.409106 2.29888 0
M  V30 11566 C 1104.57 -0.520338 1.61946 0
M  V30 11567 O 1105.76 -0.429268 1.89396 0
M  V30 11568 C 1102.89 -0.35669 3.45463 0
M  V30 11569 C 1101.84 0.4831 4.25265 0
M  V30 11570 C 1101.17 -0.4107 5.3312 0
M  V30 11571 C 1102.47 1.73744 4.92555 0
M  V30 11572 H 1104.16 1.25386 2.7188 0
M  V30 11573 H 1101.71 0.604368 1.30703 0
M  V30 11574 H 1103.66 -0.71661 4.15262 0
M  V30 11575 H 1102.39 -1.2353 3.02337 0
M  V30 11576 H 1101.04 0.825464 3.57186 0
M  V30 11577 H 1100.69 -1.28769 4.86238 0
M  V30 11578 H 1100.39 0.14756 5.87415 0
M  V30 11579 H 1101.92 -0.766626 6.05768 0
M  V30 11580 H 1103.33 1.44676 5.54745 0
M  V30 11581 H 1101.73 2.23767 5.5682 0
M  V30 11582 H 1102.8 2.46853 4.17363 0
M  V30 11583 N 1104.14 -1.42577 0.671525 0
M  V30 11584 C 1105.37 -2.05924 0.200731 0
M  V30 11585 C 1105.78 -1.50434 -1.14083 0
M  V30 11586 O 1105.14 -0.642845 -1.70803 0
M  V30 11587 C 1105.19 -3.61289 0.123505 0
M  V30 11588 O 1104.91 -4.1472 1.41205 0
M  V30 11589 C 1106.41 -4.41743 -0.371178 0
M  V30 11590 H 1103.63 -0.663746 0.0983958 0
M  V30 11591 H 1106.18 -1.82771 0.917338 0
M  V30 11592 H 1104.33 -3.83565 -0.543769 0
M  V30 11593 H 1104.75 -5.0856 1.28325 0
M  V30 11594 H 1106.22 -5.50731 -0.374128 0
M  V30 11595 H 1106.7 -4.16092 -1.40585 0
M  V30 11596 H 1107.3 -4.24478 0.264244 0
M  V30 11597 N 1105.62 -0.414636 -1.52048 0
M  V30 11598 C 1106.86 0.158807 -2.03782 0
M  V30 11599 C 1107.22 1.41912 -1.29325 0
M  V30 11600 O 1108.42 2.07136 -1.71313 0
M  V30 11601 C 1106.69 0.395092 -3.55209 0
M  V30 11602 S 1108.25 0.935193 -4.28719 0
M  V30 11603 H 1105.07 0.0424729 -0.70973 0
M  V30 11604 H 1107.67 -0.568822 -1.87042 0
M  V30 11605 H 1106.38 -0.528875 -4.06978 0
M  V30 11606 H 1105.91 1.15044 -3.76203 0
M  V30 11607 H 1107.92 2.21519 -4.44009 0
M  V30 11608 N 1107.1 1.56929 -0.145233 0
M  V30 11609 C 1108.34 1.95681 0.50532 0
M  V30 11610 C 1108.67 1.03098 1.65516 0
M  V30 11611 O 1107.94 0.0921961 1.95683 0
M  V30 11612 H 1106.52 0.72252 0.189668 0
M  V30 11613 H 1109.18 1.93651 -0.220318 0
M  V30 11614 H 1108.27 2.99359 0.882631 0
M  V30 11615 N 1108.58 -0.128553 1.57075 0
M  V30 11616 C 1109.99 -0.481794 1.52154 0
M  V30 11617 C 1110.19 -1.82381 0.856694 0
M  V30 11618 O 1109.25 -2.48725 0.434989 0
M  V30 11619 C 1110.56 -0.475091 2.96923 0
M  V30 11620 C 1112.11 -0.559315 3.07962 0
M  V30 11621 C 1112.58 -0.583095 4.54273 0
M  V30 11622 N 1114.07 -0.644803 4.5869 0
M  V30 11623 C 1114.81 -0.684493 5.693 0
M  V30 11624 N 1114.31 -0.682407 6.89431 0
M  V30 11625 N 1116.1 -0.726777 5.57382 0
M  V30 11626 H 1108.25 0.750894 1.98684 0
M  V30 11627 H 1110.51 0.27593 0.906955 0
M  V30 11628 H 1110.22 0.443157 3.48897 0
M  V30 11629 H 1110.09 -1.30637 3.53856 0
M  V30 11630 H 1112.48 -1.46798 2.55997 0
M  V30 11631 H 1112.56 0.299468 2.54041 0
M  V30 11632 H 1112.2 0.32149 5.06881 0
M  V30 11633 H 1112.13 -1.45863 5.05996 0
M  V30 11634 H 1114.63 -0.652967 3.72216 0
M  V30 11635 H 1114.94 -0.715051 7.69485 0
M  V30 11636 H 1113.28 -0.649984 6.91954 0
M  V30 11637 H 1116.47 -0.725704 4.6244 0
M  V30 11638 H 1116.65 -0.754242 6.43596 0
M  V30 11639 N 1110.05 -1.5248 -0.398459 0
M  V30 11640 C 1111 -1.76585 -1.48615 0
M  V30 11641 C 1111.97 -0.608677 -1.54546 0
M  V30 11642 O 1113.16 -0.847383 -1.7095 0
M  V30 11643 C 1110.3 -1.93201 -2.8595 0
M  V30 11644 C 1109.41 -3.20875 -2.89246 0
M  V30 11645 C 1108.54 -3.27862 -4.17947 0
M  V30 11646 C 1107.58 -4.49697 -4.15258 0
M  V30 11647 N 1106.72 -4.54017 -5.35549 0
M  V30 11648 H 1111.56 -2.69412 -1.27362 0
M  V30 11649 H 1109.1 -1.33487 -0.618031 0
M  V30 11650 H 1111.05 -2.00819 -3.65688 0
M  V30 11651 H 1109.68 -1.03743 -3.05675 0
M  V30 11652 H 1108.74 -3.22376 -2.01935 0
M  V30 11653 H 1110.05 -4.1066 -2.83125 0
M  V30 11654 H 1109.2 -3.34611 -5.06083 0
M  V30 11655 H 1107.94 -2.36035 -4.26777 0
M  V30 11656 H 1106.95 -4.43083 -3.25511 0
M  V30 11657 H 1108.17 -5.42831 -4.08059 0
M  V30 11658 H 1106.12 -3.65078 -5.45027 0
M  V30 11659 H 1106.03 -5.37661 -5.31466 0
M  V30 11660 H 1107.3 -4.65009 -6.25609 0
M  V30 11661 N 1111.53 0.65634 -1.43283 0
M  V30 11662 C 1112.46 1.78101 -1.51004 0
M  V30 11663 C 1113.44 1.66138 -0.36498 0
M  V30 11664 O 1114.63 1.85281 -0.581778 0
M  V30 11665 C 1111.76 3.16511 -1.42961 0
M  V30 11666 C 1110.71 3.43233 -2.55685 0
M  V30 11667 C 1110.04 4.81411 -2.32696 0
M  V30 11668 C 1111.34 3.38288 -3.97943 0
M  V30 11669 H 1113.03 1.71896 -2.45137 0
M  V30 11670 H 1110.58 0.825575 -1.17984 0
M  V30 11671 H 1112.53 3.94941 -1.46968 0
M  V30 11672 H 1111.25 3.23439 -0.45332 0
M  V30 11673 H 1109.91 2.67173 -2.51026 0
M  V30 11674 H 1109.56 4.85011 -1.33317 0
M  V30 11675 H 1109.26 5.00251 -3.08257 0
M  V30 11676 H 1110.79 5.62102 -2.38481 0
M  V30 11677 H 1112.2 4.06659 -4.04106 0
M  V30 11678 H 1110.6 3.68664 -4.73505 0
M  V30 11679 H 1111.67 2.36525 -4.23301 0
M  V30 11680 N 1113.01 1.29761 0.894412 0
M  V30 11681 C 1113.94 1.17902 2.01547 0
M  V30 11682 C 1114.92 0.0719402 1.69948 0
M  V30 11683 O 1116.11 0.252338 1.92554 0
M  V30 11684 C 1113.24 0.860262 3.36477 0
M  V30 11685 C 1112.19 1.92424 3.82305 0
M  V30 11686 C 1111.52 1.45868 5.14419 0
M  V30 11687 C 1112.82 3.33391 4.02054 0
M  V30 11688 H 1114.51 2.11688 2.11727 0
M  V30 11689 H 1112.06 1.01916 1.01731 0
M  V30 11690 H 1114.01 0.763987 4.14417 0
M  V30 11691 H 1112.73 -0.113289 3.26403 0
M  V30 11692 H 1111.39 2.00999 3.06586 0
M  V30 11693 H 1111.04 0.473654 5.00765 0
M  V30 11694 H 1110.74 2.17028 5.46052 0
M  V30 11695 H 1112.26 1.37601 5.94894 0
M  V30 11696 H 1113.68 3.27628 4.7046 0
M  V30 11697 H 1112.07 4.02555 4.4505 0
M  V30 11698 H 1113.14 3.75978 3.06216 0
M  V30 11699 N 1114.49 -1.10549 1.12324 0
M  V30 11700 C 1115.74 -1.82124 0.876083 0
M  V30 11701 C 1116.06 -1.85547 -0.599761 0
M  V30 11702 O 1115.33 -1.33269 -1.43584 0
M  V30 11703 H 1113.91 -0.674455 0.321122 0
M  V30 11704 H 1116.57 -1.33766 1.41748 0
M  V30 11705 H 1115.66 -2.85688 1.25653 0
M  V30 11706 N 1115.97 -0.914965 -1.28321 0
M  V30 11707 C 1116.9 -0.421292 -2.29668 0
M  V30 11708 C 1117.88 0.511743 -1.6222 0
M  V30 11709 O 1119.06 0.419218 -1.89621 0
M  V30 11710 C 1116.19 0.338364 -3.45648 0
M  V30 11711 C 1115.15 -0.505646 -4.25003 0
M  V30 11712 C 1114.47 0.382421 -5.33331 0
M  V30 11713 C 1115.77 -1.76354 -4.91626 0
M  V30 11714 H 1117.47 -1.26826 -2.71211 0
M  V30 11715 H 1115.01 -0.611291 -1.30381 0
M  V30 11716 H 1116.96 0.694578 -4.15636 0
M  V30 11717 H 1115.69 1.21925 -3.02988 0
M  V30 11718 H 1114.35 -0.844395 -3.56743 0
M  V30 11719 H 1114 1.26189 -4.86914 0
M  V30 11720 H 1113.7 -0.17871 -5.87328 0
M  V30 11721 H 1115.22 0.73449 -6.06166 0
M  V30 11722 H 1116.63 -1.47616 -5.5397 0
M  V30 11723 H 1115.03 -2.26717 -5.55625 0
M  V30 11724 H 1116.1 -2.49063 -4.16048 0
M  V30 11725 N 1117.44 1.42219 -0.679077 0
M  V30 11726 C 1118.69 2.02291 -0.212115 0
M  V30 11727 C 1119.04 1.52755 1.16977 0
M  V30 11728 O 1118.34 0.721827 1.77483 0
M  V30 11729 C 1118.53 3.56889 -0.191027 0
M  V30 11730 C 1118.36 4.21429 -1.56933 0
M  V30 11731 C 1117.13 4.5642 -2.16814 0
M  V30 11732 C 1119.33 4.48733 -2.51283 0
M  V30 11733 N 1117.31 5.06162 -3.47381 0
M  V30 11734 C 1118.68 5.00072 -3.66508 0
M  V30 11735 C 1120.74 4.30726 -2.49758 0
M  V30 11736 C 1119.44 5.35296 -4.80469 0
M  V30 11737 C 1121.47 4.67029 -3.62819 0
M  V30 11738 C 1120.83 5.18524 -4.76773 0
M  V30 11739 H 1116.93 0.772324 -0.122637 0
M  V30 11740 H 1119.51 1.73014 -0.89299 0
M  V30 11741 H 1117.68 3.85675 0.459276 0
M  V30 11742 H 1119.41 4.03665 0.289217 0
M  V30 11743 H 1116.17 4.42321 -1.69261 0
M  V30 11744 H 1116.59 5.35457 -4.14264 0
M  V30 11745 H 1121.23 3.90166 -1.62882 0
M  V30 11746 H 1118.95 5.74788 -5.68018 0
M  V30 11747 H 1122.54 4.54769 -3.62872 0
M  V30 11748 H 1121.42 5.4609 -5.6281 0
M  V30 11749 N 1118.92 0.422693 1.51826 0
M  V30 11750 C 1120.33 -0.0438129 1.86649 0
M  V30 11751 C 1120.68 -1.43246 1.34071 0
M  V30 11752 O 1119.81 -2.05256 0.685501 0
M  V30 11753 C 1120.4 -0.0862802 3.3869 0
M  V30 11754 C 1118.96 -0.497157 3.73102 0
M  V30 11755 C 1118.11 0.319655 2.75451 0
M  V30 11756 H 1121.06 0.639181 1.45259 0
M  V30 11757 H 1121.08 -0.8988 3.69732 0
M  V30 11758 H 1120.59 0.924525 3.76927 0
M  V30 11759 H 1118.69 -1.51411 3.40449 0
M  V30 11760 H 1118.81 -0.232125 4.78537 0
M  V30 11761 H 1117.17 -0.219963 2.53748 0
M  V30 11762 H 1117.95 1.32906 3.16529 0
M  V30 11763 N 1120.4 -1.5685 0.153553 0
M  V30 11764 C 1121.36 -2.15894 -0.769564 0
M  V30 11765 C 1122.36 -1.10239 -1.17064 0
M  V30 11766 O 1123.55 -1.35845 -1.09049 0
M  V30 11767 C 1120.68 -2.72738 -2.04516 0
M  V30 11768 H 1121.88 -2.98807 -0.255842 0
M  V30 11769 H 1119.43 -1.56005 -0.0959279 0
M  V30 11770 H 1120.17 -1.9351 -2.60239 0
M  V30 11771 H 1119.95 -3.50042 -1.76672 0
M  V30 11772 H 1121.44 -3.18208 -2.70432 0
M  V30 11773 N 1121.88 0.120221 -1.57141 0
M  V30 11774 C 1123.11 0.842441 -1.88972 0
M  V30 11775 C 1123.52 1.73494 -0.744671 0
M  V30 11776 O 1122.88 1.80268 0.284557 0
M  V30 11777 C 1122.93 1.67688 -3.20254 0
M  V30 11778 O 1122.65 0.820319 -4.30351 0
M  V30 11779 C 1124.15 2.50436 -3.65782 0
M  V30 11780 H 1121.37 0.242241 -0.625748 0
M  V30 11781 H 1123.91 0.104978 -2.0423 0
M  V30 11782 H 1122.07 2.36712 -3.0667 0
M  V30 11783 H 1122.48 1.39575 -5.05588 0
M  V30 11784 H 1123.96 3.04518 -4.60405 0
M  V30 11785 H 1124.43 3.27737 -2.92378 0
M  V30 11786 H 1125.04 1.86657 -3.82151 0
M  V30 11787 N 1123.36 1.52689 0.390367 0
M  V30 11788 C 1124.29 1.73622 1.49626 0
M  V30 11789 C 1125.3 0.616682 1.50668 0
M  V30 11790 O 1126.49 0.892341 1.54595 0
M  V30 11791 C 1123.59 1.77859 2.88477 0
M  V30 11792 C 1122.76 3.07146 3.11416 0
M  V30 11793 C 1121.82 3.02949 4.30242 0
M  V30 11794 O 1120.85 3.76816 4.26613 0
M  V30 11795 N 1122.05 2.22039 5.36357 0
M  V30 11796 H 1124.82 2.69037 1.32057 0
M  V30 11797 H 1122.38 1.51159 0.579867 0
M  V30 11798 H 1124.37 1.72559 3.66067 0
M  V30 11799 H 1122.94 0.898367 2.99413 0
M  V30 11800 H 1122.16 3.25947 2.21703 0
M  V30 11801 H 1123.45 3.92637 3.23595 0
M  V30 11802 H 1122.84 1.6149 5.4216 0
M  V30 11803 H 1121.4 2.2258 6.12619 0
M  V30 11804 N 1124.83 -0.648732 1.43629 0
M  V30 11805 C 1125.74 -1.79046 1.51591 0
M  V30 11806 C 1126.76 -1.69276 0.402697 0
M  V30 11807 O 1127.94 -1.90366 0.657484 0
M  V30 11808 C 1125 -3.15347 1.44073 0
M  V30 11809 C 1124.06 -3.3688 2.66102 0
M  V30 11810 C 1123.3 -4.66679 2.58933 0
M  V30 11811 O 1123.52 -5.46328 1.63956 0
M  V30 11812 O 1122.45 -4.9003 3.49506 0
M  V30 11813 H 1126.28 -1.75283 2.48011 0
M  V30 11814 H 1123.86 -0.807774 1.2568 0
M  V30 11815 H 1125.75 -3.96633 1.42339 0
M  V30 11816 H 1124.42 -3.19691 0.50789 0
M  V30 11817 H 1123.33 -2.55341 2.73407 0
M  V30 11818 H 1124.66 -3.37386 3.58373 0
M  V30 11819 N 1126.31 -1.30234 -0.887518 0
M  V30 11820 C 1127.26 -1.16302 -2.01436 0
M  V30 11821 C 1128.25 -0.0755422 -1.69231 0
M  V30 11822 O 1129.46 -0.236213 -1.78443 0
M  V30 11823 H 1125.84 -0.35961 -0.660443 0
M  V30 11824 H 1127.81 -2.11677 -2.10322 0
M  V30 11825 C 1126.56 -0.869009 -3.36665 0
M  V30 11826 H 1125.88 -1.69787 -3.61956 0
M  V30 11827 H 1127.32 -0.811621 -4.16159 0
M  V30 11828 C 1125.78 0.428021 -3.3417 0
M  V30 11829 O 1126.31 1.45033 -3.74604 0
M  V30 11830 N 1124.51 0.438264 -2.87276 0
M  V30 11831 H 1124.06 -0.394142 -2.54567 0
M  V30 11832 H 1124.02 1.30604 -2.85989 0
M  V30 11833 N 1127.79 1.09952 -1.12909 0
M  V30 11834 C 1129.2 1.63516 -0.901087 0
M  V30 11835 C 1129.55 1.87932 0.563547 0
M  V30 11836 O 1128.68 1.625 1.42908 0
M  V30 11837 C 1129.27 2.97054 -1.62924 0
M  V30 11838 C 1127.83 3.47464 -1.44725 0
M  V30 11839 C 1126.98 2.21979 -1.66194 0
M  V30 11840 H 1129.93 0.933858 -1.28315 0
M  V30 11841 H 1129.95 3.64757 -1.08318 0
M  V30 11842 H 1129.46 2.79251 -2.69519 0
M  V30 11843 H 1127.56 3.70402 -0.40409 0
M  V30 11844 H 1127.68 4.25254 -2.20671 0
M  V30 11845 H 1126.04 2.30368 -1.0864 0
M  V30 11846 H 1126.82 2.06702 -2.74097 0
M  V30 11847 N 1129.27 0.921757 1.27833 0
M  V30 11848 C 1130.49 0.574599 1.99281 0
M  V30 11849 C 1130.92 -0.838905 1.68357 0
M  V30 11850 O 1130.28 -1.56196 0.920468 0
M  V30 11851 C 1130.32 0.800027 3.51613 0
M  V30 11852 O 1129.43 -0.137215 4.12172 0
M  V30 11853 H 1128.77 0.221887 0.625829 0
M  V30 11854 H 1131.3 1.23939 1.62789 0
M  V30 11855 H 1131.31 0.71326 4.01717 0
M  V30 11856 H 1129.98 1.83042 3.73455 0
M  V30 11857 H 1128.56 -0.00103872 3.729 0
M  V30 11858 N 1130.75 -1.41857 0.686609 0
M  V30 11859 C 1131.71 -2.29187 0.0247022 0
M  V30 11860 C 1132.71 -1.43926 -0.717069 0
M  V30 11861 O 1133.9 -1.65179 -0.5533 0
M  V30 11862 C 1131.03 -3.26644 -0.975537 0
M  V30 11863 H 1132.22 -2.89212 0.793503 0
M  V30 11864 H 1129.78 -1.49694 0.449605 0
M  V30 11865 H 1130.51 -2.7158 -1.77242 0
M  V30 11866 H 1130.3 -3.89545 -0.446892 0
M  V30 11867 H 1131.79 -3.92107 -1.43673 0
M  V30 11868 N 1132.22 -0.430739 -1.51599 0
M  V30 11869 C 1133.64 -0.0826902 -1.59386 0
M  V30 11870 C 1133.84 1.40729 -1.44214 0
M  V30 11871 O 1132.9 2.1765 -1.28002 0
M  V30 11872 C 1134.21 -0.59691 -2.94716 0
M  V30 11873 C 1135.76 -0.556772 -3.08008 0
M  V30 11874 C 1136.23 -1.04786 -4.45852 0
M  V30 11875 N 1137.72 -1.00557 -4.52153 0
M  V30 11876 C 1138.46 -1.35649 -5.57124 0
M  V30 11877 N 1137.95 -1.77994 -6.69545 0
M  V30 11878 N 1139.75 -1.27508 -5.47447 0
M  V30 11879 H 1131.9 -1.40027 -1.59707 0
M  V30 11880 H 1134.16 -0.576606 -0.752482 0
M  V30 11881 H 1133.87 -1.63914 -3.11167 0
M  V30 11882 H 1133.74 -0.0182342 -3.77196 0
M  V30 11883 H 1136.13 0.476457 -2.91228 0
M  V30 11884 H 1136.21 -1.17177 -2.27383 0
M  V30 11885 H 1135.85 -2.07952 -4.63377 0
M  V30 11886 H 1135.78 -0.409461 -5.25006 0
M  V30 11887 H 1138.27 -0.694518 -3.71463 0
M  V30 11888 H 1138.59 -2.03026 -7.45654 0
M  V30 11889 H 1136.93 -1.81916 -6.70769 0
M  V30 11890 H 1140.12 -0.942969 -4.58504 0
M  V30 11891 H 1140.3 -1.55185 -6.29143 0
M  V30 11892 N 1133.7 1.56767 -0.161869 0
M  V30 11893 C 1134.95 1.97661 0.479751 0
M  V30 11894 C 1135.3 1.04583 1.61493 0
M  V30 11895 O 1134.6 0.0836772 1.91417 0
M  V30 11896 C 1134.79 3.42567 1.01894 0
M  V30 11897 C 1134.62 4.49657 -0.0624633 0
M  V30 11898 C 1133.39 5.0273 -0.508935 0
M  V30 11899 C 1135.59 5.07069 -0.85941 0
M  V30 11900 N 1133.57 5.93442 -1.57163 0
M  V30 11901 C 1134.94 5.94131 -1.77225 0
M  V30 11902 C 1137 4.89596 -0.905543 0
M  V30 11903 C 1135.7 6.6559 -2.72731 0
M  V30 11904 C 1137.72 5.61769 -1.8485 0
M  V30 11905 C 1137.09 6.48551 -2.74884 0
M  V30 11906 H 1133.19 0.76864 0.14393 0
M  V30 11907 H 1135.77 1.92957 -0.259906 0
M  V30 11908 H 1133.94 3.47835 1.72815 0
M  V30 11909 H 1135.67 3.70493 1.62841 0
M  V30 11910 H 1132.43 4.73476 -0.1084 0
M  V30 11911 H 1132.85 6.43502 -2.10319 0
M  V30 11912 H 1137.49 4.22209 -0.223516 0
M  V30 11913 H 1135.21 7.32197 -3.41927 0
M  V30 11914 H 1138.8 5.50239 -1.89018 0
M  V30 11915 H 1137.68 7.03417 -3.46661 0
M  V30 11916 N 1135.18 -0.111886 1.57202 0
M  V30 11917 C 1136.41 -0.836317 1.89791 0
M  V30 11918 C 1136.83 -1.72304 0.754513 0
M  V30 11919 O 1136.19 -1.78889 -0.294672 0
M  V30 11920 C 1136.24 -1.63971 3.21164 0
M  V30 11921 O 1135.34 -2.74726 3.0757 0
M  V30 11922 H 1134.68 -0.230833 0.622585 0
M  V30 11923 H 1137.21 -0.0921478 2.04392 0
M  V30 11924 H 1137.22 -2.02746 3.54059 0
M  V30 11925 H 1135.9 -0.98882 4.03974 0
M  V30 11926 H 1134.47 -2.39101 2.86156 0
M  V30 11927 N 1136.66 -1.52894 -0.382264 0
M  V30 11928 C 1137.62 -1.77497 -1.45008 0
M  V30 11929 C 1138.62 -0.64509 -1.47293 0
M  V30 11930 O 1139.81 -0.913192 -1.48346 0
M  V30 11931 C 1136.94 -1.88188 -2.8425 0
M  V30 11932 H 1138.14 -2.72849 -1.24473 0
M  V30 11933 H 1135.69 -1.43717 -0.61441 0
M  V30 11934 H 1136.42 -0.948451 -3.10121 0
M  V30 11935 H 1136.21 -2.70353 -2.83992 0
M  V30 11936 H 1137.7 -2.08873 -3.6161 0
M  V30 11937 N 1138.14 0.641106 -1.43971 0
M  V30 11938 C 1139.55 1.22254 -1.41106 0
M  V30 11939 C 1139.9 1.95825 -0.121284 0
M  V30 11940 O 1139.02 2.01901 0.77879 0
M  V30 11941 C 1139.62 2.22364 -2.55617 0
M  V30 11942 C 1138.18 2.75957 -2.55978 0
M  V30 11943 C 1137.33 1.50792 -2.32717 0
M  V30 11944 H 1140.28 0.432381 -1.52696 0
M  V30 11945 H 1140.3 3.04775 -2.27799 0
M  V30 11946 H 1139.81 1.68789 -3.49474 0
M  V30 11947 H 1137.91 3.33562 -1.66034 0
M  V30 11948 H 1138.02 3.22676 -3.54142 0
M  V30 11949 H 1136.39 1.7857 -1.81617 0
M  V30 11950 H 1137.17 0.991343 -3.28675 0
M  V30 11951 N 1139.62 1.30703 0.880598 0
M  V30 11952 C 1140.56 1.17369 2.00817 0
M  V30 11953 C 1141.56 0.0845159 1.69189 0
M  V30 11954 O 1142.76 0.245673 1.78316 0
M  V30 11955 H 1139.14 0.363107 0.658527 0
M  V30 11956 H 1141.11 2.12789 2.09197 0
M  V30 11957 C 1139.86 0.886851 3.362 0
M  V30 11958 H 1139.18 1.71704 3.61051 0
M  V30 11959 H 1140.62 0.83368 4.15723 0
M  V30 11960 C 1139.08 -0.410293 3.34392 0
M  V30 11961 O 1139.61 -1.43044 3.75368 0
M  V30 11962 N 1137.82 -0.423023 2.87505 0
M  V30 11963 H 1137.36 0.407637 2.54354 0
M  V30 11964 H 1137.32 -1.29086 2.86678 0
M  V30 11965 N 1141.09 -1.09351 1.1349 0
M  V30 11966 C 1142.34 -1.81543 0.897123 0
M  V30 11967 C 1142.67 -1.85754 -0.576703 0
M  V30 11968 O 1141.92 -1.32213 -1.44285 0
M  V30 11969 C 1142.22 -3.27498 1.43108 0
M  V30 11970 C 1141.89 -3.4342 2.92188 0
M  V30 11971 C 1140.55 -3.47473 3.32891 0
M  V30 11972 C 1142.9 -3.47894 3.88097 0
M  V30 11973 C 1140.23 -3.5358 4.68186 0
M  V30 11974 C 1142.58 -3.55535 5.23238 0
M  V30 11975 C 1141.25 -3.57857 5.63467 0
M  V30 11976 H 1140.52 -0.664314 0.32828 0
M  V30 11977 H 1143.16 -1.28819 1.41697 0
M  V30 11978 H 1141.47 -3.82865 0.831946 0
M  V30 11979 H 1143.17 -3.8189 1.22316 0
M  V30 11980 H 1139.76 -3.4095 2.59713 0
M  V30 11981 H 1143.94 -3.44002 3.57737 0
M  V30 11982 H 1139.2 -3.53665 4.9873 0
M  V30 11983 H 1143.37 -3.57942 5.9737 0
M  V30 11984 H 1141 -3.62341 6.68291 0
M  V30 11985 N 1142.57 -0.928524 -1.27343 0
M  V30 11986 C 1143.52 -0.399267 -2.24477 0
M  V30 11987 C 1144.51 0.496927 -1.53034 0
M  V30 11988 O 1145.7 0.334237 -1.73816 0
M  V30 11989 C 1142.83 0.346059 -3.41551 0
M  V30 11990 C 1141.91 -0.566699 -4.20297 0
M  V30 11991 N 1142.3 -1.6869 -4.76841 0
M  V30 11992 C 1140.6 -0.369865 -4.44464 0
M  V30 11993 C 1141.3 -2.25466 -5.36228 0
M  V30 11994 N 1140.28 -1.54414 -5.21207 0
M  V30 11995 H 1144.08 -1.25456 -2.65778 0
M  V30 11996 H 1141.59 -0.782894 -1.42283 0
M  V30 11997 H 1143.59 0.742171 -4.10241 0
M  V30 11998 H 1142.25 1.19827 -3.01781 0
M  V30 11999 H 1143.26 -2.06926 -4.74765 0
M  V30 12000 H 1139.94 0.441619 -4.15158 0
M  V30 12001 H 1141.33 -3.19779 -5.90924 0
M  V30 12002 N 1144.05 1.41491 -0.694123 0
M  V30 12003 C 1144.98 2.29197 0.0112742 0
M  V30 12004 C 1145.99 1.44708 0.745877 0
M  V30 12005 O 1147.18 1.68227 0.596821 0
M  V30 12006 C 1144.28 3.22547 1.04004 0
M  V30 12007 C 1143.46 4.35787 0.375347 0
M  V30 12008 C 1142.52 5.09722 1.30652 0
M  V30 12009 O 1141.54 5.63558 0.799459 0
M  V30 12010 N 1142.74 5.1705 2.63893 0
M  V30 12011 H 1145.51 2.90377 -0.741705 0
M  V30 12012 H 1143.07 1.52628 -0.540039 0
M  V30 12013 H 1145.06 3.68878 1.66468 0
M  V30 12014 H 1143.63 2.62685 1.69456 0
M  V30 12015 H 1142.85 3.91857 -0.429145 0
M  V30 12016 H 1144.14 5.08726 -0.0869041 0
M  V30 12017 H 1143.54 4.74756 3.07609 0
M  V30 12018 H 1142.09 5.66962 3.21555 0
M  V30 12019 N 1145.53 0.438773 1.51369 0
M  V30 12020 C 1146.94 -0.0240139 1.86685 0
M  V30 12021 C 1147.29 -1.41816 1.35583 0
M  V30 12022 O 1146.41 -2.04517 0.707232 0
M  V30 12023 C 1147.01 -0.0503527 3.38763 0
M  V30 12024 C 1145.57 -0.457556 3.73609 0
M  V30 12025 C 1144.72 0.348852 2.75097 0
M  V30 12026 H 1147.67 0.654552 1.44573 0
M  V30 12027 H 1147.69 -0.859534 3.70665 0
M  V30 12028 H 1147.2 0.964451 3.75925 0
M  V30 12029 H 1145.3 -1.47791 3.42036 0
M  V30 12030 H 1145.41 -0.181357 4.78757 0
M  V30 12031 H 1143.78 -0.193037 2.53967 0
M  V30 12032 H 1144.56 1.36256 3.15102 0
M  V30 12033 N 1147.01 -1.56678 0.170181 0
M  V30 12034 C 1148.28 -1.88524 -0.521362 0
M  V30 12035 C 1148.66 -1.07989 -1.81388 0
M  V30 12036 O 1148.01 -0.17347 -2.27841 0
M  V30 12037 C 1148.22 -3.40527 -0.764367 0
M  V30 12038 C 1149.57 -4.10241 -1.09487 0
M  V30 12039 O 1150.59 -3.45837 -0.852945 0
M  V30 12040 O 1149.45 -5.24022 -1.55124 0
M  V30 12041 H 1146.55 -0.782161 -0.268614 0
M  V30 12042 H 1149.09 -1.68414 0.208531 0
M  V30 12043 H 1147.86 -3.91015 0.149416 0
M  V30 12044 H 1147.49 -3.66244 -1.54762 0
M  V30 12045 N 1148.48 0.103547 -1.57259 0
M  V30 12046 C 1149.71 0.82624 -1.90232 0
M  V30 12047 C 1150.13 1.71902 -0.763641 0
M  V30 12048 O 1149.49 1.79043 0.285181 0
M  V30 12049 C 1149.54 1.62265 -3.22029 0
M  V30 12050 O 1148.64 2.73091 -3.09023 0
M  V30 12051 H 1147.98 0.227528 -0.6238 0
M  V30 12052 H 1150.51 0.081307 -2.04438 0
M  V30 12053 H 1150.52 2.00865 -3.5513 0
M  V30 12054 H 1149.2 0.967383 -4.04493 0
M  V30 12055 H 1147.78 2.3758 -2.8742 0
M  V30 12056 N 1149.96 1.53094 0.37415 0
M  V30 12057 C 1151.21 1.69111 1.11934 0
M  V30 12058 C 1151.54 0.437252 1.89213 0
M  V30 12059 O 1150.82 -0.565298 1.86104 0
M  V30 12060 C 1151.1 2.93559 2.08554 0
M  V30 12061 C 1150.95 4.29082 1.3494 0
M  V30 12062 C 1152.27 3.13586 3.08791 0
M  V30 12063 H 1149.39 0.615383 0.405553 0
M  V30 12064 H 1152.03 1.85719 0.401078 0
M  V30 12065 H 1150.18 2.79531 2.69805 0
M  V30 12066 H 1151.85 4.54906 0.765402 0
M  V30 12067 H 1150.1 4.28884 0.651238 0
M  V30 12068 H 1150.77 5.12275 2.05616 0
M  V30 12069 H 1153.24 3.26743 2.57639 0
M  V30 12070 H 1152.12 4.02112 3.73627 0
M  V30 12071 H 1152.38 2.28475 3.78486 0
M  V30 12072 N 1151.44 -0.633461 1.44309 0
M  V30 12073 C 1152.69 -1.38902 1.4625 0
M  V30 12074 C 1153 -1.95354 0.0980699 0
M  V30 12075 O 1154.21 -2.715 -0.0049983 0
M  V30 12076 C 1152.66 -2.51477 2.57463 0
M  V30 12077 C 1152.27 -2.01549 4.00103 0
M  V30 12078 C 1154.02 -3.28698 2.68622 0
M  V30 12079 C 1151.92 -3.11452 5.02744 0
M  V30 12080 H 1150.85 -0.521976 0.544112 0
M  V30 12081 H 1153.5 -0.681725 1.70367 0
M  V30 12082 H 1151.89 -3.24771 2.26582 0
M  V30 12083 H 1153.06 -1.35135 4.4054 0
M  V30 12084 H 1151.37 -1.3715 3.93165 0
M  V30 12085 H 1153.97 -4.10624 3.42479 0
M  V30 12086 H 1154.31 -3.78027 1.7436 0
M  V30 12087 H 1154.85 -2.62494 2.98901 0
M  V30 12088 H 1151.59 -2.6707 5.98627 0
M  V30 12089 H 1151.11 -3.76514 4.66902 0
M  V30 12090 H 1152.79 -3.76265 5.2634 0
M  V30 12091 N 1152.92 -1.31168 -0.873655 0
M  V30 12092 C 1153.85 -1.21094 -1.99646 0
M  V30 12093 C 1154.83 -0.0989684 -1.69812 0
M  V30 12094 O 1156.01 -0.282939 -1.92128 0
M  V30 12095 C 1153.14 -0.913684 -3.35066 0
M  V30 12096 C 1152.1 -1.98482 -3.79195 0
M  V30 12097 C 1151.42 -1.54033 -5.12033 0
M  V30 12098 C 1152.72 -3.39745 -3.96699 0
M  V30 12099 H 1154.42 -2.1503 -2.08333 0
M  V30 12100 H 1151.96 -1.03521 -1.00097 0
M  V30 12101 H 1153.92 -0.829821 -4.13149 0
M  V30 12102 H 1152.64 0.0613471 -3.26542 0
M  V30 12103 H 1151.3 -2.05851 -3.03349 0
M  V30 12104 H 1150.95 -0.553261 -4.99948 0
M  V30 12105 H 1150.65 -2.25688 -5.4253 0
M  V30 12106 H 1152.17 -1.47047 -5.92629 0
M  V30 12107 H 1153.59 -3.35071 -4.65188 0
M  V30 12108 H 1151.98 -4.09585 -4.38589 0
M  V30 12109 H 1153.05 -3.80802 -3.00196 0
M  V30 12110 N 1154.4 1.08748 -1.14068 0
M  V30 12111 C 1155.33 2.1544 -0.782199 0
M  V30 12112 C 1156.34 1.61575 0.199301 0
M  V30 12113 O 1157.53 1.78487 -0.0219044 0
M  V30 12114 C 1154.63 3.38611 -0.13983 0
M  V30 12115 C 1153.8 4.2187 -1.15518 0
M  V30 12116 C 1152.86 5.23451 -0.537216 0
M  V30 12117 O 1151.89 5.56424 -1.1992 0
M  V30 12118 N 1153.09 5.76413 0.6876 0
M  V30 12119 H 1155.86 2.46798 -1.70032 0
M  V30 12120 H 1153.42 1.24527 -1.03463 0
M  V30 12121 H 1155.41 4.03688 0.285999 0
M  V30 12122 H 1153.98 3.05084 0.681357 0
M  V30 12123 H 1153.2 3.52825 -1.75806 0
M  V30 12124 H 1154.49 4.74318 -1.84119 0
M  V30 12125 H 1153.88 5.51851 1.24406 0
M  V30 12126 H 1152.44 6.43189 1.05599 0
M  V30 12127 N 1155.87 0.935264 1.26849 0
M  V30 12128 C 1157.12 0.575467 1.93317 0
M  V30 12129 C 1157.44 -0.88876 1.74242 0
M  V30 12130 O 1158.64 -1.35767 2.35116 0
M  V30 12131 C 1157.1 0.978433 3.46345 0
M  V30 12132 C 1156.71 2.46386 3.74163 0
M  V30 12133 C 1158.45 0.690249 4.18851 0
M  V30 12134 C 1156.36 2.80584 5.20602 0
M  V30 12135 H 1155.29 0.211506 0.723727 0
M  V30 12136 H 1157.94 1.1371 1.44022 0
M  V30 12137 H 1156.32 0.345379 3.94491 0
M  V30 12138 H 1157.49 3.14547 3.36745 0
M  V30 12139 H 1155.81 2.72473 3.14877 0
M  V30 12140 H 1158.41 0.922151 5.26688 0
M  V30 12141 H 1158.75 -0.372805 4.14627 0
M  V30 12142 H 1159.28 1.28275 3.76551 0
M  V30 12143 H 1156.02 3.85828 5.29921 0
M  V30 12144 H 1155.54 2.1708 5.59139 0
M  V30 12145 H 1157.22 2.68732 5.88551 0
M  V30 12146 N 1157.35 -1.41121 0.701616 0
M  V30 12147 C 1158.63 -1.9492 0.162911 0
M  V30 12148 C 1159.01 -1.64064 -1.32839 0
M  V30 12149 O 1158.36 -0.950848 -2.07777 0
M  V30 12150 C 1158.57 -3.45946 0.460673 0
M  V30 12151 C 1159.92 -4.22789 0.391706 0
M  V30 12152 O 1160.94 -3.53993 0.395931 0
M  V30 12153 O 1159.8 -5.45332 0.357071 0
M  V30 12154 H 1156.89 -0.826793 0.0185103 0
M  V30 12155 H 1159.44 -1.50805 0.778192 0
M  V30 12156 H 1158.21 -3.61711 1.49269 0
M  V30 12157 H 1157.83 -3.97168 -0.185277 0
M  V30 12158 N 1158.83 -0.446794 -1.51134 0
M  V30 12159 C 1160.08 0.116493 -2.02165 0
M  V30 12160 C 1160.41 1.41884 -1.33039 0
M  V30 12161 O 1159.66 1.90757 -0.437071 0
M  V30 12162 C 1159.96 0.373015 -3.55448 0
M  V30 12163 C 1159.63 -0.844659 -4.42918 0
M  V30 12164 C 1158.29 -1.17857 -4.66544 0
M  V30 12165 C 1160.64 -1.65653 -4.94174 0
M  V30 12166 C 1157.97 -2.32486 -5.38672 0
M  V30 12167 C 1160.32 -2.7939 -5.6756 0
M  V30 12168 C 1158.98 -3.13224 -5.89446 0
M  V30 12169 H 1158.25 0.0426279 -0.739773 0
M  V30 12170 H 1160.9 -0.595921 -1.81992 0
M  V30 12171 H 1159.21 1.16742 -3.74003 0
M  V30 12172 H 1160.9 0.822425 -3.92476 0
M  V30 12173 H 1157.49 -0.574478 -4.24733 0
M  V30 12174 H 1161.68 -1.41176 -4.75797 0
M  V30 12175 H 1156.93 -2.59003 -5.5383 0
M  V30 12176 H 1161.11 -3.42662 -6.06264 0
M  V30 12177 H 1158.73 -4.02158 -6.45115 0
M  V30 12178 N 1160.31 1.56586 -0.178487 0
M  V30 12179 C 1161.72 1.83633 0.337009 0
M  V30 12180 C 1162.07 1.09857 1.6256 0
M  V30 12181 O 1161.2 0.353933 2.13486 0
M  V30 12182 C 1161.79 3.33112 0.618225 0
M  V30 12183 C 1160.35 3.60629 1.07814 0
M  V30 12184 C 1159.5 2.7705 0.117825 0
M  V30 12185 H 1162.45 1.53508 -0.402612 0
M  V30 12186 H 1162.47 3.5098 1.46947 0
M  V30 12187 H 1161.98 3.8678 -0.319808 0
M  V30 12188 H 1160.08 3.12378 2.03103 0
M  V30 12189 H 1160.19 4.68921 0.982339 0
M  V30 12190 H 1158.56 2.47125 0.616563 0
M  V30 12191 H 1159.34 3.33501 -0.814356 0
M  V30 12192 N 1161.79 -0.095206 1.57312 0
M  V30 12193 C 1163.01 -0.81227 1.90289 0
M  V30 12194 C 1163.43 -1.72287 0.772178 0
M  V30 12195 O 1162.79 -1.80698 -0.255841 0
M  V30 12196 C 1162.84 -1.62572 3.22882 0
M  V30 12197 O 1162.56 -0.75175 4.31602 0
M  V30 12198 C 1164.06 -2.44585 3.6972 0
M  V30 12199 H 1161.28 -0.232256 0.629522 0
M  V30 12200 H 1163.82 -0.0724733 2.04372 0
M  V30 12201 H 1161.98 -2.31803 3.10397 0
M  V30 12202 H 1162.39 -1.31514 5.07744 0
M  V30 12203 H 1163.87 -2.97155 4.65191 0
M  V30 12204 H 1164.34 -3.23044 2.97555 0
M  V30 12205 H 1164.95 -1.80554 3.85072 0
M  V30 12206 N 1163.26 -1.53291 -0.366026 0
M  V30 12207 C 1164.49 -1.73665 -1.13381 0
M  V30 12208 C 1164.91 -0.464284 -1.8228 0
M  V30 12209 O 1164.27 0.581645 -1.71717 0
M  V30 12210 C 1164.32 -2.90225 -2.14013 0
M  V30 12211 O 1163.42 -2.58803 -3.21084 0
M  V30 12212 H 1162.77 -0.576762 -0.329 0
M  V30 12213 H 1165.3 -2.00174 -0.423287 0
M  V30 12214 H 1165.31 -3.16378 -2.57622 0
M  V30 12215 H 1163.98 -3.82518 -1.63257 0
M  V30 12216 H 1162.56 -2.43466 -2.82451 0
M  V30 12217 N 1164.74 0.6258 -1.44643 0
M  V30 12218 C 1165.71 1.71941 -1.51555 0
M  V30 12219 C 1166.71 1.55822 -0.396988 0
M  V30 12220 O 1167.9 1.61221 -0.65981 0
M  V30 12221 C 1165.03 3.11068 -1.39461 0
M  V30 12222 H 1166.22 1.67185 -2.48976 0
M  V30 12223 H 1163.77 0.839934 -1.31814 0
M  V30 12224 H 1164.51 3.21416 -0.431534 0
M  V30 12225 H 1164.29 3.24175 -2.20574 0
M  V30 12226 H 1165.78 3.90762 -1.4729 0
M  V30 12227 N 1166.22 1.31629 0.866686 0
M  V30 12228 C 1167.47 1.21503 1.61998 0
M  V30 12229 C 1167.8 -0.226044 1.93182 0
M  V30 12230 O 1167.05 -1.17573 1.56445 0
M  V30 12231 C 1167.35 2.00775 2.95676 0
M  V30 12232 C 1167.02 3.50245 2.83971 0
M  V30 12233 C 1165.68 3.91 2.80485 0
M  V30 12234 C 1168.03 4.45347 2.70769 0
M  V30 12235 C 1165.36 5.25119 2.61661 0
M  V30 12236 C 1167.71 5.79595 2.53481 0
M  V30 12237 C 1166.37 6.19567 2.48381 0
M  V30 12238 H 1165.64 0.44461 0.592792 0
M  V30 12239 H 1168.29 1.62929 1.00629 0
M  V30 12240 H 1166.6 1.52039 3.61097 0
M  V30 12241 H 1168.29 1.90318 3.52959 0
M  V30 12242 H 1164.88 3.17869 2.87502 0
M  V30 12243 H 1169.07 4.14789 2.72514 0
M  V30 12244 H 1164.32 5.5516 2.5614 0
M  V30 12245 H 1168.5 6.5291 2.42243 0
M  V30 12246 H 1166.12 7.23434 2.33554 0
M  V30 12247 N 1167.7 -1.08142 1.14644 0
M  V30 12248 C 1168.98 -1.77254 0.827071 0
M  V30 12249 C 1169.36 -1.99885 -0.67891 0
M  V30 12250 O 1168.7 -1.61084 -1.62062 0
M  V30 12251 C 1168.91 -3.08658 1.62884 0
M  V30 12252 C 1170.26 -3.83143 1.82993 0
M  V30 12253 O 1171.29 -3.18447 1.59593 0
M  V30 12254 O 1170.15 -4.9932 2.2213 0
M  V30 12255 H 1167.24 -0.769356 0.30335 0
M  V30 12256 H 1169.79 -1.1458 1.25178 0
M  V30 12257 H 1168.56 -2.87753 2.65168 0
M  V30 12258 H 1168.18 -3.79061 1.19994 0
M  V30 12259 N 1169.18 -0.941978 -1.26351 0
M  V30 12260 C 1170.43 -0.585711 -1.93009 0
M  V30 12261 C 1170.74 0.879507 -1.74711 0
M  V30 12262 O 1171.95 1.34518 -2.35833 0
M  V30 12263 C 1170.4 -0.996787 -3.45821 0
M  V30 12264 C 1170.01 -2.48367 -3.72851 0
M  V30 12265 C 1171.75 -0.712452 -4.18479 0
M  V30 12266 C 1169.66 -2.83341 -5.19107 0
M  V30 12267 H 1168.59 -0.215342 -0.722595 0
M  V30 12268 H 1171.24 -1.14472 -1.43417 0
M  V30 12269 H 1169.62 -0.366295 -3.94302 0
M  V30 12270 H 1170.8 -3.16328 -3.35072 0
M  V30 12271 H 1169.11 -2.74139 -3.13427 0
M  V30 12272 H 1171.71 -0.95007 -5.26192 0
M  V30 12273 H 1172.05 0.350811 -4.14819 0
M  V30 12274 H 1172.59 -1.3027 -3.75865 0
M  V30 12275 H 1169.32 -3.88633 -5.27868 0
M  V30 12276 H 1168.84 -2.20043 -5.5798 0
M  V30 12277 H 1170.52 -2.71849 -5.87118 0
M  V30 12278 N 1170.66 1.40747 -0.709091 0
M  V30 12279 C 1171.6 2.30741 -0.0523584 0
M  V30 12280 C 1172.57 1.4784 0.757145 0
M  V30 12281 O 1173.76 1.76595 0.72242 0
M  V30 12282 C 1170.9 3.34 0.868203 0
M  V30 12283 C 1170.01 4.31972 0.0488686 0
M  V30 12284 C 1169.15 5.223 0.968311 0
M  V30 12285 C 1168.18 6.11934 0.142682 0
M  V30 12286 N 1167.32 6.947 1.01665 0
M  V30 12287 H 1172.16 2.86338 -0.825509 0
M  V30 12288 H 1169.7 1.41013 -0.418785 0
M  V30 12289 H 1171.66 3.92431 1.41611 0
M  V30 12290 H 1170.29 2.79921 1.6076 0
M  V30 12291 H 1169.34 3.75377 -0.616137 0
M  V30 12292 H 1170.65 4.95291 -0.590625 0
M  V30 12293 H 1169.8 5.85631 1.58498 0
M  V30 12294 H 1168.54 4.5924 1.64164 0
M  V30 12295 H 1167.55 5.47639 -0.486965 0
M  V30 12296 H 1168.77 6.77052 -0.527046 0
M  V30 12297 H 1166.72 6.34236 1.67575 0
M  V30 12298 H 1166.64 7.54759 0.433045 0
M  V30 12299 H 1167.9 7.62487 1.6197 0
M  V30 12300 N 1172.13 0.454803 1.50895 0
M  V30 12301 C 1173.38 -0.10577 2.02224 0
M  V30 12302 C 1173.71 -1.41176 1.33789 0
M  V30 12303 O 1172.96 -1.90522 0.447181 0
M  V30 12304 C 1173.26 -0.354159 3.55641 0
M  V30 12305 C 1172.93 0.868136 4.42464 0
M  V30 12306 C 1171.59 1.2033 4.65912 0
M  V30 12307 C 1173.94 1.68272 4.93289 0
M  V30 12308 C 1171.27 2.3534 5.37431 0
M  V30 12309 C 1173.62 2.82396 5.6607 0
M  V30 12310 C 1172.29 3.16346 5.87777 0
M  V30 12311 H 1171.56 -0.0387041 0.739989 0
M  V30 12312 H 1174.2 0.605564 1.81673 0
M  V30 12313 H 1172.51 -1.14757 3.74617 0
M  V30 12314 H 1174.21 -0.8016 3.92906 0
M  V30 12315 H 1170.8 0.596995 4.24422 0
M  V30 12316 H 1174.98 1.43698 4.75042 0
M  V30 12317 H 1170.24 2.61936 5.52449 0
M  V30 12318 H 1174.41 3.45873 6.04438 0
M  V30 12319 H 1172.04 4.05574 6.42973 0
M  V30 12320 N 1173.61 -1.56489 0.186789 0
M  V30 12321 C 1174.84 -2.01722 -0.459993 0
M  V30 12322 C 1175.25 -1.06697 -1.5576 0
M  V30 12323 O 1174.61 -0.0704212 -1.82364 0
M  V30 12324 C 1174.66 -3.46693 -1.02401 0
M  V30 12325 O 1174.38 -4.3809 0.0297916 0
M  V30 12326 C 1175.88 -4.07403 -1.7475 0
M  V30 12327 H 1173.1 -0.660845 -0.116298 0
M  V30 12328 H 1175.65 -2.02389 0.293059 0
M  V30 12329 H 1173.8 -3.46752 -1.72749 0
M  V30 12330 H 1174.22 -5.23057 -0.388821 0
M  V30 12331 H 1175.69 -5.10718 -2.09455 0
M  V30 12332 H 1176.17 -3.50383 -2.64818 0
M  V30 12333 H 1176.77 -4.11093 -1.09007 0
M  V30 12334 N 1175.09 0.086862 -1.5736 0
M  V30 12335 C 1176.31 0.806017 -1.91097 0
M  V30 12336 C 1176.74 1.71082 -0.78183 0
M  V30 12337 O 1176.1 1.79335 0.266175 0
M  V30 12338 C 1176.15 1.5884 -3.23732 0
M  V30 12339 O 1175.25 2.69798 -3.11902 0
M  V30 12340 H 1174.59 0.220899 -0.626179 0
M  V30 12341 H 1177.12 0.059619 -2.04513 0
M  V30 12342 H 1177.13 1.97088 -3.5724 0
M  V30 12343 H 1175.81 0.924426 -4.05496 0
M  V30 12344 H 1174.38 2.34519 -2.89923 0
M  V30 12345 N 1176.57 1.53483 0.357892 0
M  V30 12346 C 1177.98 1.61641 0.934289 0
M  V30 12347 C 1178.33 0.488655 1.90017 0
M  V30 12348 O 1177.45 -0.38378 2.1297 0
M  V30 12349 C 1178.05 2.92987 1.7013 0
M  V30 12350 C 1176.61 3.03456 2.22692 0
M  V30 12351 C 1175.76 2.56992 1.04165 0
M  V30 12352 H 1178.71 1.58112 0.136452 0
M  V30 12353 H 1178.73 2.81221 2.5631 0
M  V30 12354 H 1178.24 3.75047 0.998056 0
M  V30 12355 H 1176.34 2.25999 2.96235 0
M  V30 12356 H 1176.45 4.08673 2.50046 0
M  V30 12357 H 1174.82 2.12052 1.41088 0
M  V30 12358 H 1175.6 3.41477 0.353272 0
M  V30 12359 N 1178.05 -0.61812 1.44973 0
M  V30 12360 C 1179.46 -1.19994 1.43033 0
M  V30 12361 C 1179.81 -1.95607 0.152422 0
M  V30 12362 O 1178.93 -2.03114 -0.746571 0
M  V30 12363 C 1179.53 -2.18269 2.59122 0
M  V30 12364 C 1178.09 -2.7185 2.60336 0
M  V30 12365 C 1177.23 -1.4707 2.35086 0
M  V30 12366 H 1180.18 -0.408034 1.53365 0
M  V30 12367 H 1180.21 -3.01113 2.32619 0
M  V30 12368 H 1179.72 -1.63208 3.52115 0
M  V30 12369 H 1177.82 -3.30878 1.7132 0
M  V30 12370 H 1177.93 -3.17001 3.59231 0
M  V30 12371 H 1176.3 -1.75658 1.84435 0
M  V30 12372 H 1177.08 -0.938928 3.30211 0
M  V30 12373 N 1179.52 -1.32087 -0.859693 0
M  V30 12374 C 1180.77 -1.22119 -1.61033 0
M  V30 12375 C 1181.09 0.218289 -1.93774 0
M  V30 12376 O 1180.36 1.14172 -1.5919 0
M  V30 12377 H 1178.94 -0.448989 -0.597008 0
M  V30 12378 H 1181.6 -1.65545 -1.02863 0
M  V30 12379 H 1180.7 -1.80023 -2.54947 0
M  V30 12380 N 1181 1.07532 -1.15215 0
M  V30 12381 C 1182.28 1.76813 -0.83646 0
M  V30 12382 C 1182.66 2.00242 0.6683 0
M  V30 12383 O 1182.01 1.61941 1.61206 0
M  V30 12384 C 1182.22 3.0779 -1.64519 0
M  V30 12385 C 1183.56 3.82168 -1.85022 0
M  V30 12386 O 1184.59 3.17596 -1.61279 0
M  V30 12387 O 1183.45 4.98135 -2.24775 0
M  V30 12388 H 1180.54 0.767736 -0.307426 0
M  V30 12389 H 1183.09 1.13914 -1.25784 0
M  V30 12390 H 1181.86 2.86342 -2.6669 0
M  V30 12391 H 1181.48 3.78419 -1.22002 0
M  V30 12392 N 1182.48 0.948665 1.2585 0
M  V30 12393 C 1183.43 0.462904 2.2611 0
M  V30 12394 C 1184.4 -0.481433 1.5897 0
M  V30 12395 O 1185.58 -0.395997 1.86645 0
M  V30 12396 C 1182.72 -0.258808 3.44128 0
M  V30 12397 C 1181.84 0.722072 4.25923 0
M  V30 12398 C 1180.97 -0.0215958 5.31196 0
M  V30 12399 C 1180.01 0.950612 6.04673 0
M  V30 12400 N 1179.15 0.238209 7.01696 0
M  V30 12401 H 1183.99 1.32279 2.67032 0
M  V30 12402 H 1181.52 0.663485 1.31287 0
M  V30 12403 H 1183.48 -0.693759 4.11391 0
M  V30 12404 H 1182.11 -1.08278 3.04098 0
M  V30 12405 H 1181.16 1.27552 3.58378 0
M  V30 12406 H 1182.48 1.46421 4.76825 0
M  V30 12407 H 1181.63 -0.51547 6.04506 0
M  V30 12408 H 1180.37 -0.796563 4.81151 0
M  V30 12409 H 1179.37 1.45554 5.30183 0
M  V30 12410 H 1180.6 1.72571 6.56808 0
M  V30 12411 H 1178.54 -0.518129 6.53951 0
M  V30 12412 H 1178.46 0.919542 7.50387 0
M  V30 12413 H 1179.73 -0.234325 7.79148 0
M  V30 12414 N 1183.96 -1.40369 0.716545 0
M  V30 12415 C 1185.21 -2.00869 0.256466 0
M  V30 12416 C 1185.53 -1.56816 -1.15061 0
M  V30 12417 O 1184.79 -0.779696 -1.79497 0
M  V30 12418 C 1185.09 -3.56257 0.285583 0
M  V30 12419 C 1184.75 -4.19897 1.64309 0
M  V30 12420 C 1183.42 -4.36994 2.01469 0
M  V30 12421 C 1185.77 -4.55385 2.53524 0
M  V30 12422 C 1183.1 -4.86862 3.27387 0
M  V30 12423 C 1185.45 -5.06653 3.78795 0
M  V30 12424 C 1184.11 -5.21959 4.16071 0
M  V30 12425 H 1183.38 -0.735033 0.0938475 0
M  V30 12426 H 1186.03 -1.67966 0.919765 0
M  V30 12427 H 1184.33 -3.89075 -0.461287 0
M  V30 12428 H 1186.03 -4.00903 -0.0882496 0
M  V30 12429 H 1182.62 -4.06978 1.34413 0
M  V30 12430 H 1186.8 -4.41811 2.2609 0
M  V30 12431 H 1182.06 -4.96897 3.56235 0
M  V30 12432 H 1186.23 -5.33089 4.48095 0
M  V30 12433 H 1183.86 -5.60362 5.1371 0
M  V30 12434 N 1185.44 -0.462799 -1.50652 0
M  V30 12435 C 1186.66 0.0952726 -2.07181 0
M  V30 12436 C 1187.09 1.33479 -1.32533 0
M  V30 12437 O 1186.44 1.77473 -0.370564 0
M  V30 12438 C 1186.49 0.370592 -3.58691 0
M  V30 12439 O 1185.6 1.4526 -3.85971 0
M  V30 12440 H 1184.94 -0.00932702 -0.663934 0
M  V30 12441 H 1187.47 -0.651458 -1.93951 0
M  V30 12442 H 1187.48 0.613551 -4.0336 0
M  V30 12443 H 1186.15 -0.535219 -4.12442 0
M  V30 12444 H 1184.73 1.1976 -3.53146 0
M  V30 12445 N 1186.91 1.56388 -0.195085 0
M  V30 12446 C 1188.33 1.8398 0.317513 0
M  V30 12447 C 1188.68 1.11575 1.61386 0
M  V30 12448 O 1187.8 0.376557 2.13099 0
M  V30 12449 C 1188.4 3.33749 0.582859 0
M  V30 12450 C 1186.96 3.61752 1.03983 0
M  V30 12451 C 1186.1 2.77159 0.088434 0
M  V30 12452 H 1189.05 1.53072 -0.418871 0
M  V30 12453 H 1189.07 3.52519 1.43216 0
M  V30 12454 H 1188.59 3.86419 -0.360813 0
M  V30 12455 H 1186.69 3.14515 1.99778 0
M  V30 12456 H 1186.8 4.69937 0.932549 0
M  V30 12457 H 1185.16 2.47765 0.590317 0
M  V30 12458 H 1185.95 3.32619 -0.849682 0
M  V30 12459 N 1188.39 -0.0785156 1.57404 0
M  V30 12460 C 1189.81 -0.433143 1.5361 0
M  V30 12461 C 1190.01 -1.79564 0.914283 0
M  V30 12462 O 1189.06 -2.47215 0.513899 0
M  V30 12463 C 1190.38 -0.380387 2.98284 0
M  V30 12464 C 1191.93 -0.461056 3.09586 0
M  V30 12465 C 1192.4 -0.438276 4.55898 0
M  V30 12466 N 1193.89 -0.498548 4.60509 0
M  V30 12467 C 1194.63 -0.503028 5.71189 0
M  V30 12468 N 1194.12 -0.462724 6.91253 0
M  V30 12469 N 1195.92 -0.549083 5.59412 0
M  V30 12470 H 1188.07 0.813724 1.96195 0
M  V30 12471 H 1190.33 0.304644 0.897717 0
M  V30 12472 H 1190.04 0.553932 3.4731 0
M  V30 12473 H 1189.91 -1.19313 3.57833 0
M  V30 12474 H 1192.3 -1.3858 2.60537 0
M  V30 12475 H 1192.38 0.380138 2.5296 0
M  V30 12476 H 1192.02 0.482588 5.05602 0
M  V30 12477 H 1191.95 -1.29691 5.1038 0
M  V30 12478 H 1194.44 -0.534219 3.74105 0
M  V30 12479 H 1194.76 -0.469883 7.7137 0
M  V30 12480 H 1193.1 -0.429515 6.93672 0
M  V30 12481 H 1196.29 -0.578215 4.64515 0
M  V30 12482 H 1196.46 -0.549105 6.45669 0
M  V30 12483 N 1189.87 -1.5367 -0.349747 0
M  V30 12484 C 1191.1 -1.74294 -1.10928 0
M  V30 12485 C 1191.51 -0.479102 -1.83033 0
M  V30 12486 O 1190.85 0.558621 -1.75 0
M  V30 12487 C 1190.91 -2.86457 -2.17216 0
M  V30 12488 C 1190.58 -4.26274 -1.6474 0
M  V30 12489 C 1191.57 -5.08065 -1.10302 0
M  V30 12490 C 1189.26 -4.72739 -1.69774 0
M  V30 12491 C 1191.25 -6.34417 -0.615938 0
M  V30 12492 C 1188.94 -5.99066 -1.20678 0
M  V30 12493 C 1189.94 -6.79737 -0.6668 0
M  V30 12494 O 1189.63 -8.03691 -0.183143 0
M  V30 12495 H 1189.36 -0.586046 -0.336937 0
M  V30 12496 H 1191.91 -2.01274 -0.409645 0
M  V30 12497 H 1190.14 -2.54988 -2.9072 0
M  V30 12498 H 1191.83 -2.95109 -2.78686 0
M  V30 12499 H 1192.6 -4.73333 -1.05739 0
M  V30 12500 H 1188.48 -4.1001 -2.10744 0
M  V30 12501 H 1192.02 -6.97331 -0.193795 0
M  V30 12502 H 1187.92 -6.33293 -1.24939 0
M  V30 12503 H 1188.69 -8.17946 -0.301008 0
M  V30 12504 N 1191.35 0.610423 -1.45298 0
M  V30 12505 C 1192.26 1.74964 -1.56285 0
M  V30 12506 C 1193.27 1.68149 -0.447436 0
M  V30 12507 O 1194.45 1.88556 -0.707725 0
M  V30 12508 C 1191.52 3.11417 -1.52383 0
M  V30 12509 C 1190.58 3.29707 -2.7494 0
M  V30 12510 C 1189.81 4.5965 -2.71215 0
M  V30 12511 O 1190.03 5.41789 -1.78383 0
M  V30 12512 O 1188.97 4.80591 -3.62375 0
M  V30 12513 H 1192.79 1.68646 -2.52571 0
M  V30 12514 H 1190.38 0.774168 -1.27777 0
M  V30 12515 H 1192.26 3.9272 -1.52805 0
M  V30 12516 H 1190.93 3.18232 -0.592472 0
M  V30 12517 H 1189.84 2.48003 -2.80081 0
M  V30 12518 H 1191.17 3.27766 -3.67192 0
M  V30 12519 N 1192.83 1.32541 0.852676 0
M  V30 12520 C 1194.07 1.23214 1.607 0
M  V30 12521 C 1194.4 -0.205542 1.93411 0
M  V30 12522 O 1193.66 -1.15907 1.57683 0
M  V30 12523 C 1193.96 2.039 2.9353 0
M  V30 12524 C 1193.62 3.53237 2.8024 0
M  V30 12525 C 1192.28 3.93953 2.76323 0
M  V30 12526 C 1194.64 4.48194 2.6603 0
M  V30 12527 C 1191.96 5.27865 2.56077 0
M  V30 12528 C 1194.32 5.82251 2.47319 0
M  V30 12529 C 1192.98 6.22166 2.41796 0
M  V30 12530 H 1192.25 0.450873 0.588043 0
M  V30 12531 H 1194.9 1.63988 0.988954 0
M  V30 12532 H 1193.2 1.55861 3.59464 0
M  V30 12533 H 1194.9 1.94051 3.50921 0
M  V30 12534 H 1191.49 3.209 2.84114 0
M  V30 12535 H 1195.67 4.17656 2.681 0
M  V30 12536 H 1190.93 5.57845 2.50237 0
M  V30 12537 H 1195.1 6.55442 2.35305 0
M  V30 12538 H 1192.73 7.2587 2.25868 0
M  V30 12539 N 1194.3 -1.0692 1.15784 0
M  V30 12540 C 1195.55 -1.79245 0.933581 0
M  V30 12541 C 1195.87 -1.87362 -0.540427 0
M  V30 12542 O 1195.14 -1.37769 -1.39271 0
M  V30 12543 H 1193.72 -0.663898 0.342416 0
M  V30 12544 H 1196.39 -1.29189 1.45932 0
M  V30 12545 H 1195.48 -2.81546 1.34679 0
M  V30 12546 N 1195.78 -0.955326 -1.25345 0
M  V30 12547 C 1197.01 -0.627233 -1.97688 0
M  V30 12548 C 1197.43 0.793973 -1.70522 0
M  V30 12549 O 1196.79 1.537 -0.961556 0
M  V30 12550 C 1196.84 -0.892969 -3.49369 0
M  V30 12551 O 1195.94 0.0278871 -4.12391 0
M  V30 12552 H 1195.28 -0.238402 -0.619726 0
M  V30 12553 H 1197.81 -1.28211 -1.59446 0
M  V30 12554 H 1197.82 -0.819517 -3.99685 0
M  V30 12555 H 1196.5 -1.92879 -3.6847 0
M  V30 12556 H 1195.08 -0.0978295 -3.72772 0
M  V30 12557 N 1197.26 1.39987 -0.723979 0
M  V30 12558 C 1198.19 2.3332 -0.0917282 0
M  V30 12559 C 1199.17 1.53335 0.736361 0
M  V30 12560 O 1200.36 1.81771 0.683582 0
M  V30 12561 C 1197.49 3.3737 0.824549 0
M  V30 12562 C 1196.44 4.2788 0.101452 0
M  V30 12563 C 1195.77 5.22536 1.13401 0
M  V30 12564 C 1197.07 5.11649 -1.04939 0
M  V30 12565 H 1198.76 2.86441 -0.871318 0
M  V30 12566 H 1196.31 1.37725 -0.420448 0
M  V30 12567 H 1198.26 4.01607 1.27631 0
M  V30 12568 H 1196.98 2.82663 1.63613 0
M  V30 12569 H 1195.64 3.65107 -0.330569 0
M  V30 12570 H 1195.29 4.64131 1.93886 0
M  V30 12571 H 1194.99 5.83938 0.65502 0
M  V30 12572 H 1196.52 5.89651 1.58569 0
M  V30 12573 H 1197.93 5.69293 -0.6766 0
M  V30 12574 H 1196.33 5.82137 -1.45729 0
M  V30 12575 H 1197.4 4.47132 -1.8762 0
M  V30 12576 N 1198.74 0.470782 1.50404 0
M  V30 12577 C 1200.16 0.124919 1.5911 0
M  V30 12578 C 1200.36 -1.36855 1.47895 0
M  V30 12579 O 1199.41 -2.1418 1.33728 0
M  V30 12580 C 1200.72 0.674839 2.9303 0
M  V30 12581 C 1202.27 0.638239 3.06424 0
M  V30 12582 C 1202.75 1.1657 4.42917 0
M  V30 12583 N 1204.24 1.1251 4.49328 0
M  V30 12584 C 1204.97 1.50373 5.53331 0
M  V30 12585 N 1204.47 1.95684 6.6459 0
M  V30 12586 N 1206.26 1.41978 5.43874 0
M  V30 12587 H 1198.41 1.44212 1.55938 0
M  V30 12588 H 1200.68 0.596354 0.73693 0
M  V30 12589 H 1200.38 1.72106 3.06712 0
M  V30 12590 H 1200.26 0.118234 3.77015 0
M  V30 12591 H 1202.64 -0.399075 2.92389 0
M  V30 12592 H 1202.72 1.23164 2.24197 0
M  V30 12593 H 1202.37 2.20164 4.57701 0
M  V30 12594 H 1202.3 0.548513 5.23736 0
M  V30 12595 H 1204.79 0.79276 3.69491 0
M  V30 12596 H 1205.1 2.22724 7.40009 0
M  V30 12597 H 1203.45 1.99636 6.65711 0
M  V30 12598 H 1206.64 1.0642 4.55842 0
M  V30 12599 H 1206.81 1.71812 6.24808 0
M  V30 12600 N 1200.22 -1.56282 0.203376 0
M  V30 12601 C 1201.13 -2.23086 -0.725922 0
M  V30 12602 C 1202.14 -1.23258 -1.22814 0
M  V30 12603 O 1203.32 -1.5602 -1.27357 0
M  V30 12604 C 1200.38 -2.88358 -1.92485 0
M  V30 12605 C 1199.45 -4.03479 -1.46639 0
M  V30 12606 C 1198.68 -4.65629 -2.60816 0
M  V30 12607 O 1198.9 -4.2672 -3.78506 0
M  V30 12608 O 1197.84 -5.54949 -2.33056 0
M  V30 12609 H 1201.66 -3.03124 -0.18694 0
M  V30 12610 H 1199.25 -1.49377 -0.0262829 0
M  V30 12611 H 1201.13 -3.29623 -2.62539 0
M  V30 12612 H 1199.8 -2.11294 -2.45228 0
M  V30 12613 H 1198.71 -3.66821 -0.734396 0
M  V30 12614 H 1200.04 -4.82232 -0.985535 0
M  V30 12615 N 1201.7 0.070167 -1.57444 0
M  V30 12616 C 1202.61 1.10106 -2.07157 0
M  V30 12617 C 1203.62 1.42293 -1.00143 0
M  V30 12618 O 1204.8 1.52437 -1.31624 0
M  V30 12619 C 1201.86 2.39486 -2.50694 0
M  V30 12620 C 1200.92 2.14255 -3.72012 0
M  V30 12621 C 1200.16 3.37466 -4.13464 0
M  V30 12622 O 1200.38 4.46645 -3.54773 0
M  V30 12623 O 1199.31 3.25583 -5.0624 0
M  V30 12624 H 1203.14 0.70873 -2.95315 0
M  V30 12625 H 1200.72 0.28441 -1.46668 0
M  V30 12626 H 1202.61 3.15625 -2.79212 0
M  V30 12627 H 1201.28 2.78095 -1.65664 0
M  V30 12628 H 1200.19 1.35816 -3.48575 0
M  V30 12629 H 1201.52 1.80525 -4.57899 0
M  V30 12630 N 1203.17 1.53854 0.341593 0
M  V30 12631 C 1204.45 1.61823 1.09875 0
M  V30 12632 C 1204.83 0.440711 2.06448 0
M  V30 12633 O 1204.18 -0.566833 2.21358 0
M  V30 12634 C 1204.39 2.9799 1.81668 0
M  V30 12635 C 1205.74 3.53411 2.35341 0
M  V30 12636 O 1206.76 3.00177 1.91761 0
M  V30 12637 O 1205.62 4.4653 3.15076 0
M  V30 12638 H 1202.71 0.654599 0.5054 0
M  V30 12639 H 1205.26 1.66199 0.342929 0
M  V30 12640 H 1204.03 3.7513 1.11323 0
M  V30 12641 H 1203.65 2.97213 2.64103 0
M  V30 12642 N 1204.65 -0.602709 1.4562 0
M  V30 12643 C 1205.58 -1.7271 1.50678 0
M  V30 12644 C 1206.6 -1.57884 0.397048 0
M  V30 12645 O 1207.79 -1.65676 0.664367 0
M  V30 12646 C 1204.89 -3.10762 1.35204 0
M  V30 12647 C 1204.06 -3.51782 2.59939 0
M  V30 12648 C 1203.12 -4.68816 2.38952 0
M  V30 12649 O 1202.14 -4.75686 3.12588 0
M  V30 12650 N 1203.35 -5.624 1.43827 0
M  V30 12651 H 1206.11 -1.68833 2.47619 0
M  V30 12652 H 1203.67 -0.788131 1.41422 0
M  V30 12653 H 1205.66 -3.86819 1.18967 0
M  V30 12654 H 1204.23 -3.09119 0.465203 0
M  V30 12655 H 1203.45 -2.65637 2.91257 0
M  V30 12656 H 1204.74 -3.75948 3.42842 0
M  V30 12657 H 1204.14 -5.59568 0.830669 0
M  V30 12658 H 1202.7 -6.37969 1.33561 0
M  V30 12659 N 1206.13 -1.32992 -0.845635 0
M  V30 12660 C 1207.55 -1.12179 -1.13526 0
M  V30 12661 C 1207.75 0.091795 -2.01291 0
M  V30 12662 O 1206.8 0.774051 -2.40343 0
M  V30 12663 C 1208.11 -2.40584 -1.80388 0
M  V30 12664 C 1209.66 -2.46427 -1.92984 0
M  V30 12665 C 1210.14 -3.74776 -2.63261 0
M  V30 12666 N 1211.63 -3.75809 -2.7078 0
M  V30 12667 C 1212.36 -4.71829 -3.2583 0
M  V30 12668 N 1211.86 -5.78219 -3.81621 0
M  V30 12669 N 1213.65 -4.59313 -3.24018 0
M  V30 12670 H 1205.8 -2.10786 -0.261369 0
M  V30 12671 H 1208.07 -0.931053 -0.17845 0
M  V30 12672 H 1207.77 -3.29357 -1.23357 0
M  V30 12673 H 1207.65 -2.52225 -2.80468 0
M  V30 12674 H 1210.03 -1.58108 -2.4917 0
M  V30 12675 H 1210.11 -2.38732 -0.918732 0
M  V30 12676 H 1209.76 -4.63474 -2.07736 0
M  V30 12677 H 1209.69 -3.79746 -3.6483 0
M  V30 12678 H 1212.18 -2.98916 -2.31209 0
M  V30 12679 H 1212.49 -6.47531 -4.2181 0
M  V30 12680 H 1210.84 -5.81962 -3.79927 0
M  V30 12681 H 1214.03 -3.75358 -2.79685 0
M  V30 12682 H 1214.2 -5.34316 -3.6662 0
M  V30 12683 N 1207.61 1.06304 -1.1635 0
M  V30 12684 C 1208.55 2.13776 -0.869965 0
M  V30 12685 C 1209.52 1.65105 0.181541 0
M  V30 12686 O 1210.71 1.90743 0.0467705 0
M  V30 12687 C 1207.85 3.43034 -0.377077 0
M  V30 12688 C 1206.96 4.0544 -1.4914 0
M  V30 12689 C 1206.1 5.22572 -0.953538 0
M  V30 12690 C 1205.14 5.76961 -2.04407 0
M  V30 12691 N 1204.27 6.85409 -1.52181 0
M  V30 12692 H 1209.11 2.38224 -1.79034 0
M  V30 12693 H 1206.65 1.16882 -0.893136 0
M  V30 12694 H 1208.61 4.17136 -0.0729426 0
M  V30 12695 H 1207.24 3.18804 0.506359 0
M  V30 12696 H 1206.29 3.28886 -1.9115 0
M  V30 12697 H 1207.6 4.41859 -2.31434 0
M  V30 12698 H 1206.76 6.037 -0.602579 0
M  V30 12699 H 1205.5 4.87598 -0.099897 0
M  V30 12700 H 1204.5 4.9447 -2.40373 0
M  V30 12701 H 1205.73 6.13987 -2.90167 0
M  V30 12702 H 1203.67 6.52354 -0.690697 0
M  V30 12703 H 1203.59 7.2077 -2.28092 0
M  V30 12704 H 1204.86 7.70217 -1.19942 0
M  V30 12705 N 1209.09 0.96196 1.24836 0
M  V30 12706 C 1210.02 0.506241 2.27946 0
M  V30 12707 C 1211 -0.451183 1.64007 0
M  V30 12708 O 1212.18 -0.348552 1.91046 0
M  V30 12709 C 1209.31 -0.209846 3.46665 0
M  V30 12710 C 1208.27 0.663035 4.22833 0
M  V30 12711 C 1207.59 -0.184216 5.34383 0
M  V30 12712 C 1208.89 1.94479 4.84742 0
M  V30 12713 H 1210.59 1.36805 2.66317 0
M  V30 12714 H 1208.13 0.65926 1.28023 0
M  V30 12715 H 1210.08 -0.539838 4.17928 0
M  V30 12716 H 1208.81 -1.10596 3.07305 0
M  V30 12717 H 1207.47 0.976216 3.53363 0
M  V30 12718 H 1207.12 -1.08031 4.91262 0
M  V30 12719 H 1206.82 0.39657 5.8626 0
M  V30 12720 H 1208.34 -0.509009 6.08475 0
M  V30 12721 H 1209.75 1.68074 5.48109 0
M  V30 12722 H 1208.15 2.47183 5.46828 0
M  V30 12723 H 1209.22 2.64332 4.06517 0
M  V30 12724 N 1210.56 -1.39601 0.731392 0
M  V30 12725 C 1211.51 -2.30628 0.0890606 0
M  V30 12726 C 1212.48 -1.49025 -0.73353 0
M  V30 12727 O 1213.67 -1.77722 -0.694234 0
M  V30 12728 C 1210.81 -3.35339 -0.814956 0
M  V30 12729 C 1209.92 -4.31995 0.0198606 0
M  V30 12730 C 1209.05 -5.23774 -0.885095 0
M  V30 12731 C 1208.09 -6.12083 -0.045311 0
M  V30 12732 N 1207.23 -6.9623 -0.906002 0
M  V30 12733 H 1212.07 -2.84988 0.870958 0
M  V30 12734 H 1209.61 -1.40329 0.441166 0
M  V30 12735 H 1211.56 -3.94634 -1.3535 0
M  V30 12736 H 1210.19 -2.82443 -1.56287 0
M  V30 12737 H 1209.25 -3.74349 0.675778 0
M  V30 12738 H 1210.56 -4.94289 0.669346 0
M  V30 12739 H 1209.71 -5.88078 -1.49161 0
M  V30 12740 H 1208.45 -4.61794 -1.56837 0
M  V30 12741 H 1207.46 -5.46795 0.574028 0
M  V30 12742 H 1208.68 -6.76128 0.634692 0
M  V30 12743 H 1206.63 -6.36821 -1.57463 0
M  V30 12744 H 1206.54 -7.55352 -0.312914 0
M  V30 12745 H 1207.81 -7.64967 -1.49819 0
M  V30 12746 N 1212.04 -0.478751 -1.50152 0
M  V30 12747 C 1213.32 0.135533 -1.9513 0
M  V30 12748 C 1213.7 1.56253 -1.41944 0
M  V30 12749 O 1213.05 2.19824 -0.623673 0
M  V30 12750 C 1213.26 0.0710037 -3.48928 0
M  V30 12751 C 1214.61 0.256075 -4.23827 0
M  V30 12752 O 1215.63 0.147234 -3.55896 0
M  V30 12753 O 1214.49 0.476741 -5.44417 0
M  V30 12754 H 1211.58 0.107491 -0.819985 0
M  V30 12755 H 1214.13 -0.539701 -1.60889 0
M  V30 12756 H 1212.9 -0.925012 -3.80209 0
M  V30 12757 H 1212.52 0.787362 -3.89726 0
M  V30 12758 N 1213.52 1.56172 -0.211661 0
M  V30 12759 C 1214.77 1.97214 0.423008 0
M  V30 12760 C 1215.08 1.10203 1.616 0
M  V30 12761 O 1216.29 1.411 2.31955 0
M  V30 12762 C 1214.74 3.50805 0.803977 0
M  V30 12763 C 1214.35 4.46505 -0.365654 0
M  V30 12764 C 1216.1 4.00582 1.4048 0
M  V30 12765 C 1214 5.91388 0.0371986 0
M  V30 12766 H 1212.93 0.736432 0.161814 0
M  V30 12767 H 1215.58 1.80925 -0.306307 0
M  V30 12768 H 1213.97 3.62659 1.59043 0
M  V30 12769 H 1215.14 4.46394 -1.14321 0
M  V30 12770 H 1213.46 4.07015 -0.879061 0
M  V30 12771 H 1216.05 5.06317 1.71894 0
M  V30 12772 H 1216.4 3.45853 2.31713 0
M  V30 12773 H 1216.93 3.9191 0.681984 0
M  V30 12774 H 1213.67 6.50078 -0.841367 0
M  V30 12775 H 1213.19 5.94716 0.77927 0
M  V30 12776 H 1214.87 6.4531 0.467309 0
M  V30 12777 N 1215 -0.0618163 1.57479 0
M  V30 12778 C 1215.93 -1.10452 1.99689 0
M  V30 12779 C 1216.91 -1.37019 0.875473 0
M  V30 12780 O 1218.09 -1.50226 1.13862 0
M  V30 12781 C 1215.22 -2.44669 2.34211 0
M  V30 12782 C 1214.27 -2.34172 3.56463 0
M  V30 12783 S 1215.1 -1.7263 5.06911 0
M  V30 12784 C 1216.26 -3.08405 5.44644 0
M  V30 12785 H 1216.49 -0.744843 2.87818 0
M  V30 12786 H 1214.02 -0.270698 1.52008 0
M  V30 12787 H 1215.98 -3.2187 2.54774 0
M  V30 12788 H 1214.64 -2.77794 1.46592 0
M  V30 12789 H 1213.83 -3.33175 3.78167 0
M  V30 12790 H 1213.44 -1.65109 3.35582 0
M  V30 12791 H 1215.73 -4.04727 5.43325 0
M  V30 12792 H 1216.67 -2.9147 6.4533 0
M  V30 12793 H 1217.08 -3.0947 4.72111 0
M  V30 12794 N 1216.48 -1.54033 -0.333429 0
M  V30 12795 C 1217.41 -1.79056 -1.43079 0
M  V30 12796 C 1218.42 -0.672176 -1.48276 0
M  V30 12797 O 1219.61 -0.949103 -1.51176 0
M  V30 12798 C 1216.71 -1.88443 -2.81678 0
M  V30 12799 C 1215.88 -3.18493 -2.99802 0
M  V30 12800 C 1214.94 -3.18708 -4.18702 0
M  V30 12801 O 1213.97 -3.92389 -4.12334 0
M  V30 12802 N 1215.17 -2.41792 -5.27747 0
M  V30 12803 H 1217.94 -2.73753 -1.21981 0
M  V30 12804 H 1215.5 -1.53207 -0.523365 0
M  V30 12805 H 1217.49 -1.86027 -3.59411 0
M  V30 12806 H 1216.06 -1.00887 -2.95872 0
M  V30 12807 H 1215.28 -3.33951 -2.09453 0
M  V30 12808 H 1216.57 -4.04376 -3.088 0
M  V30 12809 H 1215.96 -1.81501 -5.35793 0
M  V30 12810 H 1214.52 -2.45163 -6.03936 0
M  V30 12811 N 1217.95 0.594978 -1.45938 0
M  V30 12812 C 1218.9 1.70489 -1.5557 0
M  V30 12813 C 1219.87 1.61193 -0.400751 0
M  V30 12814 O 1221.06 1.80587 -0.615882 0
M  V30 12815 C 1218.2 3.08817 -1.54033 0
M  V30 12816 C 1217.31 3.28827 -2.80173 0
M  V30 12817 C 1216.44 4.57333 -2.70222 0
M  V30 12818 C 1215.48 4.70644 -3.91357 0
M  V30 12819 N 1214.62 5.90463 -3.79865 0
M  V30 12820 H 1219.46 1.61593 -2.50383 0
M  V30 12821 H 1217 0.787747 -1.24229 0
M  V30 12822 H 1218.96 3.88865 -1.51129 0
M  V30 12823 H 1217.59 3.1664 -0.627617 0
M  V30 12824 H 1216.64 2.42467 -2.9311 0
M  V30 12825 H 1217.95 3.34534 -3.69985 0
M  V30 12826 H 1217.1 5.45593 -2.65354 0
M  V30 12827 H 1215.84 4.54045 -1.7803 0
M  V30 12828 H 1214.85 3.80805 -3.9657 0
M  V30 12829 H 1216.07 4.75721 -4.8463 0
M  V30 12830 H 1214.02 5.88196 -2.90451 0
M  V30 12831 H 1213.94 5.97385 -4.63322 0
M  V30 12832 H 1215.2 6.81187 -3.78952 0
M  V30 12833 N 1219.43 1.33438 0.838571 0
M  V30 12834 C 1220.34 1.25753 1.98049 0
M  V30 12835 C 1221.36 0.168051 1.73187 0
M  V30 12836 O 1222.53 0.391691 1.97554 0
M  V30 12837 C 1219.6 0.997148 3.32051 0
M  V30 12838 C 1218.66 2.17667 3.70027 0
M  V30 12839 C 1217.89 1.92861 4.97635 0
M  V30 12840 O 1218.12 0.879072 5.63585 0
M  V30 12841 O 1217.05 2.79402 5.33121 0
M  V30 12842 H 1220.88 2.21786 2.07472 0
M  V30 12843 H 1218.46 1.13488 0.971645 0
M  V30 12844 H 1220.34 0.869099 4.1234 0
M  V30 12845 H 1219.02 0.0671036 3.2363 0
M  V30 12846 H 1217.93 2.36025 2.90246 0
M  V30 12847 H 1219.26 3.09006 3.83114 0
M  V30 12848 N 1220.91 -1.05686 1.16912 0
M  V30 12849 C 1222.14 -1.82821 0.979348 0
M  V30 12850 C 1222.56 -1.82196 -0.467575 0
M  V30 12851 O 1221.92 -1.22727 -1.33445 0
M  V30 12852 C 1221.97 -3.2705 1.51891 0
M  V30 12853 O 1221.07 -4.05899 0.729341 0
M  V30 12854 H 1220.41 -0.565455 0.348076 0
M  V30 12855 H 1222.94 -1.33211 1.55293 0
M  V30 12856 H 1222.95 -3.77859 1.53904 0
M  V30 12857 H 1221.63 -3.26819 2.5722 0
M  V30 12858 H 1220.2 -3.64646 0.780221 0
M  V30 12859 N 1222.39 -0.968567 -1.24324 0
M  V30 12860 C 1223.32 -0.518323 -2.27674 0
M  V30 12861 C 1224.3 0.442479 -1.64244 0
M  V30 12862 O 1225.48 0.338416 -1.91229 0
M  V30 12863 C 1222.61 0.191459 -3.46772 0
M  V30 12864 C 1221.57 -0.685449 -4.22476 0
M  V30 12865 C 1220.89 0.155873 -5.34473 0
M  V30 12866 C 1222.19 -1.97047 -4.83704 0
M  V30 12867 H 1223.89 -1.38215 -2.65588 0
M  V30 12868 H 1221.43 -0.66604 -1.27671 0
M  V30 12869 H 1223.39 0.517667 -4.18208 0
M  V30 12870 H 1222.11 1.08965 -3.07887 0
M  V30 12871 H 1220.77 -0.994942 -3.52841 0
M  V30 12872 H 1220.42 1.05424 -4.91828 0
M  V30 12873 H 1220.12 -0.427655 -5.86042 0
M  V30 12874 H 1221.64 0.476733 -6.08736 0
M  V30 12875 H 1223.06 -1.70979 -5.4721 0
M  V30 12876 H 1221.45 -2.50079 -5.45509 0
M  V30 12877 H 1222.52 -2.66484 -4.0511 0
M  V30 12878 N 1223.87 1.39211 -0.738786 0
M  V30 12879 C 1225.1 2.04435 -0.298318 0
M  V30 12880 C 1225.5 1.55822 1.07314 0
M  V30 12881 O 1224.85 0.719922 1.69005 0
M  V30 12882 C 1224.91 3.58789 -0.225979 0
M  V30 12883 C 1224.57 4.30395 -1.53653 0
M  V30 12884 C 1225.57 4.56777 -2.48295 0
M  V30 12885 C 1223.26 4.68869 -1.80187 0
M  V30 12886 C 1225.25 5.20648 -3.67702 0
M  V30 12887 C 1222.94 5.32467 -2.99871 0
M  V30 12888 C 1223.93 5.58289 -3.93449 0
M  V30 12889 O 1223.62 6.20567 -5.1103 0
M  V30 12890 H 1223.35 0.663848 -0.127603 0
M  V30 12891 H 1225.91 1.79171 -1.00433 0
M  V30 12892 H 1224.14 3.82965 0.536164 0
M  V30 12893 H 1225.83 4.05487 0.182996 0
M  V30 12894 H 1226.59 4.27497 -2.29066 0
M  V30 12895 H 1222.47 4.48124 -1.08193 0
M  V30 12896 H 1226.02 5.4072 -4.40759 0
M  V30 12897 H 1221.91 5.61169 -3.18998 0
M  V30 12898 H 1222.68 6.39059 -5.11415 0
M  V30 12899 N 1225.34 0.486708 1.49896 0
M  V30 12900 C 1226.59 -0.0549988 2.03326 0
M  V30 12901 C 1226.95 -1.35999 1.36096 0
M  V30 12902 O 1226.24 -1.85416 0.482845 0
M  V30 12903 C 1226.43 -0.278643 3.56312 0
M  V30 12904 C 1226.26 1.00312 4.38369 0
M  V30 12905 C 1225.03 1.55088 4.80912 0
M  V30 12906 C 1227.23 1.90266 4.77811 0
M  V30 12907 N 1225.21 2.78003 5.47346 0
M  V30 12908 C 1226.58 2.97764 5.43816 0
M  V30 12909 C 1228.64 1.91117 4.5976 0
M  V30 12910 C 1227.34 4.06122 5.93681 0
M  V30 12911 C 1229.37 2.9844 5.10576 0
M  V30 12912 C 1228.73 4.04657 5.76569 0
M  V30 12913 H 1224.83 0.0202961 0.781737 0
M  V30 12914 H 1227.41 0.65839 1.8323 0
M  V30 12915 H 1225.58 -0.961079 3.76321 0
M  V30 12916 H 1227.31 -0.816081 3.96386 0
M  V30 12917 H 1224.07 1.09794 4.60698 0
M  V30 12918 H 1224.49 3.40467 5.85159 0
M  V30 12919 H 1229.14 1.1031 4.08156 0
M  V30 12920 H 1226.85 4.87736 6.44313 0
M  V30 12921 H 1230.44 3.001 4.98429 0
M  V30 12922 H 1229.32 4.86336 6.15181 0
M  V30 12923 N 1226.82 -1.56058 0.219941 0
M  V30 12924 C 1227.75 -2.2321 -0.685547 0
M  V30 12925 C 1228.73 -1.20328 -1.20229 0
M  V30 12926 O 1229.92 -1.48909 -1.24659 0
M  V30 12927 C 1227.05 -2.91076 -1.89452 0
M  V30 12928 C 1226 -4.00415 -1.51169 0
M  V30 12929 C 1225.33 -4.55569 -2.79931 0
M  V30 12930 C 1226.63 -5.17549 -0.702896 0
M  V30 12931 H 1228.32 -2.99136 -0.125671 0
M  V30 12932 H 1225.87 -1.43879 -0.0590043 0
M  V30 12933 H 1227.82 -3.36744 -2.53341 0
M  V30 12934 H 1226.55 -2.12594 -2.47934 0
M  V30 12935 H 1225.21 -3.55475 -0.896275 0
M  V30 12936 H 1224.85 -3.73819 -3.36553 0
M  V30 12937 H 1224.55 -5.29361 -2.55049 0
M  V30 12938 H 1226.08 -5.03955 -3.44764 0
M  V30 12939 H 1227.49 -5.59608 -1.24544 0
M  V30 12940 H 1225.89 -5.97563 -0.551234 0
M  V30 12941 H 1226.96 -4.84027 0.29083 0
M  V30 12942 N 1228.3 0.053464 -1.57509 0
M  V30 12943 C 1229.53 0.761533 -1.92375 0
M  V30 12944 C 1229.94 1.70179 -0.817585 0
M  V30 12945 O 1229.3 1.81313 0.207843 0
M  V30 12946 C 1229.35 1.53954 -3.27078 0
M  V30 12947 O 1229.07 0.637054 -4.33443 0
M  V30 12948 C 1230.57 2.34697 -3.76075 0
M  V30 12949 H 1227.79 0.215483 -0.635459 0
M  V30 12950 H 1230.34 0.0182624 -2.04492 0
M  V30 12951 H 1228.49 2.23492 -3.16434 0
M  V30 12952 H 1228.91 1.18006 -5.11053 0
M  V30 12953 H 1230.38 2.84716 -4.72906 0
M  V30 12954 H 1230.86 3.15041 -3.06016 0
M  V30 12955 H 1231.46 1.70281 -3.89724 0
M  V30 12956 N 1229.78 1.54207 0.325255 0
M  V30 12957 C 1231.06 1.6298 1.08153 0
M  V30 12958 C 1231.44 0.462583 2.05969 0
M  V30 12959 O 1230.78 -0.543323 2.21947 0
M  V30 12960 C 1230.99 2.999 1.78497 0
M  V30 12961 C 1232.34 3.55888 2.3158 0
M  V30 12962 O 1233.37 3.02194 1.88566 0
M  V30 12963 O 1232.23 4.49847 3.10322 0
M  V30 12964 H 1229.32 0.659923 0.498429 0
M  V30 12965 H 1231.87 1.66553 0.325282 0
M  V30 12966 H 1230.64 3.7629 1.07338 0
M  V30 12967 H 1230.26 2.99997 2.60936 0
M  V30 12968 N 1231.26 -0.58723 1.46251 0
M  V30 12969 C 1232.22 -1.67863 1.5606 0
M  V30 12970 C 1233.22 -1.54715 0.438162 0
M  V30 12971 O 1234.41 -1.59415 0.702323 0
M  V30 12972 C 1231.54 -3.07262 1.47659 0
M  V30 12973 H 1232.74 -1.60525 2.53321 0
M  V30 12974 H 1230.29 -0.804691 1.33994 0
M  V30 12975 H 1231.02 -3.20159 0.5166 0
M  V30 12976 H 1230.81 -3.18213 2.29092 0
M  V30 12977 H 1232.3 -3.8672 1.57599 0
M  V30 12978 N 1232.74 -1.33881 -0.831482 0
M  V30 12979 C 1234.01 -1.16346 -1.57236 0
M  V30 12980 C 1234.39 0.267304 -2.09401 0
M  V30 12981 O 1233.74 1.26742 -1.90128 0
M  V30 12982 C 1233.95 -2.21082 -2.70044 0
M  V30 12983 C 1235.3 -2.5562 -3.39033 0
M  V30 12984 O 1236.32 -2.19806 -2.80292 0
M  V30 12985 O 1235.18 -3.17106 -4.45091 0
M  V30 12986 H 1232.28 -0.450469 -0.693546 0
M  V30 12987 H 1234.82 -1.45487 -0.873597 0
M  V30 12988 H 1233.59 -3.17155 -2.2919 0
M  V30 12989 H 1233.22 -1.9307 -3.47577 0
M  V30 12990 N 1234.21 1.05064 -1.1747 0
M  V30 12991 C 1235.16 2.12841 -0.89259 0
M  V30 12992 C 1236.13 1.65288 0.16402 0
M  V30 12993 O 1237.32 1.90782 0.026537 0
M  V30 12994 C 1234.46 3.42614 -0.41344 0
M  V30 12995 C 1233.57 4.03835 -1.53432 0
M  V30 12996 C 1232.7 5.21531 -1.00891 0
M  V30 12997 C 1231.74 5.74761 -2.10515 0
M  V30 12998 N 1230.88 6.83756 -1.59442 0
M  V30 12999 H 1235.72 2.36312 -1.81551 0
M  V30 13000 H 1233.26 1.15929 -0.905483 0
M  V30 13001 H 1235.21 4.17035 -0.117181 0
M  V30 13002 H 1233.84 3.19323 0.472517 0
M  V30 13003 H 1232.9 3.2684 -1.94627 0
M  V30 13004 H 1234.21 4.3938 -2.36108 0
M  V30 13005 H 1233.36 6.03027 -0.666575 0
M  V30 13006 H 1232.1 4.87464 -0.151608 0
M  V30 13007 H 1231.11 4.91893 -2.45604 0
M  V30 13008 H 1232.33 6.10875 -2.96663 0
M  V30 13009 H 1230.28 6.51584 -0.759849 0
M  V30 13010 H 1230.19 7.18311 -2.35724 0
M  V30 13011 H 1231.46 7.68901 -1.28105 0
M  V30 13012 N 1235.69 0.975146 1.23809 0
M  V30 13013 C 1236.64 0.510761 2.25077 0
M  V30 13014 C 1237.61 -0.447605 1.59955 0
M  V30 13015 O 1238.79 -0.356318 1.87443 0
M  V30 13016 C 1235.93 -0.185755 3.446 0
M  V30 13017 C 1235.05 0.812254 4.24295 0
M  V30 13018 C 1234.18 0.0910835 5.31122 0
M  V30 13019 C 1233.22 1.07866 6.02521 0
M  V30 13020 N 1232.36 0.386995 7.01033 0
M  V30 13021 H 1237.2 1.37913 2.64166 0
M  V30 13022 H 1234.73 0.691184 1.2985 0
M  V30 13023 H 1236.69 -0.606341 4.1277 0
M  V30 13024 H 1235.32 -1.01803 3.06327 0
M  V30 13025 H 1234.37 1.35125 3.55592 0
M  V30 13026 H 1235.69 1.56502 4.73612 0
M  V30 13027 H 1234.84 -0.387129 6.05464 0
M  V30 13028 H 1233.58 -0.694324 4.82732 0
M  V30 13029 H 1232.58 1.56767 5.26976 0
M  V30 13030 H 1233.81 1.86464 6.52999 0
M  V30 13031 H 1231.76 -0.3793 6.54903 0
M  V30 13032 H 1231.67 1.0785 7.48268 0
M  V30 13033 H 1232.94 -0.0690036 7.79469 0
M  V30 13034 N 1237.17 -1.38817 0.746158 0
M  V30 13035 C 1238.59 -1.53894 0.42294 0
M  V30 13036 C 1238.79 -1.71064 -1.06486 0
M  V30 13037 O 1237.84 -1.71744 -1.85095 0
M  V30 13038 C 1239.15 -2.75029 1.2157 0
M  V30 13039 C 1240.7 -2.88873 1.20504 0
M  V30 13040 C 1241.18 -4.1296 1.9806 0
M  V30 13041 N 1242.67 -4.20022 1.95283 0
M  V30 13042 C 1243.4 -5.15011 2.52093 0
M  V30 13043 N 1242.9 -6.1572 3.17586 0
M  V30 13044 N 1244.69 -5.07308 2.42064 0
M  V30 13045 H 1236.84 -1.25921 1.71049 0
M  V30 13046 H 1239.11 -0.611148 0.724708 0
M  V30 13047 H 1238.81 -2.68722 2.26895 0
M  V30 13048 H 1238.69 -3.68009 0.827593 0
M  V30 13049 H 1241.07 -2.94667 0.159877 0
M  V30 13050 H 1241.15 -1.96925 1.63261 0
M  V30 13051 H 1240.8 -4.07929 3.02583 0
M  V30 13052 H 1240.73 -5.03974 1.52702 0
M  V30 13053 H 1243.22 -3.47892 1.4758 0
M  V30 13054 H 1243.53 -6.84682 3.58373 0
M  V30 13055 H 1241.88 -6.16075 3.21678 0
M  V30 13056 H 1245.07 -4.27569 1.90532 0
M  V30 13057 H 1245.24 -5.81158 2.86635 0
M  V30 13058 N 1238.65 -0.49465 -1.49636 0
M  V30 13059 C 1239.58 0.276606 -2.31856 0
M  V30 13060 C 1240.56 0.968499 -1.39836 0
M  V30 13061 O 1241.74 0.96113 -1.68748 0
M  V30 13062 C 1238.87 1.34522 -3.20189 0
M  V30 13063 C 1237.83 0.773571 -4.20951 0
M  V30 13064 C 1237.15 1.94223 -4.98178 0
M  V30 13065 C 1238.45 -0.231096 -5.21788 0
M  V30 13066 H 1240.15 -0.409668 -2.96584 0
M  V30 13067 H 1237.69 -0.198461 -1.42626 0
M  V30 13068 H 1239.65 1.89244 -3.76517 0
M  V30 13069 H 1238.37 2.06059 -2.53392 0
M  V30 13070 H 1237.03 0.248144 -3.65759 0
M  V30 13071 H 1236.68 2.64514 -4.27834 0
M  V30 13072 H 1236.38 1.56584 -5.66353 0
M  V30 13073 H 1237.9 2.49391 -5.57348 0
M  V30 13074 H 1239.32 0.227768 -5.72847 0
M  V30 13075 H 1237.71 -0.522984 -5.97817 0
M  V30 13076 H 1238.78 -1.14914 -4.71087 0
M  V30 13077 N 1240.13 1.55939 -0.228214 0
M  V30 13078 C 1241.37 1.99518 0.395485 0
M  V30 13079 C 1241.73 1.11339 1.56912 0
M  V30 13080 O 1241.02 0.164788 1.9089 0
M  V30 13081 C 1241.21 3.46581 0.872732 0
M  V30 13082 C 1241.04 4.48987 -0.253122 0
M  V30 13083 C 1239.81 5.0012 -0.721702 0
M  V30 13084 C 1242.01 5.02967 -1.0737 0
M  V30 13085 N 1239.99 5.86242 -1.82192 0
M  V30 13086 C 1241.36 5.86079 -2.02265 0
M  V30 13087 C 1243.42 4.85315 -1.11238 0
M  V30 13088 C 1242.12 6.53424 -3.00716 0
M  V30 13089 C 1244.15 5.53423 -2.0851 0
M  V30 13090 C 1243.51 6.36308 -3.02144 0
M  V30 13091 H 1239.61 0.774053 0.1112 0
M  V30 13092 H 1242.19 1.91681 -0.341512 0
M  V30 13093 H 1240.36 3.54852 1.57907 0
M  V30 13094 H 1242.1 3.77066 1.46981 0
M  V30 13095 H 1238.85 4.7259 -0.309119 0
M  V30 13096 H 1239.27 6.34003 -2.37423 0
M  V30 13097 H 1243.92 4.20881 -0.402389 0
M  V30 13098 H 1241.63 7.17035 -3.72674 0
M  V30 13099 H 1245.22 5.41727 -2.12186 0
M  V30 13100 H 1244.1 6.88081 -3.76183 0
M  V30 13101 N 1241.6 -0.0451101 1.57535 0
M  V30 13102 C 1242.51 -1.06796 2.08882 0
M  V30 13103 C 1243.53 -1.40682 1.02394 0
M  V30 13104 O 1244.71 -1.50324 1.34033 0
M  V30 13105 C 1241.77 -2.35467 2.54472 0
M  V30 13106 C 1240.83 -2.0831 3.75374 0
M  V30 13107 C 1240.07 -3.30846 4.1878 0
M  V30 13108 O 1240.29 -4.40945 3.61834 0
M  V30 13109 O 1239.22 -3.17488 5.11356 0
M  V30 13110 H 1243.05 -0.661658 2.96405 0
M  V30 13111 H 1240.63 -0.26104 1.47102 0
M  V30 13112 H 1242.52 -3.11143 2.84198 0
M  V30 13113 H 1241.19 -2.75425 1.70068 0
M  V30 13114 H 1240.1 -1.30254 3.50692 0
M  V30 13115 H 1241.43 -1.73218 4.60713 0
M  V30 13116 N 1243.08 -1.54377 -0.317073 0
M  V30 13117 C 1244.03 -1.84214 -1.39046 0
M  V30 13118 C 1245 -0.689742 -1.51102 0
M  V30 13119 O 1246.18 -0.936809 -1.66218 0
M  V30 13120 C 1243.32 -2.08087 -2.75307 0
M  V30 13121 C 1242.44 -3.35756 -2.7183 0
M  V30 13122 C 1241.57 -3.49556 -3.9998 0
M  V30 13123 C 1240.61 -4.71076 -3.90837 0
M  V30 13124 N 1239.75 -4.81767 -5.10729 0
M  V30 13125 H 1244.59 -2.75785 -1.12902 0
M  V30 13126 H 1242.13 -1.36575 -0.546404 0
M  V30 13127 H 1244.08 -2.19921 -3.54529 0
M  V30 13128 H 1242.71 -1.19801 -2.99746 0
M  V30 13129 H 1241.77 -3.32627 -1.84563 0
M  V30 13130 H 1243.08 -4.2509 -2.60959 0
M  V30 13131 H 1242.23 -3.60967 -4.87635 0
M  V30 13132 H 1240.97 -2.58326 -4.13665 0
M  V30 13133 H 1239.98 -4.59715 -3.01566 0
M  V30 13134 H 1241.2 -5.63698 -3.78711 0
M  V30 13135 H 1239.15 -3.93455 -5.24908 0
M  V30 13136 H 1239.06 -5.65077 -5.02219 0
M  V30 13137 H 1240.33 -4.97517 -6.00081 0
M  V30 13138 N 1244.56 0.579466 -1.4656 0
M  V30 13139 C 1245.98 0.903163 -1.31587 0
M  V30 13140 C 1246.18 1.99406 -0.28972 0
M  V30 13141 O 1245.23 2.50632 0.30658 0
M  V30 13142 C 1246.55 1.31745 -2.70303 0
M  V30 13143 C 1248.09 1.43012 -2.78418 0
M  V30 13144 C 1248.57 1.87805 -4.17724 0
M  V30 13145 N 1250.06 1.94993 -4.20157 0
M  V30 13146 C 1250.79 2.30934 -5.2484 0
M  V30 13147 N 1250.29 2.65645 -6.39847 0
M  V30 13148 N 1252.08 2.31517 -5.12207 0
M  V30 13149 H 1244.23 -0.141111 -2.11931 0
M  V30 13150 H 1246.5 -0.000460304 -0.948 0
M  V30 13151 H 1246.2 0.589864 -3.46718 0
M  V30 13152 H 1246.08 2.2783 -3.00622 0
M  V30 13153 H 1248.46 2.14856 -2.02289 0
M  V30 13154 H 1248.55 0.451701 -2.5178 0
M  V30 13155 H 1248.19 1.16539 -4.94349 0
M  V30 13156 H 1248.12 2.86611 -4.41771 0
M  V30 13157 H 1250.61 1.70645 -3.37178 0
M  V30 13158 H 1250.92 2.92032 -7.15498 0
M  V30 13159 H 1249.27 2.63276 -6.43204 0
M  V30 13160 H 1252.46 2.03824 -4.21394 0
M  V30 13161 H 1252.63 2.59199 -5.93902 0
M  V30 13162 N 1246.04 1.3432 0.824371 0
M  V30 13163 C 1247.27 1.29481 1.60992 0
M  V30 13164 C 1247.68 -0.133581 1.88728 0
M  V30 13165 O 1247.02 -1.09065 1.4782 0
M  V30 13166 C 1247.08 2.01604 2.97651 0
M  V30 13167 C 1246.75 3.50866 2.92817 0
M  V30 13168 C 1247.74 4.458 2.67504 0
M  V30 13169 C 1245.43 3.93258 3.12495 0
M  V30 13170 C 1247.42 5.81101 2.61918 0
M  V30 13171 C 1245.11 5.28659 3.06533 0
M  V30 13172 C 1246.11 6.22392 2.81278 0
M  V30 13173 O 1245.79 7.55311 2.75246 0
M  V30 13174 H 1245.53 0.446931 0.507177 0
M  V30 13175 H 1248.08 1.77484 1.03386 0
M  V30 13176 H 1246.31 1.48212 3.5717 0
M  V30 13177 H 1248 1.90073 3.58646 0
M  V30 13178 H 1248.77 4.1437 2.52037 0
M  V30 13179 H 1244.64 3.20699 3.31169 0
M  V30 13180 H 1248.19 6.54233 2.42125 0
M  V30 13181 H 1244.09 5.59709 3.21553 0
M  V30 13182 H 1244.85 7.6503 2.90984 0
M  V30 13183 N 1247.52 -1.0444 1.18026 0
M  V30 13184 C 1248.75 -1.80971 0.996642 0
M  V30 13185 C 1249.15 -1.83568 -0.458192 0
M  V30 13186 O 1248.5 -1.26713 -1.33002 0
M  V30 13187 C 1248.56 -3.28051 1.47048 0
M  V30 13188 C 1248.22 -3.49122 2.94895 0
M  V30 13189 C 1249.22 -3.40621 3.92777 0
M  V30 13190 C 1246.91 -3.7584 3.33241 0
M  V30 13191 C 1248.9 -3.58535 5.27002 0
M  V30 13192 C 1246.59 -3.93402 4.6763 0
M  V30 13193 C 1247.58 -3.84749 5.6432 0
M  V30 13194 O 1247.27 -4.01813 6.96277 0
M  V30 13195 H 1247 -0.576873 0.352411 0
M  V30 13196 H 1249.56 -1.32542 1.56913 0
M  V30 13197 H 1247.79 -3.77431 0.841609 0
M  V30 13198 H 1249.48 -3.8613 1.25135 0
M  V30 13199 H 1250.24 -3.19948 3.64497 0
M  V30 13200 H 1246.12 -3.81674 2.58545 0
M  V30 13201 H 1249.67 -3.51698 6.02457 0
M  V30 13202 H 1245.56 -4.13568 4.95613 0
M  V30 13203 H 1246.33 -4.18995 7.03126 0
M  V30 13204 N 1248.99 -0.981699 -1.2329 0
M  V30 13205 C 1250.23 -0.659348 -1.93473 0
M  V30 13206 C 1250.6 0.792616 -1.74876 0
M  V30 13207 O 1251.8 1.22586 -2.3922 0
M  V30 13208 C 1250.07 -1.04065 -3.41914 0
M  V30 13209 S 1251.63 -0.834964 -4.30783 0
M  V30 13210 H 1248.45 -0.241428 -0.668755 0
M  V30 13211 H 1251.05 -1.26161 -1.49344 0
M  V30 13212 H 1249.75 -2.09398 -3.5296 0
M  V30 13213 H 1249.28 -0.429721 -3.91046 0
M  V30 13214 H 1251.3 0.280447 -4.95407 0
M  V30 13215 N 1250.47 1.3842 -0.753509 0
M  V30 13216 C 1251.42 2.27774 -0.101443 0
M  V30 13217 C 1252.41 1.45196 0.693322 0
M  V30 13218 O 1253.6 1.67931 0.55929 0
M  V30 13219 C 1250.73 3.34064 0.790977 0
M  V30 13220 C 1249.81 4.24099 -0.010633 0
M  V30 13221 N 1250.2 4.94845 -1.047 0
M  V30 13222 C 1248.5 4.45476 0.216193 0
M  V30 13223 C 1249.2 5.61164 -1.53199 0
M  V30 13224 N 1248.18 5.36956 -0.847304 0
M  V30 13225 H 1251.98 2.79935 -0.895188 0
M  V30 13226 H 1249.5 1.51321 -0.589545 0
M  V30 13227 H 1251.49 3.96965 1.27375 0
M  V30 13228 H 1250.15 2.83461 1.58367 0
M  V30 13229 H 1251.16 4.97801 -1.42879 0
M  V30 13230 H 1247.84 4.05781 0.982238 0
M  V30 13231 H 1249.23 6.27756 -2.39525 0
M  V30 13232 N 1251.95 0.502579 1.49372 0
M  V30 13233 C 1253.18 -0.0403087 2.07361 0
M  V30 13234 C 1253.6 -1.29918 1.36026 0
M  V30 13235 O 1252.96 -1.76428 0.417488 0
M  V30 13236 C 1253.01 -0.275362 3.59547 0
M  V30 13237 O 1252.11 -1.34975 3.89686 0
M  V30 13238 H 1251.45 0.0269268 0.663454 0
M  V30 13239 H 1253.98 0.702652 1.92156 0
M  V30 13240 H 1253.99 -0.506392 4.04845 0
M  V30 13241 H 1252.67 0.644382 4.10878 0
M  V30 13242 H 1251.24 -1.10355 3.56197 0
M  V30 13243 N 1253.43 -1.55816 0.23648 0
M  V30 13244 C 1254.34 -2.24576 -0.678439 0
M  V30 13245 C 1255.35 -1.25836 -1.20172 0
M  V30 13246 O 1256.53 -1.58686 -1.24019 0
M  V30 13247 C 1253.6 -2.92376 -1.86325 0
M  V30 13248 C 1252.66 -4.06499 -1.38047 0
M  V30 13249 C 1251.89 -4.71057 -2.50881 0
M  V30 13250 O 1252.11 -4.34652 -3.69369 0
M  V30 13251 O 1251.05 -5.59768 -2.21232 0
M  V30 13252 H 1254.87 -3.03452 -0.122601 0
M  V30 13253 H 1252.46 -1.49399 0.00540803 0
M  V30 13254 H 1254.34 -3.35117 -2.55488 0
M  V30 13255 H 1253.01 -2.16448 -2.40691 0
M  V30 13256 H 1251.92 -3.68296 -0.656422 0
M  V30 13257 H 1253.25 -4.84214 -0.883024 0
M  V30 13258 N 1254.91 0.036755 -1.57557 0
M  V30 13259 C 1256.15 0.730186 -1.89199 0
M  V30 13260 C 1256.49 1.75414 -0.833271 0
M  V30 13261 O 1255.76 1.93901 0.152579 0
M  V30 13262 C 1256.04 1.40669 -3.31488 0
M  V30 13263 C 1255.9 0.396764 -4.48047 0
M  V30 13264 C 1257.22 2.34268 -3.72567 0
M  V30 13265 H 1254.33 0.263983 -0.6881 0
M  V30 13266 H 1256.98 -0.0069847 -1.89999 0
M  V30 13267 H 1255.13 2.03502 -3.30937 0
M  V30 13268 H 1256.8 -0.229062 -4.60731 0
M  V30 13269 H 1255.04 -0.284698 -4.32865 0
M  V30 13270 H 1255.71 0.908436 -5.44474 0
M  V30 13271 H 1258.19 1.81485 -3.74436 0
M  V30 13272 H 1257.06 2.78587 -4.72949 0
M  V30 13273 H 1257.33 3.20611 -3.04403 0
M  V30 13274 N 1256.39 1.54543 0.308881 0
M  V30 13275 C 1257.61 1.77753 1.06857 0
M  V30 13276 C 1258.04 0.531616 1.80431 0
M  V30 13277 O 1257.39 -0.517513 1.73757 0
M  V30 13278 C 1257.44 2.97968 2.03094 0
M  V30 13279 O 1256.55 2.70541 3.11257 0
M  V30 13280 H 1255.89 0.588576 0.307368 0
M  V30 13281 H 1258.42 2.01607 0.348703 0
M  V30 13282 H 1258.43 3.25722 2.45702 0
M  V30 13283 H 1257.1 3.88314 1.48948 0
M  V30 13284 H 1255.68 2.53781 2.7322 0
M  V30 13285 N 1257.86 -0.571685 1.46866 0
M  V30 13286 C 1259.09 -1.36008 1.56578 0
M  V30 13287 C 1259.51 -1.86909 0.211326 0
M  V30 13288 O 1258.87 -1.62179 -0.810421 0
M  V30 13289 C 1258.92 -2.51598 2.58323 0
M  V30 13290 O 1258.02 -3.53383 2.1259 0
M  V30 13291 H 1257.36 -0.404593 0.526498 0
M  V30 13292 H 1259.89 -0.692357 1.92529 0
M  V30 13293 H 1259.9 -2.98366 2.78283 0
M  V30 13294 H 1258.58 -2.13904 3.56676 0
M  V30 13295 H 1257.16 -3.13019 2.02666 0
M  V30 13296 N 1259.34 -1.34755 -0.817236 0
M  V30 13297 C 1260.27 -1.29452 -1.94331 0
M  V30 13298 C 1261.25 -0.170902 -1.69239 0
M  V30 13299 O 1262.44 -0.364173 -1.90755 0
M  V30 13300 C 1259.57 -1.05497 -3.30889 0
M  V30 13301 C 1258.52 -2.14386 -3.70436 0
M  V30 13302 C 1257.85 -1.75612 -5.05039 0
M  V30 13303 C 1259.15 -3.56265 -3.81933 0
M  V30 13304 H 1260.84 -2.23672 -1.99025 0
M  V30 13305 H 1258.39 -1.07674 -0.956159 0
M  V30 13306 H 1260.34 -1.0043 -4.09257 0
M  V30 13307 H 1259.06 -0.0772059 -3.26509 0
M  V30 13308 H 1257.72 -2.18532 -2.94345 0
M  V30 13309 H 1257.37 -0.764809 -4.97152 0
M  V30 13310 H 1257.07 -2.48495 -5.3247 0
M  V30 13311 H 1258.6 -1.72051 -5.85859 0
M  V30 13312 H 1260.01 -3.545 -4.50558 0
M  V30 13313 H 1258.41 -4.27818 -4.20822 0
M  V30 13314 H 1259.48 -3.93192 -2.83775 0
M  V30 13315 N 1260.82 1.03812 -1.18578 0
M  V30 13316 C 1262.23 1.58509 -0.986496 0
M  V30 13317 C 1262.58 1.90655 0.463136 0
M  V30 13318 O 1261.71 1.69847 1.34093 0
M  V30 13319 C 1262.3 2.88 -1.78441 0
M  V30 13320 C 1260.86 3.39304 -1.6294 0
M  V30 13321 C 1260.01 2.12857 -1.77727 0
M  V30 13322 H 1262.96 0.864528 -1.33085 0
M  V30 13323 H 1262.98 3.58502 -1.27501 0
M  V30 13324 H 1262.49 2.64572 -2.83942 0
M  V30 13325 H 1260.59 3.6774 -0.599864 0
M  V30 13326 H 1260.71 4.12959 -2.42902 0
M  V30 13327 H 1259.07 2.24285 -1.20699 0
M  V30 13328 H 1259.85 1.91882 -2.84669 0
M  V30 13329 N 1262.3 0.988223 1.22768 0
M  V30 13330 C 1263.23 0.554478 2.26821 0
M  V30 13331 C 1264.21 -0.416293 1.64927 0
M  V30 13332 O 1265.39 -0.30795 1.91743 0
M  V30 13333 C 1262.52 -0.136266 3.47033 0
M  V30 13334 C 1261.48 0.752575 4.21332 0
M  V30 13335 C 1260.8 -0.0708236 5.34653 0
M  V30 13336 C 1262.1 2.04717 4.80508 0
M  V30 13337 H 1263.8 1.42423 2.63355 0
M  V30 13338 H 1261.34 0.686267 1.26595 0
M  V30 13339 H 1263.3 -0.451068 4.18979 0
M  V30 13340 H 1262.02 -1.04053 3.09581 0
M  V30 13341 H 1260.68 1.05095 3.51213 0
M  V30 13342 H 1260.33 -0.975859 4.93443 0
M  V30 13343 H 1260.03 0.520835 5.85287 0
M  V30 13344 H 1261.55 -0.379828 6.09417 0
M  V30 13345 H 1262.97 1.79663 5.44421 0
M  V30 13346 H 1261.36 2.58726 5.41462 0
M  V30 13347 H 1262.43 2.72896 4.00819 0
M  V30 13348 N 1263.78 -1.38018 0.760839 0
M  V30 13349 C 1265.02 -2.00248 0.320716 0
M  V30 13350 C 1265.35 -1.60259 -1.09684 0
M  V30 13351 O 1264.63 -0.843567 -1.75255 0
M  V30 13352 C 1264.91 -3.57254 0.451849 0
M  V30 13353 C 1264.77 -4.07185 1.91103 0
M  V30 13354 C 1266.08 -4.39843 -0.150439 0
M  V30 13355 H 1263.2 -0.727491 0.118007 0
M  V30 13356 H 1265.85 -1.63855 0.961842 0
M  V30 13357 H 1264 -3.88386 -0.0939672 0
M  V30 13358 H 1265.67 -3.86665 2.51571 0
M  V30 13359 H 1263.91 -3.59782 2.42362 0
M  V30 13360 H 1264.58 -5.16262 1.9539 0
M  V30 13361 H 1267.06 -4.14905 0.315145 0
M  V30 13362 H 1265.93 -5.48893 -0.0284853 0
M  V30 13363 H 1266.19 -4.24367 -1.23956 0
M  V30 13364 N 1265.25 -0.510493 -1.49103 0
M  V30 13365 C 1266.18 0.251999 -2.32136 0
M  V30 13366 C 1267.16 0.953613 -1.40855 0
M  V30 13367 O 1268.35 0.943178 -1.69758 0
M  V30 13368 C 1265.48 1.31118 -3.21598 0
M  V30 13369 C 1264.43 0.72888 -4.21748 0
M  V30 13370 C 1263.76 1.88928 -5.0021 0
M  V30 13371 C 1265.06 -0.286425 -5.21514 0
M  V30 13372 H 1266.75 -0.441102 -2.96133 0
M  V30 13373 H 1264.3 -0.213577 -1.42407 0
M  V30 13374 H 1266.25 1.8524 -3.78503 0
M  V30 13375 H 1264.98 2.0336 -2.55563 0
M  V30 13376 H 1263.64 0.209336 -3.66002 0
M  V30 13377 H 1263.28 2.59961 -4.30615 0
M  V30 13378 H 1262.98 1.50568 -5.67981 0
M  V30 13379 H 1264.51 2.43465 -5.59962 0
M  V30 13380 H 1265.92 0.166997 -5.73057 0
M  V30 13381 H 1264.32 -0.586361 -5.97228 0
M  V30 13382 H 1265.39 -1.19904 -4.69842 0
M  V30 13383 N 1266.73 1.55688 -0.24474 0
M  V30 13384 C 1267.69 2.20014 0.642382 0
M  V30 13385 C 1268.69 1.16877 1.10437 0
M  V30 13386 O 1269.88 1.41972 1.00943 0
M  V30 13387 C 1267.02 2.84198 1.88267 0
M  V30 13388 H 1268.21 2.9979 0.0811937 0
M  V30 13389 H 1265.76 1.56299 0.00480917 0
M  V30 13390 H 1266.5 2.08354 2.48514 0
M  V30 13391 H 1266.28 3.59747 1.55963 0
M  V30 13392 H 1267.77 3.33434 2.5142 0
M  V30 13393 N 1268.21 -0.0283989 1.57574 0
M  V30 13394 C 1269.43 -0.734537 1.93957 0
M  V30 13395 C 1269.86 -1.68062 0.844787 0
M  V30 13396 O 1269.22 -1.802 -0.199432 0
M  V30 13397 C 1269.27 -1.46716 3.29404 0
M  V30 13398 O 1268.37 -2.58036 3.217 0
M  V30 13399 H 1267.71 -0.197507 0.633946 0
M  V30 13400 H 1270.24 0.0163258 2.04593 0
M  V30 13401 H 1270.25 -1.83693 3.64309 0
M  V30 13402 H 1268.93 -0.773292 4.08648 0
M  V30 13403 H 1267.5 -2.23597 2.98427 0
M  V30 13404 N 1269.69 -1.54705 -0.300681 0
M  V30 13405 C 1270.65 -1.84934 -1.35395 0
M  V30 13406 C 1271.65 -0.72226 -1.43666 0
M  V30 13407 O 1272.84 -0.990543 -1.43296 0
M  V30 13408 C 1269.97 -2.02991 -2.73875 0
M  V30 13409 H 1271.17 -2.79063 -1.09835 0
M  V30 13410 H 1268.72 -1.46772 -0.537365 0
M  V30 13411 H 1269.45 -1.11151 -3.04657 0
M  V30 13412 H 1269.24 -2.85027 -2.69262 0
M  V30 13413 H 1270.73 -2.27747 -3.5003 0
M  V30 13414 N 1271.17 0.563888 -1.47167 0
M  V30 13415 C 1272.58 1.14603 -1.47388 0
M  V30 13416 C 1272.93 1.94907 -0.224916 0
M  V30 13417 O 1272.05 2.05745 0.670672 0
M  V30 13418 C 1272.65 2.08501 -2.67044 0
M  V30 13419 C 1271.21 2.62 -2.70246 0
M  V30 13420 C 1270.35 1.38244 -2.40383 0
M  V30 13421 H 1273.31 0.350833 -1.54774 0
M  V30 13422 H 1273.33 2.92272 -2.43634 0
M  V30 13423 H 1272.84 1.50027 -3.57929 0
M  V30 13424 H 1270.94 3.24292 -1.83482 0
M  V30 13425 H 1271.05 3.0345 -3.70749 0
M  V30 13426 H 1269.42 1.68692 -1.90827 0
M  V30 13427 H 1270.2 0.815726 -3.33468 0
M  V30 13428 N 1272.64 1.35187 0.810078 0
M  V30 13429 C 1273.87 1.31528 1.60359 0
M  V30 13430 C 1274.29 -0.105385 1.87805 0
M  V30 13431 O 1273.65 -1.07113 1.46276 0
M  V30 13432 C 1273.7 2.12429 2.91386 0
M  V30 13433 O 1272.8 1.50262 3.84051 0
M  V30 13434 H 1272.15 0.451122 0.487222 0
M  V30 13435 H 1274.68 1.78178 1.00568 0
M  V30 13436 H 1274.69 2.24257 3.40841 0
M  V30 13437 H 1273.36 3.15714 2.70735 0
M  V30 13438 H 1271.94 1.47253 3.42594 0
M  V30 13439 N 1274.12 -1.03182 1.19127 0
M  V30 13440 C 1275.37 -1.76917 1.00359 0
M  V30 13441 C 1275.72 -1.86794 -0.461075 0
M  V30 13442 O 1275.02 -1.37151 -1.33791 0
M  V30 13443 C 1275.21 -3.19452 1.60267 0
M  V30 13444 C 1275.04 -3.2347 3.12406 0
M  V30 13445 C 1273.81 -3.31587 3.81285 0
M  V30 13446 C 1276.01 -3.10754 4.09801 0
M  V30 13447 N 1273.99 -3.24948 5.20848 0
M  V30 13448 C 1275.36 -3.11715 5.35942 0
M  V30 13449 C 1277.42 -2.9486 4.01201 0
M  V30 13450 C 1276.12 -2.98413 6.54479 0
M  V30 13451 C 1278.14 -2.82907 5.19344 0
M  V30 13452 C 1277.51 -2.8452 6.44382 0
M  V30 13453 H 1273.61 -0.658788 0.421334 0
M  V30 13454 H 1276.19 -1.22849 1.51051 0
M  V30 13455 H 1274.36 -3.71847 1.1218 0
M  V30 13456 H 1276.09 -3.81533 1.34963 0
M  V30 13457 H 1272.85 -3.37686 3.32062 0
M  V30 13458 H 1273.27 -3.25043 5.93865 0
M  V30 13459 H 1277.91 -2.92437 3.05353 0
M  V30 13460 H 1275.63 -2.99587 7.50515 0
M  V30 13461 H 1279.22 -2.71649 5.14488 0
M  V30 13462 H 1278.1 -2.75369 7.34263 0
M  V30 13463 N 1275.6 -0.99472 -1.22242 0
M  V30 13464 C 1276.51 -0.555502 -2.27928 0
M  V30 13465 C 1277.53 0.396584 -1.6942 0
M  V30 13466 O 1278.7 0.262965 -1.99676 0
M  V30 13467 C 1275.77 0.121121 -3.46488 0
M  V30 13468 C 1274.83 -0.874155 -4.20306 0
M  V30 13469 C 1274.06 -0.229726 -5.33205 0
M  V30 13470 O 1274.28 0.975935 -5.61989 0
M  V30 13471 O 1273.22 -0.935501 -5.94586 0
M  V30 13472 H 1277.04 -1.4348 -2.6767 0
M  V30 13473 H 1274.63 -0.763061 -1.28444 0
M  V30 13474 H 1276.51 0.500043 -4.18423 0
M  V30 13475 H 1275.19 0.974959 -3.08668 0
M  V30 13476 H 1274.09 -1.30404 -3.50636 0
M  V30 13477 H 1275.43 -1.69725 -4.62011 0
M  V30 13478 N 1277.08 1.37613 -0.768148 0
M  V30 13479 C 1278.32 2.00532 -0.340335 0
M  V30 13480 C 1278.68 1.59885 1.07026 0
M  V30 13481 O 1277.97 0.833239 1.72533 0
M  V30 13482 C 1278.17 3.54952 -0.417608 0
M  V30 13483 C 1278 4.10595 -1.83417 0
M  V30 13484 C 1276.77 4.41708 -2.45402 0
M  V30 13485 C 1278.96 4.31844 -2.79312 0
M  V30 13486 N 1276.95 4.83045 -3.78868 0
M  V30 13487 C 1278.32 4.75751 -3.97569 0
M  V30 13488 C 1280.37 4.13971 -2.76645 0
M  V30 13489 C 1279.07 5.03656 -5.13539 0
M  V30 13490 C 1281.1 4.4301 -3.91786 0
M  V30 13491 C 1280.46 4.87153 -5.08784 0
M  V30 13492 H 1276.56 0.762961 -0.171505 0
M  V30 13493 H 1279.15 1.66984 -1.00121 0
M  V30 13494 H 1277.32 3.87815 0.213071 0
M  V30 13495 H 1279.05 4.04687 0.0319154 0
M  V30 13496 H 1275.8 4.30661 -1.97048 0
M  V30 13497 H 1276.23 5.08028 -4.47478 0
M  V30 13498 H 1280.87 3.79017 -1.87365 0
M  V30 13499 H 1278.59 5.375 -6.03423 0
M  V30 13500 H 1282.17 4.30772 -3.91059 0
M  V30 13501 H 1281.05 5.09192 -5.964 0
M  V30 13502 N 1278.56 0.518393 1.4883 0
M  V30 13503 C 1279.52 -0.23983 2.27942 0
M  V30 13504 C 1280.52 -0.878302 1.34694 0
M  V30 13505 O 1281.71 -0.740142 1.57694 0
M  V30 13506 C 1278.84 -1.34581 3.1321 0
M  V30 13507 H 1280.03 0.454599 2.96434 0
M  V30 13508 H 1277.59 0.273932 1.53881 0
M  V30 13509 H 1278.32 -2.07385 2.49323 0
M  V30 13510 H 1278.11 -0.893251 3.8179 0
M  V30 13511 H 1279.6 -1.87944 3.72917 0
M  V30 13512 N 1280.03 -1.55556 0.252993 0
M  V30 13513 C 1281.27 -2.00995 -0.371513 0
M  V30 13514 C 1281.64 -1.13739 -1.54685 0
M  V30 13515 O 1282.84 -1.4866 -2.2395 0
M  V30 13516 C 1281.11 -3.49112 -0.765205 0
M  V30 13517 S 1282.67 -4.16556 -1.37938 0
M  V30 13518 H 1279.49 -0.70137 -0.116625 0
M  V30 13519 H 1282.09 -1.91973 0.369654 0
M  V30 13520 H 1280.79 -4.1028 0.0994153 0
M  V30 13521 H 1280.32 -3.62073 -1.5384 0
M  V30 13522 H 1282.34 -4.18346 -2.66835 0
M  V30 13523 N 1281.51 0.0200419 -1.57587 0
M  V30 13524 C 1282.44 1.01715 -2.10181 0
M  V30 13525 C 1283.42 1.37136 -1.00636 0
M  V30 13526 O 1284.61 1.45862 -1.2821 0
M  V30 13527 C 1281.74 2.31531 -2.58865 0
M  V30 13528 C 1280.69 2.10327 -3.72755 0
M  V30 13529 C 1280.02 3.45981 -4.07678 0
M  V30 13530 C 1281.32 1.4821 -5.0083 0
M  V30 13531 H 1283.01 0.579307 -2.93742 0
M  V30 13532 H 1280.56 0.277211 -1.41307 0
M  V30 13533 H 1282.51 3.01623 -2.94281 0
M  V30 13534 H 1281.24 2.77392 -1.72399 0
M  V30 13535 H 1279.89 1.42665 -3.37701 0
M  V30 13536 H 1279.54 3.89508 -3.18265 0
M  V30 13537 H 1279.24 3.32616 -4.84397 0
M  V30 13538 H 1280.77 4.17421 -4.45637 0
M  V30 13539 H 1282.18 2.08232 -5.34146 0
M  V30 13540 H 1280.58 1.45393 -5.82221 0
M  V30 13541 H 1281.65 0.448942 -4.82817 0
M  V30 13542 N 1282.99 1.54862 0.292472 0
M  V30 13543 C 1284.4 1.65459 0.864891 0
M  V30 13544 C 1284.75 0.568808 1.87774 0
M  V30 13545 O 1283.88 -0.293107 2.14406 0
M  V30 13546 C 1284.47 2.99939 1.5755 0
M  V30 13547 C 1283.03 3.12628 2.09621 0
M  V30 13548 C 1282.18 2.61179 0.931713 0
M  V30 13549 H 1285.13 1.58549 0.0692679 0
M  V30 13550 H 1285.15 2.91839 2.44152 0
M  V30 13551 H 1284.66 3.78943 0.838088 0
M  V30 13552 H 1282.76 2.3836 2.86383 0
M  V30 13553 H 1282.88 4.18911 2.32488 0
M  V30 13554 H 1281.24 2.17846 1.31967 0
M  V30 13555 H 1282.02 3.42669 0.208121 0
M  V30 13556 N 1284.47 -0.556076 1.47464 0
M  V30 13557 C 1285.75 -1.31689 1.44628 0
M  V30 13558 C 1286.13 -2.10609 0.143841 0
M  V30 13559 O 1285.47 -2.11097 -0.874662 0
M  V30 13560 C 1285.68 -2.22045 2.69253 0
M  V30 13561 C 1287.03 -2.83028 3.16513 0
M  V30 13562 O 1288.06 -2.32346 2.69988 0
M  V30 13563 O 1286.91 -3.75148 3.97399 0
M  V30 13564 H 1284.01 -0.593026 0.576411 0
M  V30 13565 H 1286.55 -0.574885 1.59666 0
M  V30 13566 H 1285.33 -1.63337 3.5558 0
M  V30 13567 H 1284.95 -3.03539 2.56807 0
M  V30 13568 N 1285.95 -1.35615 -0.802897 0
M  V30 13569 C 1287.2 -1.28428 -1.55528 0
M  V30 13570 C 1287.51 0.138275 -1.95111 0
M  V30 13571 O 1288.72 0.332435 -2.69457 0
M  V30 13572 C 1287.17 -2.25251 -2.80696 0
M  V30 13573 C 1286.78 -3.72871 -2.48336 0
M  V30 13574 C 1288.52 -2.27014 -3.58699 0
M  V30 13575 C 1286.43 -4.61507 -3.69817 0
M  V30 13576 H 1285.36 -0.47718 -0.583794 0
M  V30 13577 H 1288.01 -1.609 -0.882238 0
M  V30 13578 H 1286.39 -1.85755 -3.4973 0
M  V30 13579 H 1287.57 -4.21024 -1.87285 0
M  V30 13580 H 1285.88 -3.73752 -1.83571 0
M  V30 13581 H 1288.48 -2.90451 -4.48935 0
M  V30 13582 H 1288.82 -1.27491 -3.96298 0
M  V30 13583 H 1289.36 -2.65058 -2.9663 0
M  V30 13584 H 1286.09 -5.62043 -3.37324 0
M  V30 13585 H 1285.61 -4.18079 -4.30081 0
M  V30 13586 H 1287.29 -4.77113 -4.37004 0
M  V30 13587 N 1287.43 1.02549 -1.19673 0
M  V30 13588 C 1288.66 1.79363 -1.02531 0
M  V30 13589 C 1289.06 1.84274 0.42893 0
M  V30 13590 O 1288.41 1.28813 1.30969 0
M  V30 13591 C 1288.47 3.2567 -1.52248 0
M  V30 13592 C 1288.13 3.44386 -3.00412 0
M  V30 13593 C 1289.13 3.34329 -3.98146 0
M  V30 13594 C 1286.81 3.70491 -3.39178 0
M  V30 13595 C 1288.81 3.50106 -5.3264 0
M  V30 13596 C 1286.5 3.85912 -4.7383 0
M  V30 13597 C 1287.49 3.75723 -5.70369 0
M  V30 13598 O 1287.18 3.90685 -7.02581 0
M  V30 13599 H 1286.91 0.571194 -0.361544 0
M  V30 13600 H 1289.47 1.30029 -1.59002 0
M  V30 13601 H 1287.7 3.76044 -0.901548 0
M  V30 13602 H 1289.39 3.8409 -1.31262 0
M  V30 13603 H 1290.15 3.14109 -3.69541 0
M  V30 13604 H 1286.03 3.77513 -2.64585 0
M  V30 13605 H 1289.58 3.42069 -6.07976 0
M  V30 13606 H 1285.47 4.05631 -5.02129 0
M  V30 13607 H 1286.24 4.07756 -7.09702 0
M  V30 13608 N 1288.9 1.00119 1.21713 0
M  V30 13609 C 1290.15 0.682733 1.90962 0
M  V30 13610 C 1290.48 -0.784131 1.77665 0
M  V30 13611 O 1289.76 -1.56799 1.15084 0
M  V30 13612 C 1290.04 1.09975 3.42896 0
M  V30 13613 C 1289.89 2.62578 3.65202 0
M  V30 13614 C 1291.21 0.659247 4.35134 0
M  V30 13615 H 1288.33 0.249501 0.693483 0
M  V30 13616 H 1290.97 1.24619 1.43423 0
M  V30 13617 H 1289.12 0.620334 3.83515 0
M  V30 13618 H 1290.8 3.18254 3.33934 0
M  V30 13619 H 1289.04 3.04268 3.09198 0
M  V30 13620 H 1289.71 2.86809 4.7164 0
M  V30 13621 H 1292.19 1.07116 4.02076 0
M  V30 13622 H 1291.06 0.979241 5.40095 0
M  V30 13623 H 1291.32 -0.439777 4.39907 0
M  V30 13624 N 1290.38 -1.37203 0.775435 0
M  V30 13625 C 1291.31 -2.32819 0.17826 0
M  V30 13626 C 1292.29 -1.55963 -0.678944 0
M  V30 13627 O 1293.48 -1.84183 -0.615648 0
M  V30 13628 C 1290.61 -3.40198 -0.698768 0
M  V30 13629 C 1289.56 -4.27961 0.057423 0
M  V30 13630 C 1288.89 -5.26385 -0.93929 0
M  V30 13631 C 1290.19 -5.07402 1.23856 0
M  V30 13632 H 1291.88 -2.8301 0.977028 0
M  V30 13633 H 1289.43 -1.3607 0.471274 0
M  V30 13634 H 1291.38 -4.06067 -1.12637 0
M  V30 13635 H 1290.1 -2.88541 -1.53009 0
M  V30 13636 H 1288.76 -3.63628 0.465848 0
M  V30 13637 H 1288.41 -4.71007 -1.76527 0
M  V30 13638 H 1288.11 -5.85966 -0.437844 0
M  V30 13639 H 1289.64 -5.9513 -1.36576 0
M  V30 13640 H 1291.05 -5.6639 0.887423 0
M  V30 13641 H 1289.45 -5.76327 1.67234 0
M  V30 13642 H 1290.52 -4.3986 2.04085 0
M  V30 13643 N 1291.86 -0.526279 -1.48553 0
M  V30 13644 C 1292.79 0.227364 -2.3239 0
M  V30 13645 C 1293.77 0.93862 -1.41859 0
M  V30 13646 O 1294.96 0.925119 -1.70749 0
M  V30 13647 C 1292.09 1.277 -3.22971 0
M  V30 13648 C 1291.04 0.684107 -4.22497 0
M  V30 13649 C 1290.37 1.83612 -5.02186 0
M  V30 13650 C 1291.67 -0.341723 -5.21181 0
M  V30 13651 H 1293.36 -0.472486 -2.95648 0
M  V30 13652 H 1290.91 -0.228669 -1.42173 0
M  V30 13653 H 1292.86 1.81215 -3.80446 0
M  V30 13654 H 1291.58 2.00638 -2.57705 0
M  V30 13655 H 1290.24 0.170505 -3.66203 0
M  V30 13656 H 1289.89 2.55379 -4.33348 0
M  V30 13657 H 1289.59 1.44536 -5.69547 0
M  V30 13658 H 1291.11 2.37513 -5.62512 0
M  V30 13659 H 1292.53 0.106207 -5.73202 0
M  V30 13660 H 1290.92 -0.649673 -5.96573 0
M  V30 13661 H 1291.99 -1.2488 -4.68543 0
M  V30 13662 N 1293.34 1.5542 -0.261239 0
M  V30 13663 C 1294.28 2.21972 0.632216 0
M  V30 13664 C 1295.25 1.18843 1.16041 0
M  V30 13665 O 1296.44 1.47339 1.21226 0
M  V30 13666 C 1293.58 2.93397 1.81693 0
M  V30 13667 C 1292.69 4.11214 1.3239 0
M  V30 13668 C 1291.83 4.70318 2.46931 0
M  V30 13669 C 1290.87 5.80355 1.94561 0
M  V30 13670 N 1290 6.33581 3.02523 0
M  V30 13671 H 1294.84 2.97944 0.058018 0
M  V30 13672 H 1292.38 1.4709 0.0168725 0
M  V30 13673 H 1294.34 3.33015 2.5131 0
M  V30 13674 H 1292.97 2.19874 2.36337 0
M  V30 13675 H 1292.02 3.76811 0.521292 0
M  V30 13676 H 1293.33 4.90609 0.900214 0
M  V30 13677 H 1292.49 5.12584 3.24565 0
M  V30 13678 H 1291.23 3.90169 2.92608 0
M  V30 13679 H 1290.23 5.37552 1.15402 0
M  V30 13680 H 1291.46 6.62364 1.49836 0
M  V30 13681 H 1289.4 5.56332 3.47608 0
M  V30 13682 H 1289.32 7.08209 2.64529 0
M  V30 13683 H 1290.59 6.80506 3.80174 0
M  V30 13684 N 1294.82 -0.0116844 1.57596 0
M  V30 13685 C 1295.75 -1.03477 2.04512 0
M  V30 13686 C 1296.76 -1.31414 0.960945 0
M  V30 13687 O 1297.95 -1.28596 1.23796 0
M  V30 13688 C 1295.05 -2.37234 2.42019 0
M  V30 13689 C 1294.22 -2.28405 3.73028 0
M  V30 13690 C 1293.28 -3.44753 3.97532 0
M  V30 13691 O 1292.31 -3.23465 4.68358 0
M  V30 13692 N 1293.51 -4.67212 3.44518 0
M  V30 13693 H 1296.27 -0.634758 2.92901 0
M  V30 13694 H 1293.84 -0.1993 1.60669 0
M  V30 13695 H 1295.83 -3.13821 2.55535 0
M  V30 13696 H 1294.4 -2.69018 1.5921 0
M  V30 13697 H 1293.62 -1.36804 3.697 0
M  V30 13698 H 1294.91 -2.19666 4.58938 0
M  V30 13699 H 1294.3 -4.87407 2.87142 0
M  V30 13700 H 1292.86 -5.41105 3.63384 0
M  V30 13701 N 1296.29 -1.55015 -0.284256 0
M  V30 13702 C 1297.54 -1.76276 -1.01481 0
M  V30 13703 C 1297.89 -0.550981 -1.84342 0
M  V30 13704 O 1297.19 0.456483 -1.86083 0
M  V30 13705 C 1297.38 -3.00246 -1.93874 0
M  V30 13706 C 1297.21 -4.33365 -1.20104 0
M  V30 13707 C 1295.98 -4.9683 -0.921324 0
M  V30 13708 C 1298.18 -5.10822 -0.597078 0
M  V30 13709 N 1296.16 -6.13703 -0.155654 0
M  V30 13710 C 1297.53 -6.1999 0.0349821 0
M  V30 13711 C 1299.59 -4.95345 -0.503796 0
M  V30 13712 C 1298.29 -7.15365 0.751319 0
M  V30 13713 C 1300.32 -5.91065 0.198923 0
M  V30 13714 C 1299.68 -6.99614 0.819767 0
M  V30 13715 H 1295.78 -0.697434 -0.353709 0
M  V30 13716 H 1298.36 -1.92503 -0.291645 0
M  V30 13717 H 1296.53 -2.85414 -2.63426 0
M  V30 13718 H 1298.26 -3.09959 -2.60206 0
M  V30 13719 H 1295.02 -4.57517 -1.22375 0
M  V30 13720 H 1295.44 -6.76661 0.214183 0
M  V30 13721 H 1300.08 -4.11535 -0.969477 0
M  V30 13722 H 1297.8 -7.98704 1.22872 0
M  V30 13723 H 1301.39 -5.81167 0.271267 0
M  V30 13724 H 1300.27 -7.72407 1.35487 0
M  V30 13725 N 1297.77 0.548248 -1.47757 0
M  V30 13726 C 1299 1.3302 -1.58472 0
M  V30 13727 C 1299.41 1.87292 -0.238186 0
M  V30 13728 O 1298.77 1.65465 0.76991 0
M  V30 13729 C 1298.82 2.49386 -2.61704 0
M  V30 13730 O 1298.54 1.97355 -3.9113 0
M  V30 13731 C 1300.04 3.41471 -2.82688 0
M  V30 13732 H 1297.26 0.405172 -0.534861 0
M  V30 13733 H 1299.81 0.663251 -1.93446 0
M  V30 13734 H 1297.96 3.12001 -2.29639 0
M  V30 13735 H 1298.38 2.7339 -4.47614 0
M  V30 13736 H 1299.85 4.19516 -3.58762 0
M  V30 13737 H 1300.33 3.95573 -1.90837 0
M  V30 13738 H 1300.93 2.84664 -3.15985 0
M  V30 13739 N 1299.25 1.36039 0.795694 0
M  V30 13740 C 1300.2 1.26386 1.89765 0
M  V30 13741 C 1301.18 0.156711 1.60135 0
M  V30 13742 O 1302.38 0.388946 1.72674 0
M  V30 13743 C 1299.5 1.04907 3.26878 0
M  V30 13744 C 1298.59 2.20061 3.62538 0
M  V30 13745 N 1298.98 3.45347 3.69553 0
M  V30 13746 C 1297.28 2.11688 3.92561 0
M  V30 13747 C 1297.98 4.21138 4.0127 0
M  V30 13748 N 1296.96 3.5001 4.15925 0
M  V30 13749 H 1300.76 2.21295 1.93405 0
M  V30 13750 H 1298.27 1.28668 0.990877 0
M  V30 13751 H 1300.27 0.960791 4.05678 0
M  V30 13752 H 1298.93 0.108921 3.24517 0
M  V30 13753 H 1299.94 3.79561 3.52355 0
M  V30 13754 H 1296.62 1.25592 3.98162 0
M  V30 13755 H 1298.01 5.29456 4.13673 0
M  V30 13756 N 1300.73 -1.01913 1.20215 0
M  V30 13757 C 1301.66 -2.10043 0.89203 0
M  V30 13758 C 1302.64 -1.61861 -0.154873 0
M  V30 13759 O 1303.82 -1.88478 -0.0290135 0
M  V30 13760 C 1300.95 -3.37021 0.336813 0
M  V30 13761 C 1300 -4.0409 1.36431 0
M  V30 13762 S 1300.83 -4.48334 2.92843 0
M  V30 13763 C 1301.99 -5.78517 2.3889 0
M  V30 13764 H 1302.22 -2.36025 1.80775 0
M  V30 13765 H 1299.75 -1.14992 1.03035 0
M  V30 13766 H 1301.71 -4.10494 0.0230191 0
M  V30 13767 H 1300.37 -3.09115 -0.557363 0
M  V30 13768 H 1299.56 -4.95436 0.925147 0
M  V30 13769 H 1299.17 -3.36831 1.62545 0
M  V30 13770 H 1301.46 -6.53564 1.78494 0
M  V30 13771 H 1302.4 -6.27226 3.28623 0
M  V30 13772 H 1302.81 -5.34658 1.8111 0
M  V30 13773 N 1302.21 -1.00763 -1.2118 0
M  V30 13774 C 1303.15 -0.563428 -2.25673 0
M  V30 13775 C 1304.15 0.393342 -1.6477 0
M  V30 13776 O 1305.35 0.264246 -1.7805 0
M  V30 13777 H 1301.73 -0.163862 -0.73393 0
M  V30 13778 H 1303.7 -1.45585 -2.60476 0
M  V30 13779 C 1302.45 0.0915599 -3.47579 0
M  V30 13780 H 1301.77 -0.635628 -3.94715 0
M  V30 13781 H 1303.21 0.36561 -4.22421 0
M  V30 13782 C 1301.67 1.33159 -3.09468 0
M  V30 13783 O 1302.2 2.42571 -3.20191 0
M  V30 13784 N 1300.41 1.21231 -2.64105 0
M  V30 13785 H 1299.95 0.322021 -2.55579 0
M  V30 13786 H 1299.91 2.04301 -2.38974 0
M  V30 13787 N 1303.68 1.3679 -0.7827 0
M  V30 13788 C 1304.63 2.27508 -0.149734 0
M  V30 13789 C 1305.62 1.46634 0.662368 0
M  V30 13790 O 1306.81 1.6908 0.523544 0
M  V30 13791 C 1303.94 3.35666 0.719939 0
M  V30 13792 C 1303.03 4.23981 -0.100588 0
M  V30 13793 N 1303.42 4.92513 -1.15173 0
M  V30 13794 C 1301.71 4.45834 0.121653 0
M  V30 13795 C 1302.42 5.57788 -1.65067 0
M  V30 13796 N 1301.39 5.35038 -0.96101 0
M  V30 13797 H 1305.19 2.77973 -0.954365 0
M  V30 13798 H 1302.71 1.50037 -0.62151 0
M  V30 13799 H 1304.7 3.99578 1.18926 0
M  V30 13800 H 1303.36 2.86756 1.52319 0
M  V30 13801 H 1304.38 4.94658 -1.53406 0
M  V30 13802 H 1301.05 4.07773 0.895945 0
M  V30 13803 H 1302.44 6.22534 -2.52787 0
M  V30 13804 N 1305.16 0.53415 1.48272 0
M  V30 13805 C 1306.09 -0.263508 2.2768 0
M  V30 13806 C 1307.11 -0.90064 1.35618 0
M  V30 13807 O 1308.3 -0.778379 1.60635 0
M  V30 13808 C 1305.4 -1.38878 3.09138 0
M  V30 13809 C 1304.57 -0.852784 4.29006 0
M  V30 13810 C 1303.63 -1.85969 4.92242 0
M  V30 13811 O 1302.65 -1.41497 5.51332 0
M  V30 13812 N 1303.86 -3.19207 4.84858 0
M  V30 13813 H 1306.62 0.417548 2.96777 0
M  V30 13814 H 1304.18 0.368743 1.57645 0
M  V30 13815 H 1306.17 -2.06062 3.48311 0
M  V30 13816 H 1304.74 -1.97343 2.42434 0
M  V30 13817 H 1303.96 -0.0048227 3.942 0
M  V30 13818 H 1305.25 -0.473634 5.06591 0
M  V30 13819 H 1304.65 -3.58001 4.38009 0
M  V30 13820 H 1303.21 -3.82013 5.28119 0
M  V30 13821 N 1306.64 -1.55279 0.269478 0
M  V30 13822 C 1307.92 -1.91458 -0.400412 0
M  V30 13823 C 1308.3 -1.19306 -1.74153 0
M  V30 13824 O 1307.65 -0.318017 -2.26276 0
M  V30 13825 C 1307.86 -3.44698 -0.546258 0
M  V30 13826 C 1309.2 -4.16374 -0.831758 0
M  V30 13827 O 1310.23 -3.50561 -0.631279 0
M  V30 13828 O 1309.09 -5.32826 -1.21484 0
M  V30 13829 H 1306.18 -0.79766 -0.218328 0
M  V30 13830 H 1308.73 -1.66747 0.315214 0
M  V30 13831 H 1307.5 -3.89273 0.397784 0
M  V30 13832 H 1307.12 -3.75345 -1.31157 0
M  V30 13833 N 1308.12 0.00332656 -1.576 0
M  V30 13834 C 1309.08 0.980628 -2.07163 0
M  V30 13835 C 1310.08 1.27455 -0.980402 0
M  V30 13836 O 1311.27 1.22029 -1.24317 0
M  V30 13837 C 1308.4 2.30647 -2.51028 0
M  V30 13838 H 1309.6 0.551982 -2.94776 0
M  V30 13839 H 1307.15 0.250728 -1.54276 0
M  V30 13840 H 1307.88 2.78207 -1.66647 0
M  V30 13841 H 1307.67 2.10635 -3.30719 0
M  V30 13842 H 1309.16 3.00761 -2.89711 0
M  V30 13843 N 1309.6 1.55164 0.276031 0
M  V30 13844 C 1310.53 1.90844 1.34539 0
M  V30 13845 C 1311.51 0.769968 1.51676 0
M  V30 13846 O 1312.69 1.02785 1.64769 0
M  V30 13847 C 1309.82 2.17769 2.70543 0
M  V30 13848 C 1308.78 3.33592 2.68142 0
M  V30 13849 C 1308.1 3.45991 4.07669 0
M  V30 13850 C 1309.4 4.70064 2.27678 0
M  V30 13851 H 1311.1 2.80412 1.04926 0
M  V30 13852 H 1308.64 1.34918 0.503303 0
M  V30 13853 H 1310.6 2.41317 3.45462 0
M  V30 13854 H 1309.32 1.24997 3.01734 0
M  V30 13855 H 1307.98 3.10007 1.95681 0
M  V30 13856 H 1307.63 2.50691 4.36077 0
M  V30 13857 H 1307.33 4.23862 4.06958 0
M  V30 13858 H 1308.85 3.71828 4.84331 0
M  V30 13859 H 1310.26 4.93176 2.92319 0
M  V30 13860 H 1308.66 5.50829 2.38134 0
M  V30 13861 H 1309.73 4.69091 1.22808 0
M  V30 13862 N 1311.07 -0.540404 1.48045 0
M  V30 13863 C 1312.32 -1.29422 1.55224 0
M  V30 13864 C 1312.64 -1.93716 0.223365 0
M  V30 13865 O 1311.91 -1.808 -0.754204 0
M  V30 13866 H 1310.49 -0.480658 0.571819 0
M  V30 13867 H 1313.16 -0.629712 1.84447 0
M  V30 13868 H 1312.25 -2.07897 2.32777 0
M  V30 13869 N 1312.55 -1.36459 -0.788468 0
M  V30 13870 C 1313.48 -1.33545 -1.91541 0
M  V30 13871 C 1314.46 -0.206762 -1.68839 0
M  V30 13872 O 1315.65 -0.404553 -1.89939 0
M  V30 13873 C 1312.78 -1.12492 -3.28577 0
M  V30 13874 C 1311.73 -2.22196 -3.65805 0
M  V30 13875 C 1311.06 -1.86285 -5.01201 0
M  V30 13876 C 1312.36 -3.64286 -3.7429 0
M  V30 13877 H 1314.05 -2.27844 -1.94236 0
M  V30 13878 H 1311.6 -1.09677 -0.933105 0
M  V30 13879 H 1313.55 -1.09089 -4.07035 0
M  V30 13880 H 1312.28 -0.146446 -3.26272 0
M  V30 13881 H 1310.93 -2.24727 -2.89644 0
M  V30 13882 H 1310.58 -0.87009 -4.95417 0
M  V30 13883 H 1310.28 -2.59734 -5.27079 0
M  V30 13884 H 1311.81 -1.84439 -5.82078 0
M  V30 13885 H 1313.22 -3.63977 -4.42937 0
M  V30 13886 H 1311.62 -4.36648 -4.11653 0
M  V30 13887 H 1312.69 -3.99123 -2.75371 0
M  V30 13888 N 1314.03 1.01274 -1.20754 0
M  V30 13889 C 1314.96 2.11763 -0.983805 0
M  V30 13890 C 1315.94 1.69869 0.0885635 0
M  V30 13891 O 1317.13 1.94075 -0.0697239 0
M  V30 13892 C 1314.26 3.43087 -0.539287 0
M  V30 13893 C 1313.21 3.9874 -1.55534 0
M  V30 13894 C 1312.54 5.25877 -0.967322 0
M  V30 13895 C 1313.84 4.31688 -2.94012 0
M  V30 13896 H 1315.53 2.30737 -1.90789 0
M  V30 13897 H 1313.08 1.10884 -0.918734 0
M  V30 13898 H 1315.03 4.19773 -0.369979 0
M  V30 13899 H 1313.75 3.23883 0.420435 0
M  V30 13900 H 1312.41 3.24166 -1.71207 0
M  V30 13901 H 1312.06 5.03 0.000448307 0
M  V30 13902 H 1311.76 5.64077 -1.64594 0
M  V30 13903 H 1313.28 6.05215 -0.809167 0
M  V30 13904 H 1314.7 4.99246 -2.81827 0
M  V30 13905 H 1313.1 4.81011 -3.58815 0
M  V30 13906 H 1314.17 3.4029 -3.45442 0
M  V30 13907 N 1315.51 1.01404 1.20644 0
M  V30 13908 C 1316.46 0.552956 2.21193 0
M  V30 13909 C 1317.44 -0.390324 1.56094 0
M  V30 13910 O 1318.64 -0.213705 1.75705 0
M  V30 13911 C 1315.76 -0.10995 3.43124 0
M  V30 13912 C 1314.85 0.854886 4.15394 0
M  V30 13913 N 1315.24 2.01137 4.64088 0
M  V30 13914 C 1313.54 0.675168 4.4086 0
M  V30 13915 C 1314.24 2.6187 5.19422 0
M  V30 13916 N 1313.22 1.89952 5.09332 0
M  V30 13917 H 1317.02 1.43467 2.56504 0
M  V30 13918 H 1314.53 0.87905 1.36552 0
M  V30 13919 H 1316.53 -0.457802 4.14379 0
M  V30 13920 H 1315.19 -0.987534 3.09318 0
M  V30 13921 H 1316.2 2.3914 4.59383 0
M  V30 13922 H 1312.88 -0.154577 4.17214 0
M  V30 13923 H 1314.27 3.59727 5.67491 0
M  V30 13924 N 1316.99 -1.36373 0.789944 0
M  V30 13925 C 1317.95 -2.28372 0.194639 0
M  V30 13926 C 1318.95 -1.48849 -0.608332 0
M  V30 13927 O 1320.14 -1.68829 -0.42925 0
M  V30 13928 C 1317.27 -3.3298 -0.730553 0
M  V30 13929 H 1318.47 -2.82529 1.00585 0
M  V30 13930 H 1316.02 -1.45946 0.559406 0
M  V30 13931 H 1316.75 -2.8398 -1.56608 0
M  V30 13932 H 1316.54 -3.91787 -0.156706 0
M  V30 13933 H 1318.03 -4.01684 -1.14192 0
M  V30 13934 N 1318.47 -0.542005 -1.47987 0
M  V30 13935 C 1319.69 -0.016717 -2.06893 0
M  V30 13936 C 1320.11 1.27015 -1.39687 0
M  V30 13937 O 1319.47 1.75845 -0.488326 0
M  V30 13938 C 1319.52 0.198437 -3.60955 0
M  V30 13939 O 1319.24 -1.03746 -4.25639 0
M  V30 13940 C 1320.74 0.762741 -4.36689 0
M  V30 13941 H 1317.96 -0.0389497 -0.669869 0
M  V30 13942 H 1320.5 -0.751082 -1.90208 0
M  V30 13943 H 1318.66 0.882884 -3.77205 0
M  V30 13944 H 1319.07 -0.82568 -5.1796 0
M  V30 13945 H 1320.55 0.862649 -5.45218 0
M  V30 13946 H 1321.02 1.77049 -4.01933 0
M  V30 13947 H 1321.63 0.114478 -4.25146 0
M  V30 13948 N 1319.94 1.55134 -0.277709 0
M  V30 13949 C 1321.19 1.99654 0.33833 0
M  V30 13950 C 1321.52 1.16612 1.55666 0
M  V30 13951 O 1320.77 0.224428 1.94409 0
M  V30 13952 C 1321.07 3.49182 0.762028 0
M  V30 13953 C 1320.74 4.49524 -0.351958 0
M  V30 13954 C 1319.4 4.76682 -0.657833 0
M  V30 13955 C 1321.75 5.09406 -1.10247 0
M  V30 13956 C 1319.08 5.6099 -1.71776 0
M  V30 13957 C 1321.43 5.94866 -2.15214 0
M  V30 13958 C 1320.1 6.20344 -2.46434 0
M  V30 13959 H 1319.37 0.730584 0.123804 0
M  V30 13960 H 1322.01 1.87446 -0.391961 0
M  V30 13961 H 1320.32 3.58879 1.57204 0
M  V30 13962 H 1322.02 3.81037 1.24947 0
M  V30 13963 H 1318.61 4.28475 -0.103438 0
M  V30 13964 H 1322.79 4.88446 -0.879422 0
M  V30 13965 H 1318.05 5.78975 -1.96463 0
M  V30 13966 H 1322.22 6.403 -2.73842 0
M  V30 13967 H 1319.85 6.85464 -3.28699 0
M  V30 13968 N 1321.42 0.00503138 1.57599 0
M  V30 13969 C 1322.83 -0.537106 1.78807 0
M  V30 13970 C 1323.18 -1.73666 0.912945 0
M  V30 13971 O 1322.31 -2.16085 0.116775 0
M  V30 13972 C 1322.9 -0.98116 3.24282 0
M  V30 13973 C 1321.46 -1.46857 3.46569 0
M  V30 13974 C 1320.61 -0.422088 2.74069 0
M  V30 13975 H 1323.56 0.231182 1.57007 0
M  V30 13976 H 1323.58 -1.8469 3.32671 0
M  V30 13977 H 1323.09 -0.107907 3.8795 0
M  V30 13978 H 1321.19 -2.36255 2.88122 0
M  V30 13979 H 1321.31 -1.49256 4.55258 0
M  V30 13980 H 1319.67 -0.884853 2.38836 0
M  V30 13981 H 1320.45 0.442285 3.40439 0
M  V30 13982 N 1322.9 -1.55308 -0.267798 0
M  V30 13983 C 1324.18 -1.66881 -1.02029 0
M  V30 13984 C 1324.56 -0.538708 -2.04111 0
M  V30 13985 O 1323.9 0.460575 -2.2381 0
M  V30 13986 C 1324.11 -3.06318 -1.67243 0
M  V30 13987 C 1325.46 -3.64237 -2.18212 0
M  V30 13988 O 1326.49 -3.08984 -1.77221 0
M  V30 13989 O 1325.35 -4.61055 -2.93413 0
M  V30 13990 H 1322.44 -0.677967 -0.473593 0
M  V30 13991 H 1324.99 -1.67646 -0.263242 0
M  V30 13992 H 1323.76 -3.80015 -0.932985 0
M  V30 13993 H 1323.38 -3.09475 -2.49622 0
M  V30 13994 N 1324.38 0.532545 -1.4833 0
M  V30 13995 C 1325.31 1.65325 -1.58746 0
M  V30 13996 C 1326.32 1.5581 -0.471925 0
M  V30 13997 O 1327.51 1.62317 -0.742656 0
M  V30 13998 C 1324.61 3.03957 -1.49877 0
M  V30 13999 C 1323.78 3.38979 -2.76427 0
M  V30 14000 C 1322.84 4.56881 -2.61048 0
M  V30 14001 O 1321.87 4.6023 -3.34928 0
M  V30 14002 N 1323.07 5.54898 -1.70496 0
M  V30 14003 H 1325.84 1.56827 -2.55393 0
M  V30 14004 H 1323.4 0.71976 -1.45021 0
M  V30 14005 H 1325.39 3.80702 -1.37288 0
M  V30 14006 H 1323.96 3.06548 -0.612158 0
M  V30 14007 H 1323.18 2.51438 -3.03599 0
M  V30 14008 H 1324.47 3.59163 -3.60388 0
M  V30 14009 H 1323.87 5.54968 -1.0967 0
M  V30 14010 H 1322.42 6.3087 -1.63847 0
M  V30 14011 N 1325.86 1.36875 0.78122 0
M  V30 14012 C 1326.77 1.3404 1.92537 0
M  V30 14013 C 1327.78 0.241354 1.72318 0
M  V30 14014 O 1328.96 0.475128 1.95715 0
M  V30 14015 C 1326.02 1.13708 3.27523 0
M  V30 14016 C 1325.08 2.33165 3.60462 0
M  V30 14017 C 1324.32 2.13793 4.89007 0
M  V30 14018 O 1324.54 1.11732 5.5935 0
M  V30 14019 O 1323.47 3.01762 5.20791 0
M  V30 14020 H 1327.3 2.30386 1.97879 0
M  V30 14021 H 1324.88 1.17506 0.922637 0
M  V30 14022 H 1326.77 1.0432 4.08283 0
M  V30 14023 H 1325.44 0.204306 3.23055 0
M  V30 14024 H 1324.35 2.48123 2.79974 0
M  V30 14025 H 1325.68 3.24977 3.69663 0
M  V30 14026 N 1327.33 -1.00632 1.21289 0
M  V30 14027 C 1328.58 -1.74647 1.03084 0
M  V30 14028 C 1328.91 -1.89271 -0.43476 0
M  V30 14029 O 1328.19 -1.42607 -1.32263 0
M  V30 14030 C 1328.47 -3.15981 1.72709 0
M  V30 14031 C 1328.32 -3.09088 3.2678 0
M  V30 14032 C 1329.64 -4.14875 1.46857 0
M  V30 14033 H 1326.76 -0.633938 0.375889 0
M  V30 14034 H 1329.4 -1.17328 1.49446 0
M  V30 14035 H 1327.55 -3.64918 1.33294 0
M  V30 14036 H 1329.23 -2.67875 3.75554 0
M  V30 14037 H 1327.47 -2.46223 3.57151 0
M  V30 14038 H 1328.14 -4.09041 3.70661 0
M  V30 14039 H 1330.62 -3.74637 1.81069 0
M  V30 14040 H 1329.49 -5.1191 1.98088 0
M  V30 14041 H 1329.75 -4.40302 0.398296 0
M  V30 14042 N 1328.81 -1.02043 -1.20104 0
M  V30 14043 C 1330.23 -0.735967 -1.41618 0
M  V30 14044 C 1330.43 0.68285 -1.89577 0
M  V30 14045 O 1329.48 1.45007 -2.06711 0
M  V30 14046 C 1330.8 -1.76492 -2.43457 0
M  V30 14047 C 1332.34 -1.78349 -2.57217 0
M  V30 14048 C 1332.82 -2.80181 -3.62302 0
M  V30 14049 N 1334.31 -2.78945 -3.69789 0
M  V30 14050 C 1335.05 -3.54395 -4.50768 0
M  V30 14051 N 1334.54 -4.39533 -5.35521 0
M  V30 14052 N 1336.33 -3.42974 -4.45337 0
M  V30 14053 H 1328.49 -1.93634 -0.872916 0
M  V30 14054 H 1330.75 -0.836663 -0.445757 0
M  V30 14055 H 1330.45 -2.78158 -2.15223 0
M  V30 14056 H 1330.33 -1.58022 -3.42504 0
M  V30 14057 H 1332.72 -0.773665 -2.84778 0
M  V30 14058 H 1332.8 -2.00894 -1.58352 0
M  V30 14059 H 1332.44 -3.81331 -3.35484 0
M  V30 14060 H 1332.37 -2.54898 -4.60798 0
M  V30 14061 H 1334.86 -2.17189 -3.09253 0
M  V30 14062 H 1335.17 -4.93863 -5.94407 0
M  V30 14063 H 1333.52 -4.43609 -5.3501 0
M  V30 14064 H 1336.71 -2.75881 -3.78163 0
M  V30 14065 H 1336.88 -4.02028 -5.0821 0
M  V30 14066 N 1330.29 1.35952 -0.797165 0
M  V30 14067 C 1331.71 1.52218 -0.479765 0
M  V30 14068 C 1331.91 1.74898 1.00064 0
M  V30 14069 O 1330.96 1.78495 1.78594 0
M  V30 14070 C 1332.28 2.70328 -1.31694 0
M  V30 14071 C 1333.82 2.84202 -1.31142 0
M  V30 14072 C 1334.3 4.05325 -2.13251 0
M  V30 14073 N 1335.79 4.12485 -2.10737 0
M  V30 14074 C 1336.52 5.053 -2.71033 0
M  V30 14075 N 1336.02 6.03509 -3.40219 0
M  V30 14076 N 1337.81 4.97975 -2.60725 0
M  V30 14077 H 1329.96 1.19486 -1.75604 0
M  V30 14078 H 1332.23 0.58383 -0.746892 0
M  V30 14079 H 1331.93 2.60116 -2.36712 0
M  V30 14080 H 1331.81 3.64684 -0.963607 0
M  V30 14081 H 1334.19 2.9387 -0.269131 0
M  V30 14082 H 1334.28 1.9073 -1.70457 0
M  V30 14083 H 1333.92 3.96417 -3.17515 0
M  V30 14084 H 1333.85 4.97959 -1.71302 0
M  V30 14085 H 1336.34 3.42174 -1.6039 0
M  V30 14086 H 1336.65 6.70909 -3.83537 0
M  V30 14087 H 1335 6.03711 -3.44322 0
M  V30 14088 H 1338.19 4.20203 -2.0627 0
M  V30 14089 H 1338.36 5.70119 -3.08007 0
M  V30 14090 N 1331.77 0.549846 1.47697 0
M  V30 14091 C 1332.7 -0.249645 2.2683 0
M  V30 14092 C 1333.68 -0.926968 1.33589 0
M  V30 14093 O 1334.86 -0.947423 1.62961 0
M  V30 14094 C 1331.99 -1.35511 3.1041 0
M  V30 14095 C 1331.04 -0.787118 4.19174 0
M  V30 14096 S 1331.87 0.360564 5.34285 0
M  V30 14097 C 1333.03 -0.746898 6.21428 0
M  V30 14098 H 1333.26 0.421876 2.94292 0
M  V30 14099 H 1330.79 0.336017 1.50699 0
M  V30 14100 H 1332.75 -1.98825 3.59137 0
M  V30 14101 H 1331.41 -1.99844 2.42325 0
M  V30 14102 H 1330.6 -1.61704 4.77355 0
M  V30 14103 H 1330.21 -0.230301 3.7329 0
M  V30 14104 H 1332.5 -1.6408 6.57331 0
M  V30 14105 H 1333.44 -0.202608 7.0781 0
M  V30 14106 H 1333.85 -1.03625 5.54907 0
M  V30 14107 N 1333.25 -1.54984 0.285932 0
M  V30 14108 C 1334.21 -2.2164 -0.583824 0
M  V30 14109 C 1335.21 -1.19764 -1.073 0
M  V30 14110 O 1336.4 -1.44598 -0.971439 0
M  V30 14111 C 1333.53 -2.8909 -1.80665 0
M  V30 14112 H 1334.72 -2.999 -0.00168109 0
M  V30 14113 H 1332.28 -1.56257 0.0366325 0
M  V30 14114 H 1333.01 -2.14869 -2.42903 0
M  V30 14115 H 1332.8 -3.63756 -1.4637 0
M  V30 14116 H 1334.29 -3.39982 -2.42491 0
M  V30 14117 N 1334.72 -0.0133892 -1.57594 0
M  V30 14118 C 1335.97 0.669624 -1.91426 0
M  V30 14119 C 1336.3 1.72675 -0.888656 0
M  V30 14120 O 1335.58 1.94288 0.0908138 0
M  V30 14121 C 1335.86 1.30051 -3.35796 0
M  V30 14122 C 1335.71 0.254021 -4.49082 0
M  V30 14123 C 1337.03 2.22297 -3.79832 0
M  V30 14124 H 1334.15 0.241958 -0.69615 0
M  V30 14125 H 1336.79 -0.0674278 -1.8988 0
M  V30 14126 H 1334.94 1.92871 -3.37243 0
M  V30 14127 H 1336.62 -0.375524 -4.59769 0
M  V30 14128 H 1334.86 -0.422267 -4.3174 0
M  V30 14129 H 1335.53 0.734756 -5.47088 0
M  V30 14130 H 1338.01 1.69481 -3.8002 0
M  V30 14131 H 1336.88 2.634 -4.81572 0
M  V30 14132 H 1337.14 3.10764 -3.14449 0
M  V30 14133 N 1336.2 1.55448 0.259558 0
M  V30 14134 C 1337.13 1.85678 1.34373 0
M  V30 14135 C 1338.15 0.742155 1.449 0
M  V30 14136 O 1339.34 1.02015 1.46476 0
M  V30 14137 C 1336.44 2.01668 2.72366 0
M  V30 14138 C 1335.61 3.32434 2.84265 0
M  V30 14139 C 1334.67 3.38322 4.03019 0
M  V30 14140 O 1333.69 4.11616 3.93143 0
M  V30 14141 N 1334.9 2.66697 5.1561 0
M  V30 14142 H 1337.66 2.79261 1.08781 0
M  V30 14143 H 1335.22 1.5553 0.449672 0
M  V30 14144 H 1337.21 2.02963 3.50126 0
M  V30 14145 H 1335.78 1.14889 2.90722 0
M  V30 14146 H 1335 3.43564 1.93281 0
M  V30 14147 H 1336.29 4.18649 2.89155 0
M  V30 14148 H 1335.69 2.06857 5.26523 0
M  V30 14149 H 1334.25 2.73699 5.91551 0
M  V30 14150 N 1337.68 -0.524672 1.4861 0
M  V30 14151 C 1338.93 -1.27958 1.58108 0
M  V30 14152 C 1339.28 -1.90716 0.254003 0
M  V30 14153 O 1338.57 -1.7658 -0.743646 0
M  V30 14154 C 1338.77 -2.3871 2.65993 0
M  V30 14155 C 1338.6 -1.86809 4.09063 0
M  V30 14156 C 1337.37 -1.69174 4.76139 0
M  V30 14157 C 1339.57 -1.39355 4.9506 0
M  V30 14158 N 1337.55 -1.11954 6.03605 0
M  V30 14159 C 1338.92 -0.941175 6.12815 0
M  V30 14160 C 1340.97 -1.27708 4.81243 0
M  V30 14161 C 1339.68 -0.383863 7.18275 0
M  V30 14162 C 1341.7 -0.733756 5.8683 0
M  V30 14163 C 1341.06 -0.291479 7.03797 0
M  V30 14164 H 1337.16 -0.459061 0.633077 0
M  V30 14165 H 1339.75 -0.590966 1.85515 0
M  V30 14166 H 1337.92 -3.05061 2.404 0
M  V30 14167 H 1339.65 -3.05744 2.65146 0
M  V30 14168 H 1336.41 -1.92852 4.32556 0
M  V30 14169 H 1336.83 -0.853395 6.716 0
M  V30 14170 H 1341.47 -1.60506 3.91149 0
M  V30 14171 H 1339.19 -0.0435691 8.08088 0
M  V30 14172 H 1342.78 -0.646737 5.78194 0
M  V30 14173 H 1341.66 0.122396 7.84104 0
M  V30 14174 N 1339.16 -1.37287 -0.77395 0
M  V30 14175 C 1340.41 -1.31698 -1.52769 0
M  V30 14176 C 1340.72 0.0968585 -1.9536 0
M  V30 14177 O 1341.93 0.275205 -2.70102 0
M  V30 14178 C 1340.38 -2.31154 -2.75854 0
M  V30 14179 C 1339.99 -3.78055 -2.40371 0
M  V30 14180 C 1341.73 -2.34572 -3.53803 0
M  V30 14181 C 1339.64 -4.69248 -3.59945 0
M  V30 14182 H 1338.57 -0.489456 -0.573541 0
M  V30 14183 H 1341.22 -1.62735 -0.84791 0
M  V30 14184 H 1339.6 -1.93132 -3.45711 0
M  V30 14185 H 1340.78 -4.24902 -1.78312 0
M  V30 14186 H 1339.09 -3.77562 -1.75602 0
M  V30 14187 H 1341.69 -2.99908 -4.42673 0
M  V30 14188 H 1342.03 -1.35868 -3.93504 0
M  V30 14189 H 1342.57 -2.7129 -2.90941 0
M  V30 14190 H 1339.31 -5.69072 -3.25327 0
M  V30 14191 H 1338.83 -4.27108 -4.21117 0
M  V30 14192 H 1340.5 -4.86275 -4.26785 0
M  V30 14193 N 1340.64 0.999871 -1.21821 0
M  V30 14194 C 1341.88 1.73497 -1.0365 0
M  V30 14195 C 1342.21 1.90194 0.430271 0
M  V30 14196 O 1341.48 1.45655 1.31002 0
M  V30 14197 H 1340.06 0.642804 -0.380541 0
M  V30 14198 H 1342.72 1.20461 -1.53216 0
M  V30 14199 H 1341.81 2.73215 -1.50864 0
M  V30 14200 N 1342.11 1.02678 1.19562 0
M  V30 14201 C 1343.34 0.741424 1.93695 0
M  V30 14202 C 1343.76 -0.693203 1.74861 0
M  V30 14203 O 1343.12 -1.47833 1.04953 0
M  V30 14204 C 1343.17 1.09514 3.43568 0
M  V30 14205 O 1342.27 0.212596 4.11852 0
M  V30 14206 H 1341.62 0.274128 0.604773 0
M  V30 14207 H 1344.15 1.37289 1.517 0
M  V30 14208 H 1344.16 1.05115 3.94227 0
M  V30 14209 H 1342.83 2.14034 3.56598 0
M  V30 14210 H 1341.41 0.315 3.71567 0
M  V30 14211 N 1343.59 -1.35528 0.804364 0
M  V30 14212 C 1344.52 -2.32388 0.227604 0
M  V30 14213 C 1345.5 -1.57368 -0.645709 0
M  V30 14214 O 1346.69 -1.85448 -0.576441 0
M  V30 14215 C 1343.82 -3.41603 -0.62645 0
M  V30 14216 C 1342.77 -4.27743 0.148187 0
M  V30 14217 C 1342.1 -5.28259 -0.827425 0
M  V30 14218 C 1343.4 -5.04661 1.34591 0
M  V30 14219 H 1345.09 -2.80874 1.03684 0
M  V30 14220 H 1342.64 -1.3504 0.500031 0
M  V30 14221 H 1344.59 -4.08365 -1.03999 0
M  V30 14222 H 1343.32 -2.91721 -1.46855 0
M  V30 14223 H 1341.97 -3.62558 0.542874 0
M  V30 14224 H 1341.62 -4.74645 -1.66496 0
M  V30 14225 H 1341.32 -5.86763 -0.313453 0
M  V30 14226 H 1342.85 -5.97893 -1.23921 0
M  V30 14227 H 1344.26 -5.6438 1.00736 0
M  V30 14228 H 1342.66 -5.7265 1.79422 0
M  V30 14229 H 1343.73 -4.35432 2.1337 0
M  V30 14230 N 1345.07 -0.557671 -1.47404 0
M  V30 14231 C 1346.3 -0.0366797 -2.07368 0
M  V30 14232 C 1346.72 1.2478 -1.40754 0
M  V30 14233 O 1346.08 1.74757 -0.48268 0
M  V30 14234 C 1346.13 0.141728 -3.60321 0
M  V30 14235 O 1345.23 1.20419 -3.94427 0
M  V30 14236 H 1344.57 -0.0515319 -0.661997 0
M  V30 14237 H 1347.1 -0.773485 -1.89416 0
M  V30 14238 H 1347.11 0.355787 -4.06446 0
M  V30 14239 H 1345.79 -0.796433 -4.08203 0
M  V30 14240 H 1344.36 0.970589 -3.60047 0
M  V30 14241 N 1346.55 1.54831 -0.294147 0
M  V30 14242 C 1347.83 1.92071 0.369902 0
M  V30 14243 C 1348.21 1.22061 1.72233 0
M  V30 14244 O 1347.55 0.353975 2.25742 0
M  V30 14245 C 1347.76 3.45524 0.49135 0
M  V30 14246 C 1349.11 4.17644 0.765411 0
M  V30 14247 O 1350.14 3.51521 0.575428 0
M  V30 14248 O 1349 5.34692 1.12992 0
M  V30 14249 H 1346.09 0.801033 0.20561 0
M  V30 14250 H 1348.64 1.66224 -0.341702 0
M  V30 14251 H 1347.41 3.88591 -0.459663 0
M  V30 14252 H 1347.03 3.77384 1.25169 0
M  V30 14253 N 1348.03 0.0217466 1.57585 0
M  V30 14254 C 1348.99 -0.947546 2.08696 0
M  V30 14255 C 1349.99 -1.25879 1.00055 0
M  V30 14256 O 1351.18 -1.20035 1.26242 0
M  V30 14257 C 1348.31 -2.26624 2.54665 0
M  V30 14258 H 1349.51 -0.505016 2.95617 0
M  V30 14259 H 1347.06 -0.226152 1.54655 0
M  V30 14260 H 1347.79 -2.75521 1.71052 0
M  V30 14261 H 1347.58 -2.05347 3.34028 0
M  V30 14262 H 1349.07 -2.96114 2.94459 0
M  V30 14263 N 1349.51 -1.55583 -0.251311 0
M  V30 14264 C 1350.42 -1.93073 -1.33266 0
M  V30 14265 C 1351.43 -0.830612 -1.52895 0
M  V30 14266 O 1352.61 -1.13162 -1.66602 0
M  V30 14267 C 1349.67 -2.21396 -2.66805 0
M  V30 14268 C 1348.73 -3.44815 -2.55737 0
M  V30 14269 C 1347.97 -3.71777 -3.82907 0
M  V30 14270 O 1348.19 -3.00884 -4.84587 0
M  V30 14271 O 1347.12 -4.65305 -3.81805 0
M  V30 14272 H 1350.95 -2.85168 -1.04465 0
M  V30 14273 H 1348.53 -1.42408 -0.451693 0
M  V30 14274 H 1350.42 -2.4094 -3.45725 0
M  V30 14275 H 1349.09 -1.3248 -2.95348 0
M  V30 14276 H 1348 -3.30582 -1.75118 0
M  V30 14277 H 1349.33 -4.34019 -2.32139 0
M  V30 14278 N 1350.98 0.516783 -1.48886 0
M  V30 14279 C 1351.91 1.62897 -1.67292 0
M  V30 14280 C 1352.89 1.61903 -0.521671 0
M  V30 14281 O 1354.08 1.78892 -0.755728 0
M  V30 14282 C 1351.21 3.01444 -1.72478 0
M  V30 14283 C 1350.16 3.173 -2.87236 0
M  V30 14284 C 1349.49 4.5704 -2.77522 0
M  V30 14285 C 1350.79 2.98818 -4.28375 0
M  V30 14286 H 1352.48 1.47748 -2.60405 0
M  V30 14287 H 1350.03 0.709361 -1.25316 0
M  V30 14288 H 1351.98 3.79135 -1.83942 0
M  V30 14289 H 1350.71 3.17645 -0.759538 0
M  V30 14290 H 1349.37 2.4203 -2.75349 0
M  V30 14291 H 1349.01 4.70096 -1.78938 0
M  V30 14292 H 1348.71 4.68593 -3.54534 0
M  V30 14293 H 1350.24 5.36813 -2.90972 0
M  V30 14294 H 1351.65 3.66291 -4.41026 0
M  V30 14295 H 1350.05 3.21854 -5.06488 0
M  V30 14296 H 1351.12 1.95102 -4.43918 0
M  V30 14297 N 1352.46 1.37696 0.766659 0
M  V30 14298 C 1353.39 1.36576 1.89392 0
M  V30 14299 C 1354.37 0.233597 1.68488 0
M  V30 14300 O 1355.56 0.434719 1.89272 0
M  V30 14301 C 1352.69 1.17705 3.26746 0
M  V30 14302 C 1351.64 2.27987 3.62224 0
M  V30 14303 C 1350.97 1.94235 4.98174 0
M  V30 14304 C 1352.27 3.70195 3.68447 0
M  V30 14305 H 1353.96 2.30905 1.90587 0
M  V30 14306 H 1351.51 1.11148 0.915538 0
M  V30 14307 H 1353.46 1.15551 4.05248 0
M  V30 14308 H 1352.18 0.198334 3.25997 0
M  V30 14309 H 1350.84 2.29306 2.86032 0
M  V30 14310 H 1350.49 0.948796 4.93971 0
M  V30 14311 H 1350.19 2.68086 5.2288 0
M  V30 14312 H 1351.72 1.93676 5.7907 0
M  V30 14313 H 1353.13 3.70978 4.37091 0
M  V30 14314 H 1351.53 4.43142 4.04654 0
M  V30 14315 H 1352.6 4.03453 2.68986 0
M  V30 14316 N 1353.94 -0.993397 1.22349 0
M  V30 14317 C 1355.22 -1.7063 0.956275 0
M  V30 14318 C 1355.6 -2.0437 -0.52877 0
M  V30 14319 O 1354.94 -1.72662 -1.49667 0
M  V30 14320 C 1355.15 -2.95725 1.85331 0
M  V30 14321 C 1356.5 -3.68514 2.10909 0
M  V30 14322 O 1357.53 -3.05732 1.82775 0
M  V30 14323 O 1356.39 -4.81468 2.58556 0
M  V30 14324 H 1353.48 -0.744734 0.359583 0
M  V30 14325 H 1356.03 -1.04979 1.33333 0
M  V30 14326 H 1354.8 -2.6729 2.85782 0
M  V30 14327 H 1354.42 -3.69116 1.47781 0
M  V30 14328 N 1355.42 -1.03311 -1.19015 0
M  V30 14329 C 1356.65 -0.750712 -1.92478 0
M  V30 14330 C 1357.06 0.694964 -1.75974 0
M  V30 14331 O 1356.4 1.4847 -1.08177 0
M  V30 14332 C 1356.46 -1.02757 -3.44501 0
M  V30 14333 C 1356.12 -2.46565 -3.84779 0
M  V30 14334 C 1357.12 -3.44716 -3.89187 0
M  V30 14335 C 1354.81 -2.81076 -4.16295 0
M  V30 14336 C 1356.8 -4.75433 -4.24549 0
M  V30 14337 C 1354.49 -4.12002 -4.51329 0
M  V30 14338 C 1355.49 -5.08991 -4.55431 0
M  V30 14339 O 1355.17 -6.37571 -4.89652 0
M  V30 14340 H 1354.91 -0.273717 -0.618106 0
M  V30 14341 H 1357.46 -1.38176 -1.51975 0
M  V30 14342 H 1355.69 -0.339383 -3.85208 0
M  V30 14343 H 1357.38 -0.734175 -3.99205 0
M  V30 14344 H 1358.14 -3.19392 -3.64985 0
M  V30 14345 H 1354.02 -2.0626 -4.12284 0
M  V30 14346 H 1357.57 -5.51133 -4.27666 0
M  V30 14347 H 1353.46 -4.37098 -4.7499 0
M  V30 14348 H 1354.23 -6.42107 -5.07583 0
M  V30 14349 N 1356.9 1.35099 -0.81154 0
M  V30 14350 C 1357.83 2.32264 -0.239925 0
M  V30 14351 C 1358.81 1.57708 0.637354 0
M  V30 14352 O 1359.99 1.85751 0.566598 0
M  V30 14353 C 1357.12 3.41931 0.608325 0
M  V30 14354 C 1356.08 4.27659 -0.170869 0
M  V30 14355 C 1355.4 5.28691 0.799398 0
M  V30 14356 C 1356.7 5.0394 -1.37266 0
M  V30 14357 H 1358.4 2.8032 -1.05172 0
M  V30 14358 H 1355.94 1.34773 -0.507185 0
M  V30 14359 H 1357.89 4.08911 1.01832 0
M  V30 14360 H 1356.62 2.92496 1.45306 0
M  V30 14361 H 1355.28 3.62265 -0.562094 0
M  V30 14362 H 1354.93 4.75521 1.63977 0
M  V30 14363 H 1354.63 5.86921 0.282331 0
M  V30 14364 H 1356.15 5.98542 1.20749 0
M  V30 14365 H 1357.56 5.63838 -1.03728 0
M  V30 14366 H 1355.96 5.7169 -1.82456 0
M  V30 14367 H 1357.03 4.34295 -2.15676 0
M  V30 14368 N 1358.37 0.56548 1.47106 0
M  V30 14369 C 1359.78 0.134289 1.86216 0
M  V30 14370 C 1360.14 -1.29815 1.47114 0
M  V30 14371 O 1359.26 -1.97787 0.878017 0
M  V30 14372 C 1359.86 0.236931 3.37971 0
M  V30 14373 C 1358.41 -0.139275 3.76142 0
M  V30 14374 C 1357.56 0.580743 2.71151 0
M  V30 14375 H 1360.51 0.774723 1.38505 0
M  V30 14376 H 1360.53 -0.542301 3.76616 0
M  V30 14377 H 1360.05 1.27958 3.66399 0
M  V30 14378 H 1358.15 -1.18272 3.53331 0
M  V30 14379 H 1358.26 0.225045 4.78571 0
M  V30 14380 H 1356.62 0.0228963 2.5469 0
M  V30 14381 H 1357.41 1.62471 3.0242 0
M  V30 14382 N 1359.85 -1.54672 0.302354 0
M  V30 14383 C 1360.78 -2.21021 -0.606828 0
M  V30 14384 C 1361.8 -1.20337 -1.09648 0
M  V30 14385 O 1362.99 -1.46923 -1.0137 0
M  V30 14386 C 1360.09 -2.84411 -1.84293 0
M  V30 14387 C 1359.26 -4.11038 -1.49554 0
M  V30 14388 C 1358.32 -4.58219 -2.58693 0
M  V30 14389 O 1357.34 -5.23387 -2.23728 0
M  V30 14390 N 1358.55 -4.30651 -3.89256 0
M  V30 14391 H 1361.31 -2.99675 -0.0388221 0
M  V30 14392 H 1358.87 -1.6142 0.124614 0
M  V30 14393 H 1360.86 -3.12906 -2.56655 0
M  V30 14394 H 1359.43 -2.09589 -2.31929 0
M  V30 14395 H 1358.65 -3.89538 -0.604492 0
M  V30 14396 H 1359.94 -4.93488 -1.23884 0
M  V30 14397 H 1359.34 -3.78445 -4.20471 0
M  V30 14398 H 1357.9 -4.63853 -4.57913 0
M  V30 14399 N 1361.33 -0.0301034 -1.57571 0
M  V30 14400 C 1362.26 0.94977 -2.13311 0
M  V30 14401 C 1363.24 1.33865 -1.04948 0
M  V30 14402 O 1364.43 1.4171 -1.32786 0
M  V30 14403 C 1361.56 2.23178 -2.66099 0
M  V30 14404 C 1360.51 1.98362 -3.79258 0
M  V30 14405 C 1359.84 3.32836 -4.18479 0
M  V30 14406 C 1361.14 1.32201 -5.05292 0
M  V30 14407 H 1362.83 0.485562 -2.95436 0
M  V30 14408 H 1360.38 0.232116 -1.42117 0
M  V30 14409 H 1362.33 2.92108 -3.03728 0
M  V30 14410 H 1361.05 2.71766 -1.81137 0
M  V30 14411 H 1359.71 1.31849 -3.42069 0
M  V30 14412 H 1359.36 3.79185 -3.30496 0
M  V30 14413 H 1359.06 3.17037 -4.94733 0
M  V30 14414 H 1360.58 4.03032 -4.58691 0
M  V30 14415 H 1362 1.91133 -5.40501 0
M  V30 14416 H 1360.4 1.26797 -5.86551 0
M  V30 14417 H 1361.47 0.29511 -4.84001 0
M  V30 14418 N 1362.81 1.55714 0.243056 0
M  V30 14419 C 1364.05 1.77989 0.971993 0
M  V30 14420 C 1364.39 0.596038 1.84827 0
M  V30 14421 O 1363.66 -0.40554 1.90225 0
M  V30 14422 C 1363.95 3.10178 1.82925 0
M  V30 14423 C 1363.8 4.38974 0.9809 0
M  V30 14424 C 1365.12 3.38628 2.81103 0
M  V30 14425 H 1362.24 0.64754 0.35194 0
M  V30 14426 H 1364.88 1.88449 0.242237 0
M  V30 14427 H 1363.03 3.01392 2.45143 0
M  V30 14428 H 1364.7 4.59756 0.377113 0
M  V30 14429 H 1362.94 4.3286 0.285414 0
M  V30 14430 H 1363.61 5.27858 1.61461 0
M  V30 14431 H 1366.09 3.47403 2.29021 0
M  V30 14432 H 1364.97 4.32331 3.38203 0
M  V30 14433 H 1365.23 2.5973 3.57761 0
M  V30 14434 N 1364.29 -0.50888 1.49158 0
M  V30 14435 C 1365.22 -1.62778 1.61356 0
M  V30 14436 C 1366.23 -1.55039 0.496653 0
M  V30 14437 O 1367.42 -1.61115 0.768386 0
M  V30 14438 C 1364.52 -3.01534 1.54694 0
M  V30 14439 C 1363.69 -3.34539 2.81785 0
M  V30 14440 C 1362.75 -4.5267 2.68283 0
M  V30 14441 O 1361.78 -4.54844 3.42207 0
M  V30 14442 N 1362.98 -5.52115 1.79303 0
M  V30 14443 H 1365.75 -1.52744 2.57855 0
M  V30 14444 H 1363.31 -0.696597 1.46148 0
M  V30 14445 H 1365.3 -3.7847 1.43327 0
M  V30 14446 H 1363.87 -3.05535 0.660849 0
M  V30 14447 H 1363.09 -2.46576 3.07561 0
M  V30 14448 H 1364.38 -3.53384 3.66057 0
M  V30 14449 H 1363.77 -5.53153 1.18485 0
M  V30 14450 H 1362.33 -6.28184 1.73863 0
M  V30 14451 N 1365.76 -1.381 -0.759346 0
M  V30 14452 C 1366.73 -1.34674 -1.8546 0
M  V30 14453 C 1367.73 -0.248351 -1.58871 0
M  V30 14454 O 1368.92 -0.504915 -1.66722 0
M  V30 14455 C 1366.05 -1.0952 -3.22828 0
M  V30 14456 H 1367.24 -2.3211 -1.89908 0
M  V30 14457 H 1364.8 -1.2331 -0.960435 0
M  V30 14458 H 1365.53 -0.126664 -3.24053 0
M  V30 14459 H 1365.32 -1.89037 -3.43522 0
M  V30 14460 H 1366.81 -1.09804 -4.02906 0
M  V30 14461 N 1367.24 0.986894 -1.22875 0
M  V30 14462 C 1368.17 2.09628 -1.0285 0
M  V30 14463 C 1369.15 1.70019 0.0525118 0
M  V30 14464 O 1370.34 1.93883 -0.110874 0
M  V30 14465 C 1367.47 3.41866 -0.61194 0
M  V30 14466 C 1366.42 3.95351 -1.63956 0
M  V30 14467 C 1365.75 5.23707 -1.07865 0
M  V30 14468 C 1367.05 4.25354 -3.03102 0
M  V30 14469 H 1368.74 2.26639 -1.95641 0
M  V30 14470 H 1366.29 1.0891 -0.942048 0
M  V30 14471 H 1368.24 4.18893 -0.458936 0
M  V30 14472 H 1366.97 3.24701 0.35164 0
M  V30 14473 H 1365.62 3.20462 -1.78045 0
M  V30 14474 H 1365.27 5.02888 -0.106246 0
M  V30 14475 H 1364.97 5.60459 -1.76522 0
M  V30 14476 H 1366.5 6.03362 -0.937359 0
M  V30 14477 H 1367.91 4.93156 -2.92353 0
M  V30 14478 H 1366.31 4.73292 -3.68938 0
M  V30 14479 H 1367.38 3.32887 -3.52583 0
M  V30 14480 N 1368.72 1.0394 1.18466 0
M  V30 14481 C 1369.67 0.629352 2.22054 0
M  V30 14482 C 1370.64 -0.362187 1.62103 0
M  V30 14483 O 1371.82 -0.256457 1.89069 0
M  V30 14484 C 1368.96 -0.00282888 3.451 0
M  V30 14485 C 1368.08 1.03602 4.19393 0
M  V30 14486 C 1367.21 0.372492 5.29892 0
M  V30 14487 C 1366.25 1.39652 5.95956 0
M  V30 14488 N 1365.39 0.758053 6.97996 0
M  V30 14489 H 1370.23 1.51722 2.56485 0
M  V30 14490 H 1367.76 0.759043 1.26004 0
M  V30 14491 H 1369.72 -0.386688 4.15404 0
M  V30 14492 H 1368.35 -0.854224 3.11292 0
M  V30 14493 H 1367.4 1.53784 3.47929 0
M  V30 14494 H 1368.72 1.81387 4.64651 0
M  V30 14495 H 1367.87 -0.065642 6.06664 0
M  V30 14496 H 1366.61 -0.437462 4.85734 0
M  V30 14497 H 1365.61 1.84481 5.17926 0
M  V30 14498 H 1366.84 2.20816 6.42197 0
M  V30 14499 H 1364.78 -0.0316173 6.55992 0
M  V30 14500 H 1364.7 1.47363 7.41499 0
M  V30 14501 H 1365.97 0.344273 7.78739 0
M  V30 14502 N 1370.2 -1.34667 0.818693 0
M  V30 14503 C 1371.43 -2.02348 0.417002 0
M  V30 14504 C 1371.84 -1.61813 -0.980464 0
M  V30 14505 O 1371.18 -0.817232 -1.64521 0
M  V30 14506 C 1371.24 -3.56861 0.434779 0
M  V30 14507 C 1370.91 -4.20704 1.78485 0
M  V30 14508 C 1371.9 -4.41524 2.74504 0
M  V30 14509 C 1369.59 -4.57566 2.07217 0
M  V30 14510 C 1371.58 -4.98324 3.97431 0
M  V30 14511 C 1369.27 -5.14078 3.30405 0
M  V30 14512 C 1370.27 -5.344 4.2533 0
M  V30 14513 O 1369.95 -5.89717 5.46342 0
M  V30 14514 H 1369.69 -0.655279 0.16609 0
M  V30 14515 H 1372.24 -1.73011 1.10708 0
M  V30 14516 H 1370.47 -3.8544 -0.311973 0
M  V30 14517 H 1372.16 -4.05864 0.0537258 0
M  V30 14518 H 1372.93 -4.13414 2.53601 0
M  V30 14519 H 1368.8 -4.41054 1.34135 0
M  V30 14520 H 1372.35 -5.14102 4.71534 0
M  V30 14521 H 1368.25 -5.41616 3.51174 0
M  V30 14522 H 1369.01 -6.08155 5.47804 0
M  V30 14523 N 1371.68 -0.573274 -1.46804 0
M  V30 14524 C 1372.59 0.168081 -2.33997 0
M  V30 14525 C 1373.6 0.895652 -1.49178 0
M  V30 14526 O 1374.78 0.860951 -1.8207 0
M  V30 14527 C 1371.84 1.17483 -3.26188 0
M  V30 14528 C 1370.9 0.452956 -4.26904 0
M  V30 14529 C 1370.14 1.41175 -5.1469 0
M  V30 14530 O 1370.36 2.64767 -5.05227 0
M  V30 14531 O 1369.29 0.927472 -5.94711 0
M  V30 14532 H 1373.12 -0.547576 -2.98723 0
M  V30 14533 H 1370.71 -0.333747 -1.45624 0
M  V30 14534 H 1372.59 1.75557 -3.8309 0
M  V30 14535 H 1371.26 1.87213 -2.6407 0
M  V30 14536 H 1370.17 -0.169383 -3.73716 0
M  V30 14537 H 1371.5 -0.203186 -4.9178 0
M  V30 14538 N 1373.15 1.5451 -0.310553 0
M  V30 14539 C 1374.39 2.02236 0.296659 0
M  V30 14540 C 1374.76 1.19402 1.50357 0
M  V30 14541 O 1375.96 1.5687 2.18278 0
M  V30 14542 C 1374.23 3.51712 0.635107 0
M  V30 14543 S 1375.79 4.21388 1.22382 0
M  V30 14544 H 1372.61 0.705215 0.0905134 0
M  V30 14545 H 1375.21 1.90469 -0.440649 0
M  V30 14546 H 1373.91 4.09628 -0.251619 0
M  V30 14547 H 1373.44 3.67533 1.40295 0
M  V30 14548 H 1375.46 4.27962 2.51124 0
M  V30 14549 N 1374.63 0.0384594 1.57553 0
M  V30 14550 C 1375.86 -0.647137 1.96203 0
M  V30 14551 C 1376.27 -1.65656 0.914042 0
M  V30 14552 O 1375.61 -1.83361 -0.111617 0
M  V30 14553 C 1375.68 -1.40193 3.31038 0
M  V30 14554 C 1375.34 -0.549782 4.53681 0
M  V30 14555 C 1376.34 0.178839 5.19592 0
M  V30 14556 C 1374.02 -0.48444 4.99958 0
M  V30 14557 C 1376.02 0.961376 6.30108 0
M  V30 14558 C 1373.7 0.301795 6.10354 0
M  V30 14559 C 1374.7 1.0234 6.75289 0
M  V30 14560 O 1374.39 1.79673 7.83564 0
M  V30 14561 H 1374.12 -0.182651 0.650857 0
M  V30 14562 H 1376.68 0.0973346 2.05169 0
M  V30 14563 H 1374.91 -2.19175 3.1859 0
M  V30 14564 H 1376.59 -1.97653 3.54525 0
M  V30 14565 H 1377.36 0.137749 4.84804 0
M  V30 14566 H 1373.24 -1.03568 4.49216 0
M  V30 14567 H 1376.78 1.52513 6.80724 0
M  V30 14568 H 1372.68 0.344569 6.4458 0
M  V30 14569 H 1373.45 1.71749 8.00278 0
M  V30 14570 N 1376.11 -1.55841 -0.234795 0
M  V30 14571 C 1377.04 -1.94344 -1.29432 0
M  V30 14572 C 1378.02 -0.809912 -1.49581 0
M  V30 14573 O 1379.21 -1.07117 -1.61986 0
M  V30 14574 C 1376.34 -2.24866 -2.64675 0
M  V30 14575 C 1375.29 -3.40584 -2.59203 0
M  V30 14576 C 1374.62 -3.56678 -3.98353 0
M  V30 14577 C 1375.92 -4.75935 -2.15135 0
M  V30 14578 H 1377.61 -2.83096 -0.97454 0
M  V30 14579 H 1375.16 -1.36205 -0.467355 0
M  V30 14580 H 1377.11 -2.50392 -3.38942 0
M  V30 14581 H 1375.83 -1.32953 -2.98314 0
M  V30 14582 H 1374.49 -3.15087 -1.87393 0
M  V30 14583 H 1374.14 -2.62164 -4.29277 0
M  V30 14584 H 1373.84 -4.34503 -3.95577 0
M  V30 14585 H 1375.37 -3.84538 -4.74302 0
M  V30 14586 H 1376.78 -5.00753 -2.7914 0
M  V30 14587 H 1375.18 -5.56949 -2.23446 0
M  V30 14588 H 1376.25 -4.72182 -1.10328 0
M  V30 14589 N 1377.59 0.500963 -1.49426 0
M  V30 14590 C 1378.87 1.26231 -1.49416 0
M  V30 14591 C 1379.25 2.0993 -0.221908 0
M  V30 14592 O 1378.59 2.14198 0.795712 0
M  V30 14593 C 1378.8 2.11899 -2.77308 0
M  V30 14594 C 1380.15 2.71086 -3.26799 0
M  V30 14595 O 1381.18 2.22166 -2.78425 0
M  V30 14596 O 1380.04 3.60141 -4.11049 0
M  V30 14597 H 1377.13 0.571224 -0.598024 0
M  V30 14598 H 1379.68 0.51523 -1.61689 0
M  V30 14599 H 1378.45 1.50027 -3.61397 0
M  V30 14600 H 1378.07 2.93799 -2.67896 0
M  V30 14601 N 1379.07 1.38501 0.752011 0
M  V30 14602 C 1380.29 1.38212 1.54636 0
M  V30 14603 C 1380.72 -0.0256356 1.88083 0
M  V30 14604 O 1380.08 -1.00812 1.50687 0
M  V30 14605 C 1380.12 2.24597 2.82114 0
M  V30 14606 O 1379.23 1.66415 3.77332 0
M  V30 14607 H 1378.57 0.47138 0.46765 0
M  V30 14608 H 1381.1 1.82283 0.929205 0
M  V30 14609 H 1381.11 2.38511 3.31023 0
M  V30 14610 H 1379.78 3.26913 2.57101 0
M  V30 14611 H 1378.36 1.61651 3.36041 0
M  V30 14612 N 1380.55 -0.980364 1.23396 0
M  V30 14613 C 1381.96 -1.53622 1.061 0
M  V30 14614 C 1382.31 -1.92648 -0.371645 0
M  V30 14615 O 1381.43 -1.76051 -1.25837 0
M  V30 14616 C 1382.03 -2.79159 1.91979 0
M  V30 14617 C 1380.59 -3.31144 1.78943 0
M  V30 14618 C 1379.73 -2.04135 1.87681 0
M  V30 14619 H 1382.68 -0.800047 1.37058 0
M  V30 14620 H 1382.71 -3.52011 1.4446 0
M  V30 14621 H 1382.22 -2.50723 2.96242 0
M  V30 14622 H 1380.32 -3.64459 0.774634 0
M  V30 14623 H 1380.43 -4.009 2.62329 0
M  V30 14624 H 1378.8 -2.18271 1.31262 0
M  V30 14625 H 1379.58 -1.78081 2.93499 0
M  V30 14626 N 1382.02 -1.04567 -1.17913 0
M  V30 14627 C 1382.95 -0.662066 -2.23917 0
M  V30 14628 C 1383.93 0.33713 -1.66726 0
M  V30 14629 O 1385.12 0.216116 -1.92994 0
M  V30 14630 C 1382.25 -0.029463 -3.47288 0
M  V30 14631 C 1381.2 -0.95274 -4.17261 0
M  V30 14632 C 1380.53 -0.184347 -5.34382 0
M  V30 14633 C 1381.83 -2.2741 -4.70194 0
M  V30 14634 H 1383.52 -1.54826 -2.5626 0
M  V30 14635 H 1381.07 -0.745886 -1.23177 0
M  V30 14636 H 1383.02 0.250654 -4.20654 0
M  V30 14637 H 1381.75 0.891638 -3.14193 0
M  V30 14638 H 1380.41 -1.21732 -3.45799 0
M  V30 14639 H 1380.05 0.73932 -4.97537 0
M  V30 14640 H 1379.75 -0.79949 -5.82136 0
M  V30 14641 H 1381.28 0.0886344 -6.10536 0
M  V30 14642 H 1382.69 -2.05433 -5.35229 0
M  V30 14643 H 1381.09 -2.84265 -5.28501 0
M  V30 14644 H 1382.16 -2.91708 -3.87342 0
M  V30 14645 N 1383.5 1.34231 -0.825823 0
M  V30 14646 C 1384.75 1.9849 -0.415891 0
M  V30 14647 C 1385.08 1.6531 1.01913 0
M  V30 14648 O 1384.36 0.926223 1.7103 0
M  V30 14649 C 1384.64 3.54691 -0.621785 0
M  V30 14650 C 1384.49 3.97603 -2.10313 0
M  V30 14651 C 1385.81 4.4006 -0.0595871 0
M  V30 14652 H 1382.93 0.721032 -0.152582 0
M  V30 14653 H 1385.57 1.5908 -1.03892 0
M  V30 14654 H 1383.72 3.88392 -0.0914439 0
M  V30 14655 H 1385.39 3.74221 -2.69733 0
M  V30 14656 H 1383.64 3.47809 -2.59251 0
M  V30 14657 H 1384.31 5.06352 -2.19799 0
M  V30 14658 H 1386.78 4.12929 -0.512743 0
M  V30 14659 H 1385.66 5.48403 -0.233431 0
M  V30 14660 H 1385.92 4.29798 1.03568 0
M  V30 14661 N 1384.98 0.581051 1.46498 0
M  V30 14662 C 1386.4 0.242599 1.57745 0
M  V30 14663 C 1386.6 -1.25508 1.57639 0
M  V30 14664 O 1385.65 -2.0367 1.49247 0
M  V30 14665 C 1386.96 0.890342 2.87217 0
M  V30 14666 C 1388.51 0.863778 3.00845 0
M  V30 14667 C 1388.99 1.49103 4.3305 0
M  V30 14668 N 1390.48 1.4553 4.39745 0
M  V30 14669 C 1391.21 1.91003 5.40653 0
M  V30 14670 N 1390.71 2.44442 6.48244 0
M  V30 14671 N 1392.5 1.8193 5.31844 0
M  V30 14672 H 1384.65 1.55382 1.44811 0
M  V30 14673 H 1386.92 0.649375 0.690664 0
M  V30 14674 H 1386.62 1.94383 2.93101 0
M  V30 14675 H 1386.5 0.397569 3.75099 0
M  V30 14676 H 1388.88 -0.181089 2.94544 0
M  V30 14677 H 1388.96 1.39455 2.14443 0
M  V30 14678 H 1388.61 2.53509 4.40109 0
M  V30 14679 H 1388.54 0.935496 5.18224 0
M  V30 14680 H 1391.03 1.06466 3.62593 0
M  V30 14681 H 1391.34 2.77002 7.2145 0
M  V30 14682 H 1389.69 2.48467 6.49068 0
M  V30 14683 H 1392.88 1.3994 4.46693 0
M  V30 14684 H 1393.05 2.17685 6.10342 0
M  V30 14685 N 1386.46 -1.54343 0.318742 0
M  V30 14686 C 1387.7 -2.0048 -0.285276 0
M  V30 14687 C 1388.03 -1.20698 -1.5252 0
M  V30 14688 O 1387.29 -0.275893 -1.93746 0
M  V30 14689 C 1387.59 -3.51079 -0.669181 0
M  V30 14690 C 1387.25 -4.48433 0.471017 0
M  V30 14691 C 1385.91 -4.74771 0.783985 0
M  V30 14692 C 1388.27 -5.06304 1.23715 0
M  V30 14693 C 1385.59 -5.56239 1.86589 0
M  V30 14694 C 1387.95 -5.88951 2.30911 0
M  V30 14695 C 1386.61 -6.13592 2.62794 0
M  V30 14696 H 1385.88 -0.73361 -0.10439 0
M  V30 14697 H 1388.53 -1.86341 0.441521 0
M  V30 14698 H 1386.83 -3.62921 -1.47633 0
M  V30 14699 H 1388.53 -3.84216 -1.148 0
M  V30 14700 H 1385.12 -4.2805 0.217004 0
M  V30 14701 H 1389.3 -4.85943 1.00862 0
M  V30 14702 H 1384.56 -5.73563 2.11744 0
M  V30 14703 H 1388.73 -6.32814 2.90722 0
M  V30 14704 H 1386.36 -6.76508 3.46757 0
M  V30 14705 N 1387.94 -0.0468143 -1.5753 0
M  V30 14706 C 1388.87 0.927092 -2.14306 0
M  V30 14707 C 1389.85 1.32745 -1.06362 0
M  V30 14708 O 1391.03 1.40293 -1.34281 0
M  V30 14709 C 1388.16 2.20343 -2.68452 0
M  V30 14710 C 1387.12 1.94328 -3.81341 0
M  V30 14711 C 1386.44 3.28379 -4.21985 0
M  V30 14712 C 1387.74 1.26835 -5.06666 0
M  V30 14713 H 1389.44 0.454199 -2.95935 0
M  V30 14714 H 1386.98 0.217029 -1.42355 0
M  V30 14715 H 1388.93 2.8887 -3.0681 0
M  V30 14716 H 1387.66 2.6983 -1.84009 0
M  V30 14717 H 1386.32 1.28214 -3.43448 0
M  V30 14718 H 1385.97 3.75658 -3.34499 0
M  V30 14719 H 1385.67 3.11772 -4.98068 0
M  V30 14720 H 1387.19 3.98145 -4.6294 0
M  V30 14721 H 1388.6 1.85389 -5.42498 0
M  V30 14722 H 1387 1.20569 -5.87863 0
M  V30 14723 H 1388.07 0.243759 -4.84287 0
M  V30 14724 N 1389.41 1.55964 0.226527 0
M  V30 14725 C 1390.34 1.95028 1.284 0
M  V30 14726 C 1391.33 0.817833 1.49149 0
M  V30 14727 O 1392.51 1.07975 1.61416 0
M  V30 14728 C 1389.64 2.26266 2.63478 0
M  V30 14729 C 1388.59 3.41954 2.57393 0
M  V30 14730 C 1387.92 3.58786 3.96456 0
M  V30 14731 C 1389.22 4.77069 2.12608 0
M  V30 14732 H 1390.91 2.83608 0.959513 0
M  V30 14733 H 1388.46 1.36451 0.460125 0
M  V30 14734 H 1390.41 2.52186 3.3761 0
M  V30 14735 H 1389.14 1.34533 2.97604 0
M  V30 14736 H 1387.8 3.16076 1.85719 0
M  V30 14737 H 1387.44 2.64437 4.27881 0
M  V30 14738 H 1387.14 4.36595 3.93267 0
M  V30 14739 H 1388.67 3.87048 4.72256 0
M  V30 14740 H 1390.08 5.02226 2.76481 0
M  V30 14741 H 1388.48 5.58126 2.2049 0
M  V30 14742 H 1389.55 4.7276 1.07823 0
M  V30 14743 N 1390.89 -0.493031 1.4969 0
M  V30 14744 C 1391.84 -1.59367 1.66945 0
M  V30 14745 C 1392.81 -1.58049 0.510842 0
M  V30 14746 O 1393.99 -1.75915 0.738822 0
M  V30 14747 C 1391.13 -2.97472 1.74941 0
M  V30 14748 C 1390.25 -3.08745 3.02159 0
M  V30 14749 C 1389.38 -4.37632 3.01085 0
M  V30 14750 C 1388.42 -4.42567 4.22849 0
M  V30 14751 N 1387.56 -5.62892 4.19639 0
M  V30 14752 H 1392.4 -1.4396 2.6092 0
M  V30 14753 H 1389.94 -0.700297 1.29361 0
M  V30 14754 H 1391.89 -3.7753 1.77558 0
M  V30 14755 H 1390.52 -3.11564 0.844252 0
M  V30 14756 H 1389.58 -2.217 3.09117 0
M  V30 14757 H 1390.89 -3.08251 3.92151 0
M  V30 14758 H 1390.04 -5.26018 3.02309 0
M  V30 14759 H 1388.78 -4.40702 2.08885 0
M  V30 14760 H 1387.79 -3.52581 4.21861 0
M  V30 14761 H 1389.01 -4.41205 5.1625 0
M  V30 14762 H 1386.96 -5.6679 3.30281 0
M  V30 14763 H 1386.87 -5.64048 5.03374 0
M  V30 14764 H 1388.14 -6.53464 4.24977 0
M  V30 14765 N 1392.37 -1.38898 -0.744656 0
M  V30 14766 C 1393.79 -1.20291 -1.04892 0
M  V30 14767 C 1393.99 -0.0577705 -2.01417 0
M  V30 14768 O 1393.04 0.593638 -2.45422 0
M  V30 14769 C 1394.36 -2.53302 -1.62045 0
M  V30 14770 C 1395.9 -2.60063 -1.74173 0
M  V30 14771 C 1396.38 -3.93272 -2.34736 0
M  V30 14772 N 1397.87 -3.9486 -2.42157 0
M  V30 14773 C 1398.6 -4.94698 -2.89933 0
M  V30 14774 N 1398.1 -6.04934 -3.37678 0
M  V30 14775 N 1399.89 -4.82083 -2.89055 0
M  V30 14776 H 1392.04 -2.12144 -0.104294 0
M  V30 14777 H 1394.31 -0.941725 -0.108895 0
M  V30 14778 H 1394.01 -3.376 -0.985868 0
M  V30 14779 H 1393.89 -2.72335 -2.60986 0
M  V30 14780 H 1396.27 -1.76155 -2.36756 0
M  V30 14781 H 1396.36 -2.44889 -0.739115 0
M  V30 14782 H 1396 -4.77607 -1.72784 0
M  V30 14783 H 1395.93 -4.05762 -3.35656 0
M  V30 14784 H 1398.42 -3.15243 -2.08399 0
M  V30 14785 H 1398.73 -6.77036 -3.72616 0
M  V30 14786 H 1397.08 -6.08541 -3.35712 0
M  V30 14787 H 1400.27 -3.9507 -2.51072 0
M  V30 14788 H 1400.44 -5.60039 -3.25975 0
M  V30 14789 N 1393.85 0.973806 -1.23914 0
M  V30 14790 C 1394.81 2.04892 -1.02723 0
M  V30 14791 C 1395.81 1.60795 0.0132972 0
M  V30 14792 O 1397 1.72714 -0.227084 0
M  V30 14793 C 1394.13 3.36341 -0.555667 0
M  V30 14794 H 1395.33 2.25124 -1.98139 0
M  V30 14795 H 1392.88 1.14817 -1.06051 0
M  V30 14796 H 1393.61 3.21799 0.40197 0
M  V30 14797 H 1393.4 3.69689 -1.30661 0
M  V30 14798 H 1394.89 4.15398 -0.428248 0
M  V30 14799 N 1395.33 1.05191 1.17357 0
M  V30 14800 C 1396.57 0.763113 1.87895 0
M  V30 14801 C 1396.91 -0.708071 1.80831 0
M  V30 14802 O 1396.18 -1.51777 1.21631 0
M  V30 14803 C 1396.46 1.2442 3.37923 0
M  V30 14804 C 1396.32 2.77832 3.53737 0
M  V30 14805 C 1397.64 0.843209 4.31947 0
M  V30 14806 H 1394.75 0.27869 0.682276 0
M  V30 14807 H 1397.4 1.3059 1.38008 0
M  V30 14808 H 1395.55 0.782438 3.80539 0
M  V30 14809 H 1397.22 3.32131 3.20135 0
M  V30 14810 H 1395.46 3.17108 2.96015 0
M  V30 14811 H 1396.13 3.06555 4.59052 0
M  V30 14812 H 1398.61 1.24073 3.97171 0
M  V30 14813 H 1397.48 1.20743 5.35455 0
M  V30 14814 H 1397.75 -0.252802 4.41377 0
M  V30 14815 N 1396.8 -1.33791 0.83293 0
M  V30 14816 C 1398.03 -2.0272 0.438111 0
M  V30 14817 C 1398.45 -1.62279 -0.951163 0
M  V30 14818 O 1397.81 -0.812406 -1.62079 0
M  V30 14819 C 1397.86 -3.5623 0.559698 0
M  V30 14820 O 1396.96 -4.10292 -0.41646 0
M  V30 14821 H 1396.31 -0.639438 0.178928 0
M  V30 14822 H 1398.84 -1.70821 1.12612 0
M  V30 14823 H 1398.85 -4.0563 0.439148 0
M  V30 14824 H 1397.52 -3.8501 1.5729 0
M  V30 14825 H 1396.1 -3.72034 -0.25396 0
M  V30 14826 N 1398.28 -0.588812 -1.46187 0
M  V30 14827 C 1399.56 -0.00958331 -1.95598 0
M  V30 14828 C 1399.94 1.45294 -1.53144 0
M  V30 14829 O 1399.29 2.14592 -0.785015 0
M  V30 14830 C 1399.5 -0.188018 -3.48493 0
M  V30 14831 C 1400.85 -0.0590152 -4.24559 0
M  V30 14832 O 1401.87 -0.117167 -3.56007 0
M  V30 14833 O 1400.73 0.0715924 -5.46453 0
M  V30 14834 H 1397.82 0.0463708 -0.825699 0
M  V30 14835 H 1400.37 -0.657558 -1.56443 0
M  V30 14836 H 1399.14 -1.20449 -3.723 0
M  V30 14837 H 1398.76 0.496103 -3.94493 0
M  V30 14838 N 1399.76 1.54172 -0.326923 0
M  V30 14839 C 1400.69 2.27402 0.530154 0
M  V30 14840 C 1401.67 1.28325 1.11655 0
M  V30 14841 O 1402.86 1.57142 1.14105 0
M  V30 14842 C 1399.99 3.03435 1.68951 0
M  V30 14843 C 1398.94 4.09877 1.23226 0
M  V30 14844 C 1398.27 4.7377 2.47882 0
M  V30 14845 C 1399.57 5.21161 0.344698 0
M  V30 14846 H 1401.26 2.99291 -0.0806959 0
M  V30 14847 H 1398.81 1.43944 -0.0402511 0
M  V30 14848 H 1400.76 3.53396 2.29541 0
M  V30 14849 H 1399.48 2.29169 2.327 0
M  V30 14850 H 1398.14 3.60805 0.649267 0
M  V30 14851 H 1397.79 3.96116 3.10002 0
M  V30 14852 H 1397.49 5.45674 2.17977 0
M  V30 14853 H 1399.01 5.26507 3.09229 0
M  V30 14854 H 1400.43 5.66859 0.856979 0
M  V30 14855 H 1398.83 5.99941 0.138276 0
M  V30 14856 H 1399.9 4.80874 -0.623575 0
M  V30 14857 N 1401.24 0.0551678 1.57503 0
M  V30 14858 C 1402.65 -0.3014 1.56728 0
M  V30 14859 C 1402.85 -1.71169 1.06317 0
M  V30 14860 O 1401.91 -2.4197 0.721566 0
M  V30 14861 C 1403.22 -0.12622 3.00435 0
M  V30 14862 C 1404.77 -0.197022 3.12379 0
M  V30 14863 C 1405.25 -0.0503235 4.57972 0
M  V30 14864 N 1406.74 -0.106471 4.63078 0
M  V30 14865 C 1407.47 -0.0171325 5.73397 0
M  V30 14866 N 1406.97 0.124781 6.92688 0
M  V30 14867 N 1408.76 -0.0730028 5.62053 0
M  V30 14868 H 1400.91 0.977072 1.88592 0
M  V30 14869 H 1403.18 0.37963 0.868668 0
M  V30 14870 H 1402.88 0.846286 3.41366 0
M  V30 14871 H 1402.76 -0.885574 3.66657 0
M  V30 14872 H 1405.14 -1.16 2.71345 0
M  V30 14873 H 1405.22 0.593155 2.48828 0
M  V30 14874 H 1404.87 0.909352 4.99693 0
M  V30 14875 H 1404.8 -0.859695 5.19535 0
M  V30 14876 H 1407.29 -0.215241 3.77287 0
M  V30 14877 H 1407.6 0.185548 7.72577 0
M  V30 14878 H 1405.95 0.15992 6.94816 0
M  V30 14879 H 1409.14 -0.182456 4.67744 0
M  V30 14880 H 1409.31 7.85052e-05 6.48 0
M  V30 14881 N 1402.72 -1.56081 -0.218252 0
M  V30 14882 C 1403.96 -1.79513 -0.943553 0
M  V30 14883 C 1404.3 -0.625367 -1.83855 0
M  V30 14884 O 1403.57 0.375226 -1.90846 0
M  V30 14885 C 1403.85 -3.13049 -1.77967 0
M  V30 14886 C 1403.71 -4.40479 -0.910939 0
M  V30 14887 C 1405.03 -3.43057 -2.7568 0
M  V30 14888 H 1402.14 -0.653057 -0.341593 0
M  V30 14889 H 1404.79 -1.88811 -0.212226 0
M  V30 14890 H 1402.94 -3.05254 -2.40318 0
M  V30 14891 H 1404.61 -4.60298 -0.303922 0
M  V30 14892 H 1402.85 -4.33259 -0.216513 0
M  V30 14893 H 1403.52 -5.3036 -1.53042 0
M  V30 14894 H 1406 -3.51002 -2.23465 0
M  V30 14895 H 1404.87 -4.37657 -3.31282 0
M  V30 14896 H 1405.14 -2.65389 -3.53584 0
M  V30 14897 N 1404.2 0.485086 -1.49949 0
M  V30 14898 C 1405.42 1.26179 -1.63971 0
M  V30 14899 C 1405.84 1.86113 -0.317408 0
M  V30 14900 O 1405.2 1.68581 0.699038 0
M  V30 14901 C 1405.25 2.38062 -2.72046 0
M  V30 14902 O 1404.97 1.80588 -3.99149 0
M  V30 14903 C 1406.47 3.29174 -2.96916 0
M  V30 14904 H 1403.69 0.382122 -0.551565 0
M  V30 14905 H 1406.23 0.580607 -1.96085 0
M  V30 14906 H 1404.39 3.0198 -2.42666 0
M  V30 14907 H 1404.8 2.54159 -4.58807 0
M  V30 14908 H 1406.28 4.03922 -3.76233 0
M  V30 14909 H 1406.75 3.87123 -2.07443 0
M  V30 14910 H 1407.36 2.71006 -3.27774 0
M  V30 14911 N 1405.67 1.39291 0.737279 0
M  V30 14912 C 1406.62 1.34321 1.84233 0
M  V30 14913 C 1407.61 0.224489 1.59326 0
M  V30 14914 O 1408.8 0.461832 1.70869 0
M  V30 14915 C 1405.93 1.18676 3.22135 0
M  V30 14916 C 1405.01 2.35239 3.52878 0
M  V30 14917 N 1405.41 3.6071 3.54573 0
M  V30 14918 C 1403.7 2.28147 3.83229 0
M  V30 14919 C 1404.4 4.37778 3.83047 0
M  V30 14920 N 1403.38 3.67336 4.00706 0
M  V30 14921 H 1407.18 2.29299 1.83845 0
M  V30 14922 H 1404.7 1.32755 0.935413 0
M  V30 14923 H 1406.69 1.13199 4.01238 0
M  V30 14924 H 1405.35 0.246461 3.23763 0
M  V30 14925 H 1406.36 3.94164 3.3594 0
M  V30 14926 H 1403.04 1.42366 3.92477 0
M  V30 14927 H 1404.43 5.46525 3.90845 0
M  V30 14928 N 1407.15 -0.967221 1.24429 0
M  V30 14929 C 1408.38 -1.74267 1.10972 0
M  V30 14930 C 1408.79 -1.8611 -0.340522 0
M  V30 14931 O 1408.13 -1.34915 -1.24674 0
M  V30 14932 C 1408.19 -3.18035 1.67613 0
M  V30 14933 C 1407.86 -3.29661 3.16501 0
M  V30 14934 C 1408.86 -3.14952 4.13644 0
M  V30 14935 C 1406.54 -3.53886 3.56469 0
M  V30 14936 C 1408.53 -3.24294 5.48737 0
M  V30 14937 C 1406.22 -3.62866 4.91703 0
M  V30 14938 C 1407.22 -3.48082 5.87646 0
M  V30 14939 O 1406.91 -3.56719 7.20421 0
M  V30 14940 H 1406.64 -0.553293 0.388384 0
M  V30 14941 H 1409.19 -1.22295 1.65025 0
M  V30 14942 H 1407.42 -3.71314 1.07994 0
M  V30 14943 H 1409.11 -3.7739 1.49438 0
M  V30 14944 H 1409.88 -2.9612 3.84107 0
M  V30 14945 H 1405.76 -3.64459 2.82295 0
M  V30 14946 H 1409.3 -3.12672 6.23604 0
M  V30 14947 H 1405.2 -3.81212 5.20911 0
M  V30 14948 H 1405.97 -3.73431 7.28349 0
M  V30 14949 N 1408.63 -1.05812 -1.16797 0
M  V30 14950 C 1409.88 -0.771923 -1.8721 0
M  V30 14951 C 1410.2 0.701365 -1.81414 0
M  V30 14952 O 1409.46 1.5292 -1.22122 0
M  V30 14953 C 1409.76 -1.20565 -3.3645 0
M  V30 14954 C 1409.42 -2.68222 -3.62447 0
M  V30 14955 C 1408.09 -3.08556 -3.69251 0
M  V30 14956 C 1410.44 -3.63607 -3.73416 0
M  V30 14957 C 1407.77 -4.43126 -3.84521 0
M  V30 14958 C 1410.12 -4.97918 -3.90205 0
M  V30 14959 C 1408.78 -5.37897 -3.9525 0
M  V30 14960 H 1408.05 -0.282467 -0.68505 0
M  V30 14961 H 1410.7 -1.32633 -1.38133 0
M  V30 14962 H 1409 -0.570347 -3.87626 0
M  V30 14963 H 1410.7 -0.961326 -3.89306 0
M  V30 14964 H 1407.29 -2.3599 -3.5778 0
M  V30 14965 H 1411.48 -3.33581 -3.67474 0
M  V30 14966 H 1406.73 -4.73593 -3.86677 0
M  V30 14967 H 1410.91 -5.71716 -3.97635 0
M  V30 14968 H 1408.53 -6.42176 -4.06834 0
M  V30 14969 N 1410.11 1.33347 -0.840014 0
M  V30 14970 C 1411.35 1.97745 -0.436274 0
M  V30 14971 C 1411.68 1.66538 1.00475 0
M  V30 14972 O 1410.94 0.938137 1.71748 0
M  V30 14973 C 1411.24 3.52239 -0.605173 0
M  V30 14974 C 1410.9 4.03398 -2.01446 0
M  V30 14975 C 1409.56 4.1708 -2.39994 0
M  V30 14976 C 1411.92 4.3071 -2.93494 0
M  V30 14977 C 1409.24 4.55409 -3.69891 0
M  V30 14978 C 1411.6 4.70491 -4.22873 0
M  V30 14979 C 1410.26 4.82379 -4.61375 0
M  V30 14980 H 1409.53 0.723599 -0.159644 0
M  V30 14981 H 1412.18 1.59003 -1.06725 0
M  V30 14982 H 1410.48 3.91648 0.109116 0
M  V30 14983 H 1412.18 4.00069 -0.273056 0
M  V30 14984 H 1408.77 3.93224 -1.70508 0
M  V30 14985 H 1412.95 4.19661 -2.64949 0
M  V30 14986 H 1408.21 4.62806 -3.99525 0
M  V30 14987 H 1412.38 4.9058 -4.94271 0
M  V30 14988 H 1410.01 5.11835 -5.62075 0
M  V30 14989 N 1411.59 0.596556 1.45873 0
M  V30 14990 C 1412.83 0.0959747 2.03173 0
M  V30 14991 C 1413.19 -1.25529 1.45809 0
M  V30 14992 O 1412.48 -1.81324 0.619052 0
M  V30 14993 C 1412.67 -0.0135714 3.57397 0
M  V30 14994 C 1412.5 1.32553 4.29721 0
M  V30 14995 C 1411.27 1.90333 4.68083 0
M  V30 14996 C 1413.47 2.25185 4.62381 0
M  V30 14997 N 1411.45 3.17838 5.25216 0
M  V30 14998 C 1412.82 3.37283 5.20231 0
M  V30 14999 C 1414.88 2.24694 4.44316 0
M  V30 15000 C 1413.58 4.49041 5.61921 0
M  V30 15001 C 1415.61 3.35491 4.87031 0
M  V30 15002 C 1414.97 4.46311 5.44964 0
M  V30 15003 H 1411.07 0.0782275 0.778077 0
M  V30 15004 H 1413.65 0.792492 1.77842 0
M  V30 15005 H 1411.82 -0.679285 3.82414 0
M  V30 15006 H 1413.56 -0.519803 4.01348 0
M  V30 15007 H 1410.31 1.43665 4.51284 0
M  V30 15008 H 1410.73 3.82935 5.58292 0
M  V30 15009 H 1415.38 1.40282 3.98849 0
M  V30 15010 H 1413.09 5.34186 6.06359 0
M  V30 15011 H 1416.68 3.36246 4.74795 0
M  V30 15012 H 1415.56 5.30629 5.77411 0
M  V30 15013 N 1413.06 -1.53996 0.335095 0
M  V30 15014 C 1413.99 -2.2768 -0.518087 0
M  V30 15015 C 1414.97 -1.28915 -1.10972 0
M  V30 15016 O 1416.16 -1.57745 -1.1327 0
M  V30 15017 C 1413.29 -3.04327 -1.67339 0
M  V30 15018 C 1412.24 -4.10525 -1.2105 0
M  V30 15019 C 1411.57 -4.75078 -2.45366 0
M  V30 15020 C 1412.87 -5.21337 -0.317055 0
M  V30 15021 H 1414.56 -2.99244 0.0965669 0
M  V30 15022 H 1412.11 -1.4392 0.0478842 0
M  V30 15023 H 1414.06 -3.54608 -2.27664 0
M  V30 15024 H 1412.79 -2.30399 -2.31481 0
M  V30 15025 H 1411.45 -3.61144 -0.630124 0
M  V30 15026 H 1411.09 -3.97754 -3.07897 0
M  V30 15027 H 1410.79 -5.46822 -2.1508 0
M  V30 15028 H 1412.32 -5.2814 -3.06432 0
M  V30 15029 H 1413.73 -5.67305 -0.826905 0
M  V30 15030 H 1412.13 -6.00006 -0.106458 0
M  V30 15031 H 1413.2 -4.80536 0.649068 0
M  V30 15032 N 1414.54 -0.0635198 -1.57472 0
M  V30 15033 C 1415.47 0.90431 -2.15278 0
M  V30 15034 C 1416.45 1.31609 -1.07764 0
M  V30 15035 O 1417.64 1.38861 -1.35762 0
M  V30 15036 C 1414.77 2.17483 -2.70774 0
M  V30 15037 C 1413.72 1.90272 -3.8338 0
M  V30 15038 C 1413.05 3.23885 -4.25444 0
M  V30 15039 C 1414.35 1.21454 -5.07983 0
M  V30 15040 H 1416.04 0.422786 -2.964 0
M  V30 15041 H 1413.59 0.201918 -1.42577 0
M  V30 15042 H 1415.54 2.856 -3.09856 0
M  V30 15043 H 1414.26 2.67863 -1.86861 0
M  V30 15044 H 1412.92 1.24564 -3.44789 0
M  V30 15045 H 1412.57 3.72089 -3.38465 0
M  V30 15046 H 1412.27 3.06472 -5.01347 0
M  V30 15047 H 1413.8 3.93212 -4.67137 0
M  V30 15048 H 1415.21 1.79625 -5.44433 0
M  V30 15049 H 1413.61 1.14327 -5.89109 0
M  V30 15050 H 1414.68 0.19238 -4.84518 0
M  V30 15051 N 1416.02 1.56195 0.209972 0
M  V30 15052 C 1416.97 1.93355 1.26026 0
M  V30 15053 C 1417.94 0.792195 1.45991 0
M  V30 15054 O 1419.12 1.04909 1.5937 0
M  V30 15055 C 1416.26 2.26558 2.60318 0
M  V30 15056 C 1415.37 3.53685 2.48055 0
M  V30 15057 C 1414.51 3.76279 3.7495 0
M  V30 15058 C 1413.55 4.96881 3.57457 0
M  V30 15059 N 1412.69 5.15806 4.76328 0
M  V30 15060 H 1417.53 2.82907 0.936357 0
M  V30 15061 H 1415.06 1.40015 0.451022 0
M  V30 15062 H 1417.02 2.43821 3.38537 0
M  V30 15063 H 1415.65 1.40165 2.90781 0
M  V30 15064 H 1414.7 3.44551 1.61211 0
M  V30 15065 H 1416.01 4.42057 2.31056 0
M  V30 15066 H 1415.17 3.93702 4.6161 0
M  V30 15067 H 1413.91 2.86209 3.94887 0
M  V30 15068 H 1412.91 4.79397 2.69181 0
M  V30 15069 H 1414.14 5.88447 3.38979 0
M  V30 15070 H 1412.08 4.28681 4.96557 0
M  V30 15071 H 1412 5.98332 4.62099 0
M  V30 15072 H 1413.27 5.37674 5.64382 0
M  V30 15073 N 1417.5 -0.477127 1.50204 0
M  V30 15074 C 1418.77 -1.23837 1.51406 0
M  V30 15075 C 1419.15 -2.09551 0.255278 0
M  V30 15076 O 1418.5 -2.15437 -0.761535 0
M  V30 15077 C 1418.71 -2.0746 2.80644 0
M  V30 15078 C 1420.06 -2.65852 3.31071 0
M  V30 15079 O 1421.08 -2.17708 2.81925 0
M  V30 15080 O 1419.94 -3.53556 4.16726 0
M  V30 15081 H 1417.04 -0.561638 0.607036 0
M  V30 15082 H 1419.58 -0.489442 1.62489 0
M  V30 15083 H 1418.36 -1.44258 3.63738 0
M  V30 15084 H 1417.98 -2.895 2.72536 0
M  V30 15085 N 1418.98 -1.3968 -0.729882 0
M  V30 15086 C 1420.22 -1.36911 -1.4866 0
M  V30 15087 C 1420.55 0.0326011 -1.94973 0
M  V30 15088 O 1419.82 0.984789 -1.69348 0
M  V30 15089 H 1418.4 -0.503848 -0.551495 0
M  V30 15090 H 1421.06 -1.74596 -0.866155 0
M  V30 15091 H 1420.15 -2.03504 -2.36628 0
M  V30 15092 N 1420.45 0.960609 -1.2494 0
M  V30 15093 C 1421.38 2.074 -1.07274 0
M  V30 15094 C 1422.37 1.70092 0.0164365 0
M  V30 15095 O 1423.55 1.93604 -0.151975 0
M  V30 15096 C 1420.68 3.40491 -0.684317 0
M  V30 15097 C 1419.63 3.91784 -1.72306 0
M  V30 15098 C 1418.96 5.21301 -1.18949 0
M  V30 15099 C 1420.26 4.18829 -3.12056 0
M  V30 15100 H 1421.95 2.22438 -2.00404 0
M  V30 15101 H 1419.5 1.06888 -0.964937 0
M  V30 15102 H 1421.45 4.17826 -0.547686 0
M  V30 15103 H 1420.18 3.25374 0.282687 0
M  V30 15104 H 1418.84 3.16613 -1.84802 0
M  V30 15105 H 1418.48 5.02549 -0.212892 0
M  V30 15106 H 1418.18 5.56588 -1.8837 0
M  V30 15107 H 1419.71 6.01238 -1.06513 0
M  V30 15108 H 1421.12 4.86844 -3.02748 0
M  V30 15109 H 1419.52 4.6536 -3.78894 0
M  V30 15110 H 1420.59 3.25333 -3.59564 0
M  V30 15111 N 1421.93 1.0643 1.16234 0
M  V30 15112 C 1422.88 0.676311 2.20669 0
M  V30 15113 C 1423.85 -0.327721 1.62835 0
M  V30 15114 O 1425.03 -0.216296 1.8957 0
M  V30 15115 C 1422.17 0.0703726 3.45028 0
M  V30 15116 C 1421.29 1.12475 4.17101 0
M  V30 15117 C 1420.42 0.484806 5.28983 0
M  V30 15118 C 1419.46 1.52262 5.9286 0
M  V30 15119 N 1418.6 0.905938 6.96231 0
M  V30 15120 H 1423.44 1.57129 2.53209 0
M  V30 15121 H 1420.98 0.7856 1.24365 0
M  V30 15122 H 1422.93 -0.298488 4.16131 0
M  V30 15123 H 1421.56 -0.788002 3.13034 0
M  V30 15124 H 1420.62 1.6113 3.44589 0
M  V30 15125 H 1421.93 1.91202 4.60698 0
M  V30 15126 H 1421.08 0.0630553 6.06667 0
M  V30 15127 H 1419.82 -0.334332 4.86553 0
M  V30 15128 H 1418.83 1.95425 5.13896 0
M  V30 15129 H 1420.05 2.34388 6.37369 0
M  V30 15130 H 1418 0.107536 6.55912 0
M  V30 15131 H 1417.91 1.63058 7.38206 0
M  V30 15132 H 1419.18 0.509378 7.77834 0
M  V30 15133 N 1423.41 -1.329 0.847073 0
M  V30 15134 C 1424.69 -1.921 0.368351 0
M  V30 15135 C 1425.07 -1.77205 -1.14724 0
M  V30 15136 O 1424.42 -1.16547 -1.96543 0
M  V30 15137 C 1424.63 -3.39125 0.824326 0
M  V30 15138 C 1425.97 -4.16267 0.837097 0
M  V30 15139 O 1427 -3.47812 0.768466 0
M  V30 15140 O 1425.86 -5.38487 0.932389 0
M  V30 15141 H 1422.95 -0.820187 0.105936 0
M  V30 15142 H 1425.5 -1.41719 0.933471 0
M  V30 15143 H 1424.27 -3.43875 1.86723 0
M  V30 15144 H 1423.89 -3.96898 0.236233 0
M  V30 15145 N 1424.89 -0.604284 -1.45555 0
M  V30 15146 C 1426.11 -0.102634 -2.07146 0
M  V30 15147 C 1426.54 1.20239 -1.44652 0
M  V30 15148 O 1425.9 1.73133 -0.538033 0
M  V30 15149 C 1425.94 0.0270231 -3.6059 0
M  V30 15150 O 1425.05 1.0781 -3.98059 0
M  V30 15151 H 1424.39 -0.0725667 -0.660023 0
M  V30 15152 H 1426.92 -0.833355 -1.86859 0
M  V30 15153 H 1426.93 0.226299 -4.07372 0
M  V30 15154 H 1425.6 -0.925896 -4.05463 0
M  V30 15155 H 1424.18 0.855552 -3.62953 0
M  V30 15156 N 1426.37 1.53816 -0.343257 0
M  V30 15157 C 1427.3 2.22552 0.548015 0
M  V30 15158 C 1428.31 1.23202 1.06419 0
M  V30 15159 O 1429.5 1.49559 0.974394 0
M  V30 15160 C 1426.6 2.89197 1.76687 0
M  V30 15161 C 1425.77 4.14859 1.38603 0
M  V30 15162 C 1424.83 4.64917 2.46453 0
M  V30 15163 O 1423.86 5.29135 2.09773 0
M  V30 15164 N 1425.06 4.4082 3.77701 0
M  V30 15165 H 1427.83 2.99672 -0.040645 0
M  V30 15166 H 1425.39 1.61033 -0.167368 0
M  V30 15167 H 1427.38 3.19601 2.48268 0
M  V30 15168 H 1425.95 2.15664 2.26291 0
M  V30 15169 H 1425.17 3.91003 0.501001 0
M  V30 15170 H 1426.46 4.96599 1.10756 0
M  V30 15171 H 1425.85 3.8946 4.1029 0
M  V30 15172 H 1424.41 4.7583 4.45453 0
M  V30 15173 N 1427.84 0.0718701 1.57436 0
M  V30 15174 C 1429.09 -0.597231 1.93493 0
M  V30 15175 C 1429.42 -1.69614 0.951906 0
M  V30 15176 O 1428.67 -1.95673 -0.0324554 0
M  V30 15177 C 1428.97 -1.21336 3.36173 0
M  V30 15178 C 1428.64 -0.240582 4.50258 0
M  V30 15179 C 1427.3 0.0270368 4.81192 0
M  V30 15180 C 1429.65 0.424924 5.19465 0
M  V30 15181 C 1426.98 0.967249 5.78672 0
M  V30 15182 C 1429.33 1.35346 6.17952 0
M  V30 15183 C 1428 1.62954 6.47304 0
M  V30 15184 H 1427.27 -0.218542 0.70804 0
M  V30 15185 H 1429.91 0.142762 1.90967 0
M  V30 15186 H 1428.22 -2.02909 3.35164 0
M  V30 15187 H 1429.92 -1.73836 3.61361 0
M  V30 15188 H 1426.51 -0.459352 4.26131 0
M  V30 15189 H 1430.69 0.231285 4.95761 0
M  V30 15190 H 1425.95 1.1884 5.99739 0
M  V30 15191 H 1430.12 1.87509 6.70681 0
M  V30 15192 H 1427.75 2.3597 7.2265 0
M  V30 15193 N 1429.32 -1.56304 -0.201686 0
M  V30 15194 C 1430.55 -1.84692 -0.943583 0
M  V30 15195 C 1430.97 -0.654649 -1.7634 0
M  V30 15196 O 1430.33 0.396586 -1.76909 0
M  V30 15197 C 1430.38 -3.11251 -1.82085 0
M  V30 15198 O 1429.48 -2.9134 -2.91881 0
M  V30 15199 H 1428.82 -0.608351 -0.266092 0
M  V30 15200 H 1431.35 -2.0353 -0.208992 0
M  V30 15201 H 1431.36 -3.41874 -2.2268 0
M  V30 15202 H 1430.04 -3.97652 -1.21844 0
M  V30 15203 H 1428.62 -2.72 -2.55089 0
M  V30 15204 N 1430.8 0.469154 -1.50455 0
M  V30 15205 C 1432.05 1.21788 -1.60781 0
M  V30 15206 C 1432.36 1.93054 -0.314576 0
M  V30 15207 O 1433.57 2.69873 -0.296773 0
M  V30 15208 C 1432.02 2.21305 -2.83817 0
M  V30 15209 C 1431.63 1.55833 -4.20024 0
M  V30 15210 C 1433.38 2.96808 -3.03489 0
M  V30 15211 C 1431.28 2.53648 -5.34244 0
M  V30 15212 H 1430.21 0.45827 -0.598752 0
M  V30 15213 H 1432.86 0.488159 -1.76888 0
M  V30 15214 H 1431.25 2.97577 -2.61273 0
M  V30 15215 H 1432.42 0.853371 -4.52829 0
M  V30 15216 H 1430.74 0.926046 -4.05972 0
M  V30 15217 H 1433.33 3.70017 -3.85994 0
M  V30 15218 H 1433.68 3.56307 -2.15293 0
M  V30 15219 H 1434.21 2.27648 -3.26223 0
M  V30 15220 H 1430.95 1.98885 -6.246 0
M  V30 15221 H 1430.47 3.22291 -5.05854 0
M  V30 15222 H 1432.15 3.15438 -5.64897 0
M  V30 15223 N 1432.28 1.40065 0.722464 0
M  V30 15224 C 1433.69 1.21944 1.02965 0
M  V30 15225 C 1433.89 0.0898069 2.013 0
M  V30 15226 O 1432.95 -0.554519 2.46336 0
M  V30 15227 C 1434.26 2.55848 1.57995 0
M  V30 15228 C 1435.81 2.62801 1.70013 0
M  V30 15229 C 1436.29 3.96957 2.2845 0
M  V30 15230 N 1437.78 3.98662 2.35844 0
M  V30 15231 C 1438.51 4.99248 2.82026 0
M  V30 15232 N 1438.01 6.1023 3.28012 0
M  V30 15233 N 1439.8 4.8662 2.81349 0
M  V30 15234 H 1431.95 2.12283 0.0705301 0
M  V30 15235 H 1434.22 0.943338 0.0938991 0
M  V30 15236 H 1433.92 3.39125 0.932034 0
M  V30 15237 H 1433.8 2.76452 2.5662 0
M  V30 15238 H 1436.18 1.799 2.33923 0
M  V30 15239 H 1436.26 2.46034 0.700062 0
M  V30 15240 H 1435.91 4.80295 1.65164 0
M  V30 15241 H 1435.84 4.1105 3.29158 0
M  V30 15242 H 1438.33 3.18518 2.03358 0
M  V30 15243 H 1438.64 6.82878 3.61797 0
M  V30 15244 H 1436.99 6.13805 3.25988 0
M  V30 15245 H 1440.18 3.99015 2.44755 0
M  V30 15246 H 1440.35 5.65155 3.17024 0
M  V30 15247 N 1433.76 -0.95397 1.25448 0
M  V30 15248 C 1434.99 -1.7308 1.12814 0
M  V30 15249 C 1435.4 -1.86461 -0.320764 0
M  V30 15250 O 1434.74 -1.3623 -1.23236 0
M  V30 15251 C 1434.8 -3.16239 1.70976 0
M  V30 15252 C 1434.46 -3.26286 3.19979 0
M  V30 15253 C 1435.46 -3.10547 4.16961 0
M  V30 15254 C 1433.15 -3.50085 3.60202 0
M  V30 15255 C 1435.14 -3.18456 5.52146 0
M  V30 15256 C 1432.83 -3.5763 4.95524 0
M  V30 15257 C 1433.83 -3.4183 5.91305 0
M  V30 15258 O 1433.51 -3.49058 7.24164 0
M  V30 15259 H 1433.25 -0.549143 0.394231 0
M  V30 15260 H 1435.8 -1.20538 1.66312 0
M  V30 15261 H 1434.03 -3.70148 1.11926 0
M  V30 15262 H 1435.72 -3.75784 1.53432 0
M  V30 15263 H 1436.48 -2.92029 3.87226 0
M  V30 15264 H 1432.36 -3.61445 2.86145 0
M  V30 15265 H 1435.91 -3.0604 6.26885 0
M  V30 15266 H 1431.8 -3.75665 5.24925 0
M  V30 15267 H 1432.57 -3.65684 7.32269 0
M  V30 15268 N 1435.24 -1.07045 -1.15668 0
M  V30 15269 C 1436.17 -0.645945 -2.1991 0
M  V30 15270 C 1437.18 0.29995 -1.60013 0
M  V30 15271 O 1438.37 0.0897537 -1.78274 0
M  V30 15272 C 1435.47 0.0721917 -3.38823 0
M  V30 15273 C 1434.64 -0.889103 -4.28268 0
M  V30 15274 C 1433.7 -0.208829 -5.25785 0
M  V30 15275 O 1432.73 -0.848894 -5.62834 0
M  V30 15276 N 1433.93 1.04671 -5.70985 0
M  V30 15277 H 1436.69 -1.54266 -2.56948 0
M  V30 15278 H 1434.26 -0.954736 -1.30753 0
M  V30 15279 H 1436.25 0.537882 -4.0111 0
M  V30 15280 H 1434.82 0.870805 -3.00226 0
M  V30 15281 H 1434.04 -1.53399 -3.63129 0
M  V30 15282 H 1435.33 -1.54097 -4.84904 0
M  V30 15283 H 1434.72 1.58673 -5.42991 0
M  V30 15284 H 1433.28 1.45613 -6.35327 0
M  V30 15285 N 1436.71 1.32449 -0.85411 0
M  V30 15286 C 1437.94 2.01171 -0.470505 0
M  V30 15287 C 1438.35 1.64356 0.937218 0
M  V30 15288 O 1437.69 0.860565 1.62296 0
M  V30 15289 C 1437.76 3.55583 -0.529241 0
M  V30 15290 C 1437.42 4.15824 -1.89576 0
M  V30 15291 C 1438.42 4.34091 -2.86114 0
M  V30 15292 C 1436.1 4.51911 -2.19276 0
M  V30 15293 C 1438.1 4.87612 -4.10504 0
M  V30 15294 C 1435.78 5.05137 -3.43919 0
M  V30 15295 C 1436.78 5.22936 -4.39349 0
M  V30 15296 O 1436.47 5.75024 -5.61785 0
M  V30 15297 H 1436.2 0.650645 -0.183405 0
M  V30 15298 H 1438.76 1.70015 -1.15257 0
M  V30 15299 H 1436.99 3.86131 0.209671 0
M  V30 15300 H 1438.67 4.05579 -0.161315 0
M  V30 15301 H 1439.44 4.06545 -2.64473 0
M  V30 15302 H 1435.32 4.37343 -1.45782 0
M  V30 15303 H 1438.86 5.0142 -4.84999 0
M  V30 15304 H 1434.76 5.32114 -3.6541 0
M  V30 15305 H 1435.53 5.93418 -5.63736 0
M  V30 15306 N 1438.19 0.611994 1.45232 0
M  V30 15307 C 1439.12 -0.0914869 2.33321 0
M  V30 15308 C 1440.1 -0.854315 1.4709 0
M  V30 15309 O 1441.29 -0.823994 1.75852 0
M  V30 15310 C 1438.42 -1.08652 3.29867 0
M  V30 15311 C 1437.37 -0.436615 4.25767 0
M  V30 15312 C 1436.7 -1.54021 5.12037 0
M  V30 15313 C 1438 0.645005 5.18302 0
M  V30 15314 H 1439.69 0.644053 2.92391 0
M  V30 15315 H 1437.24 0.311171 1.40598 0
M  V30 15316 H 1439.19 -1.58726 3.90364 0
M  V30 15317 H 1437.91 -1.85271 2.68965 0
M  V30 15318 H 1436.57 0.0432918 3.66574 0
M  V30 15319 H 1436.22 -2.29679 4.475 0
M  V30 15320 H 1435.92 -1.11084 5.77005 0
M  V30 15321 H 1437.45 -2.04313 5.75403 0
M  V30 15322 H 1438.86 0.228166 5.72846 0
M  V30 15323 H 1437.26 0.996387 5.9177 0
M  V30 15324 H 1438.33 1.51985 4.60466 0
M  V30 15325 N 1439.67 -1.53632 0.351409 0
M  V30 15326 C 1440.6 -2.28217 -0.49391 0
M  V30 15327 C 1441.58 -1.30085 -1.09599 0
M  V30 15328 O 1442.77 -1.58938 -1.1159 0
M  V30 15329 C 1439.9 -3.06085 -1.64102 0
M  V30 15330 C 1438.85 -4.11786 -1.16689 0
M  V30 15331 C 1438.18 -4.77654 -2.40314 0
M  V30 15332 C 1439.48 -5.21644 -0.261742 0
M  V30 15333 H 1441.17 -2.99125 0.1283 0
M  V30 15334 H 1438.72 -1.43861 0.0631462 0
M  V30 15335 H 1440.67 -3.57003 -2.2389 0
M  V30 15336 H 1439.39 -2.32842 -2.29025 0
M  V30 15337 H 1438.05 -3.61792 -0.591784 0
M  V30 15338 H 1437.7 -4.00997 -3.03661 0
M  V30 15339 H 1437.4 -5.49072 -2.09268 0
M  V30 15340 H 1438.92 -5.3136 -3.00813 0
M  V30 15341 H 1440.34 -5.6815 -0.766689 0
M  V30 15342 H 1438.73 -6.00085 -0.0428132 0
M  V30 15343 H 1439.8 -4.79821 0.699999 0
M  V30 15344 N 1441.15 -0.0802183 -1.57396 0
M  V30 15345 C 1442.11 0.869437 -2.12069 0
M  V30 15346 C 1443.11 1.22079 -1.04658 0
M  V30 15347 O 1444.3 1.15267 -1.3061 0
M  V30 15348 C 1441.43 2.17016 -2.62901 0
M  V30 15349 H 1442.63 0.394952 -2.97288 0
M  V30 15350 H 1440.18 0.168597 -1.55388 0
M  V30 15351 H 1440.91 2.68983 -1.8116 0
M  V30 15352 H 1440.7 1.92808 -3.4142 0
M  V30 15353 H 1442.19 2.84982 -3.05246 0
M  V30 15354 N 1442.63 1.56409 0.193394 0
M  V30 15355 C 1443.59 1.93822 1.22334 0
M  V30 15356 C 1444.59 0.819513 1.3835 0
M  V30 15357 O 1445.78 1.0869 1.36132 0
M  V30 15358 C 1442.91 2.21375 2.59241 0
M  V30 15359 H 1444.1 2.85967 0.903502 0
M  V30 15360 H 1441.66 1.50125 0.43498 0
M  V30 15361 H 1442.39 1.31874 2.96277 0
M  V30 15362 H 1442.18 3.02899 2.48988 0
M  V30 15363 H 1443.67 2.51319 3.33509 0
M  V30 15364 N 1444.1 -0.461169 1.50702 0
M  V30 15365 C 1445.03 -1.56576 1.73223 0
M  V30 15366 C 1446.01 -1.59855 0.581401 0
M  V30 15367 O 1447.2 -1.75964 0.821602 0
M  V30 15368 C 1444.33 -2.94835 1.83548 0
M  V30 15369 C 1443.28 -3.06421 2.98815 0
M  V30 15370 C 1442.61 -4.46425 2.94293 0
M  V30 15371 C 1443.91 -2.82714 4.3917 0
M  V30 15372 H 1445.6 -1.37982 2.65709 0
M  V30 15373 H 1443.15 -0.662362 1.27862 0
M  V30 15374 H 1445.1 -3.72047 1.97887 0
M  V30 15375 H 1443.83 -3.14608 0.876906 0
M  V30 15376 H 1442.49 -2.31644 2.84142 0
M  V30 15377 H 1442.13 -4.63131 1.96262 0
M  V30 15378 H 1441.83 -4.55111 3.71682 0
M  V30 15379 H 1443.36 -5.25644 3.10695 0
M  V30 15380 H 1444.77 -3.4967 4.54317 0
M  V30 15381 H 1443.17 -3.02835 5.18084 0
M  V30 15382 H 1444.24 -1.78492 4.50853 0
M  V30 15383 N 1445.58 -1.40446 -0.715026 0
M  V30 15384 C 1446.51 -1.43511 -1.84193 0
M  V30 15385 C 1447.49 -0.295969 -1.67505 0
M  V30 15386 O 1448.68 -0.504667 -1.87528 0
M  V30 15387 C 1445.81 -1.29751 -3.22152 0
M  V30 15388 C 1444.76 -2.41274 -3.53512 0
M  V30 15389 C 1444.09 -2.12591 -4.90621 0
M  V30 15390 C 1445.39 -3.83614 -3.54454 0
M  V30 15391 H 1447.08 -2.37819 -1.81885 0
M  V30 15392 H 1444.63 -1.14469 -0.873655 0
M  V30 15393 H 1446.58 -1.30511 -4.0068 0
M  V30 15394 H 1445.3 -0.319189 -3.25037 0
M  V30 15395 H 1443.96 -2.39764 -2.77324 0
M  V30 15396 H 1443.61 -1.13148 -4.90109 0
M  V30 15397 H 1443.31 -2.87308 -5.1257 0
M  V30 15398 H 1444.84 -2.15034 -5.71483 0
M  V30 15399 H 1446.25 -3.86945 -4.23021 0
M  V30 15400 H 1444.65 -4.57855 -3.87929 0
M  V30 15401 H 1445.72 -4.13159 -2.53827 0
M  V30 15402 N 1447.06 0.947303 -1.25952 0
M  V30 15403 C 1448.3 1.70755 -1.12348 0
M  V30 15404 C 1448.66 1.89165 0.328721 0
M  V30 15405 O 1449.86 2.62318 0.586749 0
M  V30 15406 C 1448.14 3.04889 -1.86486 0
M  V30 15407 S 1449.69 3.96076 -1.88863 0
M  V30 15408 H 1446.51 0.586836 -0.401428 0
M  V30 15409 H 1449.11 1.12932 -1.59583 0
M  V30 15410 H 1447.82 2.89166 -2.91224 0
M  V30 15411 H 1447.35 3.67772 -1.39668 0
M  V30 15412 H 1449.36 4.86608 -0.970929 0
M  V30 15413 N 1448.54 1.07657 1.15099 0
M  V30 15414 C 1449.78 0.811006 1.87622 0
M  V30 15415 C 1450.14 -0.651144 1.80621 0
M  V30 15416 O 1451.34 -1.03188 2.48205 0
M  V30 15417 C 1449.61 1.30906 3.32563 0
M  V30 15418 S 1451.17 1.17465 4.22785 0
M  V30 15419 H 1447.99 0.293808 0.647455 0
M  V30 15420 H 1450.59 1.3763 1.38846 0
M  V30 15421 H 1449.3 2.36784 3.35204 0
M  V30 15422 H 1448.83 0.739107 3.86395 0
M  V30 15423 H 1450.84 0.114115 4.96069 0
M  V30 15424 N 1450.02 -1.31994 0.861122 0
M  V30 15425 C 1451.26 -1.98827 0.474055 0
M  V30 15426 C 1451.62 -1.66627 -0.953916 0
M  V30 15427 O 1452.82 -2.26601 -1.44587 0
M  V30 15428 C 1451.09 -3.50201 0.713743 0
M  V30 15429 S 1452.65 -4.36735 0.425214 0
M  V30 15430 H 1449.47 -0.688534 0.17732 0
M  V30 15431 H 1452.07 -1.6057 1.11523 0
M  V30 15432 H 1450.78 -3.71125 1.75198 0
M  V30 15433 H 1450.31 -3.93355 0.0592289 0
M  V30 15434 H 1452.32 -4.90558 -0.746142 0
M  V30 15435 N 1451.49 -0.619688 -1.44906 0
M  V30 15436 C 1452.74 -0.119397 -2.01747 0
M  V30 15437 C 1453.06 1.25904 -1.48907 0
M  V30 15438 O 1452.33 1.83417 -0.688104 0
M  V30 15439 H 1450.91 -0.0411482 -0.745866 0
M  V30 15440 H 1453.58 -0.803813 -1.77552 0
M  V30 15441 H 1452.67 -0.078368 -3.12002 0
M  V30 15442 N 1452.97 1.53444 -0.359552 0
M  V30 15443 C 1453.92 2.25544 0.48977 0
M  V30 15444 C 1454.89 1.25982 1.08248 0
M  V30 15445 O 1456.07 1.54751 1.1161 0
M  V30 15446 C 1453.21 3.04358 1.62666 0
M  V30 15447 C 1452.33 4.18801 1.0597 0
M  V30 15448 C 1451.46 4.85069 2.1652 0
M  V30 15449 C 1450.5 5.91554 1.57259 0
M  V30 15450 N 1449.64 6.51537 2.61617 0
M  V30 15451 H 1454.48 2.97709 -0.13158 0
M  V30 15452 H 1452.02 1.469 -0.0767056 0
M  V30 15453 H 1453.97 3.48324 2.29623 0
M  V30 15454 H 1452.6 2.34459 2.21876 0
M  V30 15455 H 1451.66 3.79364 0.280599 0
M  V30 15456 H 1452.97 4.95341 0.586383 0
M  V30 15457 H 1452.12 5.32187 2.9131 0
M  V30 15458 H 1450.86 4.07988 2.67202 0
M  V30 15459 H 1449.87 5.43803 0.809818 0
M  V30 15460 H 1451.09 6.70552 1.07409 0
M  V30 15461 H 1449.04 5.77312 3.11523 0
M  V30 15462 H 1448.95 7.23599 2.18954 0
M  V30 15463 H 1450.22 7.03306 3.36127 0
M  V30 15464 N 1454.45 0.0885642 1.57351 0
M  V30 15465 C 1455.7 -0.575536 1.93732 0
M  V30 15466 C 1456.02 -1.69126 0.970644 0
M  V30 15467 O 1455.29 -1.95888 0.0215907 0
M  V30 15468 H 1453.87 -0.215592 0.715213 0
M  V30 15469 H 1456.53 0.150362 1.94319 0
M  V30 15470 H 1455.63 -0.989979 2.95983 0
M  V30 15471 N 1455.93 -1.56509 -0.185096 0
M  V30 15472 C 1456.86 -1.98363 -1.23184 0
M  V30 15473 C 1457.84 -0.85709 -1.46929 0
M  V30 15474 O 1459.02 -1.12216 -1.58497 0
M  V30 15475 C 1456.15 -2.33172 -2.57387 0
M  V30 15476 C 1455.11 -3.48658 -2.48236 0
M  V30 15477 C 1454.43 -3.69171 -3.86804 0
M  V30 15478 C 1455.73 -4.82538 -1.99885 0
M  V30 15479 H 1457.43 -2.86053 -0.883982 0
M  V30 15480 H 1454.97 -1.37623 -0.423786 0
M  V30 15481 H 1456.93 -2.61048 -3.30805 0
M  V30 15482 H 1455.65 -1.42377 -2.93933 0
M  V30 15483 H 1454.31 -3.20889 -1.77273 0
M  V30 15484 H 1453.96 -2.75689 -4.20719 0
M  V30 15485 H 1453.66 -4.46868 -3.81553 0
M  V30 15486 H 1455.18 -3.99433 -4.61829 0
M  V30 15487 H 1456.6 -5.0938 -2.63068 0
M  V30 15488 H 1454.99 -5.63775 -2.05614 0
M  V30 15489 H 1456.06 -4.75453 -0.952503 0
M  V30 15490 N 1457.41 0.45317 -1.50944 0
M  V30 15491 C 1458.82 0.788393 -1.38768 0
M  V30 15492 C 1459.02 1.96233 -0.457676 0
M  V30 15493 O 1458.08 2.52328 0.0930651 0
M  V30 15494 C 1459.39 1.08363 -2.80496 0
M  V30 15495 C 1460.94 1.18901 -2.89537 0
M  V30 15496 C 1461.41 1.51727 -4.32138 0
M  V30 15497 N 1462.91 1.58683 -4.35171 0
M  V30 15498 C 1463.64 1.85623 -5.42523 0
M  V30 15499 N 1463.14 2.10462 -6.60059 0
M  V30 15500 N 1464.93 1.87274 -5.29986 0
M  V30 15501 H 1457.08 -0.320216 -2.09972 0
M  V30 15502 H 1459.34 -0.0808021 -0.94455 0
M  V30 15503 H 1459.05 0.293897 -3.5047 0
M  V30 15504 H 1458.92 2.01532 -3.18849 0
M  V30 15505 H 1461.31 1.96939 -2.19771 0
M  V30 15506 H 1461.39 0.236691 -2.54703 0
M  V30 15507 H 1461.04 0.74223 -5.02447 0
M  V30 15508 H 1460.97 2.48139 -4.64472 0
M  V30 15509 H 1463.46 1.41455 -3.50427 0
M  V30 15510 H 1463.77 2.30343 -7.37673 0
M  V30 15511 H 1462.11 2.07817 -6.63202 0
M  V30 15512 H 1465.31 1.67377 -4.37153 0
M  V30 15513 H 1465.48 2.07933 -6.13733 0
M  V30 15514 N 1458.88 1.40823 0.707568 0
M  V30 15515 C 1459.79 1.44058 1.85161 0
M  V30 15516 C 1460.81 0.332357 1.70796 0
M  V30 15517 O 1461.99 0.578205 1.92922 0
M  V30 15518 C 1459.05 1.3091 3.21035 0
M  V30 15519 C 1458.11 2.51944 3.47595 0
M  V30 15520 C 1457.35 2.39414 4.76987 0
M  V30 15521 O 1457.57 1.41224 5.52641 0
M  V30 15522 O 1456.5 3.28944 5.04063 0
M  V30 15523 H 1460.33 2.40551 1.85388 0
M  V30 15524 H 1457.91 1.22232 0.859052 0
M  V30 15525 H 1459.8 1.25816 4.02179 0
M  V30 15526 H 1458.47 0.375263 3.21517 0
M  V30 15527 H 1457.38 2.62615 2.66428 0
M  V30 15528 H 1458.71 3.44115 3.51917 0
M  V30 15529 N 1460.36 -0.94061 1.26453 0
M  V30 15530 C 1461.27 -2.07298 1.09839 0
M  V30 15531 C 1462.29 -1.73971 0.0317477 0
M  V30 15532 O 1463.46 -2.00017 0.235594 0
M  V30 15533 C 1460.53 -3.38847 0.733736 0
M  V30 15534 C 1459.59 -3.85954 1.87985 0
M  V30 15535 C 1458.82 -5.11224 1.5325 0
M  V30 15536 O 1459.05 -5.68743 0.434491 0
M  V30 15537 O 1457.98 -5.53386 2.36743 0
M  V30 15538 H 1461.81 -2.24222 2.04837 0
M  V30 15539 H 1459.39 -1.05763 1.0552 0
M  V30 15540 H 1461.27 -4.17885 0.543131 0
M  V30 15541 H 1459.95 -3.2316 -0.186843 0
M  V30 15542 H 1458.86 -3.07858 2.12542 0
M  V30 15543 H 1460.19 -4.06162 2.78017 0
M  V30 15544 N 1461.84 -1.08266 -1.14527 0
M  V30 15545 C 1463.09 -0.811459 -1.85531 0
M  V30 15546 C 1463.42 0.662726 -1.82861 0
M  V30 15547 O 1462.67 1.50296 -1.25338 0
M  V30 15548 C 1462.97 -1.27675 -3.33817 0
M  V30 15549 C 1462.64 -2.7585 -3.56676 0
M  V30 15550 C 1461.3 -3.16319 -3.62623 0
M  V30 15551 C 1463.65 -3.71446 -3.65619 0
M  V30 15552 C 1460.98 -4.51183 -3.75035 0
M  V30 15553 C 1463.33 -5.06083 -3.79556 0
M  V30 15554 C 1461.99 -5.4616 -3.83752 0
M  V30 15555 H 1461.26 -0.296934 -0.678904 0
M  V30 15556 H 1463.91 -1.35533 -1.35288 0
M  V30 15557 H 1462.22 -0.65244 -3.86329 0
M  V30 15558 H 1463.91 -1.04369 -3.8718 0
M  V30 15559 H 1460.5 -2.43526 -3.52694 0
M  V30 15560 H 1464.69 -3.41301 -3.60316 0
M  V30 15561 H 1459.94 -4.81689 -3.76545 0
M  V30 15562 H 1464.12 -5.80022 -3.85418 0
M  V30 15563 H 1461.74 -6.50661 -3.93121 0
M  V30 15564 N 1463.32 1.31536 -0.86811 0
M  V30 15565 C 1464.27 2.30504 -0.311581 0
M  V30 15566 C 1465.26 1.59439 0.572332 0
M  V30 15567 O 1466.47 1.74059 0.458639 0
M  V30 15568 H 1462.84 0.747508 -0.0820745 0
M  V30 15569 H 1464.81 2.74919 -1.16026 0
M  V30 15570 C 1463.56 3.44459 0.473622 0
M  V30 15571 H 1462.89 3.99313 -0.197259 0
M  V30 15572 H 1464.33 4.15829 0.828393 0
M  V30 15573 C 1462.78 2.92929 1.66416 0
M  V30 15574 O 1463.31 2.91543 2.76344 0
M  V30 15575 N 1461.52 2.49154 1.49568 0
M  V30 15576 H 1461.07 2.50481 0.601408 0
M  V30 15577 H 1461.03 2.15032 2.29366 0
M  V30 15578 N 1464.8 0.627364 1.44575 0
M  V30 15579 C 1466.21 0.292662 1.56894 0
M  V30 15580 C 1466.41 -1.20429 1.61552 0
M  V30 15581 O 1465.47 -1.98819 1.55651 0
M  V30 15582 C 1466.78 0.981267 2.84239 0
M  V30 15583 C 1468.33 0.959053 2.97945 0
M  V30 15584 C 1468.81 1.62805 4.28087 0
M  V30 15585 N 1470.3 1.59446 4.34892 0
M  V30 15586 C 1471.03 2.08107 5.34302 0
M  V30 15587 N 1470.53 2.64942 6.40139 0
M  V30 15588 N 1472.32 1.98758 5.25787 0
M  V30 15589 H 1464.47 1.5991 1.39795 0
M  V30 15590 H 1466.73 0.671019 0.669655 0
M  V30 15591 H 1466.44 2.0361 2.86768 0
M  V30 15592 H 1466.31 0.516703 3.73644 0
M  V30 15593 H 1468.7 -0.0872902 2.94971 0
M  V30 15594 H 1468.78 1.46207 2.09898 0
M  V30 15595 H 1468.43 2.67382 4.31821 0
M  V30 15596 H 1468.36 1.09989 5.14985 0
M  V30 15597 H 1470.85 1.17947 3.59022 0
M  V30 15598 H 1471.16 2.99814 7.12272 0
M  V30 15599 H 1469.51 2.68991 6.40835 0
M  V30 15600 H 1472.7 1.54081 4.42014 0
M  V30 15601 H 1472.87 2.36992 6.03107 0
M  V30 15602 N 1466.28 -1.53251 0.367684 0
M  V30 15603 C 1467.21 -2.23396 -0.512539 0
M  V30 15604 C 1468.22 -1.2488 -1.04446 0
M  V30 15605 O 1469.41 -1.5109 -0.950477 0
M  V30 15606 C 1466.51 -2.91971 -1.72064 0
M  V30 15607 C 1465.68 -4.17011 -1.31986 0
M  V30 15608 C 1464.74 -4.68779 -2.39025 0
M  V30 15609 O 1463.77 -5.32405 -2.01328 0
M  V30 15610 N 1464.97 -4.46773 -3.7064 0
M  V30 15611 H 1467.73 -2.9957 0.0883152 0
M  V30 15612 H 1465.3 -1.60746 0.192966 0
M  V30 15613 H 1467.29 -3.23511 -2.43152 0
M  V30 15614 H 1465.86 -2.19237 -2.22831 0
M  V30 15615 H 1465.08 -3.91751 -0.438732 0
M  V30 15616 H 1466.37 -4.98298 -1.02842 0
M  V30 15617 H 1465.76 -3.95938 -4.04042 0
M  V30 15618 H 1464.32 -4.82857 -4.37827 0
M  V30 15619 N 1467.75 -0.0969077 -1.57302 0
M  V30 15620 C 1468.99 0.569724 -1.963 0
M  V30 15621 C 1469.36 1.65238 -0.977779 0
M  V30 15622 O 1470.56 2.37634 -1.25632 0
M  V30 15623 C 1468.83 1.10889 -3.39762 0
M  V30 15624 S 1470.39 1.78714 -4.00758 0
M  V30 15625 H 1467.21 0.185855 -0.686279 0
M  V30 15626 H 1469.81 -0.176741 -1.94699 0
M  V30 15627 H 1468.51 0.309441 -4.09232 0
M  V30 15628 H 1468.04 1.89114 -3.44963 0
M  V30 15629 H 1470.06 3.07149 -3.8971 0
M  V30 15630 N 1469.23 1.56605 0.176793 0
M  V30 15631 C 1470.48 1.82848 0.89097 0
M  V30 15632 C 1470.83 0.676661 1.80108 0
M  V30 15633 O 1470.13 -0.32721 1.88785 0
M  V30 15634 C 1470.32 3.12888 1.7273 0
M  V30 15635 C 1470.15 4.40609 0.899652 0
M  V30 15636 C 1468.92 5.01996 0.57688 0
M  V30 15637 C 1471.12 5.13722 0.243765 0
M  V30 15638 N 1469.1 6.13317 -0.267482 0
M  V30 15639 C 1470.47 6.18276 -0.461997 0
M  V30 15640 C 1472.52 4.97638 0.161367 0
M  V30 15641 C 1471.23 7.0849 -1.24233 0
M  V30 15642 C 1473.25 5.88291 -0.605623 0
M  V30 15643 C 1472.62 6.92304 -1.29977 0
M  V30 15644 H 1468.71 0.720143 0.304824 0
M  V30 15645 H 1471.3 1.94055 0.15834 0
M  V30 15646 H 1469.47 3.02883 2.43139 0
M  V30 15647 H 1471.2 3.27148 2.38236 0
M  V30 15648 H 1467.96 4.6486 0.905666 0
M  V30 15649 H 1468.38 6.73578 -0.679811 0
M  V30 15650 H 1473.02 4.17236 0.683677 0
M  V30 15651 H 1470.74 7.88342 -1.77601 0
M  V30 15652 H 1474.33 5.77918 -0.670976 0
M  V30 15653 H 1473.21 7.61239 -1.88375 0
M  V30 15654 N 1470.71 -0.445159 1.51182 0
M  V30 15655 C 1471.64 -1.5473 1.74874 0
M  V30 15656 C 1472.62 -1.5923 0.598323 0
M  V30 15657 O 1473.81 -1.75083 0.840219 0
M  V30 15658 C 1470.94 -2.92872 1.86664 0
M  V30 15659 C 1469.89 -3.03235 3.02048 0
M  V30 15660 C 1469.22 -4.43279 2.99012 0
M  V30 15661 C 1470.52 -2.7804 4.42144 0
M  V30 15662 H 1472.21 -1.35156 2.67158 0
M  V30 15663 H 1469.76 -0.648763 1.28558 0
M  V30 15664 H 1471.71 -3.69927 2.01822 0
M  V30 15665 H 1470.43 -3.1366 0.910225 0
M  V30 15666 H 1469.09 -2.28617 2.86583 0
M  V30 15667 H 1468.74 -4.61023 2.01163 0
M  V30 15668 H 1468.44 -4.51144 3.76488 0
M  V30 15669 H 1469.96 -5.22319 3.16252 0
M  V30 15670 H 1471.38 -3.44831 4.58 0
M  V30 15671 H 1469.77 -2.97323 5.21267 0
M  V30 15672 H 1470.84 -1.737 4.52721 0
M  V30 15673 N 1472.19 -1.41197 -0.700089 0
M  V30 15674 C 1473.43 -1.40519 -1.46227 0
M  V30 15675 C 1473.77 -0.0126108 -1.94196 0
M  V30 15676 O 1473.04 0.958837 -1.69223 0
M  V30 15677 C 1473.32 -2.40808 -2.67738 0
M  V30 15678 C 1473.18 -3.89154 -2.25563 0
M  V30 15679 C 1474.5 -2.38415 -3.69927 0
M  V30 15680 H 1471.62 -0.511724 -0.530384 0
M  V30 15681 H 1474.26 -1.72441 -0.797754 0
M  V30 15682 H 1472.41 -2.13717 -3.24434 0
M  V30 15683 H 1474.08 -4.27132 -1.74229 0
M  V30 15684 H 1472.32 -4.04239 -1.57395 0
M  V30 15685 H 1472.99 -4.54866 -3.12731 0
M  V30 15686 H 1475.47 -2.62447 -3.22895 0
M  V30 15687 H 1474.35 -3.10609 -4.52563 0
M  V30 15688 H 1474.61 -1.40116 -4.19309 0
M  V30 15689 N 1473.67 0.933891 -1.2695 0
M  V30 15690 C 1474.61 2.05498 -1.08964 0
M  V30 15691 C 1475.61 1.69394 -0.0144837 0
M  V30 15692 O 1476.81 1.79179 -0.171729 0
M  V30 15693 H 1473.19 0.672978 -0.335566 0
M  V30 15694 H 1475.16 2.17817 -2.03957 0
M  V30 15695 C 1473.91 3.39579 -0.747074 0
M  V30 15696 H 1473.23 3.67842 -1.56628 0
M  V30 15697 H 1474.67 4.18815 -0.661064 0
M  V30 15698 C 1473.13 3.3241 0.548214 0
M  V30 15699 O 1473.66 3.69132 1.58443 0
M  V30 15700 N 1471.87 2.85509 0.541545 0
M  V30 15701 H 1471.41 2.55822 -0.302112 0
M  V30 15702 H 1471.37 2.81095 1.4083 0
M  V30 15703 N 1475.14 1.08871 1.13951 0
M  V30 15704 C 1476.11 0.726655 2.17376 0
M  V30 15705 C 1477.11 -0.240922 1.58985 0
M  V30 15706 O 1478.3 -0.0198472 1.74189 0
M  V30 15707 C 1475.43 0.0736505 3.4082 0
M  V30 15708 H 1476.62 1.64254 2.5092 0
M  V30 15709 H 1474.17 0.887183 1.28681 0
M  V30 15710 H 1474.91 -0.853733 3.12861 0
M  V30 15711 H 1474.69 0.769782 3.84469 0
M  V30 15712 H 1476.18 -0.164465 4.17276 0
M  V30 15713 N 1476.62 -1.31073 0.875073 0
M  V30 15714 C 1477.55 -2.30855 0.350468 0
M  V30 15715 C 1478.53 -1.60569 -0.561384 0
M  V30 15716 O 1479.72 -1.88242 -0.477329 0
M  V30 15717 C 1476.85 -3.44444 -0.444493 0
M  V30 15718 C 1475.8 -4.26357 0.374716 0
M  V30 15719 C 1475.13 -5.31903 -0.546243 0
M  V30 15720 C 1476.43 -4.96817 1.61153 0
M  V30 15721 H 1478.12 -2.74983 1.18427 0
M  V30 15722 H 1475.67 -1.32199 0.570909 0
M  V30 15723 H 1477.62 -4.13304 -0.82206 0
M  V30 15724 H 1476.34 -2.99096 -1.31185 0
M  V30 15725 H 1475 -3.59171 0.734295 0
M  V30 15726 H 1474.65 -4.82803 -1.41102 0
M  V30 15727 H 1474.35 -5.876 -0.00198173 0
M  V30 15728 H 1475.88 -6.03621 -0.920542 0
M  V30 15729 H 1477.29 -5.58247 1.30511 0
M  V30 15730 H 1475.69 -5.62334 2.09524 0
M  V30 15731 H 1476.76 -4.2351 2.36151 0
M  V30 15732 N 1478.1 -0.635022 -1.4424 0
M  V30 15733 C 1479.06 0.0579377 -2.29127 0
M  V30 15734 C 1480.06 0.768489 -1.41248 0
M  V30 15735 O 1481.25 0.612489 -1.63077 0
M  V30 15736 C 1478.39 1.09266 -3.22914 0
M  V30 15737 H 1479.58 -0.688723 -2.91885 0
M  V30 15738 H 1477.13 -0.395347 -1.51217 0
M  V30 15739 H 1477.87 1.86917 -2.65014 0
M  V30 15740 H 1477.65 0.587036 -3.87681 0
M  V30 15741 H 1479.14 1.57716 -3.86672 0
M  V30 15742 N 1479.58 1.53054 -0.375806 0
M  V30 15743 C 1480.53 2.2605 0.46582 0
M  V30 15744 C 1481.5 1.27123 1.06906 0
M  V30 15745 O 1482.68 1.55926 1.09963 0
M  V30 15746 C 1479.82 3.06066 1.59429 0
M  V30 15747 C 1478.93 4.19901 1.01523 0
M  V30 15748 C 1478.07 4.87339 2.11363 0
M  V30 15749 C 1477.11 5.93189 1.50976 0
M  V30 15750 N 1476.24 6.54276 2.54692 0
M  V30 15751 H 1481.08 2.97553 -0.163149 0
M  V30 15752 H 1478.62 1.4681 -0.092282 0
M  V30 15753 H 1480.58 3.50739 2.25915 0
M  V30 15754 H 1479.21 2.36799 2.19377 0
M  V30 15755 H 1478.26 3.7964 0.240346 0
M  V30 15756 H 1479.57 4.95935 0.533812 0
M  V30 15757 H 1478.73 5.35247 2.85649 0
M  V30 15758 H 1477.47 4.10799 2.6286 0
M  V30 15759 H 1476.47 5.44632 0.752095 0
M  V30 15760 H 1477.7 6.71654 1.00291 0
M  V30 15761 H 1475.64 5.80584 3.05383 0
M  V30 15762 H 1475.56 7.2588 2.11267 0
M  V30 15763 H 1476.83 7.06831 3.28648 0
M  V30 15764 N 1481.06 0.105248 1.57248 0
M  V30 15765 C 1481.99 -0.846915 2.176 0
M  V30 15766 C 1482.97 -1.28706 1.11216 0
M  V30 15767 O 1484.15 -1.35213 1.39396 0
M  V30 15768 C 1481.28 -2.10228 2.76445 0
M  V30 15769 C 1480.24 -1.80041 3.8829 0
M  V30 15770 C 1479.56 -3.12491 4.33882 0
M  V30 15771 C 1480.86 -1.07943 5.11024 0
M  V30 15772 H 1482.56 -0.344052 2.97417 0
M  V30 15773 H 1480.1 -0.164045 1.43063 0
M  V30 15774 H 1482.06 -2.77284 3.17319 0
M  V30 15775 H 1480.78 -2.62815 1.93897 0
M  V30 15776 H 1479.44 -1.15379 3.4797 0
M  V30 15777 H 1479.09 -3.62985 3.48211 0
M  V30 15778 H 1478.79 -2.93072 5.09296 0
M  V30 15779 H 1480.31 -3.80688 4.77398 0
M  V30 15780 H 1481.72 -1.65127 5.49004 0
M  V30 15781 H 1480.12 -0.986674 5.91933 0
M  V30 15782 H 1481.19 -0.0638511 4.84858 0
M  V30 15783 N 1482.53 -1.56697 -0.168486 0
M  V30 15784 C 1483.5 -1.95744 -1.19235 0
M  V30 15785 C 1484.5 -0.841419 -1.37028 0
M  V30 15786 O 1485.69 -1.10842 -1.34386 0
M  V30 15787 C 1482.82 -2.25471 -2.55686 0
M  V30 15788 H 1484.01 -2.87368 -0.857892 0
M  V30 15789 H 1481.57 -1.50798 -0.411041 0
M  V30 15790 H 1482.3 -1.36571 -2.94141 0
M  V30 15791 H 1482.09 -3.06822 -2.44137 0
M  V30 15792 H 1483.58 -2.56593 -3.29469 0
M  V30 15793 N 1484.01 0.437135 -1.51416 0
M  V30 15794 C 1484.94 1.54894 -1.68939 0
M  V30 15795 C 1485.96 1.52493 -0.570059 0
M  V30 15796 O 1487.15 1.57266 -0.844381 0
M  V30 15797 C 1484.25 2.9381 -1.68904 0
M  V30 15798 C 1483.42 3.20714 -2.97425 0
M  V30 15799 C 1482.48 4.39355 -2.89575 0
M  V30 15800 O 1481.5 4.37999 -3.63519 0
M  V30 15801 N 1482.71 5.42931 -2.05441 0
M  V30 15802 H 1485.47 1.40267 -2.64849 0
M  V30 15803 H 1483.03 0.626075 -1.49305 0
M  V30 15804 H 1485.02 3.71201 -1.61221 0
M  V30 15805 H 1483.59 3.02034 -0.805871 0
M  V30 15806 H 1482.81 2.31621 -3.18975 0
M  V30 15807 H 1484.1 3.35516 -3.825 0
M  V30 15808 H 1483.5 5.4687 -1.44742 0
M  V30 15809 H 1482.06 6.19173 -2.03636 0
M  V30 15810 N 1485.49 1.41566 0.692592 0
M  V30 15811 C 1486.42 1.39582 1.81795 0
M  V30 15812 C 1487.44 0.29754 1.60058 0
M  V30 15813 O 1488.62 0.559463 1.69506 0
M  V30 15814 C 1485.72 1.15506 3.18609 0
M  V30 15815 C 1484.9 2.37432 3.67349 0
M  V30 15816 C 1483.96 2.09168 4.82841 0
M  V30 15817 O 1482.98 2.8223 4.94303 0
M  V30 15818 N 1484.18 1.08377 5.70294 0
M  V30 15819 H 1486.95 2.36577 1.83988 0
M  V30 15820 H 1484.51 1.36216 0.875026 0
M  V30 15821 H 1486.5 0.945452 3.93501 0
M  V30 15822 H 1485.07 0.270987 3.11423 0
M  V30 15823 H 1484.29 2.74076 2.8333 0
M  V30 15824 H 1485.58 3.18661 3.96652 0
M  V30 15825 H 1484.98 0.479122 5.63667 0
M  V30 15826 H 1483.54 0.934042 6.45073 0
M  V30 15827 N 1486.97 -0.927146 1.27443 0
M  V30 15828 C 1488.21 -1.67738 1.13982 0
M  V30 15829 C 1488.55 -1.91653 -0.313511 0
M  V30 15830 O 1487.82 -1.50729 -1.22926 0
M  V30 15831 C 1488.11 -3.04357 1.92454 0
M  V30 15832 C 1487.96 -2.8768 3.45775 0
M  V30 15833 C 1489.28 -4.04696 1.72944 0
M  V30 15834 H 1486.4 -0.608749 0.415444 0
M  V30 15835 H 1489.04 -1.07587 1.56605 0
M  V30 15836 H 1487.19 -3.55702 1.56232 0
M  V30 15837 H 1488.86 -2.43449 3.9183 0
M  V30 15838 H 1487.1 -2.23011 3.72087 0
M  V30 15839 H 1487.77 -3.8464 3.95924 0
M  V30 15840 H 1490.25 -3.62364 2.04528 0
M  V30 15841 H 1489.13 -4.98276 2.30243 0
M  V30 15842 H 1489.39 -4.36878 0.677505 0
M  V30 15843 N 1488.45 -1.09474 -1.13372 0
M  V30 15844 C 1489.86 -0.824541 -1.36651 0
M  V30 15845 C 1490.06 0.560903 -1.93536 0
M  V30 15846 O 1489.12 1.31567 -2.15514 0
M  V30 15847 C 1490.43 -1.91618 -2.31739 0
M  V30 15848 C 1491.98 -1.94346 -2.45354 0
M  V30 15849 C 1492.45 -3.02655 -3.4375 0
M  V30 15850 N 1493.95 -3.01898 -3.513 0
M  V30 15851 C 1494.68 -3.82344 -4.27318 0
M  V30 15852 N 1494.18 -4.727 -5.06484 0
M  V30 15853 N 1495.97 -3.70602 -4.22623 0
M  V30 15854 H 1488.12 -1.98793 -0.748005 0
M  V30 15855 H 1490.38 -0.863318 -0.391646 0
M  V30 15856 H 1490.09 -2.91282 -1.97098 0
M  V30 15857 H 1489.96 -1.79484 -3.31761 0
M  V30 15858 H 1492.35 -0.953206 -2.79281 0
M  V30 15859 H 1492.43 -2.10558 -1.45255 0
M  V30 15860 H 1492.08 -4.01894 -3.10553 0
M  V30 15861 H 1492.01 -2.83687 -4.43655 0
M  V30 15862 H 1494.5 -2.36417 -2.94814 0
M  V30 15863 H 1494.81 -5.30665 -5.61796 0
M  V30 15864 H 1493.15 -4.76736 -5.05715 0
M  V30 15865 H 1496.35 -2.99372 -3.59853 0
M  V30 15866 H 1496.52 -4.33535 -4.81614 0
M  V30 15867 N 1489.92 1.30607 -0.882012 0
M  V30 15868 C 1490.83 2.31967 -0.350503 0
M  V30 15869 C 1491.85 1.6522 0.54575 0
M  V30 15870 O 1493.03 1.96544 0.439581 0
M  V30 15871 C 1490.09 3.44037 0.428924 0
M  V30 15872 C 1489.15 4.26417 -0.496727 0
M  V30 15873 C 1488.39 5.33135 0.245597 0
M  V30 15874 O 1488.61 5.51077 1.47209 0
M  V30 15875 O 1487.54 6.00551 -0.402767 0
M  V30 15876 H 1491.37 2.79374 -1.19095 0
M  V30 15877 H 1488.95 1.34723 -0.645754 0
M  V30 15878 H 1490.84 4.12314 0.870346 0
M  V30 15879 H 1489.51 2.9877 1.24573 0
M  V30 15880 H 1488.42 3.60848 -0.986899 0
M  V30 15881 H 1489.75 4.7528 -1.27945 0
M  V30 15882 N 1491.4 0.642663 1.43901 0
M  V30 15883 C 1492.37 -0.0457858 2.29154 0
M  V30 15884 C 1493.37 -0.760988 1.41653 0
M  V30 15885 O 1494.56 -0.603832 1.634 0
M  V30 15886 C 1491.69 -1.07552 3.23489 0
M  V30 15887 H 1492.88 0.704193 2.91515 0
M  V30 15888 H 1490.43 0.403361 1.51006 0
M  V30 15889 H 1491.17 -1.85509 2.66002 0
M  V30 15890 H 1490.95 -0.566468 3.87987 0
M  V30 15891 H 1492.44 -1.55663 3.87503 0
M  V30 15892 N 1492.88 -1.52852 0.383918 0
M  V30 15893 C 1493.84 -2.24904 -0.441687 0
M  V30 15894 C 1494.84 -1.26345 -0.99466 0
M  V30 15895 O 1496.03 -1.50484 -0.877513 0
M  V30 15896 C 1493.17 -2.99994 -1.61915 0
M  V30 15897 H 1494.36 -2.99304 0.189047 0
M  V30 15898 H 1491.91 -1.55708 0.135932 0
M  V30 15899 H 1492.65 -2.29882 -2.28746 0
M  V30 15900 H 1492.43 -3.72328 -1.2294 0
M  V30 15901 H 1493.92 -3.54716 -2.20378 0
M  V30 15902 N 1494.36 -0.113586 -1.5719 0
M  V30 15903 C 1495.77 0.412653 -1.82083 0
M  V30 15904 C 1496.12 1.66964 -1.03041 0
M  V30 15905 O 1495.25 2.14767 -0.265354 0
M  V30 15906 C 1495.84 0.755439 -3.3027 0
M  V30 15907 C 1494.4 1.22634 -3.55862 0
M  V30 15908 C 1493.55 0.232285 -2.76325 0
M  V30 15909 H 1496.5 -0.338792 -1.55042 0
M  V30 15910 H 1496.52 1.61335 -3.44603 0
M  V30 15911 H 1496.03 -0.1596 -3.87772 0
M  V30 15912 H 1494.13 2.15846 -3.03713 0
M  V30 15913 H 1494.25 1.1754 -4.64458 0
M  V30 15914 H 1492.61 0.718222 -2.44364 0
M  V30 15915 H 1493.39 -0.675756 -3.36583 0
M  V30 15916 N 1495.84 1.56784 0.160173 0
M  V30 15917 C 1497.06 1.87129 0.894283 0
M  V30 15918 C 1497.49 0.701172 1.74543 0
M  V30 15919 O 1496.85 -0.349542 1.77899 0
M  V30 15920 C 1496.89 3.15969 1.73769 0
M  V30 15921 O 1496 2.98977 2.84054 0
M  V30 15922 H 1495.34 0.615192 0.249869 0
M  V30 15923 H 1497.87 2.04012 0.154956 0
M  V30 15924 H 1497.88 3.47657 2.13538 0
M  V30 15925 H 1496.55 4.00742 1.11258 0
M  V30 15926 H 1495.13 2.78668 2.47788 0
M  V30 15927 N 1497.32 -0.429099 1.51646 0
M  V30 15928 C 1498.28 -1.50398 1.72954 0
M  V30 15929 C 1499.28 -1.49207 0.599491 0
M  V30 15930 O 1500.47 -1.51084 0.867143 0
M  V30 15931 C 1497.6 -2.89903 1.79358 0
M  V30 15932 H 1498.79 -1.32805 2.68892 0
M  V30 15933 H 1496.35 -0.658313 1.4176 0
M  V30 15934 H 1497.08 -3.12891 0.852639 0
M  V30 15935 H 1496.87 -2.92171 2.61492 0
M  V30 15936 H 1498.36 -3.67862 1.97654 0
M  V30 15937 N 1498.79 -1.41931 -0.685074 0
M  V30 15938 C 1500.21 -1.24631 -0.996957 0
M  V30 15939 C 1500.41 -0.143146 -2.00991 0
M  V30 15940 O 1499.47 0.489012 -2.47719 0
M  V30 15941 C 1500.78 -2.59947 -1.51156 0
M  V30 15942 C 1502.33 -2.67216 -1.62986 0
M  V30 15943 C 1502.8 -4.02874 -2.17845 0
M  V30 15944 N 1504.29 -4.04775 -2.25192 0
M  V30 15945 C 1505.03 -5.0655 -2.68691 0
M  V30 15946 N 1504.52 -6.18712 -3.11717 0
M  V30 15947 N 1506.32 -4.93909 -2.68348 0
M  V30 15948 H 1498.47 -2.12395 -0.0142223 0
M  V30 15949 H 1500.73 -0.945496 -0.0688552 0
M  V30 15950 H 1500.44 -3.41477 -0.841793 0
M  V30 15951 H 1500.31 -2.83159 -2.49201 0
M  V30 15952 H 1502.7 -1.86038 -2.29071 0
M  V30 15953 H 1502.78 -2.47804 -0.634584 0
M  V30 15954 H 1502.42 -4.84505 -1.52372 0
M  V30 15955 H 1502.35 -4.19633 -3.18144 0
M  V30 15956 H 1504.84 -3.23798 -1.94841 0
M  V30 15957 H 1505.16 -6.9223 -3.43565 0
M  V30 15958 H 1503.5 -6.22232 -3.096 0
M  V30 15959 H 1506.69 -4.05364 -2.34089 0
M  V30 15960 H 1506.87 -5.73361 -3.01929 0
M  V30 15961 N 1500.27 0.920374 -1.27933 0
M  V30 15962 C 1501.2 2.02644 -1.07089 0
M  V30 15963 C 1502.22 1.62781 -0.024674 0
M  V30 15964 O 1503.41 1.76491 -0.267023 0
M  V30 15965 C 1500.51 3.33476 -0.603919 0
M  V30 15966 C 1499.68 4.01988 -1.72407 0
M  V30 15967 C 1498.74 5.11098 -1.25159 0
M  V30 15968 O 1497.76 5.3466 -1.95261 0
M  V30 15969 N 1498.97 5.80393 -0.111197 0
M  V30 15970 H 1501.73 2.21085 -2.0234 0
M  V30 15971 H 1499.29 1.09124 -1.19597 0
M  V30 15972 H 1501.28 4.03788 -0.271579 0
M  V30 15973 H 1499.85 3.11554 0.255557 0
M  V30 15974 H 1499.07 3.25312 -2.22633 0
M  V30 15975 H 1500.36 4.4451 -2.47566 0
M  V30 15976 H 1499.76 5.63713 0.473746 0
M  V30 15977 H 1498.32 6.51599 0.161912 0
M  V30 15978 N 1501.75 1.10074 1.1279 0
M  V30 15979 C 1503 0.839212 1.83852 0
M  V30 15980 C 1503.32 -0.637023 1.84301 0
M  V30 15981 O 1502.59 -1.46239 1.30349 0
M  V30 15982 H 1501.17 0.307468 0.680788 0
M  V30 15983 H 1503.83 1.39025 1.36595 0
M  V30 15984 H 1502.93 1.19872 2.88162 0
M  V30 15985 N 1503.23 -1.30138 0.888926 0
M  V30 15986 C 1504.48 -1.95265 0.5054 0
M  V30 15987 C 1504.79 -1.70925 -0.950998 0
M  V30 15988 O 1506 -2.30069 -1.44155 0
M  V30 15989 C 1504.45 -3.49647 0.852937 0
M  V30 15990 C 1504.06 -3.82802 2.32737 0
M  V30 15991 C 1505.8 -4.21067 0.538801 0
M  V30 15992 C 1503.71 -5.30379 2.61633 0
M  V30 15993 H 1502.64 -0.730882 0.185278 0
M  V30 15994 H 1505.29 -1.48027 1.08444 0
M  V30 15995 H 1503.67 -3.9548 0.202937 0
M  V30 15996 H 1504.85 -3.47866 3.02202 0
M  V30 15997 H 1503.16 -3.24495 2.60944 0
M  V30 15998 H 1505.76 -5.2967 0.731676 0
M  V30 15999 H 1506.1 -4.13014 -0.522039 0
M  V30 16000 H 1506.64 -3.8093 1.14617 0
M  V30 16001 H 1503.37 -5.43486 3.66473 0
M  V30 16002 H 1502.89 -5.66601 1.96782 0
M  V30 16003 H 1504.57 -5.97856 2.47339 0
M  V30 16004 N 1504.71 -0.650285 -1.43559 0
M  V30 16005 C 1505.64 0.0295939 -2.33481 0
M  V30 16006 C 1506.62 0.815017 -1.49303 0
M  V30 16007 O 1507.8 0.77708 -1.77975 0
M  V30 16008 C 1504.93 0.998683 -3.32631 0
M  V30 16009 C 1503.89 0.323577 -4.26775 0
M  V30 16010 C 1503.21 1.40391 -5.1594 0
M  V30 16011 C 1504.51 -0.782197 -5.1641 0
M  V30 16012 H 1506.21 -0.721349 -2.9058 0
M  V30 16013 H 1503.75 -0.348339 -1.39723 0
M  V30 16014 H 1505.7 1.4832 -3.94435 0
M  V30 16015 H 1504.43 1.78075 -2.73782 0
M  V30 16016 H 1503.09 -0.140467 -3.66331 0
M  V30 16017 H 1502.74 2.17734 -4.53432 0
M  V30 16018 H 1502.44 0.957462 -5.79747 0
M  V30 16019 H 1503.96 1.88985 -5.80618 0
M  V30 16020 H 1505.37 -0.379966 -5.72039 0
M  V30 16021 H 1503.77 -1.15293 -5.88921 0
M  V30 16022 H 1504.84 -1.6414 -4.56274 0
M  V30 16023 N 1506.18 1.52647 -0.392018 0
M  V30 16024 C 1507.6 1.59544 -0.0421007 0
M  V30 16025 C 1507.8 1.40586 1.44353 0
M  V30 16026 O 1506.86 1.22422 2.20837 0
M  V30 16027 C 1508.17 2.9614 -0.521713 0
M  V30 16028 C 1509.72 3.09325 -0.478205 0
M  V30 16029 C 1510.19 4.48374 -0.93405 0
M  V30 16030 N 1511.68 4.54566 -0.890173 0
M  V30 16031 C 1512.42 5.60395 -1.21427 0
M  V30 16032 N 1511.91 6.73858 -1.60897 0
M  V30 16033 N 1513.71 5.50515 -1.13534 0
M  V30 16034 H 1505.86 1.63219 -1.35917 0
M  V30 16035 H 1508.12 0.766913 -0.557269 0
M  V30 16036 H 1507.83 3.15238 -1.55942 0
M  V30 16037 H 1507.7 3.7712 0.0777658 0
M  V30 16038 H 1510.09 2.89921 0.550418 0
M  V30 16039 H 1510.17 2.30292 -1.11352 0
M  V30 16040 H 1509.81 4.68519 -1.96092 0
M  V30 16041 H 1509.74 5.25878 -0.275717 0
M  V30 16042 H 1512.23 3.7311 -0.599758 0
M  V30 16043 H 1512.55 7.5058 -1.83983 0
M  V30 16044 H 1510.89 6.75182 -1.64786 0
M  V30 16045 H 1514.08 4.60755 -0.825977 0
M  V30 16046 H 1514.26 6.32889 -1.39124 0
M  V30 16047 N 1507.66 0.121921 1.57128 0
M  V30 16048 C 1508.89 -0.543012 1.99647 0
M  V30 16049 C 1509.31 -1.60038 1.00165 0
M  V30 16050 O 1508.66 -1.82499 -0.00504688 0
M  V30 16051 C 1508.71 -1.1665 3.42162 0
M  V30 16052 O 1508.43 -0.151385 4.37838 0
M  V30 16053 C 1509.94 -1.91447 3.99829 0
M  V30 16054 H 1507.16 -0.143524 0.655471 0
M  V30 16055 H 1509.7 0.20912 2.03428 0
M  V30 16056 H 1507.85 -1.86939 3.39312 0
M  V30 16057 H 1508.27 -0.604773 5.21002 0
M  V30 16058 H 1509.74 -2.30394 5.0162 0
M  V30 16059 H 1510.22 -2.7908 3.39133 0
M  V30 16060 H 1510.83 -1.25913 4.06234 0
M  V30 16061 N 1509.14 -1.56867 -0.151857 0
M  V30 16062 C 1510.39 -1.82721 -0.863575 0
M  V30 16063 C 1510.71 -0.702042 -1.81924 0
M  V30 16064 O 1509.98 0.27668 -1.93936 0
M  V30 16065 H 1508.56 -0.674088 -0.321893 0
M  V30 16066 H 1511.22 -1.94345 -0.14702 0
M  V30 16067 H 1510.32 -2.77476 -1.42876 0
M  V30 16068 N 1510.62 0.421051 -1.51871 0
M  V30 16069 C 1511.55 1.51928 -1.77313 0
M  V30 16070 C 1512.53 1.58258 -0.623579 0
M  V30 16071 O 1513.71 1.73724 -0.867967 0
M  V30 16072 C 1510.84 2.89865 -1.913 0
M  V30 16073 C 1509.8 2.98391 -3.06834 0
M  V30 16074 C 1509.12 4.38466 -3.06026 0
M  V30 16075 C 1510.42 2.7097 -4.46511 0
M  V30 16076 H 1512.12 1.30889 -2.69274 0
M  V30 16077 H 1509.66 0.628229 -1.29573 0
M  V30 16078 H 1511.62 3.66669 -2.07682 0
M  V30 16079 H 1510.34 3.12172 -0.960011 0
M  V30 16080 H 1509 2.24029 -2.90184 0
M  V30 16081 H 1508.65 4.57764 -2.08472 0
M  V30 16082 H 1508.35 4.45097 -3.83618 0
M  V30 16083 H 1509.87 5.17221 -3.24522 0
M  V30 16084 H 1511.29 3.37501 -4.63428 0
M  V30 16085 H 1509.68 2.88992 -5.25931 0
M  V30 16086 H 1510.75 1.66476 -4.55427 0
M  V30 16087 N 1512.1 1.42293 0.677538 0
M  V30 16088 C 1513.01 1.47953 1.82063 0
M  V30 16089 C 1514.02 0.36851 1.70053 0
M  V30 16090 O 1515.2 0.618996 1.91652 0
M  V30 16091 C 1512.26 1.3769 3.18186 0
M  V30 16092 C 1511.32 2.59261 3.42173 0
M  V30 16093 C 1510.56 2.49478 4.71801 0
M  V30 16094 O 1510.78 1.52915 5.49521 0
M  V30 16095 O 1509.71 3.39562 4.96972 0
M  V30 16096 H 1513.54 2.4443 1.80244 0
M  V30 16097 H 1511.13 1.24027 0.832932 0
M  V30 16098 H 1513.01 1.34319 3.9942 0
M  V30 16099 H 1511.68 0.443377 3.20649 0
M  V30 16100 H 1510.59 2.68207 2.60798 0
M  V30 16101 H 1511.92 3.51503 3.44538 0
M  V30 16102 N 1513.57 -0.913576 1.28419 0
M  V30 16103 C 1514.48 -2.04922 1.14211 0
M  V30 16104 C 1515.5 -1.73865 0.0686424 0
M  V30 16105 O 1516.68 -1.99473 0.277968 0
M  V30 16106 C 1513.74 -3.37214 0.805445 0
M  V30 16107 C 1512.8 -3.81879 1.96129 0
M  V30 16108 C 1512.04 -5.07858 1.6406 0
M  V30 16109 O 1512.26 -5.67693 0.555032 0
M  V30 16110 O 1511.19 -5.4824 2.48428 0
M  V30 16111 H 1515.02 -2.19827 2.09547 0
M  V30 16112 H 1512.6 -1.03501 1.0774 0
M  V30 16113 H 1514.49 -4.16639 0.631648 0
M  V30 16114 H 1513.16 -3.23484 -0.118254 0
M  V30 16115 H 1512.07 -3.03281 2.19024 0
M  V30 16116 H 1513.4 -4.00173 2.8657 0
M  V30 16117 N 1515.05 -1.1067 -1.12204 0
M  V30 16118 C 1516.3 -0.85189 -1.8404 0
M  V30 16119 C 1516.63 0.620988 -1.84004 0
M  V30 16120 O 1515.91 1.45801 -1.28734 0
M  V30 16121 C 1516.19 -1.40401 -3.31602 0
M  V30 16122 C 1516.04 -2.94392 -3.40078 0
M  V30 16123 C 1517.36 -1.04834 -4.27432 0
M  V30 16124 H 1514.48 -0.310924 -0.668203 0
M  V30 16125 H 1517.12 -1.37026 -1.3162 0
M  V30 16126 H 1515.27 -0.963107 -3.76373 0
M  V30 16127 H 1516.94 -3.47027 -3.03924 0
M  V30 16128 H 1515.19 -3.3087 -2.80548 0
M  V30 16129 H 1515.86 -3.28107 -4.43903 0
M  V30 16130 H 1518.33 -1.42882 -3.90799 0
M  V30 16131 H 1517.21 -1.46153 -5.29085 0
M  V30 16132 H 1517.47 0.0419272 -4.4208 0
M  V30 16133 N 1516.53 1.29665 -0.895815 0
M  V30 16134 C 1517.48 2.27831 -0.369011 0
M  V30 16135 C 1518.45 1.56843 0.546756 0
M  V30 16136 O 1519.63 1.84848 0.472837 0
M  V30 16137 C 1516.77 3.42764 0.400884 0
M  V30 16138 C 1515.89 4.28544 -0.545335 0
M  V30 16139 C 1515.02 5.30652 0.241228 0
M  V30 16140 C 1514.06 6.08087 -0.699765 0
M  V30 16141 N 1513.2 7.02081 0.0521477 0
M  V30 16142 H 1518.04 2.72274 -1.21124 0
M  V30 16143 H 1515.57 1.33918 -0.608631 0
M  V30 16144 H 1517.53 4.08171 0.863277 0
M  V30 16145 H 1516.16 2.99361 1.2076 0
M  V30 16146 H 1515.21 3.63346 -1.12624 0
M  V30 16147 H 1516.53 4.82472 -1.26579 0
M  V30 16148 H 1515.68 6.01858 0.764994 0
M  V30 16149 H 1514.42 4.77446 0.994838 0
M  V30 16150 H 1513.42 5.35748 -1.23507 0
M  V30 16151 H 1514.65 6.63382 -1.45264 0
M  V30 16152 H 1512.59 6.51249 0.788096 0
M  V30 16153 H 1512.51 7.53547 -0.60847 0
M  V30 16154 H 1513.78 7.77512 0.556304 0
M  V30 16155 N 1518.01 0.657889 1.43212 0
M  V30 16156 C 1518.94 -0.0695999 2.29094 0
M  V30 16157 C 1519.95 -0.782463 1.42763 0
M  V30 16158 O 1521.14 -0.63944 1.66654 0
M  V30 16159 C 1518.24 -1.12178 3.19796 0
M  V30 16160 C 1517.42 -0.486131 4.3469 0
M  V30 16161 C 1516.47 -1.43582 5.06232 0
M  V30 16162 O 1515.5 -0.942622 5.61341 0
M  V30 16163 N 1516.7 -2.76966 5.10167 0
M  V30 16164 H 1519.47 0.667565 2.92171 0
M  V30 16165 H 1517.03 0.501022 1.53953 0
M  V30 16166 H 1519.02 -1.75801 3.64522 0
M  V30 16167 H 1517.59 -1.76087 2.58287 0
M  V30 16168 H 1516.81 0.329281 3.92822 0
M  V30 16169 H 1518.1 -0.0425918 5.08782 0
M  V30 16170 H 1517.5 -3.19592 4.66774 0
M  V30 16171 H 1516.05 -3.3588 5.58595 0
M  V30 16172 N 1519.49 -1.52437 0.400108 0
M  V30 16173 C 1520.73 -2.01711 -0.178605 0
M  V30 16174 C 1521.06 -1.28613 -1.45908 0
M  V30 16175 O 1520.32 -0.378206 -1.92011 0
M  V30 16176 C 1520.62 -3.54133 -0.482141 0
M  V30 16177 C 1520.28 -4.45306 0.70806 0
M  V30 16178 C 1518.94 -4.69947 1.03455 0
M  V30 16179 C 1521.3 -4.99035 1.50379 0
M  V30 16180 C 1518.62 -5.45566 2.15812 0
M  V30 16181 C 1520.98 -5.75883 2.61805 0
M  V30 16182 C 1519.64 -5.98799 2.9495 0
M  V30 16183 H 1518.91 -0.738112 -0.0653562 0
M  V30 16184 H 1521.56 -1.83738 0.539676 0
M  V30 16185 H 1519.86 -3.70237 -1.28188 0
M  V30 16186 H 1521.56 -3.89761 -0.942725 0
M  V30 16187 H 1518.15 -4.26298 0.443599 0
M  V30 16188 H 1522.33 -4.79913 1.26479 0
M  V30 16189 H 1517.59 -5.61532 2.4185 0
M  V30 16190 H 1521.76 -6.16514 3.23857 0
M  V30 16191 H 1519.39 -6.57176 3.8213 0
M  V30 16192 N 1520.96 -0.130252 -1.57061 0
M  V30 16193 C 1522.21 0.525006 -1.95576 0
M  V30 16194 C 1522.54 1.65964 -1.0142 0
M  V30 16195 O 1521.79 1.95659 -0.0401898 0
M  V30 16196 C 1522.09 1.08776 -3.40445 0
M  V30 16197 C 1521.76 0.0733062 -4.5084 0
M  V30 16198 C 1520.42 -0.20561 -4.80761 0
M  V30 16199 C 1522.77 -0.617428 -5.1753 0
M  V30 16200 C 1520.1 -1.18135 -5.74683 0
M  V30 16201 C 1522.45 -1.58188 -6.12503 0
M  V30 16202 C 1521.12 -1.86866 -6.4081 0
M  V30 16203 H 1520.39 0.192113 -0.715663 0
M  V30 16204 H 1523.03 -0.21354 -1.90306 0
M  V30 16205 H 1521.34 1.9033 -3.42464 0
M  V30 16206 H 1523.04 1.60305 -3.67564 0
M  V30 16207 H 1519.63 0.30088 -4.27543 0
M  V30 16208 H 1523.81 -0.415124 -4.94561 0
M  V30 16209 H 1519.07 -1.41017 -5.94915 0
M  V30 16210 H 1523.24 -2.12271 -6.6326 0
M  V30 16211 H 1520.87 -2.62628 -7.13394 0
M  V30 16212 N 1522.44 1.56945 0.143535 0
M  V30 16213 C 1523.41 1.97616 1.16106 0
M  V30 16214 C 1524.41 0.863113 1.35672 0
M  V30 16215 O 1525.6 1.12966 1.32606 0
M  V30 16216 C 1522.73 2.29511 2.52067 0
M  V30 16217 H 1523.92 2.88696 0.812066 0
M  V30 16218 H 1521.47 1.51433 0.386999 0
M  V30 16219 H 1522.21 1.41233 2.91931 0
M  V30 16220 H 1521.99 3.10667 2.39225 0
M  V30 16221 H 1523.48 2.61802 3.25345 0
M  V30 16222 N 1523.92 -0.412991 1.52093 0
M  V30 16223 C 1524.85 -1.50986 1.78117 0
M  V30 16224 C 1525.83 -1.57925 0.631963 0
M  V30 16225 O 1527.02 -1.73261 0.877168 0
M  V30 16226 C 1524.15 -2.88846 1.92835 0
M  V30 16227 C 1523.1 -2.96759 3.08412 0
M  V30 16228 C 1522.43 -4.36837 3.08347 0
M  V30 16229 C 1523.73 -2.68599 4.47942 0
M  V30 16230 H 1525.42 -1.29459 2.69964 0
M  V30 16231 H 1522.97 -0.621348 1.29905 0
M  V30 16232 H 1524.92 -3.65563 2.09623 0
M  V30 16233 H 1523.64 -3.11658 0.976553 0
M  V30 16234 H 1522.3 -2.22487 2.91368 0
M  V30 16235 H 1521.95 -4.56652 2.10897 0
M  V30 16236 H 1521.65 -4.43056 3.85973 0
M  V30 16237 H 1523.18 -5.15493 3.2726 0
M  V30 16238 H 1524.59 -3.35039 4.65212 0
M  V30 16239 H 1522.99 -2.86199 5.27456 0
M  V30 16240 H 1524.06 -1.64058 4.56304 0
M  V30 16241 N 1525.4 -1.4265 -0.669982 0
M  V30 16242 C 1526.35 -1.46746 -1.80467 0
M  V30 16243 C 1527.34 -0.342698 -1.65897 0
M  V30 16244 O 1528.55 -0.515933 -1.72447 0
M  V30 16245 H 1524.92 -0.4597 -0.59513 0
M  V30 16246 H 1526.89 -2.42325 -1.7413 0
M  V30 16247 C 1525.64 -1.39141 -3.18646 0
M  V30 16248 H 1524.97 -2.24987 -3.30486 0
M  V30 16249 H 1526.41 -1.46068 -3.98045 0
M  V30 16250 C 1524.86 -0.106802 -3.36731 0
M  V30 16251 O 1525.39 0.838535 -3.9285 0
M  V30 16252 N 1523.6 -0.0223958 -2.90591 0
M  V30 16253 H 1523.15 -0.792469 -2.45108 0
M  V30 16254 H 1523.11 0.836462 -3.03069 0
M  V30 16255 N 1526.88 0.906753 -1.28902 0
M  V30 16256 C 1528.13 1.6533 -1.16234 0
M  V30 16257 C 1528.45 1.92861 0.288004 0
M  V30 16258 O 1527.72 1.54971 1.19837 0
M  V30 16259 H 1526.3 0.612806 -0.427174 0
M  V30 16260 H 1528.96 1.08764 -1.6173 0
M  V30 16261 H 1528.05 2.61271 -1.70715 0
M  V30 16262 N 1528.36 1.11264 1.11616 0
M  V30 16263 C 1529.58 0.88306 1.87661 0
M  V30 16264 C 1530.01 -0.561586 1.79521 0
M  V30 16265 O 1529.36 -1.3964 1.1563 0
M  V30 16266 C 1529.41 1.34698 3.34498 0
M  V30 16267 O 1528.52 0.517512 4.0914 0
M  V30 16268 H 1527.86 0.318233 0.582772 0
M  V30 16269 H 1530.39 1.48164 1.41098 0
M  V30 16270 H 1530.4 1.34068 3.85344 0
M  V30 16271 H 1529.07 2.39896 3.39739 0
M  V30 16272 H 1527.65 0.589751 3.68207 0
M  V30 16273 N 1529.83 -1.29188 0.902679 0
M  V30 16274 C 1531.07 -1.97218 0.53707 0
M  V30 16275 C 1531.44 -1.69577 -0.900422 0
M  V30 16276 O 1532.64 -2.31086 -1.37305 0
M  V30 16277 C 1530.91 -3.47753 0.824796 0
M  V30 16278 S 1532.47 -4.35161 0.563943 0
M  V30 16279 H 1529.29 -0.682544 0.199136 0
M  V30 16280 H 1531.89 -1.56941 1.16575 0
M  V30 16281 H 1530.59 -3.65364 1.86916 0
M  V30 16282 H 1530.12 -3.92968 0.184342 0
M  V30 16283 H 1532.14 -4.92683 -0.589697 0
M  V30 16284 N 1531.31 -0.665475 -1.42861 0
M  V30 16285 C 1532.73 -0.334157 -1.56063 0
M  V30 16286 C 1532.93 1.16104 -1.64688 0
M  V30 16287 O 1531.98 1.94622 -1.60867 0
M  V30 16288 C 1533.3 -1.05628 -2.81537 0
M  V30 16289 C 1534.84 -1.03771 -2.95297 0
M  V30 16290 C 1535.32 -1.74098 -4.2362 0
M  V30 16291 N 1536.81 -1.7092 -4.30512 0
M  V30 16292 C 1537.55 -2.222 -5.28597 0
M  V30 16293 N 1537.04 -2.81821 -6.32889 0
M  V30 16294 N 1538.83 -2.12628 -5.20332 0
M  V30 16295 H 1530.99 -1.6356 -1.35506 0
M  V30 16296 H 1533.25 -0.688538 -0.651628 0
M  V30 16297 H 1532.95 -2.11141 -2.81269 0
M  V30 16298 H 1532.83 -0.615586 -3.72143 0
M  V30 16299 H 1535.22 0.00905324 -2.95099 0
M  V30 16300 H 1535.3 -1.51721 -2.05948 0
M  V30 16301 H 1534.94 -2.78737 -4.2458 0
M  V30 16302 H 1534.87 -1.23604 -5.11888 0
M  V30 16303 H 1537.36 -1.27425 -3.55769 0
M  V30 16304 H 1537.67 -3.18594 -7.04072 0
M  V30 16305 H 1536.02 -2.85887 -6.33478 0
M  V30 16306 H 1539.21 -1.65746 -4.37774 0
M  V30 16307 H 1539.38 -2.52899 -5.96612 0
M  V30 16308 N 1532.79 1.52222 -0.408187 0
M  V30 16309 C 1533.72 2.29892 0.408868 0
M  V30 16310 C 1534.7 1.34063 1.04695 0
M  V30 16311 O 1535.89 1.6297 1.05615 0
M  V30 16312 C 1533.02 3.11964 1.52629 0
M  V30 16313 C 1531.97 4.15833 1.01326 0
M  V30 16314 C 1531.3 4.86244 2.2242 0
M  V30 16315 C 1532.6 5.22256 0.0679573 0
M  V30 16316 H 1534.29 2.98443 -0.23923 0
M  V30 16317 H 1531.84 1.43528 -0.116496 0
M  V30 16318 H 1533.79 3.65067 2.10486 0
M  V30 16319 H 1532.51 2.41181 2.20225 0
M  V30 16320 H 1531.17 3.63739 0.4571 0
M  V30 16321 H 1530.82 4.11991 2.88569 0
M  V30 16322 H 1530.52 5.56461 1.88746 0
M  V30 16323 H 1532.04 5.42159 2.80885 0
M  V30 16324 H 1533.46 5.70604 0.555295 0
M  V30 16325 H 1531.85 5.9983 -0.179934 0
M  V30 16326 H 1532.92 4.76892 -0.877599 0
M  V30 16327 N 1534.27 0.138579 1.5699 0
M  V30 16328 C 1535.68 -0.383633 1.82716 0
M  V30 16329 C 1536.03 -1.65304 1.05684 0
M  V30 16330 O 1535.15 -2.14318 0.299488 0
M  V30 16331 C 1535.75 -0.7028 3.3143 0
M  V30 16332 C 1534.31 -1.16957 3.57768 0
M  V30 16333 C 1533.46 -0.188295 2.7666 0
M  V30 16334 H 1536.41 0.363415 1.54483 0
M  V30 16335 H 1536.43 -1.55832 3.47126 0
M  V30 16336 H 1535.94 0.221271 3.87469 0
M  V30 16337 H 1534.04 -2.10987 3.07108 0
M  V30 16338 H 1534.15 -1.10136 4.66269 0
M  V30 16339 H 1532.52 -0.679255 2.45475 0
M  V30 16340 H 1533.3 0.729218 3.35466 0
M  V30 16341 N 1535.75 -1.57019 -0.13521 0
M  V30 16342 C 1536.68 -2.02182 -1.16811 0
M  V30 16343 C 1537.66 -0.9034 -1.44127 0
M  V30 16344 O 1538.84 -1.17202 -1.54846 0
M  V30 16345 C 1535.97 -2.41243 -2.49838 0
M  V30 16346 C 1534.93 -3.56379 -2.37018 0
M  V30 16347 C 1534.25 -3.8129 -3.74863 0
M  V30 16348 C 1535.55 -4.88653 -1.84432 0
M  V30 16349 H 1537.25 -2.8872 -0.792529 0
M  V30 16350 H 1534.79 -1.38901 -0.379788 0
M  V30 16351 H 1536.74 -2.7144 -3.22332 0
M  V30 16352 H 1535.47 -1.51656 -2.89254 0
M  V30 16353 H 1534.13 -3.26366 -1.66975 0
M  V30 16354 H 1533.78 -2.88934 -4.11735 0
M  V30 16355 H 1533.48 -4.58781 -3.67143 0
M  V30 16356 H 1535 -4.13924 -4.48887 0
M  V30 16357 H 1536.41 -5.17492 -2.46729 0
M  V30 16358 H 1534.81 -5.70032 -1.87574 0
M  V30 16359 H 1535.88 -4.78242 -0.800759 0
M  V30 16360 N 1537.22 0.404919 -1.52309 0
M  V30 16361 C 1538.45 1.17764 -1.70723 0
M  V30 16362 C 1538.87 1.83403 -0.417744 0
M  V30 16363 O 1538.23 1.70181 0.625157 0
M  V30 16364 C 1538.28 2.2133 -2.84685 0
M  V30 16365 O 1537.38 3.27566 -2.50548 0
M  V30 16366 H 1536.73 0.343572 -0.568203 0
M  V30 16367 H 1539.26 0.474093 -1.99031 0
M  V30 16368 H 1539.27 2.6559 -3.09719 0
M  V30 16369 H 1537.94 1.72939 -3.78239 0
M  V30 16370 H 1536.52 2.88556 -2.36199 0
M  V30 16371 N 1538.7 1.43003 0.662408 0
M  V30 16372 C 1540.11 1.39275 1.24336 0
M  V30 16373 C 1540.46 0.0921999 1.95983 0
M  V30 16374 O 1539.59 -0.808677 2.00722 0
M  V30 16375 C 1540.18 2.52287 2.26134 0
M  V30 16376 C 1538.74 2.51853 2.79727 0
M  V30 16377 C 1537.89 2.30453 1.5423 0
M  V30 16378 H 1540.84 1.52038 0.455002 0
M  V30 16379 H 1540.86 2.23249 3.08123 0
M  V30 16380 H 1540.37 3.46929 1.73959 0
M  V30 16381 H 1538.48 1.61064 3.3599 0
M  V30 16382 H 1538.59 3.49313 3.27898 0
M  V30 16383 H 1536.95 1.78946 1.81247 0
M  V30 16384 H 1537.74 3.27167 1.04003 0
M  V30 16385 N 1540.18 -0.899904 1.29381 0
M  V30 16386 C 1541.41 -1.68911 1.20349 0
M  V30 16387 C 1541.83 -1.86657 -0.232523 0
M  V30 16388 O 1541.19 -1.38674 -1.16787 0
M  V30 16389 C 1541.24 -3.05124 1.92177 0
M  V30 16390 O 1540.34 -3.93358 1.23867 0
M  V30 16391 H 1539.68 -0.516698 0.417036 0
M  V30 16392 H 1542.21 -1.12422 1.70946 0
M  V30 16393 H 1542.22 -3.55267 2.00623 0
M  V30 16394 H 1540.9 -2.91525 2.96624 0
M  V30 16395 H 1539.47 -3.51793 1.23677 0
M  V30 16396 N 1541.66 -1.11854 -1.11024 0
M  V30 16397 C 1542.59 -0.803129 -2.19253 0
M  V30 16398 C 1543.57 0.230417 -1.68532 0
M  V30 16399 O 1544.75 0.0929421 -1.93977 0
M  V30 16400 C 1541.88 -0.250265 -3.46397 0
M  V30 16401 C 1540.84 -1.21617 -4.10357 0
M  V30 16402 C 1540.16 -0.523821 -5.32128 0
M  V30 16403 C 1541.46 -2.56852 -4.54779 0
M  V30 16404 H 1543.16 -1.7081 -2.45895 0
M  V30 16405 H 1540.7 -0.822712 -1.18184 0
M  V30 16406 H 1542.66 -0.0173732 -4.21396 0
M  V30 16407 H 1541.38 0.690018 -3.19228 0
M  V30 16408 H 1540.04 -1.43477 -3.37357 0
M  V30 16409 H 1539.69 0.421408 -5.01232 0
M  V30 16410 H 1539.39 -1.16809 -5.75873 0
M  V30 16411 H 1540.91 -0.299823 -6.09863 0
M  V30 16412 H 1542.33 -2.39056 -5.21081 0
M  V30 16413 H 1540.72 -3.17301 -5.09353 0
M  V30 16414 H 1541.79 -3.15751 -3.68007 0
M  V30 16415 N 1543.14 1.28707 -0.909517 0
M  V30 16416 C 1544.07 2.29845 -0.411552 0
M  V30 16417 C 1545.05 1.62001 0.518615 0
M  V30 16418 O 1546.23 1.89442 0.427252 0
M  V30 16419 C 1543.36 3.45501 0.353013 0
M  V30 16420 C 1542.32 4.25213 -0.487625 0
M  V30 16421 C 1541.64 5.33164 0.405026 0
M  V30 16422 C 1542.94 4.9237 -1.74268 0
M  V30 16423 H 1544.64 2.71746 -1.25676 0
M  V30 16424 H 1542.18 1.30639 -0.605759 0
M  V30 16425 H 1544.14 4.15338 0.712191 0
M  V30 16426 H 1542.86 3.02469 1.23209 0
M  V30 16427 H 1541.52 3.57098 -0.829265 0
M  V30 16428 H 1541.17 4.86375 1.28252 0
M  V30 16429 H 1540.87 5.87399 -0.153811 0
M  V30 16430 H 1542.39 6.0585 0.760179 0
M  V30 16431 H 1543.8 5.5459 -1.45266 0
M  V30 16432 H 1542.2 5.56581 -2.2436 0
M  V30 16433 H 1543.27 4.171 -2.47297 0
M  V30 16434 N 1544.61 0.673042 1.42506 0
M  V30 16435 C 1545.86 0.194864 2.01862 0
M  V30 16436 C 1546.19 -1.19491 1.53087 0
M  V30 16437 O 1545.47 -1.80187 0.732322 0
M  V30 16438 C 1545.75 0.227559 3.5938 0
M  V30 16439 C 1545.6 1.65266 4.18338 0
M  V30 16440 C 1546.92 -0.425197 4.38041 0
M  V30 16441 H 1544.04 0.0722831 0.733447 0
M  V30 16442 H 1546.68 0.857493 1.6955 0
M  V30 16443 H 1544.83 -0.336658 3.87039 0
M  V30 16444 H 1546.51 2.26899 4.0164 0
M  V30 16445 H 1544.75 2.19388 3.74234 0
M  V30 16446 H 1545.42 1.62724 5.2747 0
M  V30 16447 H 1547.9 0.0550709 4.16064 0
M  V30 16448 H 1546.77 -0.371675 5.4764 0
M  V30 16449 H 1547.03 -1.50251 4.15785 0
M  V30 16450 N 1546.09 -1.52004 0.416254 0
M  V30 16451 C 1547.04 -2.27206 -0.405723 0
M  V30 16452 C 1548.01 -1.29913 -1.03498 0
M  V30 16453 O 1549.19 -1.58786 -1.0579 0
M  V30 16454 C 1546.33 -3.10186 -1.51258 0
M  V30 16455 C 1545.45 -4.22445 -0.903539 0
M  V30 16456 C 1544.58 -4.92771 -1.98368 0
M  V30 16457 C 1543.62 -5.96983 -1.35196 0
M  V30 16458 N 1542.76 -6.60798 -2.37255 0
M  V30 16459 H 1547.6 -2.97016 0.241983 0
M  V30 16460 H 1545.14 -1.46514 0.131174 0
M  V30 16461 H 1547.09 -3.56606 -2.16537 0
M  V30 16462 H 1545.72 -2.42532 -2.13021 0
M  V30 16463 H 1544.78 -3.80144 -0.139607 0
M  V30 16464 H 1546.09 -4.97176 -0.402136 0
M  V30 16465 H 1545.24 -5.42633 -2.71357 0
M  V30 16466 H 1543.98 -4.17624 -2.51876 0
M  V30 16467 H 1542.99 -5.46434 -0.607431 0
M  V30 16468 H 1544.21 -6.74076 -0.824482 0
M  V30 16469 H 1542.16 -5.88476 -2.89882 0
M  V30 16470 H 1542.07 -7.31227 -1.91947 0
M  V30 16471 H 1543.34 -7.15296 -3.09792 0
M  V30 16472 N 1547.57 -0.146903 -1.56914 0
M  V30 16473 C 1548.82 0.503237 -1.95734 0
M  V30 16474 C 1549.14 1.65407 -1.03275 0
M  V30 16475 O 1548.41 1.95673 -0.0942784 0
M  V30 16476 H 1546.99 0.188899 -0.722721 0
M  V30 16477 H 1549.65 -0.222379 -1.93627 0
M  V30 16478 H 1548.75 0.879445 -2.99453 0
M  V30 16479 N 1549.05 1.57088 0.126881 0
M  V30 16480 C 1550.3 1.83624 0.834582 0
M  V30 16481 C 1550.61 0.731331 1.81414 0
M  V30 16482 O 1551.82 0.88286 2.56745 0
M  V30 16483 C 1550.27 3.25529 1.5349 0
M  V30 16484 C 1549.88 4.44008 0.59673 0
M  V30 16485 C 1551.62 3.6132 2.22819 0
M  V30 16486 C 1549.53 5.76939 1.29982 0
M  V30 16487 H 1548.46 0.684858 0.315414 0
M  V30 16488 H 1551.11 1.83292 0.087305 0
M  V30 16489 H 1549.49 3.20306 2.32852 0
M  V30 16490 H 1550.67 4.60511 -0.163109 0
M  V30 16491 H 1548.98 4.16399 0.0108081 0
M  V30 16492 H 1551.58 4.57902 2.76098 0
M  V30 16493 H 1551.92 2.88363 3.00254 0
M  V30 16494 H 1552.46 3.68291 1.50354 0
M  V30 16495 H 1549.2 6.53044 0.566925 0
M  V30 16496 H 1548.72 5.64336 2.03187 0
M  V30 16497 H 1550.39 6.20427 1.8352 0
M  V30 16498 N 1550.53 -0.396836 1.52522 0
M  V30 16499 C 1551.77 -1.14432 1.67431 0
M  V30 16500 C 1552.11 -1.89842 0.409115 0
M  V30 16501 O 1551.38 -1.85244 -0.592863 0
M  V30 16502 C 1551.66 -2.12889 2.90431 0
M  V30 16503 C 1551.52 -1.41295 4.27031 0
M  V30 16504 C 1552.84 -3.13412 3.08967 0
M  V30 16505 H 1549.95 -0.414643 0.609295 0
M  V30 16506 H 1552.6 -0.428604 1.85103 0
M  V30 16507 H 1550.75 -2.73924 2.75495 0
M  V30 16508 H 1552.42 -0.832848 4.53719 0
M  V30 16509 H 1550.66 -0.714834 4.2787 0
M  V30 16510 H 1551.33 -2.13198 5.09167 0
M  V30 16511 H 1553.81 -2.62462 3.22883 0
M  V30 16512 H 1552.68 -3.79555 3.96522 0
M  V30 16513 H 1552.95 -3.81836 2.22831 0
M  V30 16514 N 1552.01 -1.43353 -0.654814 0
M  V30 16515 C 1553.42 -1.39933 -1.23595 0
M  V30 16516 C 1553.77 -0.102592 -1.95932 0
M  V30 16517 O 1552.89 0.798021 -2.01148 0
M  V30 16518 C 1553.49 -2.53483 -2.24793 0
M  V30 16519 C 1552.05 -2.53333 -2.78387 0
M  V30 16520 C 1551.19 -2.31268 -1.53005 0
M  V30 16521 H 1554.14 -1.52277 -0.446932 0
M  V30 16522 H 1554.17 -2.2488 -3.06935 0
M  V30 16523 H 1553.68 -3.47847 -1.72116 0
M  V30 16524 H 1551.78 -1.62844 -3.35131 0
M  V30 16525 H 1551.89 -3.51047 -3.26041 0
M  V30 16526 H 1550.26 -1.79905 -1.80295 0
M  V30 16527 H 1551.04 -3.27714 -1.02266 0
M  V30 16528 N 1553.48 0.89303 -1.29857 0
M  V30 16529 C 1554.9 1.17496 -1.08013 0
M  V30 16530 C 1555.1 2.00829 0.164302 0
M  V30 16531 O 1554.16 2.37396 0.860194 0
M  V30 16532 C 1555.47 1.88944 -2.33924 0
M  V30 16533 C 1557.02 2.01742 -2.3931 0
M  V30 16534 C 1557.49 2.76601 -3.65042 0
M  V30 16535 N 1558.98 2.84152 -3.65803 0
M  V30 16536 C 1559.72 3.42628 -4.59776 0
M  V30 16537 N 1559.21 4.02218 -5.64086 0
M  V30 16538 N 1561.01 3.40366 -4.47334 0
M  V30 16539 H 1553.16 0.33719 -2.09706 0
M  V30 16540 H 1555.42 0.211899 -0.924014 0
M  V30 16541 H 1555.13 1.35151 -3.24695 0
M  V30 16542 H 1555 2.89379 -2.4195 0
M  V30 16543 H 1557.39 2.54708 -1.49022 0
M  V30 16544 H 1557.47 1.0042 -2.35265 0
M  V30 16545 H 1557.11 2.24309 -4.55684 0
M  V30 16546 H 1557.04 3.78283 -3.66346 0
M  V30 16547 H 1559.53 2.41835 -2.90386 0
M  V30 16548 H 1559.85 4.4488 -6.31903 0
M  V30 16549 H 1558.19 4.00661 -5.67887 0
M  V30 16550 H 1561.38 2.93035 -3.65031 0
M  V30 16551 H 1561.56 3.85644 -5.20752 0
M  V30 16552 N 1554.96 1.12442 1.10429 0
M  V30 16553 C 1556.24 0.791191 1.78884 0
M  V30 16554 C 1556.62 -0.719044 1.98477 0
M  V30 16555 O 1555.97 -1.65275 1.57786 0
M  V30 16556 C 1556.18 1.56632 3.11877 0
M  V30 16557 C 1557.52 1.75236 3.86752 0
M  V30 16558 O 1558.55 1.53145 3.21598 0
M  V30 16559 O 1557.41 2.12025 5.03694 0
M  V30 16560 H 1554.5 0.287788 0.775311 0
M  V30 16561 H 1557.05 1.22844 1.17078 0
M  V30 16562 H 1555.82 2.59317 2.93037 0
M  V30 16563 H 1555.44 1.12332 3.81402 0
M  V30 16564 N 1556.44 -1.28223 0.91633 0
M  V30 16565 C 1557.68 -1.96637 0.557957 0
M  V30 16566 C 1558.04 -1.70523 -0.882386 0
M  V30 16567 O 1559.24 -2.32529 -1.34846 0
M  V30 16568 C 1557.52 -3.46858 0.861633 0
M  V30 16569 S 1559.07 -4.34538 0.610066 0
M  V30 16570 H 1555.89 -0.680393 0.206364 0
M  V30 16571 H 1558.49 -1.55696 1.18233 0
M  V30 16572 H 1557.2 -3.63361 1.90781 0
M  V30 16573 H 1556.73 -3.9275 0.226011 0
M  V30 16574 H 1558.74 -4.93281 -0.537408 0
M  V30 16575 N 1557.92 -0.68059 -1.42147 0
M  V30 16576 C 1559.14 -0.212293 -2.06311 0
M  V30 16577 C 1559.57 1.12402 -1.50822 0
M  V30 16578 O 1558.93 1.70037 -0.629051 0
M  V30 16579 C 1558.97 -0.164156 -3.60226 0
M  V30 16580 O 1558.08 0.865582 -4.03214 0
M  V30 16581 H 1557.42 -0.107451 -0.655248 0
M  V30 16582 H 1559.95 -0.931233 -1.82179 0
M  V30 16583 H 1559.96 0.0100422 -4.07999 0
M  V30 16584 H 1558.63 -1.13952 -3.99985 0
M  V30 16585 H 1557.21 0.661955 -3.66978 0
M  V30 16586 N 1559.4 1.51781 -0.424309 0
M  V30 16587 C 1560.63 2.06088 0.145337 0
M  V30 16588 C 1561.03 1.29297 1.38127 0
M  V30 16589 O 1560.38 0.342227 1.80484 0
M  V30 16590 C 1560.44 3.55333 0.545777 0
M  V30 16591 C 1560.1 4.53285 -0.581528 0
M  V30 16592 C 1561.1 4.99278 -1.44973 0
M  V30 16593 C 1558.78 4.96539 -0.758549 0
M  V30 16594 C 1560.78 5.87185 -2.47977 0
M  V30 16595 C 1558.47 5.84239 -1.79188 0
M  V30 16596 C 1559.46 6.29458 -2.65089 0
M  V30 16597 O 1559.15 7.15418 -3.6665 0
M  V30 16598 H 1558.88 0.675782 0.0171719 0
M  V30 16599 H 1561.44 1.96492 -0.598349 0
M  V30 16600 H 1559.67 3.62668 1.34197 0
M  V30 16601 H 1561.36 3.92215 1.04508 0
M  V30 16602 H 1562.12 4.66566 -1.32445 0
M  V30 16603 H 1558 4.60893 -0.0995452 0
M  V30 16604 H 1561.55 6.22401 -3.15059 0
M  V30 16605 H 1557.44 6.16365 -1.91742 0
M  V30 16606 H 1558.21 7.33566 -3.63074 0
M  V30 16607 N 1560.87 0.155222 1.56834 0
M  V30 16608 C 1562.12 -0.493826 1.96386 0
M  V30 16609 C 1562.45 -1.6433 1.04048 0
M  V30 16610 O 1561.7 -1.9557 0.0713123 0
M  V30 16611 C 1562 -1.03346 3.42132 0
M  V30 16612 C 1561.67 -0.00157215 4.509 0
M  V30 16613 C 1560.33 0.282068 4.80373 0
M  V30 16614 C 1562.68 0.699684 5.16482 0
M  V30 16615 C 1560.01 1.27263 5.72731 0
M  V30 16616 C 1562.36 1.67912 6.09908 0
M  V30 16617 C 1561.03 1.97037 6.37756 0
M  V30 16618 H 1560.3 -0.180704 0.718629 0
M  V30 16619 H 1562.94 0.243789 1.89942 0
M  V30 16620 H 1561.25 -1.84857 3.45449 0
M  V30 16621 H 1562.95 -1.54437 3.70068 0
M  V30 16622 H 1559.54 -0.232824 4.27967 0
M  V30 16623 H 1563.72 0.493751 4.93838 0
M  V30 16624 H 1558.98 1.50464 5.92597 0
M  V30 16625 H 1563.15 2.22796 6.59799 0
M  V30 16626 H 1560.78 2.73944 7.09125 0
M  V30 16627 N 1562.35 -1.57153 -0.118549 0
M  V30 16628 C 1563.3 -2.01357 -1.1644 0
M  V30 16629 C 1564.29 -0.910574 -1.42846 0
M  V30 16630 O 1565.5 -1.09578 -1.42803 0
M  V30 16631 H 1561.87 -0.641376 -0.392607 0
M  V30 16632 H 1563.85 -2.88425 -0.765087 0
M  V30 16633 C 1562.59 -2.43416 -2.48282 0
M  V30 16634 H 1561.92 -3.27857 -2.288 0
M  V30 16635 H 1563.36 -2.78143 -3.20019 0
M  V30 16636 C 1561.82 -1.29799 -3.10892 0
M  V30 16637 O 1562.35 -0.614207 -3.96977 0
M  V30 16638 N 1560.55 -1.05493 -2.70776 0
M  V30 16639 H 1560.1 -1.61276 -2.00868 0
M  V30 16640 H 1560.06 -0.296678 -3.12997 0
M  V30 16641 N 1563.83 0.388742 -1.5273 0
M  V30 16642 C 1565.05 1.15946 -1.71963 0
M  V30 16643 C 1565.48 1.82949 -0.437173 0
M  V30 16644 O 1564.84 1.70834 0.607072 0
M  V30 16645 C 1564.89 2.18298 -2.87016 0
M  V30 16646 O 1563.99 3.24891 -2.54008 0
M  V30 16647 H 1563.33 0.337526 -0.571815 0
M  V30 16648 H 1565.86 0.452957 -1.99523 0
M  V30 16649 H 1565.87 2.6229 -3.12519 0
M  V30 16650 H 1564.55 1.68917 -3.80052 0
M  V30 16651 H 1563.12 2.86034 -2.39246 0
M  V30 16652 N 1565.31 1.43698 0.647203 0
M  V30 16653 C 1566.26 1.49599 1.78109 0
M  V30 16654 C 1567.25 0.369047 1.65331 0
M  V30 16655 O 1568.46 0.543303 1.71605 0
M  V30 16656 H 1564.83 0.46911 0.587741 0
M  V30 16657 H 1566.8 2.45064 1.70253 0
M  V30 16658 C 1565.55 1.44192 3.16392 0
M  V30 16659 H 1564.87 2.30216 3.26865 0
M  V30 16660 H 1566.31 1.52382 3.95671 0
M  V30 16661 C 1564.77 0.16036 3.36518 0
M  V30 16662 O 1565.3 -0.77593 3.94135 0
M  V30 16663 N 1563.51 0.0686236 2.90519 0
M  V30 16664 H 1563.06 0.831363 2.43816 0
M  V30 16665 H 1563.01 -0.78814 3.04361 0
M  V30 16666 N 1566.79 -0.886131 1.30328 0
M  V30 16667 C 1567.75 -1.97328 1.16594 0
M  V30 16668 C 1568.75 -1.60504 0.0975023 0
M  V30 16669 O 1569.94 -1.70739 0.345524 0
M  V30 16670 C 1567.07 -3.31714 0.786045 0
M  V30 16671 H 1568.26 -2.1094 2.13177 0
M  V30 16672 H 1565.82 -1.07238 1.13708 0
M  V30 16673 H 1566.55 -3.23804 -0.179334 0
M  V30 16674 H 1566.34 -3.5981 1.55817 0
M  V30 16675 H 1567.83 -4.11461 0.71339 0
M  V30 16676 N 1568.26 -1.13026 -1.09832 0
M  V30 16677 C 1569.51 -0.890736 -1.82191 0
M  V30 16678 C 1569.84 0.581818 -1.8528 0
M  V30 16679 O 1569.12 1.43037 -1.31798 0
M  V30 16680 C 1569.4 -1.47403 -3.28549 0
M  V30 16681 C 1569.25 -3.0154 -3.33757 0
M  V30 16682 C 1570.57 -1.13876 -4.25112 0
M  V30 16683 H 1567.69 -0.325028 -0.661457 0
M  V30 16684 H 1570.33 -1.39787 -1.28684 0
M  V30 16685 H 1568.48 -1.04272 -3.74245 0
M  V30 16686 H 1570.16 -3.53395 -2.96495 0
M  V30 16687 H 1568.4 -3.36746 -2.73467 0
M  V30 16688 H 1569.07 -3.37449 -4.36843 0
M  V30 16689 H 1571.55 -1.51139 -3.87681 0
M  V30 16690 H 1570.42 -1.57343 -5.25865 0
M  V30 16691 H 1570.68 -0.051854 -4.4207 0
M  V30 16692 N 1569.74 1.27735 -0.923117 0
M  V30 16693 C 1571.15 1.76579 -0.606376 0
M  V30 16694 C 1571.5 1.75437 0.878428 0
M  V30 16695 O 1570.63 1.35495 1.68731 0
M  V30 16696 C 1571.22 3.20652 -1.09396 0
M  V30 16697 C 1569.78 3.67181 -0.827974 0
M  V30 16698 C 1568.93 2.47259 -1.25532 0
M  V30 16699 H 1571.88 1.14067 -1.10338 0
M  V30 16700 H 1571.9 3.77952 -0.439581 0
M  V30 16701 H 1571.41 3.21451 -2.17465 0
M  V30 16702 H 1569.52 3.71832 0.239098 0
M  V30 16703 H 1569.63 4.56875 -1.44229 0
M  V30 16704 H 1567.99 2.45622 -0.673928 0
M  V30 16705 H 1568.78 2.50771 -2.34455 0
M  V30 16706 N 1571.22 0.688118 1.41784 0
M  V30 16707 C 1572.15 0.0323199 2.33478 0
M  V30 16708 C 1573.13 -0.775145 1.51412 0
M  V30 16709 O 1574.32 -0.72962 1.79973 0
M  V30 16710 C 1571.45 -0.910141 3.35162 0
M  V30 16711 C 1570.4 -0.210312 4.27483 0
M  V30 16712 C 1569.73 -1.26662 5.19481 0
M  V30 16713 C 1571.03 0.918839 5.14154 0
M  V30 16714 H 1572.72 0.798138 2.88566 0
M  V30 16715 H 1570.27 0.385262 1.38751 0
M  V30 16716 H 1572.22 -1.3781 3.98229 0
M  V30 16717 H 1570.94 -1.70754 2.78408 0
M  V30 16718 H 1569.6 0.237544 3.6583 0
M  V30 16719 H 1569.25 -2.05635 4.59046 0
M  V30 16720 H 1568.95 -0.803416 5.82082 0
M  V30 16721 H 1570.47 -1.73524 5.85424 0
M  V30 16722 H 1571.89 0.531499 5.70831 0
M  V30 16723 H 1570.29 1.30867 5.85657 0
M  V30 16724 H 1571.36 1.7618 4.51762 0
M  V30 16725 N 1572.7 -1.51554 0.432352 0
M  V30 16726 C 1573.65 -2.27623 -0.381602 0
M  V30 16727 C 1574.62 -1.31003 -1.02114 0
M  V30 16728 O 1575.8 -1.59899 -1.041 0
M  V30 16729 C 1572.94 -3.11772 -1.47959 0
M  V30 16730 C 1572.05 -4.2338 -0.858682 0
M  V30 16731 C 1571.19 -4.94847 -1.93131 0
M  V30 16732 C 1570.23 -5.98383 -1.28856 0
M  V30 16733 N 1569.36 -6.63278 -2.30233 0
M  V30 16734 H 1574.2 -2.96743 0.273472 0
M  V30 16735 H 1571.74 -1.46367 0.146706 0
M  V30 16736 H 1573.7 -3.58882 -2.12742 0
M  V30 16737 H 1572.33 -2.44778 -2.10437 0
M  V30 16738 H 1571.38 -3.8027 -0.0992797 0
M  V30 16739 H 1572.69 -4.97575 -0.349381 0
M  V30 16740 H 1571.85 -5.4548 -2.65587 0
M  V30 16741 H 1570.59 -4.20272 -2.47432 0
M  V30 16742 H 1569.59 -5.47048 -0.549441 0
M  V30 16743 H 1570.82 -6.74913 -0.752941 0
M  V30 16744 H 1568.76 -5.91518 -2.83624 0
M  V30 16745 H 1568.68 -7.33221 -1.84181 0
M  V30 16746 H 1569.95 -7.18542 -3.02188 0
M  V30 16747 N 1574.18 -0.163538 -1.56749 0
M  V30 16748 C 1575.11 0.765571 -2.20593 0
M  V30 16749 C 1576.09 1.24489 -1.15916 0
M  V30 16750 O 1577.27 1.29946 -1.44318 0
M  V30 16751 C 1574.4 1.99823 -2.84057 0
M  V30 16752 C 1573.36 1.65506 -3.94705 0
M  V30 16753 C 1572.68 2.96172 -4.45181 0
M  V30 16754 C 1573.98 0.88902 -5.14678 0
M  V30 16755 H 1575.68 0.233431 -2.98489 0
M  V30 16756 H 1573.22 0.110836 -1.43573 0
M  V30 16757 H 1575.18 2.65316 -3.27392 0
M  V30 16758 H 1573.9 2.55437 -2.03517 0
M  V30 16759 H 1572.56 1.02384 -3.52013 0
M  V30 16760 H 1572.21 3.49811 -3.61443 0
M  V30 16761 H 1571.91 2.73968 -5.19823 0
M  V30 16762 H 1573.43 3.62708 -4.91198 0
M  V30 16763 H 1574.84 1.44637 -5.54755 0
M  V30 16764 H 1573.24 0.766302 -5.95187 0
M  V30 16765 H 1574.31 -0.116145 -4.84761 0
M  V30 16766 N 1575.65 1.57214 0.110213 0
M  V30 16767 C 1576.88 1.8988 0.834297 0
M  V30 16768 C 1577.3 0.756347 1.72224 0
M  V30 16769 O 1576.66 -0.292768 1.78921 0
M  V30 16770 C 1576.71 3.21338 1.63629 0
M  V30 16771 O 1575.81 3.07862 2.74399 0
M  V30 16772 H 1575.16 0.62283 0.23017 0
M  V30 16773 H 1577.69 2.04402 0.0899726 0
M  V30 16774 H 1577.7 3.54275 2.02369 0
M  V30 16775 H 1576.37 4.04079 0.984521 0
M  V30 16776 H 1574.95 2.8641 2.38797 0
M  V30 16777 N 1577.13 -0.380637 1.52934 0
M  V30 16778 C 1578.38 -1.12483 1.68386 0
M  V30 16779 C 1578.71 -1.89733 0.427993 0
M  V30 16780 O 1577.96 -1.86601 -0.589795 0
M  V30 16781 C 1578.26 -2.1227 2.87535 0
M  V30 16782 C 1577.93 -1.51615 4.24645 0
M  V30 16783 C 1576.59 -1.348 4.61933 0
M  V30 16784 C 1578.94 -1.07595 5.09973 0
M  V30 16785 C 1576.27 -0.725254 5.822 0
M  V30 16786 C 1578.62 -0.467273 6.30872 0
M  V30 16787 C 1577.29 -0.286488 6.66885 0
M  V30 16788 H 1576.56 -0.411606 0.616167 0
M  V30 16789 H 1579.2 -0.408435 1.87094 0
M  V30 16790 H 1577.51 -2.90159 2.63277 0
M  V30 16791 H 1579.2 -2.69777 2.96684 0
M  V30 16792 H 1575.79 -1.65693 3.95277 0
M  V30 16793 H 1579.98 -1.19385 4.81727 0
M  V30 16794 H 1575.23 -0.573461 6.08705 0
M  V30 16795 H 1579.41 -0.117914 6.963 0
M  V30 16796 H 1577.04 0.198141 7.59942 0
M  V30 16797 N 1578.61 -1.44039 -0.639573 0
M  V30 16798 C 1579.54 -1.46233 -1.76489 0
M  V30 16799 C 1580.56 -0.356739 -1.58843 0
M  V30 16800 O 1581.74 -0.621988 -1.67313 0
M  V30 16801 C 1578.84 -1.27252 -3.14102 0
M  V30 16802 C 1578.02 -2.50902 -3.58283 0
M  V30 16803 C 1577.08 -2.26944 -4.74745 0
M  V30 16804 O 1576.1 -3.00381 -4.83487 0
M  V30 16805 N 1577.3 -1.29468 -5.65878 0
M  V30 16806 H 1580.07 -2.43243 -1.7508 0
M  V30 16807 H 1577.63 -1.3937 -0.823867 0
M  V30 16808 H 1579.62 -1.09085 -3.89721 0
M  V30 16809 H 1578.19 -0.386383 -3.10203 0
M  V30 16810 H 1577.41 -2.84403 -2.72963 0
M  V30 16811 H 1578.7 -3.33163 -3.84552 0
M  V30 16812 H 1578.1 -0.687994 -5.61501 0
M  V30 16813 H 1576.66 -1.17281 -6.41162 0
M  V30 16814 N 1580.09 0.879207 -1.30796 0
M  V30 16815 C 1581.04 2.00692 -1.17582 0
M  V30 16816 C 1582.03 1.6918 -0.0863163 0
M  V30 16817 O 1583.24 1.78289 -0.24757 0
M  V30 16818 H 1579.61 0.65814 -0.363808 0
M  V30 16819 H 1581.58 2.0897 -2.13012 0
M  V30 16820 C 1580.33 3.36105 -0.890429 0
M  V30 16821 H 1579.65 3.60868 -1.72088 0
M  V30 16822 H 1581.09 4.15634 -0.838103 0
M  V30 16823 C 1579.55 3.34436 0.406734 0
M  V30 16824 O 1580.08 3.7552 1.42645 0
M  V30 16825 N 1578.29 2.87549 0.419963 0
M  V30 16826 H 1577.84 2.54311 -0.410343 0
M  V30 16827 H 1577.79 2.86815 1.28781 0
M  V30 16828 N 1581.57 1.13606 1.09231 0
M  V30 16829 C 1582.81 0.900386 1.81717 0
M  V30 16830 C 1583.15 -0.571984 1.85586 0
M  V30 16831 O 1582.42 -1.42336 1.32554 0
M  V30 16832 C 1582.7 1.49143 3.27763 0
M  V30 16833 C 1582.56 3.03306 3.32153 0
M  V30 16834 C 1583.88 1.16129 4.24502 0
M  V30 16835 H 1581 0.328531 0.659724 0
M  V30 16836 H 1583.64 1.40467 1.27941 0
M  V30 16837 H 1581.79 1.06256 3.73687 0
M  V30 16838 H 1583.46 3.54963 2.94617 0
M  V30 16839 H 1581.7 3.38192 2.71677 0
M  V30 16840 H 1582.37 3.39761 4.35047 0
M  V30 16841 H 1584.85 1.53193 3.86874 0
M  V30 16842 H 1583.73 1.60129 5.25024 0
M  V30 16843 H 1583.99 0.0752973 4.42036 0
M  V30 16844 N 1583.05 -1.27244 0.929878 0
M  V30 16845 C 1584.32 -1.89369 0.489774 0
M  V30 16846 C 1584.7 -1.84142 -1.03222 0
M  V30 16847 O 1584.05 -1.2881 -1.88733 0
M  V30 16848 C 1584.26 -3.33196 1.03833 0
M  V30 16849 C 1585.61 -4.101 1.10013 0
M  V30 16850 O 1586.63 -3.42221 0.988106 0
M  V30 16851 O 1585.49 -5.31468 1.27296 0
M  V30 16852 H 1582.59 -0.811789 0.157882 0
M  V30 16853 H 1585.13 -1.35496 1.02171 0
M  V30 16854 H 1583.9 -3.31304 2.08214 0
M  V30 16855 H 1583.53 -3.94592 0.488167 0
M  V30 16856 N 1584.52 -0.695628 -1.41417 0
M  V30 16857 C 1585.93 -0.3014 -1.84251 0
M  V30 16858 C 1586.29 1.16042 -1.58204 0
M  V30 16859 O 1585.41 1.89079 -1.05253 0
M  V30 16860 C 1586.01 -0.540256 -3.34465 0
M  V30 16861 C 1584.56 -0.199944 -3.75869 0
M  V30 16862 C 1583.71 -0.822511 -2.64821 0
M  V30 16863 H 1586.66 -0.896278 -1.30968 0
M  V30 16864 H 1586.68 0.201019 -3.79969 0
M  V30 16865 H 1586.2 -1.60427 -3.53391 0
M  V30 16866 H 1584.3 0.859798 -3.62544 0
M  V30 16867 H 1584.41 -0.655005 -4.74601 0
M  V30 16868 H 1582.77 -0.252109 -2.53449 0
M  V30 16869 H 1583.56 -1.89039 -2.86564 0
M  V30 16870 N 1586 1.51322 -0.440383 0
M  V30 16871 C 1586.93 2.30708 0.360013 0
M  V30 16872 C 1587.91 1.36254 1.01828 0
M  V30 16873 O 1589.1 1.65174 1.02134 0
M  V30 16874 C 1586.23 3.15132 1.45977 0
M  V30 16875 C 1585.18 4.17889 0.924825 0
M  V30 16876 C 1584.51 4.90853 2.12056 0
M  V30 16877 C 1585.81 5.22282 -0.0428362 0
M  V30 16878 H 1587.5 2.97868 -0.30248 0
M  V30 16879 H 1585.05 1.43249 -0.146914 0
M  V30 16880 H 1587 3.69449 2.02695 0
M  V30 16881 H 1585.72 2.45798 2.1506 0
M  V30 16882 H 1584.38 3.64627 0.379842 0
M  V30 16883 H 1584.03 4.1802 2.79765 0
M  V30 16884 H 1583.73 5.60339 1.769 0
M  V30 16885 H 1585.26 5.47995 2.69322 0
M  V30 16886 H 1586.67 5.71654 0.434137 0
M  V30 16887 H 1585.07 5.99314 -0.307126 0
M  V30 16888 H 1586.14 4.74923 -0.978557 0
M  V30 16889 N 1587.48 0.171848 1.5666 0
M  V30 16890 C 1588.73 -0.472034 1.9651 0
M  V30 16891 C 1589.05 -1.63743 1.05893 0
M  V30 16892 O 1588.32 -1.95498 0.125396 0
M  V30 16893 H 1586.9 -0.177377 0.725635 0
M  V30 16894 H 1589.56 0.253155 1.93249 0
M  V30 16895 H 1588.66 -0.831693 3.00814 0
M  V30 16896 N 1588.96 -1.5727 -0.101874 0
M  V30 16897 C 1589.87 -2.04896 -1.14257 0
M  V30 16898 C 1590.88 -0.972561 -1.44282 0
M  V30 16899 O 1592.06 -1.28526 -1.55058 0
M  V30 16900 C 1589.12 -2.45818 -2.44488 0
M  V30 16901 C 1588.19 -3.6762 -2.21707 0
M  V30 16902 C 1587.42 -4.06581 -3.45728 0
M  V30 16903 O 1587.64 -3.45702 -4.53703 0
M  V30 16904 O 1586.58 -4.99578 -3.35716 0
M  V30 16905 H 1590.4 -2.93827 -0.768085 0
M  V30 16906 H 1587.99 -1.46065 -0.313902 0
M  V30 16907 H 1589.87 -2.72796 -3.21186 0
M  V30 16908 H 1588.54 -1.60028 -2.81377 0
M  V30 16909 H 1587.45 -3.45768 -1.42812 0
M  V30 16910 H 1588.78 -4.54169 -1.89714 0
M  V30 16911 N 1590.44 0.372521 -1.53134 0
M  V30 16912 C 1591.38 1.47633 -1.79742 0
M  V30 16913 C 1592.38 1.55752 -0.66617 0
M  V30 16914 O 1593.58 1.58721 -0.848979 0
M  V30 16915 H 1589.96 0.491677 -0.568997 0
M  V30 16916 H 1591.93 1.22392 -2.72145 0
M  V30 16917 C 1590.68 2.84559 -1.99803 0
M  V30 16918 H 1590 2.79069 -2.86288 0
M  V30 16919 H 1591.44 3.60989 -2.22402 0
M  V30 16920 C 1589.9 3.27861 -0.775162 0
M  V30 16921 O 1590.43 4.01681 0.0394991 0
M  V30 16922 N 1588.64 2.84326 -0.600573 0
M  V30 16923 H 1588.18 2.2442 -1.26466 0
M  V30 16924 H 1588.14 3.13655 0.216241 0
M  V30 16925 N 1591.91 1.44376 0.631925 0
M  V30 16926 C 1593.16 1.46398 1.38747 0
M  V30 16927 C 1593.48 0.100149 1.95343 0
M  V30 16928 O 1594.68 -0.00210908 2.715 0
M  V30 16929 C 1593.14 2.57731 2.51203 0
M  V30 16930 C 1592.75 4.00317 2.01123 0
M  V30 16931 C 1594.49 2.68972 3.28412 0
M  V30 16932 C 1592.4 5.03075 3.10917 0
M  V30 16933 H 1591.33 0.544667 0.521396 0
M  V30 16934 H 1593.98 1.70439 0.679912 0
M  V30 16935 H 1592.36 2.26928 3.2453 0
M  V30 16936 H 1593.53 4.40683 1.34666 0
M  V30 16937 H 1591.85 3.93311 1.36732 0
M  V30 16938 H 1594.45 3.42916 4.10259 0
M  V30 16939 H 1594.79 1.74762 3.77841 0
M  V30 16940 H 1595.32 2.9918 2.62176 0
M  V30 16941 H 1592.06 5.98911 2.66433 0
M  V30 16942 H 1591.58 4.67302 3.76017 0
M  V30 16943 H 1593.26 5.2674 3.75705 0
M  V30 16944 N 1593.39 -0.872258 1.31261 0
M  V30 16945 C 1594.81 -1.15763 1.09868 0
M  V30 16946 C 1595.01 -2.01065 -0.132331 0
M  V30 16947 O 1594.06 -2.38735 -0.822317 0
M  V30 16948 C 1595.38 -1.85199 2.36901 0
M  V30 16949 C 1596.92 -1.9791 2.42489 0
M  V30 16950 C 1597.4 -2.70759 3.69396 0
M  V30 16951 N 1598.89 -2.78296 3.70278 0
M  V30 16952 C 1599.63 -3.3527 4.65168 0
M  V30 16953 N 1599.12 -3.93193 5.70413 0
M  V30 16954 N 1600.91 -3.33206 4.52692 0
M  V30 16955 H 1593.07 -0.303784 2.10216 0
M  V30 16956 H 1595.33 -0.197172 0.927269 0
M  V30 16957 H 1595.03 -1.29968 3.26804 0
M  V30 16958 H 1594.91 -2.85493 2.46523 0
M  V30 16959 H 1597.3 -2.52305 1.53056 0
M  V30 16960 H 1597.38 -0.966644 2.36833 0
M  V30 16961 H 1597.02 -2.17031 4.59195 0
M  V30 16962 H 1596.95 -3.72407 3.72318 0
M  V30 16963 H 1599.44 -2.37185 2.94197 0
M  V30 16964 H 1599.75 -4.34771 6.38901 0
M  V30 16965 H 1598.1 -3.91575 5.7419 0
M  V30 16966 H 1601.29 -2.87191 3.69647 0
M  V30 16967 H 1601.46 -3.7731 5.26822 0
M  V30 16968 N 1594.87 -1.14184 -1.08627 0
M  V30 16969 C 1596.12 -0.91001 -1.81236 0
M  V30 16970 C 1596.45 0.562134 -1.85886 0
M  V30 16971 O 1595.72 1.41631 -1.33307 0
M  V30 16972 C 1596.01 -1.50879 -3.26967 0
M  V30 16973 C 1595.86 -3.05063 -3.3054 0
M  V30 16974 C 1597.18 -1.18379 -4.2388 0
M  V30 16975 H 1594.3 -0.332025 -0.657973 0
M  V30 16976 H 1596.94 -1.41144 -1.27194 0
M  V30 16977 H 1595.09 -1.08236 -3.73118 0
M  V30 16978 H 1596.76 -3.5652 -2.9273 0
M  V30 16979 H 1595 -3.39628 -2.6988 0
M  V30 16980 H 1595.68 -3.42064 -4.33239 0
M  V30 16981 H 1598.15 -1.55242 -3.86056 0
M  V30 16982 H 1597.03 -1.62911 -5.24167 0
M  V30 16983 H 1597.29 -0.0987385 -4.4199 0
M  V30 16984 N 1596.35 1.26749 -0.936613 0
M  V30 16985 C 1597.6 1.93255 -0.577524 0
M  V30 16986 C 1597.91 1.74337 0.886905 0
M  V30 16987 O 1599.12 2.3526 1.35517 0
M  V30 16988 C 1597.57 3.4624 -0.982119 0
M  V30 16989 C 1597.18 3.739 -2.46784 0
M  V30 16990 C 1598.92 4.18777 -0.694706 0
M  V30 16991 C 1596.83 5.20303 -2.81138 0
M  V30 16992 H 1595.76 0.723502 -0.212276 0
M  V30 16993 H 1598.41 1.43901 -1.13863 0
M  V30 16994 H 1596.79 3.94454 -0.349577 0
M  V30 16995 H 1597.97 3.3641 -3.14905 0
M  V30 16996 H 1596.28 3.14587 -2.72808 0
M  V30 16997 H 1598.88 5.2659 -0.927756 0
M  V30 16998 H 1599.22 4.14667 0.368392 0
M  V30 16999 H 1599.76 3.76414 -1.28676 0
M  V30 17000 H 1596.5 5.29511 -3.86392 0
M  V30 17001 H 1596.02 5.58907 -2.17675 0
M  V30 17002 H 1597.69 5.88265 -2.69358 0
M  V30 17003 N 1597.83 0.703118 1.41046 0
M  V30 17004 C 1599.07 0.237287 2.01105 0
M  V30 17005 C 1599.4 -1.16552 1.55711 0
M  V30 17006 O 1598.66 -1.80233 0.762533 0
M  V30 17007 C 1598.96 0.251575 3.56513 0
M  V30 17008 C 1598.62 1.60295 4.21446 0
M  V30 17009 C 1597.28 1.9729 4.38897 0
M  V30 17010 C 1599.64 2.49167 4.57783 0
M  V30 17011 C 1596.96 3.22726 4.89964 0
M  V30 17012 C 1599.32 3.73943 5.10244 0
M  V30 17013 C 1597.98 4.11072 5.25905 0
M  V30 17014 H 1597.25 0.0868294 0.735895 0
M  V30 17015 H 1599.9 0.903695 1.68836 0
M  V30 17016 H 1598.2 -0.498393 3.88617 0
M  V30 17017 H 1599.9 -0.126501 4.008 0
M  V30 17018 H 1596.49 1.30523 4.08242 0
M  V30 17019 H 1600.67 2.21864 4.43948 0
M  V30 17020 H 1595.93 3.51477 5.00274 0
M  V30 17021 H 1600.1 4.42988 5.3734 0
M  V30 17022 H 1597.73 5.0834 5.65239 0
M  V30 17023 N 1599.3 -1.51086 0.448402 0
M  V30 17024 C 1600.25 -2.28015 -0.357438 0
M  V30 17025 C 1601.22 -1.32079 -1.00719 0
M  V30 17026 O 1602.41 -1.60995 -1.02398 0
M  V30 17027 C 1599.55 -3.13324 -1.44644 0
M  V30 17028 C 1598.66 -4.24267 -0.813729 0
M  V30 17029 C 1597.79 -4.96868 -1.87871 0
M  V30 17030 C 1596.83 -5.99716 -1.22502 0
M  V30 17031 N 1595.97 -6.65682 -2.23185 0
M  V30 17032 H 1600.81 -2.96436 0.30493 0
M  V30 17033 H 1598.35 -1.46203 0.162222 0
M  V30 17034 H 1600.31 -3.61119 -2.08924 0
M  V30 17035 H 1598.94 -2.46996 -2.07829 0
M  V30 17036 H 1597.99 -3.80354 -0.0589414 0
M  V30 17037 H 1599.3 -4.97917 -0.296587 0
M  V30 17038 H 1598.45 -5.48266 -2.59786 0
M  V30 17039 H 1597.19 -4.22873 -2.42961 0
M  V30 17040 H 1596.2 -5.476 -0.491388 0
M  V30 17041 H 1597.42 -6.75674 -0.681315 0
M  V30 17042 H 1595.37 -5.94493 -2.77334 0
M  V30 17043 H 1595.29 -7.35134 -1.76393 0
M  V30 17044 H 1596.55 -7.21707 -2.9455 0
M  V30 17045 N 1600.78 -0.180154 -1.56567 0
M  V30 17046 C 1602.02 0.464869 -1.99044 0
M  V30 17047 C 1602.39 1.59822 -1.06399 0
M  V30 17048 O 1603.59 2.30641 -1.38052 0
M  V30 17049 C 1601.86 0.927227 -3.45163 0
M  V30 17050 S 1603.42 1.57219 -4.09668 0
M  V30 17051 H 1600.24 0.149215 -0.695166 0
M  V30 17052 H 1602.84 -0.279699 -1.93489 0
M  V30 17053 H 1601.54 0.0920814 -4.10297 0
M  V30 17054 H 1601.07 1.70562 -3.54503 0
M  V30 17055 H 1603.09 2.86059 -4.05444 0
M  V30 17056 N 1602.26 1.57322 0.0935319 0
M  V30 17057 C 1603.51 1.858 0.795165 0
M  V30 17058 C 1603.83 0.769078 1.79193 0
M  V30 17059 O 1603.1 -0.204511 1.9483 0
M  V30 17060 H 1601.68 0.68557 0.296653 0
M  V30 17061 H 1604.34 1.94756 0.0747892 0
M  V30 17062 H 1603.44 2.82588 1.32479 0
M  V30 17063 N 1603.74 -0.364395 1.53329 0
M  V30 17064 C 1605.02 -1.12265 1.60174 0
M  V30 17065 C 1605.4 -2.0708 0.410015 0
M  V30 17066 O 1604.74 -2.20492 -0.599631 0
M  V30 17067 C 1604.95 -1.86071 2.9526 0
M  V30 17068 C 1606.3 -2.40562 3.49879 0
M  V30 17069 O 1607.33 -1.96196 2.97297 0
M  V30 17070 O 1606.18 -3.2167 4.41804 0
M  V30 17071 H 1603.28 -0.515062 0.647024 0
M  V30 17072 H 1605.82 -0.367563 1.65672 0
M  V30 17073 H 1604.6 -1.1688 3.73436 0
M  V30 17074 H 1604.22 -2.68486 2.93259 0
M  V30 17075 N 1605.22 -1.44709 -0.62426 0
M  V30 17076 C 1606.49 -1.38328 -1.38292 0
M  V30 17077 C 1606.87 -0.0454388 -2.11051 0
M  V30 17078 O 1606.22 0.972183 -2.06787 0
M  V30 17079 C 1606.43 -2.58602 -2.34364 0
M  V30 17080 C 1607.78 -3.02966 -2.97484 0
M  V30 17081 O 1608.8 -2.58856 -2.44688 0
M  V30 17082 O 1607.66 -3.79466 -3.93278 0
M  V30 17083 H 1604.76 -0.54812 -0.619269 0
M  V30 17084 H 1607.3 -1.5681 -0.648741 0
M  V30 17085 H 1606.07 -3.47573 -1.79746 0
M  V30 17086 H 1605.7 -2.42368 -3.15188 0
M  V30 17087 N 1606.69 0.865285 -1.31722 0
M  V30 17088 C 1607.62 1.98871 -1.22362 0
M  V30 17089 C 1608.61 1.69745 -0.109779 0
M  V30 17090 O 1609.79 1.91944 -0.295167 0
M  V30 17091 C 1606.92 3.34477 -0.935 0
M  V30 17092 C 1605.87 3.77924 -2.00892 0
M  V30 17093 C 1605.2 5.11042 -1.57291 0
M  V30 17094 C 1606.5 3.94528 -3.42264 0
M  V30 17095 H 1608.19 2.06959 -2.16352 0
M  V30 17096 H 1605.74 0.994355 -1.04157 0
M  V30 17097 H 1607.69 4.12612 -0.856111 0
M  V30 17098 H 1606.42 3.26575 0.0405536 0
M  V30 17099 H 1605.08 3.02032 -2.07779 0
M  V30 17100 H 1604.72 4.99586 -0.585084 0
M  V30 17101 H 1604.42 5.41082 -2.29138 0
M  V30 17102 H 1605.95 5.91681 -1.50818 0
M  V30 17103 H 1607.36 4.63045 -3.38027 0
M  V30 17104 H 1605.76 4.35972 -4.12369 0
M  V30 17105 H 1606.83 2.97765 -3.82706 0
M  V30 17106 N 1608.17 1.14759 1.0802 0
M  V30 17107 C 1609.59 0.8888 1.32561 0
M  V30 17108 C 1609.79 -0.467926 1.95992 0
M  V30 17109 O 1608.84 -1.21135 2.21546 0
M  V30 17110 C 1610.16 2.02456 2.22333 0
M  V30 17111 C 1611.71 2.05831 2.35802 0
M  V30 17112 C 1612.18 3.18711 3.28918 0
M  V30 17113 N 1613.67 3.18315 3.36496 0
M  V30 17114 C 1614.41 4.02297 4.08589 0
M  V30 17115 N 1613.9 4.96327 4.83354 0
M  V30 17116 N 1615.7 3.90344 4.0446 0
M  V30 17117 H 1607.85 2.02135 0.652307 0
M  V30 17118 H 1610.11 0.881021 0.35001 0
M  V30 17119 H 1609.82 3.00354 1.82976 0
M  V30 17120 H 1609.69 1.95108 3.2282 0
M  V30 17121 H 1612.08 1.08537 2.74415 0
M  V30 17122 H 1612.16 2.17248 1.35044 0
M  V30 17123 H 1611.8 4.16253 2.91025 0
M  V30 17124 H 1611.73 3.04531 4.29614 0
M  V30 17125 H 1614.22 2.50214 2.83199 0
M  V30 17126 H 1614.54 5.56865 5.35837 0
M  V30 17127 H 1612.88 5.00321 4.82394 0
M  V30 17128 H 1616.07 3.162 3.45159 0
M  V30 17129 H 1616.24 4.56019 4.60381 0
M  V30 17130 N 1609.65 -1.26251 0.943322 0
M  V30 17131 C 1610.58 -2.25468 0.411904 0
M  V30 17132 C 1611.6 -1.55988 -0.466005 0
M  V30 17133 O 1612.78 -1.76352 -0.276106 0
M  V30 17134 C 1609.88 -3.362 -0.426909 0
M  V30 17135 C 1609.06 -4.35228 0.435346 0
M  V30 17136 C 1608.12 -5.25078 -0.343388 0
M  V30 17137 O 1607.14 -5.68632 0.254322 0
M  V30 17138 N 1608.34 -5.5687 -1.63939 0
M  V30 17139 H 1611.11 -2.71701 1.26486 0
M  V30 17140 H 1608.67 -1.40039 0.812438 0
M  V30 17141 H 1610.66 -3.93263 -0.955316 0
M  V30 17142 H 1609.23 -2.89446 -1.18067 0
M  V30 17143 H 1608.45 -3.77206 1.14495 0
M  V30 17144 H 1609.74 -4.98384 1.02427 0
M  V30 17145 H 1609.14 -5.2337 -2.14709 0
M  V30 17146 H 1607.7 -6.16566 -2.11399 0
M  V30 17147 N 1611.13 -0.710588 -1.40671 0
M  V30 17148 C 1612.41 -0.175319 -1.94813 0
M  V30 17149 C 1612.79 1.31792 -1.64906 0
M  V30 17150 O 1612.13 2.07167 -0.964058 0
M  V30 17151 C 1612.34 -0.482691 -3.45646 0
M  V30 17152 C 1613.69 -0.418619 -4.22531 0
M  V30 17153 O 1614.72 -0.418463 -3.53733 0
M  V30 17154 O 1613.58 -0.391787 -5.45094 0
M  V30 17155 H 1610.67 -0.0237744 -0.826658 0
M  V30 17156 H 1613.22 -0.787778 -1.50307 0
M  V30 17157 H 1611.99 -1.51569 -3.60753 0
M  V30 17158 H 1611.61 0.159984 -3.97278 0
M  V30 17159 N 1612.61 1.50847 -0.456408 0
M  V30 17160 C 1613.54 2.24825 0.391003 0
M  V30 17161 C 1614.52 1.27531 1.00869 0
M  V30 17162 O 1615.7 1.56717 1.04747 0
M  V30 17163 C 1612.83 3.01329 1.54657 0
M  V30 17164 C 1611.88 4.13431 1.0477 0
M  V30 17165 S 1612.71 5.35494 -0.0257471 0
M  V30 17166 C 1613.86 6.15541 1.13404 0
M  V30 17167 H 1614.1 2.96354 -0.237018 0
M  V30 17168 H 1611.63 1.52506 -0.241121 0
M  V30 17169 H 1613.59 3.46 2.20894 0
M  V30 17170 H 1612.25 2.29354 2.14606 0
M  V30 17171 H 1611.44 4.66309 1.91238 0
M  V30 17172 H 1611.04 3.71119 0.463285 0
M  V30 17173 H 1613.34 6.45784 2.04865 0
M  V30 17174 H 1614.28 7.05158 0.644835 0
M  V30 17175 H 1614.69 5.47341 1.38123 0
M  V30 17176 N 1614.09 0.188454 1.56469 0
M  V30 17177 C 1615.02 -0.730379 2.21783 0
M  V30 17178 C 1616 -1.22629 1.17882 0
M  V30 17179 O 1617.18 -1.27634 1.46367 0
M  V30 17180 C 1614.31 -1.95278 2.872 0
M  V30 17181 C 1613.27 -1.59205 3.97288 0
M  V30 17182 C 1612.59 -2.89052 4.49836 0
M  V30 17183 C 1613.89 -0.807027 5.16027 0
M  V30 17184 H 1615.59 -0.185914 2.98822 0
M  V30 17185 H 1613.13 -0.0879804 1.43731 0
M  V30 17186 H 1615.08 -2.60074 3.31571 0
M  V30 17187 H 1613.81 -2.52167 2.07556 0
M  V30 17188 H 1612.47 -0.967713 3.53597 0
M  V30 17189 H 1612.12 -3.44017 3.66963 0
M  V30 17190 H 1611.82 -2.65663 5.24115 0
M  V30 17191 H 1613.34 -3.54847 4.96906 0
M  V30 17192 H 1614.75 -1.35794 5.56986 0
M  V30 17193 H 1613.15 -0.671516 5.96331 0
M  V30 17194 H 1614.22 0.193251 4.84515 0
M  V30 17195 N 1615.56 -1.5737 -0.0851874 0
M  V30 17196 C 1616.79 -1.90802 -0.800137 0
M  V30 17197 C 1617.21 -0.783132 -1.71792 0
M  V30 17198 O 1616.56 0.244331 -1.80857 0
M  V30 17199 C 1616.61 -3.2391 -1.60513 0
M  V30 17200 O 1616.34 -4.32072 -0.724253 0
M  V30 17201 C 1617.84 -3.7127 -2.42226 0
M  V30 17202 H 1615.06 -0.630988 -0.228242 0
M  V30 17203 H 1617.6 -2.04414 -0.0594587 0
M  V30 17204 H 1615.76 -3.11867 -2.29822 0
M  V30 17205 H 1616.17 -5.08571 -1.28279 0
M  V30 17206 H 1617.64 -4.67074 -2.94187 0
M  V30 17207 H 1618.12 -2.99606 -3.21143 0
M  V30 17208 H 1618.73 -3.86214 -1.78099 0
M  V30 17209 N 1617.04 0.356258 -1.53521 0
M  V30 17210 C 1617.97 1.44271 -1.83598 0
M  V30 17211 C 1618.95 1.5547 -0.690141 0
M  V30 17212 O 1620.14 1.69886 -0.940868 0
M  V30 17213 C 1617.27 2.8149 -2.03422 0
M  V30 17214 C 1616.22 2.85108 -3.19213 0
M  V30 17215 C 1615.55 4.25091 -3.24348 0
M  V30 17216 C 1616.85 2.51788 -4.57602 0
M  V30 17217 H 1618.54 1.1935 -2.74583 0
M  V30 17218 H 1616.09 0.572707 -1.32121 0
M  V30 17219 H 1618.04 3.57531 -2.23046 0
M  V30 17220 H 1616.76 3.07819 -1.09155 0
M  V30 17221 H 1615.42 2.1152 -2.99424 0
M  V30 17222 H 1615.07 4.4851 -2.277 0
M  V30 17223 H 1614.77 4.28426 -4.0215 0
M  V30 17224 H 1616.3 5.02992 -3.46167 0
M  V30 17225 H 1617.71 3.17542 -4.77326 0
M  V30 17226 H 1616.11 2.66426 -5.37715 0
M  V30 17227 H 1617.18 1.4701 -4.62078 0
M  V30 17228 N 1618.52 1.45038 0.616577 0
M  V30 17229 C 1619.45 1.49023 1.7414 0
M  V30 17230 C 1620.46 0.381965 1.58256 0
M  V30 17231 O 1621.65 0.648527 1.66302 0
M  V30 17232 C 1618.75 1.32233 3.12038 0
M  V30 17233 C 1617.93 2.5657 3.54246 0
M  V30 17234 C 1616.99 2.34468 4.71075 0
M  V30 17235 O 1616.01 3.08035 4.78647 0
M  V30 17236 N 1617.21 1.38454 5.63747 0
M  V30 17237 H 1619.98 2.45997 1.71189 0
M  V30 17238 H 1617.54 1.40663 0.80159 0
M  V30 17239 H 1619.53 1.15271 3.87936 0
M  V30 17240 H 1618.1 0.435685 3.09549 0
M  V30 17241 H 1617.32 2.88709 2.68404 0
M  V30 17242 H 1618.61 3.39239 3.79203 0
M  V30 17243 H 1618.01 0.777236 5.60335 0
M  V30 17244 H 1616.56 1.27467 6.39215 0
M  V30 17245 N 1620 -0.858287 1.32179 0
M  V30 17246 C 1620.93 -1.97021 1.15143 0
M  V30 17247 C 1621.91 -1.62517 0.0518379 0
M  V30 17248 O 1623.09 -1.87321 0.210465 0
M  V30 17249 C 1620.22 -3.3002 0.761887 0
M  V30 17250 C 1619.27 -3.83504 1.8662 0
M  V30 17251 S 1620.1 -4.07535 3.47383 0
M  V30 17252 C 1621.25 -5.43514 3.10392 0
M  V30 17253 H 1621.49 -2.11169 2.09272 0
M  V30 17254 H 1619.02 -1.00983 1.16798 0
M  V30 17255 H 1620.98 -4.06881 0.543893 0
M  V30 17256 H 1619.64 -3.1369 -0.160479 0
M  V30 17257 H 1618.83 -4.79685 1.54655 0
M  V30 17258 H 1618.43 -3.13474 2.03986 0
M  V30 17259 H 1620.73 -6.2562 2.60011 0
M  V30 17260 H 1621.67 -5.80439 4.05581 0
M  V30 17261 H 1622.08 -5.07344 2.47511 0
M  V30 17262 N 1621.48 -1.1533 -1.07409 0
M  V30 17263 C 1622.72 -0.922348 -1.79376 0
M  V30 17264 C 1623.04 0.551929 -1.87652 0
M  V30 17265 O 1624.24 0.900444 -2.56133 0
M  V30 17266 C 1622.7 -1.60081 -3.22339 0
M  V30 17267 C 1622.31 -3.11206 -3.22265 0
M  V30 17268 C 1624.05 -1.45138 -3.98917 0
M  V30 17269 C 1621.96 -3.71842 -4.59878 0
M  V30 17270 H 1620.89 -0.341438 -0.672262 0
M  V30 17271 H 1623.54 -1.38336 -1.20562 0
M  V30 17272 H 1621.92 -1.06748 -3.81341 0
M  V30 17273 H 1623.1 -3.7129 -2.72911 0
M  V30 17274 H 1621.41 -3.25903 -2.59183 0
M  V30 17275 H 1624.01 -1.87832 -5.00623 0
M  V30 17276 H 1624.35 -0.398796 -4.14385 0
M  V30 17277 H 1624.88 -1.95564 -3.46409 0
M  V30 17278 H 1621.62 -4.76998 -4.49614 0
M  V30 17279 H 1621.14 -3.16541 -5.09472 0
M  V30 17280 H 1622.82 -3.72733 -5.28847 0
M  V30 17281 N 1622.95 1.25748 -0.950004 0
M  V30 17282 C 1624.37 1.45599 -0.653697 0
M  V30 17283 C 1624.57 1.85357 0.790245 0
M  V30 17284 O 1623.63 1.98071 1.56601 0
M  V30 17285 C 1624.94 2.5316 -1.62267 0
M  V30 17286 C 1626.49 2.67004 -1.63334 0
M  V30 17287 C 1626.96 3.77745 -2.58984 0
M  V30 17288 N 1628.45 3.8515 -2.57321 0
M  V30 17289 C 1629.19 4.70315 -3.28011 0
M  V30 17290 N 1628.68 5.59802 -4.08159 0
M  V30 17291 N 1630.48 4.64239 -3.16921 0
M  V30 17292 H 1622.63 0.982321 -1.88319 0
M  V30 17293 H 1624.89 0.492917 -0.809776 0
M  V30 17294 H 1624.6 2.30792 -2.65382 0
M  V30 17295 H 1624.47 3.50988 -1.38158 0
M  V30 17296 H 1626.86 2.88739 -0.609388 0
M  V30 17297 H 1626.94 1.69591 -1.915 0
M  V30 17298 H 1626.58 3.56761 -3.61502 0
M  V30 17299 H 1626.51 4.74633 -2.28103 0
M  V30 17300 H 1629 3.21178 -1.99131 0
M  V30 17301 H 1629.32 6.21701 -4.59029 0
M  V30 17302 H 1627.66 5.59525 -4.12258 0
M  V30 17303 H 1630.85 3.93335 -2.53782 0
M  V30 17304 H 1631.03 5.30389 -3.72279 0
M  V30 17305 N 1624.43 0.718038 1.40292 0
M  V30 17306 C 1625.68 0.255581 2.00074 0
M  V30 17307 C 1625.99 -1.15859 1.57594 0
M  V30 17308 O 1627.2 -1.71969 2.10092 0
M  V30 17309 C 1625.66 0.406019 3.57602 0
M  V30 17310 C 1625.26 1.82699 4.09054 0
M  V30 17311 C 1627.01 0.00447854 4.245 0
M  V30 17312 C 1624.91 1.92788 5.59094 0
M  V30 17313 H 1623.84 0.0918012 0.748391 0
M  V30 17314 H 1626.5 0.88948 1.60501 0
M  V30 17315 H 1624.88 -0.296504 3.94888 0
M  V30 17316 H 1626.05 2.56009 3.8314 0
M  V30 17317 H 1624.37 2.18021 3.54761 0
M  V30 17318 H 1626.96 0.05911 5.34667 0
M  V30 17319 H 1627.31 -1.03779 4.03157 0
M  V30 17320 H 1627.84 0.657535 3.92328 0
M  V30 17321 H 1624.58 2.95145 5.85295 0
M  V30 17322 H 1624.1 1.23893 5.86865 0
M  V30 17323 H 1625.78 1.70114 6.24236 0
M  V30 17324 N 1625.91 -1.50602 0.464402 0
M  V30 17325 C 1626.84 -2.25029 -0.379075 0
M  V30 17326 C 1627.82 -1.28064 -1.00192 0
M  V30 17327 O 1629.01 -1.5727 -1.03915 0
M  V30 17328 C 1626.13 -3.02144 -1.53057 0
M  V30 17329 C 1625.18 -4.13981 -1.02576 0
M  V30 17330 S 1626.01 -5.35473 0.0541453 0
M  V30 17331 C 1627.17 -6.16133 -1.10138 0
M  V30 17332 H 1627.4 -2.96224 0.252731 0
M  V30 17333 H 1624.93 -1.52376 0.249205 0
M  V30 17334 H 1626.89 -3.47167 -2.19056 0
M  V30 17335 H 1625.55 -2.30489 -2.13387 0
M  V30 17336 H 1624.75 -4.67316 -1.88763 0
M  V30 17337 H 1624.35 -3.7136 -0.443597 0
M  V30 17338 H 1626.64 -6.46861 -2.01437 0
M  V30 17339 H 1627.58 -7.0549 -0.60743 0
M  V30 17340 H 1627.99 -5.48066 -1.35218 0
M  V30 17341 N 1627.39 -0.19675 -1.56367 0
M  V30 17342 C 1628.61 0.450245 -2.02454 0
M  V30 17343 C 1629.04 1.54287 -1.07597 0
M  V30 17344 O 1628.4 1.81202 -0.0597529 0
M  V30 17345 C 1628.44 0.982087 -3.46969 0
M  V30 17346 O 1627.55 2.09489 -3.5523 0
M  V30 17347 H 1626.89 0.105022 -0.655642 0
M  V30 17348 H 1629.42 -0.308112 -2.02267 0
M  V30 17349 H 1629.43 1.29826 -3.86793 0
M  V30 17350 H 1628.1 0.18224 -4.15501 0
M  V30 17351 H 1626.68 1.78723 -3.27281 0
M  V30 17352 N 1628.87 1.57413 0.0768405 0
M  V30 17353 C 1629.81 2.0334 1.09185 0
M  V30 17354 C 1630.78 0.913073 1.38752 0
M  V30 17355 O 1631.97 1.18038 1.49906 0
M  V30 17356 C 1629.11 2.47805 2.40181 0
M  V30 17357 C 1628.22 3.73435 2.17188 0
M  V30 17358 C 1627.36 4.06703 3.41711 0
M  V30 17359 C 1626.4 5.25388 3.1406 0
M  V30 17360 N 1625.53 5.54319 4.309 0
M  V30 17361 H 1630.37 2.89825 0.693223 0
M  V30 17362 H 1627.91 1.43334 0.330736 0
M  V30 17363 H 1629.87 2.71635 3.16655 0
M  V30 17364 H 1628.5 1.64305 2.77856 0
M  V30 17365 H 1627.55 3.56974 1.3143 0
M  V30 17366 H 1628.86 4.60049 1.9276 0
M  V30 17367 H 1628.02 4.31407 4.26583 0
M  V30 17368 H 1626.75 3.18646 3.6921 0
M  V30 17369 H 1625.76 5.00486 2.27583 0
M  V30 17370 H 1626.98 6.15059 2.87888 0
M  V30 17371 H 1624.93 4.69222 4.5844 0
M  V30 17372 H 1624.85 6.35342 4.09727 0
M  V30 17373 H 1626.12 5.83571 5.16783 0
M  V30 17374 N 1630.34 -0.348112 1.53707 0
M  V30 17375 C 1631.59 -1.08626 1.69951 0
M  V30 17376 C 1631.91 -1.89944 0.466992 0
M  V30 17377 O 1633.11 -2.66661 0.51029 0
M  V30 17378 C 1631.57 -1.98052 3.00505 0
M  V30 17379 C 1631.18 -1.21963 4.31079 0
M  V30 17380 C 1632.92 -2.71752 3.26115 0
M  V30 17381 C 1630.83 -2.10392 5.52711 0
M  V30 17382 H 1629.76 -0.409241 0.633275 0
M  V30 17383 H 1632.41 -0.346051 1.80207 0
M  V30 17384 H 1630.79 -2.75874 2.84094 0
M  V30 17385 H 1631.96 -0.490831 4.58178 0
M  V30 17386 H 1630.28 -0.600511 4.12047 0
M  V30 17387 H 1632.88 -3.38174 4.14177 0
M  V30 17388 H 1633.22 -3.38072 2.42926 0
M  V30 17389 H 1633.75 -2.01005 3.43281 0
M  V30 17390 H 1630.49 -1.48622 6.38429 0
M  V30 17391 H 1630.01 -2.81074 5.29866 0
M  V30 17392 H 1631.69 -2.69551 5.88176 0
M  V30 17393 N 1631.82 -1.45363 -0.608876 0
M  V30 17394 C 1633.07 -1.50525 -1.36799 0
M  V30 17395 C 1633.42 -0.14442 -1.91857 0
M  V30 17396 O 1632.72 0.843502 -1.72034 0
M  V30 17397 C 1632.91 -2.51893 -2.53544 0
M  V30 17398 C 1632.74 -3.97699 -2.09918 0
M  V30 17399 C 1631.51 -4.65675 -1.96151 0
M  V30 17400 C 1633.71 -4.86272 -1.67464 0
M  V30 17401 N 1631.69 -5.96207 -1.46321 0
M  V30 17402 C 1633.06 -6.06423 -1.29041 0
M  V30 17403 C 1635.12 -4.73144 -1.55045 0
M  V30 17404 C 1633.82 -7.149 -0.794378 0
M  V30 17405 C 1635.84 -5.81668 -1.06846 0
M  V30 17406 C 1635.21 -7.00974 -0.693858 0
M  V30 17407 H 1631.31 -0.605762 -0.494546 0
M  V30 17408 H 1633.89 -1.81828 -0.696187 0
M  V30 17409 H 1632.06 -2.22544 -3.18322 0
M  V30 17410 H 1633.79 -2.47211 -3.2042 0
M  V30 17411 H 1630.55 -4.20808 -2.17296 0
M  V30 17412 H 1630.97 -6.65614 -1.23642 0
M  V30 17413 H 1635.61 -3.81321 -1.82632 0
M  V30 17414 H 1633.33 -8.06514 -0.506051 0
M  V30 17415 H 1636.92 -5.73544 -0.976637 0
M  V30 17416 H 1635.8 -7.83519 -0.326629 0
M  V30 17417 N 1633.3 0.851265 -1.32632 0
M  V30 17418 C 1634.55 1.60807 -1.23568 0
M  V30 17419 C 1634.88 1.93155 0.201238 0
M  V30 17420 O 1634.15 1.5764 1.13929 0
M  V30 17421 C 1634.44 2.92619 -2.09872 0
M  V30 17422 C 1634.29 2.67031 -3.61959 0
M  V30 17423 C 1635.61 3.93924 -1.96244 0
M  V30 17424 H 1632.73 0.583492 -0.450229 0
M  V30 17425 H 1635.37 0.98273 -1.62611 0
M  V30 17426 H 1633.52 3.45988 -1.76704 0
M  V30 17427 H 1635.19 2.2019 -4.05357 0
M  V30 17428 H 1633.44 2.00938 -3.84456 0
M  V30 17429 H 1634.11 3.60902 -4.17676 0
M  V30 17430 H 1636.58 3.49823 -2.25307 0
M  V30 17431 H 1635.46 4.84005 -2.58902 0
M  V30 17432 H 1635.72 4.32185 -0.931065 0
M  V30 17433 N 1634.78 1.15898 1.06796 0
M  V30 17434 C 1635.71 0.818654 2.14081 0
M  V30 17435 C 1636.72 -0.171847 1.6189 0
M  V30 17436 O 1637.91 0.052196 1.78424 0
M  V30 17437 C 1635.01 0.197283 3.38325 0
M  V30 17438 C 1634.19 1.22662 4.19849 0
M  V30 17439 C 1633.24 0.625985 5.22463 0
M  V30 17440 O 1632.27 1.29347 5.54309 0
M  V30 17441 N 1633.47 -0.589665 5.77497 0
M  V30 17442 H 1636.24 1.74196 2.43877 0
M  V30 17443 H 1633.8 1.05562 1.22753 0
M  V30 17444 H 1635.79 -0.217439 4.04115 0
M  V30 17445 H 1634.36 -0.629476 3.06197 0
M  V30 17446 H 1633.58 1.8177 3.49791 0
M  V30 17447 H 1634.87 1.92143 4.71125 0
M  V30 17448 H 1634.27 -1.15022 5.53883 0
M  V30 17449 H 1632.82 -0.946667 6.44889 0
M  V30 17450 N 1636.26 -1.25243 0.956659 0
M  V30 17451 C 1637.17 -2.29529 0.48515 0
M  V30 17452 C 1638.18 -1.68121 -0.448494 0
M  V30 17453 O 1639.36 -1.98773 -0.324243 0
M  V30 17454 C 1636.42 -3.45952 -0.227611 0
M  V30 17455 C 1635.48 -4.22795 0.744495 0
M  V30 17456 C 1634.72 -5.3366 0.0656539 0
M  V30 17457 O 1634.94 -5.58722 -1.14829 0
M  V30 17458 O 1633.87 -5.97181 0.75222 0
M  V30 17459 H 1637.7 -2.71955 1.35181 0
M  V30 17460 H 1635.29 -1.30729 0.723203 0
M  V30 17461 H 1637.17 -4.16687 -0.628474 0
M  V30 17462 H 1635.84 -3.05524 -1.06942 0
M  V30 17463 H 1634.75 -3.5448 1.1956 0
M  V30 17464 H 1636.08 -4.67012 1.55438 0
M  V30 17465 N 1637.73 -0.725468 -1.3991 0
M  V30 17466 C 1638.98 -0.268719 -2.00306 0
M  V30 17467 C 1639.3 1.14511 -1.57836 0
M  V30 17468 O 1638.57 1.77808 -0.822263 0
M  V30 17469 H 1637.15 -0.0963614 -0.740759 0
M  V30 17470 H 1639.82 -0.933303 -1.71101 0
M  V30 17471 H 1638.91 -0.309587 -3.10561 0
M  V30 17472 N 1639.21 1.50354 -0.472382 0
M  V30 17473 C 1640.14 2.3142 0.310995 0
M  V30 17474 C 1641.12 1.38383 0.989151 0
M  V30 17475 O 1642.31 1.67303 0.986074 0
M  V30 17476 C 1639.44 3.18157 1.3926 0
M  V30 17477 C 1638.39 4.19756 0.835977 0
M  V30 17478 C 1637.72 4.9524 2.01597 0
M  V30 17479 C 1639.02 5.22074 -0.15361 0
M  V30 17480 H 1640.71 2.97159 -0.365595 0
M  V30 17481 H 1638.26 1.42905 -0.177266 0
M  V30 17482 H 1640.21 3.73666 1.94813 0
M  V30 17483 H 1638.94 2.50305 2.09798 0
M  V30 17484 H 1637.59 3.65351 0.302414 0
M  V30 17485 H 1637.24 4.2386 2.70836 0
M  V30 17486 H 1636.94 5.63966 1.64974 0
M  V30 17487 H 1638.47 5.53584 2.57637 0
M  V30 17488 H 1639.88 5.72446 0.312783 0
M  V30 17489 H 1638.28 5.98527 -0.43418 0
M  V30 17490 H 1639.35 4.72741 -1.07908 0
M  V30 17491 N 1640.69 0.205039 1.56261 0
M  V30 17492 C 1641.97 -0.479238 1.89638 0
M  V30 17493 C 1642.35 -1.78938 1.12002 0
M  V30 17494 O 1641.7 -2.27398 0.224179 0
M  V30 17495 C 1641.91 -0.688324 3.42145 0
M  V30 17496 C 1643.25 -1.00322 4.12578 0
M  V30 17497 O 1644.28 -0.775697 3.47651 0
M  V30 17498 O 1643.14 -1.43412 5.27347 0
M  V30 17499 H 1640.23 -0.251125 0.78795 0
M  V30 17500 H 1642.78 0.245994 1.67908 0
M  V30 17501 H 1641.55 0.236479 3.90585 0
M  V30 17502 H 1641.17 -1.46565 3.696 0
M  V30 17503 N 1642.17 -1.57451 -0.0684915 0
M  V30 17504 C 1643.1 -1.99219 -1.11297 0
M  V30 17505 C 1644.08 -0.869657 -1.37389 0
M  V30 17506 O 1645.26 -1.13224 -1.50707 0
M  V30 17507 C 1642.39 -2.33172 -2.4566 0
M  V30 17508 C 1641.44 -3.55467 -2.35681 0
M  V30 17509 S 1642.27 -5.06175 -1.74777 0
M  V30 17510 C 1643.43 -5.43332 -3.10711 0
M  V30 17511 H 1643.66 -2.875 -0.757037 0
M  V30 17512 H 1641.19 -1.51892 -0.27714 0
M  V30 17513 H 1643.15 -2.53407 -3.22947 0
M  V30 17514 H 1641.81 -1.45413 -2.78413 0
M  V30 17515 H 1641 -3.76751 -3.34775 0
M  V30 17516 H 1640.61 -3.34879 -1.6653 0
M  V30 17517 H 1642.9 -5.41605 -4.07026 0
M  V30 17518 H 1643.84 -6.44089 -2.94203 0
M  V30 17519 H 1644.25 -4.70795 -3.11468 0
M  V30 17520 N 1643.65 0.339955 -1.5389 0
M  V30 17521 C 1645.06 0.683287 -1.44234 0
M  V30 17522 C 1645.26 1.92298 -0.601976 0
M  V30 17523 O 1644.32 2.52324 -0.0943623 0
M  V30 17524 C 1645.63 0.872576 -2.87761 0
M  V30 17525 C 1647.18 0.970965 -2.97559 0
M  V30 17526 C 1647.66 1.19254 -4.42202 0
M  V30 17527 N 1649.15 1.25966 -4.45743 0
M  V30 17528 C 1649.88 1.44869 -5.54798 0
M  V30 17529 N 1649.38 1.6092 -6.73852 0
M  V30 17530 N 1651.17 1.47445 -5.42417 0
M  V30 17531 H 1643.32 -0.475086 -2.07019 0
M  V30 17532 H 1645.58 -0.150644 -0.935954 0
M  V30 17533 H 1645.29 0.033117 -3.51684 0
M  V30 17534 H 1645.16 1.77326 -3.32919 0
M  V30 17535 H 1647.55 1.80094 -2.33774 0
M  V30 17536 H 1647.63 0.0471065 -2.55757 0
M  V30 17537 H 1647.28 0.367482 -5.06569 0
M  V30 17538 H 1647.21 2.13002 -4.81599 0
M  V30 17539 H 1649.7 1.15072 -3.59954 0
M  V30 17540 H 1650.01 1.74989 -7.52727 0
M  V30 17541 H 1648.36 1.58049 -6.7679 0
M  V30 17542 H 1651.55 1.34489 -4.48364 0
M  V30 17543 H 1651.72 1.61834 -6.27466 0
M  V30 17544 N 1645.13 1.45684 0.601159 0
M  V30 17545 C 1646.06 1.49342 1.72546 0
M  V30 17546 C 1647.04 0.349184 1.58806 0
M  V30 17547 O 1648.22 0.550634 1.80278 0
M  V30 17548 C 1645.35 1.35455 3.10435 0
M  V30 17549 C 1644.39 2.53826 3.42746 0
M  V30 17550 S 1645.23 4.16269 3.36869 0
M  V30 17551 C 1646.38 4.04858 4.77326 0
M  V30 17552 H 1646.62 2.44469 1.69181 0
M  V30 17553 H 1644.15 1.33345 0.778358 0
M  V30 17554 H 1646.11 1.2813 3.89991 0
M  V30 17555 H 1644.77 0.417881 3.11308 0
M  V30 17556 H 1643.96 2.40053 4.4316 0
M  V30 17557 H 1643.56 2.58046 2.70718 0
M  V30 17558 H 1645.85 3.704 5.67283 0
M  V30 17559 H 1646.8 5.05207 4.96157 0
M  V30 17560 H 1647.21 3.36408 4.5331 0
M  V30 17561 N 1646.6 -0.84422 1.33082 0
M  V30 17562 C 1647.85 -1.60149 1.24419 0
M  V30 17563 C 1648.18 -1.93259 -0.190992 0
M  V30 17564 O 1647.46 -1.58242 -1.13092 0
M  V30 17565 C 1647.74 -2.91502 2.11421 0
M  V30 17566 C 1647.59 -2.65108 3.6337 0
M  V30 17567 C 1648.91 -3.92878 1.98331 0
M  V30 17568 H 1646.03 -0.581096 0.453317 0
M  V30 17569 H 1648.67 -0.974093 1.6313 0
M  V30 17570 H 1646.82 -3.45046 1.78537 0
M  V30 17571 H 1648.5 -2.18037 4.06519 0
M  V30 17572 H 1646.74 -1.98896 3.85516 0
M  V30 17573 H 1647.41 -3.58682 4.19584 0
M  V30 17574 H 1649.89 -3.48623 2.27159 0
M  V30 17575 H 1648.76 -4.82625 2.61466 0
M  V30 17576 H 1649.02 -4.31685 0.953972 0
M  V30 17577 N 1648.08 -1.16463 -1.0618 0
M  V30 17578 C 1649.33 -0.941322 -1.78387 0
M  V30 17579 C 1649.64 0.531995 -1.88226 0
M  V30 17580 O 1650.85 0.873227 -2.57074 0
M  V30 17581 C 1649.31 -1.63491 -3.20623 0
M  V30 17582 C 1648.91 -3.14607 -3.18946 0
M  V30 17583 C 1650.66 -1.49361 -3.97356 0
M  V30 17584 C 1648.56 -3.76698 -4.55908 0
M  V30 17585 H 1647.49 -0.348549 -0.668603 0
M  V30 17586 H 1650.15 -1.39607 -1.19088 0
M  V30 17587 H 1648.53 -1.10787 -3.80187 0
M  V30 17588 H 1649.7 -3.74164 -2.68957 0
M  V30 17589 H 1648.02 -3.28634 -2.55712 0
M  V30 17590 H 1650.61 -1.93131 -4.98603 0
M  V30 17591 H 1650.96 -0.442724 -4.13939 0
M  V30 17592 H 1651.49 -1.99227 -3.44316 0
M  V30 17593 H 1648.23 -4.8174 -4.4453 0
M  V30 17594 H 1647.75 -3.21927 -5.06086 0
M  V30 17595 H 1649.43 -3.78321 -5.24864 0
M  V30 17596 N 1649.56 1.24734 -0.963288 0
M  V30 17597 C 1650.81 1.92686 -0.622766 0
M  V30 17598 C 1651.13 1.75357 0.841442 0
M  V30 17599 O 1650.39 1.09757 1.62025 0
M  V30 17600 C 1650.69 3.44867 -0.938151 0
M  V30 17601 C 1650.35 3.82361 -2.38979 0
M  V30 17602 C 1649.02 3.92307 -2.78655 0
M  V30 17603 C 1651.37 4.00775 -3.3321 0
M  V30 17604 C 1648.7 4.1808 -4.11614 0
M  V30 17605 C 1651.05 4.28043 -4.65792 0
M  V30 17606 C 1649.71 4.36207 -5.05252 0
M  V30 17607 H 1648.98 0.705088 -0.227886 0
M  V30 17608 H 1651.63 1.48107 -1.21395 0
M  V30 17609 H 1649.93 3.90905 -0.264676 0
M  V30 17610 H 1651.63 3.95645 -0.653134 0
M  V30 17611 H 1648.22 3.75182 -2.07212 0
M  V30 17612 H 1652.41 3.92497 -3.03743 0
M  V30 17613 H 1647.66 4.22619 -4.41818 0
M  V30 17614 H 1651.84 4.41236 -5.3878 0
M  V30 17615 H 1649.46 4.55931 -6.08301 0
M  V30 17616 N 1651.04 0.732878 1.39523 0
M  V30 17617 C 1652.45 0.408236 1.54291 0
M  V30 17618 C 1652.65 -1.08114 1.7004 0
M  V30 17619 O 1651.71 -1.86726 1.6997 0
M  V30 17620 C 1653.02 1.1894 2.76177 0
M  V30 17621 C 1654.57 1.17742 2.9001 0
M  V30 17622 C 1655.05 1.94111 4.14831 0
M  V30 17623 N 1656.54 1.91266 4.21867 0
M  V30 17624 C 1657.27 2.47167 5.17394 0
M  V30 17625 N 1656.77 3.11696 6.18723 0
M  V30 17626 N 1658.56 2.37212 5.09595 0
M  V30 17627 H 1650.71 1.69839 1.27548 0
M  V30 17628 H 1652.97 0.718844 0.618035 0
M  V30 17629 H 1652.68 2.24321 2.70875 0
M  V30 17630 H 1652.55 0.792439 3.68782 0
M  V30 17631 H 1654.94 0.131752 2.94806 0
M  V30 17632 H 1655.02 1.61374 1.98474 0
M  V30 17633 H 1654.67 2.98677 4.10797 0
M  V30 17634 H 1654.6 1.47886 5.05408 0
M  V30 17635 H 1657.09 1.44254 3.49284 0
M  V30 17636 H 1657.4 3.51823 6.8807 0
M  V30 17637 H 1655.75 3.15785 6.19116 0
M  V30 17638 H 1658.94 1.86444 4.29367 0
M  V30 17639 H 1659.11 2.81076 5.83866 0
M  V30 17640 N 1652.52 -1.50101 0.480349 0
M  V30 17641 C 1653.76 -2.0428 -0.0700589 0
M  V30 17642 C 1654.12 -1.35372 -1.36155 0
M  V30 17643 O 1655.32 -1.80157 -1.99492 0
M  V30 17644 C 1653.59 -3.56591 -0.240285 0
M  V30 17645 S 1655.15 -4.32379 -0.747916 0
M  V30 17646 H 1651.97 -0.710906 -0.0115761 0
M  V30 17647 H 1654.57 -1.84392 0.649604 0
M  V30 17648 H 1653.27 -4.04294 0.705315 0
M  V30 17649 H 1652.81 -3.80849 -0.985792 0
M  V30 17650 H 1654.82 -4.5322 -2.02005 0
M  V30 17651 N 1653.99 -0.213323 -1.5615 0
M  V30 17652 C 1655.24 0.420598 -1.98084 0
M  V30 17653 C 1655.57 1.60355 -1.10075 0
M  V30 17654 O 1654.82 1.95171 -0.143848 0
M  V30 17655 C 1655.12 0.905764 -3.45732 0
M  V30 17656 C 1654.79 -0.165778 -4.50595 0
M  V30 17657 C 1653.45 -0.460161 -4.78995 0
M  V30 17658 C 1655.8 -0.890891 -5.1353 0
M  V30 17659 C 1653.13 -1.48432 -5.67613 0
M  V30 17660 C 1655.48 -1.90433 -6.03256 0
M  V30 17661 C 1654.15 -2.20572 -6.30004 0
M  V30 17662 H 1653.42 0.153908 -0.72484 0
M  V30 17663 H 1656.06 -0.314117 -1.88906 0
M  V30 17664 H 1654.37 1.71909 -3.52072 0
M  V30 17665 H 1656.07 1.40596 -3.75545 0
M  V30 17666 H 1652.66 0.0738261 -4.28536 0
M  V30 17667 H 1656.84 -0.676696 -4.91665 0
M  V30 17668 H 1652.1 -1.72354 -5.86604 0
M  V30 17669 H 1656.27 -2.47131 -6.51075 0
M  V30 17670 H 1653.9 -3.00074 -6.9847 0
M  V30 17671 N 1655.47 1.57485 0.0601405 0
M  V30 17672 C 1656.7 1.92438 0.773466 0
M  V30 17673 C 1657.12 0.810755 1.6973 0
M  V30 17674 O 1656.48 -0.235697 1.79761 0
M  V30 17675 C 1656.53 3.26381 1.53323 0
M  V30 17676 O 1655.63 3.16436 2.64465 0
M  V30 17677 H 1654.97 0.629838 0.210239 0
M  V30 17678 H 1657.5 2.04585 0.0248981 0
M  V30 17679 H 1657.51 3.60534 1.90996 0
M  V30 17680 H 1656.19 4.07007 0.855468 0
M  V30 17681 H 1654.77 2.93862 2.29564 0
M  V30 17682 N 1656.95 -0.331789 1.54068 0
M  V30 17683 C 1658.18 -1.09044 1.75832 0
M  V30 17684 C 1658.59 -1.81976 0.503012 0
M  V30 17685 O 1657.95 -1.74758 -0.525913 0
M  V30 17686 C 1658 -2.09489 2.94613 0
M  V30 17687 O 1657.72 -1.39521 4.1529 0
M  V30 17688 C 1659.22 -2.97637 3.28522 0
M  V30 17689 H 1656.44 -0.324701 0.587205 0
M  V30 17690 H 1658.99 -0.380417 2.00931 0
M  V30 17691 H 1657.14 -2.76038 2.71812 0
M  V30 17692 H 1657.56 -2.06717 4.82046 0
M  V30 17693 H 1659.03 -3.64027 4.14956 0
M  V30 17694 H 1659.51 -3.64292 2.45332 0
M  V30 17695 H 1660.11 -2.3666 3.53372 0
M  V30 17696 N 1658.43 -1.46001 -0.593424 0
M  V30 17697 C 1659.68 -1.50457 -1.34933 0
M  V30 17698 C 1660 -0.153383 -1.94396 0
M  V30 17699 O 1659.27 0.818894 -1.77963 0
M  V30 17700 H 1657.85 -0.554119 -0.50096 0
M  V30 17701 H 1660.51 -1.82057 -0.695798 0
M  V30 17702 H 1659.61 -2.25131 -2.16154 0
M  V30 17703 N 1659.91 0.83715 -1.33527 0
M  V30 17704 C 1661.32 1.12809 -1.12899 0
M  V30 17705 C 1661.52 2.01345 0.0789761 0
M  V30 17706 O 1660.58 2.40831 0.758732 0
M  V30 17707 C 1661.89 1.78852 -2.41728 0
M  V30 17708 C 1663.44 1.91411 -2.47651 0
M  V30 17709 C 1663.91 2.6087 -3.76445 0
M  V30 17710 N 1665.41 2.68381 -3.77526 0
M  V30 17711 C 1666.14 3.22819 -4.73894 0
M  V30 17712 N 1665.64 3.77931 -5.80638 0
M  V30 17713 N 1667.43 3.21087 -4.61367 0
M  V30 17714 H 1659.58 0.247942 -2.10948 0
M  V30 17715 H 1661.84 0.172518 -0.93217 0
M  V30 17716 H 1661.55 1.21258 -3.30135 0
M  V30 17717 H 1661.42 2.78856 -2.54006 0
M  V30 17718 H 1663.81 2.48159 -1.59691 0
M  V30 17719 H 1663.89 0.903512 -2.39312 0
M  V30 17720 H 1663.54 2.0478 -4.64787 0
M  V30 17721 H 1663.47 3.62404 -3.82061 0
M  V30 17722 H 1665.96 2.29301 -3.00382 0
M  V30 17723 H 1666.27 4.17678 -6.50204 0
M  V30 17724 H 1664.61 3.76214 -5.8437 0
M  V30 17725 H 1667.81 2.7729 -3.77131 0
M  V30 17726 H 1667.98 3.6321 -5.3664 0
M  V30 17727 N 1661.38 1.17024 1.05561 0
M  V30 17728 C 1662.63 0.954436 1.78143 0
M  V30 17729 C 1662.95 -0.518525 1.8798 0
M  V30 17730 O 1662.22 -1.37654 1.39385 0
M  V30 17731 H 1660.8 0.350141 0.659856 0
M  V30 17732 H 1663.47 1.4743 1.27477 0
M  V30 17733 H 1662.56 1.37955 2.79955 0
M  V30 17734 N 1662.86 -1.24221 0.969889 0
M  V30 17735 C 1664.28 -1.4454 0.676778 0
M  V30 17736 C 1664.48 -1.86591 -0.760656 0
M  V30 17737 O 1663.53 -2.00538 -1.5343 0
M  V30 17738 C 1664.85 -2.50546 1.66274 0
M  V30 17739 C 1666.4 -2.64372 1.67561 0
M  V30 17740 C 1666.87 -3.73577 2.6496 0
M  V30 17741 N 1668.36 -3.81007 2.63416 0
M  V30 17742 C 1669.1 -4.65037 3.35452 0
M  V30 17743 N 1668.59 -5.53238 4.17013 0
M  V30 17744 N 1670.39 -4.59138 3.24266 0
M  V30 17745 H 1662.54 -0.952237 1.89858 0
M  V30 17746 H 1664.8 -0.479972 0.817515 0
M  V30 17747 H 1664.51 -2.26541 2.6902 0
M  V30 17748 H 1664.38 -3.48745 1.43724 0
M  V30 17749 H 1666.77 -2.87733 0.655247 0
M  V30 17750 H 1666.85 -1.66523 1.94174 0
M  V30 17751 H 1666.49 -3.50965 3.67132 0
M  V30 17752 H 1666.42 -4.70944 2.35626 0
M  V30 17753 H 1668.91 -3.17969 2.04216 0
M  V30 17754 H 1669.23 -6.1432 4.68861 0
M  V30 17755 H 1667.57 -5.52896 4.21107 0
M  V30 17756 H 1670.76 -3.89247 2.60008 0
M  V30 17757 H 1670.93 -5.24399 3.8067 0
M  V30 17758 N 1664.34 -0.740267 -1.39132 0
M  V30 17759 C 1665.59 -0.289949 -2.00009 0
M  V30 17760 C 1665.91 1.12831 -1.59042 0
M  V30 17761 O 1665.18 1.76926 -0.841076 0
M  V30 17762 H 1663.76 -0.104213 -0.739695 0
M  V30 17763 H 1666.42 -0.951398 -1.70101 0
M  V30 17764 H 1665.52 -0.342509 -3.10215 0
M  V30 17765 N 1665.82 1.49844 -0.488302 0
M  V30 17766 C 1666.75 2.25604 0.343226 0
M  V30 17767 C 1667.73 1.29642 0.981415 0
M  V30 17768 O 1668.91 1.58904 1.014 0
M  V30 17769 C 1666.04 3.04541 1.48231 0
M  V30 17770 C 1665.09 4.15561 0.959774 0
M  V30 17771 S 1665.92 5.35319 -0.139328 0
M  V30 17772 C 1667.08 6.17808 1.00322 0
M  V30 17773 H 1667.31 2.95784 -0.299825 0
M  V30 17774 H 1664.84 1.5196 -0.273415 0
M  V30 17775 H 1666.8 3.50608 2.13505 0
M  V30 17776 H 1665.46 2.33854 2.09693 0
M  V30 17777 H 1664.65 4.7026 1.81304 0
M  V30 17778 H 1664.26 3.72019 0.384461 0
M  V30 17779 H 1666.55 6.49984 1.91121 0
M  V30 17780 H 1667.49 7.06367 0.495116 0
M  V30 17781 H 1667.9 5.50148 1.26482 0
M  V30 17782 N 1667.3 0.221601 1.56034 0
M  V30 17783 C 1668.54 -0.410695 1.98598 0
M  V30 17784 C 1668.88 -1.59412 1.10912 0
M  V30 17785 O 1668.15 -1.93783 0.166819 0
M  V30 17786 C 1668.43 -0.845199 3.50041 0
M  V30 17787 C 1668.29 0.341866 4.48499 0
M  V30 17788 C 1669.61 -1.70135 4.05884 0
M  V30 17789 H 1666.72 -0.147808 0.722026 0
M  V30 17790 H 1669.37 0.317846 1.87323 0
M  V30 17791 H 1667.52 -1.46597 3.5978 0
M  V30 17792 H 1669.19 0.980014 4.5077 0
M  V30 17793 H 1667.43 0.989294 4.22369 0
M  V30 17794 H 1668.1 -0.00509234 5.52 0
M  V30 17795 H 1670.58 -1.17757 3.9909 0
M  V30 17796 H 1669.45 -1.97427 5.12166 0
M  V30 17797 H 1669.72 -2.66469 3.5277 0
M  V30 17798 N 1668.77 -1.57515 -0.0517878 0
M  V30 17799 C 1669.68 -2.08427 -1.07681 0
M  V30 17800 C 1670.7 -1.01797 -1.41115 0
M  V30 17801 O 1671.88 -1.33394 -1.50891 0
M  V30 17802 C 1668.94 -2.53472 -2.36544 0
M  V30 17803 C 1668 -3.74488 -2.09899 0
M  V30 17804 C 1667.24 -4.17374 -3.32618 0
M  V30 17805 O 1667.46 -3.59962 -4.42475 0
M  V30 17806 O 1666.39 -5.10006 -3.19653 0
M  V30 17807 H 1670.22 -2.96122 -0.674217 0
M  V30 17808 H 1667.8 -1.4699 -0.267274 0
M  V30 17809 H 1669.69 -2.82876 -3.12345 0
M  V30 17810 H 1668.36 -1.68899 -2.76143 0
M  V30 17811 H 1667.27 -3.50137 -1.31739 0
M  V30 17812 H 1668.6 -4.59975 -1.75169 0
M  V30 17813 N 1670.25 0.323614 -1.54242 0
M  V30 17814 C 1671.19 1.42211 -1.78469 0
M  V30 17815 C 1672.16 1.49702 -0.634671 0
M  V30 17816 O 1673.35 1.67113 -0.872103 0
M  V30 17817 C 1670.48 2.80306 -1.90121 0
M  V30 17818 C 1669.52 2.90347 -3.12411 0
M  V30 17819 S 1670.35 2.54761 -4.71017 0
M  V30 17820 C 1671.51 3.94928 -4.85575 0
M  V30 17821 H 1671.74 1.21447 -2.71363 0
M  V30 17822 H 1669.28 0.520446 -1.45364 0
M  V30 17823 H 1671.23 3.59856 -1.97519 0
M  V30 17824 H 1669.9 2.98353 -0.982048 0
M  V30 17825 H 1669.09 3.91584 -3.17298 0
M  V30 17826 H 1668.69 2.18769 -3.03342 0
M  V30 17827 H 1670.98 4.8968 -4.68209 0
M  V30 17828 H 1671.93 3.95024 -5.87675 0
M  V30 17829 H 1672.33 3.8388 -4.1388 0
M  V30 17830 N 1671.73 1.46313 0.585673 0
M  V30 17831 C 1672.98 1.50738 1.34019 0
M  V30 17832 C 1673.29 0.162245 1.94926 0
M  V30 17833 O 1674.5 0.0842676 2.71369 0
M  V30 17834 C 1672.96 2.65592 2.42876 0
M  V30 17835 C 1672.56 4.06513 1.88285 0
M  V30 17836 C 1674.31 2.79284 3.19689 0
M  V30 17837 C 1672.21 5.12712 2.94754 0
M  V30 17838 H 1671.14 0.560979 0.503804 0
M  V30 17839 H 1673.8 1.72516 0.625344 0
M  V30 17840 H 1672.18 2.37138 3.17146 0
M  V30 17841 H 1673.35 4.44744 1.20578 0
M  V30 17842 H 1671.67 3.97462 1.2415 0
M  V30 17843 H 1674.26 3.55795 3.99142 0
M  V30 17844 H 1674.61 1.86694 3.7209 0
M  V30 17845 H 1675.14 3.0737 2.52525 0
M  V30 17846 H 1671.88 6.07084 2.47244 0
M  V30 17847 H 1671.4 4.79028 3.6096 0
M  V30 17848 H 1673.08 5.38426 3.58757 0
M  V30 17849 N 1673.21 -0.830057 1.33969 0
M  V30 17850 C 1674.62 -1.40227 1.23261 0
M  V30 17851 C 1674.97 -1.95664 -0.144862 0
M  V30 17852 O 1674.1 -1.89503 -1.04488 0
M  V30 17853 C 1674.69 -2.54913 2.2317 0
M  V30 17854 C 1673.25 -3.08062 2.16274 0
M  V30 17855 C 1672.4 -1.809 2.10168 0
M  V30 17856 H 1675.35 -0.635062 1.4544 0
M  V30 17857 H 1675.37 -3.32801 1.84455 0
M  V30 17858 H 1674.88 -2.14534 3.23414 0
M  V30 17859 H 1672.98 -3.52964 1.19362 0
M  V30 17860 H 1673.1 -3.67637 3.07213 0
M  V30 17861 H 1671.46 -2.01508 1.55778 0
M  V30 17862 H 1672.24 -1.42705 3.12234 0
M  V30 17863 N 1674.69 -1.17582 -1.04939 0
M  V30 17864 C 1675.64 -0.891102 -2.14854 0
M  V30 17865 C 1676.63 0.145242 -1.68776 0
M  V30 17866 O 1677.84 -0.00207978 -1.8 0
M  V30 17867 H 1674.21 -0.270641 -0.701611 0
M  V30 17868 H 1676.18 -1.82519 -2.36071 0
M  V30 17869 C 1674.93 -0.423679 -3.45109 0
M  V30 17870 H 1674.25 -1.2126 -3.80967 0
M  V30 17871 H 1675.69 -0.263369 -4.23181 0
M  V30 17872 C 1674.15 0.859085 -3.25763 0
M  V30 17873 O 1674.68 1.9253 -3.52555 0
M  V30 17874 N 1672.89 0.80824 -2.79134 0
M  V30 17875 H 1672.44 -0.0596431 -2.57531 0
M  V30 17876 H 1672.39 1.66697 -2.6657 0
M  V30 17877 N 1676.17 1.23705 -0.976463 0
M  V30 17878 C 1677.13 2.23257 -0.518533 0
M  V30 17879 C 1678.13 1.56006 0.3897 0
M  V30 17880 O 1679.32 1.73226 0.18394 0
M  V30 17881 C 1676.45 3.39997 0.247916 0
M  V30 17882 H 1677.64 2.65284 -1.39872 0
M  V30 17883 H 1675.2 1.3647 -0.761946 0
M  V30 17884 H 1675.93 3.03421 1.14482 0
M  V30 17885 H 1675.72 3.90013 -0.403975 0
M  V30 17886 H 1677.21 4.13868 0.557034 0
M  V30 17887 N 1677.64 0.747635 1.38738 0
M  V30 17888 C 1678.55 0.117879 2.34304 0
M  V30 17889 C 1679.57 -0.707488 1.58967 0
M  V30 17890 O 1680.75 -0.633025 1.91193 0
M  V30 17891 C 1677.81 -0.769223 3.38059 0
M  V30 17892 C 1676.87 0.0698358 4.29243 0
M  V30 17893 C 1676.1 -0.775021 5.28043 0
M  V30 17894 O 1676.33 -2.01328 5.33688 0
M  V30 17895 O 1675.26 -0.196978 6.01578 0
M  V30 17896 H 1679.09 0.906972 2.89841 0
M  V30 17897 H 1676.67 0.508453 1.40482 0
M  V30 17898 H 1678.55 -1.27641 4.01604 0
M  V30 17899 H 1677.23 -1.53691 2.84887 0
M  V30 17900 H 1676.14 0.622836 3.68879 0
M  V30 17901 H 1677.47 0.80004 4.85654 0
M  V30 17902 N 1679.12 -1.49583 0.496242 0
M  V30 17903 C 1680.35 -2.06847 -0.0469118 0
M  V30 17904 C 1680.76 -1.35715 -1.31251 0
M  V30 17905 O 1680.12 -0.434021 -1.77264 0
M  V30 17906 C 1680.17 -3.60174 -0.309338 0
M  V30 17907 O 1679.89 -4.28628 0.906082 0
M  V30 17908 C 1681.39 -4.34137 -0.896664 0
M  V30 17909 H 1678.61 -0.67075 0.0183324 0
M  V30 17910 H 1681.16 -1.92427 0.692237 0
M  V30 17911 H 1679.31 -3.74312 -0.998459 0
M  V30 17912 H 1679.73 -5.20254 0.666014 0
M  V30 17913 H 1681.2 -5.42307 -1.0299 0
M  V30 17914 H 1681.68 -3.96299 -1.89325 0
M  V30 17915 H 1682.28 -4.24593 -0.245158 0
M  V30 17916 N 1680.6 -0.229873 -1.55915 0
M  V30 17917 C 1681.53 0.671321 -2.23642 0
M  V30 17918 C 1682.51 1.19461 -1.21091 0
M  V30 17919 O 1683.7 1.23708 -1.49699 0
M  V30 17920 C 1680.83 1.87595 -2.92276 0
M  V30 17921 C 1679.78 1.48616 -4.01369 0
M  V30 17922 C 1679.11 2.77024 -4.57342 0
M  V30 17923 C 1680.41 0.669928 -5.17986 0
M  V30 17924 H 1682.1 0.106622 -2.9921 0
M  V30 17925 H 1679.65 0.0498418 -1.43914 0
M  V30 17926 H 1681.6 2.51191 -3.3835 0
M  V30 17927 H 1680.32 2.46576 -2.14168 0
M  V30 17928 H 1678.98 0.873623 -3.56038 0
M  V30 17929 H 1678.63 3.34166 -3.75955 0
M  V30 17930 H 1678.33 2.51674 -5.30975 0
M  V30 17931 H 1679.85 3.41548 -5.0614 0
M  V30 17932 H 1681.27 1.20978 -5.6039 0
M  V30 17933 H 1679.66 0.513174 -5.97902 0
M  V30 17934 H 1680.73 -0.321644 -4.83832 0
M  V30 17935 N 1682.08 1.5754 0.0434337 0
M  V30 17936 C 1683.49 1.54537 0.398819 0
M  V30 17937 C 1683.69 0.954055 1.77483 0
M  V30 17938 O 1682.75 0.568839 2.46009 0
M  V30 17939 C 1684.06 2.99058 0.313848 0
M  V30 17940 C 1685.61 3.10536 0.39198 0
M  V30 17941 C 1686.09 4.56761 0.336614 0
M  V30 17942 N 1687.58 4.61505 0.395844 0
M  V30 17943 C 1688.31 5.72168 0.375669 0
M  V30 17944 N 1687.81 6.92112 0.30863 0
M  V30 17945 N 1689.6 5.60496 0.424335 0
M  V30 17946 H 1681.75 1.94333 -0.857225 0
M  V30 17947 H 1684.01 0.890708 -0.324566 0
M  V30 17948 H 1683.72 3.4599 -0.631159 0
M  V30 17949 H 1683.59 3.60402 1.11313 0
M  V30 17950 H 1685.98 2.6356 1.32742 0
M  V30 17951 H 1686.06 2.5205 -0.436391 0
M  V30 17952 H 1685.71 5.04402 -0.595093 0
M  V30 17953 H 1685.64 5.13142 1.1829 0
M  V30 17954 H 1688.13 3.75202 0.450753 0
M  V30 17955 H 1688.44 7.72225 0.29794 0
M  V30 17956 H 1686.79 6.94456 0.274891 0
M  V30 17957 H 1689.98 4.65688 0.474599 0
M  V30 17958 H 1690.15 6.46732 0.405143 0
M  V30 17959 N 1683.56 -0.31543 1.54411 0
M  V30 17960 C 1684.5 -1.3885 1.84362 0
M  V30 17961 C 1685.47 -1.51028 0.69135 0
M  V30 17962 O 1686.66 -1.66119 0.938577 0
M  V30 17963 C 1683.8 -2.75085 2.0838 0
M  V30 17964 C 1682.91 -2.71473 3.36045 0
M  V30 17965 C 1682.05 -3.99608 3.49981 0
M  V30 17966 C 1681.08 -3.90335 4.71492 0
M  V30 17967 N 1680.22 -5.10216 4.82311 0
M  V30 17968 H 1685.06 -1.12609 2.75905 0
M  V30 17969 H 1682.6 -0.54495 1.36633 0
M  V30 17970 H 1684.56 -3.54295 2.20298 0
M  V30 17971 H 1683.19 -2.99618 1.2012 0
M  V30 17972 H 1682.24 -1.84209 3.32823 0
M  V30 17973 H 1683.55 -2.60507 4.25368 0
M  V30 17974 H 1682.7 -4.8725 3.61486 0
M  V30 17975 H 1681.44 -4.1339 2.58766 0
M  V30 17976 H 1680.45 -3.01077 4.60036 0
M  V30 17977 H 1681.67 -3.78111 5.641 0
M  V30 17978 H 1679.62 -5.24489 3.94014 0
M  V30 17979 H 1679.54 -5.01617 5.65612 0
M  V30 17980 H 1680.8 -5.99551 4.98156 0
M  V30 17981 N 1685.03 -1.46622 -0.577906 0
M  V30 17982 C 1686.28 -1.51446 -1.33218 0
M  V30 17983 C 1686.6 -0.17258 -1.94837 0
M  V30 17984 O 1687.8 -0.0986578 -2.71321 0
M  V30 17985 C 1686.26 -2.66876 -2.41465 0
M  V30 17986 C 1685.87 -4.07506 -1.86127 0
M  V30 17987 C 1687.61 -2.80975 -3.18203 0
M  V30 17988 C 1685.52 -5.14268 -2.92031 0
M  V30 17989 H 1684.45 -0.563643 -0.500822 0
M  V30 17990 H 1687.1 -1.72845 -0.616186 0
M  V30 17991 H 1685.48 -2.38816 -3.15884 0
M  V30 17992 H 1686.65 -4.45378 -1.18218 0
M  V30 17993 H 1684.97 -3.98115 -1.2204 0
M  V30 17994 H 1687.57 -3.57906 -3.97249 0
M  V30 17995 H 1687.91 -1.88665 -3.71095 0
M  V30 17996 H 1688.44 -3.08705 -2.50891 0
M  V30 17997 H 1685.18 -6.08386 -2.44021 0
M  V30 17998 H 1684.7 -4.80936 -3.58414 0
M  V30 17999 H 1686.38 -5.40321 -3.55896 0
M  V30 18000 N 1686.51 0.822941 -1.34408 0
M  V30 18001 C 1687.44 1.94142 -1.21826 0
M  V30 18002 C 1688.46 1.6215 -0.145353 0
M  V30 18003 O 1689.65 1.74025 -0.397205 0
M  V30 18004 C 1686.75 3.28077 -0.849619 0
M  V30 18005 C 1685.92 3.88092 -2.0175 0
M  V30 18006 C 1684.98 5.00406 -1.62726 0
M  V30 18007 O 1684 5.18703 -2.34383 0
M  V30 18008 N 1685.21 5.7797 -0.541413 0
M  V30 18009 H 1687.97 2.05467 -2.18182 0
M  V30 18010 H 1685.53 0.999521 -1.27362 0
M  V30 18011 H 1687.52 4.00661 -0.57035 0
M  V30 18012 H 1686.09 3.12591 0.0237499 0
M  V30 18013 H 1685.31 3.07902 -2.46151 0
M  V30 18014 H 1686.6 4.24921 -2.79856 0
M  V30 18015 H 1686 5.65674 0.0542929 0
M  V30 18016 H 1684.56 6.51005 -0.321874 0
M  V30 18017 N 1687.99 1.18137 1.04314 0
M  V30 18018 C 1689.24 0.976648 1.77734 0
M  V30 18019 C 1689.57 -0.492756 1.87844 0
M  V30 18020 O 1688.84 -1.36586 1.38472 0
M  V30 18021 C 1689.13 1.62911 3.21142 0
M  V30 18022 C 1688.98 3.1712 3.1899 0
M  V30 18023 C 1690.3 1.34029 4.19195 0
M  V30 18024 H 1687.42 0.356217 0.645197 0
M  V30 18025 H 1690.06 1.45767 1.21868 0
M  V30 18026 H 1688.21 1.22009 3.68844 0
M  V30 18027 H 1689.88 3.67139 2.79296 0
M  V30 18028 H 1688.13 3.4941 2.57089 0
M  V30 18029 H 1688.8 3.57907 4.20245 0
M  V30 18030 H 1691.27 1.69463 3.80028 0
M  V30 18031 H 1690.15 1.82253 5.1776 0
M  V30 18032 H 1690.41 0.262712 4.41319 0
M  V30 18033 N 1689.47 -1.23186 0.98301 0
M  V30 18034 C 1690.38 -2.28448 0.533727 0
M  V30 18035 C 1691.39 -1.69034 -0.412732 0
M  V30 18036 O 1692.57 -1.99416 -0.282007 0
M  V30 18037 C 1689.64 -3.46357 -0.154179 0
M  V30 18038 C 1688.7 -4.21121 0.834009 0
M  V30 18039 C 1687.93 -5.334 0.178836 0
M  V30 18040 O 1688.15 -5.61032 -1.02952 0
M  V30 18041 O 1687.09 -5.95451 0.878722 0
M  V30 18042 H 1690.91 -2.69027 1.40919 0
M  V30 18043 H 1688.5 -1.29166 0.75077 0
M  V30 18044 H 1690.38 -4.17926 -0.539947 0
M  V30 18045 H 1689.05 -3.07724 -1.00437 0
M  V30 18046 H 1687.96 -3.51864 1.27053 0
M  V30 18047 H 1689.29 -4.6361 1.65309 0
M  V30 18048 N 1690.95 -0.754982 -1.38339 0
M  V30 18049 C 1691.9 -0.103867 -2.27763 0
M  V30 18050 C 1692.88 0.691777 -1.4527 0
M  V30 18051 O 1694.07 0.557503 -1.67991 0
M  V30 18052 C 1691.2 0.787421 -3.34148 0
M  V30 18053 C 1690.29 -0.0151461 -4.24097 0
M  V30 18054 N 1690.68 -1.05227 -4.94733 0
M  V30 18055 C 1688.98 0.211452 -4.45498 0
M  V30 18056 C 1689.68 -1.53796 -5.61001 0
M  V30 18057 N 1688.65 -0.853018 -5.36866 0
M  V30 18058 H 1692.46 -0.898166 -2.7984 0
M  V30 18059 H 1689.97 -0.591155 -1.51258 0
M  V30 18060 H 1691.97 1.26952 -3.971 0
M  V30 18061 H 1690.63 1.58066 -2.83629 0
M  V30 18062 H 1691.64 -1.43409 -4.97649 0
M  V30 18063 H 1688.31 0.977919 -4.05885 0
M  V30 18064 H 1689.7 -2.40193 -6.27501 0
M  V30 18065 N 1692.42 1.49318 -0.504168 0
M  V30 18066 C 1693.67 2.02062 0.039149 0
M  V30 18067 C 1693.99 1.38577 1.37191 0
M  V30 18068 O 1693.26 0.542179 1.88248 0
M  V30 18069 H 1691.84 0.746796 0.0174575 0
M  V30 18070 H 1694.51 1.83308 -0.66213 0
M  V30 18071 H 1693.6 3.11656 0.166496 0
M  V30 18072 N 1693.9 0.238138 1.5579 0
M  V30 18073 C 1695.15 -0.389608 1.99022 0
M  V30 18074 C 1695.48 -1.58226 1.12597 0
M  V30 18075 O 1694.76 -1.93595 0.187363 0
M  V30 18076 C 1695.04 -0.808025 3.50917 0
M  V30 18077 C 1694.89 0.389417 4.48111 0
M  V30 18078 C 1696.21 -1.6582 4.07666 0
M  V30 18079 H 1693.33 -0.140141 0.723553 0
M  V30 18080 H 1695.97 0.337696 1.86975 0
M  V30 18081 H 1694.12 -1.42772 3.61315 0
M  V30 18082 H 1695.79 1.02777 4.49705 0
M  V30 18083 H 1694.04 1.03404 4.21296 0
M  V30 18084 H 1694.71 0.0534549 5.51974 0
M  V30 18085 H 1697.18 -1.13518 4.00316 0
M  V30 18086 H 1696.06 -1.91984 5.14231 0
M  V30 18087 H 1696.32 -2.62712 3.55577 0
M  V30 18088 N 1695.38 -1.57561 -0.0350783 0
M  V30 18089 C 1696.61 -1.93251 -0.73903 0
M  V30 18090 C 1697.02 -0.83739 -1.69214 0
M  V30 18091 O 1696.38 0.186669 -1.81543 0
M  V30 18092 C 1696.43 -3.28853 -1.50127 0
M  V30 18093 O 1696.15 -4.34157 -0.586426 0
M  V30 18094 C 1697.65 -3.78788 -2.30292 0
M  V30 18095 H 1694.87 -0.63793 -0.208053 0
M  V30 18096 H 1697.42 -2.04499 0.00560398 0
M  V30 18097 H 1695.57 -3.1902 -2.19784 0
M  V30 18098 H 1695.99 -5.12395 -1.12034 0
M  V30 18099 H 1697.46 -4.76197 -2.79178 0
M  V30 18100 H 1697.94 -3.09671 -3.11449 0
M  V30 18101 H 1698.54 -3.91684 -1.65721 0
M  V30 18102 N 1696.86 0.307236 -1.54576 0
M  V30 18103 C 1698.11 1.04115 -1.73218 0
M  V30 18104 C 1698.43 1.88008 -0.517482 0
M  V30 18105 O 1697.7 1.90219 0.468336 0
M  V30 18106 H 1696.28 0.387388 -0.638701 0
M  V30 18107 H 1698.94 0.339727 -1.91916 0
M  V30 18108 H 1698.04 1.69784 -2.61877 0
M  V30 18109 N 1698.34 1.46926 0.570122 0
M  V30 18110 C 1699.56 1.56722 1.35841 0
M  V30 18111 C 1699.99 0.213314 1.86887 0
M  V30 18112 O 1699.34 -0.808694 1.62265 0
M  V30 18113 C 1699.39 2.5859 2.51323 0
M  V30 18114 O 1698.5 2.12966 3.53156 0
M  V30 18115 H 1697.84 0.526929 0.404032 0
M  V30 18116 H 1700.37 1.92603 0.690308 0
M  V30 18117 H 1700.38 2.78601 2.9807 0
M  V30 18118 H 1699.05 3.56903 2.13525 0
M  V30 18119 H 1697.63 2.02999 3.12803 0
M  V30 18120 N 1699.82 -0.815801 1.34842 0
M  V30 18121 C 1701.06 -1.57241 1.27599 0
M  V30 18122 C 1701.39 -1.93904 -0.152127 0
M  V30 18123 O 1700.65 -1.60819 -1.11515 0
M  V30 18124 C 1700.94 -2.87795 2.11917 0
M  V30 18125 C 1700.61 -2.70392 3.60831 0
M  V30 18126 C 1699.27 -2.65353 4.01424 0
M  V30 18127 C 1701.62 -2.53569 4.55359 0
M  V30 18128 C 1698.95 -2.41422 5.34726 0
M  V30 18129 C 1701.3 -2.31169 5.8885 0
M  V30 18130 C 1699.97 -2.24546 6.28598 0
M  V30 18131 H 1699.24 -0.575386 0.466918 0
M  V30 18132 H 1701.89 -0.943355 1.66653 0
M  V30 18133 H 1700.19 -3.5503 1.65714 0
M  V30 18134 H 1701.89 -3.45436 2.03654 0
M  V30 18135 H 1698.48 -2.75157 3.28613 0
M  V30 18136 H 1702.66 -2.5648 4.2489 0
M  V30 18137 H 1697.92 -2.34758 5.64534 0
M  V30 18138 H 1702.09 -2.1714 6.61682 0
M  V30 18139 H 1699.72 -2.05765 7.31823 0
M  V30 18140 N 1701.29 -1.18689 -1.03686 0
M  V30 18141 C 1702.24 -0.917369 -2.11785 0
M  V30 18142 C 1703.21 0.144719 -1.65468 0
M  V30 18143 O 1704.4 0.00427016 -1.908 0
M  V30 18144 C 1701.54 -0.453396 -3.42109 0
M  V30 18145 C 1700.65 -1.58134 -4.02017 0
M  V30 18146 C 1699.78 -1.06971 -5.20318 0
M  V30 18147 C 1698.82 -2.17208 -5.72265 0
M  V30 18148 N 1697.96 -1.67411 -6.81849 0
M  V30 18149 H 1702.8 -1.84297 -2.34177 0
M  V30 18150 H 1700.34 -0.918951 -1.14864 0
M  V30 18151 H 1702.29 -0.165843 -4.1687 0
M  V30 18152 H 1700.92 0.435219 -3.19853 0
M  V30 18153 H 1699.98 -1.98429 -3.24546 0
M  V30 18154 H 1701.29 -2.41219 -4.36594 0
M  V30 18155 H 1700.44 -0.736906 -6.02208 0
M  V30 18156 H 1699.18 -0.208487 -4.87254 0
M  V30 18157 H 1698.19 -2.51328 -4.88993 0
M  V30 18158 H 1699.41 -3.03772 -6.07371 0
M  V30 18159 H 1697.36 -0.83584 -6.50653 0
M  V30 18160 H 1697.27 -2.44091 -7.15511 0
M  V30 18161 H 1698.54 -1.3707 -7.67354 0
M  V30 18162 N 1702.77 1.22662 -0.989529 0
M  V30 18163 C 1704.05 1.86816 -0.579566 0
M  V30 18164 C 1704.43 1.88858 0.943188 0
M  V30 18165 O 1703.78 1.37668 1.82372 0
M  V30 18166 C 1703.99 3.27863 -1.19612 0
M  V30 18167 C 1705.33 4.04384 -1.29454 0
M  V30 18168 O 1706.36 3.37116 -1.15026 0
M  V30 18169 O 1705.22 5.24789 -1.52508 0
M  V30 18170 H 1702.31 0.803332 -0.196434 0
M  V30 18171 H 1704.86 1.30467 -1.08519 0
M  V30 18172 H 1703.63 3.20993 -2.23784 0
M  V30 18173 H 1703.25 3.91813 -0.675875 0
M  V30 18174 N 1704.25 0.762308 1.37937 0
M  V30 18175 C 1705.67 0.440871 1.5339 0
M  V30 18176 C 1705.87 -1.04483 1.72295 0
M  V30 18177 O 1704.92 -1.83078 1.73892 0
M  V30 18178 C 1706.23 1.24772 2.73592 0
M  V30 18179 C 1707.78 1.23867 2.87447 0
M  V30 18180 C 1708.26 2.02866 4.10621 0
M  V30 18181 N 1709.75 2.00171 4.17715 0
M  V30 18182 C 1710.48 2.58086 5.12034 0
M  V30 18183 N 1709.98 3.2475 6.11972 0
M  V30 18184 N 1711.77 2.47968 5.04449 0
M  V30 18185 H 1703.92 1.72506 1.23916 0
M  V30 18186 H 1706.19 0.731791 0.602649 0
M  V30 18187 H 1705.89 2.30016 2.66056 0
M  V30 18188 H 1705.77 0.870485 3.67018 0
M  V30 18189 H 1708.15 0.194255 2.9446 0
M  V30 18190 H 1708.23 1.65548 1.95007 0
M  V30 18191 H 1707.88 3.07323 4.04369 0
M  V30 18192 H 1707.81 1.58574 5.02157 0
M  V30 18193 H 1710.3 1.5163 3.46146 0
M  V30 18194 H 1710.61 3.66339 6.80453 0
M  V30 18195 H 1708.96 3.28846 6.12279 0
M  V30 18196 H 1712.15 1.95509 4.25316 0
M  V30 18197 H 1712.32 2.93398 5.77773 0
M  V30 18198 N 1705.73 -1.49049 0.51208 0
M  V30 18199 C 1707.14 -1.86579 0.0670687 0
M  V30 18200 C 1707.49 -1.42339 -1.35034 0
M  V30 18201 O 1706.61 -0.806142 -2.00824 0
M  V30 18202 C 1707.21 -3.38605 0.114936 0
M  V30 18203 C 1705.77 -3.75396 -0.274787 0
M  V30 18204 C 1704.92 -2.73068 0.482613 0
M  V30 18205 H 1707.87 -1.41208 0.724287 0
M  V30 18206 H 1707.89 -3.74416 -0.677722 0
M  V30 18207 H 1707.4 -3.70774 1.14666 0
M  V30 18208 H 1705.5 -3.48837 -1.30933 0
M  V30 18209 H 1705.61 -4.79071 0.0523691 0
M  V30 18210 H 1703.98 -2.54607 -0.0689364 0
M  V30 18211 H 1704.76 -3.08081 1.51463 0
M  V30 18212 N 1707.21 -0.246397 -1.55662 0
M  V30 18213 C 1708.14 0.647563 -2.24341 0
M  V30 18214 C 1709.12 1.1817 -1.22352 0
M  V30 18215 O 1710.3 1.22114 -1.51003 0
M  V30 18216 C 1707.43 1.84485 -2.94249 0
M  V30 18217 C 1706.39 1.4435 -4.02923 0
M  V30 18218 C 1705.71 2.72158 -4.60255 0
M  V30 18219 C 1707.01 0.614951 -5.18667 0
M  V30 18220 H 1708.71 0.0748803 -2.99306 0
M  V30 18221 H 1706.25 0.034575 -1.43958 0
M  V30 18222 H 1708.2 2.47588 -3.40995 0
M  V30 18223 H 1706.93 2.4429 -2.16772 0
M  V30 18224 H 1705.59 0.835811 -3.56945 0
M  V30 18225 H 1705.24 3.3016 -3.79478 0
M  V30 18226 H 1704.94 2.46028 -5.33614 0
M  V30 18227 H 1706.46 3.36161 -5.09734 0
M  V30 18228 H 1707.87 1.15028 -5.61642 0
M  V30 18229 H 1706.27 0.449729 -5.98412 0
M  V30 18230 H 1707.34 -0.372943 -4.83464 0
M  V30 18231 N 1708.68 1.57577 0.026722 0
M  V30 18232 C 1709.65 2.05684 1.01127 0
M  V30 18233 C 1710.65 0.961373 1.28896 0
M  V30 18234 O 1711.84 1.22491 1.23861 0
M  V30 18235 C 1708.97 2.47576 2.34348 0
M  V30 18236 H 1710.16 2.93925 0.595681 0
M  V30 18237 H 1707.71 1.53887 0.273603 0
M  V30 18238 H 1708.45 1.62498 2.80651 0
M  V30 18239 H 1708.23 3.27556 2.15521 0
M  V30 18240 H 1709.72 2.85214 3.05029 0
M  V30 18241 N 1710.16 -0.299034 1.54737 0
M  V30 18242 C 1711.44 -1.05371 1.64792 0
M  V30 18243 C 1711.82 -2.05155 0.497475 0
M  V30 18244 O 1711.17 -2.22837 -0.505573 0
M  V30 18245 C 1711.38 -1.73381 3.02886 0
M  V30 18246 C 1712.72 -2.25506 3.59767 0
M  V30 18247 O 1713.75 -1.8341 3.05351 0
M  V30 18248 O 1712.61 -3.02642 4.55049 0
M  V30 18249 H 1709.7 -0.487156 0.668287 0
M  V30 18250 H 1712.25 -0.296965 1.67081 0
M  V30 18251 H 1711.02 -1.00936 3.78058 0
M  V30 18252 H 1710.64 -2.55806 3.04383 0
M  V30 18253 N 1711.64 -1.47227 -0.562322 0
M  V30 18254 C 1712.89 -1.54801 -1.31941 0
M  V30 18255 C 1713.24 -0.205385 -1.91301 0
M  V30 18256 O 1712.53 0.788343 -1.7463 0
M  V30 18257 C 1712.73 -2.59832 -2.45402 0
M  V30 18258 C 1712.56 -4.04176 -1.97159 0
M  V30 18259 C 1711.33 -4.71679 -1.81236 0
M  V30 18260 C 1713.52 -4.91353 -1.51909 0
M  V30 18261 N 1711.51 -6.00561 -1.27279 0
M  V30 18262 C 1712.88 -6.10221 -1.09683 0
M  V30 18263 C 1714.93 -4.77837 -1.39914 0
M  V30 18264 C 1713.64 -7.17065 -0.566536 0
M  V30 18265 C 1715.66 -5.84773 -0.882863 0
M  V30 18266 C 1715.02 -7.02827 -0.470497 0
M  V30 18267 H 1711.12 -0.621189 -0.475024 0
M  V30 18268 H 1713.71 -1.83951 -0.637987 0
M  V30 18269 H 1711.88 -2.32559 -3.1108 0
M  V30 18270 H 1713.61 -2.5728 -3.12393 0
M  V30 18271 H 1710.36 -4.27508 -2.03798 0
M  V30 18272 H 1710.79 -6.6921 -1.02404 0
M  V30 18273 H 1715.43 -3.86938 -1.70408 0
M  V30 18274 H 1713.15 -8.07716 -0.249209 0
M  V30 18275 H 1716.73 -5.76361 -0.793674 0
M  V30 18276 H 1715.61 -7.84162 -0.0771934 0
M  V30 18277 N 1713.12 0.808639 -1.35273 0
M  V30 18278 C 1714.05 1.93502 -1.30687 0
M  V30 18279 C 1715.03 1.69127 -0.181675 0
M  V30 18280 O 1716.21 1.90519 -0.376312 0
M  V30 18281 C 1713.34 3.30211 -1.07602 0
M  V30 18282 C 1712.3 3.69063 -2.16741 0
M  V30 18283 C 1711.62 5.03911 -1.78824 0
M  V30 18284 C 1712.92 3.79656 -3.5869 0
M  V30 18285 H 1714.62 1.97597 -2.24935 0
M  V30 18286 H 1712.16 0.949284 -1.0828 0
M  V30 18287 H 1714.12 4.0861 -1.03034 0
M  V30 18288 H 1712.84 3.26453 -0.0979944 0
M  V30 18289 H 1711.5 2.92948 -2.20402 0
M  V30 18290 H 1711.15 4.96655 -0.796449 0
M  V30 18291 H 1710.85 5.30877 -2.51881 0
M  V30 18292 H 1712.37 5.84752 -1.75777 0
M  V30 18293 H 1713.79 4.48292 -3.57362 0
M  V30 18294 H 1712.18 4.1809 -4.30489 0
M  V30 18295 H 1713.25 2.81265 -3.94991 0
M  V30 18296 N 1714.6 1.19237 1.03055 0
M  V30 18297 C 1715.53 0.886348 2.11368 0
M  V30 18298 C 1716.54 -0.120256 1.62355 0
M  V30 18299 O 1717.73 0.108934 1.78167 0
M  V30 18300 C 1714.83 0.304819 3.37526 0
M  V30 18301 C 1714 1.35957 4.15734 0
M  V30 18302 C 1713.06 0.791885 5.20207 0
M  V30 18303 O 1712.09 1.46916 5.49913 0
M  V30 18304 N 1713.29 -0.40564 5.79081 0
M  V30 18305 H 1716.06 1.81867 2.38211 0
M  V30 18306 H 1713.62 1.09414 1.19332 0
M  V30 18307 H 1715.61 -0.0887629 4.04603 0
M  V30 18308 H 1714.18 -0.531744 3.08044 0
M  V30 18309 H 1713.4 1.92806 3.43831 0
M  V30 18310 H 1714.69 2.07034 4.64773 0
M  V30 18311 H 1714.08 -0.973423 5.57262 0
M  V30 18312 H 1712.64 -0.741021 6.47574 0
M  V30 18313 N 1716.07 -1.22136 0.99602 0
M  V30 18314 C 1717.02 -2.24178 0.54889 0
M  V30 18315 C 1717.99 -1.60692 -0.420391 0
M  V30 18316 O 1719.18 -1.88021 -0.324452 0
M  V30 18317 C 1716.32 -3.44865 -0.127239 0
M  V30 18318 C 1715.43 -4.22855 0.884153 0
M  V30 18319 C 1714.56 -5.30891 0.181219 0
M  V30 18320 C 1713.6 -6.00603 1.18077 0
M  V30 18321 N 1712.74 -7.00275 0.505927 0
M  V30 18322 H 1717.58 -2.61788 1.42377 0
M  V30 18323 H 1715.12 -1.28658 0.713124 0
M  V30 18324 H 1717.08 -4.1374 -0.536194 0
M  V30 18325 H 1715.71 -3.0801 -0.965892 0
M  V30 18326 H 1714.76 -3.53247 1.41141 0
M  V30 18327 H 1716.07 -4.70888 1.64518 0
M  V30 18328 H 1715.22 -6.06033 -0.284307 0
M  V30 18329 H 1713.96 -4.83841 -0.612289 0
M  V30 18330 H 1712.97 -5.2424 1.65689 0
M  V30 18331 H 1714.19 -6.4974 1.9752 0
M  V30 18332 H 1712.14 -6.55452 -0.268088 0
M  V30 18333 H 1712.06 -7.46329 1.20535 0
M  V30 18334 H 1713.32 -7.79474 0.0633069 0
M  V30 18335 N 1717.55 -0.769612 -1.37531 0
M  V30 18336 C 1718.5 -0.128018 -2.2764 0
M  V30 18337 C 1719.49 0.67633 -1.45995 0
M  V30 18338 O 1720.68 0.539654 -1.68573 0
M  V30 18339 C 1717.81 0.751936 -3.34964 0
M  V30 18340 C 1716.89 -0.0601264 -4.24057 0
M  V30 18341 N 1717.28 -1.10468 -4.93589 0
M  V30 18342 C 1715.58 0.164189 -4.45698 0
M  V30 18343 C 1716.28 -1.59737 -5.59338 0
M  V30 18344 N 1715.26 -0.909912 -5.35931 0
M  V30 18345 H 1719.06 -0.927797 -2.78871 0
M  V30 18346 H 1716.58 -0.607165 -1.50623 0
M  V30 18347 H 1718.57 1.22733 -3.98425 0
M  V30 18348 H 1717.23 1.55049 -2.85289 0
M  V30 18349 H 1718.24 -1.48679 -4.961 0
M  V30 18350 H 1714.92 0.934815 -4.069 0
M  V30 18351 H 1716.31 -2.46835 -6.24918 0
M  V30 18352 N 1719.03 1.48775 -0.519977 0
M  V30 18353 C 1719.98 2.31123 0.261738 0
M  V30 18354 C 1720.97 1.40595 0.94496 0
M  V30 18355 O 1722.18 1.57552 0.870484 0
M  V30 18356 H 1718.55 0.744875 0.103272 0
M  V30 18357 H 1720.52 2.94949 -0.452514 0
M  V30 18358 C 1719.27 3.22409 1.30184 0
M  V30 18359 H 1718.6 3.92007 0.785524 0
M  V30 18360 H 1720.04 3.82932 1.82042 0
M  V30 18361 C 1718.5 2.43321 2.33016 0
M  V30 18362 O 1719.03 2.15087 3.39265 0
M  V30 18363 N 1717.23 2.04998 2.05971 0
M  V30 18364 H 1716.78 2.2816 1.19586 0
M  V30 18365 H 1716.74 1.52393 2.74998 0
M  V30 18366 N 1720.51 0.254649 1.55529 0
M  V30 18367 C 1721.92 -0.247042 1.85058 0
M  V30 18368 C 1722.27 -1.57009 1.17655 0
M  V30 18369 O 1721.4 -2.11506 0.457638 0
M  V30 18370 C 1721.99 -0.455017 3.35731 0
M  V30 18371 C 1720.55 -0.900961 3.65458 0
M  V30 18372 C 1719.7 0.0174436 2.77295 0
M  V30 18373 H 1722.65 0.477005 1.51362 0
M  V30 18374 H 1722.67 -1.29654 3.57729 0
M  V30 18375 H 1722.18 0.508076 3.8476 0
M  V30 18376 H 1720.28 -1.87625 3.21913 0
M  V30 18377 H 1720.39 -0.752458 4.73154 0
M  V30 18378 H 1718.76 -0.495296 2.49838 0
M  V30 18379 H 1719.54 0.976049 3.29132 0
M  V30 18380 N 1721.99 -1.57589 -0.0183649 0
M  V30 18381 C 1723.23 -1.89382 -0.705612 0
M  V30 18382 C 1723.56 -0.853698 -1.7532 0
M  V30 18383 O 1722.83 0.111322 -1.95583 0
M  V30 18384 H 1721.41 -0.698943 -0.263605 0
M  V30 18385 H 1724.07 -1.94891 0.0182168 0
M  V30 18386 H 1723.16 -2.88587 -1.18845 0
M  V30 18387 N 1723.46 0.290824 -1.54893 0
M  V30 18388 C 1724.37 1.38137 -1.89619 0
M  V30 18389 C 1725.39 1.54959 -0.791432 0
M  V30 18390 O 1726.57 1.69428 -1.08885 0
M  V30 18391 C 1723.63 2.72353 -2.14534 0
M  V30 18392 C 1722.69 2.64429 -3.38195 0
M  V30 18393 C 1721.93 3.92244 -3.61912 0
M  V30 18394 O 1722.15 4.92088 -2.88454 0
M  V30 18395 O 1721.08 3.93523 -4.55438 0
M  V30 18396 H 1724.91 1.11688 -2.82417 0
M  V30 18397 H 1722.49 0.487789 -1.41213 0
M  V30 18398 H 1724.38 3.51745 -2.32064 0
M  V30 18399 H 1723.05 2.98624 -1.24921 0
M  V30 18400 H 1721.96 1.83474 -3.26018 0
M  V30 18401 H 1723.29 2.43109 -4.2797 0
M  V30 18402 N 1724.94 1.47523 0.554506 0
M  V30 18403 C 1726.22 1.44768 1.31535 0
M  V30 18404 C 1726.6 0.146082 2.10594 0
M  V30 18405 O 1725.95 -0.872415 2.1119 0
M  V30 18406 C 1726.16 2.69489 2.21758 0
M  V30 18407 C 1727.51 3.16814 2.82691 0
M  V30 18408 O 1728.53 2.70235 2.32059 0
M  V30 18409 O 1727.39 3.97798 3.74725 0
M  V30 18410 H 1724.48 0.577042 0.592412 0
M  V30 18411 H 1727.03 1.59727 0.573186 0
M  V30 18412 H 1725.8 3.55753 1.62958 0
M  V30 18413 H 1725.42 2.5713 3.03266 0
M  V30 18414 N 1726.42 -0.801453 1.357 0
M  V30 18415 C 1727.33 -1.94505 1.31167 0
M  V30 18416 C 1728.35 -1.72657 0.215747 0
M  V30 18417 O 1729.52 -1.96399 0.446022 0
M  V30 18418 C 1726.59 -3.29175 1.08834 0
M  V30 18419 C 1725.65 -3.63883 2.27788 0
M  V30 18420 C 1724.88 -4.92127 2.06511 0
M  V30 18421 O 1725.1 -5.60947 1.03416 0
M  V30 18422 O 1724.04 -5.25213 2.93998 0
M  V30 18423 H 1727.86 -2.01277 2.27423 0
M  V30 18424 H 1725.45 -0.939979 1.16124 0
M  V30 18425 H 1727.33 -4.09787 0.98248 0
M  V30 18426 H 1726.01 -3.23322 0.156326 0
M  V30 18427 H 1724.91 -2.83627 2.4394 0
M  V30 18428 H 1726.25 -3.74446 3.19454 0
M  V30 18429 N 1727.9 -1.19782 -1.02421 0
M  V30 18430 C 1729.13 -1.02721 -1.79254 0
M  V30 18431 C 1729.54 0.426969 -1.84319 0
M  V30 18432 O 1728.88 1.30832 -1.28953 0
M  V30 18433 C 1728.94 -1.52594 -3.25508 0
M  V30 18434 C 1728.61 -3.00778 -3.44066 0
M  V30 18435 C 1729.6 -3.98502 -3.33905 0
M  V30 18436 C 1727.29 -3.39572 -3.7013 0
M  V30 18437 C 1729.28 -5.33012 -3.49539 0
M  V30 18438 C 1726.97 -4.7424 -3.85408 0
M  V30 18439 C 1727.97 -5.70769 -3.75116 0
M  V30 18440 O 1727.65 -7.02997 -3.89937 0
M  V30 18441 H 1727.39 -0.362151 -0.570808 0
M  V30 18442 H 1729.94 -1.5914 -1.2986 0
M  V30 18443 H 1728.17 -0.90555 -3.75948 0
M  V30 18444 H 1729.86 -1.31671 -3.8395 0
M  V30 18445 H 1730.63 -3.69875 -3.13715 0
M  V30 18446 H 1726.5 -2.64986 -3.77231 0
M  V30 18447 H 1730.05 -6.0834 -3.41421 0
M  V30 18448 H 1725.95 -5.02561 -4.05096 0
M  V30 18449 H 1726.71 -7.10136 -4.07 0
M  V30 18450 N 1729.38 1.21606 -1.00248 0
M  V30 18451 C 1730.29 2.2757 -0.570004 0
M  V30 18452 C 1731.3 1.69669 0.385788 0
M  V30 18453 O 1732.48 1.99839 0.250246 0
M  V30 18454 C 1729.54 3.46558 0.0990566 0
M  V30 18455 C 1728.61 4.19741 -0.9009 0
M  V30 18456 C 1727.84 5.33048 -0.263673 0
M  V30 18457 O 1728.06 5.62599 0.940131 0
M  V30 18458 O 1727 5.93978 -0.973342 0
M  V30 18459 H 1730.82 2.66751 -1.45182 0
M  V30 18460 H 1728.41 1.27955 -0.771224 0
M  V30 18461 H 1730.29 4.18733 0.47339 0
M  V30 18462 H 1728.96 3.09283 0.955285 0
M  V30 18463 H 1727.87 3.49798 -1.32634 0
M  V30 18464 H 1729.2 4.60921 -1.72664 0
M  V30 18465 N 1730.86 0.776895 1.37121 0
M  V30 18466 C 1731.8 0.164838 2.30211 0
M  V30 18467 C 1732.77 -0.684137 1.51356 0
M  V30 18468 O 1733.96 -0.635428 1.79908 0
M  V30 18469 C 1731.1 -0.704263 3.37837 0
M  V30 18470 C 1730.21 0.161881 4.31697 0
M  V30 18471 C 1729.35 -0.712411 5.26401 0
M  V30 18472 C 1728.38 0.155953 6.11901 0
M  V30 18473 N 1727.52 -0.676607 6.98832 0
M  V30 18474 H 1732.36 0.964185 2.81971 0
M  V30 18475 H 1729.9 0.487065 1.38802 0
M  V30 18476 H 1731.86 -1.22302 3.98871 0
M  V30 18477 H 1730.49 -1.46916 2.87429 0
M  V30 18478 H 1729.54 0.798491 3.71925 0
M  V30 18479 H 1730.85 0.831496 4.91821 0
M  V30 18480 H 1730 -1.29745 5.92664 0
M  V30 18481 H 1728.74 -1.41569 4.66701 0
M  V30 18482 H 1727.75 0.753493 5.44612 0
M  V30 18483 H 1728.97 0.856645 6.73675 0
M  V30 18484 H 1726.92 -1.36441 6.41654 0
M  V30 18485 H 1726.84 -0.0644017 7.55973 0
M  V30 18486 H 1728.1 -1.24588 7.69479 0
M  V30 18487 N 1732.33 -1.48497 0.527859 0
M  V30 18488 C 1733.3 -2.2809 -0.225312 0
M  V30 18489 C 1734.3 -1.35251 -0.869707 0
M  V30 18490 O 1735.49 -1.58163 -0.730086 0
M  V30 18491 C 1732.62 -3.14061 -1.32584 0
M  V30 18492 H 1733.81 -2.96139 0.473465 0
M  V30 18493 H 1731.36 -1.53703 0.283724 0
M  V30 18494 H 1732.1 -2.50638 -2.05794 0
M  V30 18495 H 1731.88 -3.82351 -0.868922 0
M  V30 18496 H 1733.37 -3.74106 -1.85566 0
M  V30 18497 N 1733.81 -0.262893 -1.55392 0
M  V30 18498 C 1735.06 0.357895 -1.99617 0
M  V30 18499 C 1735.39 1.56415 -1.151 0
M  V30 18500 O 1734.67 1.93273 -0.218139 0
M  V30 18501 C 1734.95 0.752095 -3.52158 0
M  V30 18502 C 1734.8 -0.460658 -4.47435 0
M  V30 18503 C 1736.12 1.59314 -4.10253 0
M  V30 18504 H 1733.24 0.128612 -0.725691 0
M  V30 18505 H 1735.88 -0.367399 -1.86414 0
M  V30 18506 H 1734.03 1.37006 -3.6354 0
M  V30 18507 H 1735.7 -1.09918 -4.48013 0
M  V30 18508 H 1733.95 -1.10093 -4.19597 0
M  V30 18509 H 1734.62 -0.141262 -5.51819 0
M  V30 18510 H 1737.09 1.07135 -4.02071 0
M  V30 18511 H 1735.97 1.83779 -5.1722 0
M  V30 18512 H 1736.23 2.57022 -3.59711 0
M  V30 18513 N 1735.29 1.57597 0.0100073 0
M  V30 18514 C 1736.2 2.11209 1.02117 0
M  V30 18515 C 1737.22 1.05503 1.38366 0
M  V30 18516 O 1738.39 1.37348 1.47301 0
M  V30 18517 C 1735.46 2.59654 2.2974 0
M  V30 18518 C 1734.52 3.79921 1.99896 0
M  V30 18519 C 1733.75 4.26046 3.21435 0
M  V30 18520 O 1733.97 3.71566 4.32775 0
M  V30 18521 O 1732.91 5.18301 3.06018 0
M  V30 18522 H 1736.73 2.97805 0.595469 0
M  V30 18523 H 1734.32 1.47647 0.228208 0
M  V30 18524 H 1736.2 2.91058 3.04735 0
M  V30 18525 H 1734.88 1.76161 2.71568 0
M  V30 18526 H 1733.78 3.53506 1.22409 0
M  V30 18527 H 1735.12 4.64457 1.62912 0
M  V30 18528 N 1736.77 -0.282606 1.55045 0
M  V30 18529 C 1737.72 -1.36902 1.88044 0
M  V30 18530 C 1738.71 -1.51603 0.755845 0
M  V30 18531 O 1739.92 -1.53501 0.940074 0
M  V30 18532 H 1736.29 -0.457666 0.596696 0
M  V30 18533 H 1738.26 -1.06317 2.78818 0
M  V30 18534 C 1737.01 -2.72426 2.16054 0
M  V30 18535 H 1736.33 -2.61903 3.02071 0
M  V30 18536 H 1737.77 -3.47409 2.43071 0
M  V30 18537 C 1736.23 -3.22784 0.964996 0
M  V30 18538 O 1736.76 -4.01228 0.194759 0
M  V30 18539 N 1734.97 -2.80341 0.765322 0
M  V30 18540 H 1734.52 -2.16665 1.39335 0
M  V30 18541 H 1734.47 -3.14383 -0.0330026 0
M  V30 18542 N 1738.25 -1.47815 -0.546675 0
M  V30 18543 C 1739.49 -1.5498 -1.30336 0
M  V30 18544 C 1739.82 -0.216533 -1.93291 0
M  V30 18545 O 1739.08 0.791622 -1.78974 0
M  V30 18546 C 1739.37 -2.6242 -2.42632 0
M  V30 18547 C 1739.04 -4.05375 -1.97439 0
M  V30 18548 C 1737.7 -4.44287 -1.84831 0
M  V30 18549 C 1740.05 -4.9503 -1.6308 0
M  V30 18550 C 1737.38 -5.70678 -1.36174 0
M  V30 18551 C 1739.73 -6.21894 -1.1589 0
M  V30 18552 C 1738.4 -6.59678 -1.01886 0
M  V30 18553 H 1737.67 -0.567112 -0.476933 0
M  V30 18554 H 1740.32 -1.81461 -0.611907 0
M  V30 18555 H 1738.62 -2.29736 -3.17378 0
M  V30 18556 H 1740.32 -2.65184 -3.00796 0
M  V30 18557 H 1736.91 -3.74635 -2.08199 0
M  V30 18558 H 1741.09 -4.65657 -1.71689 0
M  V30 18559 H 1736.35 -5.98693 -1.24004 0
M  V30 18560 H 1740.52 -6.9077 -0.883691 0
M  V30 18561 H 1738.15 -7.57504 -0.639614 0
M  V30 18562 N 1739.72 0.794246 -1.36123 0
M  V30 18563 C 1740.97 1.54708 -1.29416 0
M  V30 18564 C 1741.29 1.95195 0.125849 0
M  V30 18565 O 1742.49 2.69663 0.315271 0
M  V30 18566 C 1740.95 2.79256 -2.27034 0
M  V30 18567 C 1740.56 2.45957 -3.74445 0
M  V30 18568 C 1742.3 3.57246 -2.29294 0
M  V30 18569 C 1740.21 3.66871 -4.63853 0
M  V30 18570 H 1739.14 0.580743 -0.480888 0
M  V30 18571 H 1741.79 0.871975 -1.61458 0
M  V30 18572 H 1740.17 3.4854 -1.87979 0
M  V30 18573 H 1741.34 1.846 -4.22208 0
M  V30 18574 H 1739.66 1.81187 -3.74913 0
M  V30 18575 H 1742.26 4.47076 -2.93304 0
M  V30 18576 H 1742.6 3.95478 -1.30011 0
M  V30 18577 H 1743.13 2.94936 -2.66941 0
M  V30 18578 H 1739.87 3.33739 -5.6418 0
M  V30 18579 H 1739.39 4.27411 -4.20809 0
M  V30 18580 H 1741.07 4.33957 -4.79886 0
M  V30 18581 N 1741.2 1.20323 1.01785 0
M  V30 18582 C 1742.43 1.03671 1.78706 0
M  V30 18583 C 1742.84 -0.417188 1.84543 0
M  V30 18584 O 1742.18 -1.30146 1.29645 0
M  V30 18585 C 1742.24 1.54318 3.24694 0
M  V30 18586 C 1741.91 3.02598 3.42466 0
M  V30 18587 C 1742.91 4.00267 3.31787 0
M  V30 18588 C 1740.59 3.41531 3.68323 0
M  V30 18589 C 1742.58 5.34858 3.46707 0
M  V30 18590 C 1740.27 4.76278 3.82887 0
M  V30 18591 C 1741.27 5.7275 3.72083 0
M  V30 18592 O 1740.96 7.05055 3.86203 0
M  V30 18593 H 1740.69 0.365174 0.56888 0
M  V30 18594 H 1743.24 1.59826 1.29014 0
M  V30 18595 H 1741.47 0.925474 3.75462 0
M  V30 18596 H 1743.16 1.33705 3.83246 0
M  V30 18597 H 1743.93 3.71534 3.11749 0
M  V30 18598 H 1739.81 2.66983 3.75821 0
M  V30 18599 H 1743.35 6.10142 3.3819 0
M  V30 18600 H 1739.25 5.04702 4.02425 0
M  V30 18601 H 1740.02 7.12284 4.03228 0
M  V30 18602 N 1742.68 -1.21073 1.00892 0
M  V30 18603 C 1743.9 -1.94774 0.712588 0
M  V30 18604 C 1744.33 -1.73812 -0.719085 0
M  V30 18605 O 1743.69 -1.02747 -1.49374 0
M  V30 18606 C 1743.74 -3.45156 1.04402 0
M  V30 18607 O 1742.84 -4.12122 0.151433 0
M  V30 18608 H 1742.18 -0.608775 0.26512 0
M  V30 18609 H 1744.71 -1.53721 1.35022 0
M  V30 18610 H 1744.72 -3.95744 0.992511 0
M  V30 18611 H 1743.4 -3.59736 2.08716 0
M  V30 18612 H 1741.97 -3.71994 0.259805 0
M  V30 18613 N 1744.16 -0.784156 -1.36707 0
M  V30 18614 C 1745.4 -0.359468 -2.01214 0
M  V30 18615 C 1745.76 1.04773 -1.60893 0
M  V30 18616 O 1746.96 1.57321 -2.17953 0
M  V30 18617 C 1745.23 -0.512117 -3.53712 0
M  V30 18618 S 1746.79 -0.174528 -4.38453 0
M  V30 18619 H 1743.61 -0.137618 -0.697555 0
M  V30 18620 H 1746.21 -1.02149 -1.66691 0
M  V30 18621 H 1744.92 -1.53667 -3.80545 0
M  V30 18622 H 1744.45 0.166027 -3.9305 0
M  V30 18623 H 1746.46 1.02572 -4.85483 0
M  V30 18624 N 1745.64 1.48215 -0.535727 0
M  V30 18625 C 1746.6 2.28206 0.213212 0
M  V30 18626 C 1747.6 1.3571 0.862522 0
M  V30 18627 O 1748.79 1.58547 0.721688 0
M  V30 18628 C 1745.92 3.1476 1.30917 0
M  V30 18629 H 1747.11 2.95884 -0.489163 0
M  V30 18630 H 1744.67 1.53551 -0.291872 0
M  V30 18631 H 1745.4 2.51726 2.04462 0
M  V30 18632 H 1745.19 3.82806 0.848633 0
M  V30 18633 H 1746.68 3.75085 1.83579 0
M  V30 18634 N 1747.11 0.27113 1.5525 0
M  V30 18635 C 1748.36 -0.346106 1.99114 0
M  V30 18636 C 1748.68 -1.56677 1.16092 0
M  V30 18637 O 1747.95 -1.94305 0.249472 0
M  V30 18638 H 1746.53 -0.13087 0.735447 0
M  V30 18639 H 1749.2 0.375542 1.91248 0
M  V30 18640 H 1748.29 -0.638703 3.05495 0
M  V30 18641 N 1748.59 -1.576 -0.00164943 0
M  V30 18642 C 1749.83 -1.92353 -0.691364 0
M  V30 18643 C 1750.2 -0.872536 -1.71029 0
M  V30 18644 O 1751.4 -1.10526 -2.45026 0
M  V30 18645 C 1749.67 -3.32163 -1.31918 0
M  V30 18646 S 1751.23 -3.88798 -2.03425 0
M  V30 18647 H 1748.05 -0.673314 -0.228407 0
M  V30 18648 H 1750.65 -1.95424 0.0546418 0
M  V30 18649 H 1749.35 -4.06496 -0.564746 0
M  V30 18650 H 1748.88 -3.32462 -2.10316 0
M  V30 18651 H 1750.9 -3.6974 -3.30918 0
M  V30 18652 N 1750.07 0.274379 -1.55193 0
M  V30 18653 C 1751.31 1.01383 -1.77485 0
M  V30 18654 C 1751.67 1.83549 -0.563373 0
M  V30 18655 O 1752.88 2.60457 -0.664517 0
M  V30 18656 C 1751.15 1.87414 -3.0432 0
M  V30 18657 S 1752.71 2.67644 -3.47725 0
M  V30 18658 H 1749.52 0.341489 -0.623623 0
M  V30 18659 H 1752.13 0.284398 -1.9342 0
M  V30 18660 H 1750.83 1.25974 -3.90588 0
M  V30 18661 H 1750.36 2.6468 -2.91046 0
M  V30 18662 H 1752.38 3.89914 -3.06889 0
M  V30 18663 N 1751.55 1.48103 0.538828 0
M  V30 18664 C 1752.79 1.559 1.29704 0
M  V30 18665 C 1753.13 0.228359 1.92853 0
M  V30 18666 O 1752.4 -0.764825 1.78831 0
M  V30 18667 C 1752.69 2.69072 2.39316 0
M  V30 18668 C 1752.54 4.11812 1.80916 0
M  V30 18669 C 1753.86 2.78051 3.41138 0
M  V30 18670 H 1750.98 0.5675 0.470226 0
M  V30 18671 H 1753.62 1.80239 0.601163 0
M  V30 18672 H 1751.77 2.4845 2.98672 0
M  V30 18673 H 1753.44 4.4385 1.25679 0
M  V30 18674 H 1751.68 4.19227 1.11494 0
M  V30 18675 H 1752.35 4.86805 2.6024 0
M  V30 18676 H 1754.83 2.96707 2.91726 0
M  V30 18677 H 1753.71 3.58982 4.15239 0
M  V30 18678 H 1753.97 1.85849 4.01139 0
M  V30 18679 N 1753.03 -0.787016 1.36542 0
M  V30 18680 C 1753.99 -1.88136 1.3091 0
M  V30 18681 C 1754.99 -1.59339 0.216292 0
M  V30 18682 O 1756.18 -1.67706 0.471222 0
M  V30 18683 C 1753.31 -3.24969 1.02994 0
M  V30 18684 H 1754.5 -1.94546 2.28237 0
M  V30 18685 H 1752.06 -0.985084 1.2135 0
M  V30 18686 H 1752.79 -3.24242 0.0613497 0
M  V30 18687 H 1752.58 -3.47261 1.82078 0
M  V30 18688 H 1754.07 -4.05036 1.01664 0
M  V30 18689 N 1754.5 -1.20861 -1.01145 0
M  V30 18690 C 1755.73 -1.04769 -1.78413 0
M  V30 18691 C 1756.15 0.402846 -1.84452 0
M  V30 18692 O 1755.5 1.27962 -1.30123 0
M  V30 18693 C 1755.56 -1.63065 -3.22633 0
M  V30 18694 O 1755.28 -3.02443 -3.16954 0
M  V30 18695 C 1756.78 -1.51996 -4.16428 0
M  V30 18696 H 1754 -0.368271 -0.560908 0
M  V30 18697 H 1756.54 -1.6006 -1.27283 0
M  V30 18698 H 1754.7 -1.11882 -3.70892 0
M  V30 18699 H 1755.11 -3.30199 -4.07515 0
M  V30 18700 H 1756.58 -1.97539 -5.15444 0
M  V30 18701 H 1757.06 -0.473305 -4.36642 0
M  V30 18702 H 1757.67 -2.02396 -3.74054 0
M  V30 18703 N 1755.98 1.20536 -1.01532 0
M  V30 18704 C 1757.21 1.93571 -0.722055 0
M  V30 18705 C 1757.62 1.74923 0.721011 0
M  V30 18706 O 1756.96 1.05961 1.5006 0
M  V30 18707 C 1757.03 3.45989 -0.97632 0
M  V30 18708 C 1756.69 3.88397 -2.40825 0
M  V30 18709 C 1757.69 3.94262 -3.38901 0
M  V30 18710 C 1755.37 4.20422 -2.74865 0
M  V30 18711 C 1757.37 4.3156 -4.69078 0
M  V30 18712 C 1755.05 4.57395 -4.05256 0
M  V30 18713 C 1756.05 4.62937 -5.02174 0
M  V30 18714 O 1755.74 4.99063 -6.30232 0
M  V30 18715 H 1755.47 0.622101 -0.264511 0
M  V30 18716 H 1758.02 1.5401 -1.35905 0
M  V30 18717 H 1756.25 3.85669 -0.282161 0
M  V30 18718 H 1757.94 4.00251 -0.674832 0
M  V30 18719 H 1758.71 3.69686 -3.13938 0
M  V30 18720 H 1754.59 4.153 -2.00117 0
M  V30 18721 H 1758.13 4.358 -5.44724 0
M  V30 18722 H 1754.03 4.81427 -4.29998 0
M  V30 18723 H 1754.8 5.1706 -6.34501 0
M  V30 18724 N 1757.46 0.791395 1.36289 0
M  V30 18725 C 1758.71 0.365242 1.99484 0
M  V30 18726 C 1759.04 -1.06087 1.62663 0
M  V30 18727 O 1758.31 -1.73332 0.882396 0
M  V30 18728 C 1758.6 0.531317 3.56159 0
M  V30 18729 C 1758.45 2.00126 4.02827 0
M  V30 18730 C 1759.77 -0.0524248 4.40069 0
M  V30 18731 H 1756.89 0.134183 0.724682 0
M  V30 18732 H 1759.53 0.998102 1.61672 0
M  V30 18733 H 1757.68 -0.0074293 3.88499 0
M  V30 18734 H 1759.35 2.60122 3.80965 0
M  V30 18735 H 1757.6 2.50316 3.54294 0
M  V30 18736 H 1758.27 2.06842 5.11782 0
M  V30 18737 H 1760.74 0.407489 4.141 0
M  V30 18738 H 1759.62 0.0937898 5.4882 0
M  V30 18739 H 1759.88 -1.14472 4.27023 0
M  V30 18740 N 1758.94 -1.47929 0.54358 0
M  V30 18741 C 1759.87 -2.3264 -0.200228 0
M  V30 18742 C 1760.85 -1.42945 -0.922 0
M  V30 18743 O 1762.04 -1.71817 -0.905129 0
M  V30 18744 C 1759.17 -3.24439 -1.23922 0
M  V30 18745 C 1758.12 -4.23267 -0.634753 0
M  V30 18746 C 1757.45 -5.04295 -1.77739 0
M  V30 18747 C 1758.75 -5.20747 0.402524 0
M  V30 18748 H 1760.44 -2.95077 0.506957 0
M  V30 18749 H 1757.99 -1.41896 0.245246 0
M  V30 18750 H 1759.94 -3.82535 -1.76763 0
M  V30 18751 H 1758.66 -2.60029 -1.97616 0
M  V30 18752 H 1757.32 -3.66377 -0.127756 0
M  V30 18753 H 1756.97 -4.36299 -2.50304 0
M  V30 18754 H 1756.67 -5.71195 -1.37879 0
M  V30 18755 H 1758.19 -5.65246 -2.30932 0
M  V30 18756 H 1759.61 -5.73287 -0.039305 0
M  V30 18757 H 1758 -5.95774 0.719251 0
M  V30 18758 H 1759.07 -4.67054 1.3034 0
M  V30 18759 N 1760.42 -0.27936 -1.55104 0
M  V30 18760 C 1761.67 0.335541 -1.99295 0
M  V30 18761 C 1761.99 1.56059 -1.16921 0
M  V30 18762 O 1761.26 1.9417 -0.259773 0
M  V30 18763 H 1759.84 0.126968 -0.736131 0
M  V30 18764 H 1762.5 -0.385679 -1.91046 0
M  V30 18765 H 1761.59 0.622493 -3.05829 0
M  V30 18766 N 1761.9 1.57599 -0.0067085 0
M  V30 18767 C 1763.14 1.90036 0.675957 0
M  V30 18768 C 1763.46 0.882449 1.74563 0
M  V30 18769 O 1764.66 1.09728 2.48339 0
M  V30 18770 C 1763.12 3.37366 1.25349 0
M  V30 18771 C 1762.73 4.47468 0.218284 0
M  V30 18772 C 1764.47 3.78904 1.91396 0
M  V30 18773 C 1762.38 5.85879 0.806182 0
M  V30 18774 H 1761.31 0.709125 0.256237 0
M  V30 18775 H 1763.96 1.83373 -0.0683502 0
M  V30 18776 H 1762.34 3.38888 2.04868 0
M  V30 18777 H 1763.52 4.57472 -0.552808 0
M  V30 18778 H 1761.83 4.14992 -0.342131 0
M  V30 18779 H 1764.43 4.79654 2.36297 0
M  V30 18780 H 1764.77 3.12773 2.74734 0
M  V30 18781 H 1765.3 3.79709 1.186 0
M  V30 18782 H 1762.04 6.55499 0.0114275 0
M  V30 18783 H 1761.56 5.79526 1.54628 0
M  V30 18784 H 1763.24 6.33748 1.30278 0
M  V30 18785 N 1763.37 -0.266145 1.55336 0
M  V30 18786 C 1764.61 -1.0044 1.7802 0
M  V30 18787 C 1764.98 -1.83247 0.573099 0
M  V30 18788 O 1766.18 -2.601 0.67832 0
M  V30 18789 C 1764.45 -1.85798 3.05309 0
M  V30 18790 S 1766.01 -2.65796 3.49139 0
M  V30 18791 H 1762.83 -0.338177 0.625426 0
M  V30 18792 H 1765.43 -0.274137 1.93568 0
M  V30 18793 H 1764.13 -1.23901 3.9125 0
M  V30 18794 H 1763.66 -2.63133 2.92446 0
M  V30 18795 H 1765.68 -3.88281 3.08953 0
M  V30 18796 N 1764.85 -1.48386 -0.530967 0
M  V30 18797 C 1766.13 -1.46843 -1.29215 0
M  V30 18798 C 1766.51 -0.179567 -2.10335 0
M  V30 18799 O 1765.86 0.838706 -2.12551 0
M  V30 18800 C 1766.07 -2.72983 -2.17443 0
M  V30 18801 C 1767.41 -3.21271 -2.77615 0
M  V30 18802 O 1768.44 -2.73893 -2.2773 0
M  V30 18803 O 1767.3 -4.03709 -3.68349 0
M  V30 18804 H 1764.39 -0.586393 -0.583157 0
M  V30 18805 H 1766.94 -1.60619 -0.547702 0
M  V30 18806 H 1765.71 -3.58301 -1.57278 0
M  V30 18807 H 1765.33 -2.61922 -2.99137 0
M  V30 18808 N 1766.33 0.779763 -1.36958 0
M  V30 18809 C 1767.75 1.07919 -1.17582 0
M  V30 18810 C 1767.95 2.01499 -0.00649229 0
M  V30 18811 O 1767 2.43832 0.655905 0
M  V30 18812 C 1768.31 1.68439 -2.49096 0
M  V30 18813 C 1769.86 1.80735 -2.55546 0
M  V30 18814 C 1770.34 2.44669 -3.87171 0
M  V30 18815 N 1771.83 2.52127 -3.88569 0
M  V30 18816 C 1772.56 3.02429 -4.87159 0
M  V30 18817 N 1772.06 3.52964 -5.96144 0
M  V30 18818 N 1773.85 3.0123 -4.7457 0
M  V30 18819 H 1766 0.158249 -2.1181 0
M  V30 18820 H 1768.27 0.132826 -0.938649 0
M  V30 18821 H 1767.97 1.07147 -3.34981 0
M  V30 18822 H 1767.85 2.67832 -2.65604 0
M  V30 18823 H 1770.23 2.41162 -1.70073 0
M  V30 18824 H 1770.31 0.801199 -2.42929 0
M  V30 18825 H 1769.96 1.84883 -4.73055 0
M  V30 18826 H 1769.89 3.45874 -3.97088 0
M  V30 18827 H 1772.38 2.16355 -3.09837 0
M  V30 18828 H 1772.69 3.89725 -6.67334 0
M  V30 18829 H 1771.04 3.5109 -5.998 0
M  V30 18830 H 1774.23 2.61045 -3.88553 0
M  V30 18831 H 1774.4 3.40122 -5.51562 0
M  V30 18832 N 1767.81 1.21396 1.00503 0
M  V30 18833 C 1768.76 0.940669 2.07691 0
M  V30 18834 C 1769.74 -0.104065 1.60563 0
M  V30 18835 O 1770.93 0.104861 1.76689 0
M  V30 18836 C 1768.06 0.507176 3.39533 0
M  V30 18837 C 1767.15 1.58598 3.93329 0
M  V30 18838 N 1767.54 2.81104 4.20493 0
M  V30 18839 C 1765.84 1.45484 4.21605 0
M  V30 18840 C 1766.54 3.50775 4.64038 0
M  V30 18841 N 1765.51 2.78214 4.67009 0
M  V30 18842 H 1769.32 1.87141 2.26617 0
M  V30 18843 H 1766.83 1.10969 1.18574 0
M  V30 18844 H 1768.83 0.292749 4.15871 0
M  V30 18845 H 1767.49 -0.416806 3.22014 0
M  V30 18846 H 1768.5 3.17647 4.09049 0
M  V30 18847 H 1765.18 0.596142 4.13222 0
M  V30 18848 H 1766.57 4.55667 4.93779 0
M  V30 18849 N 1769.29 -1.19996 1.0217 0
M  V30 18850 C 1770.23 -2.25 0.589726 0
M  V30 18851 C 1771.23 -1.65218 -0.374086 0
M  V30 18852 O 1772.43 -1.78346 -0.243449 0
M  V30 18853 H 1768.81 -0.731968 0.172416 0
M  V30 18854 H 1770.78 -2.58759 1.48615 0
M  V30 18855 C 1769.53 -3.47663 -0.0509896 0
M  V30 18856 H 1768.85 -3.93946 0.681649 0
M  V30 18857 H 1770.29 -4.22819 -0.316287 0
M  V30 18858 C 1768.75 -3.11001 -1.29538 0
M  V30 18859 O 1769.28 -3.23 -2.38818 0
M  V30 18860 N 1767.49 -2.65502 -1.18141 0
M  V30 18861 H 1767.03 -2.55938 -0.292172 0
M  V30 18862 H 1766.99 -2.41342 -2.01498 0
M  V30 18863 N 1770.76 -0.798611 -1.35867 0
M  V30 18864 C 1772.04 -0.298858 -1.93303 0
M  V30 18865 C 1772.42 1.21038 -1.72954 0
M  V30 18866 O 1771.77 2.00617 -1.09386 0
M  V30 18867 C 1771.98 -0.701532 -3.41876 0
M  V30 18868 C 1773.33 -0.686486 -4.19014 0
M  V30 18869 O 1774.35 -0.642577 -3.50356 0
M  V30 18870 O 1773.21 -0.737653 -5.41499 0
M  V30 18871 H 1770.3 -0.0762987 -0.823473 0
M  V30 18872 H 1772.85 -0.881773 -1.44993 0
M  V30 18873 H 1771.62 -1.74204 -3.50383 0
M  V30 18874 H 1771.24 -0.092994 -3.97491 0
M  V30 18875 N 1772.24 1.47639 -0.551417 0
M  V30 18876 C 1773.19 2.31626 0.212654 0
M  V30 18877 C 1774.18 1.42567 0.914925 0
M  V30 18878 O 1775.39 1.59363 0.836869 0
M  V30 18879 H 1771.76 0.746898 0.0874493 0
M  V30 18880 H 1773.74 2.93923 -0.514976 0
M  V30 18881 C 1772.48 3.25098 1.23316 0
M  V30 18882 H 1771.81 3.93585 0.702196 0
M  V30 18883 H 1773.25 3.86707 1.73878 0
M  V30 18884 C 1771.71 2.48209 2.27802 0
M  V30 18885 O 1772.24 2.22235 3.34626 0
M  V30 18886 N 1770.44 2.09321 2.01577 0
M  V30 18887 H 1769.99 2.30645 1.14719 0
M  V30 18888 H 1769.95 1.58191 2.71704 0
M  V30 18889 N 1773.72 0.287581 1.54954 0
M  V30 18890 C 1774.97 -0.326315 1.99043 0
M  V30 18891 C 1775.28 -1.56033 1.17954 0
M  V30 18892 O 1776.49 -2.24797 1.52246 0
M  V30 18893 C 1774.94 -0.631918 3.54309 0
M  V30 18894 C 1774.55 0.582998 4.4419 0
M  V30 18895 C 1776.3 -1.20775 4.06957 0
M  V30 18896 C 1774.2 0.251291 5.90866 0
M  V30 18897 H 1773.13 -0.125703 0.743448 0
M  V30 18898 H 1775.78 0.394188 1.79216 0
M  V30 18899 H 1774.17 -1.41166 3.69984 0
M  V30 18900 H 1775.34 1.35957 4.40287 0
M  V30 18901 H 1773.66 1.07653 4.02243 0
M  V30 18902 H 1776.25 -1.46995 5.14098 0
M  V30 18903 H 1776.6 -2.14569 3.56743 0
M  V30 18904 H 1777.13 -0.490021 3.9477 0
M  V30 18905 H 1773.87 1.15744 6.452 0
M  V30 18906 H 1773.39 -0.488274 5.97809 0
M  V30 18907 H 1775.07 -0.152008 6.46821 0
M  V30 18908 N 1775.2 -1.57593 0.0150662 0
M  V30 18909 C 1776.13 -2.04839 -1.0058 0
M  V30 18910 C 1777.11 -0.941261 -1.32586 0
M  V30 18911 O 1778.29 -1.21053 -1.44493 0
M  V30 18912 C 1775.42 -2.45866 -2.32954 0
M  V30 18913 C 1774.47 -3.6746 -2.16507 0
M  V30 18914 S 1775.3 -5.14728 -1.477 0
M  V30 18915 C 1776.46 -5.59038 -2.81473 0
M  V30 18916 H 1776.69 -2.91109 -0.603575 0
M  V30 18917 H 1774.22 -1.53148 -0.196235 0
M  V30 18918 H 1776.18 -2.7017 -3.09061 0
M  V30 18919 H 1774.84 -1.59967 -2.70313 0
M  V30 18920 H 1774.03 -3.93967 -3.14334 0
M  V30 18921 H 1773.64 -3.43235 -1.48545 0
M  V30 18922 H 1775.93 -5.62419 -3.77745 0
M  V30 18923 H 1776.87 -6.58778 -2.59648 0
M  V30 18924 H 1777.28 -4.86643 -2.86075 0
M  V30 18925 N 1776.68 0.257904 -1.55475 0
M  V30 18926 C 1777.61 1.32303 -1.92401 0
M  V30 18927 C 1778.59 1.50767 -0.787617 0
M  V30 18928 O 1779.77 1.63559 -1.047 0
M  V30 18929 C 1776.9 2.67984 -2.20912 0
M  V30 18930 C 1775.86 2.64231 -3.36699 0
M  V30 18931 C 1775.18 4.03604 -3.50725 0
M  V30 18932 C 1776.48 2.22177 -4.72689 0
M  V30 18933 H 1778.18 1.01646 -2.81618 0
M  V30 18934 H 1775.72 0.487523 -1.35496 0
M  V30 18935 H 1777.68 3.42622 -2.45332 0
M  V30 18936 H 1776.4 3.00254 -1.2851 0
M  V30 18937 H 1775.06 1.92049 -3.1227 0
M  V30 18938 H 1774.71 4.33122 -2.55763 0
M  V30 18939 H 1774.41 4.01983 -4.28583 0
M  V30 18940 H 1775.93 4.79959 -3.77455 0
M  V30 18941 H 1777.34 2.86543 -4.96554 0
M  V30 18942 H 1775.74 2.3169 -5.5357 0
M  V30 18943 H 1776.81 1.17326 -4.70492 0
M  V30 18944 N 1778.15 1.48666 0.52309 0
M  V30 18945 C 1779.1 1.63701 1.62698 0
M  V30 18946 C 1780.07 0.478895 1.59047 0
M  V30 18947 O 1781.26 0.703229 1.77368 0
M  V30 18948 C 1778.4 1.68912 3.00936 0
M  V30 18949 C 1777.51 2.95878 3.1477 0
M  V30 18950 C 1776.64 2.92206 4.43609 0
M  V30 18951 C 1775.68 4.13846 4.50996 0
M  V30 18952 N 1774.82 4.08213 5.71233 0
M  V30 18953 H 1779.66 2.57967 1.49188 0
M  V30 18954 H 1777.2 1.27924 0.726217 0
M  V30 18955 H 1779.16 1.69915 3.81031 0
M  V30 18956 H 1777.79 0.781309 3.13202 0
M  V30 18957 H 1776.84 3.04588 2.27883 0
M  V30 18958 H 1778.15 3.85861 3.1609 0
M  V30 18959 H 1777.3 2.91649 5.32002 0
M  V30 18960 H 1776.04 1.99964 4.44821 0
M  V30 18961 H 1775.05 4.14671 3.61009 0
M  V30 18962 H 1776.27 5.07256 4.51517 0
M  V30 18963 H 1774.22 3.18794 5.73329 0
M  V30 18964 H 1774.14 4.91908 5.74075 0
M  V30 18965 H 1775.4 4.11725 6.61893 0
M  V30 18966 N 1779.63 -0.772489 1.37369 0
M  V30 18967 C 1780.86 -1.56158 1.35729 0
M  V30 18968 C 1781.28 -1.88712 -0.0575274 0
M  V30 18969 O 1780.63 -1.51395 -1.01911 0
M  V30 18970 C 1780.68 -2.87231 2.19501 0
M  V30 18971 O 1780.4 -2.56072 3.5547 0
M  V30 18972 C 1781.91 -3.81464 2.25831 0
M  V30 18973 H 1779.13 -0.483803 0.464947 0
M  V30 18974 H 1781.67 -0.957502 1.80699 0
M  V30 18975 H 1779.82 -3.44063 1.78042 0
M  V30 18976 H 1780.24 -3.40002 3.99373 0
M  V30 18977 H 1781.71 -4.70442 2.8877 0
M  V30 18978 H 1782.19 -4.20542 1.26653 0
M  V30 18979 H 1782.8 -3.30561 2.67599 0
M  V30 18980 N 1781.11 -1.21927 -0.998575 0
M  V30 18981 C 1782.34 -1.06655 -1.77291 0
M  V30 18982 C 1782.75 0.38326 -1.84869 0
M  V30 18983 O 1782.11 1.26575 -1.31473 0
M  V30 18984 C 1782.16 -1.66478 -3.20885 0
M  V30 18985 O 1781.88 -3.05788 -3.13728 0
M  V30 18986 C 1783.38 -1.56404 -4.14792 0
M  V30 18987 H 1780.6 -0.3742 -0.55697 0
M  V30 18988 H 1783.15 -1.61401 -1.25579 0
M  V30 18989 H 1781.3 -1.15809 -3.69685 0
M  V30 18990 H 1781.72 -3.34503 -4.0399 0
M  V30 18991 H 1783.19 -2.02995 -5.1332 0
M  V30 18992 H 1783.67 -0.519591 -4.36116 0
M  V30 18993 H 1784.27 -2.06352 -3.71886 0
M  V30 18994 N 1782.59 1.19452 -1.02805 0
M  V30 18995 C 1783.84 1.8874 -0.722599 0
M  V30 18996 C 1784.16 1.79957 0.751028 0
M  V30 18997 O 1783.43 1.20949 1.54104 0
M  V30 18998 H 1782.01 0.698683 -0.264294 0
M  V30 18999 H 1784.67 1.45021 -1.30211 0
M  V30 19000 H 1783.77 2.95094 -1.01617 0
M  V30 19001 N 1784.07 0.805805 1.35442 0
M  V30 19002 C 1785.02 0.188328 2.27221 0
M  V30 19003 C 1786 -0.637384 1.47737 0
M  V30 19004 O 1787.19 -0.49477 1.69944 0
M  V30 19005 C 1784.32 -0.662862 3.3684 0
M  V30 19006 C 1783.41 0.172537 4.23749 0
M  V30 19007 N 1783.8 1.23516 4.90487 0
M  V30 19008 C 1782.1 -0.0459629 4.45976 0
M  V30 19009 C 1782.8 1.74511 5.54906 0
M  V30 19010 N 1781.77 1.05168 5.3333 0
M  V30 19011 H 1785.58 1.00141 2.76313 0
M  V30 19012 H 1783.09 0.646886 1.4896 0
M  V30 19013 H 1785.09 -1.12126 4.01539 0
M  V30 19014 H 1783.75 -1.4743 2.893 0
M  V30 19015 H 1784.76 1.6178 4.91983 0
M  V30 19016 H 1781.43 -0.826604 4.09235 0
M  V30 19017 H 1782.82 2.63317 6.18154 0
M  V30 19018 N 1785.54 -1.47344 0.559239 0
M  V30 19019 C 1786.48 -2.26985 -0.235197 0
M  V30 19020 C 1787.46 -1.34177 -0.918443 0
M  V30 19021 O 1788.64 -1.63561 -0.937027 0
M  V30 19022 C 1785.77 -3.11267 -1.33532 0
M  V30 19023 C 1784.81 -4.19667 -0.760412 0
M  V30 19024 S 1785.65 -5.34044 0.394576 0
M  V30 19025 C 1786.8 -6.21891 -0.707314 0
M  V30 19026 H 1787.03 -2.94017 0.440606 0
M  V30 19027 H 1784.57 -1.50482 0.345606 0
M  V30 19028 H 1786.53 -3.60395 -1.96534 0
M  V30 19029 H 1785.19 -2.43593 -1.98296 0
M  V30 19030 H 1784.38 -4.78375 -1.58661 0
M  V30 19031 H 1783.98 -3.73429 -0.206528 0
M  V30 19032 H 1786.27 -6.58362 -1.59891 0
M  V30 19033 H 1787.22 -7.07925 -0.157535 0
M  V30 19034 H 1787.62 -5.55556 -1.0009 0
M  V30 19035 N 1787.02 -0.295795 -1.54799 0
M  V30 19036 C 1788.27 0.315007 -2.00035 0
M  V30 19037 C 1788.6 1.54295 -1.1842 0
M  V30 19038 O 1787.85 1.94134 -0.247101 0
M  V30 19039 C 1788.15 0.721225 -3.50047 0
M  V30 19040 C 1787.82 -0.404395 -4.49083 0
M  V30 19041 C 1786.48 -0.713419 -4.75882 0
M  V30 19042 C 1788.83 -1.16185 -5.08085 0
M  V30 19043 C 1786.16 -1.78311 -5.58947 0
M  V30 19044 C 1788.51 -2.22142 -5.92314 0
M  V30 19045 C 1787.18 -2.53657 -6.17426 0
M  V30 19046 H 1786.45 0.115269 -0.73198 0
M  V30 19047 H 1789.09 -0.41381 -1.86976 0
M  V30 19048 H 1787.4 1.53005 -3.60689 0
M  V30 19049 H 1789.09 1.20491 -3.82469 0
M  V30 19050 H 1785.68 -0.153436 -4.28325 0
M  V30 19051 H 1789.87 -0.936365 -4.87387 0
M  V30 19052 H 1785.12 -2.03206 -5.76643 0
M  V30 19053 H 1789.3 -2.81296 -6.3706 0
M  V30 19054 H 1786.93 -3.36676 -6.81581 0
M  V30 19055 N 1788.5 1.57583 -0.0234236 0
M  V30 19056 C 1789.45 2.06367 0.969361 0
M  V30 19057 C 1790.44 0.963028 1.28898 0
M  V30 19058 O 1791.63 1.22663 1.27604 0
M  V30 19059 C 1788.76 2.58967 2.25368 0
M  V30 19060 C 1787.84 3.75952 1.96268 0
M  V30 19061 N 1788.23 4.86776 1.37415 0
M  V30 19062 C 1786.53 3.84329 2.2629 0
M  V30 19063 C 1787.23 5.68041 1.25318 0
M  V30 19064 N 1786.21 5.14771 1.74677 0
M  V30 19065 H 1790.01 2.89455 0.509205 0
M  V30 19066 H 1787.52 1.6138 0.181729 0
M  V30 19067 H 1789.52 2.92206 2.97358 0
M  V30 19068 H 1788.18 1.77307 2.72015 0
M  V30 19069 H 1789.19 5.07147 1.0499 0
M  V30 19070 H 1785.87 3.13566 2.7565 0
M  V30 19071 H 1787.26 6.67137 0.798588 0
M  V30 19072 N 1789.98 -0.249655 1.5561 0
M  V30 19073 C 1791.23 -0.975982 1.76515 0
M  V30 19074 C 1791.54 -1.86589 0.586843 0
M  V30 19075 O 1792.75 -2.62876 0.678844 0
M  V30 19076 C 1791.2 -1.7854 3.12492 0
M  V30 19077 C 1790.81 -0.943014 4.37963 0
M  V30 19078 C 1792.56 -2.50462 3.42737 0
M  V30 19079 C 1790.46 -1.74816 5.64972 0
M  V30 19080 H 1789.39 -0.368139 0.65802 0
M  V30 19081 H 1792.04 -0.230745 1.82043 0
M  V30 19082 H 1790.43 -2.57248 3.01064 0
M  V30 19083 H 1791.6 -0.198453 4.60372 0
M  V30 19084 H 1789.91 -0.337249 4.15032 0
M  V30 19085 H 1792.51 -3.1115 4.34845 0
M  V30 19086 H 1792.85 -3.21938 2.63935 0
M  V30 19087 H 1793.39 -1.78767 3.55369 0
M  V30 19088 H 1790.13 -1.07719 6.46589 0
M  V30 19089 H 1789.65 -2.46807 5.46668 0
M  V30 19090 H 1791.33 -2.31599 6.04128 0
M  V30 19091 N 1791.46 -1.48941 -0.515198 0
M  V30 19092 C 1792.73 -1.48205 -1.27651 0
M  V30 19093 C 1793.11 -0.201866 -2.10133 0
M  V30 19094 O 1792.46 0.816115 -2.13429 0
M  V30 19095 C 1792.67 -2.75274 -2.14535 0
M  V30 19096 C 1794.02 -3.24198 -2.74192 0
M  V30 19097 O 1795.04 -2.76293 -2.24813 0
M  V30 19098 O 1793.9 -4.07593 -3.64047 0
M  V30 19099 H 1791 -0.592546 -0.576904 0
M  V30 19100 H 1793.54 -1.6119 -0.530636 0
M  V30 19101 H 1792.32 -3.59949 -1.53469 0
M  V30 19102 H 1791.94 -2.6508 -2.96342 0
M  V30 19103 N 1792.94 0.765193 -1.37777 0
M  V30 19104 C 1794.18 1.52397 -1.33347 0
M  V30 19105 C 1794.51 1.94335 0.0800559 0
M  V30 19106 O 1793.77 1.64847 1.05469 0
M  V30 19107 C 1794.06 2.79732 -2.22452 0
M  V30 19108 C 1793.73 2.56814 -3.70618 0
M  V30 19109 C 1792.39 2.50272 -4.10996 0
M  V30 19110 C 1794.74 2.36494 -4.64457 0
M  V30 19111 C 1792.07 2.2141 -5.43318 0
M  V30 19112 C 1794.42 2.09155 -5.97024 0
M  V30 19113 C 1793.09 2.01062 -6.36499 0
M  V30 19114 H 1792.36 0.55766 -0.487951 0
M  V30 19115 H 1795.01 0.880853 -1.70039 0
M  V30 19116 H 1793.31 3.48635 -1.78777 0
M  V30 19117 H 1795.01 3.37639 -2.16335 0
M  V30 19118 H 1791.6 2.62771 -3.38599 0
M  V30 19119 H 1795.78 2.40534 -4.34117 0
M  V30 19120 H 1791.04 2.13644 -5.72858 0
M  V30 19121 H 1795.21 1.92433 -6.69285 0
M  V30 19122 H 1792.84 1.78462 -7.38956 0
M  V30 19123 N 1794.41 1.22455 0.992094 0
M  V30 19124 C 1795.66 1.04752 1.72833 0
M  V30 19125 C 1795.98 -0.418152 1.90464 0
M  V30 19126 O 1795.25 -1.30072 1.46486 0
M  V30 19127 H 1793.83 0.384626 0.640368 0
M  V30 19128 H 1796.49 1.5398 1.19483 0
M  V30 19129 H 1795.59 1.52601 2.72249 0
M  V30 19130 N 1795.89 -1.18905 1.03437 0
M  V30 19131 C 1797.31 -1.4075 0.752444 0
M  V30 19132 C 1797.51 -1.90361 -0.660679 0
M  V30 19133 O 1796.56 -2.08389 -1.42584 0
M  V30 19134 C 1797.88 -2.4138 1.79321 0
M  V30 19135 C 1799.42 -2.55118 1.81339 0
M  V30 19136 C 1799.9 -3.59007 2.8439 0
M  V30 19137 N 1801.39 -3.66508 2.83242 0
M  V30 19138 C 1802.13 -4.46602 3.59631 0
M  V30 19139 N 1801.62 -5.30355 4.45753 0
M  V30 19140 N 1803.41 -4.41304 3.48148 0
M  V30 19141 H 1795.57 -0.850259 1.94639 0
M  V30 19142 H 1797.83 -0.435962 0.841808 0
M  V30 19143 H 1797.53 -2.11963 2.80651 0
M  V30 19144 H 1797.41 -3.40636 1.62008 0
M  V30 19145 H 1799.8 -2.83856 0.806847 0
M  V30 19146 H 1799.88 -1.55996 2.02728 0
M  V30 19147 H 1799.52 -3.31011 3.8522 0
M  V30 19148 H 1799.45 -4.57792 2.60258 0
M  V30 19149 H 1801.94 -3.06697 2.20784 0
M  V30 19150 H 1802.25 -5.88603 5.00766 0
M  V30 19151 H 1800.6 -5.29797 4.49823 0
M  V30 19152 H 1803.79 -3.74918 2.80275 0
M  V30 19153 H 1803.96 -5.03483 4.07932 0
M  V30 19154 N 1797.37 -0.812977 -1.35013 0
M  V30 19155 C 1798.62 -0.396345 -1.98583 0
M  V30 19156 C 1798.94 1.0381 -1.6448 0
M  V30 19157 O 1798.2 1.73604 -0.903344 0
M  V30 19158 C 1798.5 -0.534083 -3.53387 0
M  V30 19159 C 1798.16 -1.93278 -4.07375 0
M  V30 19160 C 1796.83 -2.31543 -4.21831 0
M  V30 19161 C 1799.18 -2.84756 -4.36535 0
M  V30 19162 C 1796.51 -3.60641 -4.62769 0
M  V30 19163 C 1798.86 -4.13308 -4.78915 0
M  V30 19164 C 1797.52 -4.51563 -4.91576 0
M  V30 19165 H 1796.79 -0.145033 -0.726668 0
M  V30 19166 H 1799.44 -1.035 -1.61121 0
M  V30 19167 H 1797.74 0.188002 -3.91349 0
M  V30 19168 H 1799.44 -0.192396 -4.00538 0
M  V30 19169 H 1796.03 -1.62551 -3.96579 0
M  V30 19170 H 1800.22 -2.56441 -4.24914 0
M  V30 19171 H 1795.47 -3.9012 -4.70761 0
M  V30 19172 H 1799.65 -4.84287 -5.00439 0
M  V30 19173 H 1797.27 -5.51649 -5.23056 0
M  V30 19174 N 1798.85 1.47045 -0.567045 0
M  V30 19175 C 1799.78 2.32929 0.163191 0
M  V30 19176 C 1800.76 1.44393 0.899142 0
M  V30 19177 O 1801.94 1.73235 0.87768 0
M  V30 19178 C 1799.07 3.26369 1.18745 0
M  V30 19179 C 1798.03 4.24223 0.567335 0
M  V30 19180 C 1797.35 5.07058 1.69693 0
M  V30 19181 C 1798.65 5.2004 -0.485319 0
M  V30 19182 H 1800.35 2.94233 -0.553837 0
M  V30 19183 H 1797.89 1.41488 -0.267789 0
M  V30 19184 H 1799.85 3.85299 1.70654 0
M  V30 19185 H 1798.57 2.6314 1.93455 0
M  V30 19186 H 1797.23 3.66534 0.0694525 0
M  V30 19187 H 1796.88 4.40226 2.43331 0
M  V30 19188 H 1796.58 5.73316 1.28774 0
M  V30 19189 H 1798.1 5.68848 2.2191 0
M  V30 19190 H 1799.52 5.73277 -0.0519049 0
M  V30 19191 H 1797.91 5.94554 -0.813942 0
M  V30 19192 H 1798.98 4.64921 -1.37754 0
M  V30 19193 N 1800.33 0.304 1.5464 0
M  V30 19194 C 1801.57 -0.303793 1.99804 0
M  V30 19195 C 1801.89 -1.54179 1.19389 0
M  V30 19196 O 1801.16 -1.93732 0.290631 0
M  V30 19197 H 1799.74 -0.115241 0.738057 0
M  V30 19198 H 1802.41 0.416024 1.90408 0
M  V30 19199 H 1801.5 -0.573759 3.06781 0
M  V30 19200 N 1801.8 -1.57568 0.0317802 0
M  V30 19201 C 1802.75 -2.06878 -0.958403 0
M  V30 19202 C 1803.74 -0.96985 -1.28385 0
M  V30 19203 O 1804.93 -1.23338 -1.26951 0
M  V30 19204 C 1802.06 -2.60159 -2.23991 0
M  V30 19205 C 1801.14 -3.76987 -1.94272 0
M  V30 19206 N 1801.54 -4.87498 -1.34832 0
M  V30 19207 C 1799.83 -3.85524 -2.24248 0
M  V30 19208 C 1800.53 -5.68697 -1.22304 0
M  V30 19209 N 1799.51 -5.1569 -1.71944 0
M  V30 19210 H 1803.31 -2.89721 -0.493848 0
M  V30 19211 H 1800.83 -1.61474 -0.173168 0
M  V30 19212 H 1802.82 -2.93778 -2.95804 0
M  V30 19213 H 1801.48 -1.78747 -2.71071 0
M  V30 19214 H 1802.49 -5.07696 -1.02299 0
M  V30 19215 H 1799.17 -3.15023 -2.73983 0
M  V30 19216 H 1800.56 -6.67551 -0.763197 0
M  V30 19217 N 1803.28 0.241399 -1.5574 0
M  V30 19218 C 1804.25 1.28236 -1.89969 0
M  V30 19219 C 1805.25 1.40804 -0.776582 0
M  V30 19220 O 1806.44 1.3941 -1.04453 0
M  V30 19221 C 1803.57 2.65926 -2.13299 0
M  V30 19222 H 1804.76 0.991011 -2.83053 0
M  V30 19223 H 1802.31 0.480939 -1.48717 0
M  V30 19224 H 1803.05 3.00192 -1.22701 0
M  V30 19225 H 1802.83 2.58184 -2.95099 0
M  V30 19226 H 1804.32 3.4108 -2.40944 0
M  V30 19227 N 1804.76 1.49212 0.507292 0
M  V30 19228 C 1805.69 1.61529 1.62606 0
M  V30 19229 C 1806.71 0.498303 1.54986 0
M  V30 19230 O 1807.89 0.7701 1.61033 0
M  V30 19231 C 1804.99 1.55015 3.0137 0
M  V30 19232 C 1804.17 2.8214 3.34239 0
M  V30 19233 C 1803.23 2.68765 4.52385 0
M  V30 19234 O 1802.25 3.42691 4.54479 0
M  V30 19235 N 1803.45 1.7989 5.51924 0
M  V30 19236 H 1806.22 2.58018 1.52469 0
M  V30 19237 H 1803.78 1.46222 0.695042 0
M  V30 19238 H 1805.77 1.4373 3.78317 0
M  V30 19239 H 1804.34 0.6641 3.05464 0
M  V30 19240 H 1803.56 3.07823 2.46249 0
M  V30 19241 H 1804.85 3.66432 3.52994 0
M  V30 19242 H 1804.25 1.19074 5.53026 0
M  V30 19243 H 1802.81 1.74531 6.27999 0
M  V30 19244 N 1806.24 -0.757876 1.38181 0
M  V30 19245 C 1807.17 -1.87937 1.29441 0
M  V30 19246 C 1808.15 -1.61685 0.172246 0
M  V30 19247 O 1809.33 -1.85244 0.348836 0
M  V30 19248 C 1806.46 -3.23459 1.00459 0
M  V30 19249 C 1805.51 -3.68604 2.14554 0
M  V30 19250 S 1806.34 -3.80645 3.76656 0
M  V30 19251 C 1807.5 -5.18993 3.49853 0
M  V30 19252 H 1807.73 -1.95064 2.2436 0
M  V30 19253 H 1805.26 -0.920415 1.23967 0
M  V30 19254 H 1807.22 -4.01725 0.844209 0
M  V30 19255 H 1805.88 -3.14016 0.0726505 0
M  V30 19256 H 1805.07 -4.66892 1.8981 0
M  V30 19257 H 1804.68 -2.97479 2.26677 0
M  V30 19258 H 1806.97 -6.0461 3.05701 0
M  V30 19259 H 1807.91 -5.48755 4.47519 0
M  V30 19260 H 1808.32 -4.87587 2.84463 0
M  V30 19261 N 1807.72 -1.22979 -0.985586 0
M  V30 19262 C 1808.96 -1.05877 -1.72616 0
M  V30 19263 C 1809.29 0.405097 -1.90235 0
M  V30 19264 O 1808.55 1.31642 -1.44807 0
M  V30 19265 C 1808.85 -1.72346 -3.131 0
M  V30 19266 C 1808.51 -3.22256 -3.15376 0
M  V30 19267 C 1807.17 -3.63159 -3.15704 0
M  V30 19268 C 1809.53 -4.18174 -3.11094 0
M  V30 19269 C 1806.85 -4.98448 -3.09461 0
M  V30 19270 C 1809.21 -5.53449 -3.06393 0
M  V30 19271 C 1807.87 -5.93722 -3.05041 0
M  V30 19272 H 1807.14 -0.38743 -0.631648 0
M  V30 19273 H 1809.79 -1.52842 -1.15375 0
M  V30 19274 H 1808.09 -1.17725 -3.73695 0
M  V30 19275 H 1809.79 -1.56595 -3.6916 0
M  V30 19276 H 1806.38 -2.89692 -3.15875 0
M  V30 19277 H 1810.56 -3.87586 -3.09985 0
M  V30 19278 H 1805.82 -5.28873 -3.06763 0
M  V30 19279 H 1809.99 -6.27492 -3.02037 0
M  V30 19280 H 1807.62 -6.98519 -2.99958 0
M  V30 19281 N 1809.19 1.18355 -1.04066 0
M  V30 19282 C 1810.44 1.87963 -0.742576 0
M  V30 19283 C 1810.76 1.80744 0.731899 0
M  V30 19284 O 1810.03 1.22576 1.52813 0
M  V30 19285 H 1808.61 0.69584 -0.271689 0
M  V30 19286 H 1811.28 1.43632 -1.31741 0
M  V30 19287 H 1810.37 2.93999 -1.04741 0
M  V30 19288 N 1810.67 0.820125 1.3458 0
M  V30 19289 C 1811.62 0.22828 2.31477 0
M  V30 19290 C 1812.61 -0.629439 1.57272 0
M  V30 19291 O 1813.82 -0.521091 1.72292 0
M  V30 19292 H 1810.2 0.0550728 0.749981 0
M  V30 19293 H 1812.17 1.0604 2.78923 0
M  V30 19294 C 1810.92 -0.597495 3.42528 0
M  V30 19295 H 1810.24 0.0531749 3.99765 0
M  V30 19296 H 1811.68 -0.977765 4.12572 0
M  V30 19297 C 1810.14 -1.76868 2.86739 0
M  V30 19298 O 1810.67 -2.86674 2.81391 0
M  V30 19299 N 1808.87 -1.58453 2.436 0
M  V30 19300 H 1808.42 -0.691318 2.4815 0
M  V30 19301 H 1808.38 -2.36969 2.06624 0
M  V30 19302 N 1812.15 -1.46743 0.574835 0
M  V30 19303 C 1813.4 -2.01625 0.0551724 0
M  V30 19304 C 1813.71 -1.4528 -1.3097 0
M  V30 19305 O 1814.92 -1.91932 -1.92026 0
M  V30 19306 C 1813.37 -3.59868 0.0480708 0
M  V30 19307 C 1812.98 -4.25207 1.41078 0
M  V30 19308 C 1814.73 -4.22436 -0.41806 0
M  V30 19309 C 1812.63 -5.75507 1.36183 0
M  V30 19310 H 1811.56 -0.753812 0.0168558 0
M  V30 19311 H 1814.21 -1.68557 0.725313 0
M  V30 19312 H 1812.6 -3.89976 -0.688076 0
M  V30 19313 H 1813.77 -4.06718 2.16603 0
M  V30 19314 H 1812.09 -3.747 1.81628 0
M  V30 19315 H 1814.68 -5.32601 -0.473353 0
M  V30 19316 H 1815.03 -3.90826 -1.43391 0
M  V30 19317 H 1815.56 -3.96925 0.263775 0
M  V30 19318 H 1812.3 -6.11765 2.35423 0
M  V30 19319 H 1811.82 -5.96282 0.648655 0
M  V30 19320 H 1813.5 -6.38068 1.07137 0
M  V30 19321 N 1813.63 -0.312197 -1.54477 0
M  V30 19322 C 1814.58 0.558894 -2.23931 0
M  V30 19323 C 1815.55 1.12071 -1.22594 0
M  V30 19324 O 1816.73 1.16316 -1.51245 0
M  V30 19325 C 1813.87 1.71948 -2.99212 0
M  V30 19326 C 1812.98 1.18799 -4.15344 0
M  V30 19327 C 1812.12 2.31334 -4.78182 0
M  V30 19328 C 1811.16 1.75375 -5.86438 0
M  V30 19329 N 1810.29 2.81528 -6.43184 0
M  V30 19330 H 1815.13 -0.0399708 -2.97973 0
M  V30 19331 H 1812.67 -0.0314967 -1.47066 0
M  V30 19332 H 1814.63 2.40225 -3.41098 0
M  V30 19333 H 1813.26 2.28981 -2.27525 0
M  V30 19334 H 1812.31 0.397122 -3.78321 0
M  V30 19335 H 1813.62 0.738426 -4.93304 0
M  V30 19336 H 1812.78 3.07537 -5.22978 0
M  V30 19337 H 1811.52 2.79622 -3.99578 0
M  V30 19338 H 1810.52 0.976658 -5.41056 0
M  V30 19339 H 1811.75 1.27978 -6.66932 0
M  V30 19340 H 1809.69 3.29129 -5.6746 0
M  V30 19341 H 1809.61 2.41101 -7.16524 0
M  V30 19342 H 1810.88 3.57595 -6.92637 0
M  V30 19343 N 1815.11 1.57549 -0.040136 0
M  V30 19344 C 1816.52 1.56434 0.316341 0
M  V30 19345 C 1816.72 1.04679 1.72176 0
M  V30 19346 O 1815.78 0.698444 2.42648 0
M  V30 19347 C 1817.09 3.00301 0.154883 0
M  V30 19348 C 1818.64 3.12177 0.226821 0
M  V30 19349 C 1819.11 4.57903 0.0940219 0
M  V30 19350 N 1820.61 4.62955 0.150654 0
M  V30 19351 C 1821.34 5.73355 0.0718466 0
M  V30 19352 N 1820.84 6.92775 -0.0586777 0
M  V30 19353 N 1822.63 5.61957 0.126632 0
M  V30 19354 H 1814.78 1.89516 -0.959032 0
M  V30 19355 H 1817.04 0.872251 -0.371324 0
M  V30 19356 H 1816.75 3.42158 -0.813674 0
M  V30 19357 H 1816.62 3.65795 0.920521 0
M  V30 19358 H 1819.01 2.70225 1.18584 0
M  V30 19359 H 1819.09 2.49383 -0.569384 0
M  V30 19360 H 1818.74 5.00538 -0.861629 0
M  V30 19361 H 1818.67 5.18691 0.909231 0
M  V30 19362 H 1821.16 3.77064 0.251232 0
M  V30 19363 H 1821.47 7.72719 -0.111818 0
M  V30 19364 H 1819.81 6.94937 -0.0936119 0
M  V30 19365 H 1823.01 4.67549 0.227081 0
M  V30 19366 H 1823.18 6.47971 0.0617551 0
M  V30 19367 N 1816.58 -0.233136 1.55866 0
M  V30 19368 C 1817.86 -0.982866 1.69113 0
M  V30 19369 C 1818.24 -2.0286 0.584041 0
M  V30 19370 O 1817.59 -2.24781 -0.410606 0
M  V30 19371 C 1817.8 -1.60378 3.09967 0
M  V30 19372 C 1819.15 -2.10044 3.69008 0
M  V30 19373 O 1820.17 -1.70294 3.12855 0
M  V30 19374 O 1819.03 -2.8307 4.67476 0
M  V30 19375 H 1816.12 -0.458373 0.688348 0
M  V30 19376 H 1818.67 -0.225833 1.68191 0
M  V30 19377 H 1817.44 -0.848104 3.81999 0
M  V30 19378 H 1817.07 -2.42666 3.14959 0
M  V30 19379 N 1818.06 -1.49479 -0.499372 0
M  V30 19380 C 1819.48 -1.36278 -0.830692 0
M  V30 19381 C 1819.68 -0.397116 -1.97548 0
M  V30 19382 O 1818.74 0.170614 -2.51923 0
M  V30 19383 C 1820.05 -2.77031 -1.16937 0
M  V30 19384 C 1821.6 -2.85744 -1.27748 0
M  V30 19385 C 1822.07 -4.27267 -1.64944 0
M  V30 19386 N 1823.56 -4.30086 -1.7199 0
M  V30 19387 C 1824.3 -5.36559 -2.02218 0
M  V30 19388 N 1823.79 -6.53275 -2.30659 0
M  V30 19389 N 1825.59 -5.23976 -2.03483 0
M  V30 19390 H 1817.74 -2.10858 0.255497 0
M  V30 19391 H 1820 -0.946588 0.0517184 0
M  V30 19392 H 1819.71 -3.494 -0.401529 0
M  V30 19393 H 1819.58 -3.12501 -2.11242 0
M  V30 19394 H 1821.97 -2.13611 -2.03604 0
M  V30 19395 H 1822.05 -2.53854 -0.314901 0
M  V30 19396 H 1821.69 -4.99927 -0.896384 0
M  V30 19397 H 1821.62 -4.56622 -2.62305 0
M  V30 19398 H 1824.11 -3.45911 -1.52164 0
M  V30 19399 H 1824.43 -7.30241 -2.52918 0
M  V30 19400 H 1822.77 -6.56498 -2.28112 0
M  V30 19401 H 1825.96 -4.31799 -1.80741 0
M  V30 19402 H 1826.14 -6.07049 -2.26707 0
M  V30 19403 N 1819.54 0.750537 -1.38581 0
M  V30 19404 C 1820.5 1.84599 -1.35852 0
M  V30 19405 C 1821.5 1.58709 -0.258462 0
M  V30 19406 O 1822.69 1.66397 -0.51552 0
M  V30 19407 C 1819.83 3.22124 -1.11573 0
M  V30 19408 H 1821.02 1.88426 -2.33314 0
M  V30 19409 H 1818.57 0.952564 -1.23919 0
M  V30 19410 H 1819.31 3.23965 -0.147295 0
M  V30 19411 H 1819.09 3.42311 -1.91221 0
M  V30 19412 H 1820.58 4.02198 -1.12367 0
M  V30 19413 N 1821.02 1.235 0.979051 0
M  V30 19414 C 1822.43 1.06263 1.53509 0
M  V30 19415 C 1822.78 -0.369594 1.92687 0
M  V30 19416 O 1821.91 -1.25649 1.76185 0
M  V30 19417 C 1822.5 1.92276 2.78954 0
M  V30 19418 C 1821.06 1.79296 3.30953 0
M  V30 19419 C 1820.21 1.87898 2.03935 0
M  V30 19420 H 1823.16 1.37143 0.798588 0
M  V30 19421 H 1823.18 1.44835 3.51857 0
M  V30 19422 H 1822.69 2.96509 2.50408 0
M  V30 19423 H 1820.79 0.778512 3.64376 0
M  V30 19424 H 1820.91 2.62755 4.0062 0
M  V30 19425 H 1819.27 1.31494 2.18131 0
M  V30 19426 H 1820.05 2.93689 1.77769 0
M  V30 19427 N 1822.5 -1.17802 1.04693 0
M  V30 19428 C 1823.74 -1.87938 0.754024 0
M  V30 19429 C 1824.07 -1.80737 -0.718644 0
M  V30 19430 O 1823.33 -1.20657 -1.54079 0
M  V30 19431 C 1823.63 -3.37585 1.17349 0
M  V30 19432 C 1823.29 -3.6499 2.64751 0
M  V30 19433 C 1821.95 -3.72179 3.05019 0
M  V30 19434 C 1824.31 -3.76869 3.60027 0
M  V30 19435 C 1821.63 -3.88731 4.39437 0
M  V30 19436 C 1823.99 -3.94939 4.94172 0
M  V30 19437 C 1822.65 -4.00365 5.34101 0
M  V30 19438 H 1821.92 -0.687714 0.275917 0
M  V30 19439 H 1824.57 -1.39392 1.31309 0
M  V30 19440 H 1822.87 -3.88153 0.533333 0
M  V30 19441 H 1824.57 -3.90206 0.924134 0
M  V30 19442 H 1821.16 -3.60016 2.32565 0
M  V30 19443 H 1825.34 -3.70641 3.30059 0
M  V30 19444 H 1820.6 -3.91179 4.69882 0
M  V30 19445 H 1824.77 -4.03072 5.67896 0
M  V30 19446 H 1822.4 -4.12944 6.38264 0
M  V30 19447 N 1823.98 -0.827251 -1.34143 0
M  V30 19448 C 1825.22 -0.418003 -1.98445 0
M  V30 19449 C 1825.55 1.01737 -1.65418 0
M  V30 19450 O 1824.83 1.70932 -0.928042 0
M  V30 19451 C 1825.11 -0.625559 -3.54625 0
M  V30 19452 C 1824.97 -2.10736 -3.97379 0
M  V30 19453 C 1826.28 -0.0642701 -4.40053 0
M  V30 19454 H 1823.4 -0.15335 -0.72087 0
M  V30 19455 H 1826.05 -1.04062 -1.58969 0
M  V30 19456 H 1824.2 -0.095577 -3.88382 0
M  V30 19457 H 1825.87 -2.70131 -3.73934 0
M  V30 19458 H 1824.11 -2.59621 -3.47533 0
M  V30 19459 H 1824.78 -2.20338 -5.06118 0
M  V30 19460 H 1827.26 -0.517137 -4.12874 0
M  V30 19461 H 1826.13 -0.239267 -5.48378 0
M  V30 19462 H 1826.39 1.0311 -4.29908 0
M  V30 19463 N 1825.45 1.46436 -0.582609 0
M  V30 19464 C 1826.7 2.02385 -0.0681494 0
M  V30 19465 C 1827.03 1.4541 1.29175 0
M  V30 19466 O 1826.28 0.609021 1.85982 0
M  V30 19467 C 1826.58 3.57368 0.0476745 0
M  V30 19468 C 1826.25 4.33382 -1.24462 0
M  V30 19469 C 1824.91 4.53868 -1.59866 0
M  V30 19470 C 1827.26 4.7703 -2.09981 0
M  V30 19471 C 1824.59 5.15254 -2.80589 0
M  V30 19472 C 1826.94 5.39749 -3.29929 0
M  V30 19473 C 1825.61 5.58463 -3.65616 0
M  V30 19474 H 1824.88 0.74058 -0.0249376 0
M  V30 19475 H 1827.52 1.75807 -0.759226 0
M  V30 19476 H 1825.83 3.83083 0.821879 0
M  V30 19477 H 1827.53 3.98336 0.461487 0
M  V30 19478 H 1824.12 4.17734 -0.958993 0
M  V30 19479 H 1828.3 4.60959 -1.83931 0
M  V30 19480 H 1823.56 5.27934 -3.08376 0
M  V30 19481 H 1827.73 5.72529 -3.96464 0
M  V30 19482 H 1825.36 6.05799 -4.59252 0
M  V30 19483 N 1826.93 0.320385 1.54309 0
M  V30 19484 C 1828.16 -0.285197 2.04925 0
M  V30 19485 C 1828.57 -1.46029 1.1967 0
M  V30 19486 O 1827.93 -1.81087 0.22665 0
M  V30 19487 C 1827.98 -0.722736 3.54202 0
M  V30 19488 O 1827.7 0.40561 4.36218 0
M  V30 19489 C 1829.2 -1.39146 4.20896 0
M  V30 19490 H 1826.42 -0.0591612 0.668387 0
M  V30 19491 H 1828.97 0.46565 1.99128 0
M  V30 19492 H 1827.12 -1.42356 3.60296 0
M  V30 19493 H 1827.54 0.0614526 5.24464 0
M  V30 19494 H 1829.01 -1.64858 5.26807 0
M  V30 19495 H 1829.49 -2.33774 3.71815 0
M  V30 19496 H 1830.09 -0.733291 4.18931 0
M  V30 19497 N 1828.41 -1.57525 0.0484906 0
M  V30 19498 C 1829.63 -1.97309 -0.639062 0
M  V30 19499 C 1830.06 -0.925753 -1.63742 0
M  V30 19500 O 1829.42 0.111304 -1.80958 0
M  V30 19501 C 1829.47 -3.36168 -1.30475 0
M  V30 19502 O 1828.57 -3.33903 -2.42038 0
M  V30 19503 H 1827.91 -0.642824 -0.166351 0
M  V30 19504 H 1830.44 -2.0427 0.116095 0
M  V30 19505 H 1830.45 -3.72835 -1.65705 0
M  V30 19506 H 1829.13 -4.11933 -0.573057 0
M  V30 19507 H 1827.7 -3.08978 -2.08775 0
M  V30 19508 N 1829.89 0.224867 -1.55988 0
M  V30 19509 C 1831.16 0.973884 -1.69632 0
M  V30 19510 C 1831.54 2.02547 -0.594791 0
M  V30 19511 O 1830.89 2.24995 0.398679 0
M  V30 19512 C 1831.1 1.58732 -3.10814 0
M  V30 19513 C 1832.45 2.08084 -3.70117 0
M  V30 19514 O 1833.47 1.68633 -3.13754 0
M  V30 19515 O 1832.33 2.80586 -4.68971 0
M  V30 19516 H 1829.43 0.454716 -0.690769 0
M  V30 19517 H 1831.97 0.216911 -1.68308 0
M  V30 19518 H 1830.75 0.827834 -3.82443 0
M  V30 19519 H 1830.37 2.40992 -3.16241 0
M  V30 19520 N 1831.37 1.49742 0.491438 0
M  V30 19521 C 1832.3 1.6173 1.60993 0
M  V30 19522 C 1833.28 0.466021 1.55779 0
M  V30 19523 O 1834.46 0.682843 1.75697 0
M  V30 19524 C 1831.59 1.58109 2.99532 0
M  V30 19525 C 1830.63 2.78551 3.22973 0
M  V30 19526 S 1831.47 4.4011 3.05063 0
M  V30 19527 C 1832.62 4.3915 4.4598 0
M  V30 19528 H 1832.86 2.56345 1.50581 0
M  V30 19529 H 1830.39 1.38752 0.677301 0
M  V30 19530 H 1832.35 1.56706 3.79412 0
M  V30 19531 H 1831.01 0.64765 3.0735 0
M  V30 19532 H 1830.2 2.72264 4.24133 0
M  V30 19533 H 1829.8 2.77416 2.50831 0
M  V30 19534 H 1832.09 4.11459 5.38245 0
M  V30 19535 H 1833.04 5.40619 4.57315 0
M  V30 19536 H 1833.45 3.69107 4.27107 0
M  V30 19537 N 1832.84 -0.743177 1.38977 0
M  V30 19538 C 1833.81 -1.83876 1.36829 0
M  V30 19539 C 1834.81 -1.5857 0.266875 0
M  V30 19540 O 1836 -1.66121 0.524337 0
M  V30 19541 C 1833.13 -3.21528 1.1328 0
M  V30 19542 H 1834.32 -1.87186 2.3431 0
M  V30 19543 H 1831.88 -0.945979 1.24422 0
M  V30 19544 H 1832.61 -3.23883 0.164474 0
M  V30 19545 H 1832.4 -3.41292 1.93034 0
M  V30 19546 H 1833.89 -4.01597 1.14498 0
M  V30 19547 N 1834.32 -1.24018 -0.972487 0
M  V30 19548 C 1835.55 -1.10232 -1.74736 0
M  V30 19549 C 1835.96 0.348409 -1.85964 0
M  V30 19550 O 1835.3 1.25245 -1.34386 0
M  V30 19551 C 1835.37 -1.66263 -3.18743 0
M  V30 19552 C 1835.03 -3.151 -3.31 0
M  V30 19553 C 1836.03 -4.12305 -3.16703 0
M  V30 19554 C 1833.71 -3.54965 -3.55394 0
M  V30 19555 C 1835.71 -5.47357 -3.26617 0
M  V30 19556 C 1833.39 -4.9016 -3.64947 0
M  V30 19557 C 1834.39 -5.86165 -3.5057 0
M  V30 19558 O 1834.08 -7.18903 -3.5977 0
M  V30 19559 H 1833.81 -0.386036 -0.554935 0
M  V30 19560 H 1836.36 -1.64505 -1.22993 0
M  V30 19561 H 1834.59 -1.06419 -3.71769 0
M  V30 19562 H 1836.28 -1.47837 -3.7802 0
M  V30 19563 H 1837.05 -3.82848 -2.97745 0
M  V30 19564 H 1832.93 -2.80747 -3.65653 0
M  V30 19565 H 1836.47 -6.22273 -3.15312 0
M  V30 19566 H 1832.37 -5.1929 -3.83416 0
M  V30 19567 H 1833.14 -7.26759 -3.76515 0
M  V30 19568 N 1835.8 1.17245 -1.05316 0
M  V30 19569 C 1837.05 1.87813 -0.765112 0
M  V30 19570 C 1837.38 1.80907 0.706147 0
M  V30 19571 O 1836.65 1.21793 1.51647 0
M  V30 19572 C 1836.94 3.3779 -1.24779 0
M  V30 19573 C 1836.79 3.53441 -2.78208 0
M  V30 19574 C 1838.11 4.31857 -0.847805 0
M  V30 19575 H 1835.23 0.681979 -0.279415 0
M  V30 19576 H 1837.87 1.37869 -1.30737 0
M  V30 19577 H 1836.02 3.80456 -0.786487 0
M  V30 19578 H 1837.69 3.19782 -3.32472 0
M  V30 19579 H 1835.94 2.95678 -3.17423 0
M  V30 19580 H 1836.61 4.58725 -3.07043 0
M  V30 19581 H 1839.08 3.97039 -1.24496 0
M  V30 19582 H 1837.96 5.35326 -1.21313 0
M  V30 19583 H 1838.22 4.41403 0.248104 0
M  V30 19584 N 1837.28 0.834353 1.33702 0
M  V30 19585 C 1838.53 0.424225 1.97188 0
M  V30 19586 C 1838.84 -1.02086 1.66846 0
M  V30 19587 O 1840.05 -1.53545 2.23911 0
M  V30 19588 C 1838.5 0.707628 3.52875 0
M  V30 19589 C 1838.11 2.16709 3.92098 0
M  V30 19590 C 1839.85 0.364228 4.22935 0
M  V30 19591 C 1837.76 2.39478 5.40744 0
M  V30 19592 H 1836.69 0.154897 0.737918 0
M  V30 19593 H 1839.34 1.02231 1.52385 0
M  V30 19594 H 1837.72 0.0392323 3.95981 0
M  V30 19595 H 1838.9 2.87559 3.60064 0
M  V30 19596 H 1837.21 2.47303 3.35008 0
M  V30 19597 H 1839.81 0.512031 5.32243 0
M  V30 19598 H 1840.15 -0.692375 4.10502 0
M  V30 19599 H 1840.69 0.98767 3.85344 0
M  V30 19600 H 1837.43 3.43687 5.58175 0
M  V30 19601 H 1836.95 1.73184 5.74254 0
M  V30 19602 H 1838.62 2.22406 6.07573 0
M  V30 19603 N 1838.76 -1.46125 0.590367 0
M  V30 19604 C 1839.7 -2.32108 -0.151168 0
M  V30 19605 C 1840.7 -1.44943 -0.876804 0
M  V30 19606 O 1841.9 -1.61526 -0.794323 0
M  V30 19607 H 1838.28 -0.748954 -0.0676159 0
M  V30 19608 H 1840.25 -2.92454 0.592723 0
M  V30 19609 C 1839 -3.28253 -1.14653 0
M  V30 19610 H 1838.32 -3.95309 -0.597597 0
M  V30 19611 H 1839.76 -3.91181 -1.63564 0
M  V30 19612 C 1838.22 -2.54162 -2.21141 0
M  V30 19613 O 1838.75 -2.31029 -3.28616 0
M  V30 19614 N 1836.96 -2.14592 -1.95956 0
M  V30 19615 H 1836.5 -2.33606 -1.08564 0
M  V30 19616 H 1836.46 -1.65339 -2.67414 0
M  V30 19617 N 1840.23 -0.328564 -1.54137 0
M  V30 19618 C 1841.48 0.271967 -2.00262 0
M  V30 19619 C 1841.8 1.5226 -1.21827 0
M  V30 19620 O 1841.07 1.93245 -0.321415 0
M  V30 19621 H 1839.65 0.103484 -0.739797 0
M  V30 19622 H 1842.32 -0.446264 -1.89722 0
M  V30 19623 H 1841.41 0.52488 -3.07655 0
M  V30 19624 N 1841.71 1.57497 -0.0568439 0
M  V30 19625 C 1842.96 1.92533 0.614452 0
M  V30 19626 C 1843.28 0.936373 1.71047 0
M  V30 19627 O 1842.55 -0.0178803 1.95892 0
M  V30 19628 H 1841.13 0.710724 0.229958 0
M  V30 19629 H 1843.79 1.94583 -0.111181 0
M  V30 19630 H 1842.89 2.93928 1.04941 0
M  V30 19631 N 1843.19 -0.216591 1.56105 0
M  V30 19632 C 1844.47 -0.964874 1.70146 0
M  V30 19633 C 1844.85 -2.02229 0.605524 0
M  V30 19634 O 1844.2 -2.25203 -0.386742 0
M  V30 19635 C 1844.41 -1.57082 3.11651 0
M  V30 19636 C 1845.75 -2.06118 3.71215 0
M  V30 19637 O 1846.78 -1.66966 3.14644 0
M  V30 19638 O 1845.64 -2.78095 4.70452 0
M  V30 19639 H 1842.73 -0.451047 0.693171 0
M  V30 19640 H 1845.28 -0.207982 1.68421 0
M  V30 19641 H 1844.05 -0.80754 3.82877 0
M  V30 19642 H 1843.67 -2.39312 3.17515 0
M  V30 19643 N 1844.67 -1.5 -0.48349 0
M  V30 19644 C 1845.62 -1.67957 -1.58301 0
M  V30 19645 C 1846.59 -0.520895 -1.57721 0
M  V30 19646 O 1847.77 -0.750008 -1.75441 0
M  V30 19647 C 1844.91 -1.76832 -2.96352 0
M  V30 19648 C 1844.02 -3.04119 -3.06815 0
M  V30 19649 C 1843.16 -3.03865 -4.35706 0
M  V30 19650 C 1842.2 -4.25658 -4.39865 0
M  V30 19651 N 1841.33 -4.23214 -5.60209 0
M  V30 19652 H 1846.17 -2.61832 -1.42296 0
M  V30 19653 H 1843.71 -1.29804 -0.692045 0
M  V30 19654 H 1845.67 -1.79958 -3.76392 0
M  V30 19655 H 1844.3 -0.864074 -3.1102 0
M  V30 19656 H 1843.35 -3.10523 -2.19727 0
M  V30 19657 H 1844.66 -3.94106 -3.05748 0
M  V30 19658 H 1843.82 -3.05652 -5.24082 0
M  V30 19659 H 1842.56 -2.11687 -4.39363 0
M  V30 19660 H 1841.56 -4.24097 -3.49888 0
M  V30 19661 H 1842.79 -5.19049 -4.37909 0
M  V30 19662 H 1840.73 -3.33883 -5.64675 0
M  V30 19663 H 1840.65 -5.06956 -5.60832 0
M  V30 19664 H 1841.92 -4.29129 -6.50744 0
M  V30 19665 N 1846.15 0.735796 -1.39369 0
M  V30 19666 C 1847.56 1.31402 -1.32628 0
M  V30 19667 C 1847.91 1.96198 0.00972836 0
M  V30 19668 O 1847.03 1.9625 0.91185 0
M  V30 19669 C 1847.63 2.38934 -2.402 0
M  V30 19670 C 1846.19 2.92432 -2.36982 0
M  V30 19671 C 1845.33 1.65992 -2.2213 0
M  V30 19672 H 1848.29 0.533364 -1.49469 0
M  V30 19673 H 1848.31 3.19304 -2.06942 0
M  V30 19674 H 1847.82 1.91745 -3.37425 0
M  V30 19675 H 1845.92 3.43903 -1.43394 0
M  V30 19676 H 1846.03 3.456 -3.31809 0
M  V30 19677 H 1844.4 1.90298 -1.69289 0
M  V30 19678 H 1845.18 1.20857 -3.21323 0
M  V30 19679 N 1847.63 1.24532 0.965897 0
M  V30 19680 C 1848.85 1.11412 1.74934 0
M  V30 19681 C 1849.28 -0.329168 1.85197 0
M  V30 19682 O 1848.63 -1.23833 1.3242 0
M  V30 19683 C 1848.68 1.76068 3.14694 0
M  V30 19684 O 1847.79 1.03267 3.99261 0
M  V30 19685 H 1847.13 0.389633 0.537663 0
M  V30 19686 H 1849.66 1.64875 1.2115 0
M  V30 19687 H 1849.67 1.81897 3.65209 0
M  V30 19688 H 1848.34 2.8108 3.0654 0
M  V30 19689 H 1846.92 1.05236 3.57743 0
M  V30 19690 N 1849.1 -1.16685 1.05936 0
M  V30 19691 C 1850.33 -1.91576 0.794558 0
M  V30 19692 C 1850.75 -1.76706 -0.644718 0
M  V30 19693 O 1850.11 -1.0899 -1.44882 0
M  V30 19694 C 1850.16 -3.40417 1.18947 0
M  V30 19695 O 1849.26 -4.11109 0.326091 0
M  V30 19696 H 1848.6 -0.596983 0.290702 0
M  V30 19697 H 1851.13 -1.47856 1.4142 0
M  V30 19698 H 1851.14 -3.91178 1.15947 0
M  V30 19699 H 1849.82 -3.5056 2.23786 0
M  V30 19700 H 1848.4 -3.70557 0.417347 0
M  V30 19701 N 1850.58 -0.841432 -1.33258 0
M  V30 19702 C 1852 -0.529552 -1.50559 0
M  V30 19703 C 1852.2 0.942598 -1.78094 0
M  V30 19704 O 1851.25 1.72628 -1.84271 0
M  V30 19705 C 1852.57 -1.40511 -2.65852 0
M  V30 19706 C 1854.11 -1.40415 -2.79737 0
M  V30 19707 C 1854.59 -2.26462 -3.98094 0
M  V30 19708 N 1856.08 -2.24185 -4.05334 0
M  V30 19709 C 1856.82 -2.875 -4.96116 0
M  V30 19710 N 1856.31 -3.59877 -5.91997 0
M  V30 19711 N 1858.1 -2.76957 -4.89133 0
M  V30 19712 H 1850.26 -1.79438 -1.13648 0
M  V30 19713 H 1852.52 -0.765683 -0.558958 0
M  V30 19714 H 1852.22 -2.45136 -2.52193 0
M  V30 19715 H 1852.1 -1.08299 -3.61319 0
M  V30 19716 H 1854.49 -0.365604 -2.92826 0
M  V30 19717 H 1854.57 -1.76636 -1.85023 0
M  V30 19718 H 1854.21 -3.30377 -3.85764 0
M  V30 19719 H 1854.14 -1.87581 -4.92058 0
M  V30 19720 H 1856.63 -1.71553 -3.36716 0
M  V30 19721 H 1856.94 -4.05388 -6.57936 0
M  V30 19722 H 1855.29 -3.63985 -5.92064 0
M  V30 19723 H 1858.48 -2.19974 -4.13194 0
M  V30 19724 H 1858.65 -3.26585 -5.59684 0
M  V30 19725 N 1852.06 1.4581 -0.598108 0
M  V30 19726 C 1853.31 2.02302 -0.0896112 0
M  V30 19727 C 1853.63 1.46772 1.27625 0
M  V30 19728 O 1852.89 0.628712 1.85326 0
M  V30 19729 C 1853.19 3.57399 0.00976809 0
M  V30 19730 C 1852.85 4.32038 -1.29051 0
M  V30 19731 C 1851.52 4.52147 -1.64671 0
M  V30 19732 C 1853.87 4.74776 -2.15028 0
M  V30 19733 C 1851.2 5.12249 -2.86038 0
M  V30 19734 C 1853.55 5.3622 -3.35635 0
M  V30 19735 C 1852.21 5.54554 -3.71519 0
M  V30 19736 H 1851.48 0.740274 -0.0327911 0
M  V30 19737 H 1854.13 1.74992 -0.77783 0
M  V30 19738 H 1852.43 3.83933 0.781201 0
M  V30 19739 H 1854.13 3.98803 0.419212 0
M  V30 19740 H 1850.72 4.16693 -1.00324 0
M  V30 19741 H 1854.91 4.58982 -1.8881 0
M  V30 19742 H 1850.16 5.24633 -3.13958 0
M  V30 19743 H 1854.34 5.68292 -4.02514 0
M  V30 19744 H 1851.96 6.00894 -4.65651 0
M  V30 19745 N 1853.54 0.336733 1.53961 0
M  V30 19746 C 1854.49 -0.539031 2.21537 0
M  V30 19747 C 1855.47 -1.07141 1.2004 0
M  V30 19748 O 1856.66 -1.00624 1.45615 0
M  V30 19749 C 1853.79 -1.69289 2.98657 0
M  V30 19750 C 1852.88 -1.17478 4.07504 0
M  V30 19751 N 1853.27 -0.377364 5.0439 0
M  V30 19752 C 1851.57 -1.4523 4.21692 0
M  V30 19753 C 1852.27 -0.0970043 5.81619 0
M  V30 19754 N 1851.24 -0.686775 5.39244 0
M  V30 19755 H 1855.05 0.077355 2.93798 0
M  V30 19756 H 1852.56 0.14325 1.61767 0
M  V30 19757 H 1854.56 -2.33219 3.45564 0
M  V30 19758 H 1853.22 -2.31263 2.2792 0
M  V30 19759 H 1854.23 -0.019042 5.17896 0
M  V30 19760 H 1850.91 -2.07693 3.62174 0
M  V30 19761 H 1852.3 0.545809 6.69679 0
M  V30 19762 N 1855.02 -1.57465 0.0651956 0
M  V30 19763 C 1856.29 -1.84622 -0.646065 0
M  V30 19764 C 1856.67 -0.956374 -1.88193 0
M  V30 19765 O 1856.02 -0.0209666 -2.2849 0
M  V30 19766 C 1856.23 -3.34664 -0.990013 0
M  V30 19767 C 1857.58 -4.02016 -1.36632 0
M  V30 19768 O 1858.6 -3.39371 -1.08194 0
M  V30 19769 O 1857.46 -5.12496 -1.89764 0
M  V30 19770 H 1854.56 -0.762482 -0.320236 0
M  V30 19771 H 1857.1 -1.6943 0.0956254 0
M  V30 19772 H 1855.87 -3.9114 -0.111977 0
M  V30 19773 H 1855.5 -3.55094 -1.78869 0
M  V30 19774 N 1856.49 0.20831 -1.56217 0
M  V30 19775 C 1857.74 0.930725 -1.79844 0
M  V30 19776 C 1858.07 1.83801 -0.636208 0
M  V30 19777 O 1857.32 1.92 0.378755 0
M  V30 19778 C 1857.62 1.78999 -3.09345 0
M  V30 19779 C 1857.29 1.03482 -4.38865 0
M  V30 19780 C 1855.95 0.826263 -4.74053 0
M  V30 19781 C 1858.3 0.50251 -5.18772 0
M  V30 19782 C 1855.63 0.0737118 -5.86654 0
M  V30 19783 C 1857.98 -0.236764 -6.32157 0
M  V30 19784 C 1856.65 -0.456453 -6.65938 0
M  V30 19785 H 1855.92 0.340576 -0.658095 0
M  V30 19786 H 1858.56 0.197971 -1.90474 0
M  V30 19787 H 1856.87 2.59101 -2.93894 0
M  V30 19788 H 1858.57 2.35132 -3.24829 0
M  V30 19789 H 1855.16 1.20736 -4.11243 0
M  V30 19790 H 1859.34 0.651071 -4.92011 0
M  V30 19791 H 1854.6 -0.106598 -6.11307 0
M  V30 19792 H 1858.77 -0.656674 -6.93297 0
M  V30 19793 H 1856.4 -1.0415 -7.53032 0
M  V30 19794 N 1857.97 1.50255 0.475528 0
M  V30 19795 C 1859.22 1.61261 1.22975 0
M  V30 19796 C 1859.55 0.309949 1.91711 0
M  V30 19797 O 1858.83 -0.688288 1.81914 0
M  V30 19798 C 1859.11 2.7898 2.27688 0
M  V30 19799 C 1858.96 4.19115 1.63287 0
M  V30 19800 C 1860.28 2.9227 3.29038 0
M  V30 19801 H 1857.4 0.586933 0.445734 0
M  V30 19802 H 1860.04 1.82626 0.524177 0
M  V30 19803 H 1858.19 2.60894 2.87865 0
M  V30 19804 H 1859.86 4.48781 1.06741 0
M  V30 19805 H 1858.11 4.23579 0.936127 0
M  V30 19806 H 1858.78 4.97405 2.39359 0
M  V30 19807 H 1861.25 3.08813 2.78879 0
M  V30 19808 H 1860.13 3.7627 3.9964 0
M  V30 19809 H 1860.39 2.02696 3.92895 0
M  V30 19810 N 1859.45 -0.728395 1.39758 0
M  V30 19811 C 1860.73 -1.48036 1.27846 0
M  V30 19812 C 1861.11 -2.10818 -0.108996 0
M  V30 19813 O 1860.45 -1.99125 -1.12078 0
M  V30 19814 C 1860.66 -2.52644 2.40774 0
M  V30 19815 C 1862.01 -3.1884 2.80404 0
M  V30 19816 O 1863.04 -2.6296 2.40272 0
M  V30 19817 O 1861.9 -4.19971 3.49696 0
M  V30 19818 H 1858.99 -0.657688 0.501374 0
M  V30 19819 H 1861.54 -0.761658 1.51647 0
M  V30 19820 H 1860.31 -2.04678 3.335 0
M  V30 19821 H 1859.93 -3.32066 2.18674 0
M  V30 19822 N 1860.93 -1.25042 -0.959279 0
M  V30 19823 C 1861.86 -1.07494 -2.07285 0
M  V30 19824 C 1862.84 0.0146264 -1.70094 0
M  V30 19825 O 1864.02 -0.154035 -1.93588 0
M  V30 19826 C 1861.15 -0.68794 -3.40418 0
M  V30 19827 C 1860.11 -1.72722 -3.91601 0
M  V30 19828 C 1859.43 -1.19504 -5.21175 0
M  V30 19829 C 1860.73 -3.12502 -4.18497 0
M  V30 19830 H 1862.43 -2.00641 -2.22224 0
M  V30 19831 H 1859.97 -0.966074 -1.06785 0
M  V30 19832 H 1861.93 -0.552133 -4.17767 0
M  V30 19833 H 1860.65 0.279224 -3.25404 0
M  V30 19834 H 1859.31 -1.85139 -3.16416 0
M  V30 19835 H 1858.96 -0.218239 -5.02526 0
M  V30 19836 H 1858.66 -1.88962 -5.56387 0
M  V30 19837 H 1860.18 -1.07153 -6.01124 0
M  V30 19838 H 1861.6 -3.03266 -4.86521 0
M  V30 19839 H 1859.99 -3.79389 -4.64956 0
M  V30 19840 H 1861.06 -3.5991 -3.2495 0
M  V30 19841 N 1862.41 1.16121 -1.06553 0
M  V30 19842 C 1863.65 1.88387 -0.793066 0
M  V30 19843 C 1864.01 1.79992 0.66835 0
M  V30 19844 O 1865.21 2.47209 1.05552 0
M  V30 19845 C 1863.48 3.33797 -1.27726 0
M  V30 19846 S 1865.04 4.23887 -1.13425 0
M  V30 19847 H 1861.86 0.650229 -0.287616 0
M  V30 19848 H 1864.46 1.40153 -1.36299 0
M  V30 19849 H 1863.17 3.37448 -2.33574 0
M  V30 19850 H 1862.7 3.87082 -0.702203 0
M  V30 19851 H 1864.71 4.96155 -0.0667742 0
M  V30 19852 N 1863.88 0.848487 1.3281 0
M  V30 19853 C 1865.12 0.455061 1.9927 0
M  V30 19854 C 1865.49 -0.969773 1.65709 0
M  V30 19855 O 1866.69 -1.46743 2.25211 0
M  V30 19856 C 1864.96 0.680294 3.50866 0
M  V30 19857 S 1866.52 0.383521 4.37121 0
M  V30 19858 H 1863.34 0.170742 0.690194 0
M  V30 19859 H 1865.94 1.09986 1.61627 0
M  V30 19860 H 1864.64 1.71648 3.7278 0
M  V30 19861 H 1864.17 0.0216913 3.93394 0
M  V30 19862 H 1866.19 -0.792918 4.89824 0
M  V30 19863 N 1865.36 -1.4549 0.605832 0
M  V30 19864 C 1866.29 -2.28694 -0.152145 0
M  V30 19865 C 1867.31 -1.3985 -0.833422 0
M  V30 19866 O 1868.5 -1.6424 -0.699105 0
M  V30 19867 C 1865.6 -3.15544 -1.23634 0
M  V30 19868 C 1864.77 -4.32655 -0.642525 0
M  V30 19869 C 1863.83 -5.00726 -1.61739 0
M  V30 19870 O 1862.85 -5.57577 -1.14438 0
M  V30 19871 N 1864.06 -4.9985 -2.95178 0
M  V30 19872 H 1866.82 -2.94387 0.561801 0
M  V30 19873 H 1864.38 -1.55659 0.445195 0
M  V30 19874 H 1866.37 -3.57947 -1.88828 0
M  V30 19875 H 1864.94 -2.51771 -1.85284 0
M  V30 19876 H 1864.16 -3.93754 0.187451 0
M  V30 19877 H 1865.45 -5.08298 -0.225985 0
M  V30 19878 H 1864.85 -4.54949 -3.36211 0
M  V30 19879 H 1863.41 -5.46123 -3.558 0
M  V30 19880 N 1866.84 -0.344893 -1.5378 0
M  V30 19881 C 1867.8 0.498781 -2.23707 0
M  V30 19882 C 1868.8 1.02649 -1.23773 0
M  V30 19883 O 1869.99 0.915526 -1.48202 0
M  V30 19884 C 1867.13 1.69497 -2.95776 0
M  V30 19885 H 1868.32 -0.112815 -2.99688 0
M  V30 19886 H 1865.87 -0.0962613 -1.56003 0
M  V30 19887 H 1866.61 2.34522 -2.23986 0
M  V30 19888 H 1866.39 1.32376 -3.69079 0
M  V30 19889 H 1867.88 2.29334 -3.48992 0
M  V30 19890 N 1868.32 1.57428 -0.0735454 0
M  V30 19891 C 1869.55 1.97596 0.603272 0
M  V30 19892 C 1869.96 0.950716 1.63579 0
M  V30 19893 O 1869.3 -0.0707453 1.83564 0
M  V30 19894 C 1869.36 3.34079 1.32784 0
M  V30 19895 C 1869.03 4.54793 0.448586 0
M  V30 19896 C 1870.02 5.19065 -0.294536 0
M  V30 19897 C 1867.71 5.00914 0.372952 0
M  V30 19898 C 1869.7 6.2781 -1.1015 0
M  V30 19899 C 1867.39 6.09531 -0.437679 0
M  V30 19900 C 1868.39 6.72842 -1.17357 0
M  V30 19901 O 1868.07 7.79367 -1.97083 0
M  V30 19902 H 1867.81 0.654764 0.168108 0
M  V30 19903 H 1870.36 2.04902 -0.143013 0
M  V30 19904 H 1868.59 3.23393 2.12023 0
M  V30 19905 H 1870.28 3.5884 1.89707 0
M  V30 19906 H 1871.05 4.84377 -0.245706 0
M  V30 19907 H 1866.92 4.51411 0.935363 0
M  V30 19908 H 1870.47 6.77158 -1.67639 0
M  V30 19909 H 1866.37 6.43652 -0.488066 0
M  V30 19910 H 1867.13 7.96253 -1.89533 0
M  V30 19911 N 1869.8 -0.200022 1.56326 0
M  V30 19912 C 1870.74 -1.26742 1.95036 0
M  V30 19913 C 1871.74 -1.47383 0.835143 0
M  V30 19914 O 1872.94 -1.48302 1.02012 0
M  V30 19915 H 1869.32 -0.425393 0.620117 0
M  V30 19916 H 1871.29 -0.913877 2.84061 0
M  V30 19917 C 1870.04 -2.60591 2.30191 0
M  V30 19918 H 1869.36 -2.45522 3.1553 0
M  V30 19919 H 1870.8 -3.34036 2.61144 0
M  V30 19920 C 1869.26 -3.17215 1.13474 0
M  V30 19921 O 1869.79 -3.99631 0.407168 0
M  V30 19922 N 1868 -2.7589 0.912849 0
M  V30 19923 H 1867.54 -2.08974 1.50624 0
M  V30 19924 H 1867.5 -3.14116 0.133691 0
M  V30 19925 N 1871.27 -1.50505 -0.467553 0
M  V30 19926 C 1872.2 -1.72558 -1.57309 0
M  V30 19927 C 1873.19 -0.574619 -1.601 0
M  V30 19928 O 1874.37 -0.814135 -1.76311 0
M  V30 19929 C 1871.5 -1.82296 -2.9561 0
M  V30 19930 C 1870.45 -2.97513 -3.07685 0
M  V30 19931 C 1869.78 -2.92398 -4.47669 0
M  V30 19932 C 1871.08 -4.37968 -2.84573 0
M  V30 19933 H 1872.77 -2.65122 -1.39107 0
M  V30 19934 H 1870.32 -1.2758 -0.667776 0
M  V30 19935 H 1872.27 -1.96308 -3.72882 0
M  V30 19936 H 1871 -0.863562 -3.14976 0
M  V30 19937 H 1869.66 -2.83157 -2.32847 0
M  V30 19938 H 1869.3 -1.94297 -4.63959 0
M  V30 19939 H 1869 -3.69749 -4.56683 0
M  V30 19940 H 1870.53 -3.08464 -5.26956 0
M  V30 19941 H 1871.94 -4.52831 -3.51593 0
M  V30 19942 H 1870.34 -5.16796 -3.05028 0
M  V30 19943 H 1871.41 -4.50093 -1.80402 0
M  V30 19944 N 1872.75 0.720973 -1.40142 0
M  V30 19945 C 1874 1.4763 -1.37435 0
M  V30 19946 C 1874.31 1.95587 0.0222038 0
M  V30 19947 O 1875.52 2.70955 0.171885 0
M  V30 19948 C 1873.98 2.66828 -2.41517 0
M  V30 19949 C 1873.58 2.25763 -3.86956 0
M  V30 19950 C 1875.33 3.44589 -2.47908 0
M  V30 19951 C 1873.24 3.41768 -4.82648 0
M  V30 19952 H 1872.17 0.554436 -0.510996 0
M  V30 19953 H 1874.82 0.785164 -1.65854 0
M  V30 19954 H 1873.2 3.38086 -2.0619 0
M  V30 19955 H 1874.37 1.61961 -4.31399 0
M  V30 19956 H 1872.69 1.61059 -3.83991 0
M  V30 19957 H 1875.28 4.309 -3.1659 0
M  V30 19958 H 1875.63 3.8803 -1.50792 0
M  V30 19959 H 1876.16 2.80371 -2.822 0
M  V30 19960 H 1872.9 3.03364 -5.81077 0
M  V30 19961 H 1872.42 4.04504 -4.42873 0
M  V30 19962 H 1874.1 4.07909 -5.02214 0
M  V30 19963 N 1874.23 1.25549 0.952634 0
M  V30 19964 C 1875.65 1.02414 1.22407 0
M  V30 19965 C 1875.85 -0.257807 1.99844 0
M  V30 19966 O 1874.9 -0.969999 2.33125 0
M  V30 19967 C 1876.22 2.24856 1.9965 0
M  V30 19968 C 1877.76 2.29638 2.12686 0
M  V30 19969 C 1878.24 3.51742 2.93329 0
M  V30 19970 N 1879.73 3.5215 3.00907 0
M  V30 19971 C 1880.46 4.43292 3.63703 0
M  V30 19972 N 1879.96 5.44709 4.28094 0
M  V30 19973 N 1881.75 4.30969 3.60863 0
M  V30 19974 H 1873.9 2.07905 0.434647 0
M  V30 19975 H 1876.17 0.913124 0.254772 0
M  V30 19976 H 1875.87 3.18037 1.5015 0
M  V30 19977 H 1875.75 2.28188 3.0035 0
M  V30 19978 H 1878.13 1.36978 2.61383 0
M  V30 19979 H 1878.22 2.30324 1.11285 0
M  V30 19980 H 1877.86 4.44724 2.45322 0
M  V30 19981 H 1877.79 3.48301 3.9496 0
M  V30 19982 H 1880.28 2.78789 2.55118 0
M  V30 19983 H 1880.59 6.10462 4.73873 0
M  V30 19984 H 1878.94 5.48579 4.26715 0
M  V30 19985 H 1882.13 3.50964 3.09745 0
M  V30 19986 H 1882.3 5.02196 4.09516 0
M  V30 19987 N 1875.71 -1.15554 1.07168 0
M  V30 19988 C 1876.66 -2.20234 0.690348 0
M  V30 19989 C 1877.63 -1.6304 -0.317346 0
M  V30 19990 O 1878.81 -1.89704 -0.20422 0
M  V30 19991 C 1875.95 -3.44976 0.0923404 0
M  V30 19992 C 1875.06 -4.16377 1.15128 0
M  V30 19993 C 1874.2 -5.28664 0.518478 0
M  V30 19994 C 1873.24 -5.91878 1.56034 0
M  V30 19995 N 1872.37 -6.9564 0.950251 0
M  V30 19996 H 1877.21 -2.52203 1.58738 0
M  V30 19997 H 1874.75 -1.23863 0.793502 0
M  V30 19998 H 1876.71 -4.16312 -0.271985 0
M  V30 19999 H 1875.34 -3.1353 -0.768054 0
M  V30 20000 H 1874.39 -3.43556 1.63321 0
M  V30 20001 H 1875.7 -4.59472 1.94132 0
M  V30 20002 H 1874.86 -6.06615 0.101683 0
M  V30 20003 H 1873.6 -4.86756 -0.303345 0
M  V30 20004 H 1872.6 -5.12641 1.98694 0
M  V30 20005 H 1873.83 -6.35864 2.38442 0
M  V30 20006 H 1871.77 -6.5583 0.149298 0
M  V30 20007 H 1871.69 -7.37153 1.67755 0
M  V30 20008 H 1872.96 -7.77494 0.558895 0
M  V30 20009 N 1877.19 -0.855519 -1.32358 0
M  V30 20010 C 1878.14 -0.27253 -2.26365 0
M  V30 20011 C 1879.12 0.582114 -1.50001 0
M  V30 20012 O 1880.31 0.431356 -1.71663 0
M  V30 20013 C 1877.44 0.53739 -3.39068 0
M  V30 20014 C 1876.53 -0.329689 -4.22817 0
M  V30 20015 N 1876.92 -1.41635 -4.85565 0
M  V30 20016 C 1875.22 -0.11959 -4.4584 0
M  V30 20017 C 1875.92 -1.94986 -5.48047 0
M  V30 20018 N 1874.89 -1.2489 -5.29059 0
M  V30 20019 H 1878.7 -1.10327 -2.72406 0
M  V30 20020 H 1876.21 -0.701726 -1.46457 0
M  V30 20021 H 1878.21 0.971464 -4.05423 0
M  V30 20022 H 1876.87 1.36591 -2.94572 0
M  V30 20023 H 1877.88 -1.79928 -4.8564 0
M  V30 20024 H 1874.56 0.674149 -4.12021 0
M  V30 20025 H 1875.95 -2.86078 -6.07955 0
M  V30 20026 N 1878.67 1.45167 -0.61354 0
M  V30 20027 C 1879.89 2.06565 -0.117608 0
M  V30 20028 C 1880.31 1.45716 1.20051 0
M  V30 20029 O 1879.67 0.573512 1.73254 0
M  V30 20030 C 1879.72 3.61493 0.0221474 0
M  V30 20031 O 1879.44 4.20072 -1.24383 0
M  V30 20032 C 1880.94 4.39889 0.548841 0
M  V30 20033 H 1878.16 0.667172 -0.0715756 0
M  V30 20034 H 1880.7 1.86318 -0.84296 0
M  V30 20035 H 1878.86 3.81063 0.697854 0
M  V30 20036 H 1879.27 5.13317 -1.07733 0
M  V30 20037 H 1880.75 5.48776 0.595696 0
M  V30 20038 H 1881.22 4.1009 1.57234 0
M  V30 20039 H 1881.83 4.25198 -0.0930203 0
M  V30 20040 N 1880.14 0.353044 1.53595 0
M  V30 20041 C 1881.09 -0.515504 2.22096 0
M  V30 20042 C 1882.08 -1.05861 1.2117 0
M  V30 20043 O 1883.27 -0.990737 1.46674 0
M  V30 20044 C 1880.4 -1.66112 3.00436 0
M  V30 20045 C 1879.48 -1.1315 4.08727 0
M  V30 20046 N 1879.88 -0.323846 5.04762 0
M  V30 20047 C 1878.17 -1.4075 4.23209 0
M  V30 20048 C 1878.87 -0.0353104 5.81689 0
M  V30 20049 N 1877.85 -0.629542 5.39942 0
M  V30 20050 H 1881.65 0.108512 2.937 0
M  V30 20051 H 1879.17 0.1604 1.61606 0
M  V30 20052 H 1881.16 -2.29541 3.48018 0
M  V30 20053 H 1879.82 -2.28832 2.3036 0
M  V30 20054 H 1880.83 0.0358889 5.17888 0
M  V30 20055 H 1877.51 -2.0384 3.64357 0
M  V30 20056 H 1878.9 0.616806 6.69063 0
M  V30 20057 N 1881.62 -1.57387 0.0818932 0
M  V30 20058 C 1882.55 -2.16318 -0.879124 0
M  V30 20059 C 1883.53 -1.09293 -1.30342 0
M  V30 20060 O 1884.72 -1.37373 -1.37267 0
M  V30 20061 C 1881.85 -2.73293 -2.14308 0
M  V30 20062 C 1880.8 -3.85575 -1.85785 0
M  V30 20063 C 1880.13 -4.29195 -3.18897 0
M  V30 20064 C 1881.43 -5.09365 -1.15517 0
M  V30 20065 H 1883.12 -2.96873 -0.388166 0
M  V30 20066 H 1880.67 -1.42803 -0.185265 0
M  V30 20067 H 1882.62 -3.13168 -2.81964 0
M  V30 20068 H 1881.34 -1.89974 -2.65664 0
M  V30 20069 H 1880 -3.46219 -1.20532 0
M  V30 20070 H 1879.65 -3.42784 -3.68114 0
M  V30 20071 H 1879.35 -5.04889 -3.006 0
M  V30 20072 H 1880.88 -4.71694 -3.87734 0
M  V30 20073 H 1882.29 -5.46493 -1.73259 0
M  V30 20074 H 1880.69 -5.90403 -1.07444 0
M  V30 20075 H 1881.76 -4.8471 -0.135822 0
M  V30 20076 N 1883.1 0.191729 -1.56429 0
M  V30 20077 C 1884.35 0.911598 -1.80821 0
M  V30 20078 C 1884.67 1.83115 -0.655667 0
M  V30 20079 O 1883.93 1.92391 0.35837 0
M  V30 20080 C 1884.23 1.75708 -3.11226 0
M  V30 20081 C 1883.89 0.988211 -4.39938 0
M  V30 20082 C 1882.56 0.775937 -4.74903 0
M  V30 20083 C 1884.91 0.447459 -5.19276 0
M  V30 20084 C 1882.24 0.0114851 -5.86699 0
M  V30 20085 C 1884.59 -0.303799 -6.3187 0
M  V30 20086 C 1883.25 -0.527059 -6.65416 0
M  V30 20087 H 1882.52 0.333577 -0.66167 0
M  V30 20088 H 1885.17 0.177758 -1.90673 0
M  V30 20089 H 1883.47 2.5597 -2.96626 0
M  V30 20090 H 1885.17 2.31674 -3.27304 0
M  V30 20091 H 1881.76 1.16368 -4.125 0
M  V30 20092 H 1885.95 0.59885 -4.92674 0
M  V30 20093 H 1881.2 -0.171429 -6.1116 0
M  V30 20094 H 1885.38 -0.730171 -6.92562 0
M  V30 20095 H 1883 -1.12131 -7.51885 0
M  V30 20096 N 1884.58 1.50751 0.459565 0
M  V30 20097 C 1885.51 1.73389 1.56392 0
M  V30 20098 C 1886.49 0.583101 1.59793 0
M  V30 20099 O 1887.67 0.823474 1.75876 0
M  V30 20100 C 1884.8 1.83861 2.94639 0
M  V30 20101 C 1883.76 2.9914 3.06103 0
M  V30 20102 C 1883.08 2.94768 4.46112 0
M  V30 20103 C 1884.38 4.39471 2.82246 0
M  V30 20104 H 1886.08 2.65856 1.37699 0
M  V30 20105 H 1883.62 1.27933 0.661001 0
M  V30 20106 H 1885.58 1.98283 3.71836 0
M  V30 20107 H 1884.3 0.880254 3.14514 0
M  V30 20108 H 1882.96 2.84388 2.31342 0
M  V30 20109 H 1882.61 1.96755 4.62922 0
M  V30 20110 H 1882.31 3.72166 4.54716 0
M  V30 20111 H 1883.83 3.11254 5.25313 0
M  V30 20112 H 1885.25 4.54689 3.49186 0
M  V30 20113 H 1883.64 5.18406 3.02283 0
M  V30 20114 H 1884.71 4.51043 1.78012 0
M  V30 20115 N 1886.06 -0.713531 1.40522 0
M  V30 20116 C 1887 -1.84894 1.41127 0
M  V30 20117 C 1888 -1.66873 0.291521 0
M  V30 20118 O 1889.2 -1.73952 0.46266 0
M  V30 20119 H 1885.58 -0.608985 0.441182 0
M  V30 20120 H 1887.55 -1.815 2.36855 0
M  V30 20121 C 1886.3 -3.22774 1.29276 0
M  V30 20122 H 1885.62 -3.37248 2.14718 0
M  V30 20123 H 1887.06 -4.02349 1.33759 0
M  V30 20124 C 1885.52 -3.369 0.00320525 0
M  V30 20125 O 1886.05 -3.90086 -0.958942 0
M  V30 20126 N 1884.26 -2.90523 -0.0669733 0
M  V30 20127 H 1883.8 -2.47428 0.716722 0
M  V30 20128 H 1883.76 -3.00353 -0.929262 0
M  V30 20129 N 1887.53 -1.26053 -0.945962 0
M  V30 20130 C 1888.46 -1.09687 -2.06134 0
M  V30 20131 C 1889.44 -0.00341513 -1.701 0
M  V30 20132 O 1890.63 -0.174559 -1.93414 0
M  V30 20133 C 1887.76 -0.724007 -3.3967 0
M  V30 20134 C 1886.71 -1.76866 -3.89747 0
M  V30 20135 C 1886.04 -1.25025 -5.19878 0
M  V30 20136 C 1887.34 -3.16923 -4.15159 0
M  V30 20137 H 1889.03 -2.02986 -2.20084 0
M  V30 20138 H 1886.58 -0.977346 -1.05754 0
M  V30 20139 H 1888.53 -0.596411 -4.17158 0
M  V30 20140 H 1887.26 0.244695 -3.25682 0
M  V30 20141 H 1885.92 -1.88485 -3.14435 0
M  V30 20142 H 1885.56 -0.271527 -5.02267 0
M  V30 20143 H 1885.26 -1.94853 -5.54352 0
M  V30 20144 H 1886.79 -1.13523 -5.99954 0
M  V30 20145 H 1888.2 -3.08409 -4.83277 0
M  V30 20146 H 1886.6 -3.84299 -4.60906 0
M  V30 20147 H 1887.67 -3.63337 -3.21114 0
M  V30 20148 N 1889.01 1.14984 -1.07779 0
M  V30 20149 C 1889.94 2.22006 -0.723564 0
M  V30 20150 C 1890.92 1.67592 0.291024 0
M  V30 20151 O 1892.11 1.93516 0.162812 0
M  V30 20152 C 1889.24 3.47074 -0.125223 0
M  V30 20153 C 1888.19 4.14475 -1.06745 0
M  V30 20154 C 1887.52 5.33671 -0.331643 0
M  V30 20155 C 1888.82 4.63744 -2.4029 0
M  V30 20156 H 1890.51 2.51893 -1.61834 0
M  V30 20157 H 1888.06 1.21073 -0.779571 0
M  V30 20158 H 1890.01 4.21185 0.134555 0
M  V30 20159 H 1888.73 3.16533 0.804654 0
M  V30 20160 H 1887.39 3.4231 -1.31222 0
M  V30 20161 H 1887.04 4.99387 0.601833 0
M  V30 20162 H 1886.74 5.7971 -0.959721 0
M  V30 20163 H 1888.27 6.10548 -0.0797668 0
M  V30 20164 H 1889.68 5.2936 -2.20115 0
M  V30 20165 H 1888.08 5.20461 -2.98732 0
M  V30 20166 H 1889.15 3.79151 -3.02279 0
M  V30 20167 N 1890.49 0.862526 1.31902 0
M  V30 20168 C 1891.74 0.468847 1.96586 0
M  V30 20169 C 1892.06 -0.980535 1.68554 0
M  V30 20170 O 1891.33 -1.68635 0.996952 0
M  V30 20171 H 1889.91 0.170387 0.727308 0
M  V30 20172 H 1892.57 1.10068 1.60845 0
M  V30 20173 H 1891.67 0.620415 3.05871 0
M  V30 20174 N 1891.97 -1.4484 0.62123 0
M  V30 20175 C 1892.9 -2.33374 -0.0766286 0
M  V30 20176 C 1893.88 -1.47631 -0.844932 0
M  V30 20177 O 1895.06 -1.76373 -0.81278 0
M  V30 20178 C 1892.19 -3.30552 -1.0655 0
M  V30 20179 C 1891.15 -4.26037 -0.409496 0
M  V30 20180 C 1890.47 -5.13007 -1.50757 0
M  V30 20181 C 1891.77 -5.17881 0.677994 0
M  V30 20182 H 1893.47 -2.91975 0.662658 0
M  V30 20183 H 1891.01 -1.40397 0.320117 0
M  V30 20184 H 1892.97 -3.91367 -1.56237 0
M  V30 20185 H 1891.69 -2.70139 -1.83555 0
M  V30 20186 H 1890.35 -3.66539 0.0666321 0
M  V30 20187 H 1890 -4.48954 -2.26825 0
M  V30 20188 H 1889.7 -5.777 -1.07407 0
M  V30 20189 H 1891.22 -5.76692 -2.00645 0
M  V30 20190 H 1892.64 -5.72689 0.264637 0
M  V30 20191 H 1891.03 -5.91124 1.03405 0
M  V30 20192 H 1892.1 -4.59488 1.54914 0
M  V30 20193 N 1893.45 -0.361184 -1.53405 0
M  V30 20194 C 1894.38 0.530831 -2.2194 0
M  V30 20195 C 1895.36 1.08647 -1.20974 0
M  V30 20196 O 1896.54 1.14343 -1.4986 0
M  V30 20197 C 1893.67 1.73198 -2.91067 0
M  V30 20198 C 1892.71 1.30419 -4.0607 0
M  V30 20199 S 1893.55 0.30917 -5.34607 0
M  V30 20200 C 1894.7 1.51675 -6.07244 0
M  V30 20201 H 1894.94 -0.0512313 -2.97256 0
M  V30 20202 H 1892.47 -0.145281 -1.53715 0
M  V30 20203 H 1894.43 2.42098 -3.3151 0
M  V30 20204 H 1893.09 2.28528 -2.15485 0
M  V30 20205 H 1892.28 2.20024 -4.53437 0
M  V30 20206 H 1891.88 0.694455 -3.67496 0
M  V30 20207 H 1894.18 2.44847 -6.31709 0
M  V30 20208 H 1895.12 1.08454 -6.99745 0
M  V30 20209 H 1895.53 1.7208 -5.37632 0
M  V30 20210 N 1894.92 1.57341 -0.0902386 0
M  V30 20211 C 1895.85 2.16782 0.86764 0
M  V30 20212 C 1896.84 1.09982 1.29761 0
M  V30 20213 O 1898.02 1.38099 1.36537 0
M  V30 20214 C 1895.15 2.74426 2.12856 0
M  V30 20215 C 1894.1 3.86555 1.83738 0
M  V30 20216 C 1893.43 4.3088 3.16617 0
M  V30 20217 C 1894.73 5.09971 1.12814 0
M  V30 20218 H 1896.42 2.97075 0.372417 0
M  V30 20219 H 1893.97 1.42899 0.177689 0
M  V30 20220 H 1895.92 3.14659 2.80299 0
M  V30 20221 H 1894.65 1.9138 2.64653 0
M  V30 20222 H 1893.31 3.46853 1.18694 0
M  V30 20223 H 1892.95 3.44732 3.66291 0
M  V30 20224 H 1892.65 5.06477 2.97918 0
M  V30 20225 H 1894.18 4.73743 3.85227 0
M  V30 20226 H 1895.59 5.47404 1.70358 0
M  V30 20227 H 1893.99 5.90965 1.04311 0
M  V30 20228 H 1895.06 4.84775 0.110114 0
M  V30 20229 N 1896.4 -0.183431 1.56529 0
M  V30 20230 C 1897.63 -0.921964 1.85781 0
M  V30 20231 C 1898.05 -1.75564 0.675184 0
M  V30 20232 O 1897.41 -1.7736 -0.375913 0
M  V30 20233 C 1897.46 -1.7844 3.13355 0
M  V30 20234 O 1896.56 -2.88461 2.94727 0
M  V30 20235 H 1895.9 -0.258974 0.611415 0
M  V30 20236 H 1898.43 -0.185225 2.0376 0
M  V30 20237 H 1898.44 -2.18675 3.44449 0
M  V30 20238 H 1897.12 -1.17195 3.99047 0
M  V30 20239 H 1895.7 -2.51897 2.74959 0
M  V30 20240 N 1897.88 -1.50992 -0.451564 0
M  V30 20241 C 1899.12 -1.64605 -1.21179 0
M  V30 20242 C 1899.48 -0.347889 -1.88822 0
M  V30 20243 O 1900.69 -0.359643 -2.66383 0
M  V30 20244 C 1898.96 -2.8067 -2.21267 0
M  V30 20245 S 1900.52 -3.14531 -3.05967 0
M  V30 20246 H 1897.33 -0.58007 -0.411145 0
M  V30 20247 H 1899.94 -1.88849 -0.505611 0
M  V30 20248 H 1898.64 -3.73449 -1.70187 0
M  V30 20249 H 1898.17 -2.58572 -2.96486 0
M  V30 20250 H 1900.19 -2.59864 -4.22712 0
M  V30 20251 N 1899.36 0.706069 -1.40899 0
M  V30 20252 C 1900.61 1.46315 -1.39415 0
M  V30 20253 C 1900.93 1.95 -0.000496593 0
M  V30 20254 O 1900.2 1.70995 0.955904 0
M  V30 20255 H 1898.78 0.542863 -0.513136 0
M  V30 20256 H 1901.44 0.836396 -1.76041 0
M  V30 20257 H 1900.54 2.33139 -2.07491 0
M  V30 20258 N 1900.84 1.26553 0.939264 0
M  V30 20259 C 1902.09 1.11599 1.68014 0
M  V30 20260 C 1902.4 -0.339956 1.92623 0
M  V30 20261 O 1903.6 -0.610203 2.64554 0
M  V30 20262 C 1902.06 1.94913 3.02551 0
M  V30 20263 C 1901.67 3.45094 2.85682 0
M  V30 20264 C 1903.41 1.88574 3.80316 0
M  V30 20265 C 1901.32 4.20648 4.15703 0
M  V30 20266 H 1900.25 0.414037 0.630151 0
M  V30 20267 H 1902.9 1.50878 1.04441 0
M  V30 20268 H 1901.28 1.48469 3.67115 0
M  V30 20269 H 1902.46 3.99321 2.29956 0
M  V30 20270 H 1900.77 3.5269 2.21357 0
M  V30 20271 H 1903.37 2.42307 4.76646 0
M  V30 20272 H 1903.71 0.856867 4.07386 0
M  V30 20273 H 1904.24 2.32852 3.22529 0
M  V30 20274 H 1900.98 5.24013 3.93816 0
M  V30 20275 H 1900.5 3.71202 4.71136 0
M  V30 20276 H 1902.18 4.29199 4.84146 0
M  V30 20277 N 1902.31 -1.14411 1.08387 0
M  V30 20278 C 1903.73 -1.67013 0.83448 0
M  V30 20279 C 1904.08 -1.85509 -0.638802 0
M  V30 20280 O 1903.2 -1.56611 -1.49338 0
M  V30 20281 C 1903.8 -3.03377 1.50825 0
M  V30 20282 C 1902.36 -3.53013 1.3061 0
M  V30 20283 C 1901.5 -2.28494 1.57117 0
M  V30 20284 H 1904.45 -0.984794 1.24449 0
M  V30 20285 H 1904.47 -3.68824 0.935352 0
M  V30 20286 H 1903.99 -2.89883 2.5805 0
M  V30 20287 H 1902.09 -3.7173 0.254538 0
M  V30 20288 H 1902.2 -4.33799 2.0336 0
M  V30 20289 H 1900.56 -2.34558 0.99271 0
M  V30 20290 H 1901.35 -2.17576 2.65547 0
M  V30 20291 N 1903.79 -0.869509 -1.31443 0
M  V30 20292 C 1904.7 -0.328352 -2.32291 0
M  V30 20293 C 1905.72 0.561491 -1.64691 0
M  V30 20294 O 1906.89 0.458316 -1.96116 0
M  V30 20295 C 1903.96 0.461733 -3.43612 0
M  V30 20296 C 1903.02 -0.456015 -4.26871 0
M  V30 20297 C 1902.25 0.296458 -5.32876 0
M  V30 20298 O 1902.48 1.5246 -5.49647 0
M  V30 20299 O 1901.41 -0.345443 -6.00908 0
M  V30 20300 H 1905.24 -1.16424 -2.80498 0
M  V30 20301 H 1902.82 -0.632869 -1.35333 0
M  V30 20302 H 1904.7 0.90965 -4.11465 0
M  V30 20303 H 1903.38 1.27418 -2.97567 0
M  V30 20304 H 1902.29 -0.952421 -3.61773 0
M  V30 20305 H 1903.62 -1.23404 -4.76479 0
M  V30 20306 N 1905.27 1.44508 -0.628902 0
M  V30 20307 C 1906.2 2.33412 0.0642512 0
M  V30 20308 C 1907.18 1.48077 0.837091 0
M  V30 20309 O 1908.37 1.76802 0.803415 0
M  V30 20310 C 1905.5 3.31112 1.04795 0
M  V30 20311 C 1904.45 4.26248 0.386897 0
M  V30 20312 C 1903.78 5.13799 1.48035 0
M  V30 20313 C 1905.08 5.17514 -0.705449 0
M  V30 20314 H 1906.77 2.91619 -0.678133 0
M  V30 20315 H 1904.32 1.40225 -0.327558 0
M  V30 20316 H 1906.27 3.9219 1.54159 0
M  V30 20317 H 1904.99 2.71109 1.8212 0
M  V30 20318 H 1903.65 3.66499 -0.0860697 0
M  V30 20319 H 1903.3 4.5015 2.24441 0
M  V30 20320 H 1903 5.78262 1.04342 0
M  V30 20321 H 1904.52 5.77748 1.97583 0
M  V30 20322 H 1905.94 5.7254 -0.295004 0
M  V30 20323 H 1904.34 5.90567 -1.06538 0
M  V30 20324 H 1905.41 4.5866 -1.57349 0
M  V30 20325 N 1906.75 0.369315 1.53212 0
M  V30 20326 C 1907.97 -0.222451 2.06204 0
M  V30 20327 C 1908.4 -1.41373 1.24077 0
M  V30 20328 O 1907.76 -1.79415 0.260767 0
M  V30 20329 C 1907.81 -0.590386 3.55734 0
M  V30 20330 O 1906.91 -1.68711 3.76311 0
M  V30 20331 H 1906.25 -0.0315041 0.663252 0
M  V30 20332 H 1908.78 0.531 1.97589 0
M  V30 20333 H 1908.79 -0.860345 3.98826 0
M  V30 20334 H 1907.47 0.28067 4.14952 0
M  V30 20335 H 1906.04 -1.41242 3.45116 0
M  V30 20336 N 1908.23 -1.57291 0.0985816 0
M  V30 20337 C 1909.5 -1.85951 -0.606759 0
M  V30 20338 C 1909.88 -0.996077 -1.86122 0
M  V30 20339 O 1909.23 -0.0694281 -2.28394 0
M  V30 20340 C 1909.44 -3.36688 -0.918803 0
M  V30 20341 C 1910.79 -4.04824 -1.28074 0
M  V30 20342 O 1911.81 -3.41589 -1.00971 0
M  V30 20343 O 1910.67 -5.16406 -1.7885 0
M  V30 20344 H 1907.77 -0.769103 -0.30399 0
M  V30 20345 H 1910.31 -1.69189 0.131543 0
M  V30 20346 H 1909.09 -3.91289 -0.0289848 0
M  V30 20347 H 1908.71 -3.58808 -1.71296 0
M  V30 20348 N 1909.71 0.175127 -1.56624 0
M  V30 20349 C 1910.64 1.21918 -1.99144 0
M  V30 20350 C 1911.62 1.4638 -0.866428 0
M  V30 20351 O 1912.8 1.57779 -1.13223 0
M  V30 20352 C 1909.93 2.55897 -2.34807 0
M  V30 20353 C 1908.89 2.46011 -3.50232 0
M  V30 20354 C 1908.21 3.84445 -3.71626 0
M  V30 20355 C 1909.51 1.96808 -4.83801 0
M  V30 20356 H 1911.21 0.86575 -2.8661 0
M  V30 20357 H 1908.75 0.415014 -1.3789 0
M  V30 20358 H 1910.7 3.29136 -2.63149 0
M  V30 20359 H 1909.43 2.9302 -1.44245 0
M  V30 20360 H 1908.09 1.75227 -3.22011 0
M  V30 20361 H 1907.74 4.18955 -2.78362 0
M  V30 20362 H 1907.44 3.787 -4.49288 0
M  V30 20363 H 1908.96 4.59276 -4.02366 0
M  V30 20364 H 1910.37 2.59819 -5.11045 0
M  V30 20365 H 1908.77 2.0202 -5.65073 0
M  V30 20366 H 1909.84 0.922209 -4.7605 0
M  V30 20367 N 1911.18 1.5123 0.44355 0
M  V30 20368 C 1912.09 1.74928 1.56324 0
M  V30 20369 C 1913.11 0.633267 1.62067 0
M  V30 20370 O 1914.29 0.914808 1.79425 0
M  V30 20371 C 1911.35 1.86361 2.92354 0
M  V30 20372 C 1910.41 3.10196 2.96778 0
M  V30 20373 C 1909.64 3.21073 4.26319 0
M  V30 20374 O 1909.87 2.38043 5.18355 0
M  V30 20375 O 1908.8 4.14008 4.369 0
M  V30 20376 H 1912.63 2.69898 1.39243 0
M  V30 20377 H 1910.21 1.35656 0.62592 0
M  V30 20378 H 1912.09 1.95901 3.73096 0
M  V30 20379 H 1910.77 0.945775 3.09575 0
M  V30 20380 H 1909.68 3.06138 2.15013 0
M  V30 20381 H 1911.01 4.01648 2.84499 0
M  V30 20382 N 1912.66 -0.698586 1.41271 0
M  V30 20383 C 1913.94 -1.45291 1.30957 0
M  V30 20384 C 1914.32 -2.11002 -0.0642533 0
M  V30 20385 O 1913.67 -2.01458 -1.07829 0
M  V30 20386 C 1913.88 -2.4748 2.46078 0
M  V30 20387 C 1915.22 -3.1282 2.87104 0
M  V30 20388 O 1916.25 -2.57804 2.45796 0
M  V30 20389 O 1915.11 -4.12458 3.58525 0
M  V30 20390 H 1912.2 -0.646905 0.515212 0
M  V30 20391 H 1914.75 -0.72932 1.53229 0
M  V30 20392 H 1913.52 -1.97558 3.37767 0
M  V30 20393 H 1913.14 -3.27353 2.25668 0
M  V30 20394 N 1914.14 -1.27049 -0.93254 0
M  V30 20395 C 1915.07 -1.11867 -2.04959 0
M  V30 20396 C 1916.05 -0.0214563 -1.70086 0
M  V30 20397 O 1917.24 -0.195063 -1.93218 0
M  V30 20398 C 1914.37 -0.759993 -3.38883 0
M  V30 20399 C 1913.32 -1.8099 -3.87849 0
M  V30 20400 C 1912.65 -1.30532 -5.18522 0
M  V30 20401 C 1913.95 -3.21309 -4.11774 0
M  V30 20402 H 1915.64 -2.05309 -2.17918 0
M  V30 20403 H 1913.19 -0.988507 -1.04712 0
M  V30 20404 H 1915.14 -0.640623 -4.16502 0
M  V30 20405 H 1913.86 0.210139 -3.25923 0
M  V30 20406 H 1912.52 -1.91809 -3.12418 0
M  V30 20407 H 1912.17 -0.324784 -5.0195 0
M  V30 20408 H 1911.87 -2.00722 -5.52254 0
M  V30 20409 H 1913.39 -1.19879 -5.98716 0
M  V30 20410 H 1914.81 -3.13517 -4.79979 0
M  V30 20411 H 1913.2 -3.89166 -4.56804 0
M  V30 20412 H 1914.27 -3.66722 -3.17243 0
M  V30 20413 N 1915.62 1.13835 -1.08993 0
M  V30 20414 C 1916.56 2.19107 -0.725298 0
M  V30 20415 C 1917.53 1.63524 0.291368 0
M  V30 20416 O 1918.72 1.90005 0.174014 0
M  V30 20417 C 1915.86 3.44786 -0.147212 0
M  V30 20418 C 1914.97 4.14492 -1.21738 0
M  V30 20419 C 1914.11 5.27772 -0.602519 0
M  V30 20420 C 1913.15 5.89321 -1.65431 0
M  V30 20421 N 1912.28 6.9404 -1.0608 0
M  V30 20422 H 1917.12 2.49646 -1.6273 0
M  V30 20423 H 1914.66 1.22585 -0.813108 0
M  V30 20424 H 1916.62 4.16692 0.205719 0
M  V30 20425 H 1915.25 3.14712 0.718077 0
M  V30 20426 H 1914.3 3.40914 -1.68766 0
M  V30 20427 H 1915.61 4.56325 -2.01417 0
M  V30 20428 H 1914.77 6.06376 -0.198177 0
M  V30 20429 H 1913.51 4.87177 0.225868 0
M  V30 20430 H 1912.51 5.09415 -2.06824 0
M  V30 20431 H 1913.74 6.3199 -2.48528 0
M  V30 20432 H 1911.68 6.5551 -0.253616 0
M  V30 20433 H 1911.6 7.34391 -1.79461 0
M  V30 20434 H 1912.87 7.76506 -0.682517 0
M  V30 20435 N 1917.1 0.876467 1.3098 0
M  V30 20436 C 1918.33 0.504582 2.00344 0
M  V30 20437 C 1918.73 -0.909186 1.65923 0
M  V30 20438 O 1918.08 -1.60812 0.887988 0
M  V30 20439 C 1918.14 0.589519 3.54634 0
M  V30 20440 C 1917.8 1.96607 4.12547 0
M  V30 20441 C 1918.8 2.9344 4.29172 0
M  V30 20442 C 1916.48 2.26914 4.48124 0
M  V30 20443 C 1918.48 4.18721 4.80574 0
M  V30 20444 C 1916.17 3.52443 4.99227 0
M  V30 20445 C 1917.16 4.48161 5.15403 0
M  V30 20446 O 1916.85 5.71464 5.65406 0
M  V30 20447 H 1916.58 0.194422 0.647438 0
M  V30 20448 H 1919.14 1.18126 1.68034 0
M  V30 20449 H 1917.37 -0.144102 3.86431 0
M  V30 20450 H 1919.06 0.230131 4.05247 0
M  V30 20451 H 1919.82 2.71335 4.01998 0
M  V30 20452 H 1915.7 1.53184 4.34805 0
M  V30 20453 H 1919.25 4.9344 4.93115 0
M  V30 20454 H 1915.14 3.74389 5.25836 0
M  V30 20455 H 1915.91 5.73727 5.83764 0
M  V30 20456 N 1918.57 -1.44173 0.636557 0
M  V30 20457 C 1919.82 -2.02292 0.143429 0
M  V30 20458 C 1920.15 -1.49996 -1.23348 0
M  V30 20459 O 1919.43 -0.686228 -1.81992 0
M  V30 20460 C 1919.71 -3.59843 0.136025 0
M  V30 20461 C 1919.56 -4.22409 1.54566 0
M  V30 20462 C 1920.88 -4.36817 -0.536538 0
M  V30 20463 H 1918 -0.735049 0.0535939 0
M  V30 20464 H 1920.64 -1.71677 0.814066 0
M  V30 20465 H 1918.79 -3.86056 -0.435048 0
M  V30 20466 H 1920.47 -4.07284 2.16604 0
M  V30 20467 H 1918.71 -3.79696 2.09793 0
M  V30 20468 H 1919.38 -5.31441 1.49247 0
M  V30 20469 H 1921.86 -4.16069 -0.0508327 0
M  V30 20470 H 1920.73 -5.46517 -0.510926 0
M  V30 20471 H 1920.99 -4.11827 -1.60783 0
M  V30 20472 N 1920.05 -0.377435 -1.53014 0
M  V30 20473 C 1921.28 0.208641 -2.05544 0
M  V30 20474 C 1921.69 1.42037 -1.24988 0
M  V30 20475 O 1921.03 1.81451 -0.286565 0
M  V30 20476 C 1921.09 0.654786 -3.53487 0
M  V30 20477 C 1920.76 -0.441865 -4.54859 0
M  V30 20478 C 1921.76 -1.29552 -5.035 0
M  V30 20479 C 1919.44 -0.605501 -4.98637 0
M  V30 20480 C 1921.43 -2.29804 -5.94533 0
M  V30 20481 C 1919.12 -1.61137 -5.89473 0
M  V30 20482 C 1920.12 -2.45607 -6.37312 0
M  V30 20483 O 1919.81 -3.44477 -7.26355 0
M  V30 20484 H 1919.54 0.0379445 -0.674934 0
M  V30 20485 H 1922.09 -0.537644 -1.98239 0
M  V30 20486 H 1920.32 1.45286 -3.5837 0
M  V30 20487 H 1922.01 1.16519 -3.88816 0
M  V30 20488 H 1922.78 -1.18035 -4.70418 0
M  V30 20489 H 1918.66 0.042229 -4.60981 0
M  V30 20490 H 1922.2 -2.95771 -6.31795 0
M  V30 20491 H 1918.1 -1.72697 -6.21969 0
M  V30 20492 H 1918.87 -3.40345 -7.44384 0
M  V30 20493 N 1921.53 1.57237 -0.106922 0
M  V30 20494 C 1922.81 1.8627 0.596889 0
M  V30 20495 C 1923.19 1.00593 1.85591 0
M  V30 20496 O 1922.54 0.0815394 2.28354 0
M  V30 20497 C 1922.75 3.37171 0.900934 0
M  V30 20498 C 1924.09 4.05497 1.25926 0
M  V30 20499 O 1925.12 3.4212 0.99158 0
M  V30 20500 O 1923.98 5.17347 1.76109 0
M  V30 20501 H 1921.07 0.770704 0.299907 0
M  V30 20502 H 1923.62 1.69117 -0.140513 0
M  V30 20503 H 1922.39 3.91299 0.00823337 0
M  V30 20504 H 1922.01 3.59712 1.69391 0
M  V30 20505 N 1923.01 -0.166818 1.56715 0
M  V30 20506 C 1923.97 -1.19027 1.95871 0
M  V30 20507 C 1924.97 -1.36939 0.842877 0
M  V30 20508 O 1926.16 -1.34268 1.10985 0
M  V30 20509 C 1923.29 -2.55446 2.25743 0
M  V30 20510 H 1924.49 -0.854834 2.87459 0
M  V30 20511 H 1922.04 -0.409436 1.50842 0
M  V30 20512 H 1922.77 -2.93996 1.36884 0
M  V30 20513 H 1922.56 -2.4381 3.07081 0
M  V30 20514 H 1924.05 -3.29196 2.56943 0
M  V30 20515 N 1924.49 -1.51463 -0.435524 0
M  V30 20516 C 1925.42 -1.75856 -1.53613 0
M  V30 20517 C 1926.4 -0.608449 -1.58846 0
M  V30 20518 O 1927.58 -0.85135 -1.74544 0
M  V30 20519 C 1924.71 -1.88525 -2.91677 0
M  V30 20520 C 1923.67 -3.03972 -3.01305 0
M  V30 20521 C 1922.99 -3.01828 -4.41366 0
M  V30 20522 C 1924.29 -4.43905 -2.75219 0
M  V30 20523 H 1925.99 -2.68013 -1.33452 0
M  V30 20524 H 1923.53 -1.28968 -0.640564 0
M  V30 20525 H 1925.49 -2.04173 -3.68634 0
M  V30 20526 H 1924.21 -0.930179 -3.13074 0
M  V30 20527 H 1922.87 -2.88033 -2.26788 0
M  V30 20528 H 1922.52 -2.04095 -4.59733 0
M  V30 20529 H 1922.22 -3.79353 -4.48737 0
M  V30 20530 H 1923.74 -3.19572 -5.20294 0
M  V30 20531 H 1925.15 -4.60187 -3.41908 0
M  V30 20532 H 1923.55 -5.2315 -2.93998 0
M  V30 20533 H 1924.62 -4.53818 -1.70814 0
M  V30 20534 N 1925.96 0.691085 -1.4164 0
M  V30 20535 C 1927.38 1.00223 -1.24207 0
M  V30 20536 C 1927.58 2.0105 -0.134625 0
M  V30 20537 O 1926.64 2.4751 0.499509 0
M  V30 20538 C 1927.95 1.52256 -2.59304 0
M  V30 20539 C 1929.5 1.64117 -2.66523 0
M  V30 20540 C 1929.97 2.19551 -4.01947 0
M  V30 20541 N 1931.46 2.26906 -4.03817 0
M  V30 20542 C 1932.2 2.70835 -5.05407 0
M  V30 20543 N 1931.69 3.14337 -6.17385 0
M  V30 20544 N 1933.49 2.70439 -4.92767 0
M  V30 20545 H 1925.64 0.0232257 -2.12387 0
M  V30 20546 H 1927.9 0.0728626 -0.945196 0
M  V30 20547 H 1927.61 0.856261 -3.41117 0
M  V30 20548 H 1927.48 2.50399 -2.821 0
M  V30 20549 H 1929.87 2.29858 -1.85066 0
M  V30 20550 H 1929.95 0.645083 -2.47532 0
M  V30 20551 H 1929.59 1.54424 -4.83855 0
M  V30 20552 H 1929.52 3.1992 -4.18281 0
M  V30 20553 H 1932.01 1.96212 -3.22969 0
M  V30 20554 H 1932.33 3.46496 -6.90768 0
M  V30 20555 H 1930.67 3.12235 -6.20914 0
M  V30 20556 H 1933.86 2.35806 -4.04368 0
M  V30 20557 H 1934.04 3.04357 -5.72076 0
M  V30 20558 N 1927.44 1.27542 0.925789 0
M  V30 20559 C 1928.85 1.12679 1.48864 0
M  V30 20560 C 1929.2 -0.287536 1.94082 0
M  V30 20561 O 1928.33 -1.18064 1.81356 0
M  V30 20562 C 1928.92 2.03934 2.70548 0
M  V30 20563 C 1927.48 1.93171 3.23051 0
M  V30 20564 C 1926.63 1.96378 1.95783 0
M  V30 20565 H 1929.58 1.40407 0.739703 0
M  V30 20566 H 1929.6 1.59628 3.45397 0
M  V30 20567 H 1929.11 3.06863 2.37607 0
M  V30 20568 H 1927.22 0.932356 3.60746 0
M  V30 20569 H 1927.33 2.7951 3.89115 0
M  V30 20570 H 1925.69 1.40628 2.12358 0
M  V30 20571 H 1926.48 3.00964 1.65153 0
M  V30 20572 N 1928.92 -1.13255 1.09595 0
M  V30 20573 C 1929.85 -2.18416 0.69477 0
M  V30 20574 C 1930.87 -1.60641 -0.264232 0
M  V30 20575 O 1932.05 -1.7843 -0.0500201 0
M  V30 20576 C 1929.15 -3.389 0.00330039 0
M  V30 20577 C 1928.33 -4.26181 0.984281 0
M  V30 20578 C 1927.39 -5.2519 0.325898 0
M  V30 20579 O 1926.41 -5.60804 0.974057 0
M  V30 20580 N 1927.61 -5.73175 -0.919261 0
M  V30 20581 H 1930.38 -2.53448 1.59951 0
M  V30 20582 H 1927.94 -1.28594 0.983625 0
M  V30 20583 H 1929.93 -4.02208 -0.4484 0
M  V30 20584 H 1928.5 -3.02091 -0.803713 0
M  V30 20585 H 1927.72 -3.59622 1.61449 0
M  V30 20586 H 1929.01 -4.81351 1.64861 0
M  V30 20587 H 1928.41 -5.46391 -1.46538 0
M  V30 20588 H 1926.97 -6.38413 -1.31425 0
M  V30 20589 N 1930.4 -0.883401 -1.30514 0
M  V30 20590 C 1931.68 -0.421186 -1.91011 0
M  V30 20591 C 1932.06 1.09793 -1.80301 0
M  V30 20592 O 1931.4 1.93254 -1.21923 0
M  V30 20593 C 1931.61 -0.917533 -3.36723 0
M  V30 20594 C 1932.96 -0.951573 -4.138 0
M  V30 20595 O 1933.99 -0.86409 -3.4556 0
M  V30 20596 O 1932.84 -1.08053 -5.35711 0
M  V30 20597 H 1929.94 -0.128514 -0.816954 0
M  V30 20598 H 1932.48 -0.972198 -1.39091 0
M  V30 20599 H 1931.26 -1.96135 -3.38595 0
M  V30 20600 H 1930.88 -0.345595 -3.96095 0
M  V30 20601 N 1931.88 1.43833 -0.644194 0
M  V30 20602 C 1933.1 2.0627 -0.161397 0
M  V30 20603 C 1933.52 1.4823 1.16933 0
M  V30 20604 O 1932.88 0.610133 1.71999 0
M  V30 20605 C 1932.93 3.61459 -0.0545357 0
M  V30 20606 O 1932.65 4.17339 -1.33265 0
M  V30 20607 C 1934.15 4.40955 0.455411 0
M  V30 20608 H 1931.37 0.665503 -0.0857112 0
M  V30 20609 H 1933.91 1.84488 -0.882291 0
M  V30 20610 H 1932.07 3.82457 0.616868 0
M  V30 20611 H 1932.48 5.10916 -1.18597 0
M  V30 20612 H 1933.96 5.49916 0.479159 0
M  V30 20613 H 1934.43 4.13333 1.485 0
M  V30 20614 H 1935.04 4.24905 -0.18319 0
M  V30 20615 N 1933.35 0.385544 1.52811 0
M  V30 20616 C 1934.26 -0.45885 2.30069 0
M  V30 20617 C 1935.28 -1.07486 1.36831 0
M  V30 20618 O 1936.46 -1.08148 1.699 0
M  V30 20619 C 1933.52 -1.57281 3.08972 0
M  V30 20620 C 1932.58 -0.98229 4.17911 0
M  V30 20621 C 1931.82 -2.04316 4.93042 0
M  V30 20622 O 1932.04 -3.25761 4.68226 0
M  V30 20623 O 1930.97 -1.66256 5.78483 0
M  V30 20624 H 1934.8 0.170416 3.03221 0
M  V30 20625 H 1932.38 0.149363 1.48651 0
M  V30 20626 H 1934.27 -2.22003 3.5818 0
M  V30 20627 H 1932.94 -2.18711 2.38637 0
M  V30 20628 H 1931.85 -0.298428 3.72908 0
M  V30 20629 H 1933.18 -0.412261 4.9047 0
M  V30 20630 N 1934.83 -1.57178 0.115259 0
M  V30 20631 C 1935.8 -2.13953 -0.821982 0
M  V30 20632 C 1936.8 -1.07352 -1.19717 0
M  V30 20633 O 1937.99 -1.33146 -1.12329 0
M  V30 20634 C 1935.12 -2.6767 -2.11106 0
M  V30 20635 H 1936.31 -2.98094 -0.328631 0
M  V30 20636 H 1933.86 -1.55725 -0.133942 0
M  V30 20637 H 1934.6 -1.87106 -2.6488 0
M  V30 20638 H 1934.38 -3.4563 -1.85155 0
M  V30 20639 H 1935.87 -3.11519 -2.78111 0
M  V30 20640 N 1936.31 0.158505 -1.56801 0
M  V30 20641 C 1937.26 1.21526 -1.98328 0
M  V30 20642 C 1938.25 1.45117 -0.873926 0
M  V30 20643 O 1939.46 1.45545 -1.05908 0
M  V30 20644 H 1935.83 0.408803 -0.631177 0
M  V30 20645 H 1937.81 0.838242 -2.86384 0
M  V30 20646 C 1936.55 2.54396 -2.37019 0
M  V30 20647 H 1935.88 2.3707 -3.21928 0
M  V30 20648 H 1937.32 3.26994 -2.69909 0
M  V30 20649 C 1935.78 3.14095 -1.21845 0
M  V30 20650 O 1936.31 3.98411 -0.51298 0
M  V30 20651 N 1934.51 2.73373 -0.985675 0
M  V30 20652 H 1934.06 2.04907 -1.56112 0
M  V30 20653 H 1934.02 3.13651 -0.216926 0
M  V30 20654 N 1937.79 1.51692 0.427485 0
M  V30 20655 C 1938.75 1.73114 1.50214 0
M  V30 20656 C 1939.75 0.601079 1.49143 0
M  V30 20657 O 1940.94 0.86875 1.50991 0
M  V30 20658 C 1938.07 1.79666 2.89712 0
M  V30 20659 H 1939.27 2.69033 1.32518 0
M  V30 20660 H 1936.82 1.4183 0.656804 0
M  V30 20661 H 1937.56 0.855968 3.128 0
M  V30 20662 H 1937.34 2.61803 2.91893 0
M  V30 20663 H 1938.83 1.98045 3.67652 0
M  V30 20664 N 1939.27 -0.683564 1.42004 0
M  V30 20665 C 1940.5 -1.4721 1.45386 0
M  V30 20666 C 1940.91 -1.88696 0.062603 0
M  V30 20667 O 1940.27 -1.5757 -0.920764 0
M  V30 20668 C 1940.32 -2.7269 2.37323 0
M  V30 20669 O 1940.04 -2.32947 3.71035 0
M  V30 20670 C 1941.54 -3.6633 2.49634 0
M  V30 20671 H 1938.76 -0.453255 0.494773 0
M  V30 20672 H 1941.3 -0.840646 1.86423 0
M  V30 20673 H 1939.46 -3.32044 1.99563 0
M  V30 20674 H 1939.87 -3.13915 4.20188 0
M  V30 20675 H 1941.35 -4.51125 3.18104 0
M  V30 20676 H 1941.82 -4.11636 1.53141 0
M  V30 20677 H 1942.43 -3.12874 2.8808 0
M  V30 20678 N 1940.75 -1.28031 -0.919012 0
M  V30 20679 C 1941.97 -1.17714 -1.7015 0
M  V30 20680 C 1942.39 0.264914 -1.86932 0
M  V30 20681 O 1941.75 1.17957 -1.39256 0
M  V30 20682 C 1941.8 -1.86548 -3.09648 0
M  V30 20683 O 1941.52 -3.25121 -2.93646 0
M  V30 20684 C 1943.02 -1.82467 -4.04006 0
M  V30 20685 H 1940.24 -0.408863 -0.532045 0
M  V30 20686 H 1942.78 -1.69061 -1.1506 0
M  V30 20687 H 1940.94 -1.39085 -3.61572 0
M  V30 20688 H 1941.35 -3.59518 -3.81899 0
M  V30 20689 H 1942.83 -2.35229 -4.99371 0
M  V30 20690 H 1943.3 -0.795892 -4.31928 0
M  V30 20691 H 1943.91 -2.29585 -3.5801 0
M  V30 20692 N 1942.22 1.12672 -1.10194 0
M  V30 20693 C 1943.45 1.87682 -0.863653 0
M  V30 20694 C 1943.86 1.79789 0.589271 0
M  V30 20695 O 1943.2 1.16801 1.41786 0
M  V30 20696 C 1943.27 3.37794 -1.23028 0
M  V30 20697 C 1942.93 3.69463 -2.68972 0
M  V30 20698 C 1943.93 3.68037 -3.67212 0
M  V30 20699 C 1941.61 3.98875 -3.05294 0
M  V30 20700 C 1943.61 3.95576 -4.99798 0
M  V30 20701 C 1941.29 4.26074 -4.38068 0
M  V30 20702 C 1942.29 4.24411 -5.3513 0
M  V30 20703 O 1941.98 4.50939 -6.65515 0
M  V30 20704 H 1941.71 0.600767 -0.309928 0
M  V30 20705 H 1944.27 1.43504 -1.46955 0
M  V30 20706 H 1942.5 3.82514 -0.567464 0
M  V30 20707 H 1944.18 3.94143 -0.969869 0
M  V30 20708 H 1944.95 3.4538 -3.40496 0
M  V30 20709 H 1940.83 3.99312 -2.30372 0
M  V30 20710 H 1944.37 3.94193 -5.7555 0
M  V30 20711 H 1940.27 4.48204 -4.64525 0
M  V30 20712 H 1941.04 4.68569 -6.71107 0
M  V30 20713 N 1943.7 0.89031 1.30043 0
M  V30 20714 C 1944.95 0.51145 1.95935 0
M  V30 20715 C 1945.28 -0.940438 1.70253 0
M  V30 20716 O 1944.53 -1.68041 1.00302 0
M  V30 20717 C 1944.83 0.739209 3.49672 0
M  V30 20718 C 1944.5 2.167 3.95413 0
M  V30 20719 C 1943.16 2.55743 4.07614 0
M  V30 20720 C 1945.51 3.09723 4.19191 0
M  V30 20721 C 1942.84 3.87008 4.40955 0
M  V30 20722 C 1945.19 4.40527 4.54003 0
M  V30 20723 C 1943.85 4.79455 4.64413 0
M  V30 20724 H 1943.12 0.187153 0.716976 0
M  V30 20725 H 1945.77 1.12718 1.54812 0
M  V30 20726 H 1944.08 0.0404857 3.91779 0
M  V30 20727 H 1945.77 0.425594 3.98735 0
M  V30 20728 H 1942.36 1.85396 3.86427 0
M  V30 20729 H 1946.55 2.80778 4.0924 0
M  V30 20730 H 1941.8 4.16903 4.47216 0
M  V30 20731 H 1945.98 5.1264 4.71352 0
M  V30 20732 H 1943.6 5.81206 4.90003 0
M  V30 20733 N 1945.18 -1.43489 0.651812 0
M  V30 20734 C 1946.41 -2.06181 0.172334 0
M  V30 20735 C 1946.82 -1.48848 -1.16145 0
M  V30 20736 O 1946.18 -0.619246 -1.71673 0
M  V30 20737 C 1946.23 -3.61425 0.0737039 0
M  V30 20738 O 1945.95 -4.16627 1.35476 0
M  V30 20739 C 1947.45 -4.4119 -0.432019 0
M  V30 20740 H 1944.67 -0.665039 0.0892394 0
M  V30 20741 H 1947.22 -1.84018 0.892063 0
M  V30 20742 H 1945.37 -3.82779 -0.596577 0
M  V30 20743 H 1945.79 -5.1028 1.21305 0
M  V30 20744 H 1947.26 -5.50163 -0.449989 0
M  V30 20745 H 1947.74 -4.14115 -1.46306 0
M  V30 20746 H 1948.34 -4.24802 0.205721 0
M  V30 20747 N 1946.66 -0.393643 -1.52605 0
M  V30 20748 C 1948.07 -0.0437985 -1.5954 0
M  V30 20749 C 1948.27 1.44203 -1.4074 0
M  V30 20750 O 1947.33 2.20707 -1.22657 0
M  V30 20751 C 1948.64 -0.524864 -2.96084 0
M  V30 20752 C 1950.19 -0.481497 -3.09274 0
M  V30 20753 C 1950.67 -0.938821 -4.48275 0
M  V30 20754 N 1952.16 -0.895009 -4.54471 0
M  V30 20755 C 1952.89 -1.22023 -5.60266 0
M  V30 20756 N 1952.39 -1.61614 -6.73686 0
M  V30 20757 N 1954.18 -1.1412 -5.50393 0
M  V30 20758 H 1946.33 -1.36091 -1.63074 0
M  V30 20759 H 1948.59 -0.558085 -0.766319 0
M  V30 20760 H 1948.3 -1.56277 -3.15072 0
M  V30 20761 H 1948.17 0.0737526 -3.77128 0
M  V30 20762 H 1950.56 0.547333 -2.8998 0
M  V30 20763 H 1950.64 -1.11597 -2.30173 0
M  V30 20764 H 1950.29 -1.9659 -4.6831 0
M  V30 20765 H 1950.22 -0.281313 -5.25848 0
M  V30 20766 H 1952.71 -0.603728 -3.73046 0
M  V30 20767 H 1953.02 -1.84782 -7.50384 0
M  V30 20768 H 1951.37 -1.65504 -6.75006 0
M  V30 20769 H 1954.56 -0.83088 -4.60667 0
M  V30 20770 H 1954.73 -1.39797 -6.32741 0
M  V30 20771 N 1948.14 1.57115 -0.123593 0
M  V30 20772 C 1949.07 2.18573 0.821462 0
M  V30 20773 C 1950.05 1.1271 1.27399 0
M  V30 20774 O 1951.23 1.40964 1.33577 0
M  V30 20775 C 1948.36 2.78879 2.06987 0
M  V30 20776 C 1947.32 3.90365 1.75497 0
M  V30 20777 C 1946.64 4.37499 3.07406 0
M  V30 20778 C 1947.94 5.12249 1.01972 0
M  V30 20779 H 1949.64 2.97798 0.309319 0
M  V30 20780 H 1947.18 1.43244 0.147338 0
M  V30 20781 H 1949.13 3.20534 2.73562 0
M  V30 20782 H 1947.86 1.96951 2.60534 0
M  V30 20783 H 1946.52 3.49293 1.1131 0
M  V30 20784 H 1946.17 3.52424 3.58896 0
M  V30 20785 H 1945.87 5.12682 2.87108 0
M  V30 20786 H 1947.39 4.81808 3.75091 0
M  V30 20787 H 1948.8 5.50894 1.58709 0
M  V30 20788 H 1947.2 5.93044 0.917526 0
M  V30 20789 H 1948.27 4.84899 0.00726173 0
M  V30 20790 N 1949.61 -0.150187 1.56883 0
M  V30 20791 C 1950.86 -0.861749 1.82364 0
M  V30 20792 C 1951.18 -1.82479 0.704319 0
M  V30 20793 O 1952.38 -2.58027 0.844649 0
M  V30 20794 C 1950.84 -1.58305 3.23214 0
M  V30 20795 C 1950.45 -0.662577 4.43073 0
M  V30 20796 C 1952.19 -2.28159 3.57972 0
M  V30 20797 C 1950.1 -1.38532 5.74946 0
M  V30 20798 H 1949.03 -0.325546 0.6801 0
M  V30 20799 H 1951.68 -0.114505 1.83142 0
M  V30 20800 H 1950.06 -2.37581 3.16814 0
M  V30 20801 H 1951.23 0.0947281 4.60703 0
M  V30 20802 H 1949.55 -0.0726217 4.16337 0
M  V30 20803 H 1952.15 -2.82865 4.53753 0
M  V30 20804 H 1952.49 -3.04501 2.83874 0
M  V30 20805 H 1953.02 -1.55805 3.66019 0
M  V30 20806 H 1949.76 -0.663808 6.5213 0
M  V30 20807 H 1949.28 -2.11542 5.61258 0
M  V30 20808 H 1950.96 -1.9271 6.17634 0
M  V30 20809 N 1951.09 -1.51916 -0.419434 0
M  V30 20810 C 1952 -1.77393 -1.53522 0
M  V30 20811 C 1953.02 -0.65897 -1.61039 0
M  V30 20812 O 1954.19 -0.943237 -1.77947 0
M  V30 20813 C 1951.26 -1.90988 -2.89352 0
M  V30 20814 C 1950.32 -3.14878 -2.91805 0
M  V30 20815 C 1949.55 -3.27815 -4.21157 0
M  V30 20816 O 1949.78 -2.4626 -5.14502 0
M  V30 20817 O 1948.71 -4.20906 -4.30258 0
M  V30 20818 H 1952.54 -2.72079 -1.34932 0
M  V30 20819 H 1950.12 -1.36635 -0.604259 0
M  V30 20820 H 1952 -2.01812 -3.69932 0
M  V30 20821 H 1950.68 -0.994906 -3.08031 0
M  V30 20822 H 1949.59 -3.0952 -2.10115 0
M  V30 20823 H 1950.92 -4.06123 -2.78073 0
M  V30 20824 N 1952.57 0.676023 -1.42365 0
M  V30 20825 C 1953.8 1.46937 -1.46371 0
M  V30 20826 C 1954.22 1.87946 -0.076099 0
M  V30 20827 O 1953.58 1.55917 0.925172 0
M  V30 20828 C 1953.63 2.69558 -2.39523 0
M  V30 20829 O 1952.73 3.67782 -1.86575 0
M  V30 20830 H 1952.07 0.441478 -0.495977 0
M  V30 20831 H 1954.6 0.829284 -1.8704 0
M  V30 20832 H 1954.61 3.17642 -2.56061 0
M  V30 20833 H 1953.29 2.39049 -3.40336 0
M  V30 20834 H 1951.86 3.26808 -1.79585 0
M  V30 20835 N 1954.05 1.28517 0.912209 0
M  V30 20836 C 1955.27 1.18732 1.70052 0
M  V30 20837 C 1955.7 -0.250323 1.86427 0
M  V30 20838 O 1955.06 -1.18105 1.37553 0
M  V30 20839 C 1955.1 1.89256 3.06944 0
M  V30 20840 O 1954.21 1.20108 3.94522 0
M  V30 20841 H 1953.55 0.412087 0.520654 0
M  V30 20842 H 1956.08 1.69866 1.14048 0
M  V30 20843 H 1956.09 1.97223 3.57165 0
M  V30 20844 H 1954.76 2.93829 2.94343 0
M  V30 20845 H 1953.34 1.20315 3.52957 0
M  V30 20846 N 1955.53 -1.12086 1.1079 0
M  V30 20847 C 1956.46 -2.2001 0.78217 0
M  V30 20848 C 1957.44 -1.68305 -0.246488 0
M  V30 20849 O 1958.62 -1.9388 -0.111448 0
M  V30 20850 C 1955.75 -3.4662 0.2172 0
M  V30 20851 C 1954.71 -4.11499 1.17696 0
M  V30 20852 C 1954.03 -5.32604 0.47302 0
M  V30 20853 C 1955.33 -4.5721 2.52501 0
M  V30 20854 H 1957.03 -2.47514 1.68456 0
M  V30 20855 H 1954.57 -1.18964 0.811397 0
M  V30 20856 H 1956.53 -4.21394 -0.0228381 0
M  V30 20857 H 1955.25 -3.18555 -0.720448 0
M  V30 20858 H 1953.91 -3.38711 1.40252 0
M  V30 20859 H 1953.56 -5.00807 -0.469217 0
M  V30 20860 H 1953.26 -5.76961 1.11308 0
M  V30 20861 H 1954.78 -6.10122 0.241615 0
M  V30 20862 H 1956.19 -5.23338 2.34073 0
M  V30 20863 H 1954.59 -5.12357 3.12426 0
M  V30 20864 H 1955.66 -3.71003 3.12226 0
M  V30 20865 N 1957 -0.897194 -1.29569 0
M  V30 20866 C 1958.25 -0.520803 -1.95274 0
M  V30 20867 C 1958.57 0.935501 -1.71095 0
M  V30 20868 O 1957.84 1.65932 -1.04131 0
M  V30 20869 H 1956.42 -0.18961 -0.722535 0
M  V30 20870 H 1959.09 -1.14294 -1.5787 0
M  V30 20871 H 1958.18 -0.701293 -3.04119 0
M  V30 20872 N 1958.48 1.43142 -0.659413 0
M  V30 20873 C 1959.71 2.06603 -0.181642 0
M  V30 20874 C 1960.13 1.49137 1.14629 0
M  V30 20875 O 1959.49 0.603739 1.70952 0
M  V30 20876 C 1959.54 3.6043 -0.110662 0
M  V30 20877 O 1958.64 4.01884 0.925344 0
M  V30 20878 H 1957.98 0.656771 -0.097712 0
M  V30 20879 H 1960.51 1.83541 -0.904086 0
M  V30 20880 H 1960.52 4.07939 0.0706089 0
M  V30 20881 H 1959.2 4.01632 -1.08002 0
M  V30 20882 H 1957.78 3.65954 0.716361 0
M  V30 20883 N 1959.96 0.40173 1.52394 0
M  V30 20884 C 1961.21 -0.17672 2.02029 0
M  V30 20885 C 1961.54 -1.45417 1.28715 0
M  V30 20886 O 1960.81 -1.90524 0.391263 0
M  V30 20887 C 1961.1 -0.43198 3.575 0
M  V30 20888 C 1960.95 0.861628 4.4147 0
M  V30 20889 C 1962.27 -1.2173 4.2293 0
M  V30 20890 H 1959.39 -0.0627536 0.734323 0
M  V30 20891 H 1962.03 0.533742 1.82349 0
M  V30 20892 H 1960.18 -1.03719 3.74399 0
M  V30 20893 H 1961.85 1.49808 4.36297 0
M  V30 20894 H 1960.1 1.47424 4.07981 0
M  V30 20895 H 1960.77 0.637511 5.48306 0
M  V30 20896 H 1963.24 -0.704996 4.10084 0
M  V30 20897 H 1962.12 -1.36465 5.31666 0
M  V30 20898 H 1962.38 -2.23592 3.81391 0
M  V30 20899 N 1961.44 -1.57047 0.131923 0
M  V30 20900 C 1962.4 -2.14813 -0.799243 0
M  V30 20901 C 1963.4 -1.08616 -1.18572 0
M  V30 20902 O 1964.59 -1.3433 -1.10911 0
M  V30 20903 C 1961.72 -2.69894 -2.08255 0
M  V30 20904 H 1962.92 -2.98426 -0.296996 0
M  V30 20905 H 1960.47 -1.55858 -0.117418 0
M  V30 20906 H 1961.2 -1.89905 -2.62881 0
M  V30 20907 H 1960.99 -3.47574 -1.81479 0
M  V30 20908 H 1962.48 -3.14451 -2.74792 0
M  V30 20909 N 1962.92 0.141865 -1.5696 0
M  V30 20910 C 1964.14 0.868403 -1.87793 0
M  V30 20911 C 1964.56 1.74504 -0.720691 0
M  V30 20912 O 1963.92 1.79859 0.309372 0
M  V30 20913 C 1963.97 1.72086 -3.17913 0
M  V30 20914 O 1963.69 0.879548 -4.2918 0
M  V30 20915 C 1965.19 2.55454 -3.62296 0
M  V30 20916 H 1962.41 0.250842 -0.62235 0
M  V30 20917 H 1964.95 0.133113 -2.04066 0
M  V30 20918 H 1963.11 2.40915 -3.03379 0
M  V30 20919 H 1963.52 1.4653 -5.03616 0
M  V30 20920 H 1965 3.10834 -4.56165 0
M  V30 20921 H 1965.47 3.31735 -2.87834 0
M  V30 20922 H 1966.08 1.91906 -3.79542 0
M  V30 20923 N 1964.39 1.52136 0.411372 0
M  V30 20924 C 1965.34 1.75318 1.50107 0
M  V30 20925 C 1966.31 0.595552 1.55056 0
M  V30 20926 O 1967.5 0.832859 1.71663 0
M  V30 20927 C 1964.64 1.9077 2.87578 0
M  V30 20928 C 1963.75 3.18411 2.91956 0
M  V30 20929 C 1962.88 3.24307 4.20712 0
M  V30 20930 C 1961.92 4.4616 4.19056 0
M  V30 20931 N 1961.06 4.49461 5.39379 0
M  V30 20932 H 1965.9 2.68323 1.29642 0
M  V30 20933 H 1963.44 1.32958 0.629326 0
M  V30 20934 H 1965.4 1.97711 3.67377 0
M  V30 20935 H 1964.03 1.01148 3.06543 0
M  V30 20936 H 1963.08 3.20652 2.04661 0
M  V30 20937 H 1964.39 4.08245 2.86597 0
M  V30 20938 H 1963.54 3.30308 5.08902 0
M  V30 20939 H 1962.28 2.32408 4.28763 0
M  V30 20940 H 1961.29 4.40308 3.29255 0
M  V30 20941 H 1962.51 5.39351 4.12646 0
M  V30 20942 H 1960.46 3.60444 5.48102 0
M  V30 20943 H 1960.38 5.33136 5.36005 0
M  V30 20944 H 1961.64 4.59688 6.29529 0
M  V30 20945 N 1965.87 -0.668464 1.42721 0
M  V30 20946 C 1966.8 -1.79375 1.49489 0
M  V30 20947 C 1967.78 -1.66442 0.350881 0
M  V30 20948 O 1968.97 -1.85767 0.566049 0
M  V30 20949 C 1966.1 -3.17712 1.40273 0
M  V30 20950 C 1965.05 -3.45389 2.52766 0
M  V30 20951 C 1964.38 -4.83367 2.28606 0
M  V30 20952 C 1965.68 -3.4165 3.95061 0
M  V30 20953 H 1967.37 -1.73968 2.43671 0
M  V30 20954 H 1964.92 -0.835548 1.1728 0
M  V30 20955 H 1966.87 -3.96173 1.43614 0
M  V30 20956 H 1965.6 -3.23811 0.425882 0
M  V30 20957 H 1964.26 -2.69292 2.48752 0
M  V30 20958 H 1963.9 -4.86124 1.292 0
M  V30 20959 H 1963.6 -5.02847 3.04005 0
M  V30 20960 H 1965.13 -5.64104 2.33707 0
M  V30 20961 H 1966.54 -4.1007 4.00644 0
M  V30 20962 H 1964.94 -3.72666 4.70362 0
M  V30 20963 H 1966.01 -2.40106 4.2128 0
M  V30 20964 N 1967.35 -1.28999 -0.905381 0
M  V30 20965 C 1968.3 -1.13515 -2.0302 0
M  V30 20966 C 1969.29 -0.0522132 -1.6932 0
M  V30 20967 O 1970.5 -0.211599 -1.78752 0
M  V30 20968 H 1966.87 -0.350474 -0.665336 0
M  V30 20969 H 1968.85 -2.08758 -2.13219 0
M  V30 20970 C 1967.59 -0.822531 -3.37831 0
M  V30 20971 H 1966.92 -1.64783 -3.64262 0
M  V30 20972 H 1968.36 -0.754193 -4.17238 0
M  V30 20973 C 1966.82 0.474033 -3.33548 0
M  V30 20974 O 1967.35 1.50182 -3.7257 0
M  V30 20975 N 1965.55 0.477812 -2.86645 0
M  V30 20976 H 1965.1 -0.359023 -2.55086 0
M  V30 20977 H 1965.06 1.34533 -2.84162 0
M  V30 20978 N 1968.83 1.11497 -1.11383 0
M  V30 20979 C 1970.08 1.83222 -0.862314 0
M  V30 20980 C 1970.4 1.84619 0.612047 0
M  V30 20981 O 1969.66 1.29435 1.46782 0
M  V30 20982 C 1969.96 3.30169 -1.36832 0
M  V30 20983 C 1969.62 3.48933 -2.85581 0
M  V30 20984 C 1968.29 3.53762 -3.26199 0
M  V30 20985 C 1970.64 3.55237 -3.81387 0
M  V30 20986 C 1967.97 3.6245 -4.61353 0
M  V30 20987 C 1970.32 3.65455 -5.16358 0
M  V30 20988 C 1968.98 3.68544 -5.56535 0
M  V30 20989 H 1968.25 0.670458 -0.315543 0
M  V30 20990 H 1970.9 1.31499 -1.39213 0
M  V30 20991 H 1969.2 3.84383 -0.75873 0
M  V30 20992 H 1970.9 3.84154 -1.15006 0
M  V30 20993 H 1967.49 3.45844 -2.53159 0
M  V30 20994 H 1971.68 3.50767 -3.51107 0
M  V30 20995 H 1966.93 3.63118 -4.9189 0
M  V30 20996 H 1971.11 3.69276 -5.9043 0
M  V30 20997 H 1968.73 3.75029 -6.61255 0
M  V30 20998 N 1970.31 0.904053 1.29092 0
M  V30 20999 C 1971.55 0.532203 1.95381 0
M  V30 21000 C 1971.88 -0.922327 1.71241 0
M  V30 21001 O 1971.14 -1.66968 1.02079 0
M  V30 21002 C 1971.44 0.776255 3.48868 0
M  V30 21003 C 1971.1 2.20882 3.93093 0
M  V30 21004 C 1969.76 2.60052 4.04878 0
M  V30 21005 C 1972.12 3.14152 4.15882 0
M  V30 21006 C 1969.44 3.91663 4.36826 0
M  V30 21007 C 1971.8 4.45317 4.49306 0
M  V30 21008 C 1970.46 4.84354 4.59301 0
M  V30 21009 H 1969.73 0.194747 0.714951 0
M  V30 21010 H 1972.38 1.14354 1.53608 0
M  V30 21011 H 1970.68 0.0820369 3.91714 0
M  V30 21012 H 1972.38 0.467861 3.98261 0
M  V30 21013 H 1968.97 1.89485 3.84439 0
M  V30 21014 H 1973.15 2.85103 4.06239 0
M  V30 21015 H 1968.41 4.21623 4.42769 0
M  V30 21016 H 1972.58 5.17611 4.65888 0
M  V30 21017 H 1970.21 5.86371 4.83811 0
M  V30 21018 N 1971.79 -1.4279 0.666995 0
M  V30 21019 C 1973.03 -2.00866 0.183286 0
M  V30 21020 C 1973.35 -1.53315 -1.21465 0
M  V30 21021 O 1974.55 -2.03756 -1.79432 0
M  V30 21022 C 1973.01 -3.58834 0.276836 0
M  V30 21023 C 1972.62 -4.15374 1.67834 0
M  V30 21024 C 1974.36 -4.2424 -0.14856 0
M  V30 21025 C 1972.27 -5.65681 1.72507 0
M  V30 21026 H 1971.2 -0.751214 0.0647613 0
M  V30 21027 H 1973.85 -1.63603 0.83104 0
M  V30 21028 H 1972.23 -3.93563 -0.438672 0
M  V30 21029 H 1973.41 -3.9212 2.4203 0
M  V30 21030 H 1971.72 -3.62391 2.0509 0
M  V30 21031 H 1974.32 -5.34533 -0.133681 0
M  V30 21032 H 1974.66 -3.99154 -1.18245 0
M  V30 21033 H 1975.19 -3.94444 0.51567 0
M  V30 21034 H 1971.93 -5.95555 2.73852 0
M  V30 21035 H 1971.45 -5.9095 1.02655 0
M  V30 21036 H 1973.13 -6.29963 1.47499 0
M  V30 21037 N 1973.26 -0.409806 -1.52179 0
M  V30 21038 C 1974.21 0.432719 -2.23856 0
M  V30 21039 C 1975.2 1.01291 -1.25016 0
M  V30 21040 O 1976.39 0.935617 -1.5025 0
M  V30 21041 C 1973.52 1.54847 -3.06394 0
M  V30 21042 C 1972.6 0.979019 -4.12645 0
M  V30 21043 N 1973 0.136283 -5.05616 0
M  V30 21044 C 1971.29 1.24946 -4.28141 0
M  V30 21045 C 1971.99 -0.180604 -5.8142 0
M  V30 21046 N 1970.97 0.428712 -5.41907 0
M  V30 21047 H 1974.77 -0.217442 -2.93095 0
M  V30 21048 H 1972.29 -0.220268 -1.60899 0
M  V30 21049 H 1974.28 2.16466 -3.56298 0
M  V30 21050 H 1972.94 2.20125 -2.38695 0
M  V30 21051 H 1973.95 -0.228075 -5.17398 0
M  V30 21052 H 1970.63 1.90176 -3.71671 0
M  V30 21053 H 1972.02 -0.8647 -6.66313 0
M  V30 21054 N 1974.74 1.56975 -0.14025 0
M  V30 21055 C 1975.69 2.17699 0.819153 0
M  V30 21056 C 1976.68 1.13208 1.26017 0
M  V30 21057 O 1977.89 1.31472 1.22944 0
M  V30 21058 H 1974.26 0.696983 0.282345 0
M  V30 21059 H 1976.24 2.97058 0.28273 0
M  V30 21060 C 1974.98 2.80769 2.05096 0
M  V30 21061 H 1974.31 3.60882 1.72058 0
M  V30 21062 H 1975.75 3.26768 2.70183 0
M  V30 21063 C 1974.21 1.7893 2.85457 0
M  V30 21064 O 1974.74 1.25562 3.81572 0
M  V30 21065 N 1972.94 1.48386 2.4986 0
M  V30 21066 H 1972.49 1.91976 1.71765 0
M  V30 21067 H 1972.45 0.804935 3.03921 0
M  V30 21068 N 1976.22 -0.133539 1.57033 0
M  V30 21069 C 1977.15 -1.16595 2.02306 0
M  V30 21070 C 1978.13 -1.44031 0.904933 0
M  V30 21071 O 1979.32 -1.54721 1.17367 0
M  V30 21072 C 1976.45 -2.49581 2.41509 0
M  V30 21073 C 1975.4 -2.36639 3.56631 0
M  V30 21074 C 1974.73 -3.74457 3.81688 0
M  V30 21075 C 1976.03 -1.83912 4.88849 0
M  V30 21076 H 1977.72 -0.789456 2.88804 0
M  V30 21077 H 1975.27 -0.378309 1.38942 0
M  V30 21078 H 1977.22 -3.22043 2.71783 0
M  V30 21079 H 1975.94 -2.89093 1.51964 0
M  V30 21080 H 1974.6 -1.66628 3.26544 0
M  V30 21081 H 1974.25 -4.11428 2.89372 0
M  V30 21082 H 1973.95 -3.66655 4.59171 0
M  V30 21083 H 1975.47 -4.48446 4.14401 0
M  V30 21084 H 1976.89 -2.46178 5.17754 0
M  V30 21085 H 1975.28 -1.86967 5.70231 0
M  V30 21086 H 1976.35 -0.795669 4.78327 0
M  V30 21087 N 1977.7 -1.52352 -0.403298 0
M  V30 21088 C 1978.66 -1.75482 -1.4744 0
M  V30 21089 C 1979.66 -0.62473 -1.48168 0
M  V30 21090 O 1980.85 -0.892662 -1.4959 0
M  V30 21091 C 1977.98 -1.84253 -2.86817 0
M  V30 21092 H 1979.18 -2.71107 -1.28222 0
M  V30 21093 H 1976.73 -1.42857 -0.634157 0
M  V30 21094 H 1977.46 -0.905623 -3.11398 0
M  V30 21095 H 1977.25 -2.66414 -2.87691 0
M  V30 21096 H 1978.74 -2.03869 -3.64454 0
M  V30 21097 N 1979.18 0.660885 -1.43074 0
M  V30 21098 C 1980.11 1.78641 -1.43597 0
M  V30 21099 C 1981.12 1.59355 -0.333119 0
M  V30 21100 O 1982.31 1.68218 -0.597082 0
M  V30 21101 C 1979.41 3.15957 -1.22575 0
M  V30 21102 C 1978.58 3.61969 -2.45556 0
M  V30 21103 C 1977.64 4.78062 -2.19871 0
M  V30 21104 O 1976.67 4.87893 -2.93171 0
M  V30 21105 N 1977.87 5.67738 -1.21053 0
M  V30 21106 H 1980.63 1.78672 -2.40617 0
M  V30 21107 H 1978.2 0.844466 -1.38132 0
M  V30 21108 H 1980.19 3.91298 -1.03287 0
M  V30 21109 H 1978.76 3.10742 -0.34029 0
M  V30 21110 H 1977.98 2.77155 -2.80319 0
M  V30 21111 H 1979.27 3.89455 -3.27418 0
M  V30 21112 H 1978.66 5.6246 -0.604562 0
M  V30 21113 H 1977.22 6.42832 -1.0775 0
M  V30 21114 N 1980.65 1.29477 0.898527 0
M  V30 21115 C 1981.59 1.0903 2.00469 0
M  V30 21116 C 1982.57 0.00183835 1.626 0
M  V30 21117 O 1983.75 0.152763 1.8788 0
M  V30 21118 C 1980.88 0.660044 3.32206 0
M  V30 21119 C 1979.92 1.74739 3.89061 0
M  V30 21120 S 1980.76 3.34687 4.18025 0
M  V30 21121 C 1981.91 2.93532 5.52802 0
M  V30 21122 H 1982.14 2.0268 2.17505 0
M  V30 21123 H 1979.68 1.13637 1.04527 0
M  V30 21124 H 1981.64 0.418518 4.08361 0
M  V30 21125 H 1980.3 -0.256865 3.13048 0
M  V30 21126 H 1979.49 1.39831 4.84214 0
M  V30 21127 H 1979.09 1.9425 3.19598 0
M  V30 21128 H 1981.38 2.4065 6.3332 0
M  V30 21129 H 1982.33 3.87541 5.92636 0
M  V30 21130 H 1982.73 2.31793 5.14716 0
M  V30 21131 N 1982.13 -1.10905 1.11972 0
M  V30 21132 C 1983.08 -2.17107 0.783135 0
M  V30 21133 C 1984.05 -1.6424 -0.24791 0
M  V30 21134 O 1985.23 -1.90399 -0.123577 0
M  V30 21135 C 1982.37 -3.44274 0.238574 0
M  V30 21136 C 1981.49 -4.11119 1.32685 0
M  V30 21137 C 1980.62 -5.25989 0.742236 0
M  V30 21138 C 1979.66 -5.84728 1.80997 0
M  V30 21139 N 1978.8 -6.90983 1.24444 0
M  V30 21140 H 1983.64 -2.45243 1.69292 0
M  V30 21141 H 1981.18 -1.20386 0.845323 0
M  V30 21142 H 1983.13 -4.17091 -0.0951679 0
M  V30 21143 H 1981.76 -3.16505 -0.634384 0
M  V30 21144 H 1980.82 -3.3632 1.77745 0
M  V30 21145 H 1982.13 -4.50824 2.13445 0
M  V30 21146 H 1981.28 -6.05638 0.358877 0
M  V30 21147 H 1980.02 -4.87604 -0.096622 0
M  V30 21148 H 1979.03 -5.03753 2.20258 0
M  V30 21149 H 1980.25 -6.25178 2.65196 0
M  V30 21150 H 1978.2 -6.54607 0.427323 0
M  V30 21151 H 1978.11 -7.29374 1.98869 0
M  V30 21152 H 1979.38 -7.74424 0.888154 0
M  V30 21153 N 1983.61 -0.910886 -1.2861 0
M  V30 21154 C 1984.86 -0.542557 -1.95096 0
M  V30 21155 C 1985.19 0.913233 -1.71727 0
M  V30 21156 O 1984.44 1.66424 -1.02963 0
M  V30 21157 C 1984.74 -0.794745 -3.48452 0
M  V30 21158 C 1984.41 -2.22964 -3.91916 0
M  V30 21159 C 1983.07 -2.62195 -4.03494 0
M  V30 21160 C 1985.42 -3.16353 -4.1421 0
M  V30 21161 C 1982.75 -3.93974 -4.34743 0
M  V30 21162 C 1985.1 -4.47694 -4.46938 0
M  V30 21163 C 1983.76 -4.86783 -4.56726 0
M  V30 21164 H 1983.03 -0.198536 -0.713908 0
M  V30 21165 H 1985.68 -1.15167 -1.53 0
M  V30 21166 H 1983.99 -0.102809 -3.91665 0
M  V30 21167 H 1985.68 -0.488975 -3.98008 0
M  V30 21168 H 1982.27 -1.91521 -3.83429 0
M  V30 21169 H 1986.46 -2.87253 -4.04721 0
M  V30 21170 H 1981.71 -4.23965 -4.40526 0
M  V30 21171 H 1985.89 -5.20074 -4.63137 0
M  V30 21172 H 1983.51 -5.88928 -4.80695 0
M  V30 21173 N 1985.09 1.42434 -0.674558 0
M  V30 21174 C 1986.32 2.05881 -0.205113 0
M  V30 21175 C 1986.73 1.50677 1.13763 0
M  V30 21176 O 1986.09 0.646479 1.70666 0
M  V30 21177 C 1986.14 3.61262 -0.131194 0
M  V30 21178 O 1985.86 4.14419 -1.42087 0
M  V30 21179 C 1987.36 4.41821 0.361775 0
M  V30 21180 H 1984.58 0.663535 -0.0998083 0
M  V30 21181 H 1987.13 1.82575 -0.921226 0
M  V30 21182 H 1985.28 3.8368 0.535604 0
M  V30 21183 H 1985.69 5.08285 -1.29407 0
M  V30 21184 H 1987.17 5.50809 0.362405 0
M  V30 21185 H 1987.65 4.1639 1.39699 0
M  V30 21186 H 1988.25 4.24421 -0.273278 0
M  V30 21187 N 1986.57 0.417871 1.51959 0
M  V30 21188 C 1987.81 -0.154746 2.01507 0
M  V30 21189 C 1988.14 -1.44898 1.30497 0
M  V30 21190 O 1987.41 -1.91043 0.433536 0
M  V30 21191 H 1985.99 -0.0601759 0.744572 0
M  V30 21192 H 1988.65 0.556118 1.86798 0
M  V30 21193 H 1987.74 -0.344616 3.10192 0
M  V30 21194 N 1988.04 -1.56898 0.148573 0
M  V30 21195 C 1989.27 -2.00974 -0.512287 0
M  V30 21196 C 1989.69 -1.02801 -1.57523 0
M  V30 21197 O 1989.05 -0.00400411 -1.813 0
M  V30 21198 C 1989.1 -3.43785 -1.08832 0
M  V30 21199 O 1988.2 -3.4862 -2.20313 0
M  V30 21200 H 1987.55 -0.652102 -0.125133 0
M  V30 21201 H 1990.08 -2.03119 0.245769 0
M  V30 21202 H 1990.09 -3.82618 -1.41659 0
M  V30 21203 H 1988.76 -4.14744 -0.309923 0
M  V30 21204 H 1987.34 -3.2163 -1.88702 0
M  V30 21205 N 1989.52 0.125209 -1.57102 0
M  V30 21206 C 1990.8 0.864033 -1.75482 0
M  V30 21207 C 1991.18 1.98355 -0.722399 0
M  V30 21208 O 1990.53 2.27075 0.254784 0
M  V30 21209 C 1990.74 1.38644 -3.20279 0
M  V30 21210 C 1992.09 1.84125 -3.82601 0
M  V30 21211 O 1993.11 1.48338 -3.23843 0
M  V30 21212 O 1991.97 2.50194 -4.85866 0
M  V30 21213 H 1989.06 0.409865 -0.718289 0
M  V30 21214 H 1991.61 0.109434 -1.69347 0
M  V30 21215 H 1990.38 0.582938 -3.86933 0
M  V30 21216 H 1990 2.20393 -3.30927 0
M  V30 21217 N 1991 1.52564 0.395213 0
M  V30 21218 C 1992.28 1.5788 1.1547 0
M  V30 21219 C 1992.66 0.36821 2.07864 0
M  V30 21220 O 1992.01 -0.643933 2.19239 0
M  V30 21221 C 1992.22 2.91451 1.91982 0
M  V30 21222 C 1993.56 3.44961 2.47562 0
M  V30 21223 O 1994.59 2.93284 2.02146 0
M  V30 21224 O 1993.45 4.35233 3.30506 0
M  V30 21225 H 1990.54 0.636516 0.527993 0
M  V30 21226 H 1993.09 1.64897 0.400867 0
M  V30 21227 H 1991.86 3.71006 1.2438 0
M  V30 21228 H 1991.48 2.8779 2.7434 0
M  V30 21229 N 1992.48 -0.653289 1.43422 0
M  V30 21230 C 1993.89 -0.968948 1.26821 0
M  V30 21231 C 1994.09 -2.00622 0.187882 0
M  V30 21232 O 1993.15 -2.48747 -0.43371 0
M  V30 21233 C 1994.46 -1.45328 2.63249 0
M  V30 21234 C 1996.01 -1.56993 2.70781 0
M  V30 21235 C 1996.49 -2.08817 4.07627 0
M  V30 21236 N 1997.98 -2.16119 4.09691 0
M  V30 21237 C 1998.71 -2.5734 5.1241 0
M  V30 21238 N 1998.21 -2.97858 6.25502 0
M  V30 21239 N 2000 -2.57279 4.99764 0
M  V30 21240 H 1992.15 0.0330932 2.12374 0
M  V30 21241 H 1994.42 -0.0477768 0.946795 0
M  V30 21242 H 1994.12 -0.765519 3.43268 0
M  V30 21243 H 1994 -2.42831 2.8864 0
M  V30 21244 H 1996.38 -2.24871 1.91095 0
M  V30 21245 H 1996.46 -0.579228 2.49156 0
M  V30 21246 H 1996.11 -1.41541 4.87779 0
M  V30 21247 H 1996.04 -3.08718 4.26616 0
M  V30 21248 H 1998.53 -1.8758 3.28058 0
M  V30 21249 H 1998.84 -3.2806 6.99712 0
M  V30 21250 H 1997.19 -2.95662 6.28974 0
M  V30 21251 H 2000.38 -2.25002 4.10478 0
M  V30 21252 H 2000.55 -2.89082 5.79944 0
M  V30 21253 N 1993.96 -1.29952 -0.891648 0
M  V30 21254 C 1994.89 -1.18331 -2.01296 0
M  V30 21255 C 1995.87 -0.0755571 -1.69932 0
M  V30 21256 O 1997.05 -0.256435 -1.92499 0
M  V30 21257 C 1994.18 -0.867421 -3.36293 0
M  V30 21258 C 1993.14 -1.93237 -3.81894 0
M  V30 21259 C 1992.46 -1.46962 -5.14107 0
M  V30 21260 C 1993.76 -3.34246 -4.01344 0
M  V30 21261 H 1995.46 -2.12138 -2.11276 0
M  V30 21262 H 1993 -1.02132 -1.01514 0
M  V30 21263 H 1994.96 -0.772806 -4.14253 0
M  V30 21264 H 1993.68 0.106342 -3.26427 0
M  V30 21265 H 1992.34 -2.01651 -3.06157 0
M  V30 21266 H 1991.99 -0.484311 -5.00663 0
M  V30 21267 H 1991.69 -2.1819 -5.45589 0
M  V30 21268 H 1993.21 -1.38866 -5.94599 0
M  V30 21269 H 1994.62 -3.28629 -4.69762 0
M  V30 21270 H 1993.02 -4.03502 -4.44192 0
M  V30 21271 H 1994.09 -3.76629 -3.05415 0
M  V30 21272 N 1995.44 1.1031 -1.12559 0
M  V30 21273 C 1996.66 1.86078 -0.90458 0
M  V30 21274 C 1997.08 1.80726 0.546224 0
M  V30 21275 O 1996.44 1.1969 1.3777 0
M  V30 21276 C 1996.49 3.34425 -1.37268 0
M  V30 21277 O 1996.21 3.39691 -2.76661 0
M  V30 21278 C 1997.71 4.27063 -1.18879 0
M  V30 21279 H 1994.93 0.588055 -0.32316 0
M  V30 21280 H 1997.47 1.39441 -1.49588 0
M  V30 21281 H 1995.63 3.78523 -0.824578 0
M  V30 21282 H 1996.04 4.3215 -2.97232 0
M  V30 21283 H 1997.52 5.29345 -1.56518 0
M  V30 21284 H 1997.99 4.39009 -0.129502 0
M  V30 21285 H 1998.6 3.88771 -1.72445 0
M  V30 21286 N 1996.91 0.917694 1.28125 0
M  V30 21287 C 1997.84 0.426179 2.29578 0
M  V30 21288 C 1998.82 -0.508289 1.62328 0
M  V30 21289 O 2000.01 -0.415181 1.8971 0
M  V30 21290 C 1997.14 -0.331007 3.45719 0
M  V30 21291 C 1996.09 0.51469 4.24894 0
M  V30 21292 C 1995.42 -0.371069 5.33411 0
M  V30 21293 C 1996.72 1.774 4.9125 0
M  V30 21294 H 1998.41 1.27403 2.7094 0
M  V30 21295 H 1995.96 0.614065 1.30251 0
M  V30 21296 H 1997.91 -0.68573 4.15783 0
M  V30 21297 H 1996.64 -1.2128 3.03247 0
M  V30 21298 H 1995.3 0.851986 3.56562 0
M  V30 21299 H 1994.94 -1.25152 4.87182 0
M  V30 21300 H 1994.64 0.19121 5.87289 0
M  V30 21301 H 1996.17 -0.721587 6.06321 0
M  V30 21302 H 1997.58 1.48795 5.53654 0
M  V30 21303 H 1995.98 2.27899 5.55141 0
M  V30 21304 H 1997.05 2.49947 4.15517 0
M  V30 21305 N 1998.39 -1.42074 0.682102 0
M  V30 21306 C 1999.62 -2.06288 0.214488 0
M  V30 21307 C 2000.04 -1.50942 -1.12241 0
M  V30 21308 O 1999.4 -0.63086 -1.6997 0
M  V30 21309 C 1999.45 -3.60208 0.167989 0
M  V30 21310 O 1998.55 -4.03306 -0.86129 0
M  V30 21311 H 1997.89 -0.655134 0.108148 0
M  V30 21312 H 2000.42 -1.8208 0.933171 0
M  V30 21313 H 2000.43 -4.08 -0.00570039 0
M  V30 21314 H 1999.11 -3.99863 1.14378 0
M  V30 21315 H 1997.68 -3.67048 -0.65805 0
M  V30 21316 N 1999.87 -0.425924 -1.51735 0
M  V30 21317 C 2001.12 0.144343 -2.01985 0
M  V30 21318 C 2001.44 1.43704 -1.31071 0
M  V30 21319 O 2000.7 1.91341 -0.410741 0
M  V30 21320 C 2001 0.421964 -3.549 0
M  V30 21321 C 2000.66 -0.78354 -4.4404 0
M  V30 21322 C 1999.33 -1.11416 -4.68124 0
M  V30 21323 C 2001.68 -1.58827 -4.9641 0
M  V30 21324 C 1999.01 -2.25041 -5.41824 0
M  V30 21325 C 2001.36 -2.71542 -5.71356 0
M  V30 21326 C 2000.02 -3.05071 -5.93707 0
M  V30 21327 H 1999.29 0.0528187 -0.739115 0
M  V30 21328 H 2001.94 -0.570784 -1.82796 0
M  V30 21329 H 2000.24 1.21885 -3.72359 0
M  V30 21330 H 2001.94 0.876435 -3.91305 0
M  V30 21331 H 1998.53 -0.515891 -4.25484 0
M  V30 21332 H 2002.72 -1.34606 -4.77698 0
M  V30 21333 H 1997.97 -2.51346 -5.57347 0
M  V30 21334 H 2002.15 -3.34275 -6.10928 0
M  V30 21335 H 1999.77 -3.93229 -6.50596 0
M  V30 21336 N 2001.35 1.56817 -0.156891 0
M  V30 21337 C 2002.31 2.16058 0.764967 0
M  V30 21338 C 2003.31 1.10488 1.16829 0
M  V30 21339 O 2004.5 1.36077 1.0876 0
M  V30 21340 C 2001.63 2.73173 2.03935 0
M  V30 21341 H 2002.83 2.98861 0.249482 0
M  V30 21342 H 2000.38 1.56025 0.0926074 0
M  V30 21343 H 2001.11 1.94064 2.59827 0
M  V30 21344 H 2000.9 3.50417 1.75926 0
M  V30 21345 H 2002.39 3.18783 2.69754 0
M  V30 21346 N 2002.83 -0.116876 1.57166 0
M  V30 21347 C 2004.05 -0.842338 1.89524 0
M  V30 21348 C 2004.48 -1.72543 0.749039 0
M  V30 21349 O 2003.83 -1.78795 -0.30035 0
M  V30 21350 C 2003.88 -1.64989 3.20641 0
M  V30 21351 O 2002.99 -2.75701 3.06696 0
M  V30 21352 H 2002.33 -0.232809 0.621849 0
M  V30 21353 H 2004.86 -0.0986366 2.04362 0
M  V30 21354 H 2004.87 -2.03869 3.53414 0
M  V30 21355 H 2003.54 -1.00164 4.03658 0
M  V30 21356 H 2002.12 -2.40009 2.85395 0
M  V30 21357 N 2004.3 -1.52772 -0.387116 0
M  V30 21358 C 2005.72 -1.42064 -0.727316 0
M  V30 21359 C 2005.92 -0.542559 -1.94058 0
M  V30 21360 O 2004.98 -0.0167267 -2.52494 0
M  V30 21361 C 2006.29 -2.84942 -0.960651 0
M  V30 21362 C 2007.84 -2.94432 -1.06201 0
M  V30 21363 C 2008.31 -4.38326 -1.32796 0
M  V30 21364 N 2009.8 -4.41659 -1.39613 0
M  V30 21365 C 2010.54 -5.50081 -1.6186 0
M  V30 21366 N 2010.03 -6.68585 -1.81566 0
M  V30 21367 N 2011.83 -5.37627 -1.64055 0
M  V30 21368 H 2003.98 -2.08382 0.411202 0
M  V30 21369 H 2006.24 -0.940144 0.121792 0
M  V30 21370 H 2005.95 -3.51416 -0.141246 0
M  V30 21371 H 2005.82 -3.27309 -1.87479 0
M  V30 21372 H 2008.21 -2.28125 -1.87198 0
M  V30 21373 H 2008.29 -2.55491 -0.125731 0
M  V30 21374 H 2007.93 -5.05199 -0.523081 0
M  V30 21375 H 2007.86 -4.74821 -2.27711 0
M  V30 21376 H 2010.35 -3.56245 -1.26086 0
M  V30 21377 H 2010.67 -7.4699 -1.98053 0
M  V30 21378 H 2009.01 -6.7161 -1.78786 0
M  V30 21379 H 2012.2 -4.44016 -1.48213 0
M  V30 21380 H 2012.38 -6.22193 -1.81053 0
M  V30 21381 N 2005.78 0.645673 -1.43767 0
M  V30 21382 C 2007.01 1.43303 -1.49237 0
M  V30 21383 C 2007.42 1.88464 -0.11261 0
M  V30 21384 O 2006.78 1.59955 0.878664 0
M  V30 21385 C 2006.83 2.66302 -2.4447 0
M  V30 21386 O 2006.55 2.23028 -3.77081 0
M  V30 21387 C 2008.05 3.59583 -2.59259 0
M  V30 21388 H 2005.27 0.439978 -0.506617 0
M  V30 21389 H 2007.82 0.790924 -1.88586 0
M  V30 21390 H 2005.97 3.26636 -2.08296 0
M  V30 21391 H 2006.39 3.02664 -4.28363 0
M  V30 21392 H 2007.86 4.42532 -3.29953 0
M  V30 21393 H 2008.34 4.07431 -1.64001 0
M  V30 21394 H 2008.94 3.05126 -2.96274 0
M  V30 21395 N 2007.26 1.30423 0.884744 0
M  V30 21396 C 2008.21 1.13434 1.97779 0
M  V30 21397 C 2009.19 0.0494483 1.60824 0
M  V30 21398 O 2010.39 0.272793 1.74885 0
M  V30 21399 C 2007.51 0.828489 3.33153 0
M  V30 21400 C 2006.6 1.95365 3.76422 0
M  V30 21401 N 2006.99 3.19903 3.91785 0
M  V30 21402 C 2005.29 1.85007 4.05818 0
M  V30 21403 C 2005.99 3.93408 4.28492 0
M  V30 21404 N 2004.97 3.2146 4.38366 0
M  V30 21405 H 2008.77 2.07889 2.07748 0
M  V30 21406 H 2006.28 1.21765 1.07457 0
M  V30 21407 H 2008.28 0.687799 4.11187 0
M  V30 21408 H 2006.94 -0.107985 3.2452 0
M  V30 21409 H 2007.95 3.55189 3.7691 0
M  V30 21410 H 2004.63 0.987286 4.05659 0
M  V30 21411 H 2006.02 5.00656 4.48099 0
M  V30 21412 N 2008.74 -1.09711 1.13142 0
M  V30 21413 C 2009.97 -1.85595 0.914436 0
M  V30 21414 C 2010.38 -1.81013 -0.536632 0
M  V30 21415 O 2009.74 -1.20419 -1.37134 0
M  V30 21416 C 2009.79 -3.33692 1.39039 0
M  V30 21417 O 2009.51 -3.38219 2.78459 0
M  V30 21418 C 2011.01 -4.26427 1.21142 0
M  V30 21419 H 2008.23 -0.586333 0.326274 0
M  V30 21420 H 2010.77 -1.38646 1.50325 0
M  V30 21421 H 2008.93 -3.7808 0.844641 0
M  V30 21422 H 2009.34 -4.30567 2.9952 0
M  V30 21423 H 2010.82 -5.28508 1.59323 0
M  V30 21424 H 2011.29 -4.38934 0.152782 0
M  V30 21425 H 2011.9 -3.87851 1.74505 0
M  V30 21426 N 2010.22 -0.924476 -1.27637 0
M  V30 21427 C 2011.15 -0.438348 -2.29349 0
M  V30 21428 C 2012.13 0.499673 -1.62595 0
M  V30 21429 O 2013.31 0.405114 -1.89928 0
M  V30 21430 C 2010.44 0.312668 -3.4589 0
M  V30 21431 C 2009.4 -0.537216 -4.24615 0
M  V30 21432 C 2008.72 0.342776 -5.336 0
M  V30 21433 C 2010.02 -1.80003 -4.90302 0
M  V30 21434 H 2011.72 -1.28838 -2.70261 0
M  V30 21435 H 2009.26 -0.620964 -1.29923 0
M  V30 21436 H 2011.22 0.66367 -4.16141 0
M  V30 21437 H 2009.94 1.1967 -3.03886 0
M  V30 21438 H 2008.6 -0.870883 -3.56106 0
M  V30 21439 H 2008.25 1.22567 -4.87838 0
M  V30 21440 H 2007.95 -0.222352 -5.87179 0
M  V30 21441 H 2009.47 0.689422 -6.06695 0
M  V30 21442 H 2010.88 -1.51729 -5.52857 0
M  V30 21443 H 2009.28 -2.3084 -5.53925 0
M  V30 21444 H 2010.35 -2.52148 -4.14186 0
M  V30 21445 N 2011.69 1.41711 -0.689627 0
M  V30 21446 C 2012.64 2.30791 -0.020555 0
M  V30 21447 C 2013.61 1.46782 0.777447 0
M  V30 21448 O 2014.8 1.75582 0.746688 0
M  V30 21449 C 2011.94 3.32772 0.914149 0
M  V30 21450 C 2011.05 4.31864 0.108394 0
M  V30 21451 C 2010.18 5.20916 1.0402 0
M  V30 21452 C 2009.22 6.11679 0.227 0
M  V30 21453 N 2008.36 6.93233 1.11229 0
M  V30 21454 H 2013.2 2.87448 -0.78597 0
M  V30 21455 H 2010.74 1.41576 -0.399313 0
M  V30 21456 H 2012.7 3.90442 1.47005 0
M  V30 21457 H 2011.33 2.77679 1.64603 0
M  V30 21458 H 2010.38 3.7619 -0.564348 0
M  V30 21459 H 2011.69 4.96058 -0.522312 0
M  V30 21460 H 2010.84 5.83391 1.66553 0
M  V30 21461 H 2009.58 4.56934 1.70477 0
M  V30 21462 H 2008.59 5.48258 -0.411449 0
M  V30 21463 H 2009.81 6.77714 -0.433691 0
M  V30 21464 H 2007.76 6.31866 1.76299 0
M  V30 21465 H 2007.68 7.5409 0.537017 0
M  V30 21466 H 2008.94 7.60182 1.72463 0
M  V30 21467 N 2013.17 0.433965 1.51507 0
M  V30 21468 C 2014.4 -0.134793 2.06962 0
M  V30 21469 C 2014.82 -1.35984 1.29962 0
M  V30 21470 O 2014.18 -1.78147 0.336629 0
M  V30 21471 C 2014.23 -0.438976 3.57918 0
M  V30 21472 O 2013.33 -1.52599 3.83128 0
M  V30 21473 H 2012.67 -0.00334493 0.663992 0
M  V30 21474 H 2015.2 0.614327 1.95159 0
M  V30 21475 H 2015.21 -0.690415 4.02116 0
M  V30 21476 H 2013.89 0.456413 4.13388 0
M  V30 21477 H 2012.47 -1.26478 3.50796 0
M  V30 21478 N 2014.65 -1.56732 0.165206 0
M  V30 21479 C 2015.88 -2.01506 -0.490943 0
M  V30 21480 C 2016.3 -1.04466 -1.56424 0
M  V30 21481 O 2015.66 -0.0232331 -1.81285 0
M  V30 21482 C 2015.71 -3.4492 -1.05179 0
M  V30 21483 O 2014.81 -3.50937 -2.16603 0
M  V30 21484 H 2014.15 -0.653393 -0.11821 0
M  V30 21485 H 2016.68 -2.02846 0.267298 0
M  V30 21486 H 2016.69 -3.84099 -1.37593 0
M  V30 21487 H 2015.37 -4.15049 -0.265916 0
M  V30 21488 H 2013.94 -3.23613 -1.85281 0
M  V30 21489 N 2016.13 0.10854 -1.57226 0
M  V30 21490 C 2017.38 0.812858 -1.85033 0
M  V30 21491 C 2017.7 1.79919 -0.751944 0
M  V30 21492 O 2016.97 1.94626 0.223093 0
M  V30 21493 H 2015.55 0.303181 -0.682708 0
M  V30 21494 H 2018.21 0.0933699 -1.94676 0
M  V30 21495 H 2017.31 1.35169 -2.81311 0
M  V30 21496 N 2017.61 1.52975 0.379009 0
M  V30 21497 C 2019.02 1.42448 0.719772 0
M  V30 21498 C 2019.22 0.552842 1.93768 0
M  V30 21499 O 2018.28 0.0301168 2.52482 0
M  V30 21500 C 2019.59 2.85448 0.945527 0
M  V30 21501 C 2021.14 2.94991 1.04638 0
M  V30 21502 C 2021.61 4.39024 1.30469 0
M  V30 21503 N 2023.11 4.42393 1.37269 0
M  V30 21504 C 2023.84 5.50931 1.58941 0
M  V30 21505 N 2023.34 6.69538 1.78017 0
M  V30 21506 N 2025.13 5.38489 1.61202 0
M  V30 21507 H 2017.28 2.08161 -0.422247 0
M  V30 21508 H 2019.54 0.939485 -0.126776 0
M  V30 21509 H 2019.25 3.51486 0.122608 0
M  V30 21510 H 2019.12 3.28299 1.85741 0
M  V30 21511 H 2021.51 2.29115 1.85985 0
M  V30 21512 H 2021.59 2.55554 0.11218 0
M  V30 21513 H 2021.24 5.0547 0.496281 0
M  V30 21514 H 2021.17 4.76022 2.2519 0
M  V30 21515 H 2023.66 3.56909 1.24195 0
M  V30 21516 H 2023.97 7.4803 1.94089 0
M  V30 21517 H 2022.31 6.72549 1.75222 0
M  V30 21518 H 2025.51 4.44796 1.45856 0
M  V30 21519 H 2025.68 6.23144 1.77751 0
M  V30 21520 N 2019.08 -0.63804 1.44107 0
M  V30 21521 C 2020.33 -1.39366 1.45808 0
M  V30 21522 C 2020.65 -1.95384 0.091867 0
M  V30 21523 O 2021.85 -2.71497 -0.0136182 0
M  V30 21524 C 2020.31 -2.52293 2.56663 0
M  V30 21525 C 2019.92 -2.02818 3.99461 0
M  V30 21526 C 2021.66 -3.29549 2.67577 0
M  V30 21527 C 2019.57 -3.13047 5.01753 0
M  V30 21528 H 2018.5 -0.5237 0.542452 0
M  V30 21529 H 2021.15 -0.687131 1.70149 0
M  V30 21530 H 2019.53 -3.25489 2.2555 0
M  V30 21531 H 2020.7 -1.36533 4.40108 0
M  V30 21532 H 2019.02 -1.38398 3.92728 0
M  V30 21533 H 2021.62 -4.11709 3.41174 0
M  V30 21534 H 2021.96 -3.78579 1.73159 0
M  V30 21535 H 2022.49 -2.63441 2.98066 0
M  V30 21536 H 2019.23 -2.68969 5.97776 0
M  V30 21537 H 2018.75 -3.77995 4.65704 0
M  V30 21538 H 2020.43 -3.77934 5.25142 0
M  V30 21539 N 2020.56 -1.3089 -0.877815 0
M  V30 21540 C 2021.79 -1.23199 -1.66844 0
M  V30 21541 C 2022.21 0.200808 -1.87025 0
M  V30 21542 O 2021.57 1.14417 -1.40636 0
M  V30 21543 C 2021.62 -1.97328 -3.01818 0
M  V30 21544 O 2020.72 -1.30526 -3.91199 0
M  V30 21545 H 2020.06 -0.425746 -0.509545 0
M  V30 21546 H 2022.59 -1.7283 -1.09504 0
M  V30 21547 H 2022.6 -2.06624 -3.51811 0
M  V30 21548 H 2021.28 -3.01529 -2.86449 0
M  V30 21549 H 2019.86 -1.29631 -3.49643 0
M  V30 21550 N 2022.04 1.0911 -1.13723 0
M  V30 21551 C 2023.32 1.77949 -0.812014 0
M  V30 21552 C 2023.7 1.99302 0.695832 0
M  V30 21553 O 2023.05 1.59704 1.63422 0
M  V30 21554 C 2023.26 3.10028 -1.60262 0
M  V30 21555 C 2024.6 3.84681 -1.79738 0
M  V30 21556 O 2025.63 3.19789 -1.56887 0
M  V30 21557 O 2024.49 5.01185 -2.17888 0
M  V30 21558 H 2021.58 0.7719 -0.296816 0
M  V30 21559 H 2024.13 1.15637 -1.24202 0
M  V30 21560 H 2022.9 2.8999 -2.62719 0
M  V30 21561 H 2022.52 3.80065 -1.16776 0
M  V30 21562 N 2023.52 0.931232 1.27145 0
M  V30 21563 C 2024.76 0.574376 1.94496 0
M  V30 21564 C 2025.1 -0.882702 1.7298 0
M  V30 21565 O 2024.37 -1.63016 1.06094 0
M  V30 21566 C 2024.66 0.905384 3.48532 0
M  V30 21567 C 2024.51 2.41647 3.79377 0
M  V30 21568 C 2025.83 0.413756 4.38151 0
M  V30 21569 H 2022.95 0.210149 0.706404 0
M  V30 21570 H 2025.59 1.16365 1.50197 0
M  V30 21571 H 2023.74 0.403903 3.86395 0
M  V30 21572 H 2025.41 2.98992 3.51286 0
M  V30 21573 H 2023.65 2.86417 3.25803 0
M  V30 21574 H 2024.32 2.5986 4.87008 0
M  V30 21575 H 2026.8 0.843592 4.07459 0
M  V30 21576 H 2025.68 0.67428 5.44743 0
M  V30 21577 H 2025.94 -0.686214 4.36742 0
M  V30 21578 N 2025 -1.41343 0.697132 0
M  V30 21579 C 2026.24 -2.01204 0.22876 0
M  V30 21580 C 2026.57 -1.55215 -1.17211 0
M  V30 21581 O 2025.83 -0.754886 -1.80555 0
M  V30 21582 C 2026.13 -3.56617 0.236459 0
M  V30 21583 C 2025.79 -4.22121 1.58507 0
M  V30 21584 C 2024.45 -4.39729 1.95427 0
M  V30 21585 C 2026.81 -4.58835 2.47224 0
M  V30 21586 C 2024.13 -4.91328 3.20646 0
M  V30 21587 C 2026.49 -5.11825 3.71777 0
M  V30 21588 C 2025.15 -5.27643 4.08838 0
M  V30 21589 H 2024.42 -0.736257 0.0837091 0
M  V30 21590 H 2027.07 -1.69218 0.89653 0
M  V30 21591 H 2025.37 -3.88402 -0.514862 0
M  V30 21592 H 2027.07 -4.00743 -0.14349 0
M  V30 21593 H 2023.66 -4.08792 1.28791 0
M  V30 21594 H 2027.84 -4.44885 2.1998 0
M  V30 21595 H 2023.1 -5.01759 3.49353 0
M  V30 21596 H 2027.27 -5.39213 4.40706 0
M  V30 21597 H 2024.9 -5.67388 5.05939 0
M  V30 21598 N 2026.48 -0.441993 -1.51275 0
M  V30 21599 C 2027.41 0.357557 -2.30746 0
M  V30 21600 C 2028.39 1.01683 -1.36362 0
M  V30 21601 O 2029.57 1.01958 -1.65282 0
M  V30 21602 C 2026.7 1.45642 -3.15287 0
M  V30 21603 C 2025.66 0.920377 -4.17987 0
M  V30 21604 C 2024.98 2.11534 -4.91078 0
M  V30 21605 C 2026.28 -0.0483941 -5.22278 0
M  V30 21606 H 2027.98 -0.30565 -2.97836 0
M  V30 21607 H 2025.52 -0.148438 -1.43233 0
M  V30 21608 H 2027.47 2.02301 -3.69665 0
M  V30 21609 H 2026.2 2.14798 -2.46027 0
M  V30 21610 H 2024.86 0.375962 -3.64667 0
M  V30 21611 H 2024.51 2.7932 -4.18317 0
M  V30 21612 H 2024.21 1.76303 -5.60527 0
M  V30 21613 H 2025.73 2.68738 -5.48281 0
M  V30 21614 H 2027.14 0.428053 -5.717 0
M  V30 21615 H 2025.54 -0.313504 -5.99281 0
M  V30 21616 H 2026.61 -0.983611 -4.74819 0
M  V30 21617 N 2027.95 1.56642 -0.173515 0
M  V30 21618 C 2029.19 1.98845 0.473303 0
M  V30 21619 C 2029.56 1.05721 1.60272 0
M  V30 21620 O 2030.76 1.37073 2.31224 0
M  V30 21621 C 2029.03 3.44767 0.94185 0
M  V30 21622 S 2030.59 4.08998 1.58954 0
M  V30 21623 H 2027.41 0.694527 0.152161 0
M  V30 21624 H 2030.01 1.93606 -0.271494 0
M  V30 21625 H 2028.71 4.10254 0.109473 0
M  V30 21626 H 2028.24 3.53776 1.72063 0
M  V30 21627 H 2030.26 4.04227 2.87775 0
M  V30 21628 N 2029.43 -0.1002 1.57281 0
M  V30 21629 C 2030.85 -0.454271 1.52998 0
M  V30 21630 C 2031.05 -1.80807 0.889451 0
M  V30 21631 O 2030.1 -2.479 0.479781 0
M  V30 21632 C 2031.42 -0.421457 2.97732 0
M  V30 21633 C 2032.96 -0.503676 3.08921 0
M  V30 21634 C 2033.44 -0.501062 4.55251 0
M  V30 21635 N 2034.93 -0.561964 4.59778 0
M  V30 21636 C 2035.67 -0.581696 5.70442 0
M  V30 21637 N 2035.16 -0.557942 6.9055 0
M  V30 21638 N 2036.95 -0.626123 5.58602 0
M  V30 21639 H 2029.11 0.786609 1.97297 0
M  V30 21640 H 2031.37 0.292244 0.90183 0
M  V30 21641 H 2031.07 0.506016 3.48041 0
M  V30 21642 H 2030.95 -1.24233 3.56154 0
M  V30 21643 H 2033.34 -1.42157 2.58603 0
M  V30 21644 H 2033.42 0.345241 2.5346 0
M  V30 21645 H 2033.06 0.412865 5.06219 0
M  V30 21646 H 2032.99 -1.36712 5.08544 0
M  V30 21647 H 2035.48 -0.585723 3.73333 0
M  V30 21648 H 2035.79 -0.576141 7.70649 0
M  V30 21649 H 2034.14 -0.52507 6.93014 0
M  V30 21650 H 2037.33 -0.642175 4.63674 0
M  V30 21651 H 2037.5 -0.638033 6.44851 0
M  V30 21652 N 2030.91 -1.53174 -0.370891 0
M  V30 21653 C 2031.86 -1.75617 -1.45406 0
M  V30 21654 C 2032.84 -0.610579 -1.48865 0
M  V30 21655 O 2034.04 -0.86906 -1.54196 0
M  V30 21656 C 2031.16 -1.94473 -2.82905 0
M  V30 21657 C 2030.25 -3.15018 -2.83944 0
M  V30 21658 N 2030.64 -4.37029 -2.54635 0
M  V30 21659 C 2028.94 -3.15632 -3.15107 0
M  V30 21660 C 2029.64 -5.1874 -2.63218 0
M  V30 21661 N 2028.62 -4.54831 -2.97708 0
M  V30 21662 H 2032.42 -2.67564 -1.216 0
M  V30 21663 H 2029.93 -1.51727 -0.579026 0
M  V30 21664 H 2031.93 -2.08678 -3.60914 0
M  V30 21665 H 2030.59 -1.03751 -3.07678 0
M  V30 21666 H 2031.6 -4.64853 -2.28325 0
M  V30 21667 H 2028.28 -2.34783 -3.45229 0
M  V30 21668 H 2029.67 -6.2605 -2.4395 0
M  V30 21669 N 2032.39 0.630389 -1.44443 0
M  V30 21670 C 2033.3 1.77101 -1.53859 0
M  V30 21671 C 2034.31 1.68749 -0.424221 0
M  V30 21672 O 2035.49 1.89513 -0.681673 0
M  V30 21673 C 2032.55 3.13487 -1.48077 0
M  V30 21674 C 2031.62 3.33464 -2.7037 0
M  V30 21675 C 2030.85 4.63344 -2.64855 0
M  V30 21676 O 2031.07 5.44196 -1.70899 0
M  V30 21677 O 2030.01 4.85539 -3.55718 0
M  V30 21678 H 2033.83 1.7211 -2.50223 0
M  V30 21679 H 2031.42 0.791704 -1.26698 0
M  V30 21680 H 2033.3 3.94788 -1.47378 0
M  V30 21681 H 2031.97 3.19018 -0.54856 0
M  V30 21682 H 2030.88 2.51839 -2.76637 0
M  V30 21683 H 2032.21 3.32795 -3.6264 0
M  V30 21684 N 2033.87 1.31354 0.870861 0
M  V30 21685 C 2034.81 1.18928 1.978 0
M  V30 21686 C 2035.78 0.07529 1.65929 0
M  V30 21687 O 2036.97 0.247992 1.89181 0
M  V30 21688 C 2034.11 0.901663 3.33113 0
M  V30 21689 C 2033.22 2.0989 3.77584 0
M  V30 21690 C 2032.36 1.74815 5.01611 0
M  V30 21691 C 2031.39 2.90952 5.38529 0
M  V30 21692 N 2030.53 2.56077 6.53734 0
M  V30 21693 H 2035.37 2.13636 2.07759 0
M  V30 21694 H 2032.91 1.06273 1.01708 0
M  V30 21695 H 2034.87 0.715464 4.11019 0
M  V30 21696 H 2033.5 -0.00857463 3.22799 0
M  V30 21697 H 2032.55 2.3959 2.95467 0
M  V30 21698 H 2033.86 2.96817 4.00875 0
M  V30 21699 H 2033.01 1.52652 5.87182 0
M  V30 21700 H 2031.75 0.850776 4.80222 0
M  V30 21701 H 2030.76 3.13764 4.51478 0
M  V30 21702 H 2031.98 3.81397 5.61884 0
M  V30 21703 H 2029.93 1.68863 6.33894 0
M  V30 21704 H 2029.85 3.36535 6.76964 0
M  V30 21705 H 2031.11 2.37306 7.425 0
M  V30 21706 N 2035.34 -1.08505 1.143 0
M  V30 21707 C 2036.59 -1.80248 0.90519 0
M  V30 21708 C 2036.91 -1.87116 -0.56981 0
M  V30 21709 O 2038.11 -2.55262 -0.924844 0
M  V30 21710 C 2036.57 -3.23851 1.56998 0
M  V30 21711 C 2036.18 -3.2522 3.08117 0
M  V30 21712 C 2037.92 -4.00284 1.41325 0
M  V30 21713 C 2035.83 -4.63405 3.67437 0
M  V30 21714 H 2034.76 -0.67549 0.335007 0
M  V30 21715 H 2037.41 -1.21877 1.3718 0
M  V30 21716 H 2035.79 -3.82342 1.03104 0
M  V30 21717 H 2036.96 -2.76441 3.68669 0
M  V30 21718 H 2035.28 -2.62281 3.23415 0
M  V30 21719 H 2037.88 -5.02393 1.83046 0
M  V30 21720 H 2038.22 -4.14747 0.359236 0
M  V30 21721 H 2038.75 -3.4826 1.9225 0
M  V30 21722 H 2035.49 -4.54145 4.72686 0
M  V30 21723 H 2035.01 -5.1247 3.11665 0
M  V30 21724 H 2036.69 -5.3238 3.6767 0
M  V30 21725 N 2036.82 -0.937962 -1.26649 0
M  V30 21726 C 2038.07 -0.583818 -1.93902 0
M  V30 21727 C 2038.4 0.876602 -1.73626 0
M  V30 21728 O 2037.65 1.64203 -1.0647 0
M  V30 21729 C 2037.95 -0.868478 -3.46687 0
M  V30 21730 C 2037.62 -2.31227 -3.87098 0
M  V30 21731 C 2036.28 -2.70695 -3.97841 0
M  V30 21732 C 2038.63 -3.25068 -4.07407 0
M  V30 21733 C 2035.96 -4.03107 -4.26288 0
M  V30 21734 C 2038.31 -4.57073 -4.37341 0
M  V30 21735 C 2036.97 -4.96361 -4.46298 0
M  V30 21736 H 2036.24 -0.213634 -0.709536 0
M  V30 21737 H 2038.89 -1.18386 -1.50522 0
M  V30 21738 H 2037.2 -0.185864 -3.91359 0
M  V30 21739 H 2038.89 -0.573289 -3.96881 0
M  V30 21740 H 2035.48 -1.99611 -3.7928 0
M  V30 21741 H 2039.67 -2.95773 -3.98537 0
M  V30 21742 H 2034.92 -4.33214 -4.31434 0
M  V30 21743 H 2039.1 -5.29781 -4.52001 0
M  V30 21744 H 2036.72 -5.98992 -4.68095 0
M  V30 21745 N 2038.3 1.40971 -0.704618 0
M  V30 21746 C 2039.25 2.2799 -0.0216885 0
M  V30 21747 C 2040.23 1.42681 0.743698 0
M  V30 21748 O 2041.43 1.65872 0.617703 0
M  V30 21749 C 2038.55 3.31092 0.907373 0
M  V30 21750 C 2037.64 4.23876 0.137755 0
M  V30 21751 N 2038.03 4.98205 -0.87323 0
M  V30 21752 C 2036.33 4.44447 0.371921 0
M  V30 21753 C 2037.03 5.6618 -1.33471 0
M  V30 21754 N 2036.01 5.39592 -0.658918 0
M  V30 21755 H 2039.81 2.82896 -0.796698 0
M  V30 21756 H 2037.32 1.53291 -0.536241 0
M  V30 21757 H 2039.32 3.92266 1.41185 0
M  V30 21758 H 2037.98 2.77746 1.68188 0
M  V30 21759 H 2038.99 5.02495 -1.25375 0
M  V30 21760 H 2035.67 4.02096 1.12361 0
M  V30 21761 H 2037.06 6.35752 -2.17415 0
M  V30 21762 N 2039.78 0.45001 1.51039 0
M  V30 21763 C 2041.19 -0.0101397 1.86697 0
M  V30 21764 C 2041.54 -1.40804 1.36633 0
M  V30 21765 O 2040.67 -2.03986 0.722411 0
M  V30 21766 C 2041.26 -0.0251761 3.38791 0
M  V30 21767 C 2039.82 -0.429779 3.73938 0
M  V30 21768 C 2038.97 0.369286 2.7483 0
M  V30 21769 H 2041.92 0.665278 1.44082 0
M  V30 21770 H 2041.94 -0.831964 3.71293 0
M  V30 21771 H 2041.45 0.992361 3.75198 0
M  V30 21772 H 2039.55 -1.45245 3.43125 0
M  V30 21773 H 2039.66 -0.145773 4.78878 0
M  V30 21774 H 2038.03 -0.174158 2.54104 0
M  V30 21775 H 2038.81 1.38594 3.14081 0
M  V30 21776 N 2041.26 -1.56548 0.18182 0
M  V30 21777 C 2042.2 -2.19794 -0.761146 0
M  V30 21778 C 2043.2 -1.16509 -1.22971 0
M  V30 21779 O 2044.4 -1.34685 -1.19415 0
M  V30 21780 H 2040.78 -0.704224 -0.263766 0
M  V30 21781 H 2042.75 -2.97703 -0.203871 0
M  V30 21782 C 2041.5 -2.86108 -1.9758 0
M  V30 21783 H 2040.82 -3.65317 -1.62429 0
M  V30 21784 H 2042.26 -3.33816 -2.61424 0
M  V30 21785 C 2040.72 -1.86435 -2.80613 0
M  V30 21786 O 2041.25 -1.35635 -3.78109 0
M  V30 21787 N 2039.46 -1.54958 -2.45838 0
M  V30 21788 H 2039 -1.96462 -1.66614 0
M  V30 21789 H 2038.96 -0.885231 -3.0168 0
M  V30 21790 N 2042.73 0.0918577 -1.57332 0
M  V30 21791 C 2043.68 1.11121 -2.02289 0
M  V30 21792 C 2044.65 1.39617 -0.899791 0
M  V30 21793 O 2045.84 1.51025 -1.16602 0
M  V30 21794 C 2042.98 2.42534 -2.45502 0
M  V30 21795 C 2042.09 2.20741 -3.71345 0
M  V30 21796 C 2041.22 3.45576 -4.03424 0
M  V30 21797 C 2040.26 3.19059 -5.22368 0
M  V30 21798 N 2039.4 4.36169 -5.50182 0
M  V30 21799 H 2044.24 0.720847 -2.8915 0
M  V30 21800 H 2041.78 0.344398 -1.43012 0
M  V30 21801 H 2043.74 3.19232 -2.68601 0
M  V30 21802 H 2042.37 2.79411 -1.61646 0
M  V30 21803 H 2041.42 1.3483 -3.55704 0
M  V30 21804 H 2042.73 1.97141 -4.58189 0
M  V30 21805 H 2041.88 4.3068 -4.27317 0
M  V30 21806 H 2040.62 3.72234 -3.15108 0
M  V30 21807 H 2039.63 2.32349 -4.98291 0
M  V30 21808 H 2040.85 2.93744 -6.12284 0
M  V30 21809 H 2038.8 4.62896 -4.64826 0
M  V30 21810 H 2038.72 4.15771 -6.31404 0
M  V30 21811 H 2039.98 5.22328 -5.78613 0
M  V30 21812 N 2044.21 1.53368 0.362763 0
M  V30 21813 C 2045.46 1.69352 1.10292 0
M  V30 21814 C 2045.78 0.449366 1.89752 0
M  V30 21815 O 2045.05 -0.536608 1.88407 0
M  V30 21816 H 2043.63 0.62432 0.410162 0
M  V30 21817 H 2046.29 1.90567 0.408694 0
M  V30 21818 H 2045.39 2.55586 1.79115 0
M  V30 21819 N 2045.69 -0.62272 1.44776 0
M  V30 21820 C 2046.92 -1.40706 1.51279 0
M  V30 21821 C 2047.33 -1.88688 0.139108 0
M  V30 21822 O 2046.67 -1.61963 -0.866823 0
M  V30 21823 C 2046.73 -2.65579 2.42298 0
M  V30 21824 C 2046.4 -2.39338 3.89315 0
M  V30 21825 C 2047.39 -2.0064 4.79624 0
M  V30 21826 C 2045.08 -2.52717 4.34096 0
M  V30 21827 C 2047.07 -1.75662 6.12716 0
M  V30 21828 C 2044.76 -2.27354 5.67233 0
M  V30 21829 C 2045.76 -1.88886 6.56362 0
M  V30 21830 O 2045.45 -1.6381 7.87033 0
M  V30 21831 H 2045.18 -0.437662 0.515197 0
M  V30 21832 H 2047.73 -0.767982 1.90503 0
M  V30 21833 H 2045.96 -3.32154 1.98017 0
M  V30 21834 H 2047.65 -3.27598 2.39655 0
M  V30 21835 H 2048.42 -1.89853 4.46297 0
M  V30 21836 H 2044.3 -2.81628 3.64975 0
M  V30 21837 H 2047.84 -1.45562 6.82244 0
M  V30 21838 H 2043.74 -2.37753 6.0012 0
M  V30 21839 H 2044.51 -1.77986 7.98914 0
M  V30 21840 N 2047.17 -1.31814 -0.863883 0
M  V30 21841 C 2048.42 -1.21205 -1.61221 0
M  V30 21842 C 2048.73 0.227073 -1.94277 0
M  V30 21843 O 2049.94 0.454922 -2.67662 0
M  V30 21844 C 2048.39 -2.12221 -2.90672 0
M  V30 21845 C 2048 -3.61163 -2.65076 0
M  V30 21846 C 2049.74 -2.10427 -3.68674 0
M  V30 21847 C 2047.65 -4.44169 -3.90471 0
M  V30 21848 H 2046.58 -0.450072 -0.604939 0
M  V30 21849 H 2049.23 -1.56711 -0.954668 0
M  V30 21850 H 2047.61 -1.6962 -3.57834 0
M  V30 21851 H 2048.79 -4.12049 -2.06283 0
M  V30 21852 H 2047.1 -3.64995 -2.00418 0
M  V30 21853 H 2049.7 -2.69684 -4.61708 0
M  V30 21854 H 2050.04 -1.09293 -4.01697 0
M  V30 21855 H 2050.58 -2.5126 -3.08404 0
M  V30 21856 H 2047.32 -5.46082 -3.62595 0
M  V30 21857 H 2046.84 -3.98039 -4.48693 0
M  V30 21858 H 2048.51 -4.56696 -4.58299 0
M  V30 21859 N 2048.65 1.07897 -1.14873 0
M  V30 21860 C 2049.88 1.8385 -0.942478 0
M  V30 21861 C 2050.28 1.82127 0.512486 0
M  V30 21862 O 2049.63 1.22709 1.36705 0
M  V30 21863 C 2049.69 3.32272 -1.37244 0
M  V30 21864 C 2049.35 3.57723 -2.844 0
M  V30 21865 C 2050.35 3.52131 -3.82492 0
M  V30 21866 C 2048.04 3.85567 -3.21937 0
M  V30 21867 C 2050.03 3.74022 -5.16126 0
M  V30 21868 C 2047.72 4.07111 -4.55745 0
M  V30 21869 C 2048.71 4.01333 -5.52649 0
M  V30 21870 O 2048.4 4.22306 -6.84042 0
M  V30 21871 H 2048.13 0.587081 -0.33513 0
M  V30 21872 H 2050.69 1.37142 -1.52909 0
M  V30 21873 H 2048.92 3.79763 -0.72919 0
M  V30 21874 H 2050.61 3.89674 -1.13617 0
M  V30 21875 H 2051.37 3.30628 -3.54838 0
M  V30 21876 H 2047.25 3.89182 -2.471 0
M  V30 21877 H 2050.8 3.69428 -5.91751 0
M  V30 21878 H 2046.69 4.28099 -4.83117 0
M  V30 21879 H 2047.46 4.39684 -6.90377 0
M  V30 21880 N 2050.12 0.944665 1.2615 0
M  V30 21881 C 2051.37 0.594973 1.93876 0
M  V30 21882 C 2051.7 -0.864305 1.73906 0
M  V30 21883 O 2050.98 -1.61882 1.07817 0
M  V30 21884 C 2051.26 0.9423 3.47552 0
M  V30 21885 C 2051.11 2.45658 3.76792 0
M  V30 21886 C 2052.43 0.460204 4.37687 0
M  V30 21887 H 2049.55 0.217629 0.704135 0
M  V30 21888 H 2052.19 1.17952 1.48954 0
M  V30 21889 H 2050.34 0.444863 3.85945 0
M  V30 21890 H 2052.02 3.02701 3.48095 0
M  V30 21891 H 2050.26 2.89856 3.22747 0
M  V30 21892 H 2050.93 2.65011 4.84224 0
M  V30 21893 H 2053.41 0.886761 4.06541 0
M  V30 21894 H 2052.28 0.732019 5.43997 0
M  V30 21895 H 2052.54 -0.639853 4.37445 0
M  V30 21896 N 2051.6 -1.40596 0.712085 0
M  V30 21897 C 2052.85 -2.01247 0.250458 0
M  V30 21898 C 2053.18 -1.56324 -1.15224 0
M  V30 21899 O 2052.46 -0.781734 -1.78099 0
M  V30 21900 C 2052.74 -3.58616 0.326579 0
M  V30 21901 C 2052.59 -4.13622 1.7674 0
M  V30 21902 C 2053.91 -4.39047 -0.304236 0
M  V30 21903 H 2051.03 -0.731174 0.0924819 0
M  V30 21904 H 2053.67 -1.6712 0.903924 0
M  V30 21905 H 2051.82 -3.8782 -0.229796 0
M  V30 21906 H 2053.49 -3.9523 2.37889 0
M  V30 21907 H 2051.74 -3.68042 2.29625 0
M  V30 21908 H 2052.41 -5.22782 1.77208 0
M  V30 21909 H 2054.88 -4.15753 0.169788 0
M  V30 21910 H 2053.76 -5.48457 -0.220511 0
M  V30 21911 H 2054.02 -4.1977 -1.38727 0
M  V30 21912 N 2053.08 -0.458013 -1.50798 0
M  V30 21913 C 2054.03 0.342913 -2.28238 0
M  V30 21914 C 2055 0.99876 -1.32718 0
M  V30 21915 O 2056.18 1.01371 -1.61643 0
M  V30 21916 C 2053.32 1.42646 -3.14239 0
M  V30 21917 C 2052.44 0.786698 -4.24776 0
M  V30 21918 C 2051.57 1.84704 -4.98054 0
M  V30 21919 C 2050.61 1.18681 -6.00484 0
M  V30 21920 N 2049.75 2.18942 -6.6709 0
M  V30 21921 H 2054.59 -0.323799 -2.96236 0
M  V30 21922 H 2052.12 -0.171528 -1.46097 0
M  V30 21923 H 2054.08 2.0662 -3.62442 0
M  V30 21924 H 2052.71 2.06252 -2.48314 0
M  V30 21925 H 2051.76 0.0347215 -3.80384 0
M  V30 21926 H 2053.08 0.264877 -4.98096 0
M  V30 21927 H 2052.23 2.5629 -5.49909 0
M  V30 21928 H 2050.97 2.40263 -4.24411 0
M  V30 21929 H 2049.97 0.45651 -5.47901 0
M  V30 21930 H 2051.2 0.638278 -6.76094 0
M  V30 21931 H 2049.14 2.73543 -5.96247 0
M  V30 21932 H 2049.06 1.71709 -7.36242 0
M  V30 21933 H 2050.33 2.89949 -7.23568 0
M  V30 21934 N 2054.56 1.56449 -0.190119 0
M  V30 21935 C 2055.81 1.9773 0.450624 0
M  V30 21936 C 2056.14 1.07678 1.61614 0
M  V30 21937 O 2055.41 0.127743 1.9408 0
M  V30 21938 C 2055.7 3.48267 0.915552 0
M  V30 21939 C 2055.55 4.49097 -0.251436 0
M  V30 21940 C 2056.87 4.02374 1.78278 0
M  V30 21941 H 2053.99 0.718902 0.162325 0
M  V30 21942 H 2056.63 1.87925 -0.28004 0
M  V30 21943 H 2054.78 3.56753 1.53816 0
M  V30 21944 H 2056.45 4.52653 -0.888996 0
M  V30 21945 H 2054.69 4.24276 -0.903996 0
M  V30 21946 H 2055.37 5.51877 0.116306 0
M  V30 21947 H 2057.84 3.96636 1.25774 0
M  V30 21948 H 2056.72 5.08084 2.07706 0
M  V30 21949 H 2056.98 3.4733 2.73522 0
M  V30 21950 N 2056.04 -0.0835127 1.57379 0
M  V30 21951 C 2056.97 -1.13193 1.98148 0
M  V30 21952 C 2057.95 -1.38213 0.856507 0
M  V30 21953 O 2059.13 -1.5178 1.11781 0
M  V30 21954 C 2056.26 -2.47874 2.30817 0
M  V30 21955 C 2055.31 -2.39062 3.53202 0
M  V30 21956 S 2056.14 -1.79599 5.04484 0
M  V30 21957 C 2057.29 -3.15881 5.40342 0
M  V30 21958 H 2057.53 -0.784436 2.86765 0
M  V30 21959 H 2055.06 -0.291621 1.51621 0
M  V30 21960 H 2057.02 -3.25351 2.50314 0
M  V30 21961 H 2055.68 -2.79788 1.4275 0
M  V30 21962 H 2054.87 -3.38355 3.73539 0
M  V30 21963 H 2054.47 -1.69718 3.33274 0
M  V30 21964 H 2056.77 -4.12176 5.37696 0
M  V30 21965 H 2057.71 -3.00336 6.41252 0
M  V30 21966 H 2058.12 -3.15947 4.67801 0
M  V30 21967 N 2057.52 -1.53558 -0.354624 0
M  V30 21968 C 2058.93 -1.43575 -0.697019 0
M  V30 21969 C 2059.13 -0.583599 -1.92864 0
M  V30 21970 O 2058.19 -0.0702807 -2.52402 0
M  V30 21971 C 2059.5 -2.86916 -0.899995 0
M  V30 21972 C 2061.05 -2.96619 -0.999314 0
M  V30 21973 C 2061.52 -4.41044 -1.23468 0
M  V30 21974 N 2063.01 -4.44521 -1.30214 0
M  V30 21975 C 2063.75 -5.5339 -1.50156 0
M  V30 21976 N 2063.25 -6.72286 -1.67343 0
M  V30 21977 N 2065.04 -5.40985 -1.52614 0
M  V30 21978 H 2057.19 -2.07462 0.45531 0
M  V30 21979 H 2059.45 -0.937349 0.141706 0
M  V30 21980 H 2059.16 -3.51637 -0.066674 0
M  V30 21981 H 2059.03 -3.31212 -1.80495 0
M  V30 21982 H 2061.42 -2.32044 -1.82317 0
M  V30 21983 H 2061.5 -2.557 -0.0715092 0
M  V30 21984 H 2061.14 -5.06195 -0.415803 0
M  V30 21985 H 2061.07 -4.79545 -2.17588 0
M  V30 21986 H 2063.57 -3.5884 -1.18501 0
M  V30 21987 H 2063.88 -7.51023 -1.82164 0
M  V30 21988 H 2062.22 -6.75252 -1.645 0
M  V30 21989 H 2065.41 -4.4706 -1.38762 0
M  V30 21990 H 2065.59 -6.25893 -1.67815 0
M  V30 21991 N 2058.99 0.615033 -1.45104 0
M  V30 21992 C 2059.9 1.75459 -1.55728 0
M  V30 21993 C 2060.92 1.6829 -0.442095 0
M  V30 21994 O 2062.1 1.88779 -0.701735 0
M  V30 21995 C 2059.16 3.11899 -1.51394 0
M  V30 21996 C 2058.22 3.30578 -2.73892 0
M  V30 21997 C 2057.45 4.60509 -2.69754 0
M  V30 21998 O 2057.68 5.42353 -1.76662 0
M  V30 21999 O 2056.61 4.81739 -3.60848 0
M  V30 22000 H 2060.44 1.69447 -2.52035 0
M  V30 22001 H 2058.02 0.778221 -1.27531 0
M  V30 22002 H 2059.9 3.93203 -1.51557 0
M  V30 22003 H 2058.58 3.18418 -0.582365 0
M  V30 22004 H 2057.49 2.48891 -2.79292 0
M  V30 22005 H 2058.82 3.2893 -3.6615 0
M  V30 22006 N 2060.47 1.3227 0.85688 0
M  V30 22007 C 2061.42 1.20972 1.98667 0
M  V30 22008 C 2062.41 0.115019 1.69009 0
M  V30 22009 O 2063.62 0.277796 1.77843 0
M  V30 22010 H 2059.99 0.374926 0.65187 0
M  V30 22011 H 2061.97 2.16528 2.05324 0
M  V30 22012 C 2060.71 0.947348 3.34545 0
M  V30 22013 H 2060.04 1.78189 3.57895 0
M  V30 22014 H 2061.48 0.908529 4.14152 0
M  V30 22015 C 2059.94 -0.349912 3.35078 0
M  V30 22016 O 2060.47 -1.3625 3.77887 0
M  V30 22017 N 2058.67 -0.371097 2.88221 0
M  V30 22018 H 2058.22 0.453449 2.53578 0
M  V30 22019 H 2058.18 -1.23894 2.8896 0
M  V30 22020 N 2061.95 -1.07287 1.15444 0
M  V30 22021 C 2063.18 -1.83614 0.953597 0
M  V30 22022 C 2063.59 -1.82111 -0.498116 0
M  V30 22023 O 2062.95 -1.233 -1.34548 0
M  V30 22024 C 2063 -3.30668 1.46086 0
M  V30 22025 O 2062.72 -3.32236 2.85571 0
M  V30 22026 C 2064.22 -4.23761 1.3016 0
M  V30 22027 H 2061.44 -0.57928 0.338638 0
M  V30 22028 H 2063.99 -1.35426 1.53232 0
M  V30 22029 H 2062.14 -3.76203 0.924647 0
M  V30 22030 H 2062.56 -4.24117 3.08585 0
M  V30 22031 H 2064.03 -5.25009 1.70497 0
M  V30 22032 H 2064.51 -4.38511 0.245852 0
M  V30 22033 H 2065.11 -3.84062 1.82692 0
M  V30 22034 N 2063.43 -0.951342 -1.25647 0
M  V30 22035 C 2064.38 -0.439691 -2.2372 0
M  V30 22036 C 2065.36 0.469243 -1.53906 0
M  V30 22037 O 2066.55 0.302832 -1.7439 0
M  V30 22038 C 2063.68 0.284397 -3.4212 0
M  V30 22039 C 2062.77 -0.642416 -4.19206 0
M  V30 22040 N 2063.16 -1.77263 -4.73721 0
M  V30 22041 C 2061.46 -0.449973 -4.43724 0
M  V30 22042 C 2062.16 -2.35101 -5.32074 0
M  V30 22043 N 2061.13 -1.6379 -5.18337 0
M  V30 22044 H 2064.94 -1.30229 -2.63472 0
M  V30 22045 H 2062.45 -0.808431 -1.40848 0
M  V30 22046 H 2064.45 0.668054 -4.11513 0
M  V30 22047 H 2063.11 1.14364 -3.03893 0
M  V30 22048 H 2064.12 -2.15456 -4.70955 0
M  V30 22049 H 2060.8 0.366665 -4.15887 0
M  V30 22050 H 2062.19 -3.30386 -5.8506 0
M  V30 22051 N 2064.91 1.40216 -0.719531 0
M  V30 22052 C 2065.82 2.34494 -0.0706489 0
M  V30 22053 C 2066.83 1.5751 0.739372 0
M  V30 22054 O 2068.01 1.89879 0.671417 0
M  V30 22055 C 2065.07 3.36441 0.837178 0
M  V30 22056 C 2064.13 4.29297 0.0166603 0
M  V30 22057 C 2063.37 5.26374 0.881251 0
M  V30 22058 O 2063.59 5.29524 2.1204 0
M  V30 22059 O 2062.52 6.01059 0.318141 0
M  V30 22060 H 2066.35 2.91609 -0.848392 0
M  V30 22061 H 2063.93 1.41478 -0.480047 0
M  V30 22062 H 2065.82 3.98951 1.35707 0
M  V30 22063 H 2064.49 2.81733 1.594 0
M  V30 22064 H 2063.4 3.70059 -0.54839 0
M  V30 22065 H 2064.73 4.87168 -0.70203 0
M  V30 22066 N 2066.38 0.466004 1.50553 0
M  V30 22067 C 2067.35 -0.319434 2.26963 0
M  V30 22068 C 2068.35 -0.92489 1.31539 0
M  V30 22069 O 2069.54 -0.794862 1.55008 0
M  V30 22070 C 2066.67 -1.45457 3.0831 0
M  V30 22071 H 2067.86 0.350606 2.97844 0
M  V30 22072 H 2065.41 0.219925 1.54745 0
M  V30 22073 H 2066.15 -2.15982 2.41914 0
M  V30 22074 H 2065.93 -1.02628 3.78431 0
M  V30 22075 H 2067.42 -2.00876 3.66113 0
M  V30 22076 N 2067.86 -1.56346 0.198413 0
M  V30 22077 C 2069.09 -2.02058 -0.444989 0
M  V30 22078 C 2069.5 -1.07852 -1.54963 0
M  V30 22079 O 2068.86 -0.0839717 -1.82307 0
M  V30 22080 C 2068.91 -3.47445 -0.99822 0
M  V30 22081 O 2068.63 -4.38056 0.0623476 0
M  V30 22082 C 2070.13 -4.08691 -1.71717 0
M  V30 22083 H 2067.35 -0.661691 -0.111383 0
M  V30 22084 H 2069.9 -2.02166 0.308092 0
M  V30 22085 H 2068.05 -3.48026 -1.70167 0
M  V30 22086 H 2068.47 -5.23331 -0.349939 0
M  V30 22087 H 2069.94 -5.1226 -2.05654 0
M  V30 22088 H 2070.42 -3.52341 -2.62207 0
M  V30 22089 H 2071.02 -4.11892 -1.05949 0
M  V30 22090 N 2069.34 0.0751653 -1.57421 0
M  V30 22091 C 2070.57 0.786829 -1.9103 0
M  V30 22092 C 2070.98 1.71812 -0.792303 0
M  V30 22093 O 2070.32 1.8208 0.243447 0
M  V30 22094 C 2070.38 1.63681 -3.20076 0
M  V30 22095 C 2070.05 0.875252 -4.4854 0
M  V30 22096 C 2071.04 0.196017 -5.1953 0
M  V30 22097 C 2068.73 0.843425 -4.95168 0
M  V30 22098 C 2070.72 -0.504853 -6.35398 0
M  V30 22099 C 2068.41 0.13878 -6.10942 0
M  V30 22100 C 2069.41 -0.534162 -6.80908 0
M  V30 22101 O 2069.1 -1.22746 -7.94474 0
M  V30 22102 H 2068.83 0.229074 -0.636004 0
M  V30 22103 H 2071.38 0.0507529 -2.05337 0
M  V30 22104 H 2069.61 2.41561 -3.01969 0
M  V30 22105 H 2071.3 2.22685 -3.39362 0
M  V30 22106 H 2072.07 0.211935 -4.84537 0
M  V30 22107 H 2067.95 1.35667 -4.40585 0
M  V30 22108 H 2071.49 -1.03067 -6.89944 0
M  V30 22109 H 2067.39 0.120778 -6.45387 0
M  V30 22110 H 2068.16 -1.13639 -8.10573 0
M  V30 22111 N 2070.82 1.53744 0.346476 0
M  V30 22112 C 2072.07 1.70066 1.08445 0
M  V30 22113 C 2072.38 0.469013 1.89894 0
M  V30 22114 O 2073.59 0.513127 2.66607 0
M  V30 22115 C 2072.04 3.00716 1.97732 0
M  V30 22116 C 2071.65 4.31208 1.21504 0
M  V30 22117 C 2073.39 3.26404 2.71405 0
M  V30 22118 C 2071.3 5.52934 2.09804 0
M  V30 22119 H 2070.23 0.633711 0.408567 0
M  V30 22120 H 2072.88 1.80244 0.344133 0
M  V30 22121 H 2071.26 2.84388 2.75572 0
M  V30 22122 H 2072.44 4.5823 0.485955 0
M  V30 22123 H 2070.75 4.12111 0.596126 0
M  V30 22124 H 2073.35 4.14536 3.37733 0
M  V30 22125 H 2073.69 2.43286 3.37813 0
M  V30 22126 H 2074.23 3.43495 2.0064 0
M  V30 22127 H 2070.97 6.38587 1.47943 0
M  V30 22128 H 2070.49 5.30164 2.8051 0
M  V30 22129 H 2072.16 5.88463 2.68924 0
M  V30 22130 N 2072.3 -0.607329 1.45428 0
M  V30 22131 C 2073.23 -1.73188 1.50129 0
M  V30 22132 C 2074.24 -1.58009 0.392034 0
M  V30 22133 O 2075.43 -1.65886 0.659103 0
M  V30 22134 C 2072.53 -3.1119 1.34217 0
M  V30 22135 C 2071.7 -3.52606 2.58821 0
M  V30 22136 C 2070.76 -4.69572 2.37463 0
M  V30 22137 O 2069.79 -4.76676 3.11076 0
M  V30 22138 N 2070.99 -5.62854 1.42041 0
M  V30 22139 H 2073.76 -1.69619 2.47082 0
M  V30 22140 H 2071.32 -0.792618 1.41171 0
M  V30 22141 H 2073.31 -3.87195 1.17739 0
M  V30 22142 H 2071.88 -3.09265 0.455386 0
M  V30 22143 H 2071.1 -2.6656 2.90412 0
M  V30 22144 H 2072.39 -3.77035 3.41646 0
M  V30 22145 H 2071.78 -5.59829 0.812899 0
M  V30 22146 H 2070.34 -6.3839 1.31534 0
M  V30 22147 N 2073.77 -1.32722 -0.849853 0
M  V30 22148 C 2075.19 -1.11818 -1.13882 0
M  V30 22149 C 2075.39 0.0981854 -2.01261 0
M  V30 22150 O 2074.45 0.781678 -2.40096 0
M  V30 22151 C 2075.76 -2.4001 -1.81151 0
M  V30 22152 C 2077.31 -2.45813 -1.93765 0
M  V30 22153 C 2077.78 -3.73939 -2.6445 0
M  V30 22154 N 2079.27 -3.74948 -2.71971 0
M  V30 22155 C 2080.01 -4.70792 -3.27326 0
M  V30 22156 N 2079.5 -5.77005 -3.83454 0
M  V30 22157 N 2081.3 -4.58282 -3.25475 0
M  V30 22158 H 2073.45 -2.10702 -0.26806 0
M  V30 22159 H 2075.71 -0.930482 -0.181405 0
M  V30 22160 H 2075.42 -3.28963 -1.24403 0
M  V30 22161 H 2075.29 -2.51333 -2.81267 0
M  V30 22162 H 2077.68 -1.57316 -2.49671 0
M  V30 22163 H 2077.76 -2.38439 -0.926307 0
M  V30 22164 H 2077.4 -4.62812 -2.09206 0
M  V30 22165 H 2077.33 -3.78586 -3.66034 0
M  V30 22166 H 2079.82 -2.9818 -2.32157 0
M  V30 22167 H 2080.14 -6.46188 -4.23864 0
M  V30 22168 H 2078.48 -5.80753 -3.81773 0
M  V30 22169 H 2081.67 -3.74468 -2.80876 0
M  V30 22170 H 2081.85 -5.3315 -3.68314 0
M  V30 22171 N 2075.25 1.06673 -1.16011 0
M  V30 22172 C 2076.48 1.83106 -0.963322 0
M  V30 22173 C 2076.9 1.82372 0.488451 0
M  V30 22174 O 2076.25 1.24012 1.33893 0
M  V30 22175 C 2076.3 3.29888 -1.47838 0
M  V30 22176 O 2076.02 3.30717 -2.87328 0
M  V30 22177 C 2077.53 4.23065 -1.32405 0
M  V30 22178 H 2074.75 0.577476 -0.341705 0
M  V30 22179 H 2077.29 1.34611 -1.53948 0
M  V30 22180 H 2075.44 3.75708 -0.944585 0
M  V30 22181 H 2075.86 4.22475 -3.1083 0
M  V30 22182 H 2077.33 5.24098 -1.73279 0
M  V30 22183 H 2077.81 4.38375 -0.269104 0
M  V30 22184 H 2078.42 3.83088 -1.84726 0
M  V30 22185 N 2076.73 0.957992 1.25141 0
M  V30 22186 C 2077.98 0.614592 1.92948 0
M  V30 22187 C 2078.31 -0.848868 1.74999 0
M  V30 22188 O 2077.56 -1.62488 1.09069 0
M  V30 22189 C 2077.86 0.923523 3.45262 0
M  V30 22190 C 2077.53 2.37356 3.83371 0
M  V30 22191 C 2076.19 2.7699 3.93484 0
M  V30 22192 C 2078.54 3.31508 4.02184 0
M  V30 22193 C 2075.87 4.09838 4.19821 0
M  V30 22194 C 2078.22 4.63973 4.30014 0
M  V30 22195 C 2076.88 5.03398 4.38345 0
M  V30 22196 H 2076.15 0.224895 0.706048 0
M  V30 22197 H 2078.8 1.20766 1.4862 0
M  V30 22198 H 2077.11 0.248102 3.91014 0
M  V30 22199 H 2078.8 0.636357 3.95919 0
M  V30 22200 H 2075.39 2.05619 3.76057 0
M  V30 22201 H 2079.58 3.02076 3.93781 0
M  V30 22202 H 2074.83 4.40023 4.24488 0
M  V30 22203 H 2079.01 5.36905 4.43516 0
M  V30 22204 H 2076.63 6.06363 4.58506 0
M  V30 22205 N 2078.21 -1.39832 0.726957 0
M  V30 22206 C 2079.12 -2.34453 0.0830837 0
M  V30 22207 C 2080.13 -1.579 -0.731009 0
M  V30 22208 O 2081.31 -1.90232 -0.661338 0
M  V30 22209 C 2078.38 -3.3688 -0.819324 0
M  V30 22210 C 2077.44 -4.293 0.00610659 0
M  V30 22211 C 2076.67 -5.26834 -0.853324 0
M  V30 22212 O 2076.89 -5.30641 -2.09228 0
M  V30 22213 O 2075.83 -6.01219 -0.286261 0
M  V30 22214 H 2079.65 -2.91155 0.863845 0
M  V30 22215 H 2077.24 -1.41221 0.487543 0
M  V30 22216 H 2079.12 -3.99665 -1.33589 0
M  V30 22217 H 2077.79 -2.82574 -1.57904 0
M  V30 22218 H 2076.7 -3.69763 0.568007 0
M  V30 22219 H 2078.03 -4.86789 0.727856 0
M  V30 22220 N 2079.69 -0.473982 -1.50304 0
M  V30 22221 C 2080.6 0.323933 -2.32353 0
M  V30 22222 C 2081.61 0.993251 -1.42865 0
M  V30 22223 O 2082.79 0.980589 -1.75916 0
M  V30 22224 C 2079.85 1.38999 -3.17616 0
M  V30 22225 C 2078.91 0.736965 -4.22927 0
M  V30 22226 C 2078.15 1.75223 -5.04116 0
M  V30 22227 O 2078.37 2.97908 -4.86423 0
M  V30 22228 O 2077.3 1.32246 -5.87192 0
M  V30 22229 H 2081.13 -0.346913 -3.01712 0
M  V30 22230 H 2078.72 -0.235777 -1.47528 0
M  V30 22231 H 2080.6 2.00742 -3.70514 0
M  V30 22232 H 2079.27 2.04425 -2.50982 0
M  V30 22233 H 2078.18 0.0805047 -3.74013 0
M  V30 22234 H 2079.51 0.125602 -4.9204 0
M  V30 22235 N 2081.16 1.56239 -0.206702 0
M  V30 22236 C 2082.41 1.97904 0.428991 0
M  V30 22237 C 2082.74 1.09394 1.6082 0
M  V30 22238 O 2081.99 0.135573 1.9523 0
M  V30 22239 C 2082.29 3.45345 0.920411 0
M  V30 22240 C 2081.96 4.50661 -0.146675 0
M  V30 22241 C 2080.62 4.79185 -0.439852 0
M  V30 22242 C 2082.97 5.13903 -0.869114 0
M  V30 22243 C 2080.3 5.68237 -1.46024 0
M  V30 22244 C 2082.65 6.04058 -1.87874 0
M  V30 22245 C 2081.32 6.30933 -2.17899 0
M  V30 22246 H 2080.59 0.724181 0.156979 0
M  V30 22247 H 2083.23 1.89038 -0.306106 0
M  V30 22248 H 2081.54 3.5134 1.734 0
M  V30 22249 H 2083.24 3.74945 1.42187 0
M  V30 22250 H 2079.83 4.28501 0.0919915 0
M  V30 22251 H 2084.01 4.91947 -0.655848 0
M  V30 22252 H 2079.27 5.87329 -1.69866 0
M  V30 22253 H 2083.44 6.52117 -2.44369 0
M  V30 22254 H 2081.07 6.99735 -2.9711 0
M  V30 22255 N 2082.64 -0.0668159 1.57458 0
M  V30 22256 C 2083.57 -1.10569 2.00766 0
M  V30 22257 C 2084.59 -1.34696 0.914378 0
M  V30 22258 O 2085.78 -1.32848 1.19221 0
M  V30 22259 C 2082.88 -2.45556 2.33571 0
M  V30 22260 C 2082.05 -2.41316 3.64808 0
M  V30 22261 C 2081.11 -3.58451 3.85227 0
M  V30 22262 O 2080.13 -3.39654 4.56754 0
M  V30 22263 N 2081.34 -4.7898 3.27961 0
M  V30 22264 H 2084.1 -0.736847 2.90501 0
M  V30 22265 H 2081.66 -0.255392 1.59873 0
M  V30 22266 H 2083.65 -3.2257 2.44399 0
M  V30 22267 H 2082.22 -2.74424 1.497 0
M  V30 22268 H 2081.44 -1.49655 3.64688 0
M  V30 22269 H 2082.73 -2.35589 4.50972 0
M  V30 22270 H 2082.13 -4.97155 2.69913 0
M  V30 22271 H 2080.69 -5.53488 3.4423 0
M  V30 22272 N 2084.12 -1.53926 -0.338317 0
M  V30 22273 C 2085.03 -1.85282 -1.43902 0
M  V30 22274 C 2086.05 -0.743407 -1.5732 0
M  V30 22275 O 2087.22 -1.03624 -1.72697 0
M  V30 22276 C 2084.29 -2.06058 -2.78821 0
M  V30 22277 C 2083.35 -3.29903 -2.74704 0
M  V30 22278 C 2082.58 -3.49679 -4.03188 0
M  V30 22279 O 2082.81 -2.73186 -5.00725 0
M  V30 22280 O 2081.74 -4.43121 -4.07342 0
M  V30 22281 H 2085.57 -2.78849 -1.2032 0
M  V30 22282 H 2083.15 -1.39646 -0.530982 0
M  V30 22283 H 2085.03 -2.21138 -3.58714 0
M  V30 22284 H 2083.71 -1.15679 -3.02325 0
M  V30 22285 H 2082.61 -3.20222 -1.93413 0
M  V30 22286 H 2083.95 -4.20292 -2.56155 0
M  V30 22287 N 2085.6 0.599608 -1.45748 0
M  V30 22288 C 2086.53 1.72038 -1.57877 0
M  V30 22289 C 2087.51 1.64578 -0.429893 0
M  V30 22290 O 2088.7 1.82855 -0.654037 0
M  V30 22291 C 2085.83 3.10657 -1.55272 0
M  V30 22292 C 2084.78 3.32936 -2.68957 0
M  V30 22293 C 2084.11 4.71909 -2.51408 0
M  V30 22294 C 2085.41 3.22412 -4.10911 0
M  V30 22295 H 2087.1 1.62144 -2.51694 0
M  V30 22296 H 2084.65 0.778641 -1.21133 0
M  V30 22297 H 2086.6 3.8887 -1.62353 0
M  V30 22298 H 2085.32 3.21411 -0.579891 0
M  V30 22299 H 2083.98 2.57117 -2.61317 0
M  V30 22300 H 2083.63 4.79406 -1.52247 0
M  V30 22301 H 2083.33 4.8777 -3.2765 0
M  V30 22302 H 2084.85 5.52311 -2.60355 0
M  V30 22303 H 2086.27 3.90488 -4.19752 0
M  V30 22304 H 2084.66 3.498 -4.87607 0
M  V30 22305 H 2085.73 2.19732 -4.32256 0
M  V30 22306 N 2087.08 1.33171 0.842803 0
M  V30 22307 C 2088.03 1.19669 1.9407 0
M  V30 22308 C 2089.01 0.100588 1.60585 0
M  V30 22309 O 2090.2 0.328293 1.73929 0
M  V30 22310 C 2087.33 0.93406 3.30349 0
M  V30 22311 C 2086.42 2.07242 3.70016 0
M  V30 22312 N 2086.81 3.32205 3.81409 0
M  V30 22313 C 2085.11 1.97824 3.99727 0
M  V30 22314 C 2085.81 4.06841 4.15759 0
M  V30 22315 N 2084.78 3.35244 4.27917 0
M  V30 22316 H 2088.59 2.14393 2.01029 0
M  V30 22317 H 2086.1 1.25122 1.03529 0
M  V30 22318 H 2088.1 0.818267 4.08791 0
M  V30 22319 H 2086.76 -0.00468626 3.247 0
M  V30 22320 H 2087.77 3.67 3.65419 0
M  V30 22321 H 2084.45 1.11584 4.02312 0
M  V30 22322 H 2085.84 5.14659 4.31945 0
M  V30 22323 N 2088.56 -1.06056 1.16576 0
M  V30 22324 C 2089.5 -2.15694 0.87056 0
M  V30 22325 C 2090.5 -1.6863 -0.161341 0
M  V30 22326 O 2091.7 -1.79994 -0.0150963 0
M  V30 22327 H 2088.08 -0.704161 0.263934 0
M  V30 22328 H 2090.05 -2.37802 1.80258 0
M  V30 22329 C 2088.8 -3.45498 0.390729 0
M  V30 22330 H 2088.12 -3.82107 1.17619 0
M  V30 22331 H 2089.56 -4.23413 0.222977 0
M  V30 22332 C 2088.02 -3.24928 -0.890131 0
M  V30 22333 O 2088.55 -3.50702 -1.95886 0
M  V30 22334 N 2086.76 -2.7835 -0.834838 0
M  V30 22335 H 2086.3 -2.57576 0.0350662 0
M  V30 22336 H 2086.26 -2.64967 -1.69233 0
M  V30 22337 N 2090.03 -0.964615 -1.24631 0
M  V30 22338 C 2090.98 -0.49166 -2.25502 0
M  V30 22339 C 2091.95 0.46115 -1.5957 0
M  V30 22340 O 2093.14 0.372197 -1.87135 0
M  V30 22341 C 2090.28 0.214964 -3.4443 0
M  V30 22342 C 2089.39 -0.776253 -4.24969 0
M  V30 22343 C 2088.52 -0.0460512 -5.3118 0
M  V30 22344 C 2087.56 -1.02754 -6.03414 0
M  V30 22345 N 2086.7 -0.327547 -7.01336 0
M  V30 22346 H 2091.54 -1.35669 -2.65326 0
M  V30 22347 H 2089.08 -0.68015 -1.30431 0
M  V30 22348 H 2091.03 0.641314 -4.12241 0
M  V30 22349 H 2089.66 1.04397 -3.05452 0
M  V30 22350 H 2088.72 -1.32105 -3.56724 0
M  V30 22351 H 2090.03 -1.52481 -4.74922 0
M  V30 22352 H 2089.18 0.438447 -6.05114 0
M  V30 22353 H 2087.92 0.735226 -4.82126 0
M  V30 22354 H 2086.93 -1.52294 -5.28286 0
M  V30 22355 H 2088.15 -1.80921 -6.54557 0
M  V30 22356 H 2086.1 0.43481 -6.54557 0
M  V30 22357 H 2086.01 -1.01503 -7.49155 0
M  V30 22358 H 2087.28 0.135085 -7.79383 0
M  V30 22359 N 2091.51 1.39445 -0.734362 0
M  V30 22360 C 2092.44 2.33245 -0.109065 0
M  V30 22361 C 2093.42 1.53878 0.724945 0
M  V30 22362 O 2094.61 1.82274 0.670055 0
M  V30 22363 C 2091.74 3.37973 0.799454 0
M  V30 22364 C 2090.69 4.27943 0.0696508 0
M  V30 22365 C 2090.02 5.23365 1.09514 0
M  V30 22366 C 2091.32 5.10855 -1.08738 0
M  V30 22367 H 2093.01 2.85786 -0.892581 0
M  V30 22368 H 2090.56 1.37409 -0.430672 0
M  V30 22369 H 2092.51 4.02545 1.24643 0
M  V30 22370 H 2091.23 2.83871 1.61508 0
M  V30 22371 H 2089.89 3.64851 -0.357693 0
M  V30 22372 H 2089.54 4.65559 1.90432 0
M  V30 22373 H 2089.24 5.84408 0.611606 0
M  V30 22374 H 2090.77 5.90813 1.54183 0
M  V30 22375 H 2092.18 5.68775 -0.718888 0
M  V30 22376 H 2090.58 5.81038 -1.50051 0
M  V30 22377 H 2091.65 4.45725 -1.90937 0
M  V30 22378 N 2092.99 0.481946 1.5005 0
M  V30 22379 C 2094.41 0.13674 1.59013 0
M  V30 22380 C 2094.61 -1.35753 1.48908 0
M  V30 22381 O 2093.66 -2.1318 1.35316 0
M  V30 22382 C 2094.97 0.696597 2.9252 0
M  V30 22383 C 2096.52 0.660993 3.05941 0
M  V30 22384 C 2097 1.19858 4.42038 0
M  V30 22385 N 2098.49 1.15846 4.4848 0
M  V30 22386 C 2099.22 1.54481 5.52199 0
M  V30 22387 N 2098.72 2.00617 6.63117 0
M  V30 22388 N 2100.51 1.46016 5.42804 0
M  V30 22389 H 2092.66 1.45367 1.54862 0
M  V30 22390 H 2094.93 0.601814 0.732478 0
M  V30 22391 H 2094.63 1.74381 3.05425 0
M  V30 22392 H 2094.51 0.146249 3.76916 0
M  V30 22393 H 2096.89 -0.377335 2.92678 0
M  V30 22394 H 2096.97 1.24827 2.23275 0
M  V30 22395 H 2096.62 2.2356 4.56052 0
M  V30 22396 H 2096.55 0.587419 5.23313 0
M  V30 22397 H 2099.04 0.820197 3.68892 0
M  V30 22398 H 2099.35 2.28217 7.38334 0
M  V30 22399 H 2097.7 2.04578 6.64209 0
M  V30 22400 H 2100.89 1.09805 4.55039 0
M  V30 22401 H 2101.06 1.7645 6.23514 0
M  V30 22402 N 2094.47 -1.56127 0.214985 0
M  V30 22403 C 2095.4 -2.22991 -0.69263 0
M  V30 22404 C 2096.38 -1.19946 -1.20611 0
M  V30 22405 O 2097.56 -1.48512 -1.25131 0
M  V30 22406 C 2094.69 -2.90473 -1.90376 0
M  V30 22407 C 2093.65 -3.99933 -1.52439 0
M  V30 22408 C 2092.97 -4.54678 -2.81375 0
M  V30 22409 C 2094.27 -5.17323 -0.719325 0
M  V30 22410 H 2095.97 -2.99095 -0.135168 0
M  V30 22411 H 2093.51 -1.4386 -0.0635721 0
M  V30 22412 H 2095.47 -3.35938 -2.54408 0
M  V30 22413 H 2094.19 -2.11806 -2.48608 0
M  V30 22414 H 2092.85 -3.55189 -0.907557 0
M  V30 22415 H 2092.5 -3.72749 -3.37739 0
M  V30 22416 H 2092.2 -5.28549 -2.56729 0
M  V30 22417 H 2093.72 -5.02857 -3.46362 0
M  V30 22418 H 2095.14 -5.5921 -1.2632 0
M  V30 22419 H 2093.53 -5.97385 -0.570203 0
M  V30 22420 H 2094.6 -4.84117 0.275461 0
M  V30 22421 N 2095.95 0.0584645 -1.57492 0
M  V30 22422 C 2096.88 1.0681 -2.07639 0
M  V30 22423 C 2097.86 1.3955 -0.972622 0
M  V30 22424 O 2099.04 1.48946 -1.24615 0
M  V30 22425 C 2096.17 2.37774 -2.53142 0
M  V30 22426 C 2095.13 2.19354 -3.67516 0
M  V30 22427 C 2094.45 3.5582 -3.9912 0
M  V30 22428 C 2095.75 1.60379 -4.97067 0
M  V30 22429 H 2097.45 0.650765 -2.92242 0
M  V30 22430 H 2094.99 0.311587 -1.40589 0
M  V30 22431 H 2096.94 3.08709 -2.86839 0
M  V30 22432 H 2095.67 2.81513 -1.65583 0
M  V30 22433 H 2094.33 1.50858 -3.34122 0
M  V30 22434 H 2093.98 3.97153 -3.08672 0
M  V30 22435 H 2093.68 3.4433 -4.76142 0
M  V30 22436 H 2095.2 4.28164 -4.35325 0
M  V30 22437 H 2096.61 2.21195 -5.2891 0
M  V30 22438 H 2095.01 1.59548 -5.78502 0
M  V30 22439 H 2096.08 0.566547 -4.81579 0
M  V30 22440 N 2097.42 1.54103 0.330149 0
M  V30 22441 C 2098.67 1.71993 1.06886 0
M  V30 22442 C 2099 0.490142 1.88223 0
M  V30 22443 O 2098.25 -0.528125 1.88439 0
M  V30 22444 C 2098.55 2.94358 2.02702 0
M  V30 22445 C 2098.22 4.294 1.37572 0
M  V30 22446 C 2096.88 4.66116 1.1954 0
M  V30 22447 C 2099.23 5.13235 0.907703 0
M  V30 22448 C 2096.56 5.8427 0.533447 0
M  V30 22449 C 2098.91 6.32067 0.259603 0
M  V30 22450 C 2097.58 6.67466 0.0670758 0
M  V30 22451 H 2096.85 0.629366 0.391125 0
M  V30 22452 H 2099.49 1.88335 0.346701 0
M  V30 22453 H 2097.8 2.72675 2.81346 0
M  V30 22454 H 2099.5 3.05394 2.59877 0
M  V30 22455 H 2096.09 4.00511 1.52608 0
M  V30 22456 H 2100.27 4.85392 1.03482 0
M  V30 22457 H 2095.53 6.10261 0.373022 0
M  V30 22458 H 2099.7 6.96311 -0.111078 0
M  V30 22459 H 2097.33 7.58879 -0.447886 0
M  V30 22460 N 2098.9 -0.59187 1.46064 0
M  V30 22461 C 2100.31 -1.17395 1.45174 0
M  V30 22462 C 2100.66 -1.953 0.187679 0
M  V30 22463 O 2099.79 -2.04428 -0.709814 0
M  V30 22464 C 2100.38 -2.1356 2.63017 0
M  V30 22465 C 2098.94 -2.6711 2.65197 0
M  V30 22466 C 2098.09 -1.42806 2.37701 0
M  V30 22467 H 2101.04 -0.380305 1.54076 0
M  V30 22468 H 2101.06 -2.96868 2.38012 0
M  V30 22469 H 2100.57 -1.5683 3.55001 0
M  V30 22470 H 2098.68 -3.27734 1.7726 0
M  V30 22471 H 2098.79 -3.1047 3.6489 0
M  V30 22472 H 2097.15 -1.72303 1.87573 0
M  V30 22473 H 2097.94 -0.879215 3.3185 0
M  V30 22474 N 2100.38 -1.33616 -0.835729 0
M  V30 22475 C 2101.61 -1.28444 -1.6284 0
M  V30 22476 C 2102.03 0.141205 -1.87569 0
M  V30 22477 O 2101.39 1.09885 -1.44205 0
M  V30 22478 C 2101.44 -2.0683 -2.95387 0
M  V30 22479 O 2100.54 -1.42905 -3.86849 0
M  V30 22480 H 2099.88 -0.441742 -0.495742 0
M  V30 22481 H 2102.41 -1.76226 -1.0395 0
M  V30 22482 H 2102.42 -2.17712 -3.45059 0
M  V30 22483 H 2101.1 -3.1049 -2.76711 0
M  V30 22484 H 2099.67 -1.40689 -3.45342 0
M  V30 22485 N 2101.86 1.05436 -1.17136 0
M  V30 22486 C 2103.08 1.82612 -0.983237 0
M  V30 22487 C 2103.51 1.82295 0.463697 0
M  V30 22488 O 2102.87 1.23011 1.33184 0
M  V30 22489 C 2102.91 3.26726 -1.52587 0
M  V30 22490 O 2102.02 4.05743 -0.737979 0
M  V30 22491 H 2101.36 0.564713 -0.349279 0
M  V30 22492 H 2103.89 1.3288 -1.55576 0
M  V30 22493 H 2103.9 3.77531 -1.54708 0
M  V30 22494 H 2102.57 3.26271 -2.57915 0
M  V30 22495 H 2101.15 3.64479 -0.78798 0
M  V30 22496 N 2103.34 0.971211 1.24118 0
M  V30 22497 C 2104.29 0.475228 2.22992 0
M  V30 22498 C 2105.27 -0.444699 1.54633 0
M  V30 22499 O 2106.46 -0.275049 1.7485 0
M  V30 22500 C 2103.59 -0.229933 3.42529 0
M  V30 22501 C 2102.68 0.709027 4.18131 0
M  V30 22502 N 2103.07 1.84777 4.70841 0
M  V30 22503 C 2101.37 0.520509 4.42952 0
M  V30 22504 C 2102.07 2.43536 5.28266 0
M  V30 22505 N 2101.04 1.72016 5.15666 0
M  V30 22506 H 2104.85 1.34405 2.61367 0
M  V30 22507 H 2102.36 0.830736 1.39544 0
M  V30 22508 H 2104.36 -0.602502 4.12523 0
M  V30 22509 H 2103.02 -1.09515 3.05674 0
M  V30 22510 H 2104.03 2.22921 4.67468 0
M  V30 22511 H 2100.7 -0.300454 4.16417 0
M  V30 22512 H 2102.09 3.39652 5.79729 0
M  V30 22513 N 2104.81 -1.39054 0.741747 0
M  V30 22514 C 2105.74 -2.33184 0.121433 0
M  V30 22515 C 2106.73 -1.54261 -0.716774 0
M  V30 22516 O 2107.91 -1.82627 -0.660379 0
M  V30 22517 C 2105.04 -3.38393 -0.78152 0
M  V30 22518 C 2103.99 -4.27974 -0.046955 0
M  V30 22519 C 2103.32 -5.23938 -1.06737 0
M  V30 22520 C 2104.62 -5.10272 1.11446 0
M  V30 22521 H 2106.31 -2.85308 0.907724 0
M  V30 22522 H 2103.86 -1.37179 0.437953 0
M  V30 22523 H 2105.81 -4.032 -1.22506 0
M  V30 22524 H 2104.54 -2.84724 -1.6 0
M  V30 22525 H 2103.2 -3.64656 0.377036 0
M  V30 22526 H 2102.84 -4.66562 -1.8796 0
M  V30 22527 H 2102.54 -5.84725 -0.580605 0
M  V30 22528 H 2104.07 -5.91622 -1.51048 0
M  V30 22529 H 2105.48 -5.68386 0.749042 0
M  V30 22530 H 2103.88 -5.80234 1.53131 0
M  V30 22531 H 2104.95 -4.44706 1.93299 0
M  V30 22532 N 2106.29 -0.489897 -1.49792 0
M  V30 22533 C 2107.7 -0.0393634 -1.86658 0
M  V30 22534 C 2108.05 1.37132 -1.40318 0
M  V30 22535 O 2107.18 2.01999 -0.776241 0
M  V30 22536 C 2107.77 -0.0646571 -3.38738 0
M  V30 22537 C 2106.33 0.330485 -3.74946 0
M  V30 22538 C 2105.48 -0.442023 -2.73754 0
M  V30 22539 H 2108.43 -0.703245 -1.42268 0
M  V30 22540 H 2108.45 0.73323 -3.73368 0
M  V30 22541 H 2107.96 -1.09149 -3.72435 0
M  V30 22542 H 2106.07 1.36097 -3.46855 0
M  V30 22543 H 2106.18 0.0187552 -4.79096 0
M  V30 22544 H 2104.54 0.106725 -2.54476 0
M  V30 22545 H 2105.33 -1.46872 -3.10296 0
M  V30 22546 N 2107.77 1.56011 -0.223262 0
M  V30 22547 C 2109 2.03189 0.415817 0
M  V30 22548 C 2109.42 1.102 1.52439 0
M  V30 22549 O 2108.78 0.0904999 1.81074 0
M  V30 22550 C 2108.83 3.48586 0.923053 0
M  V30 22551 O 2107.93 3.58734 2.03429 0
M  V30 22552 H 2107.27 0.65733 0.0938783 0
M  V30 22553 H 2109.8 2.01715 -0.342399 0
M  V30 22554 H 2109.81 3.88941 1.23243 0
M  V30 22555 H 2108.49 4.1575 0.11169 0
M  V30 22556 H 2107.06 3.30267 1.73142 0
M  V30 22557 N 2109.25 -0.0501116 1.5752 0
M  V30 22558 C 2110.5 -0.745096 1.88294 0
M  V30 22559 C 2110.82 -1.76469 0.817869 0
M  V30 22560 O 2110.08 -1.94836 -0.183698 0
M  V30 22561 C 2110.38 -1.46973 3.25782 0
M  V30 22562 C 2110.04 -0.588106 4.47048 0
M  V30 22563 C 2108.71 -0.345215 4.7996 0
M  V30 22564 C 2111.06 0.0218798 5.21195 0
M  V30 22565 C 2108.39 0.516787 5.8442 0
M  V30 22566 C 2110.74 0.87146 6.26569 0
M  V30 22567 C 2109.4 1.12402 6.57968 0
M  V30 22568 H 2108.67 -0.27265 0.689016 0
M  V30 22569 H 2111.32 -0.00536588 1.91499 0
M  V30 22570 H 2109.62 -2.28224 3.18467 0
M  V30 22571 H 2111.32 -2.01265 3.46834 0
M  V30 22572 H 2107.91 -0.787561 4.21302 0
M  V30 22573 H 2112.09 -0.152846 4.96065 0
M  V30 22574 H 2107.35 0.720981 6.07134 0
M  V30 22575 H 2111.52 1.35074 6.83175 0
M  V30 22576 H 2109.15 1.79371 7.38736 0
M  V30 22577 N 2110.73 -1.54276 -0.321972 0
M  V30 22578 C 2112.14 -1.63778 -0.896309 0
M  V30 22579 C 2112.49 -0.532871 -1.88825 0
M  V30 22580 O 2111.61 0.33397 -2.13807 0
M  V30 22581 C 2112.21 -2.96878 -1.63245 0
M  V30 22582 C 2110.77 -3.0857 -2.15549 0
M  V30 22583 C 2109.91 -2.59353 -0.981385 0
M  V30 22584 H 2112.87 -1.58388 -0.0995121 0
M  V30 22585 H 2112.89 -2.87127 -2.49677 0
M  V30 22586 H 2112.4 -3.77274 -0.910251 0
M  V30 22587 H 2110.5 -2.32851 -2.9088 0
M  V30 22588 H 2110.61 -4.14398 -2.4044 0
M  V30 22589 H 2108.98 -2.15288 -1.361 0
M  V30 22590 H 2109.76 -3.42209 -0.273477 0
M  V30 22591 N 2112.2 0.584116 -1.46376 0
M  V30 22592 C 2113.43 1.37331 -1.55419 0
M  V30 22593 C 2113.85 1.87082 -0.195472 0
M  V30 22594 O 2113.21 1.61486 0.824141 0
M  V30 22595 C 2113.26 2.53779 -2.56181 0
M  V30 22596 O 2112.36 3.55172 -2.09586 0
M  V30 22597 H 2111.71 0.409042 -0.523049 0
M  V30 22598 H 2114.24 0.708655 -1.91936 0
M  V30 22599 H 2114.25 3.00715 -2.75744 0
M  V30 22600 H 2112.92 2.16921 -3.5485 0
M  V30 22601 H 2111.5 3.14726 -2.00005 0
M  V30 22602 N 2113.68 1.34058 0.828631 0
M  V30 22603 C 2115.1 1.13615 1.12088 0
M  V30 22604 C 2115.3 -0.0661541 2.01391 0
M  V30 22605 O 2114.36 -0.743382 2.41309 0
M  V30 22606 C 2115.67 2.42862 1.7731 0
M  V30 22607 C 2117.22 2.48865 1.8983 0
M  V30 22608 C 2117.69 3.78099 2.58468 0
M  V30 22609 N 2119.18 3.79227 2.65972 0
M  V30 22610 C 2119.92 4.7594 3.19795 0
M  V30 22611 N 2119.41 5.83032 3.74226 0
M  V30 22612 N 2121.21 4.63402 3.18143 0
M  V30 22613 H 2113.36 2.11101 0.234506 0
M  V30 22614 H 2115.62 0.93325 0.166579 0
M  V30 22615 H 2115.33 3.30901 1.19153 0
M  V30 22616 H 2115.2 2.55776 2.77233 0
M  V30 22617 H 2117.59 1.61268 2.47137 0
M  V30 22618 H 2117.67 2.39883 0.888256 0
M  V30 22619 H 2117.31 4.66082 2.01817 0
M  V30 22620 H 2117.24 3.84361 3.59964 0
M  V30 22621 H 2119.73 3.01836 2.27384 0
M  V30 22622 H 2120.05 6.5285 4.1353 0
M  V30 22623 H 2118.39 5.86753 3.72486 0
M  V30 22624 H 2121.58 3.78889 2.74883 0
M  V30 22625 H 2121.76 5.38942 3.59786 0
M  V30 22626 N 2115.16 -1.04814 1.17694 0
M  V30 22627 C 2116.41 -1.77883 0.967671 0
M  V30 22628 C 2116.74 -1.87874 -0.503367 0
M  V30 22629 O 2115.99 -1.37773 -1.38986 0
M  V30 22630 C 2116.29 -3.2163 1.55849 0
M  V30 22631 C 2115.96 -3.3169 3.05439 0
M  V30 22632 C 2114.62 -3.34142 3.46269 0
M  V30 22633 C 2116.97 -3.32397 4.0145 0
M  V30 22634 C 2114.3 -3.34935 4.81701 0
M  V30 22635 C 2116.65 -3.34729 5.36786 0
M  V30 22636 C 2115.31 -3.3547 5.77076 0
M  V30 22637 H 2114.58 -0.65092 0.354096 0
M  V30 22638 H 2117.23 -1.23159 1.46643 0
M  V30 22639 H 2115.54 -3.79306 0.981546 0
M  V30 22640 H 2117.23 -3.76796 1.37208 0
M  V30 22641 H 2113.82 -3.30496 2.72892 0
M  V30 22642 H 2118.01 -3.29699 3.70961 0
M  V30 22643 H 2113.26 -3.33822 5.12224 0
M  V30 22644 H 2117.44 -3.34224 6.10956 0
M  V30 22645 H 2115.06 -3.35838 6.81995 0
M  V30 22646 N 2116.64 -0.977779 -1.23601 0
M  V30 22647 C 2117.89 -0.646167 -1.9223 0
M  V30 22648 C 2118.22 0.817893 -1.76137 0
M  V30 22649 O 2117.49 1.58966 -1.12071 0
M  V30 22650 C 2117.78 -1.03412 -3.44932 0
M  V30 22651 C 2117.63 -2.55561 -3.70147 0
M  V30 22652 C 2118.95 -0.576087 -4.36313 0
M  V30 22653 H 2116.07 -0.236222 -0.698118 0
M  V30 22654 H 2118.71 -1.21859 -1.45775 0
M  V30 22655 H 2116.86 -0.547033 -3.84629 0
M  V30 22656 H 2118.53 -3.11824 -3.39947 0
M  V30 22657 H 2116.77 -2.98312 -3.14949 0
M  V30 22658 H 2117.45 -2.77756 -4.77028 0
M  V30 22659 H 2119.92 -0.994237 -4.04047 0
M  V30 22660 H 2118.8 -0.875993 -5.41865 0
M  V30 22661 H 2119.06 0.523647 -4.38988 0
M  V30 22662 N 2118.12 1.38658 -0.749111 0
M  V30 22663 C 2119.37 1.99455 -0.300085 0
M  V30 22664 C 2119.68 1.60136 1.1232 0
M  V30 22665 O 2120.89 2.13871 1.67247 0
M  V30 22666 C 2119.34 3.56609 -0.485575 0
M  V30 22667 C 2118.95 4.04883 -1.91766 0
M  V30 22668 C 2120.69 4.24384 -0.0990364 0
M  V30 22669 C 2118.6 5.54661 -2.05195 0
M  V30 22670 H 2117.53 0.74616 -0.108449 0
M  V30 22671 H 2120.18 1.5848 -0.925012 0
M  V30 22672 H 2118.56 3.95451 0.208468 0
M  V30 22673 H 2119.74 3.77342 -2.6448 0
M  V30 22674 H 2118.05 3.49817 -2.2587 0
M  V30 22675 H 2120.65 5.34403 -0.178195 0
M  V30 22676 H 2120.99 4.05369 0.947724 0
M  V30 22677 H 2121.53 3.90766 -0.744765 0
M  V30 22678 H 2118.26 5.78575 -3.08109 0
M  V30 22679 H 2117.78 5.8396 -1.36935 0
M  V30 22680 H 2119.46 6.20291 -1.83977 0
M  V30 22681 N 2119.6 0.497834 1.49531 0
M  V30 22682 C 2120.84 -0.0477142 2.02044 0
M  V30 22683 C 2121.16 -1.37777 1.37994 0
M  V30 22684 O 2120.43 -1.88476 0.534194 0
M  V30 22685 H 2119.01 -0.0206231 0.746715 0
M  V30 22686 H 2121.68 0.654353 1.83587 0
M  V30 22687 H 2120.77 -0.179706 3.11582 0
M  V30 22688 N 2121.07 -1.5589 0.231532 0
M  V30 22689 C 2122.49 -1.5912 -0.123654 0
M  V30 22690 C 2122.69 -1.24851 -1.5816 0
M  V30 22691 O 2121.75 -0.988491 -2.32347 0
M  V30 22692 C 2123.06 -2.99954 0.211653 0
M  V30 22693 C 2124.61 -3.12617 0.1547 0
M  V30 22694 C 2125.08 -4.55645 0.463821 0
M  V30 22695 N 2126.57 -4.61348 0.413757 0
M  V30 22696 C 2127.31 -5.69969 0.626305 0
M  V30 22697 N 2126.8 -6.86914 0.901162 0
M  V30 22698 N 2128.6 -5.59323 0.558059 0
M  V30 22699 H 2120.75 -1.76439 1.1825 0
M  V30 22700 H 2123.01 -0.820591 0.474695 0
M  V30 22701 H 2122.72 -3.29716 1.22394 0
M  V30 22702 H 2122.59 -3.74278 -0.468608 0
M  V30 22703 H 2124.98 -2.82646 -0.848241 0
M  V30 22704 H 2125.06 -2.40602 0.868584 0
M  V30 22705 H 2124.7 -4.86336 1.46425 0
M  V30 22706 H 2124.63 -5.259 -0.271369 0
M  V30 22707 H 2127.12 -3.77319 0.209419 0
M  V30 22708 H 2127.44 -7.65617 1.05118 0
M  V30 22709 H 2125.78 -6.88635 0.938467 0
M  V30 22710 H 2128.97 -4.66838 0.343487 0
M  V30 22711 H 2129.15 -6.43908 0.727109 0
M  V30 22712 N 2122.55 0.0417572 -1.57545 0
M  V30 22713 C 2123.78 0.750955 -1.93327 0
M  V30 22714 C 2124.2 1.68773 -0.830508 0
M  V30 22715 O 2123.56 1.80024 0.214702 0
M  V30 22716 C 2123.61 1.49503 -3.28148 0
M  V30 22717 O 2122.71 2.60754 -3.19501 0
M  V30 22718 H 2122.05 0.202874 -0.632248 0
M  V30 22719 H 2124.58 0.00102047 -2.046 0
M  V30 22720 H 2124.59 1.86775 -3.62738 0
M  V30 22721 H 2123.27 0.80791 -4.07977 0
M  V30 22722 H 2121.84 2.26119 -2.96521 0
M  V30 22723 N 2124.03 1.54445 0.313786 0
M  V30 22724 C 2125.45 1.45373 0.658707 0
M  V30 22725 C 2125.65 0.634528 1.91248 0
M  V30 22726 O 2124.7 0.137176 2.52127 0
M  V30 22727 C 2126.01 2.89201 0.823608 0
M  V30 22728 C 2127.56 2.99164 0.92032 0
M  V30 22729 C 2128.04 4.44162 1.11732 0
M  V30 22730 N 2129.53 4.47817 1.18382 0
M  V30 22731 C 2130.26 5.57177 1.35431 0
M  V30 22732 N 2129.76 6.76486 1.4946 0
M  V30 22733 N 2131.55 5.44842 1.38217 0
M  V30 22734 H 2123.7 2.06182 -0.510155 0
M  V30 22735 H 2125.97 0.933263 -0.166508 0
M  V30 22736 H 2125.67 3.5169 -0.0265797 0
M  V30 22737 H 2125.55 3.35881 1.7165 0
M  V30 22738 H 2127.93 2.36797 1.761 0
M  V30 22739 H 2128.01 2.558 0.00368975 0
M  V30 22740 H 2127.66 5.0712 0.281448 0
M  V30 22741 H 2127.59 4.85145 2.04797 0
M  V30 22742 H 2130.08 3.61855 1.08945 0
M  V30 22743 H 2130.39 7.55589 1.62188 0
M  V30 22744 H 2128.74 6.79376 1.46539 0
M  V30 22745 H 2131.93 4.50582 1.2686 0
M  V30 22746 H 2132.1 6.30122 1.51161 0
M  V30 22747 N 2125.51 -0.576345 1.46683 0
M  V30 22748 C 2126.76 -1.33168 1.52022 0
M  V30 22749 C 2127.08 -1.94204 0.17606 0
M  V30 22750 O 2126.35 -1.78907 -0.798069 0
M  V30 22751 H 2124.93 -0.494459 0.559928 0
M  V30 22752 H 2127.59 -0.674503 1.82856 0
M  V30 22753 H 2126.68 -2.13511 2.27638 0
M  V30 22754 N 2126.99 -1.34495 -0.82151 0
M  V30 22755 C 2127.9 -1.28265 -1.96431 0
M  V30 22756 C 2128.91 -0.190092 -1.72959 0
M  V30 22757 O 2130.09 -0.416817 -1.9704 0
M  V30 22758 C 2127.15 -1.03935 -3.30754 0
M  V30 22759 C 2126.21 -2.22361 -3.67225 0
M  V30 22760 C 2125.45 -1.99182 -4.95139 0
M  V30 22761 O 2125.67 -0.950771 -5.6242 0
M  V30 22762 O 2124.6 -2.86169 -5.2952 0
M  V30 22763 H 2128.43 -2.2441 -2.04631 0
M  V30 22764 H 2126.01 -1.14716 -0.957114 0
M  V30 22765 H 2127.9 -0.921538 -4.112 0
M  V30 22766 H 2126.57 -0.108311 -3.23519 0
M  V30 22767 H 2125.48 -2.39702 -2.87217 0
M  V30 22768 H 2126.81 -3.1386 -3.79147 0
M  V30 22769 N 2128.46 1.04188 -1.18248 0
M  V30 22770 C 2129.43 2.10339 -0.910507 0
M  V30 22771 C 2130.43 1.60466 0.103607 0
M  V30 22772 O 2131.62 1.73717 -0.129699 0
M  V30 22773 C 2128.75 3.38931 -0.36584 0
M  V30 22774 H 2129.94 2.359 -1.85179 0
M  V30 22775 H 2127.5 1.20593 -0.994332 0
M  V30 22776 H 2128.23 3.19033 0.582115 0
M  V30 22777 H 2128.02 3.76446 -1.09686 0
M  V30 22778 H 2129.51 4.17148 -0.194209 0
M  V30 22779 N 2129.94 0.98432 1.23081 0
M  V30 22780 C 2131.19 0.656352 1.91885 0
M  V30 22781 C 2131.52 -0.808541 1.76568 0
M  V30 22782 O 2130.8 -1.5837 1.12912 0
M  V30 22783 C 2131.08 1.05239 3.44379 0
M  V30 22784 C 2130.93 2.57521 3.68786 0
M  V30 22785 C 2132.25 0.599218 4.36002 0
M  V30 22786 H 2129.37 0.23992 0.696855 0
M  V30 22787 H 2132.01 1.22631 1.45127 0
M  V30 22788 H 2130.16 0.567423 3.84334 0
M  V30 22789 H 2131.83 3.13622 3.38288 0
M  V30 22790 H 2130.08 2.99978 3.13362 0
M  V30 22791 H 2130.75 2.80282 4.75548 0
M  V30 22792 H 2133.22 1.01565 4.03514 0
M  V30 22793 H 2132.1 0.904717 5.41393 0
M  V30 22794 H 2132.36 -0.500359 4.39259 0
M  V30 22795 N 2131.42 -1.38259 0.756453 0
M  V30 22796 C 2132.38 -2.28779 0.138891 0
M  V30 22797 C 2133.38 -1.47321 -0.644449 0
M  V30 22798 O 2134.57 -1.67732 -0.470292 0
M  V30 22799 C 2131.71 -3.311 -0.811535 0
M  V30 22800 H 2132.9 -2.84898 0.936651 0
M  V30 22801 H 2130.45 -1.47267 0.52365 0
M  V30 22802 H 2131.19 -2.80076 -1.63487 0
M  V30 22803 H 2130.97 -3.91288 -0.252199 0
M  V30 22804 H 2132.46 -3.9878 -1.23953 0
M  V30 22805 N 2132.9 -0.505757 -1.49264 0
M  V30 22806 C 2133.81 0.274574 -2.32988 0
M  V30 22807 C 2134.82 0.962724 -1.4494 0
M  V30 22808 O 2136 0.943054 -1.77956 0
M  V30 22809 C 2133.07 1.32231 -3.20493 0
M  V30 22810 C 2132.13 0.64709 -4.24395 0
M  V30 22811 C 2131.36 1.6449 -5.07719 0
M  V30 22812 O 2131.58 2.87523 -4.92632 0
M  V30 22813 O 2130.52 1.19761 -5.89865 0
M  V30 22814 H 2134.34 -0.410833 -3.00908 0
M  V30 22815 H 2131.93 -0.267017 -1.46994 0
M  V30 22816 H 2133.81 1.92838 -3.74689 0
M  V30 22817 H 2132.48 1.99056 -2.55262 0
M  V30 22818 H 2131.39 0.00115278 -3.741 0
M  V30 22819 H 2132.72 0.0212046 -4.92195 0
M  V30 22820 N 2134.38 1.55765 -0.239796 0
M  V30 22821 C 2135.79 1.59184 0.115214 0
M  V30 22822 C 2135.99 1.25688 1.57496 0
M  V30 22823 O 2135.05 1.0008 2.31819 0
M  V30 22824 C 2136.36 2.99838 -0.227557 0
M  V30 22825 C 2137.91 3.12531 -0.171276 0
M  V30 22826 C 2138.38 4.55393 -0.487979 0
M  V30 22827 N 2139.88 4.61122 -0.438217 0
M  V30 22828 C 2140.61 5.69629 -0.656523 0
M  V30 22829 N 2140.11 6.86426 -0.937578 0
M  V30 22830 N 2141.9 5.59019 -0.587713 0
M  V30 22831 H 2134.05 1.7581 -1.19184 0
M  V30 22832 H 2136.31 0.818062 -0.47904 0
M  V30 22833 H 2136.02 3.29062 -1.24141 0
M  V30 22834 H 2135.89 3.74521 0.448752 0
M  V30 22835 H 2138.28 2.83092 0.83324 0
M  V30 22836 H 2138.36 2.40138 -0.881332 0
M  V30 22837 H 2138.01 4.85552 -1.49002 0
M  V30 22838 H 2137.94 5.26037 0.243475 0
M  V30 22839 H 2140.43 3.77203 -0.229426 0
M  V30 22840 H 2140.74 7.65049 -1.09177 0
M  V30 22841 H 2139.08 6.88127 -0.974973 0
M  V30 22842 H 2142.28 4.66649 -0.368239 0
M  V30 22843 H 2142.45 6.43513 -0.761246 0
M  V30 22844 N 2135.85 -0.0334016 1.57565 0
M  V30 22845 C 2137.27 -0.388971 1.54788 0
M  V30 22846 C 2137.47 -1.76871 0.965337 0
M  V30 22847 O 2136.53 -2.45642 0.584492 0
M  V30 22848 C 2137.84 -0.2948 2.99251 0
M  V30 22849 C 2139.39 -0.372199 3.10779 0
M  V30 22850 C 2139.86 -0.307524 4.56966 0
M  V30 22851 N 2141.35 -0.36645 4.61748 0
M  V30 22852 C 2142.09 -0.339229 5.72396 0
M  V30 22853 N 2141.58 -0.264554 6.92295 0
M  V30 22854 N 2143.38 -0.388638 5.60755 0
M  V30 22855 H 2135.53 0.869581 1.93783 0
M  V30 22856 H 2137.79 0.330231 0.888623 0
M  V30 22857 H 2137.5 0.653177 3.45581 0
M  V30 22858 H 2137.37 -1.09016 3.61103 0
M  V30 22859 H 2139.76 -1.31061 2.64399 0
M  V30 22860 H 2139.84 0.452431 2.51767 0
M  V30 22861 H 2139.48 0.627198 5.04013 0
M  V30 22862 H 2139.41 -1.1502 5.13885 0
M  V30 22863 H 2141.9 -0.426853 3.75482 0
M  V30 22864 H 2142.22 -0.248764 7.724 0
M  V30 22865 H 2140.56 -0.230666 6.94617 0
M  V30 22866 H 2143.75 -0.444937 4.65981 0
M  V30 22867 H 2143.93 -0.363955 6.46977 0
M  V30 22868 N 2137.33 -1.54609 -0.305591 0
M  V30 22869 C 2138.75 -1.4572 -0.650988 0
M  V30 22870 C 2138.95 -0.644662 -1.90909 0
M  V30 22871 O 2138 -0.150545 -2.52051 0
M  V30 22872 C 2139.32 -2.89634 -0.808259 0
M  V30 22873 C 2140.87 -2.99648 -0.904441 0
M  V30 22874 C 2141.34 -4.44748 -1.09375 0
M  V30 22875 N 2142.83 -4.48438 -1.16006 0
M  V30 22876 C 2143.57 -5.57887 -1.32474 0
M  V30 22877 N 2143.06 -6.77269 -1.4587 0
M  V30 22878 N 2144.86 -5.45567 -1.35326 0
M  V30 22879 H 2137.01 -2.05909 0.521082 0
M  V30 22880 H 2139.27 -0.932366 0.171455 0
M  V30 22881 H 2138.98 -3.51671 0.0452303 0
M  V30 22882 H 2138.85 -3.36787 -1.69866 0
M  V30 22883 H 2141.24 -2.37727 -1.74842 0
M  V30 22884 H 2141.32 -2.55798 0.00987599 0
M  V30 22885 H 2140.96 -5.07262 -0.25455 0
M  V30 22886 H 2140.89 -4.86224 -2.02222 0
M  V30 22887 H 2143.38 -3.62428 -1.07025 0
M  V30 22888 H 2143.7 -7.56439 -1.58179 0
M  V30 22889 H 2142.04 -6.80143 -1.42934 0
M  V30 22890 H 2145.23 -4.51248 -1.24469 0
M  V30 22891 H 2145.4 -6.30915 -1.47817 0
M  V30 22892 N 2138.81 0.568558 -1.46987 0
M  V30 22893 C 2139.72 1.70416 -1.61232 0
M  V30 22894 C 2140.74 1.66798 -0.495411 0
M  V30 22895 O 2141.91 1.86451 -0.761438 0
M  V30 22896 C 2138.98 3.06924 -1.6124 0
M  V30 22897 C 2138.04 3.21697 -2.8427 0
M  V30 22898 C 2137.27 4.51694 -2.84268 0
M  V30 22899 O 2137.49 5.36458 -1.93827 0
M  V30 22900 O 2136.43 4.70015 -3.75991 0
M  V30 22901 H 2140.25 1.61343 -2.57298 0
M  V30 22902 H 2137.84 0.737255 -1.29942 0
M  V30 22903 H 2139.72 3.88182 -1.6399 0
M  V30 22904 H 2138.4 3.16404 -0.683373 0
M  V30 22905 H 2137.3 2.39879 -2.87069 0
M  V30 22906 H 2138.64 3.17115 -3.76429 0
M  V30 22907 N 2140.29 1.34929 0.814366 0
M  V30 22908 C 2141.2 1.29305 1.95748 0
M  V30 22909 C 2142.21 0.199261 1.72855 0
M  V30 22910 O 2143.39 0.427261 1.96816 0
M  V30 22911 C 2140.46 1.05688 3.30198 0
M  V30 22912 C 2139.52 2.24305 3.6604 0
M  V30 22913 C 2138.75 2.01805 4.94075 0
M  V30 22914 O 2138.97 0.980584 5.61908 0
M  V30 22915 O 2137.91 2.88973 5.27995 0
M  V30 22916 H 2141.73 2.25492 2.03438 0
M  V30 22917 H 2139.32 1.15222 0.951017 0
M  V30 22918 H 2141.2 0.943332 4.10706 0
M  V30 22919 H 2139.87 0.125466 3.23457 0
M  V30 22920 H 2138.78 2.41222 2.85942 0
M  V30 22921 H 2140.11 3.15866 3.77478 0
M  V30 22922 N 2141.77 -1.0356 1.18799 0
M  V30 22923 C 2142.7 -2.13602 0.943213 0
M  V30 22924 C 2143.68 -1.69669 -0.120965 0
M  V30 22925 O 2144.86 -1.94173 0.0326748 0
M  V30 22926 C 2141.99 -3.44054 0.473716 0
M  V30 22927 C 2140.95 -4.01635 1.47896 0
M  V30 22928 C 2140.27 -5.27628 0.866789 0
M  V30 22929 C 2141.57 -4.3722 2.8572 0
M  V30 22930 H 2143.27 -2.34336 1.86351 0
M  V30 22931 H 2140.81 -1.12617 0.897406 0
M  V30 22932 H 2142.77 -4.20402 0.289804 0
M  V30 22933 H 2141.49 -3.23021 -0.482167 0
M  V30 22934 H 2140.15 -3.27374 1.6499 0
M  V30 22935 H 2139.8 -5.02908 -0.0964386 0
M  V30 22936 H 2139.5 -5.67115 1.53799 0
M  V30 22937 H 2141.02 -6.06649 0.693523 0
M  V30 22938 H 2142.43 -5.04533 2.72248 0
M  V30 22939 H 2140.83 -4.87771 3.49571 0
M  V30 22940 H 2141.9 -3.46821 3.38885 0
M  V30 22941 N 2143.25 -0.990834 -1.22557 0
M  V30 22942 C 2144.19 -0.532274 -2.26428 0
M  V30 22943 C 2145.19 0.416012 -1.64212 0
M  V30 22944 O 2146.39 0.288758 -1.77669 0
M  V30 22945 H 2142.77 -0.153732 -0.736118 0
M  V30 22946 H 2144.74 -1.41981 -2.62457 0
M  V30 22947 C 2143.49 0.139451 -3.4742 0
M  V30 22948 H 2142.81 -0.581172 -3.95553 0
M  V30 22949 H 2144.25 0.42379 -4.21877 0
M  V30 22950 C 2142.71 1.37411 -3.07604 0
M  V30 22951 O 2143.24 2.4696 -3.16818 0
M  V30 22952 N 2141.45 1.2486 -2.62409 0
M  V30 22953 H 2140.99 0.357212 -2.55111 0
M  V30 22954 H 2140.95 2.07575 -2.36136 0
M  V30 22955 N 2144.72 1.37856 -0.763775 0
M  V30 22956 C 2145.97 1.99488 -0.323855 0
M  V30 22957 C 2146.29 1.60934 1.10115 0
M  V30 22958 O 2145.56 0.870985 1.75473 0
M  V30 22959 H 2144.14 0.73782 -0.116753 0
M  V30 22960 H 2146.8 1.68462 -0.980132 0
M  V30 22961 H 2145.9 3.09589 -0.395113 0
M  V30 22962 N 2146.2 0.513665 1.48994 0
M  V30 22963 C 2147.43 -0.0227356 2.06587 0
M  V30 22964 C 2147.84 -1.30207 1.37269 0
M  V30 22965 O 2147.18 -1.78134 0.448768 0
M  V30 22966 C 2147.24 -0.333871 3.57946 0
M  V30 22967 C 2146.91 0.849596 4.49033 0
M  V30 22968 C 2147.91 1.74357 4.89791 0
M  V30 22969 C 2145.59 1.05198 4.9116 0
M  V30 22970 C 2147.58 2.82398 5.71428 0
M  V30 22971 C 2145.27 2.13555 5.72571 0
M  V30 22972 C 2146.27 3.01989 6.12611 0
M  V30 22973 O 2145.96 4.08474 6.9239 0
M  V30 22974 H 2145.69 0.0229763 0.675609 0
M  V30 22975 H 2148.24 0.713941 1.92593 0
M  V30 22976 H 2146.47 -1.12431 3.69995 0
M  V30 22977 H 2148.16 -0.810396 3.97728 0
M  V30 22978 H 2148.93 1.59909 4.5788 0
M  V30 22979 H 2144.81 0.372979 4.59489 0
M  V30 22980 H 2148.35 3.51453 6.026 0
M  V30 22981 H 2144.25 2.27994 6.03895 0
M  V30 22982 H 2145.02 4.05982 7.10718 0
M  V30 22983 N 2147.68 -1.55636 0.248053 0
M  V30 22984 C 2148.93 -1.98148 -0.376864 0
M  V30 22985 C 2149.24 -1.13944 -1.58984 0
M  V30 22986 O 2150.45 -1.46475 -2.28598 0
M  V30 22987 C 2148.9 -3.52586 -0.721883 0
M  V30 22988 C 2148.51 -4.4553 0.469765 0
M  V30 22989 C 2150.26 -4.03751 -1.31093 0
M  V30 22990 C 2148.16 -5.91314 0.100837 0
M  V30 22991 H 2147.09 -0.740008 -0.144582 0
M  V30 22992 H 2149.74 -1.80161 0.348451 0
M  V30 22993 H 2148.13 -3.66272 -1.50536 0
M  V30 22994 H 2149.3 -4.43604 1.24708 0
M  V30 22995 H 2147.61 -4.04853 0.973816 0
M  V30 22996 H 2150.21 -5.10191 -1.6003 0
M  V30 22997 H 2150.55 -3.51167 -2.23578 0
M  V30 22998 H 2151.09 -3.93395 -0.590329 0
M  V30 22999 H 2147.83 -6.47937 0.992861 0
M  V30 23000 H 2147.35 -5.96373 -0.640255 0
M  V30 23001 H 2149.03 -6.46225 -0.316571 0
M  V30 23002 N 2149.16 0.0250451 -1.5758 0
M  V30 23003 C 2150.4 0.710606 -1.90583 0
M  V30 23004 C 2150.76 1.72749 -0.847088 0
M  V30 23005 O 2150.05 1.9106 0.143749 0
M  V30 23006 C 2150.25 1.41772 -3.28079 0
M  V30 23007 C 2150.07 0.470836 -4.47228 0
M  V30 23008 C 2148.84 0.0904046 -5.05219 0
M  V30 23009 C 2151.04 -0.25246 -5.1368 0
M  V30 23010 N 2149.02 -0.85731 -6.07884 0
M  V30 23011 C 2150.4 -1.0557 -6.10946 0
M  V30 23012 C 2152.45 -0.318974 -4.96877 0
M  V30 23013 C 2151.15 -1.91935 -6.9322 0
M  V30 23014 C 2153.18 -1.16976 -5.79716 0
M  V30 23015 C 2152.54 -1.96091 -6.76556 0
M  V30 23016 H 2148.64 0.234003 -0.746168 0
M  V30 23017 H 2151.22 -0.0294137 -1.94678 0
M  V30 23018 H 2149.4 2.12817 -3.24905 0
M  V30 23019 H 2151.13 2.05598 -3.48585 0
M  V30 23020 H 2147.88 0.45345 -4.71424 0
M  V30 23021 H 2148.31 -1.3258 -6.63891 0
M  V30 23022 H 2152.95 0.278391 -4.21882 0
M  V30 23023 H 2150.67 -2.52749 -7.67557 0
M  V30 23024 H 2154.25 -1.22481 -5.68761 0
M  V30 23025 H 2153.13 -2.60861 -7.39541 0
M  V30 23026 N 2150.64 1.54769 0.297388 0
M  V30 23027 C 2151.59 1.82354 1.36861 0
M  V30 23028 C 2152.57 0.680909 1.45782 0
M  V30 23029 O 2153.76 0.941639 1.49874 0
M  V30 23030 C 2150.89 2.0775 2.73304 0
M  V30 23031 C 2149.98 3.28207 2.68591 0
M  V30 23032 N 2150.37 4.4868 2.33494 0
M  V30 23033 C 2148.67 3.30307 2.99689 0
M  V30 23034 C 2149.37 5.30707 2.38169 0
M  V30 23035 N 2148.34 4.68517 2.75669 0
M  V30 23036 H 2152.14 2.73061 1.08696 0
M  V30 23037 H 2149.66 1.54317 0.505976 0
M  V30 23038 H 2151.66 2.2566 3.50547 0
M  V30 23039 H 2150.32 1.18312 3.02378 0
M  V30 23040 H 2151.33 4.75217 2.05887 0
M  V30 23041 H 2148 2.50987 3.33634 0
M  V30 23042 H 2149.39 6.36976 2.13802 0
M  V30 23043 N 2152.11 -0.560755 1.47286 0
M  V30 23044 C 2153.04 -1.67792 1.62383 0
M  V30 23045 C 2154.02 -1.6338 0.473377 0
M  V30 23046 O 2155.21 -1.81057 0.702288 0
M  V30 23047 C 2152.34 -3.06431 1.63454 0
M  V30 23048 C 2151.29 -3.25688 2.7769 0
M  V30 23049 C 2150.62 -4.65078 2.63831 0
M  V30 23050 C 2151.92 -3.11404 4.19315 0
M  V30 23051 H 2153.61 -1.55414 2.55904 0
M  V30 23052 H 2151.16 -0.746251 1.23155 0
M  V30 23053 H 2153.11 -3.84428 1.72606 0
M  V30 23054 H 2151.84 -3.1976 0.664904 0
M  V30 23055 H 2150.5 -2.50098 2.68042 0
M  V30 23056 H 2150.14 -4.75201 1.64904 0
M  V30 23057 H 2149.84 -4.78911 3.40467 0
M  V30 23058 H 2151.37 -5.45214 2.74907 0
M  V30 23059 H 2152.78 -3.79222 4.29958 0
M  V30 23060 H 2151.18 -3.36749 4.9671 0
M  V30 23061 H 2152.25 -2.08195 4.3793 0
M  V30 23062 N 2153.59 -1.35359 -0.807199 0
M  V30 23063 C 2154.84 -1.27934 -1.55935 0
M  V30 23064 C 2155.15 0.144469 -1.95066 0
M  V30 23065 O 2156.36 0.340989 -2.6935 0
M  V30 23066 C 2154.82 -2.24359 -2.81409 0
M  V30 23067 C 2154.42 -3.72081 -2.49519 0
M  V30 23068 C 2156.17 -2.25874 -3.59418 0
M  V30 23069 C 2154.07 -4.60331 -3.71281 0
M  V30 23070 H 2153 -0.475324 -0.585306 0
M  V30 23071 H 2155.66 -1.60619 -0.887342 0
M  V30 23072 H 2154.04 -1.84644 -3.50318 0
M  V30 23073 H 2155.21 -4.20427 -1.88621 0
M  V30 23074 H 2153.53 -3.73167 -1.84757 0
M  V30 23075 H 2156.12 -2.89024 -4.49855 0
M  V30 23076 H 2156.47 -1.26232 -3.967 0
M  V30 23077 H 2157 -2.64115 -2.9747 0
M  V30 23078 H 2153.74 -5.60969 -3.39107 0
M  V30 23079 H 2153.26 -4.16711 -4.31407 0
M  V30 23080 H 2154.94 -4.75723 -4.38516 0
M  V30 23081 N 2155.07 1.02928 -1.19346 0
M  V30 23082 C 2156.02 2.09544 -0.898634 0
M  V30 23083 C 2157 1.60321 0.136393 0
M  V30 23084 O 2158.2 1.76865 -0.0692414 0
M  V30 23085 C 2155.32 3.40486 -0.438666 0
M  V30 23086 C 2154.41 3.96444 -1.50641 0
M  V30 23087 N 2154.8 4.26071 -2.72575 0
M  V30 23088 C 2153.1 4.2445 -1.3696 0
M  V30 23089 C 2153.8 4.71011 -3.41355 0
M  V30 23090 N 2152.78 4.7252 -2.68749 0
M  V30 23091 H 2156.58 2.30342 -1.82538 0
M  V30 23092 H 2154.09 1.20785 -1.08557 0
M  V30 23093 H 2156.09 4.16376 -0.208902 0
M  V30 23094 H 2154.75 3.21109 0.481599 0
M  V30 23095 H 2155.76 4.15365 -3.09341 0
M  V30 23096 H 2152.44 4.14339 -0.512767 0
M  V30 23097 H 2153.83 5.02859 -4.45626 0
M  V30 23098 N 2156.55 0.997319 1.2203 0
M  V30 23099 C 2157.51 0.556352 2.22345 0
M  V30 23100 C 2158.51 -0.363165 1.56645 0
M  V30 23101 O 2159.7 -0.154511 1.73513 0
M  V30 23102 C 2156.83 -0.190172 3.40369 0
M  V30 23103 H 2158.03 1.44355 2.62872 0
M  V30 23104 H 2155.58 0.784999 1.35157 0
M  V30 23105 H 2156.31 -1.09315 3.05321 0
M  V30 23106 H 2156.1 0.470115 3.89272 0
M  V30 23107 H 2157.59 -0.486708 4.14754 0
M  V30 23108 N 2158.03 -1.37449 0.771075 0
M  V30 23109 C 2159.44 -1.82352 0.400585 0
M  V30 23110 C 2159.79 -1.64247 -1.07318 0
M  V30 23111 O 2158.91 -1.15322 -1.83111 0
M  V30 23112 C 2159.51 -3.31054 0.720312 0
M  V30 23113 C 2158.07 -3.74238 0.402886 0
M  V30 23114 C 2157.21 -2.59986 0.964497 0
M  V30 23115 H 2160.17 -1.2593 0.965782 0
M  V30 23116 H 2160.19 -3.805 0.00472604 0
M  V30 23117 H 2159.7 -3.44199 1.793 0
M  V30 23118 H 2157.8 -3.66663 -0.662511 0
M  V30 23119 H 2157.91 -4.70365 0.910666 0
M  V30 23120 H 2156.28 -2.51715 0.388782 0
M  V30 23121 H 2157.06 -2.75924 2.04257 0
M  V30 23122 N 2159.5 -0.52156 -1.4872 0
M  V30 23123 C 2160.92 -0.0789475 -1.86533 0
M  V30 23124 C 2161.27 1.34125 -1.43196 0
M  V30 23125 O 2160.39 2.00307 -0.818913 0
M  V30 23126 C 2160.99 -0.136494 -3.38525 0
M  V30 23127 C 2159.55 0.250879 -3.75563 0
M  V30 23128 C 2158.69 -0.499991 -2.72755 0
M  V30 23129 H 2161.64 -0.733264 -1.40744 0
M  V30 23130 H 2161.66 0.653868 -3.7484 0
M  V30 23131 H 2161.18 -1.17024 -3.70036 0
M  V30 23132 H 2159.28 1.28709 -3.49664 0
M  V30 23133 H 2159.39 -0.0828724 -4.79028 0
M  V30 23134 H 2157.75 0.0527232 -2.54645 0
M  V30 23135 H 2158.54 -1.53421 -3.0711 0
M  V30 23136 N 2160.98 1.55502 -0.256304 0
M  V30 23137 C 2161.89 2.25422 0.649785 0
M  V30 23138 C 2162.91 1.27356 1.1856 0
M  V30 23139 O 2164.08 1.60253 1.21988 0
M  V30 23140 C 2161.15 2.94725 1.82587 0
M  V30 23141 C 2160.21 4.08224 1.32859 0
M  V30 23142 C 2159.44 4.74213 2.44862 0
M  V30 23143 O 2159.67 4.39321 3.63804 0
M  V30 23144 O 2158.6 5.6254 2.14086 0
M  V30 23145 H 2162.43 3.03584 0.083948 0
M  V30 23146 H 2160.01 1.4938 -0.0244329 0
M  V30 23147 H 2161.89 3.38344 2.512 0
M  V30 23148 H 2160.57 2.19495 2.37915 0
M  V30 23149 H 2159.48 3.69102 0.609468 0
M  V30 23150 H 2160.81 4.853 0.82129 0
M  V30 23151 N 2162.46 -0.0166879 1.57591 0
M  V30 23152 C 2163.71 -0.706033 1.90113 0
M  V30 23153 C 2164.04 -1.74339 0.855541 0
M  V30 23154 O 2163.31 -1.94079 -0.127874 0
M  V30 23155 C 2163.6 -1.36436 3.33253 0
M  V30 23156 C 2163.45 -0.339675 4.48516 0
M  V30 23157 C 2164.77 -2.29505 3.7552 0
M  V30 23158 H 2161.89 -0.255199 0.691406 0
M  V30 23159 H 2164.53 0.0311796 1.89974 0
M  V30 23160 H 2162.68 -1.99271 3.33501 0
M  V30 23161 H 2164.35 0.287715 4.60402 0
M  V30 23162 H 2162.6 0.339799 4.32467 0
M  V30 23163 H 2163.27 -0.839026 5.45586 0
M  V30 23164 H 2165.74 -1.76702 3.76717 0
M  V30 23165 H 2164.62 -2.72542 4.76458 0
M  V30 23166 H 2164.88 -3.16708 3.08461 0
M  V30 23167 N 2163.94 -1.54924 -0.289176 0
M  V30 23168 C 2164.9 -1.85935 -1.34017 0
M  V30 23169 C 2165.9 -0.732916 -1.43126 0
M  V30 23170 O 2167.09 -1.00116 -1.42556 0
M  V30 23171 C 2164.22 -2.0502 -2.72359 0
M  V30 23172 H 2165.42 -2.79872 -1.07758 0
M  V30 23173 H 2162.97 -1.47168 -0.526442 0
M  V30 23174 H 2163.7 -1.13412 -3.03823 0
M  V30 23175 H 2163.49 -2.8702 -2.67136 0
M  V30 23176 H 2164.98 -2.30342 -3.48328 0
M  V30 23177 N 2165.42 0.552936 -1.47582 0
M  V30 23178 C 2166.33 1.68696 -1.6303 0
M  V30 23179 C 2167.34 1.66263 -0.513075 0
M  V30 23180 O 2168.52 1.85633 -0.781171 0
M  V30 23181 C 2165.58 3.05197 -1.64486 0
M  V30 23182 C 2164.64 3.18664 -2.87666 0
M  V30 23183 C 2163.88 4.48653 -2.89043 0
M  V30 23184 O 2164.1 5.34372 -1.99506 0
M  V30 23185 O 2163.03 4.66001 -3.80955 0
M  V30 23186 H 2166.86 1.58604 -2.58995 0
M  V30 23187 H 2164.45 0.723431 -1.30717 0
M  V30 23188 H 2166.33 3.86421 -1.68098 0
M  V30 23189 H 2165 3.15662 -0.716893 0
M  V30 23190 H 2163.91 2.36821 -2.89597 0
M  V30 23191 H 2165.24 3.13105 -3.79771 0
M  V30 23192 N 2166.89 1.35785 0.800009 0
M  V30 23193 C 2168.13 1.30797 1.57072 0
M  V30 23194 C 2168.5 -0.11441 1.91659 0
M  V30 23195 O 2169.7 -0.288734 2.67245 0
M  V30 23196 C 2167.97 2.19516 2.82041 0
M  V30 23197 S 2169.53 2.32108 3.72386 0
M  V30 23198 H 2166.35 0.464734 0.538092 0
M  V30 23199 H 2168.95 1.71246 0.943139 0
M  V30 23200 H 2167.65 3.21828 2.54666 0
M  V30 23201 H 2167.18 1.80049 3.4978 0
M  V30 23202 H 2169.2 1.51075 4.72642 0
M  V30 23203 N 2168.37 -1.02294 1.19891 0
M  V30 23204 C 2169.65 -1.72912 0.914382 0
M  V30 23205 C 2170.03 -2.0302 -0.57845 0
M  V30 23206 O 2169.38 -1.68961 -1.53833 0
M  V30 23207 C 2169.59 -3.00157 1.78064 0
M  V30 23208 C 2170.94 -3.73547 2.0186 0
M  V30 23209 O 2171.96 -3.10098 1.75265 0
M  V30 23210 O 2170.82 -4.87629 2.46738 0
M  V30 23211 H 2167.91 -0.753281 0.341315 0
M  V30 23212 H 2170.46 -1.08199 1.30733 0
M  V30 23213 H 2169.23 -2.7418 2.79179 0
M  V30 23214 H 2168.85 -3.7261 1.38736 0
M  V30 23215 N 2169.85 -1.00378 -1.21499 0
M  V30 23216 C 2170.78 -0.583318 -2.26097 0
M  V30 23217 C 2171.76 0.395257 -1.65444 0
M  V30 23218 O 2172.95 0.283508 -1.92119 0
M  V30 23219 C 2170.08 0.0920619 -3.47178 0
M  V30 23220 C 2169.03 -0.806168 -4.20339 0
M  V30 23221 C 2168.36 0.0027323 -5.347 0
M  V30 23222 C 2169.66 -2.1082 -4.77862 0
M  V30 23223 H 2171.35 -1.45765 -2.6152 0
M  V30 23224 H 2168.9 -0.702333 -1.25711 0
M  V30 23225 H 2170.85 0.397677 -4.19519 0
M  V30 23226 H 2169.57 1.00102 -3.10881 0
M  V30 23227 H 2168.23 -1.09559 -3.49846 0
M  V30 23228 H 2167.88 0.912942 -4.94646 0
M  V30 23229 H 2167.58 -0.595326 -5.84576 0
M  V30 23230 H 2169.1 0.302191 -6.09852 0
M  V30 23231 H 2170.52 -1.86581 -5.42089 0
M  V30 23232 H 2168.92 -2.656 -5.38123 0
M  V30 23233 H 2169.99 -2.77978 -3.97311 0
M  V30 23234 N 2171.33 1.37038 -0.778354 0
M  V30 23235 C 2172.57 1.99823 -0.34619 0
M  V30 23236 C 2172.91 1.61643 1.07634 0
M  V30 23237 O 2172.18 0.865817 1.74166 0
M  V30 23238 C 2172.47 3.56649 -0.497307 0
M  V30 23239 C 2172.32 4.04718 -1.96273 0
M  V30 23240 C 2173.64 4.39999 0.0944148 0
M  V30 23241 H 2170.76 0.725929 -0.127262 0
M  V30 23242 H 2173.4 1.62617 -0.98263 0
M  V30 23243 H 2171.55 3.88475 0.0445004 0
M  V30 23244 H 2173.22 3.8343 -2.56475 0
M  V30 23245 H 2171.46 3.56667 -2.46924 0
M  V30 23246 H 2172.13 5.13732 -2.01949 0
M  V30 23247 H 2174.61 4.1447 -0.367956 0
M  V30 23248 H 2173.49 5.48884 -0.0414159 0
M  V30 23249 H 2173.75 4.25911 1.18542 0
M  V30 23250 N 2172.81 0.529439 1.48441 0
M  V30 23251 C 2174.04 -0.000822979 2.066 0
M  V30 23252 C 2174.45 -1.28744 1.38642 0
M  V30 23253 O 2173.79 -1.77648 0.467636 0
M  V30 23254 C 2173.85 -0.295887 3.5828 0
M  V30 23255 C 2173.51 0.897174 4.48107 0
M  V30 23256 C 2174.51 1.79543 4.87914 0
M  V30 23257 C 2172.2 1.10402 4.90017 0
M  V30 23258 C 2174.19 2.88443 5.68401 0
M  V30 23259 C 2171.88 2.19616 5.70274 0
M  V30 23260 C 2172.88 3.0847 6.09373 0
M  V30 23261 O 2172.56 4.15795 6.88019 0
M  V30 23262 H 2172.3 0.0301407 0.675328 0
M  V30 23263 H 2174.85 0.734328 1.91825 0
M  V30 23264 H 2173.08 -1.085 3.71167 0
M  V30 23265 H 2174.77 -0.768166 3.98565 0
M  V30 23266 H 2175.53 1.64756 4.56158 0
M  V30 23267 H 2171.41 0.421693 4.59067 0
M  V30 23268 H 2174.96 3.57824 5.98839 0
M  V30 23269 H 2170.85 2.34386 6.01443 0
M  V30 23270 H 2171.62 4.13498 7.06372 0
M  V30 23271 N 2174.29 -1.55364 0.264547 0
M  V30 23272 C 2175.51 -2.03764 -0.358889 0
M  V30 23273 C 2175.93 -1.14327 -1.50249 0
M  V30 23274 O 2175.29 -0.161219 -1.81787 0
M  V30 23275 C 2175.34 -3.51366 -0.849959 0
M  V30 23276 O 2175.06 -4.37397 0.248086 0
M  V30 23277 C 2176.56 -4.15606 -1.54229 0
M  V30 23278 H 2173.78 -0.66582 -0.0832187 0
M  V30 23279 H 2176.32 -2.00677 0.39356 0
M  V30 23280 H 2174.48 -3.5493 -1.55253 0
M  V30 23281 H 2174.89 -5.24345 -0.127661 0
M  V30 23282 H 2176.37 -5.20522 -1.83742 0
M  V30 23283 H 2176.84 -3.63145 -2.47027 0
M  V30 23284 H 2177.45 -4.16015 -0.883843 0
M  V30 23285 N 2175.76 0.00833021 -1.57598 0
M  V30 23286 C 2177.01 0.694911 -1.90203 0
M  V30 23287 C 2177.34 1.74238 -0.864369 0
M  V30 23288 O 2176.59 1.95254 0.131976 0
M  V30 23289 C 2176.89 1.38284 -3.29564 0
M  V30 23290 C 2176.56 0.469372 -4.4845 0
M  V30 23291 C 2175.22 0.21784 -4.80707 0
M  V30 23292 C 2177.57 -0.160058 -5.20954 0
M  V30 23293 C 2174.9 -0.671554 -5.82844 0
M  V30 23294 C 2177.25 -1.03728 -6.24038 0
M  V30 23295 C 2175.92 -1.29807 -6.54757 0
M  V30 23296 H 2175.19 0.254286 -0.696003 0
M  V30 23297 H 2177.83 -0.0454086 -1.91446 0
M  V30 23298 H 2176.14 2.197 -3.24406 0
M  V30 23299 H 2177.84 1.91998 -3.52048 0
M  V30 23300 H 2174.43 0.675583 -4.23242 0
M  V30 23301 H 2178.61 0.0212698 -4.96295 0
M  V30 23302 H 2173.87 -0.881698 -6.05009 0
M  V30 23303 H 2178.04 -1.5314 -6.79353 0
M  V30 23304 H 2175.67 -1.98894 -7.3372 0
M  V30 23305 N 2177.24 1.55075 0.280956 0
M  V30 23306 C 2178.49 1.75306 1.01361 0
M  V30 23307 C 2178.82 0.549775 1.86568 0
M  V30 23308 O 2178.07 -0.467908 1.90024 0
M  V30 23309 C 2178.37 3.00658 1.93234 0
M  V30 23310 C 2178.04 4.3356 1.23841 0
M  V30 23311 C 2176.7 4.69683 1.0465 0
M  V30 23312 C 2179.05 5.15863 0.743962 0
M  V30 23313 C 2176.38 5.85671 0.347296 0
M  V30 23314 C 2178.73 6.32573 0.0583841 0
M  V30 23315 C 2177.39 6.67342 -0.145308 0
M  V30 23316 H 2176.66 0.641491 0.370905 0
M  V30 23317 H 2179.31 1.89343 0.286608 0
M  V30 23318 H 2177.62 2.81488 2.72529 0
M  V30 23319 H 2179.31 3.13507 2.50029 0
M  V30 23320 H 2175.9 4.05163 1.39788 0
M  V30 23321 H 2180.09 4.88438 0.879877 0
M  V30 23322 H 2175.34 6.11139 0.178683 0
M  V30 23323 H 2179.52 6.95606 -0.332548 0
M  V30 23324 H 2177.14 7.5707 -0.689091 0
M  V30 23325 N 2178.72 -0.545102 1.47873 0
M  V30 23326 C 2179.67 -1.64692 1.57672 0
M  V30 23327 C 2180.65 -1.54914 0.434787 0
M  V30 23328 O 2181.85 -1.63191 0.685394 0
M  V30 23329 C 2178.97 -3.03449 1.60542 0
M  V30 23330 C 2178.06 -3.18386 2.80162 0
M  V30 23331 N 2178.45 -3.03347 4.0474 0
M  V30 23332 C 2176.75 -3.49412 2.77178 0
M  V30 23333 C 2177.45 -3.21298 4.84915 0
M  V30 23334 N 2176.43 -3.48186 4.17454 0
M  V30 23335 H 2180.23 -1.51652 2.51752 0
M  V30 23336 H 2177.74 -0.750179 1.44035 0
M  V30 23337 H 2179.74 -3.82576 1.65654 0
M  V30 23338 H 2178.4 -3.17592 0.675673 0
M  V30 23339 H 2179.41 -2.80422 4.35412 0
M  V30 23340 H 2176.09 -3.70007 1.93394 0
M  V30 23341 H 2177.48 -3.14536 5.93731 0
M  V30 23342 N 2180.2 -1.36208 -0.792797 0
M  V30 23343 C 2181.61 -1.27081 -1.36774 0
M  V30 23344 C 2181.96 0.0908481 -1.9599 0
M  V30 23345 O 2181.08 0.992221 -1.92312 0
M  V30 23346 C 2181.68 -2.30115 -2.48662 0
M  V30 23347 C 2180.24 -2.24688 -3.01981 0
M  V30 23348 C 2179.39 -2.15076 -1.75035 0
M  V30 23349 H 2182.34 -1.47135 -0.594713 0
M  V30 23350 H 2182.36 -1.93562 -3.27588 0
M  V30 23351 H 2181.87 -3.29207 -2.05534 0
M  V30 23352 H 2179.97 -1.29051 -3.49538 0
M  V30 23353 H 2180.08 -3.17234 -3.59025 0
M  V30 23354 H 2178.45 -1.61276 -1.97135 0
M  V30 23355 H 2179.23 -3.16051 -1.3404 0
M  V30 23356 N 2181.68 1.01656 -1.20431 0
M  V30 23357 C 2182.61 2.12074 -0.977076 0
M  V30 23358 C 2183.59 1.6984 0.0939563 0
M  V30 23359 O 2184.77 1.94096 -0.0635618 0
M  V30 23360 C 2181.9 3.43257 -0.528392 0
M  V30 23361 C 2180.86 3.99231 -1.54267 0
M  V30 23362 C 2180.18 5.26182 -0.950621 0
M  V30 23363 C 2181.48 4.32619 -2.92639 0
M  V30 23364 H 2183.18 2.31342 -1.90056 0
M  V30 23365 H 2180.72 1.11175 -0.915209 0
M  V30 23366 H 2182.67 4.19888 -0.35665 0
M  V30 23367 H 2181.4 3.23747 0.430716 0
M  V30 23368 H 2180.06 3.24708 -1.70177 0
M  V30 23369 H 2179.71 5.02997 0.0164182 0
M  V30 23370 H 2179.41 5.64597 -1.62802 0
M  V30 23371 H 2180.93 6.05469 -0.789947 0
M  V30 23372 H 2182.34 5.00138 -2.8024 0
M  V30 23373 H 2180.74 4.82148 -3.57286 0
M  V30 23374 H 2181.81 3.41386 -3.4436 0
M  V30 23375 N 2183.15 1.01021 1.20965 0
M  V30 23376 C 2184.56 0.728406 1.71904 0
M  V30 23377 C 2184.92 -0.753559 1.81152 0
M  V30 23378 O 2184.04 -1.5884 1.46966 0
M  V30 23379 C 2184.64 1.31558 3.12215 0
M  V30 23380 C 2183.19 1.08279 3.6049 0
M  V30 23381 C 2182.34 1.42521 2.37872 0
M  V30 23382 H 2185.29 1.18047 1.06069 0
M  V30 23383 H 2185.31 0.702879 3.73952 0
M  V30 23384 H 2184.83 2.39417 3.05452 0
M  V30 23385 H 2182.93 0.0215819 3.72594 0
M  V30 23386 H 2183.04 1.75834 4.45667 0
M  V30 23387 H 2181.4 0.844088 2.40307 0
M  V30 23388 H 2182.19 2.51422 2.33756 0
M  V30 23389 N 2184.63 -1.36623 0.78561 0
M  V30 23390 C 2186.05 -1.5262 0.466843 0
M  V30 23391 C 2186.25 -1.74044 -1.01543 0
M  V30 23392 O 2185.3 -1.76975 -1.801 0
M  V30 23393 C 2186.62 -2.71435 1.29398 0
M  V30 23394 C 2188.16 -2.85304 1.28728 0
M  V30 23395 C 2188.64 -4.07118 2.09807 0
M  V30 23396 N 2190.13 -4.14257 2.07233 0
M  V30 23397 C 2190.87 -5.0758 2.6674 0
M  V30 23398 N 2190.36 -6.06372 3.3509 0
M  V30 23399 N 2192.15 -5.00167 2.56494 0
M  V30 23400 H 2184.31 -1.20971 1.74585 0
M  V30 23401 H 2186.57 -0.590141 0.741915 0
M  V30 23402 H 2186.27 -2.62113 2.34498 0
M  V30 23403 H 2186.15 -3.65488 0.932654 0
M  V30 23404 H 2188.54 -2.94088 0.244207 0
M  V30 23405 H 2188.62 -1.92169 1.68834 0
M  V30 23406 H 2188.26 -3.99095 3.14143 0
M  V30 23407 H 2188.19 -4.99393 1.67074 0
M  V30 23408 H 2190.68 -3.43522 1.57483 0
M  V30 23409 H 2190.99 -6.74137 3.77836 0
M  V30 23410 H 2189.34 -6.06609 3.39191 0
M  V30 23411 H 2192.53 -4.21936 2.027 0
M  V30 23412 H 2192.7 -5.7271 3.03162 0
M  V30 23413 N 2186.11 -0.537304 -1.48158 0
M  V30 23414 C 2187.39 0.0588571 -1.95511 0
M  V30 23415 C 2187.77 1.50563 -1.47966 0
M  V30 23416 O 2187.11 2.17207 -0.709454 0
M  V30 23417 C 2187.32 -0.0659743 -3.48938 0
M  V30 23418 C 2188.67 0.089563 -4.24506 0
M  V30 23419 O 2189.7 0.00746266 -3.56199 0
M  V30 23420 O 2188.56 0.262738 -5.45868 0
M  V30 23421 H 2185.65 0.0752315 -0.823571 0
M  V30 23422 H 2188.2 -0.60242 -1.58647 0
M  V30 23423 H 2186.97 -1.0735 -3.76287 0
M  V30 23424 H 2186.59 0.633822 -3.92516 0
M  V30 23425 N 2187.59 1.55221 -0.272782 0
M  V30 23426 C 2188.5 2.26098 0.62584 0
M  V30 23427 C 2189.51 1.28606 1.17203 0
M  V30 23428 O 2190.69 1.61537 1.20281 0
M  V30 23429 C 2187.76 2.96645 1.7945 0
M  V30 23430 C 2186.82 4.0961 1.28522 0
M  V30 23431 C 2186.05 4.76784 2.39819 0
M  V30 23432 O 2186.27 4.43155 3.59124 0
M  V30 23433 O 2185.21 5.64779 2.08107 0
M  V30 23434 H 2189.03 3.03656 0.0517442 0
M  V30 23435 H 2186.62 1.49346 -0.0402752 0
M  V30 23436 H 2188.5 3.40989 2.47597 0
M  V30 23437 H 2187.17 2.22006 2.35573 0
M  V30 23438 H 2186.08 3.69728 0.570286 0
M  V30 23439 H 2187.41 4.86143 0.769772 0
M  V30 23440 N 2189.07 2.77022e-05 1.576 0
M  V30 23441 C 2190.01 -0.991376 2.08424 0
M  V30 23442 C 2190.98 -1.34134 0.979661 0
M  V30 23443 O 2192.17 -1.4397 1.25209 0
M  V30 23444 C 2189.31 -2.27808 2.59224 0
M  V30 23445 C 2188.42 -1.98715 3.83584 0
M  V30 23446 C 2187.56 -3.21468 4.22885 0
M  V30 23447 C 2186.6 -2.88061 5.40081 0
M  V30 23448 N 2185.73 -4.0335 5.74676 0
M  V30 23449 H 2190.57 -0.551038 2.92861 0
M  V30 23450 H 2188.11 -0.260432 1.44776 0
M  V30 23451 H 2190.07 -3.03029 2.86756 0
M  V30 23452 H 2188.7 -2.69511 1.77661 0
M  V30 23453 H 2187.75 -1.13862 3.62959 0
M  V30 23454 H 2189.06 -1.70092 4.68903 0
M  V30 23455 H 2188.22 -4.05034 4.517 0
M  V30 23456 H 2186.95 -3.53229 3.36275 0
M  V30 23457 H 2185.96 -2.02902 5.1099 0
M  V30 23458 H 2187.18 -2.57547 6.28368 0
M  V30 23459 H 2185.13 -4.35008 4.91023 0
M  V30 23460 H 2185.05 -3.78251 6.5457 0
M  V30 23461 H 2186.32 -4.87705 6.08082 0
M  V30 23462 N 2190.54 -1.55222 -0.272728 0
M  V30 23463 C 2191.51 -1.87346 -1.32038 0
M  V30 23464 C 2192.51 -0.748055 -1.4234 0
M  V30 23465 O 2193.7 -1.01623 -1.41487 0
M  V30 23466 C 2190.83 -2.07898 -2.70169 0
M  V30 23467 H 2192.02 -2.80999 -1.04784 0
M  V30 23468 H 2189.58 -1.47718 -0.510804 0
M  V30 23469 H 2190.31 -1.16628 -3.02603 0
M  V30 23470 H 2190.1 -2.89837 -2.64077 0
M  V30 23471 H 2191.59 -2.34024 -3.45865 0
M  V30 23472 N 2192.02 0.537252 -1.4816 0
M  V30 23473 C 2192.96 1.6589 -1.56703 0
M  V30 23474 C 2193.93 1.57138 -0.417898 0
M  V30 23475 O 2195.12 1.77714 -0.628493 0
M  V30 23476 C 2192.24 3.04252 -1.48824 0
M  V30 23477 C 2191.29 3.31386 -2.68487 0
M  V30 23478 S 2192.12 3.18452 -4.30521 0
M  V30 23479 C 2193.28 4.59273 -4.25228 0
M  V30 23480 H 2193.51 1.58392 -2.51593 0
M  V30 23481 H 2191.05 0.719648 -1.36603 0
M  V30 23482 H 2193 3.84051 -1.44964 0
M  V30 23483 H 2191.66 3.09197 -0.552832 0
M  V30 23484 H 2190.86 4.32304 -2.59093 0
M  V30 23485 H 2190.46 2.59243 -2.69572 0
M  V30 23486 H 2192.75 5.50643 -3.94713 0
M  V30 23487 H 2193.69 4.73723 -5.26301 0
M  V30 23488 H 2194.1 4.38255 -3.55799 0
M  V30 23489 N 2193.5 1.36626 0.785562 0
M  V30 23490 C 2194.75 1.30811 1.54055 0
M  V30 23491 C 2195.07 -0.111123 1.94683 0
M  V30 23492 O 2194.34 -1.05221 1.65243 0
M  V30 23493 H 2192.92 0.481221 0.571345 0
M  V30 23494 H 2195.58 1.70965 0.935791 0
M  V30 23495 H 2194.68 1.93806 2.44634 0
M  V30 23496 N 2194.98 -1.01016 1.20969 0
M  V30 23497 C 2196.21 -1.78301 1.04959 0
M  V30 23498 C 2196.62 -1.84495 -0.400883 0
M  V30 23499 O 2195.98 -1.30259 -1.27823 0
M  V30 23500 C 2196.03 -3.22459 1.63409 0
M  V30 23501 O 2195.75 -3.16632 3.0278 0
M  V30 23502 C 2197.25 -4.16266 1.52439 0
M  V30 23503 H 2194.47 -0.560515 0.368868 0
M  V30 23504 H 2197.02 -1.27113 1.60195 0
M  V30 23505 H 2195.17 -3.70773 1.12276 0
M  V30 23506 H 2195.58 -4.07164 3.30633 0
M  V30 23507 H 2197.06 -5.15233 1.98087 0
M  V30 23508 H 2197.54 -4.36592 0.477952 0
M  V30 23509 H 2198.14 -3.73838 2.02794 0
M  V30 23510 N 2196.46 -1.01661 -1.20428 0
M  V30 23511 C 2197.68 -0.724976 -1.94316 0
M  V30 23512 C 2198.11 0.708003 -1.74267 0
M  V30 23513 O 2197.46 1.48717 -1.03696 0
M  V30 23514 C 2197.51 -1.06597 -3.44484 0
M  V30 23515 O 2196.62 -0.177671 -4.12017 0
M  V30 23516 H 2195.96 -0.268991 -0.607075 0
M  V30 23517 H 2198.49 -1.35998 -1.52858 0
M  V30 23518 H 2198.5 -1.01769 -3.95104 0
M  V30 23519 H 2197.17 -2.11003 -3.584 0
M  V30 23520 H 2195.75 -0.283486 -3.71821 0
M  V30 23521 N 2197.93 1.36205 -0.792844 0
M  V30 23522 C 2199.35 1.81692 -0.429545 0
M  V30 23523 C 2199.7 1.65934 1.04692 0
M  V30 23524 O 2198.82 1.18221 1.81253 0
M  V30 23525 C 2199.42 3.29866 -0.772889 0
M  V30 23526 C 2197.98 3.73549 -0.462373 0
M  V30 23527 C 2197.12 2.58419 -1.00574 0
M  V30 23528 H 2200.07 1.24378 -0.985694 0
M  V30 23529 H 2200.09 3.80444 -0.0652596 0
M  V30 23530 H 2199.61 3.41303 -1.84753 0
M  V30 23531 H 2197.71 3.6767 0.604094 0
M  V30 23532 H 2197.82 4.68857 -0.985382 0
M  V30 23533 H 2196.18 2.51065 -0.428778 0
M  V30 23534 H 2196.97 2.72639 -2.08621 0
M  V30 23535 N 2199.41 0.545154 1.47871 0
M  V30 23536 C 2200.38 -0.198677 2.28337 0
M  V30 23537 C 2201.38 -0.853864 1.36256 0
M  V30 23538 O 2202.57 -0.711578 1.59004 0
M  V30 23539 C 2199.7 -1.2891 3.15587 0
M  V30 23540 H 2200.89 0.507993 2.95566 0
M  V30 23541 H 2198.44 0.301643 1.53362 0
M  V30 23542 H 2199.18 -2.02855 2.53023 0
M  V30 23543 H 2198.96 -0.824241 3.83339 0
M  V30 23544 H 2200.45 -1.81187 3.76246 0
M  V30 23545 N 2200.89 -1.55074 0.28101 0
M  V30 23546 C 2202.3 -1.85451 -0.215596 0
M  V30 23547 C 2202.65 -1.20303 -1.54989 0
M  V30 23548 O 2201.78 -0.493472 -2.10698 0
M  V30 23549 C 2202.37 -3.36455 -0.397967 0
M  V30 23550 C 2200.93 -3.66935 -0.838802 0
M  V30 23551 C 2200.08 -2.77225 0.0645067 0
M  V30 23552 H 2203.03 -1.5053 0.502627 0
M  V30 23553 H 2203.05 -3.59878 -1.23563 0
M  V30 23554 H 2202.56 -3.83842 0.573309 0
M  V30 23555 H 2200.66 -3.25051 -1.82134 0
M  V30 23556 H 2200.78 -4.74363 -0.67204 0
M  V30 23557 H 2199.14 -2.50642 -0.452819 0
M  V30 23558 H 2199.92 -3.27428 1.03177 0
M  V30 23559 N 2202.37 -0.00838561 -1.57598 0
M  V30 23560 C 2203.32 0.980309 -2.08946 0
M  V30 23561 C 2204.29 1.33612 -0.986761 0
M  V30 23562 O 2205.47 1.43304 -1.25971 0
M  V30 23563 C 2202.61 2.2643 -2.60429 0
M  V30 23564 C 2201.72 1.96678 -3.84632 0
M  V30 23565 C 2200.86 3.1922 -4.24584 0
M  V30 23566 C 2199.9 2.85192 -5.41601 0
M  V30 23567 N 2199.04 4.00297 -5.76807 0
M  V30 23568 H 2203.88 0.535499 -2.93149 0
M  V30 23569 H 2201.41 0.252751 -1.44912 0
M  V30 23570 H 2203.37 3.01504 -2.88359 0
M  V30 23571 H 2202 2.68565 -1.79088 0
M  V30 23572 H 2201.05 1.11936 -3.63558 0
M  V30 23573 H 2202.36 1.67603 -4.69799 0
M  V30 23574 H 2201.52 4.02633 -4.53841 0
M  V30 23575 H 2200.26 3.51441 -3.38143 0
M  V30 23576 H 2199.26 2.00189 -5.12059 0
M  V30 23577 H 2200.49 2.54211 -6.29725 0
M  V30 23578 H 2198.43 4.32398 -4.93323 0
M  V30 23579 H 2198.35 3.74774 -6.56567 0
M  V30 23580 H 2199.62 4.84473 -6.1066 0
M  V30 23581 N 2203.85 1.55365 0.264492 0
M  V30 23582 C 2205.07 1.80741 1.01722 0
M  V30 23583 C 2205.5 0.583075 1.78835 0
M  V30 23584 O 2204.86 -0.467535 1.75168 0
M  V30 23585 C 2204.9 3.03663 1.94477 0
M  V30 23586 O 2204.01 2.79345 3.03381 0
M  V30 23587 H 2203.35 0.597137 0.290384 0
M  V30 23588 H 2205.88 2.02523 0.290818 0
M  V30 23589 H 2205.89 3.32625 2.36272 0
M  V30 23590 H 2204.56 3.9242 1.37765 0
M  V30 23591 H 2203.14 2.61503 2.6584 0
M  V30 23592 N 2205.33 -0.529387 1.48443 0
M  V30 23593 C 2206.55 -1.31468 1.60409 0
M  V30 23594 C 2206.98 -1.86227 0.264771 0
M  V30 23595 O 2206.33 -1.64433 -0.763639 0
M  V30 23596 C 2206.38 -2.44096 2.65423 0
M  V30 23597 O 2205.49 -3.47149 2.22624 0
M  V30 23598 H 2204.83 -0.389348 0.53787 0
M  V30 23599 H 2207.36 -0.636931 1.94433 0
M  V30 23600 H 2207.37 -2.90274 2.86715 0
M  V30 23601 H 2206.04 -2.03601 3.62656 0
M  V30 23602 H 2204.62 -3.07086 2.11548 0
M  V30 23603 N 2206.8 -1.37041 -0.778305 0
M  V30 23604 C 2208.08 -1.22426 -1.52549 0
M  V30 23605 C 2208.46 0.184927 -2.10288 0
M  V30 23606 O 2207.81 1.19183 -1.94955 0
M  V30 23607 C 2208.02 -2.31509 -2.6116 0
M  V30 23608 C 2209.37 -2.68727 -3.28741 0
M  V30 23609 O 2210.39 -2.30636 -2.71451 0
M  V30 23610 O 2209.25 -3.34328 -4.32304 0
M  V30 23611 H 2206.34 -0.477338 -0.675335 0
M  V30 23612 H 2208.89 -1.48803 -0.815833 0
M  V30 23613 H 2207.66 -3.25905 -2.16568 0
M  V30 23614 H 2207.28 -2.0656 -3.39733 0
M  V30 23615 N 2208.28 1.00373 -1.21503 0
M  V30 23616 C 2209.53 1.73825 -1.03098 0
M  V30 23617 C 2209.85 1.90056 0.436307 0
M  V30 23618 O 2209.12 1.45238 1.31464 0
M  V30 23619 H 2207.7 0.644009 -0.378498 0
M  V30 23620 H 2210.36 1.20947 -1.52833 0
M  V30 23621 H 2209.46 2.73692 -1.49996 0
M  V30 23622 N 2209.76 1.02298 1.19887 0
M  V30 23623 C 2210.99 0.735433 1.93388 0
M  V30 23624 C 2211.4 -0.704856 1.75149 0
M  V30 23625 O 2210.76 -1.47873 1.06957 0
M  V30 23626 C 2210.81 1.06968 3.45312 0
M  V30 23627 O 2210.53 2.45341 3.62959 0
M  V30 23628 C 2212.03 0.804098 4.35946 0
M  V30 23629 H 2209.25 0.269557 0.614475 0
M  V30 23630 H 2211.8 1.36588 1.52197 0
M  V30 23631 H 2209.95 0.484523 3.84358 0
M  V30 23632 H 2210.37 2.57603 4.56882 0
M  V30 23633 H 2211.84 1.08799 5.41172 0
M  V30 23634 H 2212.32 -0.261613 4.3842 0
M  V30 23635 H 2212.92 1.37171 4.02572 0
M  V30 23636 N 2211.24 -1.35782 0.800057 0
M  V30 23637 C 2212.48 -1.99684 0.387045 0
M  V30 23638 C 2212.84 -1.6234 -1.03265 0
M  V30 23639 O 2212.13 -0.87328 -1.70541 0
M  V30 23640 C 2212.33 -3.5388 0.500338 0
M  V30 23641 C 2212.15 -4.06203 1.9295 0
M  V30 23642 C 2210.92 -4.3586 2.55644 0
M  V30 23643 C 2213.12 -4.25208 2.89314 0
M  V30 23644 N 2211.1 -4.74071 3.90038 0
M  V30 23645 C 2212.48 -4.66342 4.08564 0
M  V30 23646 C 2214.53 -4.07401 2.86232 0
M  V30 23647 C 2213.23 -4.91534 5.25154 0
M  V30 23648 C 2215.26 -4.33745 4.02019 0
M  V30 23649 C 2214.62 -4.75146 5.20015 0
M  V30 23650 H 2210.72 -0.758751 0.189266 0
M  V30 23651 H 2213.3 -1.64602 1.03991 0
M  V30 23652 H 2211.48 -3.88207 -0.1225 0
M  V30 23653 H 2213.21 -4.04652 0.0625444 0
M  V30 23654 H 2209.96 -4.25945 2.07046 0
M  V30 23655 H 2210.39 -4.97446 4.59213 0
M  V30 23656 H 2215.03 -3.74541 1.9616 0
M  V30 23657 H 2212.75 -5.23271 6.15803 0
M  V30 23658 H 2216.33 -4.21527 4.01006 0
M  V30 23659 H 2215.21 -4.95134 6.08122 0
M  V30 23660 N 2212.72 -0.552988 -1.4758 0
M  V30 23661 C 2213.68 0.186565 -2.28439 0
M  V30 23662 C 2214.68 0.846626 -1.36707 0
M  V30 23663 O 2215.87 0.703136 -1.59379 0
M  V30 23664 C 2213 1.27234 -3.16266 0
M  V30 23665 H 2214.19 -0.523661 -2.95293 0
M  V30 23666 H 2211.75 -0.309772 -1.532 0
M  V30 23667 H 2212.48 2.0151 -2.54095 0
M  V30 23668 H 2212.27 0.8039 -3.83771 0
M  V30 23669 H 2213.76 1.79189 -3.77201 0
M  V30 23670 N 2214.19 1.54923 -0.28923 0
M  V30 23671 C 2215.61 1.5947 0.0645122 0
M  V30 23672 C 2215.81 1.30635 1.53417 0
M  V30 23673 O 2214.87 1.07404 2.28518 0
M  V30 23674 C 2216.18 2.98962 -0.322833 0
M  V30 23675 C 2217.73 3.11828 -0.270619 0
M  V30 23676 C 2218.2 4.5361 -0.632611 0
M  V30 23677 N 2219.69 4.59495 -0.584698 0
M  V30 23678 C 2220.43 5.67252 -0.837414 0
M  V30 23679 N 2219.92 6.83096 -1.15548 0
M  V30 23680 N 2221.72 5.56866 -0.765264 0
M  V30 23681 H 2213.87 1.71929 -1.24717 0
M  V30 23682 H 2216.13 0.802407 -0.504823 0
M  V30 23683 H 2215.84 3.24946 -1.34547 0
M  V30 23684 H 2215.71 3.75759 0.329374 0
M  V30 23685 H 2218.1 2.856 0.742755 0
M  V30 23686 H 2218.18 2.37212 -0.957284 0
M  V30 23687 H 2217.82 4.80566 -1.64374 0
M  V30 23688 H 2217.75 5.26545 0.0759974 0
M  V30 23689 H 2220.24 3.76282 -0.349314 0
M  V30 23690 H 2220.56 7.61189 -1.33461 0
M  V30 23691 H 2218.9 6.84677 -1.1934 0
M  V30 23692 H 2222.09 4.65242 -0.516514 0
M  V30 23693 H 2222.27 6.40765 -0.96559 0
M  V30 23694 N 2215.67 0.0167433 1.57591 0
M  V30 23695 C 2217.08 -0.523803 1.79202 0
M  V30 23696 C 2217.43 -1.72982 0.925826 0
M  V30 23697 O 2216.56 -2.15992 0.13283 0
M  V30 23698 C 2217.15 -0.957034 3.25002 0
M  V30 23699 C 2215.71 -1.44277 3.47651 0
M  V30 23700 C 2214.86 -0.401709 2.74375 0
M  V30 23701 H 2217.81 0.242844 1.56831 0
M  V30 23702 H 2217.83 -1.82213 3.34034 0
M  V30 23703 H 2217.34 -0.0790733 3.88019 0
M  V30 23704 H 2215.44 -2.34107 2.8987 0
M  V30 23705 H 2215.56 -1.45869 4.56354 0
M  V30 23706 H 2213.92 -0.867079 2.39487 0
M  V30 23707 H 2214.7 0.467573 3.40101 0
M  V30 23708 N 2217.15 -1.55503 -0.256249 0
M  V30 23709 C 2218.4 -1.77159 -0.987048 0
M  V30 23710 C 2218.73 -0.580347 -1.85326 0
M  V30 23711 O 2218 0.421653 -1.89875 0
M  V30 23712 C 2218.29 -3.08616 -1.85548 0
M  V30 23713 C 2218.14 -4.38127 -1.01808 0
M  V30 23714 C 2219.46 -3.36233 -2.83964 0
M  V30 23715 H 2216.58 -0.644533 -0.357417 0
M  V30 23716 H 2219.22 -1.88237 -0.258206 0
M  V30 23717 H 2217.37 -2.99302 -2.4769 0
M  V30 23718 H 2219.04 -4.5942 -0.416078 0
M  V30 23719 H 2217.29 -4.32603 -0.322102 0
M  V30 23720 H 2217.96 -5.26471 -1.6593 0
M  V30 23721 H 2220.43 -3.45449 -2.31958 0
M  V30 23722 H 2219.31 -4.29448 -3.41856 0
M  V30 23723 H 2219.57 -2.56687 -3.5995 0
M  V30 23724 N 2218.63 0.521507 -1.48721 0
M  V30 23725 C 2219.88 1.27434 -1.56859 0
M  V30 23726 C 2220.2 1.93416 -0.248016 0
M  V30 23727 O 2219.47 1.81746 0.731119 0
M  V30 23728 H 2218.05 0.473337 -0.577894 0
M  V30 23729 H 2220.71 0.606173 -1.85234 0
M  V30 23730 H 2219.81 2.04916 -2.35406 0
M  V30 23731 N 2220.11 1.37452 0.771027 0
M  V30 23732 C 2221.05 1.33273 1.88433 0
M  V30 23733 C 2222.02 0.198165 1.64914 0
M  V30 23734 O 2223.21 0.387639 1.86821 0
M  V30 23735 C 2220.35 1.14627 3.25507 0
M  V30 23736 C 2219.46 2.3732 3.60975 0
M  V30 23737 C 2218.6 2.11541 4.87261 0
M  V30 23738 C 2217.64 3.30097 5.15463 0
M  V30 23739 N 2216.77 3.03864 6.32938 0
M  V30 23740 H 2221.61 2.28458 1.9134 0
M  V30 23741 H 2219.15 1.13525 0.935446 0
M  V30 23742 H 2221.11 1.01838 4.0458 0
M  V30 23743 H 2219.74 0.230893 3.21973 0
M  V30 23744 H 2218.79 2.60847 2.76881 0
M  V30 23745 H 2220.1 3.25736 3.77754 0
M  V30 23746 H 2219.26 1.95787 5.74241 0
M  V30 23747 H 2217.99 1.20465 4.72588 0
M  V30 23748 H 2217 3.46389 4.26959 0
M  V30 23749 H 2218.22 4.22025 5.32045 0
M  V30 23750 H 2216.17 2.15418 6.19622 0
M  V30 23751 H 2216.09 3.85823 6.50136 0
M  V30 23752 H 2217.36 2.91729 7.22852 0
M  V30 23753 N 2221.58 -0.997276 1.22033 0
M  V30 23754 C 2222.83 -1.73876 1.04379 0
M  V30 23755 C 2223.16 -1.89589 -0.420682 0
M  V30 23756 O 2222.44 -1.43586 -1.312 0
M  V30 23757 C 2222.72 -3.14688 1.75052 0
M  V30 23758 C 2222.57 -3.06651 3.29067 0
M  V30 23759 C 2223.89 -4.13772 1.49936 0
M  V30 23760 H 2221.01 -0.631127 0.380589 0
M  V30 23761 H 2223.65 -1.16214 1.50314 0
M  V30 23762 H 2221.8 -3.63917 1.36002 0
M  V30 23763 H 2223.48 -2.65076 3.77534 0
M  V30 23764 H 2221.72 -2.43562 3.58971 0
M  V30 23765 H 2222.39 -4.06275 3.73691 0
M  V30 23766 H 2224.87 -3.73281 1.83849 0
M  V30 23767 H 2223.74 -5.10424 2.01887 0
M  V30 23768 H 2224 -4.39994 0.431006 0
M  V30 23769 N 2223.06 -1.02932 -1.19343 0
M  V30 23770 C 2224.31 -0.724607 -1.88663 0
M  V30 23771 C 2224.63 0.749112 -1.80037 0
M  V30 23772 O 2223.9 1.53976 -1.21113 0
M  V30 23773 H 2222.48 -0.265037 -0.698401 0
M  V30 23774 H 2225.14 -1.30365 -1.44883 0
M  V30 23775 H 2224.24 -1.01931 -2.94985 0
M  V30 23776 N 2224.54 1.35356 -0.807246 0
M  V30 23777 C 2225.79 1.98357 -0.387157 0
M  V30 23778 C 2226.11 1.64355 1.04939 0
M  V30 23779 O 2225.38 0.926369 1.72613 0
M  V30 23780 H 2223.96 0.733732 -0.140167 0
M  V30 23781 H 2226.62 1.65258 -1.03323 0
M  V30 23782 H 2225.72 3.08175 -0.493406 0
M  V30 23783 N 2226.02 0.560807 1.47284 0
M  V30 23784 C 2226.93 -0.187913 2.33846 0
M  V30 23785 C 2227.94 -0.908267 1.48413 0
M  V30 23786 O 2229.12 -0.876357 1.81334 0
M  V30 23787 C 2226.19 -1.20245 3.2518 0
M  V30 23788 C 2225.25 -0.489133 4.26504 0
M  V30 23789 C 2224.48 -1.45533 5.13474 0
M  V30 23790 O 2224.7 -2.69041 5.02964 0
M  V30 23791 O 2223.64 -0.977859 5.93904 0
M  V30 23792 H 2227.46 0.52223 2.99176 0
M  V30 23793 H 2225.05 0.321389 1.45902 0
M  V30 23794 H 2226.93 -1.78799 3.81587 0
M  V30 23795 H 2225.6 -1.89445 2.62474 0
M  V30 23796 H 2224.51 0.137693 3.73847 0
M  V30 23797 H 2225.84 0.161485 4.91935 0
M  V30 23798 N 2227.5 -1.54768 0.297442 0
M  V30 23799 C 2228.74 -2.00365 -0.313341 0
M  V30 23800 C 2229.08 -1.18555 -1.53812 0
M  V30 23801 O 2228.35 -0.261137 -1.92739 0
M  V30 23802 C 2228.63 -3.53746 -0.673463 0
M  V30 23803 C 2228.49 -4.46298 0.560211 0
M  V30 23804 C 2229.81 -4.137 -1.50136 0
M  V30 23805 H 2226.92 -0.728376 -0.112415 0
M  V30 23806 H 2229.57 -1.85549 0.408833 0
M  V30 23807 H 2227.72 -3.66502 -1.28874 0
M  V30 23808 H 2229.39 -4.45453 1.19871 0
M  V30 23809 H 2227.63 -4.17041 1.19412 0
M  V30 23810 H 2228.3 -5.51368 0.264147 0
M  V30 23811 H 2230.78 -4.04358 -0.981517 0
M  V30 23812 H 2229.65 -5.21186 -1.72212 0
M  V30 23813 H 2229.92 -3.65347 -2.48945 0
M  V30 23814 N 2228.97 -0.0251005 -1.5758 0
M  V30 23815 C 2229.92 0.958093 -2.09974 0
M  V30 23816 C 2230.89 1.32558 -1.00088 0
M  V30 23817 O 2232.08 1.4196 -1.27484 0
M  V30 23818 C 2229.22 2.23656 -2.62816 0
M  V30 23819 C 2228.33 1.92587 -3.86696 0
M  V30 23820 C 2227.46 3.14699 -4.27946 0
M  V30 23821 C 2226.5 2.79432 -5.44595 0
M  V30 23822 N 2225.64 3.94157 -5.81021 0
M  V30 23823 H 2230.48 0.504377 -2.93701 0
M  V30 23824 H 2228.02 0.237366 -1.45172 0
M  V30 23825 H 2229.98 2.98429 -2.91541 0
M  V30 23826 H 2228.61 2.66651 -1.81926 0
M  V30 23827 H 2227.66 1.08073 -3.64725 0
M  V30 23828 H 2228.97 1.6261 -4.7155 0
M  V30 23829 H 2228.12 3.97796 -4.58086 0
M  V30 23830 H 2226.86 3.47834 -3.41852 0
M  V30 23831 H 2225.87 1.94746 -5.14154 0
M  V30 23832 H 2227.09 2.47517 -6.32386 0
M  V30 23833 H 2225.04 4.27141 -4.97882 0
M  V30 23834 H 2224.96 3.6779 -6.60505 0
M  V30 23835 H 2226.22 4.77969 -6.15764 0
M  V30 23836 N 2230.45 1.55637 0.247999 0
M  V30 23837 C 2231.38 1.9324 1.31075 0
M  V30 23838 C 2232.36 0.797201 1.50262 0
M  V30 23839 O 2233.55 1.0574 1.62889 0
M  V30 23840 C 2230.68 2.22614 2.66571 0
M  V30 23841 C 2229.63 3.38375 2.62081 0
M  V30 23842 C 2228.96 3.53288 4.01362 0
M  V30 23843 C 2230.26 4.74094 2.19163 0
M  V30 23844 H 2231.95 2.82259 0.998506 0
M  V30 23845 H 2229.5 1.35804 0.478886 0
M  V30 23846 H 2231.45 2.47509 3.41053 0
M  V30 23847 H 2230.18 1.30419 2.9943 0
M  V30 23848 H 2228.83 3.13487 1.90057 0
M  V30 23849 H 2228.48 2.58515 4.31484 0
M  V30 23850 H 2228.18 4.31134 3.99246 0
M  V30 23851 H 2229.71 3.80503 4.77546 0
M  V30 23852 H 2231.12 4.98368 2.83376 0
M  V30 23853 H 2229.52 5.55034 2.2816 0
M  V30 23854 H 2230.59 4.7123 1.14327 0
M  V30 23855 N 2231.93 -0.513613 1.48996 0
M  V30 23856 C 2233.16 -1.29759 1.61794 0
M  V30 23857 C 2233.58 -1.85936 0.284508 0
M  V30 23858 O 2232.94 -1.65234 -0.746156 0
M  V30 23859 C 2232.99 -2.41268 2.67997 0
M  V30 23860 O 2232.09 -3.44768 2.26294 0
M  V30 23861 H 2231.43 -0.383621 0.54197 0
M  V30 23862 H 2233.96 -0.616273 1.95098 0
M  V30 23863 H 2233.97 -2.87216 2.89777 0
M  V30 23864 H 2232.65 -1.99743 3.64795 0
M  V30 23865 H 2231.22 -3.04825 2.14793 0
M  V30 23866 N 2233.41 -1.37859 -0.763727 0
M  V30 23867 C 2234.66 -1.3283 -1.51786 0
M  V30 23868 C 2234.97 0.0823376 -1.95427 0
M  V30 23869 O 2236.18 0.255124 -2.70299 0
M  V30 23870 C 2234.63 -2.33198 -2.74129 0
M  V30 23871 C 2234.24 -3.79831 -2.37555 0
M  V30 23872 C 2235.99 -2.37195 -3.5205 0
M  V30 23873 C 2233.89 -4.7191 -3.56448 0
M  V30 23874 H 2232.82 -0.493705 -0.569887 0
M  V30 23875 H 2235.47 -1.63361 -0.835793 0
M  V30 23876 H 2233.86 -1.95696 -3.44266 0
M  V30 23877 H 2235.03 -4.26215 -1.7515 0
M  V30 23878 H 2233.34 -3.78856 -1.72791 0
M  V30 23879 H 2235.94 -3.0319 -4.40432 0
M  V30 23880 H 2236.28 -1.38789 -3.92484 0
M  V30 23881 H 2236.82 -2.73445 -2.88917 0
M  V30 23882 H 2233.56 -5.71474 -3.21089 0
M  V30 23883 H 2233.08 -4.30225 -4.17931 0
M  V30 23884 H 2234.76 -4.89433 -4.23159 0
M  V30 23885 N 2234.89 0.990791 -1.22561 0
M  V30 23886 C 2236.11 1.77144 -1.07865 0
M  V30 23887 C 2236.54 1.84497 0.366414 0
M  V30 23888 O 2235.9 1.29898 1.26476 0
M  V30 23889 C 2235.94 3.18178 -1.69691 0
M  V30 23890 O 2235.05 4.01261 -0.952017 0
M  V30 23891 H 2234.39 0.545404 -0.378722 0
M  V30 23892 H 2236.92 1.24447 -1.62401 0
M  V30 23893 H 2236.93 3.68799 -1.74502 0
M  V30 23894 H 2235.6 3.12141 -2.74847 0
M  V30 23895 H 2234.18 3.5979 -0.980075 0
M  V30 23896 N 2236.37 1.03564 1.18795 0
M  V30 23897 C 2237.6 0.754807 1.92318 0
M  V30 23898 C 2238 -0.691217 1.76122 0
M  V30 23899 O 2237.35 -1.48239 1.08493 0
M  V30 23900 C 2237.41 1.0349 3.44282 0
M  V30 23901 C 2237.07 2.47383 3.84253 0
M  V30 23902 C 2238.07 3.45544 3.88453 0
M  V30 23903 C 2235.75 2.81962 4.15696 0
M  V30 23904 C 2237.75 4.76336 4.23536 0
M  V30 23905 C 2235.44 4.12961 4.50451 0
M  V30 23906 C 2236.43 5.09959 4.54347 0
M  V30 23907 O 2236.12 6.38611 4.88294 0
M  V30 23908 H 2235.85 0.275032 0.617522 0
M  V30 23909 H 2238.41 1.385 1.51681 0
M  V30 23910 H 2236.64 0.347581 3.85135 0
M  V30 23911 H 2238.33 0.74267 3.99048 0
M  V30 23912 H 2239.09 3.20168 3.64304 0
M  V30 23913 H 2234.97 2.07137 4.11844 0
M  V30 23914 H 2238.52 5.52042 4.26492 0
M  V30 23915 H 2234.41 4.38108 4.74059 0
M  V30 23916 H 2235.18 6.43186 5.06216 0
M  V30 23917 N 2237.84 -1.34926 0.814413 0
M  V30 23918 C 2238.79 -2.29668 0.228261 0
M  V30 23919 C 2239.76 -1.53186 -0.642137 0
M  V30 23920 O 2240.95 -1.81592 -0.585573 0
M  V30 23921 C 2238.09 -3.39651 -0.61083 0
M  V30 23922 C 2237.2 -4.31086 0.280868 0
M  V30 23923 C 2236.33 -5.28166 -0.566974 0
M  V30 23924 C 2235.37 -6.11239 0.324638 0
M  V30 23925 N 2234.51 -7.00432 -0.483633 0
M  V30 23926 H 2239.35 -2.79205 1.04158 0
M  V30 23927 H 2236.89 -1.37406 0.525157 0
M  V30 23928 H 2238.84 -4.02092 -1.11256 0
M  V30 23929 H 2237.47 -2.91371 -1.38934 0
M  V30 23930 H 2236.53 -3.69582 0.900753 0
M  V30 23931 H 2237.84 -4.89341 0.966809 0
M  V30 23932 H 2236.99 -5.96017 -1.13352 0
M  V30 23933 H 2235.73 -4.70427 -1.28645 0
M  V30 23934 H 2234.74 -5.42327 0.903394 0
M  V30 23935 H 2235.96 -6.71057 1.0421 0
M  V30 23936 H 2233.91 -6.45173 -1.18694 0
M  V30 23937 H 2233.82 -7.55863 0.144097 0
M  V30 23938 H 2235.09 -7.72622 -1.0332 0
M  V30 23939 N 2239.32 -0.56861 -1.46985 0
M  V30 23940 C 2240.27 0.185608 -2.31858 0
M  V30 23941 C 2241.26 0.898224 -1.43626 0
M  V30 23942 O 2242.47 0.818214 -1.60329 0
M  V30 23943 H 2238.84 0.0787267 -0.747868 0
M  V30 23944 H 2240.82 -0.549243 -2.93302 0
M  V30 23945 C 2239.56 1.19514 -3.26515 0
M  V30 23946 H 2238.89 0.656215 -3.94378 0
M  V30 23947 H 2240.33 1.69353 -3.8871 0
M  V30 23948 C 2238.79 2.2489 -2.50851 0
M  V30 23949 O 2239.32 3.3201 -2.26125 0
M  V30 23950 N 2237.52 1.9912 -2.11659 0
M  V30 23951 H 2237.07 1.1202 -2.31968 0
M  V30 23952 H 2237.03 2.69839 -1.61351 0
M  V30 23953 N 2240.8 1.54608 -0.305646 0
M  V30 23954 C 2241.75 2.25147 0.584079 0
M  V30 23955 C 2242.74 1.25913 1.13324 0
M  V30 23956 O 2243.95 1.43749 1.08334 0
M  V30 23957 H 2240.32 0.722957 0.206971 0
M  V30 23958 H 2242.29 2.98381 -0.0333435 0
M  V30 23959 C 2241.04 3.00904 1.74219 0
M  V30 23960 H 2240.37 3.7707 1.32885 0
M  V30 23961 H 2241.81 3.53535 2.34071 0
M  V30 23962 C 2240.26 2.08144 2.6491 0
M  V30 23963 O 2240.79 1.65252 3.66135 0
M  V30 23964 N 2239 1.74004 2.32747 0
M  V30 23965 H 2238.55 2.09081 1.50476 0
M  V30 23966 H 2238.51 1.12216 2.93692 0
M  V30 23967 N 2242.28 0.033457 1.57564 0
M  V30 23968 C 2243.22 -0.946944 2.10479 0
M  V30 23969 C 2244.19 -1.32025 1.00789 0
M  V30 23970 O 2245.38 -1.41282 1.28235 0
M  V30 23971 C 2242.52 -2.22259 2.63998 0
M  V30 23972 C 2241.63 -1.90534 3.87712 0
M  V30 23973 C 2240.77 -3.12425 4.29609 0
M  V30 23974 C 2239.81 -2.7654 5.4607 0
M  V30 23975 N 2238.94 -3.9107 5.83103 0
M  V30 23976 H 2243.78 -0.488794 2.93964 0
M  V30 23977 H 2241.32 -0.229664 1.45296 0
M  V30 23978 H 2243.28 -2.96878 2.93119 0
M  V30 23979 H 2241.91 -2.65682 1.83338 0
M  V30 23980 H 2240.96 -1.06138 3.65293 0
M  V30 23981 H 2242.27 -1.60107 4.72406 0
M  V30 23982 H 2241.43 -3.95361 4.60189 0
M  V30 23983 H 2240.17 -3.46017 3.43691 0
M  V30 23984 H 2239.17 -1.92017 5.15179 0
M  V30 23985 H 2240.4 -2.4416 6.3369 0
M  V30 23986 H 2238.34 -4.24495 5.0014 0
M  V30 23987 H 2238.26 -3.64282 6.62446 0
M  V30 23988 H 2239.53 -4.74697 6.1829 0
M  V30 23989 N 2243.76 -1.55766 -0.239741 0
M  V30 23990 C 2244.69 -1.93932 -1.30049 0
M  V30 23991 C 2245.67 -0.805158 -1.49837 0
M  V30 23992 O 2246.85 -1.06602 -1.62326 0
M  V30 23993 C 2243.98 -2.24024 -2.65387 0
M  V30 23994 C 2242.94 -3.3976 -2.60283 0
M  V30 23995 C 2242.26 -3.55412 -3.99483 0
M  V30 23996 C 2243.56 -4.7525 -2.16645 0
M  V30 23997 H 2245.26 -2.82785 -0.983523 0
M  V30 23998 H 2242.8 -1.36056 -0.471677 0
M  V30 23999 H 2244.75 -2.49314 -3.39736 0
M  V30 24000 H 2243.48 -1.32006 -2.98734 0
M  V30 24001 H 2242.14 -3.1449 -1.88392 0
M  V30 24002 H 2241.79 -2.608 -4.30107 0
M  V30 24003 H 2241.49 -4.33245 -3.96954 0
M  V30 24004 H 2243.01 -3.8303 -4.75521 0
M  V30 24005 H 2244.42 -4.99864 -2.80729 0
M  V30 24006 H 2242.82 -5.56236 -2.25213 0
M  V30 24007 H 2243.89 -4.71829 -1.11827 0
M  V30 24008 N 2245.23 0.505704 -1.49266 0
M  V30 24009 C 2246.48 1.26012 -1.58515 0
M  V30 24010 C 2246.81 1.9262 -0.269754 0
M  V30 24011 O 2246.06 1.81089 0.741965 0
M  V30 24012 C 2246.36 2.35303 -2.69012 0
M  V30 24013 C 2246.03 1.86185 -4.10665 0
M  V30 24014 C 2244.69 1.72508 -4.49215 0
M  V30 24015 C 2247.04 1.49366 -4.99339 0
M  V30 24016 C 2244.37 1.20384 -5.74216 0
M  V30 24017 C 2246.72 0.986962 -6.24853 0
M  V30 24018 C 2245.39 0.836553 -6.62237 0
M  V30 24019 H 2244.66 0.461112 -0.580049 0
M  V30 24020 H 2247.3 0.561633 -1.83079 0
M  V30 24021 H 2245.61 3.10921 -2.38401 0
M  V30 24022 H 2247.31 2.93369 -2.73378 0
M  V30 24023 H 2243.9 1.97788 -3.80234 0
M  V30 24024 H 2248.08 1.58782 -4.70215 0
M  V30 24025 H 2243.34 1.07447 -6.01885 0
M  V30 24026 H 2247.51 0.692861 -6.92945 0
M  V30 24027 H 2245.14 0.430474 -7.5898 0
M  V30 24028 N 2246.71 1.38262 0.756405 0
M  V30 24029 C 2247.96 1.33633 1.5108 0
M  V30 24030 C 2248.27 -0.0719725 1.95468 0
M  V30 24031 O 2249.48 -0.240786 2.7043 0
M  V30 24032 C 2247.94 2.34648 2.72888 0
M  V30 24033 C 2247.54 3.81085 2.35537 0
M  V30 24034 C 2249.29 2.39058 3.50787 0
M  V30 24035 C 2247.2 4.73794 3.5394 0
M  V30 24036 H 2246.13 0.49672 0.567261 0
M  V30 24037 H 2248.78 1.63802 0.827118 0
M  V30 24038 H 2247.16 1.97519 3.43223 0
M  V30 24039 H 2248.33 4.27138 1.72887 0
M  V30 24040 H 2246.65 3.79767 1.7078 0
M  V30 24041 H 2249.24 3.05521 4.38818 0
M  V30 24042 H 2249.59 1.40868 3.91742 0
M  V30 24043 H 2250.12 2.74973 2.87462 0
M  V30 24044 H 2246.86 5.73169 3.18053 0
M  V30 24045 H 2246.38 4.32436 4.15643 0
M  V30 24046 H 2248.06 4.91671 4.20558 0
M  V30 24047 N 2248.19 -0.984277 1.23084 0
M  V30 24048 C 2249.12 -2.07402 0.951822 0
M  V30 24049 C 2250.1 -1.62238 -0.108451 0
M  V30 24050 O 2251.29 -1.88483 0.0249798 0
M  V30 24051 C 2248.41 -3.35918 0.433201 0
M  V30 24052 C 2247.46 -4.00017 1.47948 0
M  V30 24053 S 2248.29 -4.39763 3.05563 0
M  V30 24054 C 2249.45 -5.71438 2.55361 0
M  V30 24055 H 2249.68 -2.30751 1.8746 0
M  V30 24056 H 2247.21 -1.11994 1.06286 0
M  V30 24057 H 2249.17 -4.10259 0.140578 0
M  V30 24058 H 2247.83 -3.10585 -0.468602 0
M  V30 24059 H 2247.03 -4.92583 1.06666 0
M  V30 24060 H 2246.63 -3.32037 1.72125 0
M  V30 24061 H 2248.92 -6.48184 1.9714 0
M  V30 24062 H 2249.86 -6.17557 3.46452 0
M  V30 24063 H 2250.27 -5.29252 1.96348 0
M  V30 24064 N 2249.67 -1.04192 -1.18244 0
M  V30 24065 C 2250.91 -0.747155 -1.88535 0
M  V30 24066 C 2251.25 0.723377 -1.80225 0
M  V30 24067 O 2250.52 1.52802 -1.2034 0
M  V30 24068 C 2250.81 -1.2155 -3.38965 0
M  V30 24069 C 2250.66 -2.74823 -3.56079 0
M  V30 24070 C 2251.98 -0.806558 -4.32646 0
M  V30 24071 H 2249.1 -0.272895 -0.684615 0
M  V30 24072 H 2251.74 -1.29415 -1.3911 0
M  V30 24073 H 2249.89 -0.750148 -3.81189 0
M  V30 24074 H 2251.56 -3.29405 -3.2294 0
M  V30 24075 H 2249.8 -3.14587 -2.98693 0
M  V30 24076 H 2250.47 -3.02652 -4.61634 0
M  V30 24077 H 2252.95 -1.20702 -3.98209 0
M  V30 24078 H 2251.83 -1.16199 -5.3646 0
M  V30 24079 H 2252.09 0.290213 -4.41146 0
M  V30 24080 N 2251.15 1.34492 -0.821557 0
M  V30 24081 C 2252.08 2.27426 -0.187744 0
M  V30 24082 C 2253.06 1.48822 0.655044 0
M  V30 24083 O 2254.24 1.78044 0.61908 0
M  V30 24084 C 2251.37 3.30563 0.737937 0
M  V30 24085 C 2250.41 4.26491 -0.0271463 0
M  V30 24086 S 2251.25 5.17589 -1.37338 0
M  V30 24087 C 2252.4 6.24262 -0.452537 0
M  V30 24088 H 2252.64 2.80835 -0.975647 0
M  V30 24089 H 2250.17 1.41519 -0.617385 0
M  V30 24090 H 2252.13 3.90475 1.26647 0
M  V30 24091 H 2250.79 2.76004 1.49935 0
M  V30 24092 H 2249.98 4.99439 0.676513 0
M  V30 24093 H 2249.58 3.70826 -0.486185 0
M  V30 24094 H 2251.88 6.76562 0.356438 0
M  V30 24095 H 2252.82 6.98672 -1.15165 0
M  V30 24096 H 2253.23 5.64485 -0.0415747 0
M  V30 24097 N 2252.62 0.576397 1.46681 0
M  V30 24098 C 2253.57 -0.181248 2.27278 0
M  V30 24099 C 2254.56 -0.867697 1.35498 0
M  V30 24100 O 2255.75 -0.762835 1.59718 0
M  V30 24101 C 2252.88 -1.19836 3.21705 0
M  V30 24102 C 2251.97 -0.514346 4.20969 0
M  V30 24103 N 2252.36 0.426496 5.03999 0
M  V30 24104 C 2250.65 -0.765886 4.39375 0
M  V30 24105 C 2251.36 0.825667 5.7581 0
M  V30 24106 N 2250.33 0.176211 5.43314 0
M  V30 24107 H 2254.13 0.541836 2.88862 0
M  V30 24108 H 2251.65 0.397725 1.57454 0
M  V30 24109 H 2253.64 -1.75527 3.78148 0
M  V30 24110 H 2252.3 -1.92233 2.6168 0
M  V30 24111 H 2253.32 0.80169 5.11657 0
M  V30 24112 H 2249.99 -1.47691 3.90504 0
M  V30 24113 H 2251.38 1.59987 6.52575 0
M  V30 24114 N 2254.1 -1.54444 0.313841 0
M  V30 24115 C 2255.35 -1.99568 -0.292484 0
M  V30 24116 C 2255.66 -1.20585 -1.54009 0
M  V30 24117 O 2256.87 -1.56039 -2.2218 0
M  V30 24118 C 2255.33 -3.5533 -0.571689 0
M  V30 24119 C 2254.93 -4.43137 0.658307 0
M  V30 24120 C 2256.68 -4.08948 -1.1385 0
M  V30 24121 C 2254.59 -5.90354 0.351543 0
M  V30 24122 H 2253.52 -0.745474 -0.113066 0
M  V30 24123 H 2256.17 -1.78521 0.42455 0
M  V30 24124 H 2254.55 -3.72327 -1.34865 0
M  V30 24125 H 2255.72 -4.37916 1.43411 0
M  V30 24126 H 2254.04 -4.00358 1.14465 0
M  V30 24127 H 2256.63 -5.16519 -1.38247 0
M  V30 24128 H 2256.98 -3.60334 -2.08483 0
M  V30 24129 H 2257.51 -3.95545 -0.422945 0
M  V30 24130 H 2254.25 -6.43143 1.26678 0
M  V30 24131 H 2253.77 -5.98552 -0.386737 0
M  V30 24132 H 2255.45 -6.46986 -0.0421997 0
M  V30 24133 N 2255.58 -0.0418125 -1.57545 0
M  V30 24134 C 2257 0.314677 -1.56467 0
M  V30 24135 C 2257.2 1.72064 -1.04862 0
M  V30 24136 O 2256.25 2.42573 -0.701025 0
M  V30 24137 C 2257.57 0.151687 -3.00317 0
M  V30 24138 C 2259.11 0.223498 -3.12201 0
M  V30 24139 C 2259.59 0.089149 -4.57913 0
M  V30 24140 N 2261.08 0.145727 -4.62971 0
M  V30 24141 C 2261.81 0.0657451 -5.73362 0
M  V30 24142 N 2261.31 -0.06605 -6.92769 0
M  V30 24143 N 2263.1 0.120652 -5.6197 0
M  V30 24144 H 2255.25 -0.961048 -1.89414 0
M  V30 24145 H 2257.52 -0.372252 -0.871856 0
M  V30 24146 H 2257.22 -0.817315 -3.42071 0
M  V30 24147 H 2257.1 0.916628 -3.65893 0
M  V30 24148 H 2259.48 1.18297 -2.70351 0
M  V30 24149 H 2259.57 -0.572037 -2.49322 0
M  V30 24150 H 2259.21 -0.866955 -5.00446 0
M  V30 24151 H 2259.14 0.903711 -5.18788 0
M  V30 24152 H 2261.63 0.24722 -3.7709 0
M  V30 24153 H 2261.94 -0.120041 -7.72707 0
M  V30 24154 H 2260.29 -0.101007 -6.94927 0
M  V30 24155 H 2263.48 0.222105 -4.67573 0
M  V30 24156 H 2263.65 0.0548596 -6.47977 0
M  V30 24157 N 2257.06 1.55891 0.231477 0
M  V30 24158 C 2258.31 1.7809 0.955429 0
M  V30 24159 C 2258.63 0.608565 1.85261 0
M  V30 24160 O 2257.9 -0.375001 1.92277 0
M  V30 24161 H 2256.48 0.656836 0.355775 0
M  V30 24162 H 2259.14 1.93345 0.245717 0
M  V30 24163 H 2258.24 2.69847 1.56809 0
M  V30 24164 N 2258.54 -0.497781 1.49532 0
M  V30 24165 C 2259.47 -1.60754 1.69353 0
M  V30 24166 C 2260.45 -1.61226 0.542246 0
M  V30 24167 O 2261.63 -1.77915 0.778448 0
M  V30 24168 C 2258.76 -2.99223 1.76303 0
M  V30 24169 C 2257.72 -3.13617 2.91253 0
M  V30 24170 C 2257.04 -4.53469 2.8332 0
M  V30 24171 C 2258.34 -2.93339 4.32145 0
M  V30 24172 H 2260.04 -1.4442 2.62265 0
M  V30 24173 H 2257.58 -0.693345 1.26209 0
M  V30 24174 H 2259.54 -3.76762 1.88756 0
M  V30 24175 H 2258.26 -3.16652 0.799927 0
M  V30 24176 H 2256.92 -2.38504 2.78409 0
M  V30 24177 H 2256.57 -4.67779 1.8491 0
M  V30 24178 H 2256.27 -4.6404 3.60473 0
M  V30 24179 H 2257.79 -5.33064 2.97784 0
M  V30 24180 H 2259.2 -3.60645 4.45655 0
M  V30 24181 H 2257.6 -3.15378 5.10545 0
M  V30 24182 H 2258.67 -1.89433 4.46367 0
M  V30 24183 N 2260.01 -1.38661 -0.749062 0
M  V30 24184 C 2260.95 -1.32145 -1.87271 0
M  V30 24185 C 2261.96 -0.232816 -1.61127 0
M  V30 24186 O 2263.15 -0.49072 -1.71622 0
M  V30 24187 C 2260.25 -1.02577 -3.23003 0
M  V30 24188 C 2259.42 -2.2244 -3.76616 0
M  V30 24189 C 2258.48 -1.89546 -4.90876 0
M  V30 24190 O 2257.51 -2.62087 -5.05271 0
M  V30 24191 N 2258.71 -0.853132 -5.74197 0
M  V30 24192 H 2261.47 -2.28973 -1.93369 0
M  V30 24193 H 2259.03 -1.32581 -0.929193 0
M  V30 24194 H 2261.03 -0.786155 -3.96991 0
M  V30 24195 H 2259.6 -0.145304 -3.12262 0
M  V30 24196 H 2258.82 -2.62439 -2.94142 0
M  V30 24197 H 2260.1 -3.02422 -4.09168 0
M  V30 24198 H 2259.5 -0.251649 -5.6514 0
M  V30 24199 H 2258.06 -0.673404 -6.48312 0
M  V30 24200 N 2261.49 0.977736 -1.23605 0
M  V30 24201 C 2262.42 2.08858 -1.04405 0
M  V30 24202 C 2263.4 1.70053 0.0398754 0
M  V30 24203 O 2264.59 1.93795 -0.12528 0
M  V30 24204 C 2261.72 3.41402 -0.637329 0
M  V30 24205 C 2260.67 3.94121 -1.6689 0
M  V30 24206 C 2260 5.22891 -1.11754 0
M  V30 24207 C 2261.3 4.2309 -3.06255 0
M  V30 24208 H 2262.99 2.25178 -1.9732 0
M  V30 24209 H 2260.54 1.08207 -0.950115 0
M  V30 24210 H 2262.49 4.18541 -0.490054 0
M  V30 24211 H 2261.22 3.24954 0.3275 0
M  V30 24212 H 2259.88 3.1913 -1.80421 0
M  V30 24213 H 2259.52 5.02795 -0.143615 0
M  V30 24214 H 2259.22 5.59131 -1.80682 0
M  V30 24215 H 2260.75 6.02649 -0.982173 0
M  V30 24216 H 2262.16 4.9097 -2.9601 0
M  V30 24217 H 2260.56 4.70537 -3.72445 0
M  V30 24218 H 2261.63 3.30257 -3.55047 0
M  V30 24219 N 2262.97 1.04818 1.1769 0
M  V30 24220 C 2263.9 0.66683 2.23776 0
M  V30 24221 C 2264.88 -0.333581 1.66797 0
M  V30 24222 O 2266.07 -0.212008 1.93039 0
M  V30 24223 C 2263.2 0.0368544 3.4728 0
M  V30 24224 C 2262.15 0.961619 4.17057 0
M  V30 24225 C 2261.48 0.19572 5.34342 0
M  V30 24226 C 2262.78 2.2841 4.69709 0
M  V30 24227 H 2264.47 1.55371 2.5593 0
M  V30 24228 H 2262.02 0.748506 1.23018 0
M  V30 24229 H 2263.97 -0.241701 4.20706 0
M  V30 24230 H 2262.69 -0.884949 3.14382 0
M  V30 24231 H 2261.35 1.22468 3.45539 0
M  V30 24232 H 2261 -0.728729 4.97693 0
M  V30 24233 H 2260.7 0.811878 5.81964 0
M  V30 24234 H 2262.23 -0.0756399 6.10553 0
M  V30 24235 H 2263.64 2.06572 5.34791 0
M  V30 24236 H 2262.04 2.8539 5.27895 0
M  V30 24237 H 2263.11 2.92532 3.86721 0
M  V30 24238 N 2264.45 -1.34055 0.828678 0
M  V30 24239 C 2265.38 -2.28217 0.212092 0
M  V30 24240 C 2266.39 -1.51287 -0.601336 0
M  V30 24241 O 2267.58 -1.73241 -0.430074 0
M  V30 24242 C 2264.68 -3.31146 -0.720822 0
M  V30 24243 C 2263.86 -4.3737 0.0510356 0
M  V30 24244 C 2262.92 -5.20026 -0.803674 0
M  V30 24245 O 2261.94 -5.68666 -0.246567 0
M  V30 24246 N 2263.14 -5.40302 -2.1226 0
M  V30 24247 H 2265.91 -2.81769 1.0211 0
M  V30 24248 H 2263.47 -1.4664 0.686179 0
M  V30 24249 H 2265.46 -3.83342 -1.29735 0
M  V30 24250 H 2264.03 -2.77945 -1.43056 0
M  V30 24251 H 2263.25 -3.85811 0.808899 0
M  V30 24252 H 2264.54 -5.05459 0.582154 0
M  V30 24253 H 2263.94 -5.02468 -2.59889 0
M  V30 24254 H 2262.49 -5.95594 -2.64785 0
M  V30 24255 N 2265.93 -0.584167 -1.46374 0
M  V30 24256 C 2267.2 -0.00337318 -1.956 0
M  V30 24257 C 2267.58 1.45779 -1.52682 0
M  V30 24258 O 2266.93 2.1484 -0.778198 0
M  V30 24259 C 2267.14 -0.176953 -3.48551 0
M  V30 24260 C 2268.49 -0.0455355 -4.24576 0
M  V30 24261 O 2269.51 -0.105863 -3.56043 0
M  V30 24262 O 2268.37 0.0889415 -5.46428 0
M  V30 24263 H 2265.47 0.0489921 -0.825548 0
M  V30 24264 H 2268.01 -0.652588 -1.5665 0
M  V30 24265 H 2266.79 -1.19267 -3.72681 0
M  V30 24266 H 2266.41 0.508626 -3.94333 0
M  V30 24267 N 2267.41 1.54275 -0.322027 0
M  V30 24268 C 2268.65 2.00145 0.280454 0
M  V30 24269 C 2268.97 1.2118 1.52775 0
M  V30 24270 O 2268.24 0.313221 1.9338 0
M  V30 24271 H 2266.82 0.739352 0.106619 0
M  V30 24272 H 2269.49 1.8991 -0.438217 0
M  V30 24273 H 2268.58 3.07429 0.537917 0
M  V30 24274 N 2268.88 0.0501669 1.5752 0
M  V30 24275 C 2269.83 -0.942421 2.12653 0
M  V30 24276 C 2270.83 -1.32291 1.05809 0
M  V30 24277 O 2272.03 -1.30268 1.24219 0
M  V30 24278 H 2268.41 -0.321777 0.679679 0
M  V30 24279 H 2270.38 -0.452304 2.94952 0
M  V30 24280 C 2269.13 -2.20831 2.68568 0
M  V30 24281 H 2268.45 -1.92433 3.50442 0
M  V30 24282 H 2269.89 -2.88444 3.10767 0
M  V30 24283 C 2268.35 -2.95231 1.62297 0
M  V30 24284 O 2268.88 -3.88133 1.03515 0
M  V30 24285 N 2267.08 -2.57944 1.33841 0
M  V30 24286 H 2266.63 -1.82472 1.81829 0
M  V30 24287 H 2266.59 -3.0803 0.629649 0
M  V30 24288 N 2270.36 -1.56011 -0.223207 0
M  V30 24289 C 2271.64 -1.69735 -0.972078 0
M  V30 24290 C 2272.02 -0.596946 -2.02484 0
M  V30 24291 O 2271.37 0.396285 -2.25037 0
M  V30 24292 C 2271.58 -3.10982 -1.58402 0
M  V30 24293 C 2272.92 -3.70338 -2.0769 0
M  V30 24294 O 2273.95 -3.13933 -1.68299 0
M  V30 24295 O 2272.81 -4.69269 -2.80087 0
M  V30 24296 H 2269.9 -0.691253 -0.453981 0
M  V30 24297 H 2272.45 -1.68331 -0.215119 0
M  V30 24298 H 2271.22 -3.82531 -0.823763 0
M  V30 24299 H 2270.84 -3.16497 -2.40656 0
M  V30 24300 N 2271.84 0.489844 -1.49794 0
M  V30 24301 C 2273.25 1.07115 -1.52916 0
M  V30 24302 C 2273.6 1.93543 -0.321772 0
M  V30 24303 O 2272.73 2.08832 0.567302 0
M  V30 24304 C 2273.32 1.94934 -2.77103 0
M  V30 24305 C 2271.88 2.48207 -2.82967 0
M  V30 24306 C 2271.03 1.26092 -2.46974 0
M  V30 24307 H 2273.98 0.273262 -1.5633 0
M  V30 24308 H 2274 2.79766 -2.57897 0
M  V30 24309 H 2273.51 1.32003 -3.64962 0
M  V30 24310 H 2271.61 3.14744 -1.99416 0
M  V30 24311 H 2271.73 2.84596 -3.85411 0
M  V30 24312 H 2270.09 1.58972 -1.98997 0
M  V30 24313 H 2270.87 0.648522 -3.37119 0
M  V30 24314 N 2273.32 1.39056 0.741698 0
M  V30 24315 C 2274.59 1.26428 1.49249 0
M  V30 24316 C 2274.97 -0.129107 2.10705 0
M  V30 24317 O 2274.32 -1.13973 1.98047 0
M  V30 24318 C 2274.53 2.38352 2.5493 0
M  V30 24319 C 2275.88 2.77349 3.21501 0
M  V30 24320 O 2276.9 2.37752 2.6524 0
M  V30 24321 O 2275.76 3.45672 4.23288 0
M  V30 24322 H 2272.86 0.495075 0.662442 0
M  V30 24323 H 2275.4 1.50913 0.776094 0
M  V30 24324 H 2274.18 3.31532 2.07851 0
M  V30 24325 H 2273.8 2.15495 3.34137 0
M  V30 24326 N 2274.8 -0.971167 1.24121 0
M  V30 24327 C 2276.21 -1.52829 1.07239 0
M  V30 24328 C 2276.56 -1.92919 -0.357318 0
M  V30 24329 O 2275.68 -1.76982 -1.24525 0
M  V30 24330 C 2276.28 -2.77724 1.94048 0
M  V30 24331 C 2274.84 -3.29805 1.81399 0
M  V30 24332 C 2273.98 -2.02735 1.89193 0
M  V30 24333 H 2276.93 -0.78984 1.37649 0
M  V30 24334 H 2276.96 -3.50927 1.47072 0
M  V30 24335 H 2276.47 -2.48515 2.98097 0
M  V30 24336 H 2274.57 -3.63873 0.801698 0
M  V30 24337 H 2274.68 -3.98939 2.65301 0
M  V30 24338 H 2273.05 -2.1729 1.32881 0
M  V30 24339 H 2273.83 -1.75895 2.94815 0
M  V30 24340 N 2276.27 -1.05441 -1.17133 0
M  V30 24341 C 2277.5 -0.785307 -1.91093 0
M  V30 24342 C 2277.91 0.66311 -1.77199 0
M  V30 24343 O 2277.26 1.46495 -1.10838 0
M  V30 24344 C 2277.32 -1.08955 -3.42592 0
M  V30 24345 C 2276.98 -2.53465 -3.80269 0
M  V30 24346 C 2277.98 -3.5168 -3.82906 0
M  V30 24347 C 2275.66 -2.88539 -4.11157 0
M  V30 24348 C 2277.66 -4.83014 -4.15905 0
M  V30 24349 C 2275.34 -4.20076 -4.43824 0
M  V30 24350 C 2276.34 -5.17123 -4.46176 0
M  V30 24351 O 2276.03 -6.46299 -4.78072 0
M  V30 24352 H 2275.76 -0.284821 -0.613068 0
M  V30 24353 H 2278.32 -1.40895 -1.49458 0
M  V30 24354 H 2276.55 -0.408809 -3.84533 0
M  V30 24355 H 2278.24 -0.806061 -3.97816 0
M  V30 24356 H 2279 -3.25923 -3.59164 0
M  V30 24357 H 2274.88 -2.13663 -4.08496 0
M  V30 24358 H 2278.42 -5.58757 -4.17655 0
M  V30 24359 H 2274.32 -4.45594 -4.67029 0
M  V30 24360 H 2275.09 -6.51158 -4.95919 0
M  V30 24361 N 2277.75 1.33613 -0.835776 0
M  V30 24362 C 2279 1.98175 -0.430631 0
M  V30 24363 C 2279.33 1.66063 1.00682 0
M  V30 24364 O 2278.61 0.938907 1.70337 0
M  V30 24365 C 2278.89 3.54219 -0.648127 0
M  V30 24366 C 2278.74 3.96029 -2.13262 0
M  V30 24367 C 2280.06 4.40003 -0.0922887 0
M  V30 24368 H 2277.18 0.719879 -0.157936 0
M  V30 24369 H 2279.82 1.58303 -1.05072 0
M  V30 24370 H 2277.97 3.88314 -0.120305 0
M  V30 24371 H 2279.64 3.72207 -2.72507 0
M  V30 24372 H 2277.89 3.45873 -2.61829 0
M  V30 24373 H 2278.56 5.04704 -2.23556 0
M  V30 24374 H 2281.03 4.12536 -0.543416 0
M  V30 24375 H 2279.91 5.48215 -0.274179 0
M  V30 24376 H 2280.17 4.30556 1.00371 0
M  V30 24377 N 2279.23 0.591922 1.46062 0
M  V30 24378 C 2280.18 -0.136029 2.30399 0
M  V30 24379 C 2281.15 -0.875214 1.41171 0
M  V30 24380 O 2282.33 -0.86406 1.70114 0
M  V30 24381 C 2279.47 -1.13775 3.25806 0
M  V30 24382 C 2278.59 -0.401062 4.30134 0
M  V30 24383 C 2277.72 -1.39112 5.12661 0
M  V30 24384 C 2276.76 -0.641355 6.08731 0
M  V30 24385 N 2275.9 -1.57992 6.84093 0
M  V30 24386 H 2280.74 0.589195 2.92117 0
M  V30 24387 H 2278.27 0.302367 1.43959 0
M  V30 24388 H 2280.23 -1.73149 3.79572 0
M  V30 24389 H 2278.86 -1.83058 2.65875 0
M  V30 24390 H 2277.91 0.307893 3.79152 0
M  V30 24391 H 2279.23 0.184652 4.98458 0
M  V30 24392 H 2278.38 -2.05739 5.70751 0
M  V30 24393 H 2277.12 -2.01076 4.44319 0
M  V30 24394 H 2276.12 0.0386385 5.49786 0
M  V30 24395 H 2277.35 -0.0269751 6.79095 0
M  V30 24396 H 2275.29 -2.1875 6.18453 0
M  V30 24397 H 2275.21 -1.04725 7.48711 0
M  V30 24398 H 2276.48 -2.23626 7.46734 0
M  V30 24399 N 2280.71 -1.54102 0.330204 0
M  V30 24400 C 2281.96 -1.99867 -0.271301 0
M  V30 24401 C 2282.27 -1.22212 -1.52721 0
M  V30 24402 O 2283.48 -1.58387 -2.20513 0
M  V30 24403 C 2281.93 -3.55917 -0.53397 0
M  V30 24404 C 2281.54 -4.42414 0.705271 0
M  V30 24405 C 2283.28 -4.10132 -1.09506 0
M  V30 24406 C 2281.19 -5.89948 0.414138 0
M  V30 24407 H 2280.12 -0.746632 -0.105153 0
M  V30 24408 H 2282.77 -1.78061 0.44346 0
M  V30 24409 H 2281.15 -3.73736 -1.30909 0
M  V30 24410 H 2282.33 -4.3637 1.48047 0
M  V30 24411 H 2280.64 -3.99122 1.18705 0
M  V30 24412 H 2283.24 -5.17956 -1.32761 0
M  V30 24413 H 2283.58 -3.62525 -2.04649 0
M  V30 24414 H 2284.12 -3.95972 -0.380969 0
M  V30 24415 H 2280.86 -6.41763 1.33492 0
M  V30 24416 H 2280.38 -5.98928 -0.323231 0
M  V30 24417 H 2282.05 -6.46995 0.0264242 0
M  V30 24418 N 2282.19 -0.0585199 -1.57491 0
M  V30 24419 C 2283.42 0.622099 -1.97011 0
M  V30 24420 C 2283.82 1.64479 -0.935063 0
M  V30 24421 O 2283.17 1.83488 0.0882581 0
M  V30 24422 C 2283.23 1.35966 -3.32797 0
M  V30 24423 C 2282.89 0.491963 -4.54344 0
M  V30 24424 C 2283.89 -0.244992 -5.19322 0
M  V30 24425 C 2281.58 0.420733 -5.00535 0
M  V30 24426 C 2283.57 -1.04154 -6.28833 0
M  V30 24427 C 2281.26 -0.379496 -6.09921 0
M  V30 24428 C 2282.25 -1.10931 -6.73931 0
M  V30 24429 O 2281.94 -1.89637 -7.81213 0
M  V30 24430 H 2281.67 0.174348 -0.65313 0
M  V30 24431 H 2284.23 -0.123454 -2.05029 0
M  V30 24432 H 2282.46 2.151 -3.21355 0
M  V30 24433 H 2284.15 1.93122 -3.57013 0
M  V30 24434 H 2284.91 -0.199475 -4.8459 0
M  V30 24435 H 2280.79 0.978395 -4.50498 0
M  V30 24436 H 2284.34 -1.61169 -6.78727 0
M  V30 24437 H 2280.23 -0.426625 -6.44089 0
M  V30 24438 H 2281 -1.81927 -7.98026 0
M  V30 24439 N 2283.66 1.56128 0.21493 0
M  V30 24440 C 2284.59 1.95976 1.26947 0
M  V30 24441 C 2285.58 0.828894 1.48537 0
M  V30 24442 O 2286.76 1.09171 1.60609 0
M  V30 24443 C 2283.89 2.28218 2.6179 0
M  V30 24444 C 2282.84 3.43858 2.54845 0
M  V30 24445 C 2282.17 3.61722 3.93778 0
M  V30 24446 C 2283.47 4.78636 2.09057 0
M  V30 24447 H 2285.16 2.84314 0.93841 0
M  V30 24448 H 2282.71 1.36789 0.449972 0
M  V30 24449 H 2284.66 2.54688 3.35726 0
M  V30 24450 H 2283.39 1.36741 2.96596 0
M  V30 24451 H 2282.05 3.17447 1.83365 0
M  V30 24452 H 2281.69 2.6761 4.25904 0
M  V30 24453 H 2281.39 4.39505 3.90012 0
M  V30 24454 H 2282.92 3.90547 4.69367 0
M  V30 24455 H 2284.33 5.04267 2.72741 0
M  V30 24456 H 2282.73 5.59749 2.16336 0
M  V30 24457 H 2283.8 4.73549 1.04306 0
M  V30 24458 N 2285.14 -0.481893 1.50052 0
M  V30 24459 C 2286.07 -1.58948 1.71049 0
M  V30 24460 C 2287.05 -1.60641 0.559316 0
M  V30 24461 O 2288.24 -1.7708 0.797274 0
M  V30 24462 C 2285.37 -2.97336 1.79467 0
M  V30 24463 C 2284.32 -3.1051 2.94563 0
M  V30 24464 C 2283.65 -4.50439 2.88113 0
M  V30 24465 C 2284.95 -2.88739 4.35232 0
M  V30 24466 H 2286.64 -1.41631 2.63782 0
M  V30 24467 H 2284.19 -0.67992 1.26937 0
M  V30 24468 H 2286.14 -3.74738 1.92741 0
M  V30 24469 H 2284.87 -3.15786 0.833467 0
M  V30 24470 H 2283.52 -2.35538 2.80923 0
M  V30 24471 H 2283.17 -4.65791 1.89861 0
M  V30 24472 H 2282.87 -4.6019 3.65375 0
M  V30 24473 H 2284.4 -5.29875 3.03421 0
M  V30 24474 H 2285.81 -3.55898 4.49455 0
M  V30 24475 H 2284.21 -3.09946 5.13862 0
M  V30 24476 H 2285.28 -1.84688 4.48351 0
M  V30 24477 N 2286.62 -1.39448 -0.734313 0
M  V30 24478 C 2288.03 -1.32768 -1.31261 0
M  V30 24479 C 2288.38 0.00764048 -1.96199 0
M  V30 24480 O 2287.51 0.909762 -1.96347 0
M  V30 24481 C 2288.1 -2.40454 -2.38678 0
M  V30 24482 C 2286.66 -2.37293 -2.92179 0
M  V30 24483 C 2285.81 -2.22307 -1.65756 0
M  V30 24484 H 2288.76 -1.49525 -0.531773 0
M  V30 24485 H 2288.78 -2.07282 -3.19084 0
M  V30 24486 H 2288.29 -3.37629 -1.91386 0
M  V30 24487 H 2286.39 -1.4376 -3.4375 0
M  V30 24488 H 2286.51 -3.32176 -3.45247 0
M  V30 24489 H 2284.87 -1.69492 -1.90117 0
M  V30 24490 H 2285.65 -3.21451 -1.20515 0
M  V30 24491 N 2288.1 0.964571 -1.24635 0
M  V30 24492 C 2289.38 1.68352 -0.995839 0
M  V30 24493 C 2289.76 2.05549 0.480927 0
M  V30 24494 O 2289.1 1.76108 1.45596 0
M  V30 24495 C 2289.31 2.91319 -1.92182 0
M  V30 24496 C 2290.66 3.63491 -2.19453 0
M  V30 24497 O 2291.69 3.01382 -1.89861 0
M  V30 24498 O 2290.54 4.75302 -2.69723 0
M  V30 24499 H 2287.64 0.736139 -0.376867 0
M  V30 24500 H 2290.18 1.01838 -1.35746 0
M  V30 24501 H 2288.96 2.60548 -2.91943 0
M  V30 24502 H 2288.58 3.65566 -1.56356 0
M  V30 24503 N 2289.58 1.0606 1.16572 0
M  V30 24504 C 2290.99 0.800661 1.6866 0
M  V30 24505 C 2291.34 -0.676048 1.84185 0
M  V30 24506 O 2290.46 -1.52464 1.5357 0
M  V30 24507 C 2291.06 1.44682 3.06354 0
M  V30 24508 C 2289.62 1.23471 3.55573 0
M  V30 24509 C 2288.76 1.52481 2.31613 0
M  V30 24510 H 2291.72 1.22439 1.00967 0
M  V30 24511 H 2291.74 0.860853 3.70634 0
M  V30 24512 H 2291.25 2.52157 2.95023 0
M  V30 24513 H 2289.35 0.179592 3.72167 0
M  V30 24514 H 2289.46 1.94578 4.37808 0
M  V30 24515 H 2287.83 0.945251 2.3651 0
M  V30 24516 H 2288.61 2.6111 2.22882 0
M  V30 24517 N 2291.06 -1.33168 0.84285 0
M  V30 24518 C 2291.99 -2.27979 0.236285 0
M  V30 24519 C 2293 -1.51916 -0.585256 0
M  V30 24520 O 2294.19 -1.73688 -0.411675 0
M  V30 24521 C 2291.29 -3.31891 -0.685659 0
M  V30 24522 C 2290.46 -4.37291 0.0974217 0
M  V30 24523 C 2289.52 -5.2085 -0.748473 0
M  V30 24524 O 2288.55 -5.68895 -0.186239 0
M  V30 24525 N 2289.75 -5.42523 -2.06518 0
M  V30 24526 H 2292.51 -2.8067 1.05093 0
M  V30 24527 H 2290.08 -1.45904 0.701693 0
M  V30 24528 H 2292.07 -3.84696 -1.25662 0
M  V30 24529 H 2290.64 -2.79447 -1.401 0
M  V30 24530 H 2289.86 -3.84932 0.849774 0
M  V30 24531 H 2291.15 -5.04813 0.635732 0
M  V30 24532 H 2290.54 -5.05196 -2.54545 0
M  V30 24533 H 2289.1 -5.98369 -2.58453 0
M  V30 24534 N 2292.53 -0.599659 -1.45746 0
M  V30 24535 C 2293.48 0.123808 -2.30468 0
M  V30 24536 C 2294.45 0.867715 -1.41633 0
M  V30 24537 O 2295.64 0.855026 -1.70569 0
M  V30 24538 C 2292.78 1.12046 -3.26404 0
M  V30 24539 C 2291.89 0.378245 -4.30341 0
M  V30 24540 C 2291.02 1.36391 -5.13392 0
M  V30 24541 C 2290.06 0.609064 -6.09062 0
M  V30 24542 N 2289.2 1.54362 -6.84921 0
M  V30 24543 H 2294.04 -0.604678 -2.91801 0
M  V30 24544 H 2291.58 -0.309997 -1.43796 0
M  V30 24545 H 2293.53 1.71134 -3.80485 0
M  V30 24546 H 2292.16 1.81645 -2.66842 0
M  V30 24547 H 2291.22 -0.327996 -3.78983 0
M  V30 24548 H 2292.53 -0.211084 -4.98353 0
M  V30 24549 H 2291.68 2.02709 -5.71834 0
M  V30 24550 H 2290.42 1.98717 -4.45379 0
M  V30 24551 H 2289.43 -0.0677945 -5.49758 0
M  V30 24552 H 2290.65 -0.00903928 -6.79099 0
M  V30 24553 H 2288.6 2.15467 -6.19605 0
M  V30 24554 H 2288.51 1.00753 -7.49256 0
M  V30 24555 H 2289.78 2.19663 -7.47909 0
M  V30 24556 N 2294.01 1.53925 -0.338371 0
M  V30 24557 C 2295.24 2.05244 0.261262 0
M  V30 24558 C 2295.65 1.21366 1.44623 0
M  V30 24559 O 2295.01 0.247768 1.8081 0
M  V30 24560 C 2295.06 3.55021 0.68135 0
M  V30 24561 O 2294.78 4.35715 -0.456491 0
M  V30 24562 C 2296.28 4.22491 1.34224 0
M  V30 24563 H 2293.5 0.669032 0.0513568 0
M  V30 24564 H 2296.05 1.98571 -0.488857 0
M  V30 24565 H 2294.2 3.61933 1.38142 0
M  V30 24566 H 2294.62 5.24357 -0.122656 0
M  V30 24567 H 2296.09 5.28695 1.58698 0
M  V30 24568 H 2296.57 3.74518 2.29419 0
M  V30 24569 H 2297.17 4.19758 0.68435 0
M  V30 24570 N 2295.49 0.0668712 1.57458 0
M  V30 24571 C 2296.72 -0.612531 1.97625 0
M  V30 24572 C 2297.13 -1.63445 0.945048 0
M  V30 24573 O 2296.49 -1.8237 -0.0688955 0
M  V30 24574 C 2296.54 -1.2855 3.37872 0
M  V30 24575 O 2296.26 -0.30448 4.37041 0
M  V30 24576 C 2297.76 -2.05318 3.92886 0
M  V30 24577 H 2294.98 -0.16637 0.650048 0
M  V30 24578 H 2297.53 0.137818 2.04035 0
M  V30 24579 H 2295.68 -1.98696 3.32564 0
M  V30 24580 H 2296.1 -0.786688 5.18567 0
M  V30 24581 H 2297.57 -2.47804 4.93252 0
M  V30 24582 H 2298.05 -2.90774 3.29161 0
M  V30 24583 H 2298.65 -1.40049 4.0158 0
M  V30 24584 N 2296.97 -1.56239 -0.206647 0
M  V30 24585 C 2297.91 -1.93623 -1.25614 0
M  V30 24586 C 2298.88 -0.7953 -1.45822 0
M  V30 24587 O 2300.07 -1.05248 -1.59146 0
M  V30 24588 C 2297.21 -2.27111 -2.59835 0
M  V30 24589 C 2296.32 -3.54212 -2.47302 0
M  V30 24590 C 2295.46 -3.77076 -3.74148 0
M  V30 24591 C 2294.5 -4.97641 -3.56398 0
M  V30 24592 N 2293.63 -5.16819 -4.75229 0
M  V30 24593 H 2298.47 -2.83106 -0.930333 0
M  V30 24594 H 2296.01 -1.40111 -0.448041 0
M  V30 24595 H 2297.97 -2.44541 -3.38017 0
M  V30 24596 H 2296.6 -1.40784 -2.90482 0
M  V30 24597 H 2295.65 -3.44893 -1.60477 0
M  V30 24598 H 2296.96 -4.42548 -2.30114 0
M  V30 24599 H 2296.12 -3.94683 -4.60771 0
M  V30 24600 H 2294.86 -2.87049 -3.94277 0
M  V30 24601 H 2293.86 -4.79969 -2.6816 0
M  V30 24602 H 2295.09 -5.89167 -3.37726 0
M  V30 24603 H 2293.03 -4.29736 -4.95644 0
M  V30 24604 H 2292.95 -5.99314 -4.60824 0
M  V30 24605 H 2294.22 -5.38874 -5.63236 0
M  V30 24606 N 2298.45 0.473929 -1.50305 0
M  V30 24607 C 2299.86 0.807442 -1.37668 0
M  V30 24608 C 2300.06 1.96846 -0.430589 0
M  V30 24609 O 2299.12 2.52176 0.12783 0
M  V30 24610 C 2300.43 1.12218 -2.78976 0
M  V30 24611 C 2301.98 1.2288 -2.87871 0
M  V30 24612 C 2302.45 1.57668 -4.30006 0
M  V30 24613 N 2303.94 1.64665 -4.32943 0
M  V30 24614 C 2304.68 1.93082 -5.39914 0
M  V30 24615 N 2304.18 2.19538 -6.57096 0
M  V30 24616 N 2305.97 1.9456 -5.27355 0
M  V30 24617 H 2298.12 -0.291249 -2.10394 0
M  V30 24618 H 2300.38 -0.0677776 -0.945574 0
M  V30 24619 H 2300.09 0.342167 -3.50032 0
M  V30 24620 H 2299.96 2.05907 -3.16041 0
M  V30 24621 H 2302.35 1.99949 -2.17036 0
M  V30 24622 H 2302.43 0.271769 -2.54352 0
M  V30 24623 H 2302.07 0.811401 -5.01377 0
M  V30 24624 H 2302 2.54517 -4.61009 0
M  V30 24625 H 2304.5 1.46271 -3.48444 0
M  V30 24626 H 2304.81 2.40487 -7.34429 0
M  V30 24627 H 2303.15 2.16937 -6.60275 0
M  V30 24628 H 2306.34 1.73386 -4.34804 0
M  V30 24629 H 2306.52 2.16371 -6.10809 0
M  V30 24630 N 2299.92 1.39835 0.726907 0
M  V30 24631 C 2300.87 1.392 1.84097 0
M  V30 24632 C 2301.84 0.250531 1.642 0
M  V30 24633 O 2303.03 0.446879 1.85493 0
M  V30 24634 C 2300.17 1.24925 3.21695 0
M  V30 24635 C 2299.28 2.48684 3.53242 0
M  V30 24636 C 2298.41 2.26936 4.80285 0
M  V30 24637 C 2297.45 3.46329 5.047 0
M  V30 24638 N 2296.59 3.23847 6.22951 0
M  V30 24639 H 2301.43 2.3443 1.83974 0
M  V30 24640 H 2298.97 1.16443 0.898856 0
M  V30 24641 H 2300.92 1.14658 4.01135 0
M  V30 24642 H 2299.55 0.33321 3.21076 0
M  V30 24643 H 2298.61 2.69524 2.68442 0
M  V30 24644 H 2299.92 3.37589 3.67199 0
M  V30 24645 H 2299.07 2.13957 5.67721 0
M  V30 24646 H 2297.81 1.35439 4.68516 0
M  V30 24647 H 2296.82 3.59798 4.15723 0
M  V30 24648 H 2298.04 4.38738 5.18349 0
M  V30 24649 H 2295.99 2.35022 6.12455 0
M  V30 24650 H 2295.9 4.06311 6.37532 0
M  V30 24651 H 2297.17 3.14578 7.13205 0
M  V30 24652 N 2301.4 -0.957948 1.25144 0
M  V30 24653 C 2302.63 -1.73689 1.12427 0
M  V30 24654 C 2303.04 -1.86029 -0.322272 0
M  V30 24655 O 2302.4 -1.35563 -1.22184 0
M  V30 24656 C 2302.45 -3.15238 1.76938 0
M  V30 24657 O 2302.17 -3.03505 3.15937 0
M  V30 24658 C 2303.67 -4.09426 1.69957 0
M  V30 24659 H 2300.89 -0.544366 0.392309 0
M  V30 24660 H 2303.44 -1.20204 1.65442 0
M  V30 24661 H 2301.59 -3.65678 1.27901 0
M  V30 24662 H 2302.01 -3.92774 3.47605 0
M  V30 24663 H 2303.48 -5.06368 2.19762 0
M  V30 24664 H 2303.96 -4.34172 0.662695 0
M  V30 24665 H 2304.56 -3.649 2.18467 0
M  V30 24666 N 2302.88 -1.06677 -1.16008 0
M  V30 24667 C 2303.83 -0.681006 -2.20524 0
M  V30 24668 C 2304.8 0.324255 -1.62904 0
M  V30 24669 O 2305.98 0.21226 -1.89616 0
M  V30 24670 C 2303.12 -0.0777158 -3.45012 0
M  V30 24671 C 2302.23 -1.13362 -4.16861 0
M  V30 24672 C 2301.37 -0.496063 -5.28879 0
M  V30 24673 C 2300.41 -1.53524 -5.92534 0
M  V30 24674 N 2299.55 -0.920754 -6.96036 0
M  V30 24675 H 2304.39 -1.57667 -2.52874 0
M  V30 24676 H 2301.92 -0.788245 -1.24198 0
M  V30 24677 H 2303.88 0.28963 -4.16193 0
M  V30 24678 H 2302.51 0.781338 -3.13201 0
M  V30 24679 H 2301.56 -1.61863 -3.44245 0
M  V30 24680 H 2302.87 -1.92182 -4.6029 0
M  V30 24681 H 2302.03 -0.0759671 -6.06652 0
M  V30 24682 H 2300.77 0.323976 -4.86623 0
M  V30 24683 H 2299.77 -1.96519 -5.13479 0
M  V30 24684 H 2301 -2.35744 -6.36869 0
M  V30 24685 H 2298.94 -0.121495 -6.55887 0
M  V30 24686 H 2298.86 -1.64629 -7.37857 0
M  V30 24687 H 2300.13 -0.525932 -7.77724 0
M  V30 24688 N 2304.36 1.32719 -0.8499 0
M  V30 24689 C 2305.6 1.97707 -0.451625 0
M  V30 24690 C 2305.94 1.67121 0.989145 0
M  V30 24691 O 2305.21 0.956921 1.69332 0
M  V30 24692 C 2305.49 3.53512 -0.68566 0
M  V30 24693 C 2305.35 3.93745 -2.1745 0
M  V30 24694 C 2306.67 4.39881 -0.138952 0
M  V30 24695 H 2303.79 0.718163 -0.165563 0
M  V30 24696 H 2306.43 1.5718 -1.06745 0
M  V30 24697 H 2304.58 3.88164 -0.161484 0
M  V30 24698 H 2306.25 3.69295 -2.76439 0
M  V30 24699 H 2304.49 3.43076 -2.65483 0
M  V30 24700 H 2305.16 5.02305 -2.28897 0
M  V30 24701 H 2307.64 4.11937 -0.58714 0
M  V30 24702 H 2306.52 5.47893 -0.332309 0
M  V30 24703 H 2306.78 4.31596 0.957984 0
M  V30 24704 N 2305.84 0.60738 1.45426 0
M  V30 24705 C 2306.8 -0.101653 2.28974 0
M  V30 24706 C 2307.8 -0.795304 1.39755 0
M  V30 24707 O 2308.99 -0.643499 1.61879 0
M  V30 24708 C 2306.12 -1.15409 3.2077 0
M  V30 24709 H 2307.31 0.632896 2.93146 0
M  V30 24710 H 2304.87 0.366417 1.51944 0
M  V30 24711 H 2305.6 -1.91941 2.61399 0
M  V30 24712 H 2305.39 -0.660912 3.8649 0
M  V30 24713 H 2306.88 -1.65066 3.83592 0
M  V30 24714 N 2307.31 -1.53743 0.34653 0
M  V30 24715 C 2308.73 -1.59599 -0.00528169 0
M  V30 24716 C 2308.93 -1.36239 -1.48463 0
M  V30 24717 O 2307.99 -1.15812 -2.24374 0
M  V30 24718 C 2309.3 -2.97558 0.433568 0
M  V30 24719 C 2310.85 -3.10609 0.386165 0
M  V30 24720 C 2311.32 -4.5095 0.80053 0
M  V30 24721 N 2312.81 -4.57008 0.754834 0
M  V30 24722 C 2313.55 -5.63753 1.04737 0
M  V30 24723 N 2313.04 -6.78337 1.40821 0
M  V30 24724 N 2314.84 -5.53642 0.971414 0
M  V30 24725 H 2306.99 -1.67182 1.31012 0
M  V30 24726 H 2309.25 -0.783118 0.534256 0
M  V30 24727 H 2308.96 -3.19729 1.46515 0
M  V30 24728 H 2308.83 -3.76723 -0.189687 0
M  V30 24729 H 2311.22 -2.8816 -0.636245 0
M  V30 24730 H 2311.3 -2.33496 1.04466 0
M  V30 24731 H 2310.94 -4.74134 1.82096 0
M  V30 24732 H 2310.87 -5.26464 0.119479 0
M  V30 24733 H 2313.36 -3.74726 0.488728 0
M  V30 24734 H 2313.68 -7.55711 1.6162 0
M  V30 24735 H 2312.02 -6.79776 1.44669 0
M  V30 24736 H 2315.21 -4.63004 0.688829 0
M  V30 24737 H 2315.39 -6.3674 1.20274 0
M  V30 24738 N 2308.79 -0.0752207 -1.5742 0
M  V30 24739 C 2309.74 0.890806 -2.12916 0
M  V30 24740 C 2310.71 1.29307 -1.04254 0
M  V30 24741 O 2311.89 1.37832 -1.31935 0
M  V30 24742 C 2309.03 2.15181 -2.69798 0
M  V30 24743 C 2308.15 1.80188 -3.92628 0
M  V30 24744 C 2307.28 3.00925 -4.37741 0
M  V30 24745 C 2306.32 2.61965 -5.5321 0
M  V30 24746 N 2305.46 3.75472 -5.93266 0
M  V30 24747 H 2310.3 0.410683 -2.95157 0
M  V30 24748 H 2307.84 0.191061 -1.45854 0
M  V30 24749 H 2309.79 2.89003 -3.00888 0
M  V30 24750 H 2308.42 2.60728 -1.90318 0
M  V30 24751 H 2307.48 0.964153 -3.67979 0
M  V30 24752 H 2308.79 1.47526 -4.76485 0
M  V30 24753 H 2307.94 3.83021 -4.7051 0
M  V30 24754 H 2306.68 3.36783 -3.52745 0
M  V30 24755 H 2305.69 1.7829 -5.20089 0
M  V30 24756 H 2306.91 2.27273 -6.3994 0
M  V30 24757 H 2304.86 4.11085 -5.11219 0
M  V30 24758 H 2304.77 3.4659 -6.71872 0
M  V30 24759 H 2306.04 4.58137 -6.30659 0
M  V30 24760 N 2310.27 1.56347 0.198358 0
M  V30 24761 C 2311.5 1.84541 0.93554 0
M  V30 24762 C 2311.91 0.657312 1.76988 0
M  V30 24763 O 2311.27 -0.374012 1.78626 0
M  V30 24764 C 2311.32 3.11503 1.83435 0
M  V30 24765 O 2311.04 4.2573 1.0337 0
M  V30 24766 C 2312.54 3.52851 2.68349 0
M  V30 24767 H 2309.76 0.612902 0.273115 0
M  V30 24768 H 2312.31 2.03454 0.206594 0
M  V30 24769 H 2310.46 2.94496 2.51696 0
M  V30 24770 H 2310.88 4.98006 1.6459 0
M  V30 24771 H 2312.35 4.44662 3.27077 0
M  V30 24772 H 2312.83 2.75687 3.41896 0
M  V30 24773 H 2313.43 3.72377 2.05464 0
M  V30 24774 N 2311.75 -0.465951 1.50554 0
M  V30 24775 C 2312.99 -1.22745 1.63442 0
M  V30 24776 C 2313.35 -1.89145 0.329855 0
M  V30 24777 O 2314.55 -2.66714 0.334208 0
M  V30 24778 C 2312.82 -2.23935 2.78546 0
M  V30 24779 S 2314.38 -3.08955 3.11597 0
M  V30 24780 H 2311.2 -0.416661 0.57612 0
M  V30 24781 H 2313.8 -0.523608 1.88358 0
M  V30 24782 H 2312.51 -1.73743 3.71808 0
M  V30 24783 H 2312.04 -2.9894 2.55731 0
M  V30 24784 H 2314.05 -4.25172 2.55819 0
M  V30 24785 N 2313.23 -1.40218 -0.719481 0
M  V30 24786 C 2314.17 -1.40342 -1.85491 0
M  V30 24787 C 2315.17 -0.284445 -1.66995 0
M  V30 24788 O 2316.37 -0.455282 -1.74147 0
M  V30 24789 H 2312.75 -0.438597 -0.610849 0
M  V30 24790 H 2314.72 -2.36084 -1.82502 0
M  V30 24791 C 2313.47 -1.27907 -3.23319 0
M  V30 24792 H 2312.79 -2.13286 -3.38155 0
M  V30 24793 H 2314.23 -1.32052 -4.02912 0
M  V30 24794 C 2312.69 0.0110763 -3.36898 0
M  V30 24795 O 2313.22 0.97547 -3.89676 0
M  V30 24796 N 2311.43 0.0792882 -2.90492 0
M  V30 24797 H 2310.97 -0.706227 -2.4773 0
M  V30 24798 H 2310.93 0.941985 -2.99957 0
M  V30 24799 N 2314.7 0.951297 -1.25651 0
M  V30 24800 C 2316.12 1.51104 -1.09656 0
M  V30 24801 C 2316.47 1.93463 0.326581 0
M  V30 24802 O 2315.59 1.7894 1.21694 0
M  V30 24803 C 2316.19 2.74602 -1.98442 0
M  V30 24804 C 2314.75 3.26877 -1.86623 0
M  V30 24805 C 2313.89 1.99699 -1.92394 0
M  V30 24806 H 2316.84 0.767841 -1.38888 0
M  V30 24807 H 2316.86 3.48543 -1.52636 0
M  V30 24808 H 2316.38 2.43741 -3.02013 0
M  V30 24809 H 2314.48 3.62552 -0.859485 0
M  V30 24810 H 2314.59 3.94668 -2.71614 0
M  V30 24811 H 2312.95 2.15148 -1.36321 0
M  V30 24812 H 2313.74 1.71183 -2.97576 0
M  V30 24813 N 2316.18 1.07291 1.1544 0
M  V30 24814 C 2317.41 0.816793 1.90095 0
M  V30 24815 C 2317.83 -0.629935 1.77981 0
M  V30 24816 O 2317.18 -1.43204 1.13133 0
M  V30 24817 C 2317.23 1.21518 3.40464 0
M  V30 24818 O 2316.95 2.60514 3.52227 0
M  V30 24819 C 2318.46 0.988274 4.32144 0
M  V30 24820 H 2315.68 0.295376 0.60249 0
M  V30 24821 H 2318.22 1.4292 1.46267 0
M  V30 24822 H 2316.37 0.647106 3.81957 0
M  V30 24823 H 2316.79 2.76749 4.45545 0
M  V30 24824 H 2318.26 1.31654 5.3607 0
M  V30 24825 H 2318.74 -0.0754291 4.39135 0
M  V30 24826 H 2319.35 1.54122 3.96392 0
M  V30 24827 N 2317.66 -1.32267 0.856927 0
M  V30 24828 C 2318.89 -2.01071 0.474785 0
M  V30 24829 C 2319.3 -1.64555 -0.933717 0
M  V30 24830 O 2318.64 -0.864017 -1.62112 0
M  V30 24831 C 2318.7 -3.5547 0.536808 0
M  V30 24832 C 2318.37 -4.1542 1.90461 0
M  V30 24833 C 2319.36 -4.33481 2.87037 0
M  V30 24834 C 2317.05 -4.51443 2.20237 0
M  V30 24835 C 2319.04 -4.86737 4.11541 0
M  V30 24836 C 2316.73 -5.04404 3.44993 0
M  V30 24837 C 2317.73 -5.21999 4.40461 0
M  V30 24838 O 2317.42 -5.73827 5.63008 0
M  V30 24839 H 2317.15 -0.650253 0.184789 0
M  V30 24840 H 2319.7 -1.69769 1.15618 0
M  V30 24841 H 2317.93 -3.86175 -0.201452 0
M  V30 24842 H 2319.62 -4.05544 0.169946 0
M  V30 24843 H 2320.39 -4.05981 2.65338 0
M  V30 24844 H 2316.27 -4.37031 1.46713 0
M  V30 24845 H 2319.81 -5.00386 4.86065 0
M  V30 24846 H 2315.71 -5.31335 3.66542 0
M  V30 24847 H 2316.48 -5.92216 5.64997 0
M  V30 24848 N 2319.14 -0.615084 -1.45102 0
M  V30 24849 C 2320.09 0.11175 -2.32331 0
M  V30 24850 C 2321.08 0.852076 -1.4641 0
M  V30 24851 O 2322.29 0.766793 -1.62851 0
M  V30 24852 H 2318.66 0.0548941 -0.749994 0
M  V30 24853 H 2320.63 -0.642276 -2.91406 0
M  V30 24854 C 2319.38 1.09065 -3.30152 0
M  V30 24855 H 2318.7 0.530415 -3.96266 0
M  V30 24856 H 2320.14 1.56901 -3.93901 0
M  V30 24857 C 2318.6 2.16795 -2.57879 0
M  V30 24858 O 2319.13 3.24648 -2.36573 0
M  V30 24859 N 2317.34 1.92285 -2.17887 0
M  V30 24860 H 2316.89 1.04583 -2.35415 0
M  V30 24861 H 2316.84 2.64569 -1.69855 0
M  V30 24862 N 2320.62 1.53557 -0.354678 0
M  V30 24863 C 2321.53 2.29098 0.50511 0
M  V30 24864 C 2322.54 1.34638 1.10221 0
M  V30 24865 O 2323.72 1.67686 1.1155 0
M  V30 24866 C 2320.78 3.0574 1.63474 0
M  V30 24867 C 2319.85 4.15847 1.06629 0
M  V30 24868 C 2319.08 4.88826 2.14208 0
M  V30 24869 O 2319.3 4.61568 3.35129 0
M  V30 24870 O 2318.24 5.75016 1.77877 0
M  V30 24871 H 2322.06 3.03503 -0.10929 0
M  V30 24872 H 2319.65 1.48922 -0.119384 0
M  V30 24873 H 2321.53 3.53634 2.29174 0
M  V30 24874 H 2320.2 2.34182 2.23474 0
M  V30 24875 H 2319.11 3.72231 0.373499 0
M  V30 24876 H 2320.44 4.8954 0.510995 0
M  V30 24877 N 2322.1 0.083568 1.57378 0
M  V30 24878 C 2323.03 -0.915796 2.09018 0
M  V30 24879 C 2324.01 -1.28368 0.998015 0
M  V30 24880 O 2325.19 -1.39094 1.27221 0
M  V30 24881 C 2322.32 -2.22045 2.55761 0
M  V30 24882 C 2321.36 -2.00327 3.76526 0
M  V30 24883 S 2322.2 -1.25182 5.20663 0
M  V30 24884 C 2323.35 -2.56902 5.70747 0
M  V30 24885 H 2323.59 -0.47644 2.93458 0
M  V30 24886 H 2321.12 -0.129466 1.53856 0
M  V30 24887 H 2323.08 -2.97022 2.83351 0
M  V30 24888 H 2321.74 -2.63103 1.71568 0
M  V30 24889 H 2320.93 -2.96908 4.07261 0
M  V30 24890 H 2320.53 -1.33481 3.49369 0
M  V30 24891 H 2322.82 -3.52936 5.7831 0
M  V30 24892 H 2323.77 -2.30761 6.69444 0
M  V30 24893 H 2324.18 -2.64647 4.98621 0
M  V30 24894 N 2323.57 -1.5645 -0.190064 0
M  V30 24895 C 2324.5 -1.97971 -1.23813 0
M  V30 24896 C 2325.48 -0.85242 -1.472 0
M  V30 24897 O 2326.67 -1.11712 -1.58852 0
M  V30 24898 C 2323.8 -2.32354 -2.58126 0
M  V30 24899 C 2322.75 -3.47868 -2.49342 0
M  V30 24900 C 2322.08 -3.67941 -3.87974 0
M  V30 24901 C 2323.38 -4.81901 -2.01416 0
M  V30 24902 H 2325.07 -2.85771 -0.89306 0
M  V30 24903 H 2322.62 -1.37488 -0.428153 0
M  V30 24904 H 2324.57 -2.59997 -3.31632 0
M  V30 24905 H 2323.3 -1.41443 -2.94383 0
M  V30 24906 H 2321.96 -3.20324 -1.78291 0
M  V30 24907 H 2321.6 -2.74352 -4.21592 0
M  V30 24908 H 2321.3 -4.45654 -3.8297 0
M  V30 24909 H 2322.83 -3.97965 -4.63094 0
M  V30 24910 H 2324.24 -5.08542 -2.64684 0
M  V30 24911 H 2322.64 -5.6312 -2.07403 0
M  V30 24912 H 2323.71 -4.75148 -0.967593 0
M  V30 24913 N 2325.05 0.45796 -1.50799 0
M  V30 24914 C 2326.3 1.21085 -1.62685 0
M  V30 24915 C 2326.63 1.91336 -0.332301 0
M  V30 24916 O 2325.91 1.82705 0.667011 0
M  V30 24917 C 2326.19 2.24417 -2.81619 0
M  V30 24918 C 2326.04 1.58384 -4.20992 0
M  V30 24919 C 2327.36 3.25605 -2.9609 0
M  V30 24920 H 2324.48 0.438853 -0.592095 0
M  V30 24921 H 2327.12 0.502828 -1.83226 0
M  V30 24922 H 2325.27 2.84801 -2.64236 0
M  V30 24923 H 2326.94 1.01496 -4.49996 0
M  V30 24924 H 2325.19 0.886629 -4.24643 0
M  V30 24925 H 2325.86 2.33538 -5.00164 0
M  V30 24926 H 2328.33 2.75256 -3.12047 0
M  V30 24927 H 2327.21 3.95221 -3.80909 0
M  V30 24928 H 2327.47 3.90503 -2.07267 0
M  V30 24929 N 2326.53 1.40598 0.712035 0
M  V30 24930 C 2327.76 1.42184 1.49891 0
M  V30 24931 C 2328.17 0.020841 1.89189 0
M  V30 24932 O 2327.51 -0.966409 1.56225 0
M  V30 24933 C 2327.57 2.25216 2.80211 0
M  V30 24934 C 2327.24 3.73587 2.63215 0
M  V30 24935 C 2328.23 4.66139 2.3024 0
M  V30 24936 C 2325.92 4.17443 2.79369 0
M  V30 24937 C 2327.91 6.00532 2.13634 0
M  V30 24938 C 2325.6 5.51906 2.6238 0
M  V30 24939 C 2326.6 6.43266 2.29561 0
M  V30 24940 O 2326.29 7.75249 2.12705 0
M  V30 24941 H 2326.02 0.48682 0.469023 0
M  V30 24942 H 2328.57 1.85327 0.885608 0
M  V30 24943 H 2326.8 1.76858 3.43887 0
M  V30 24944 H 2328.49 2.187 3.41943 0
M  V30 24945 H 2329.26 4.33551 2.1739 0
M  V30 24946 H 2325.14 3.46649 3.039 0
M  V30 24947 H 2328.68 6.71807 1.87941 0
M  V30 24948 H 2324.58 5.84077 2.74816 0
M  V30 24949 H 2325.34 7.8622 2.27598 0
M  V30 24950 N 2328.01 -0.94462 1.26153 0
M  V30 24951 C 2329.28 -1.66746 1.0225 0
M  V30 24952 C 2329.66 -2.06288 -0.448165 0
M  V30 24953 O 2329.01 -1.78402 -1.42776 0
M  V30 24954 C 2329.22 -2.88225 1.96793 0
M  V30 24955 C 2330.57 -3.59954 2.25208 0
M  V30 24956 O 2331.59 -2.98324 1.94631 0
M  V30 24957 O 2330.45 -4.70951 2.7725 0
M  V30 24958 H 2327.55 -0.73005 0.38853 0
M  V30 24959 H 2330.09 -0.996656 1.37349 0
M  V30 24960 H 2328.87 -2.5587 2.96051 0
M  V30 24961 H 2328.49 -3.63033 1.62152 0
M  V30 24962 N 2329.49 -1.07901 -1.1487 0
M  V30 24963 C 2330.73 -0.803973 -1.8542 0
M  V30 24964 C 2331.05 0.672078 -1.83052 0
M  V30 24965 O 2330.32 1.487 -1.27534 0
M  V30 24966 H 2328.9 -0.29442 -0.686532 0
M  V30 24967 H 2331.57 -1.36393 -1.39223 0
M  V30 24968 H 2330.66 -1.14351 -2.90397 0
M  V30 24969 N 2330.96 1.31811 -0.863929 0
M  V30 24970 C 2332.21 1.96194 -0.468045 0
M  V30 24971 C 2332.53 1.69079 0.983444 0
M  V30 24972 O 2333.73 2.27276 1.48519 0
M  V30 24973 C 2332.19 3.51211 -0.786057 0
M  V30 24974 C 2331.8 3.87174 -2.2539 0
M  V30 24975 C 2333.54 4.22018 -0.458348 0
M  V30 24976 C 2331.45 5.35275 -2.51464 0
M  V30 24977 H 2330.38 0.734284 -0.171296 0
M  V30 24978 H 2333.03 1.5007 -1.056 0
M  V30 24979 H 2331.41 3.95795 -0.127429 0
M  V30 24980 H 2332.58 3.53569 -2.95509 0
M  V30 24981 H 2330.9 3.29416 -2.54704 0
M  V30 24982 H 2333.5 5.3097 -0.630463 0
M  V30 24983 H 2333.84 4.11942 0.600762 0
M  V30 24984 H 2334.37 3.83048 -1.07326 0
M  V30 24985 H 2331.11 5.50381 -3.56035 0
M  V30 24986 H 2330.63 5.70253 -1.85933 0
M  V30 24987 H 2332.31 6.02468 -2.35885 0
M  V30 24988 N 2332.44 0.62277 1.44773 0
M  V30 24989 C 2333.85 0.207259 1.85546 0
M  V30 24990 C 2334.2 -1.23942 1.52095 0
M  V30 24991 O 2333.33 -1.9419 0.954954 0
M  V30 24992 C 2333.92 0.369372 3.3678 0
M  V30 24993 C 2332.48 0.00843463 3.76399 0
M  V30 24994 C 2331.63 0.686698 2.68663 0
M  V30 24995 H 2334.58 0.828477 1.35359 0
M  V30 24996 H 2334.6 -0.394095 3.78454 0
M  V30 24997 H 2334.11 1.42237 3.61096 0
M  V30 24998 H 2332.21 -1.04315 3.577 0
M  V30 24999 H 2332.33 0.412668 4.77319 0
M  V30 25000 H 2330.69 0.122822 2.54404 0
M  V30 25001 H 2331.47 1.74213 2.95812 0
M  V30 25002 N 2333.92 -1.53367 0.362817 0
M  V30 25003 C 2334.87 -2.25647 -0.484968 0
M  V30 25004 C 2335.84 -1.26212 -1.0798 0
M  V30 25005 O 2337.02 -1.54988 -1.11281 0
M  V30 25006 C 2334.16 -3.04703 -1.62018 0
M  V30 25007 C 2333.27 -4.19026 -1.05079 0
M  V30 25008 C 2332.41 -4.85529 -2.15488 0
M  V30 25009 C 2331.45 -5.91887 -1.56 0
M  V30 25010 N 2330.59 -6.52093 -2.60229 0
M  V30 25011 H 2335.43 -2.97681 0.137916 0
M  V30 25012 H 2332.96 -1.46883 0.0798319 0
M  V30 25013 H 2334.92 -3.48811 -2.28881 0
M  V30 25014 H 2333.55 -2.34931 -2.21376 0
M  V30 25015 H 2332.6 -3.79423 -0.272524 0
M  V30 25016 H 2333.91 -4.95465 -0.575839 0
M  V30 25017 H 2333.07 -5.32806 -2.90177 0
M  V30 25018 H 2331.81 -4.08556 -2.66333 0
M  V30 25019 H 2330.81 -5.43974 -0.798243 0
M  V30 25020 H 2332.04 -6.70779 -1.05982 0
M  V30 25021 H 2329.98 -5.77974 -3.10294 0
M  V30 25022 H 2329.9 -7.24063 -2.17413 0
M  V30 25023 H 2331.17 -7.0402 -3.34629 0
M  V30 25024 N 2335.4 -0.091913 -1.57332 0
M  V30 25025 C 2336.65 0.571412 -1.93854 0
M  V30 25026 C 2336.97 1.68919 -0.974242 0
M  V30 25027 O 2336.24 1.95883 -0.0257598 0
M  V30 25028 H 2334.82 0.214069 -0.71567 0
M  V30 25029 H 2337.48 -0.154498 -1.94287 0
M  V30 25030 H 2336.58 0.983677 -2.96193 0
M  V30 25031 N 2336.88 1.56548 0.181765 0
M  V30 25032 C 2338.15 1.72253 0.926734 0
M  V30 25033 C 2338.53 0.650421 2.0083 0
M  V30 25034 O 2337.88 -0.336481 2.26009 0
M  V30 25035 C 2338.09 3.15073 1.50101 0
M  V30 25036 C 2339.44 3.75714 1.97798 0
M  V30 25037 O 2340.46 3.18285 1.59916 0
M  V30 25038 O 2339.32 4.7653 2.67547 0
M  V30 25039 H 2336.42 0.703046 0.435494 0
M  V30 25040 H 2338.96 1.68842 0.170414 0
M  V30 25041 H 2337.73 3.8458 0.722053 0
M  V30 25042 H 2337.36 3.22767 2.3218 0
M  V30 25043 N 2338.35 -0.449957 1.5104 0
M  V30 25044 C 2339.28 -1.55284 1.74382 0
M  V30 25045 C 2340.27 -1.59419 0.593264 0
M  V30 25046 O 2341.45 -1.75349 0.834656 0
M  V30 25047 C 2338.58 -2.93463 1.85734 0
M  V30 25048 C 2337.53 -3.04192 3.01083 0
M  V30 25049 C 2336.86 -4.44226 2.97603 0
M  V30 25050 C 2338.16 -2.79442 4.41259 0
M  V30 25051 H 2339.85 -1.36003 2.66727 0
M  V30 25052 H 2337.4 -0.652842 1.28351 0
M  V30 25053 H 2339.35 -3.70566 2.00646 0
M  V30 25054 H 2338.08 -3.13947 0.900262 0
M  V30 25055 H 2336.74 -2.29526 2.85855 0
M  V30 25056 H 2336.38 -4.61659 1.99699 0
M  V30 25057 H 2336.08 -4.52337 3.75054 0
M  V30 25058 H 2337.61 -5.2332 3.14592 0
M  V30 25059 H 2339.02 -3.46284 4.56903 0
M  V30 25060 H 2337.42 -2.98976 5.2032 0
M  V30 25061 H 2338.49 -1.75137 4.52167 0
M  V30 25062 N 2339.83 -1.40974 -0.704569 0
M  V30 25063 C 2340.76 -1.38036 -1.82972 0
M  V30 25064 C 2341.78 -0.283959 -1.60304 0
M  V30 25065 O 2342.97 -0.545072 -1.69974 0
M  V30 25066 C 2340.07 -1.12801 -3.19576 0
M  V30 25067 C 2339.24 -2.34309 -3.69348 0
M  V30 25068 C 2338.3 -2.05066 -4.84597 0
M  V30 25069 O 2337.32 -2.78029 -4.96678 0
M  V30 25070 N 2338.53 -1.03538 -5.71192 0
M  V30 25071 H 2341.29 -2.35009 -1.85987 0
M  V30 25072 H 2338.85 -1.3547 -0.886543 0
M  V30 25073 H 2340.84 -0.912057 -3.94289 0
M  V30 25074 H 2339.41 -0.244574 -3.11642 0
M  V30 25075 H 2338.63 -2.71664 -2.85644 0
M  V30 25076 H 2339.92 -3.15287 -3.99339 0
M  V30 25077 H 2339.32 -0.431317 -5.64053 0
M  V30 25078 H 2337.88 -0.879319 -6.45841 0
M  V30 25079 N 2341.31 0.937917 -1.26653 0
M  V30 25080 C 2342.24 2.041 -1.04287 0
M  V30 25081 C 2343.26 1.628 -0.00223876 0
M  V30 25082 O 2344.44 1.76843 -0.242676 0
M  V30 25083 C 2341.54 3.34276 -0.557905 0
M  V30 25084 C 2340.72 4.04326 -1.66851 0
M  V30 25085 C 2339.78 5.12775 -1.18104 0
M  V30 25086 O 2338.8 5.373 -1.87874 0
M  V30 25087 N 2340 5.80492 -0.0312026 0
M  V30 25088 H 2342.77 2.23853 -1.99274 0
M  V30 25089 H 2340.33 1.10762 -1.18082 0
M  V30 25090 H 2342.32 4.04124 -0.215907 0
M  V30 25091 H 2340.89 3.11172 0.298468 0
M  V30 25092 H 2340.11 3.2835 -2.18129 0
M  V30 25093 H 2341.4 4.47879 -2.41416 0
M  V30 25094 H 2340.8 5.63006 0.551387 0
M  V30 25095 H 2339.36 6.51314 0.251694 0
M  V30 25096 N 2342.79 1.08509 1.14296 0
M  V30 25097 C 2344.2 0.812926 1.37345 0
M  V30 25098 C 2344.4 -0.577291 1.93053 0
M  V30 25099 O 2343.46 -1.3339 2.14391 0
M  V30 25100 C 2344.77 1.89646 2.33356 0
M  V30 25101 C 2346.32 1.92259 2.46993 0
M  V30 25102 C 2346.8 2.9973 3.46303 0
M  V30 25103 N 2348.29 2.98908 3.53847 0
M  V30 25104 C 2349.02 3.78708 4.30544 0
M  V30 25105 N 2348.52 4.68389 5.10474 0
M  V30 25106 N 2350.31 3.67006 4.2575 0
M  V30 25107 H 2342.46 1.98152 0.764832 0
M  V30 25108 H 2344.73 0.859966 0.398951 0
M  V30 25109 H 2344.43 2.89601 1.9956 0
M  V30 25110 H 2344.31 1.76665 3.33271 0
M  V30 25111 H 2346.69 0.929495 2.80079 0
M  V30 25112 H 2346.77 2.09319 1.47035 0
M  V30 25113 H 2346.42 3.99247 3.1395 0
M  V30 25114 H 2346.35 2.79915 4.46044 0
M  V30 25115 H 2348.84 2.33909 2.96808 0
M  V30 25116 H 2349.15 5.25883 5.66275 0
M  V30 25117 H 2347.5 4.72431 5.09739 0
M  V30 25118 H 2350.69 2.96311 3.62378 0
M  V30 25119 H 2350.86 4.29436 4.85272 0
M  V30 25120 N 2344.27 -1.31351 0.870907 0
M  V30 25121 C 2345.18 -2.32256 0.330824 0
M  V30 25122 C 2346.19 -1.64751 -0.559738 0
M  V30 25123 O 2347.37 -1.96165 -0.456229 0
M  V30 25124 C 2344.43 -3.43661 -0.458076 0
M  V30 25125 C 2343.49 -4.26822 0.460557 0
M  V30 25126 C 2342.73 -5.32907 -0.290787 0
M  V30 25127 O 2342.95 -5.49809 -1.51875 0
M  V30 25128 O 2341.88 -6.00871 0.351837 0
M  V30 25129 H 2345.71 -2.80374 1.16723 0
M  V30 25130 H 2343.3 -1.35266 0.634309 0
M  V30 25131 H 2345.18 -4.11561 -0.905271 0
M  V30 25132 H 2343.85 -2.97703 -1.27101 0
M  V30 25133 H 2342.76 -3.61672 0.95627 0
M  V30 25134 H 2344.09 -4.76347 1.23911 0
M  V30 25135 N 2345.74 -0.630439 -1.44441 0
M  V30 25136 C 2346.67 0.0617672 -2.33418 0
M  V30 25137 C 2347.66 0.835515 -1.48166 0
M  V30 25138 O 2348.84 0.801533 -1.76887 0
M  V30 25139 C 2345.97 1.04443 -3.31223 0
M  V30 25140 C 2344.92 0.382361 -4.26289 0
M  V30 25141 C 2344.25 1.47488 -5.13957 0
M  V30 25142 C 2345.55 -0.710956 -5.17439 0
M  V30 25143 H 2347.24 -0.681236 -2.91547 0
M  V30 25144 H 2344.79 -0.329051 -1.4019 0
M  V30 25145 H 2346.74 1.53742 -3.92354 0
M  V30 25146 H 2345.47 1.81831 -2.71302 0
M  V30 25147 H 2344.13 -0.0899698 -3.6649 0
M  V30 25148 H 2343.77 2.23962 -4.50389 0
M  V30 25149 H 2343.47 1.03727 -5.78372 0
M  V30 25150 H 2345 1.96968 -5.77958 0
M  V30 25151 H 2346.41 -0.301097 -5.72509 0
M  V30 25152 H 2344.81 -1.07166 -5.90454 0
M  V30 25153 H 2345.88 -1.57837 -4.58493 0
M  V30 25154 N 2347.22 1.53172 -0.370945 0
M  V30 25155 C 2348.15 2.23504 0.507783 0
M  V30 25156 C 2349.17 1.25102 1.0418 0
M  V30 25157 O 2350.36 1.51292 0.947259 0
M  V30 25158 C 2347.46 2.92337 1.71442 0
M  V30 25159 C 2346.63 4.17291 1.31098 0
M  V30 25160 C 2345.69 4.69286 2.38027 0
M  V30 25161 O 2344.71 5.32833 2.00195 0
M  V30 25162 N 2345.92 4.47561 3.69689 0
M  V30 25163 H 2348.68 2.9955 -0.0946908 0
M  V30 25164 H 2346.24 1.60704 -0.196386 0
M  V30 25165 H 2348.23 3.24027 2.42463 0
M  V30 25166 H 2346.8 2.19711 2.22364 0
M  V30 25167 H 2346.02 3.91843 0.430393 0
M  V30 25168 H 2347.31 4.98516 1.01781 0
M  V30 25169 H 2346.71 3.96797 4.03198 0
M  V30 25170 H 2345.27 4.83788 4.36798 0
M  V30 25171 N 2348.7 0.100255 1.57281 0
M  V30 25172 C 2349.63 -0.853819 2.1733 0
M  V30 25173 C 2350.61 -1.29058 1.10806 0
M  V30 25174 O 2351.8 -1.35655 1.38966 0
M  V30 25175 C 2348.93 -2.11104 2.75776 0
M  V30 25176 C 2347.88 -1.81273 3.87717 0
M  V30 25177 C 2347.21 -3.13867 4.32888 0
M  V30 25178 C 2348.51 -1.09565 5.10679 0
M  V30 25179 H 2350.2 -0.353493 2.97306 0
M  V30 25180 H 2347.75 -0.168587 1.4301 0
M  V30 25181 H 2349.7 -2.7829 3.16437 0
M  V30 25182 H 2348.42 -2.63429 1.93061 0
M  V30 25183 H 2347.08 -1.16483 3.47602 0
M  V30 25184 H 2346.73 -3.64089 3.47057 0
M  V30 25185 H 2346.43 -2.94687 5.08363 0
M  V30 25186 H 2347.95 -3.82202 4.76187 0
M  V30 25187 H 2349.37 -1.66869 5.48477 0
M  V30 25188 H 2347.77 -1.00546 5.91617 0
M  V30 25189 H 2348.84 -0.0792447 4.84835 0
M  V30 25190 N 2350.18 -1.56643 -0.17346 0
M  V30 25191 C 2351.4 -1.86364 -0.910116 0
M  V30 25192 C 2351.83 -0.686349 -1.75131 0
M  V30 25193 O 2351.19 0.364612 -1.77596 0
M  V30 25194 C 2351.24 -3.14485 -1.76442 0
M  V30 25195 O 2350.34 -2.96558 -2.86579 0
M  V30 25196 H 2349.68 -0.613052 -0.255076 0
M  V30 25197 H 2352.21 -2.03874 -0.172247 0
M  V30 25198 H 2352.22 -3.45835 -2.16477 0
M  V30 25199 H 2350.9 -3.99785 -1.14651 0
M  V30 25200 H 2349.47 -2.76557 -2.50141 0
M  V30 25201 N 2351.66 0.44194 -1.51277 0
M  V30 25202 C 2352.9 1.19352 -1.6396 0
M  V30 25203 C 2353.24 1.90973 -0.352577 0
M  V30 25204 O 2352.51 1.83402 0.647595 0
M  V30 25205 C 2352.79 2.21417 -2.83983 0
M  V30 25206 C 2352.65 1.5391 -4.22648 0
M  V30 25207 C 2353.97 3.22446 -2.99527 0
M  V30 25208 H 2351.09 0.432549 -0.596716 0
M  V30 25209 H 2353.73 0.483366 -1.83749 0
M  V30 25210 H 2351.88 2.81982 -2.67242 0
M  V30 25211 H 2353.55 0.967177 -4.51047 0
M  V30 25212 H 2351.79 0.84154 -4.25559 0
M  V30 25213 H 2352.46 2.2822 -5.02613 0
M  V30 25214 H 2354.94 2.71931 -3.14949 0
M  V30 25215 H 2353.82 3.91159 -3.85079 0
M  V30 25216 H 2354.08 3.88283 -2.11397 0
M  V30 25217 N 2353.14 1.41345 0.697083 0
M  V30 25218 C 2354.07 1.45845 1.8235 0
M  V30 25219 C 2355.05 0.317276 1.67115 0
M  V30 25220 O 2356.23 0.528507 1.8687 0
M  V30 25221 C 2353.36 1.33843 3.20474 0
M  V30 25222 C 2352.32 2.45756 3.50411 0
M  V30 25223 C 2351.64 2.18821 4.87874 0
M  V30 25224 C 2352.94 3.88097 3.4954 0
M  V30 25225 H 2354.64 2.40116 1.78842 0
M  V30 25226 H 2352.18 1.15573 0.859007 0
M  V30 25227 H 2354.13 1.35603 3.98986 0
M  V30 25228 H 2352.86 0.360555 3.24604 0
M  V30 25229 H 2351.52 2.43276 2.74249 0
M  V30 25230 H 2351.17 1.1938 4.88628 0
M  V30 25231 H 2350.87 2.93812 5.0887 0
M  V30 25232 H 2352.39 2.22294 5.68698 0
M  V30 25233 H 2353.8 3.923 4.18059 0
M  V30 25234 H 2352.2 4.62758 3.82067 0
M  V30 25235 H 2353.27 4.16357 2.48545 0
M  V30 25236 N 2354.61 -0.931187 1.27148 0
M  V30 25237 C 2355.84 -1.71795 1.16194 0
M  V30 25238 C 2356.26 -1.86035 -0.277971 0
M  V30 25239 O 2355.62 -1.35784 -1.20134 0
M  V30 25240 C 2355.67 -3.09719 1.84679 0
M  V30 25241 O 2354.77 -3.96262 1.14238 0
M  V30 25242 H 2354.11 -0.526714 0.404312 0
M  V30 25243 H 2356.64 -1.16557 1.68154 0
M  V30 25244 H 2356.65 -3.60054 1.919 0
M  V30 25245 H 2355.33 -2.98672 2.89427 0
M  V30 25246 H 2353.91 -3.54704 1.15062 0
M  V30 25247 N 2356.09 -1.09114 -1.13719 0
M  V30 25248 C 2357 -0.739609 -2.22636 0
M  V30 25249 C 2358.02 0.257037 -1.72091 0
M  V30 25250 O 2359.19 0.0991801 -2.01156 0
M  V30 25251 C 2356.26 -0.16197 -3.46321 0
M  V30 25252 C 2355.32 -1.21415 -4.11773 0
M  V30 25253 C 2354.55 -0.663984 -5.29554 0
M  V30 25254 O 2354.78 0.514174 -5.68078 0
M  V30 25255 O 2353.71 -1.41748 -5.84971 0
M  V30 25256 H 2357.54 -1.6484 -2.55071 0
M  V30 25257 H 2355.12 -0.86531 -1.2179 0
M  V30 25258 H 2357 0.156999 -4.21107 0
M  V30 25259 H 2355.68 0.719877 -3.15594 0
M  V30 25260 H 2354.58 -1.58577 -3.38828 0
M  V30 25261 H 2355.92 -2.06853 -4.46624 0
M  V30 25262 N 2357.57 1.30887 -0.877861 0
M  V30 25263 C 2358.5 2.27272 -0.296647 0
M  V30 25264 C 2359.51 1.53415 0.544772 0
M  V30 25265 O 2360.7 1.74718 0.36548 0
M  V30 25266 C 2357.8 3.33593 0.597423 0
M  V30 25267 C 2356.98 4.36879 -0.213328 0
M  V30 25268 C 2356.04 5.22651 0.610116 0
M  V30 25269 O 2355.06 5.69189 0.0353409 0
M  V30 25270 N 2356.26 5.47807 1.92061 0
M  V30 25271 H 2359.03 2.77785 -1.12497 0
M  V30 25272 H 2356.59 1.43992 -0.74013 0
M  V30 25273 H 2358.58 3.87893 1.15418 0
M  V30 25274 H 2357.15 2.83063 1.32642 0
M  V30 25275 H 2356.37 3.82543 -0.951533 0
M  V30 25276 H 2357.66 5.0295 -0.769351 0
M  V30 25277 H 2357.06 5.11768 2.41061 0
M  V30 25278 H 2355.61 6.05011 2.42498 0
M  V30 25279 N 2359.05 0.638091 1.44105 0
M  V30 25280 C 2360.3 0.145079 2.01579 0
M  V30 25281 C 2360.62 -1.23997 1.50498 0
M  V30 25282 O 2359.89 -1.82526 0.711406 0
M  V30 25283 H 2358.47 0.0506431 0.745281 0
M  V30 25284 H 2361.13 0.826358 1.76514 0
M  V30 25285 H 2360.22 0.118094 3.11876 0
M  V30 25286 N 2360.53 -1.52973 0.379063 0
M  V30 25287 C 2361.77 -2.01446 -0.206386 0
M  V30 25288 C 2362.1 -1.2659 -1.47666 0
M  V30 25289 O 2361.36 -0.351709 -1.92514 0
M  V30 25290 C 2361.65 -3.53435 -0.530898 0
M  V30 25291 C 2361.32 -4.46239 0.646625 0
M  V30 25292 C 2359.98 -4.71328 0.969687 0
M  V30 25293 C 2362.33 -5.0106 1.43487 0
M  V30 25294 C 2359.66 -5.48488 2.08273 0
M  V30 25295 C 2362.01 -5.79436 2.53844 0
M  V30 25296 C 2360.68 -6.02807 2.8667 0
M  V30 25297 H 2359.95 -0.737141 -0.075522 0
M  V30 25298 H 2362.6 -1.84465 0.514303 0
M  V30 25299 H 2360.9 -3.68435 -1.33278 0
M  V30 25300 H 2362.6 -3.88425 -0.996349 0
M  V30 25301 H 2359.19 -4.26869 0.384809 0
M  V30 25302 H 2363.37 -4.81611 1.19853 0
M  V30 25303 H 2358.63 -5.64812 2.34088 0
M  V30 25304 H 2362.8 -6.20919 3.1533 0
M  V30 25305 H 2360.43 -6.6238 3.73037 0
M  V30 25306 N 2362 -0.108595 -1.57225 0
M  V30 25307 C 2363.25 0.54653 -1.9592 0
M  V30 25308 C 2363.6 1.64948 -0.990446 0
M  V30 25309 O 2362.9 1.91591 -0.0186929 0
M  V30 25310 C 2363.09 1.13457 -3.38913 0
M  V30 25311 C 2362.92 0.0901136 -4.4961 0
M  V30 25312 C 2361.69 -0.338096 -5.04168 0
M  V30 25313 C 2363.89 -0.686898 -5.09692 0
M  V30 25314 N 2361.87 -1.36941 -5.98432 0
M  V30 25315 C 2363.24 -1.56968 -5.99801 0
M  V30 25316 C 2365.3 -0.738932 -4.92386 0
M  V30 25317 C 2364 -2.49995 -6.74459 0
M  V30 25318 C 2366.03 -1.65686 -5.67717 0
M  V30 25319 C 2365.39 -2.52724 -6.57503 0
M  V30 25320 H 2361.49 0.169923 -0.763315 0
M  V30 25321 H 2364.07 -0.194298 -1.93728 0
M  V30 25322 H 2362.24 1.84516 -3.41772 0
M  V30 25323 H 2363.97 1.75316 -3.64755 0
M  V30 25324 H 2360.73 0.0522841 -4.73571 0
M  V30 25325 H 2361.15 -1.88368 -6.50267 0
M  V30 25326 H 2365.79 -0.0801583 -4.22724 0
M  V30 25327 H 2363.51 -3.16891 -7.43375 0
M  V30 25328 H 2367.1 -1.70243 -5.56335 0
M  V30 25329 H 2365.98 -3.22599 -7.14772 0
M  V30 25330 N 2363.48 1.56732 0.16515 0
M  V30 25331 C 2364.39 2.00127 1.22419 0
M  V30 25332 C 2365.41 0.913645 1.48083 0
M  V30 25333 O 2366.58 1.22175 1.6011 0
M  V30 25334 C 2363.65 2.35769 2.54193 0
M  V30 25335 C 2362.71 3.5839 2.36337 0
M  V30 25336 C 2361.94 3.92322 3.61827 0
M  V30 25337 O 2362.17 3.27143 4.67262 0
M  V30 25338 O 2361.1 4.85647 3.5557 0
M  V30 25339 H 2364.93 2.90494 0.885835 0
M  V30 25340 H 2362.51 1.44682 0.372492 0
M  V30 25341 H 2364.39 2.59635 3.31915 0
M  V30 25342 H 2363.07 1.48562 2.87595 0
M  V30 25343 H 2361.97 3.39734 1.56626 0
M  V30 25344 H 2363.31 4.46157 2.07857 0
M  V30 25345 N 2364.96 -0.433911 1.51509 0
M  V30 25346 C 2365.91 -1.54754 1.73649 0
M  V30 25347 C 2366.9 -1.58309 0.602882 0
M  V30 25348 O 2368.11 -1.62012 0.784346 0
M  V30 25349 H 2364.48 -0.514201 0.548727 0
M  V30 25350 H 2366.45 -1.33256 2.66993 0
M  V30 25351 C 2365.2 -2.92378 1.88177 0
M  V30 25352 H 2364.53 -2.90376 2.74813 0
M  V30 25353 H 2365.97 -3.69656 2.07678 0
M  V30 25354 C 2364.43 -3.30718 0.642448 0
M  V30 25355 O 2364.95 -4.01195 -0.201292 0
M  V30 25356 N 2363.16 -2.86515 0.485539 0
M  V30 25357 H 2362.71 -2.29332 1.17322 0
M  V30 25358 H 2362.67 -3.1253 -0.342427 0
M  V30 25359 N 2366.44 -1.41713 -0.689577 0
M  V30 25360 C 2367.68 -1.41602 -1.45179 0
M  V30 25361 C 2368.02 -0.0270422 -1.94181 0
M  V30 25362 O 2367.29 0.946235 -1.69931 0
M  V30 25363 C 2367.58 -2.42791 -2.65941 0
M  V30 25364 C 2367.43 -3.9082 -2.22665 0
M  V30 25365 C 2368.75 -2.41158 -3.68145 0
M  V30 25366 H 2365.87 -0.515651 -0.526567 0
M  V30 25367 H 2368.51 -1.73029 -0.784917 0
M  V30 25368 H 2366.66 -2.16122 -3.22837 0
M  V30 25369 H 2368.33 -4.28415 -1.7105 0
M  V30 25370 H 2366.57 -4.05397 -1.54387 0
M  V30 25371 H 2367.24 -4.57178 -3.09342 0
M  V30 25372 H 2369.72 -2.64839 -3.20935 0
M  V30 25373 H 2368.6 -3.13963 -4.50242 0
M  V30 25374 H 2368.86 -1.43228 -4.18256 0
M  V30 25375 N 2367.92 0.924431 -1.2764 0
M  V30 25376 C 2368.85 2.04242 -1.1317 0
M  V30 25377 C 2369.83 1.70069 -0.0322859 0
M  V30 25378 O 2371.01 1.9309 -0.207362 0
M  V30 25379 C 2368.14 3.38392 -0.781556 0
M  V30 25380 C 2367.1 3.86688 -1.83456 0
M  V30 25381 C 2366.42 5.17681 -1.33831 0
M  V30 25382 C 2367.72 4.0972 -3.23924 0
M  V30 25383 H 2369.42 2.16607 -2.06693 0
M  V30 25384 H 2366.96 1.0408 -0.995155 0
M  V30 25385 H 2368.92 4.16086 -0.66713 0
M  V30 25386 H 2367.64 3.2605 0.189381 0
M  V30 25387 H 2366.3 3.1119 -1.93794 0
M  V30 25388 H 2365.95 5.01733 -0.356738 0
M  V30 25389 H 2365.65 5.50965 -2.04234 0
M  V30 25390 H 2367.17 5.97941 -1.23689 0
M  V30 25391 H 2368.58 4.77973 -3.16567 0
M  V30 25392 H 2366.98 4.54317 -3.92067 0
M  V30 25393 H 2368.05 3.14901 -3.68735 0
M  V30 25394 N 2369.39 1.09715 1.13139 0
M  V30 25395 C 2370.32 0.761141 2.20746 0
M  V30 25396 C 2371.31 -0.262537 1.68062 0
M  V30 25397 O 2372.49 -0.129943 1.93765 0
M  V30 25398 C 2369.62 0.184115 3.46812 0
M  V30 25399 C 2368.57 1.13764 4.12604 0
M  V30 25400 C 2367.9 0.422176 5.33031 0
M  V30 25401 C 2369.2 2.48127 4.59598 0
M  V30 25402 H 2370.89 1.66086 2.4911 0
M  V30 25403 H 2368.44 0.800008 1.19732 0
M  V30 25404 H 2370.39 -0.0630474 4.21353 0
M  V30 25405 H 2369.12 -0.750812 3.17853 0
M  V30 25406 H 2367.78 1.37013 3.40034 0
M  V30 25407 H 2367.42 -0.516984 5.00336 0
M  V30 25408 H 2367.12 1.05798 5.77997 0
M  V30 25409 H 2368.65 0.183385 6.10325 0
M  V30 25410 H 2370.06 2.29068 5.25548 0
M  V30 25411 H 2368.46 3.07523 5.15315 0
M  V30 25412 H 2369.53 3.08671 3.73965 0
M  V30 25413 N 2370.87 -1.30419 0.88479 0
M  V30 25414 C 2372.12 -1.95762 0.502146 0
M  V30 25415 C 2372.44 -1.70194 -0.951785 0
M  V30 25416 O 2371.71 -1.02543 -1.66918 0
M  V30 25417 H 2370.29 -0.724312 0.182707 0
M  V30 25418 H 2372.95 -1.58953 1.12782 0
M  V30 25419 H 2372.05 -3.04774 0.672242 0
M  V30 25420 N 2372.35 -0.645724 -1.43764 0
M  V30 25421 C 2373.26 0.0512544 -2.34544 0
M  V30 25422 C 2374.28 0.820193 -1.53456 0
M  V30 25423 O 2375.45 0.769143 -1.86135 0
M  V30 25424 C 2372.52 1.01081 -3.31638 0
M  V30 25425 C 2371.58 0.239637 -4.28631 0
M  V30 25426 C 2370.81 1.15349 -5.21086 0
M  V30 25427 O 2371.03 2.39259 -5.17794 0
M  V30 25428 O 2369.97 0.629932 -5.98595 0
M  V30 25429 H 2373.79 -0.69577 -2.95623 0
M  V30 25430 H 2371.38 -0.405908 -1.4378 0
M  V30 25431 H 2373.26 1.56247 -3.91363 0
M  V30 25432 H 2371.94 1.73819 -2.73072 0
M  V30 25433 H 2370.84 -0.355422 -3.72408 0
M  V30 25434 H 2372.18 -0.448023 -4.90157 0
M  V30 25435 N 2373.83 1.5277 -0.38717 0
M  V30 25436 C 2375.07 2.01851 0.19599 0
M  V30 25437 C 2375.41 1.27321 1.46639 0
M  V30 25438 O 2374.68 0.373065 1.90889 0
M  V30 25439 C 2374.97 3.57071 0.466073 0
M  V30 25440 C 2374.82 4.42272 -0.819463 0
M  V30 25441 C 2376.14 4.21749 1.2576 0
M  V30 25442 H 2373.26 0.733691 0.0697579 0
M  V30 25443 H 2375.9 1.8285 -0.516318 0
M  V30 25444 H 2374.05 3.73392 1.07287 0
M  V30 25445 H 2375.72 4.37707 -1.45638 0
M  V30 25446 H 2373.96 4.09369 -1.43524 0
M  V30 25447 H 2374.63 5.4889 -0.585161 0
M  V30 25448 H 2377.11 4.09393 0.744095 0
M  V30 25449 H 2375.99 5.30339 1.41532 0
M  V30 25450 H 2376.25 3.7924 2.27221 0
M  V30 25451 N 2375.31 0.116931 1.57166 0
M  V30 25452 C 2376.25 -0.85138 2.16458 0
M  V30 25453 C 2377.25 -1.27684 1.11325 0
M  V30 25454 O 2378.45 -1.24882 1.29632 0
M  V30 25455 H 2374.83 -0.29266 0.692715 0
M  V30 25456 H 2376.8 -0.326797 2.96605 0
M  V30 25457 C 2375.55 -2.09241 2.77693 0
M  V30 25458 H 2374.87 -1.77396 3.58289 0
M  V30 25459 H 2376.31 -2.75004 3.22721 0
M  V30 25460 C 2374.77 -2.88082 1.74672 0
M  V30 25461 O 2375.3 -3.83394 1.19884 0
M  V30 25462 N 2373.51 -2.52035 1.44661 0
M  V30 25463 H 2373.05 -1.74596 1.89405 0
M  V30 25464 H 2373.01 -3.05083 0.759729 0
M  V30 25465 N 2376.78 -1.56818 -0.156836 0
M  V30 25466 C 2378.03 -1.81997 -0.869472 0
M  V30 25467 C 2378.35 -0.696577 -1.82776 0
M  V30 25468 O 2379.55 -0.833703 -2.58383 0
M  V30 25469 C 2378.01 -3.2254 -1.59674 0
M  V30 25470 C 2377.62 -4.42788 -0.681354 0
M  V30 25471 C 2379.36 -3.57002 -2.29674 0
M  V30 25472 C 2377.27 -5.74354 -1.40968 0
M  V30 25473 H 2376.2 -0.678714 -0.328426 0
M  V30 25474 H 2378.85 -1.83092 -0.122268 0
M  V30 25475 H 2377.23 -3.15804 -2.38922 0
M  V30 25476 H 2378.4 -4.60739 0.0751976 0
M  V30 25477 H 2376.72 -4.16302 -0.0902699 0
M  V30 25478 H 2379.32 -4.52549 -2.84786 0
M  V30 25479 H 2379.66 -2.82581 -3.05702 0
M  V30 25480 H 2380.19 -3.65355 -1.57355 0
M  V30 25481 H 2376.93 -6.51843 -0.691446 0
M  V30 25482 H 2376.45 -5.60356 -2.13919 0
M  V30 25483 H 2378.13 -6.16812 -1.95326 0
M  V30 25484 N 2378.26 0.425871 -1.51737 0
M  V30 25485 C 2379.68 0.763235 -1.40167 0
M  V30 25486 C 2379.88 1.95376 -0.492996 0
M  V30 25487 O 2378.93 2.52455 0.0475371 0
M  V30 25488 C 2380.25 1.03286 -2.82405 0
M  V30 25489 C 2381.8 1.13659 -2.91634 0
M  V30 25490 C 2382.27 1.43908 -4.34804 0
M  V30 25491 N 2383.76 1.50808 -4.37962 0
M  V30 25492 C 2384.5 1.75807 -5.45783 0
M  V30 25493 N 2383.99 1.98522 -6.63748 0
M  V30 25494 N 2385.79 1.77684 -5.33277 0
M  V30 25495 H 2377.94 -0.358037 -2.09361 0
M  V30 25496 H 2380.2 -0.097826 -0.942939 0
M  V30 25497 H 2379.91 0.230634 -3.50943 0
M  V30 25498 H 2379.78 1.95749 -3.22432 0
M  V30 25499 H 2382.17 1.92943 -2.23287 0
M  V30 25500 H 2382.25 0.190711 -2.55088 0
M  V30 25501 H 2381.89 0.651482 -5.03704 0
M  V30 25502 H 2381.82 2.39721 -4.68872 0
M  V30 25503 H 2384.31 1.35111 -3.52921 0
M  V30 25504 H 2384.63 2.17 -7.41708 0
M  V30 25505 H 2382.97 1.95821 -6.66843 0
M  V30 25506 H 2386.16 1.59465 -4.401 0
M  V30 25507 H 2386.33 1.96829 -6.17384 0
M  V30 25508 N 2379.74 1.42077 0.682052 0
M  V30 25509 C 2380.67 1.4777 1.80793 0
M  V30 25510 C 2381.65 0.334983 1.66769 0
M  V30 25511 O 2382.84 0.548297 1.86299 0
M  V30 25512 C 2379.97 1.37235 3.19036 0
M  V30 25513 C 2378.92 2.49459 3.47785 0
M  V30 25514 C 2378.25 2.23983 4.85526 0
M  V30 25515 C 2379.55 3.91783 3.45404 0
M  V30 25516 H 2381.24 2.42 1.76285 0
M  V30 25517 H 2378.79 1.16477 0.846701 0
M  V30 25518 H 2380.74 1.39828 3.97525 0
M  V30 25519 H 2379.46 0.394964 3.24203 0
M  V30 25520 H 2378.12 2.46171 2.71653 0
M  V30 25521 H 2377.77 1.24556 4.87334 0
M  V30 25522 H 2377.47 2.99193 5.05725 0
M  V30 25523 H 2378.99 2.28314 5.66308 0
M  V30 25524 H 2380.41 3.96712 4.13875 0
M  V30 25525 H 2378.81 4.66784 3.77137 0
M  V30 25526 H 2379.88 4.1897 2.44115 0
M  V30 25527 N 2381.22 -0.917649 1.28129 0
M  V30 25528 C 2382.64 -1.19536 1.05751 0
M  V30 25529 C 2382.84 -2.00479 -0.202598 0
M  V30 25530 O 2381.89 -2.35711 -0.905341 0
M  V30 25531 C 2383.2 -1.93374 2.30276 0
M  V30 25532 C 2384.75 -2.06272 2.35416 0
M  V30 25533 C 2385.23 -2.83517 3.59697 0
M  V30 25534 N 2386.72 -2.91081 3.60314 0
M  V30 25535 C 2387.45 -3.5134 4.53153 0
M  V30 25536 N 2386.95 -4.12909 5.56307 0
M  V30 25537 N 2388.74 -3.48841 4.40757 0
M  V30 25538 H 2380.89 -0.377148 2.09025 0
M  V30 25539 H 2383.16 -0.229494 0.919802 0
M  V30 25540 H 2382.86 -1.41323 3.22057 0
M  V30 25541 H 2382.74 -2.93943 2.36384 0
M  V30 25542 H 2385.12 -2.57506 1.44134 0
M  V30 25543 H 2385.2 -1.04891 2.33305 0
M  V30 25544 H 2384.85 -2.32965 4.5132 0
M  V30 25545 H 2384.78 -3.85205 3.59061 0
M  V30 25546 H 2387.27 -2.47333 2.85718 0
M  V30 25547 H 2387.58 -4.56858 6.23298 0
M  V30 25548 H 2385.93 -4.11425 5.60138 0
M  V30 25549 H 2389.12 -2.99948 3.59373 0
M  V30 25550 H 2389.29 -3.95511 5.13298 0
M  V30 25551 N 2382.7 -1.10314 -1.12555 0
M  V30 25552 C 2383.61 -0.763181 -2.21839 0
M  V30 25553 C 2384.62 0.23877 -1.72354 0
M  V30 25554 O 2385.8 0.0778393 -2.0125 0
M  V30 25555 C 2382.86 -0.198693 -3.4613 0
M  V30 25556 C 2381.93 -1.25776 -4.10462 0
M  V30 25557 C 2381.16 -0.720113 -5.28819 0
M  V30 25558 O 2381.38 0.453893 -5.68591 0
M  V30 25559 O 2380.32 -1.47945 -5.83435 0
M  V30 25560 H 2384.14 -1.67536 -2.53309 0
M  V30 25561 H 2381.73 -0.878179 -1.20865 0
M  V30 25562 H 2383.61 0.112326 -4.2125 0
M  V30 25563 H 2382.28 0.686363 -3.1634 0
M  V30 25564 H 2381.19 -1.62162 -3.37127 0
M  V30 25565 H 2382.52 -2.11579 -4.44404 0
M  V30 25566 N 2384.18 1.29948 -0.891694 0
M  V30 25567 C 2385.11 2.3039 -0.379838 0
M  V30 25568 C 2386.09 1.61271 0.540891 0
M  V30 25569 O 2387.27 1.88835 0.453319 0
M  V30 25570 C 2384.4 3.44982 0.400593 0
M  V30 25571 C 2383.36 4.25845 -0.42898 0
M  V30 25572 C 2382.68 5.32555 0.478463 0
M  V30 25573 C 2383.98 4.94724 -1.67467 0
M  V30 25574 H 2385.68 2.73452 -1.21919 0
M  V30 25575 H 2383.22 1.31461 -0.587698 0
M  V30 25576 H 2385.17 4.14317 0.769361 0
M  V30 25577 H 2383.9 3.00742 1.27365 0
M  V30 25578 H 2382.56 3.58207 -0.779974 0
M  V30 25579 H 2382.21 4.84561 1.34943 0
M  V30 25580 H 2381.91 5.87555 -0.0728465 0
M  V30 25581 H 2383.43 6.04744 0.843599 0
M  V30 25582 H 2384.84 5.5654 -1.3761 0
M  V30 25583 H 2383.24 5.5962 -2.16668 0
M  V30 25584 H 2384.31 4.20468 -2.41525 0
M  V30 25585 N 2385.65 0.653339 1.4342 0
M  V30 25586 C 2386.93 0.0966925 1.95361 0
M  V30 25587 C 2387.31 -1.38328 1.59463 0
M  V30 25588 O 2386.66 -2.10883 0.879815 0
M  V30 25589 C 2386.87 0.343049 3.4731 0
M  V30 25590 C 2388.22 0.248054 4.23875 0
M  V30 25591 O 2389.24 0.275615 3.55132 0
M  V30 25592 O 2388.1 0.171867 5.4623 0
M  V30 25593 H 2385.19 -0.00954838 0.826945 0
M  V30 25594 H 2387.74 0.726585 1.53359 0
M  V30 25595 H 2386.51 1.36912 3.66566 0
M  V30 25596 H 2386.13 -0.319905 3.96311 0
M  V30 25597 N 2387.13 -1.52563 0.395266 0
M  V30 25598 C 2388.06 -2.29538 -0.428344 0
M  V30 25599 C 2389.04 -1.33171 -1.05828 0
M  V30 25600 O 2390.23 -1.62069 -1.06992 0
M  V30 25601 C 2387.36 -3.10659 -1.55268 0
M  V30 25602 C 2386.31 -4.14959 -1.04848 0
M  V30 25603 C 2385.64 -4.84341 -2.26535 0
M  V30 25604 C 2386.94 -5.22179 -0.112232 0
M  V30 25605 H 2388.63 -2.98635 0.213919 0
M  V30 25606 H 2386.18 -1.43622 0.104323 0
M  V30 25607 H 2388.13 -3.63269 -2.13573 0
M  V30 25608 H 2386.85 -2.39306 -2.22262 0
M  V30 25609 H 2385.51 -3.63339 -0.487921 0
M  V30 25610 H 2385.16 -4.0953 -2.92052 0
M  V30 25611 H 2384.86 -5.54841 -1.93457 0
M  V30 25612 H 2386.39 -5.39758 -2.85471 0
M  V30 25613 H 2387.8 -5.70113 -0.603652 0
M  V30 25614 H 2386.2 -5.99961 0.129073 0
M  V30 25615 H 2387.27 -4.77619 0.837136 0
M  V30 25616 N 2388.61 -0.125265 -1.57101 0
M  V30 25617 C 2389.57 0.808342 -2.14473 0
M  V30 25618 C 2390.57 1.19031 -1.08112 0
M  V30 25619 O 2391.76 1.11479 -1.33858 0
M  V30 25620 C 2388.89 2.09397 -2.69008 0
M  V30 25621 H 2390.09 0.309644 -2.98297 0
M  V30 25622 H 2387.64 0.124024 -1.55807 0
M  V30 25623 H 2388.38 2.63684 -1.88789 0
M  V30 25624 H 2388.16 1.82951 -3.46802 0
M  V30 25625 H 2389.65 2.76122 -3.13283 0
M  V30 25626 N 2390.09 1.56899 0.148518 0
M  V30 25627 C 2391.02 1.94752 1.20849 0
M  V30 25628 C 2392.03 0.843176 1.39264 0
M  V30 25629 O 2393.22 1.12159 1.38862 0
M  V30 25630 C 2390.32 2.205 2.57358 0
M  V30 25631 C 2389.49 3.51781 2.59941 0
M  V30 25632 C 2388.55 3.66087 3.77977 0
M  V30 25633 O 2387.58 4.38494 3.62921 0
M  V30 25634 N 2388.78 3.02637 4.95369 0
M  V30 25635 H 2391.55 2.86281 0.886754 0
M  V30 25636 H 2389.11 1.5833 0.338094 0
M  V30 25637 H 2391.1 2.27313 3.34829 0
M  V30 25638 H 2389.67 1.35243 2.8183 0
M  V30 25639 H 2388.89 3.56422 1.68396 0
M  V30 25640 H 2390.18 4.38125 2.58696 0
M  V30 25641 H 2389.58 2.43724 5.10505 0
M  V30 25642 H 2388.13 3.15014 5.70622 0
M  V30 25643 N 2391.57 -0.417818 1.51961 0
M  V30 25644 C 2392.48 -1.53333 1.77556 0
M  V30 25645 C 2393.49 -1.60969 0.660684 0
M  V30 25646 O 2394.67 -1.77846 0.945131 0
M  V30 25647 C 2391.73 -2.89148 1.91296 0
M  V30 25648 C 2390.79 -2.9147 3.15189 0
M  V30 25649 C 2390.03 -4.20808 3.28263 0
M  V30 25650 O 2390.25 -5.1424 2.46807 0
M  V30 25651 O 2389.18 -4.2981 4.21364 0
M  V30 25652 H 2393.01 -1.34642 2.72223 0
M  V30 25653 H 2390.59 -0.602804 1.36699 0
M  V30 25654 H 2392.48 -3.69717 2.02206 0
M  V30 25655 H 2391.15 -3.07925 0.998183 0
M  V30 25656 H 2390.06 -2.09786 3.09743 0
M  V30 25657 H 2391.39 -2.77641 4.06419 0
M  V30 25658 N 2393.04 -1.42436 -0.674508 0
M  V30 25659 C 2393.99 -1.45937 -1.78804 0
M  V30 25660 C 2394.96 -0.3113 -1.63157 0
M  V30 25661 O 2396.15 -0.515415 -1.83707 0
M  V30 25662 C 2393.29 -1.36779 -3.16837 0
M  V30 25663 C 2392.4 -2.61623 -3.43769 0
M  V30 25664 C 2391.53 -2.44605 -4.71531 0
M  V30 25665 C 2390.57 -3.64822 -4.91499 0
M  V30 25666 N 2389.71 -3.46744 -6.10502 0
M  V30 25667 H 2394.55 -2.41097 -1.75147 0
M  V30 25668 H 2392.09 -1.19699 -0.855019 0
M  V30 25669 H 2394.04 -1.29466 -3.96603 0
M  V30 25670 H 2392.67 -0.452145 -3.19618 0
M  V30 25671 H 2391.73 -2.79301 -2.58254 0
M  V30 25672 H 2393.04 -3.50984 -3.54417 0
M  V30 25673 H 2392.19 -2.3488 -5.59389 0
M  V30 25674 H 2390.93 -1.52734 -4.63167 0
M  V30 25675 H 2389.94 -3.74979 -4.02083 0
M  V30 25676 H 2391.16 -4.57674 -5.01708 0
M  V30 25677 H 2389.11 -2.57591 -6.0331 0
M  V30 25678 H 2389.02 -4.29693 -6.22013 0
M  V30 25679 H 2390.29 -3.40832 -7.01038 0
M  V30 25680 N 2394.52 0.910841 -1.28614 0
M  V30 25681 C 2395.75 1.69397 -1.18795 0
M  V30 25682 C 2396.16 1.87097 0.253006 0
M  V30 25683 O 2395.52 1.40005 1.17068 0
M  V30 25684 C 2395.57 3.08454 -1.88516 0
M  V30 25685 O 2395.29 2.9157 -3.26984 0
M  V30 25686 C 2396.79 4.02836 -1.85036 0
M  V30 25687 H 2394.01 0.529431 -0.412243 0
M  V30 25688 H 2396.56 1.13981 -1.6979 0
M  V30 25689 H 2394.71 3.60679 -1.41385 0
M  V30 25690 H 2395.13 3.79602 -3.61943 0
M  V30 25691 H 2396.6 4.97863 -2.38404 0
M  V30 25692 H 2397.08 4.31413 -0.823379 0
M  V30 25693 H 2397.68 3.56541 -2.31859 0
M  V30 25694 N 2396 1.10909 1.11969 0
M  V30 25695 C 2397.25 0.852852 1.83224 0
M  V30 25696 C 2397.57 -0.623309 1.8477 0
M  V30 25697 O 2396.84 -1.45267 1.31432 0
M  V30 25698 H 2395.42 0.312519 0.678484 0
M  V30 25699 H 2398.08 1.40036 1.35558 0
M  V30 25700 H 2397.18 1.2201 2.87263 0
M  V30 25701 N 2397.48 -1.29474 0.898573 0
M  V30 25702 C 2398.72 -1.96262 0.534099 0
M  V30 25703 C 2399.08 -1.69552 -0.909385 0
M  V30 25704 O 2398.37 -0.997377 -1.63594 0
M  V30 25705 C 2398.57 -3.49194 0.761459 0
M  V30 25706 C 2398.4 -3.90771 2.22549 0
M  V30 25707 C 2397.17 -4.15696 2.87271 0
M  V30 25708 C 2399.36 -4.02576 3.20058 0
M  V30 25709 N 2397.35 -4.43833 4.24129 0
M  V30 25710 C 2398.72 -4.34751 4.42031 0
M  V30 25711 C 2400.77 -3.85047 3.15663 0
M  V30 25712 C 2399.47 -4.51225 5.60168 0
M  V30 25713 C 2401.5 -4.0273 4.33085 0
M  V30 25714 C 2400.86 -4.35263 5.53828 0
M  V30 25715 H 2396.96 -0.742621 0.245027 0
M  V30 25716 H 2399.55 -1.56435 1.15915 0
M  V30 25717 H 2397.72 -3.88046 0.1658 0
M  V30 25718 H 2399.45 -4.03073 0.362533 0
M  V30 25719 H 2396.2 -4.09413 2.38071 0
M  V30 25720 H 2396.63 -4.62012 4.94848 0
M  V30 25721 H 2401.27 -3.58958 2.23402 0
M  V30 25722 H 2398.99 -4.7615 6.52922 0
M  V30 25723 H 2402.57 -3.9062 4.31169 0
M  V30 25724 H 2401.45 -4.48661 6.43174 0
M  V30 25725 N 2398.96 -0.660936 -1.43071 0
M  V30 25726 C 2400.2 -0.17748 -2.01721 0
M  V30 25727 C 2400.53 1.21123 -1.52182 0
M  V30 25728 O 2399.79 1.82417 -0.708691 0
M  V30 25729 C 2400.09 -0.145626 -3.57103 0
M  V30 25730 C 2399.75 -1.47713 -4.26019 0
M  V30 25731 C 2398.41 -1.84173 -4.4456 0
M  V30 25732 C 2400.77 -2.35467 -4.64978 0
M  V30 25733 C 2398.09 -3.08039 -4.99329 0
M  V30 25734 C 2400.45 -3.58631 -5.2112 0
M  V30 25735 C 2399.11 -3.95278 -5.37877 0
M  V30 25736 H 2398.38 -0.0649447 -0.738148 0
M  V30 25737 H 2401.03 -0.853175 -1.71444 0
M  V30 25738 H 2399.33 0.613542 -3.86966 0
M  V30 25739 H 2401.03 0.24543 -4.00248 0
M  V30 25740 H 2397.62 -1.18346 -4.11937 0
M  V30 25741 H 2401.8 -2.08586 -4.50339 0
M  V30 25742 H 2397.06 -3.36471 -5.10487 0
M  V30 25743 H 2401.23 -4.26841 -5.50254 0
M  V30 25744 H 2398.86 -4.91336 -5.80081 0
M  V30 25745 N 2400.43 1.52351 -0.403352 0
M  V30 25746 C 2401.4 2.25448 0.413011 0
M  V30 25747 C 2402.4 1.27602 0.97849 0
M  V30 25748 O 2403.59 1.51589 0.858278 0
M  V30 25749 C 2400.72 3.02032 1.58081 0
M  V30 25750 H 2401.91 2.99039 -0.227147 0
M  V30 25751 H 2399.47 1.55522 -0.15575 0
M  V30 25752 H 2400.2 2.32776 2.258 0
M  V30 25753 H 2399.99 3.73863 1.18189 0
M  V30 25754 H 2401.48 3.57493 2.15843 0
M  V30 25755 N 2401.91 0.133594 1.57033 0
M  V30 25756 C 2402.84 -0.807528 2.19092 0
M  V30 25757 C 2403.82 -1.26679 1.13519 0
M  V30 25758 O 2405.01 -1.32677 1.41812 0
M  V30 25759 C 2402.14 -2.05207 2.80191 0
M  V30 25760 C 2401.09 -1.73008 3.91475 0
M  V30 25761 C 2400.42 -3.04614 4.39448 0
M  V30 25762 C 2401.72 -0.987077 5.12888 0
M  V30 25763 H 2403.41 -0.290351 2.97989 0
M  V30 25764 H 2400.96 -0.138214 1.43335 0
M  V30 25765 H 2402.91 -2.71515 3.22269 0
M  V30 25766 H 2401.64 -2.59275 1.98606 0
M  V30 25767 H 2400.29 -1.09083 3.49995 0
M  V30 25768 H 2399.94 -3.56645 3.54702 0
M  V30 25769 H 2399.64 -2.83838 5.145 0
M  V30 25770 H 2401.17 -3.72016 4.84187 0
M  V30 25771 H 2402.58 -1.55198 5.51894 0
M  V30 25772 H 2400.98 -0.879746 5.93616 0
M  V30 25773 H 2402.05 0.0236139 4.84894 0
M  V30 25774 N 2403.39 -1.56975 -0.140195 0
M  V30 25775 C 2404.64 -1.83357 -0.849973 0
M  V30 25776 C 2404.96 -0.715542 -1.81397 0
M  V30 25777 O 2404.23 0.26226 -1.94137 0
M  V30 25778 H 2402.81 -0.676461 -0.316874 0
M  V30 25779 H 2405.47 -1.94449 -0.132573 0
M  V30 25780 H 2404.57 -2.7853 -1.4081 0
M  V30 25781 N 2404.87 0.409753 -1.5218 0
M  V30 25782 C 2406.09 1.18305 -1.70349 0
M  V30 25783 C 2406.52 1.83534 -0.411919 0
M  V30 25784 O 2405.88 1.69981 0.630557 0
M  V30 25785 C 2405.92 2.22233 -2.83981 0
M  V30 25786 O 2405.03 3.2836 -2.49506 0
M  V30 25787 H 2404.37 0.345374 -0.567109 0
M  V30 25788 H 2406.9 0.48041 -1.9888 0
M  V30 25789 H 2406.91 2.66572 -3.08874 0
M  V30 25790 H 2405.58 1.74139 -3.77688 0
M  V30 25791 H 2404.16 2.89304 -2.35282 0
M  V30 25792 N 2406.35 1.42792 0.666944 0
M  V30 25793 C 2407.76 1.25891 0.981005 0
M  V30 25794 C 2407.96 0.16873 2.00792 0
M  V30 25795 O 2407.02 -0.457426 2.48322 0
M  V30 25796 C 2408.33 2.61851 1.47833 0
M  V30 25797 C 2409.88 2.6927 1.5957 0
M  V30 25798 C 2410.35 4.05616 2.12697 0
M  V30 25799 N 2411.85 4.0761 2.20019 0
M  V30 25800 C 2412.58 5.09931 2.62218 0
M  V30 25801 N 2412.08 6.22631 3.03813 0
M  V30 25802 N 2413.87 4.97286 2.62036 0
M  V30 25803 H 2406.02 2.12396 -0.0128264 0
M  V30 25804 H 2408.28 0.946296 0.0568091 0
M  V30 25805 H 2407.99 3.42522 0.798239 0
M  V30 25806 H 2407.86 2.86309 2.45574 0
M  V30 25807 H 2410.25 1.8894 2.26684 0
M  V30 25808 H 2410.33 2.48592 0.602976 0
M  V30 25809 H 2409.98 4.86406 1.46189 0
M  V30 25810 H 2409.91 4.2365 3.12775 0
M  V30 25811 H 2412.4 3.26253 1.90702 0
M  V30 25812 H 2412.71 6.96549 3.34722 0
M  V30 25813 H 2411.05 6.26124 3.01651 0
M  V30 25814 H 2414.25 4.08312 2.28908 0
M  V30 25815 H 2414.42 5.7716 2.94603 0
M  V30 25816 N 2407.82 -0.904008 1.29095 0
M  V30 25817 C 2409.05 -1.69292 1.19812 0
M  V30 25818 C 2409.47 -1.86583 -0.238448 0
M  V30 25819 O 2408.83 -1.38302 -1.17227 0
M  V30 25820 C 2408.88 -3.05732 1.91207 0
M  V30 25821 O 2407.98 -3.9375 1.22618 0
M  V30 25822 H 2407.33 -0.518019 0.415394 0
M  V30 25823 H 2409.86 -1.12964 1.70588 0
M  V30 25824 H 2409.87 -3.55902 1.99494 0
M  V30 25825 H 2408.54 -2.92466 2.95697 0
M  V30 25826 H 2407.12 -3.52184 1.2256 0
M  V30 25827 N 2409.3 -1.11501 -1.11379 0
M  V30 25828 C 2410.25 -0.743018 -2.15553 0
M  V30 25829 C 2411.24 0.253248 -1.58894 0
M  V30 25830 O 2412.43 0.0602607 -1.76897 0
M  V30 25831 C 2409.56 -0.188541 -3.42782 0
M  V30 25832 C 2408.64 -1.21251 -4.06398 0
M  V30 25833 N 2409.03 -2.40693 -4.4486 0
M  V30 25834 C 2407.33 -1.05559 -4.33328 0
M  V30 25835 C 2408.03 -3.06003 -4.94709 0
M  V30 25836 N 2407.01 -2.33481 -4.90905 0
M  V30 25837 H 2410.81 -1.65207 -2.43072 0
M  V30 25838 H 2408.33 -0.994351 -1.28399 0
M  V30 25839 H 2410.32 0.096096 -4.16789 0
M  V30 25840 H 2408.98 0.715093 -3.16728 0
M  V30 25841 H 2409.99 -2.78143 -4.36871 0
M  V30 25842 H 2406.67 -0.208445 -4.16979 0
M  V30 25843 H 2408.06 -4.07666 -5.34096 0
M  V30 25844 N 2410.78 1.28995 -0.905426 0
M  V30 25845 C 2412.03 1.94939 -0.533227 0
M  V30 25846 C 2412.35 1.71687 0.924588 0
M  V30 25847 O 2411.62 1.05186 1.65266 0
M  V30 25848 H 2410.2 0.721313 -0.194207 0
M  V30 25849 H 2412.86 1.57139 -1.15297 0
M  V30 25850 H 2411.96 3.03666 -0.720644 0
M  V30 25851 N 2412.26 0.668514 1.42719 0
M  V30 25852 C 2413.49 0.196384 2.05966 0
M  V30 25853 C 2413.9 -1.144 1.50193 0
M  V30 25854 O 2413.26 -1.70939 0.639238 0
M  V30 25855 C 2413.31 0.115879 3.61314 0
M  V30 25856 O 2413.03 1.40329 4.15017 0
M  V30 25857 C 2414.53 -0.380501 4.41664 0
M  V30 25858 H 2411.75 0.0969946 0.663953 0
M  V30 25859 H 2414.3 0.913478 1.82964 0
M  V30 25860 H 2412.45 -0.551864 3.83449 0
M  V30 25861 H 2412.87 1.27252 5.08829 0
M  V30 25862 H 2414.34 -0.385751 5.5065 0
M  V30 25863 H 2414.82 -1.41463 4.15794 0
M  V30 25864 H 2415.42 0.255284 4.24533 0
M  V30 25865 N 2413.74 -1.52135 0.411426 0
M  V30 25866 C 2414.67 -2.29979 -0.403974 0
M  V30 25867 C 2415.65 -1.34286 -1.0441 0
M  V30 25868 O 2416.83 -1.63194 -1.05268 0
M  V30 25869 C 2413.96 -3.12288 -1.51965 0
M  V30 25870 C 2412.92 -4.16048 -1.0044 0
M  V30 25871 C 2412.24 -4.86716 -2.21385 0
M  V30 25872 C 2413.54 -5.22269 -0.0568418 0
M  V30 25873 H 2415.24 -2.98391 0.245581 0
M  V30 25874 H 2412.78 -1.43503 0.11955 0
M  V30 25875 H 2414.74 -3.65514 -2.09708 0
M  V30 25876 H 2413.46 -2.41649 -2.19711 0
M  V30 25877 H 2412.12 -3.63836 -0.449357 0
M  V30 25878 H 2411.77 -4.12605 -2.87692 0
M  V30 25879 H 2411.47 -5.56861 -1.87561 0
M  V30 25880 H 2412.99 -5.42755 -2.7973 0
M  V30 25881 H 2414.41 -5.70721 -0.54315 0
M  V30 25882 H 2412.8 -5.99791 0.1927 0
M  V30 25883 H 2413.87 -4.76704 0.887747 0
M  V30 25884 O 2415.25 -0.282637 -1.59008 0
M  V30 25885 H 2415.95 0.285797 -1.9158 0
M  V30 END ATOM
M  V30 BEGIN BOND
M  V30 END BOND
M  V30 END CTAB
M  END
$$$$
