drugbank_target|P9WQN9 Diacylglycerol acyltransferase/mycolyltransferase Ag85C (DB02811; DB08558)
 OpenBabel12092119583D

  0  0  0     0  0            999 V3000
M  V30 BEGIN CTAB
M  V30 COUNTS 5076 5159 0 0 0
M  V30 BEGIN ATOM
M  V30 1 H -0.908 1.98254 -0.117106 0
M  V30 2 N 0 1.576 0 0
M  V30 3 C 0.933 2.03868 1.02534 0
M  V30 4 C 1.911 0.928543 1.3348 0
M  V30 5 O 3.095 1.19667 1.45644 0
M  V30 6 C 0.222 2.43627 2.35294 0
M  V30 7 C -0.732 3.65373 2.2001 0
M  V30 8 S 0.101 5.13292 1.52614 0
M  V30 9 C 1.257 5.56322 2.86805 0
M  V30 10 H 1.49 2.90518 0.631377 0
M  V30 11 H -0.977 1.52953 0.210867 0
M  V30 12 H 0.981 2.67203 3.11629 0
M  V30 13 H -0.358 1.57376 2.7183 0
M  V30 14 H -1.165 3.90944 3.18086 0
M  V30 15 H -1.563 3.418 1.51819 0
M  V30 16 H 0.729 5.58782 3.83104 0
M  V30 17 H 1.672 6.56266 2.65933 0
M  V30 18 H 2.08 4.83886 2.90714 0
M  V30 19 N 1.4781 -0.272755 1.55222 0
M  V30 20 C 2.7061 -1.02255 1.79865 0
M  V30 21 C 3.1211 -1.79924 0.572088 0
M  V30 22 O 2.4781 -1.76638 -0.458842 0
M  V30 23 C 2.5291 -1.98094 3.02392 0
M  V30 24 O 2.2501 -1.23572 4.20311 0
M  V30 25 C 3.7511 -2.84884 3.39641 0
M  V30 26 H 0.9711 -0.302057 0.599168 0
M  V30 27 H 3.5151 -0.303465 2.02236 0
M  V30 28 H 1.6701 -2.65465 2.82147 0
M  V30 29 H 2.0841 -1.88172 4.89583 0
M  V30 30 H 3.5581 -3.47927 4.28545 0
M  V30 31 H 4.0351 -3.54665 2.59055 0
M  V30 32 H 4.6411 -2.23003 3.62146 0
M  V30 33 N 2.9562 -1.48159 -0.537278 0
M  V30 34 C 4.2032 -1.55804 -1.29349 0
M  V30 35 C 4.5312 -0.228802 -1.9315 0
M  V30 36 O 3.7862 0.780242 -1.79473 0
M  V30 37 C 4.0852 -2.63956 -2.40961 0
M  V30 38 C 3.7512 -4.0662 -1.94861 0
M  V30 39 C 2.4132 -4.45452 -1.82006 0
M  V30 40 C 4.7652 -4.96055 -1.59933 0
M  V30 41 C 2.0932 -5.71531 -1.32547 0
M  V30 42 C 4.4452 -6.22617 -1.11939 0
M  V30 43 C 3.1092 -6.60312 -0.976951 0
M  V30 44 H 2.3792 -0.570129 -0.473322 0
M  V30 45 H 5.0262 -1.81845 -0.600372 0
M  V30 46 H 3.3312 -2.31747 -3.15912 0
M  V30 47 H 5.0282 -2.67089 -2.99107 0
M  V30 48 H 1.6182 -3.75949 -2.05815 0
M  V30 49 H 5.8022 -4.66738 -1.68728 0
M  V30 50 H 1.0582 -5.99468 -1.202 0
M  V30 51 H 5.2322 -6.91318 -0.839811 0
M  V30 52 H 2.8592 -7.57895 -0.591501 0
M  V30 53 N 4.4343 0.785586 -1.36625 0
M  V30 54 C 5.6813 1.54362 -1.31067 0
M  V30 55 C 6.0093 1.94195 0.10893 0
M  V30 56 O 5.2643 1.63262 1.07908 0
M  V30 57 C 5.5633 2.83007 -2.1827 0
M  V30 58 C 5.2293 2.62294 -3.6676 0
M  V30 59 C 3.8913 2.56353 -4.0723 0
M  V30 60 C 6.2433 2.43371 -4.6089 0
M  V30 61 C 3.5713 2.29461 -5.39967 0
M  V30 62 C 5.9233 2.18005 -5.93849 0
M  V30 63 C 4.5873 2.105 -6.3344 0
M  V30 64 H 3.8573 0.564851 -0.479609 0
M  V30 65 H 6.5043 0.906028 -1.68711 0
M  V30 66 H 4.8093 3.51253 -1.73576 0
M  V30 67 H 6.5063 3.40817 -2.11292 0
M  V30 68 H 3.0963 2.67774 -3.34656 0
M  V30 69 H 7.2803 2.46959 -4.30494 0
M  V30 70 H 2.5363 2.22135 -5.69619 0
M  V30 71 H 6.7103 2.02359 -6.66351 0
M  V30 72 H 4.3373 1.89425 -7.36222 0
M  V30 73 N 5.9124 1.20967 1.01018 0
M  V30 74 C 6.8224 0.980157 2.13143 0
M  V30 75 C 7.8384 -0.0660665 1.73875 0
M  V30 76 O 9.0144 0.122821 2.01025 0
M  V30 77 C 6.0794 0.54216 3.42435 0
M  V30 78 C 5.1404 1.65999 3.95908 0
M  V30 79 C 4.3734 1.2428 5.19028 0
M  V30 80 O 4.5964 0.114196 5.70286 0
M  V30 81 O 3.5304 2.05271 5.65816 0
M  V30 82 H 7.3564 1.91913 2.35379 0
M  V30 83 H 4.9414 0.994099 1.11526 0
M  V30 84 H 6.8234 0.30744 4.20277 0
M  V30 85 H 5.4984 -0.36815 3.216 0
M  V30 86 H 4.4054 1.94906 3.19316 0
M  V30 87 H 5.7384 2.54753 4.21143 0
M  V30 88 N 7.3905 -1.2043 1.01659 0
M  V30 89 C 8.3225 -2.22626 0.544988 0
M  V30 90 C 9.3355 -1.58479 -0.372609 0
M  V30 91 O 10.5245 -1.77679 -0.170958 0
M  V30 92 C 7.6245 -3.38141 -0.22663 0
M  V30 93 C 6.7975 -4.31877 0.692876 0
M  V30 94 C 5.8565 -5.26191 -0.0311616 0
M  V30 95 O 4.8825 -5.6612 0.591343 0
M  V30 96 N 6.0845 -5.65618 -1.30601 0
M  V30 97 H 8.8495 -2.63716 1.42388 0
M  V30 98 H 6.4105 -1.34971 0.894116 0
M  V30 99 H 8.4025 -3.98239 -0.72024 0
M  V30 100 H 6.9725 -2.95943 -1.00681 0
M  V30 101 H 6.1925 -3.69746 1.36679 0
M  V30 102 H 7.4805 -4.91426 1.31824 0
M  V30 103 H 6.8785 -5.3519 -1.83269 0
M  V30 104 H 5.4355 -6.28025 -1.74435 0
M  V30 105 N 8.8686 -0.792821 -1.36206 0
M  V30 106 C 10.1146 -0.36733 -1.99446 0
M  V30 107 C 10.4476 1.05917 -1.62774 0
M  V30 108 O 9.7226 1.7324 -0.88421 0
M  V30 109 C 10.0056 -0.535044 -3.56103 0
M  V30 110 C 9.8586 -2.00548 -4.02617 0
M  V30 111 C 11.1776 0.0478191 -4.40074 0
M  V30 112 H 8.2966 -0.134941 -0.724541 0
M  V30 113 H 10.9386 -0.999794 -1.61568 0
M  V30 114 H 9.0886 0.00336329 -3.885 0
M  V30 115 H 10.7606 -2.60521 -3.80692 0
M  V30 116 H 9.0036 -2.50686 -3.54032 0
M  V30 117 H 9.6746 -2.07377 -5.11565 0
M  V30 118 H 12.1506 -0.411822 -4.14057 0
M  V30 119 H 11.0266 -0.0995336 -5.4881 0
M  V30 120 H 11.2876 1.14025 -4.27142 0
M  V30 121 N 10.3467 1.47872 -0.545128 0
M  V30 122 C 11.7627 1.5829 -0.204032 0
M  V30 123 C 11.9627 1.54529 1.29317 0
M  V30 124 O 11.0187 1.44232 2.07252 0
M  V30 125 C 12.3317 2.89304 -0.819987 0
M  V30 126 C 13.8797 3.02864 -0.790105 0
M  V30 127 C 14.3547 4.3656 -1.38491 0
M  V30 128 N 15.8457 4.43165 -1.34755 0
M  V30 129 C 16.5807 5.45153 -1.77753 0
M  V30 130 N 16.0767 6.54016 -2.2855 0
M  V30 131 N 17.8697 5.36125 -1.68897 0
M  V30 132 H 10.0207 1.4856 -1.51802 0
M  V30 133 H 12.2837 0.706305 -0.632327 0
M  V30 134 H 11.9897 2.97757 -1.87173 0
M  V30 135 H 11.8637 3.75957 -0.305915 0
M  V30 136 H 14.2507 2.94014 0.252913 0
M  V30 137 H 14.3317 2.17782 -1.34181 0
M  V30 138 H 13.9757 4.46164 -2.42693 0
M  V30 139 H 13.9057 5.20353 -0.808754 0
M  V30 140 H 16.3967 3.65083 -0.975855 0
M  V30 141 H 16.7097 7.27994 -2.59314 0
M  V30 142 H 15.0547 6.54938 -2.32553 0
M  V30 143 H 18.2457 4.49975 -1.28998 0
M  V30 144 H 18.4187 6.15472 -2.02726 0
M  V30 145 N 11.8248 0.280983 1.55075 0
M  V30 146 C 13.2408 -0.0729964 1.59433 0
M  V30 147 C 13.4408 -1.5411 1.29817 0
M  V30 148 O 12.4968 -2.29086 1.06187 0
M  V30 149 C 13.8098 0.306921 2.9913 0
M  V30 150 C 15.3578 0.254023 3.11968 0
M  V30 151 C 15.8328 0.608467 4.5394 0
M  V30 152 N 17.3238 0.560241 4.59799 0
M  V30 153 C 18.0588 0.80722 5.6769 0
M  V30 154 N 17.5548 1.11912 6.83701 0
M  V30 155 N 19.3478 0.735623 5.57266 0
M  V30 156 H 11.4988 1.238 1.7259 0
M  V30 157 H 13.7618 0.500547 0.805082 0
M  V30 158 H 13.4678 1.32816 3.25657 0
M  V30 159 H 13.3418 -0.349363 3.75579 0
M  V30 160 H 15.7288 -0.75794 2.852 0
M  V30 161 H 15.8098 0.944649 2.37718 0
M  V30 162 H 15.4538 1.61814 4.81434 0
M  V30 163 H 15.3838 -0.104013 5.26497 0
M  V30 164 H 17.8748 0.329288 3.76463 0
M  V30 165 H 18.1878 1.29409 7.61888 0
M  V30 166 H 16.5328 1.15695 6.85303 0
M  V30 167 H 19.7238 0.491752 4.6551 0
M  V30 168 H 19.8968 0.931482 6.4127 0
M  V30 169 N 13.3029 -1.57598 0.00835791 0
M  V30 170 C 14.2329 -2.1198 -0.979113 0
M  V30 171 C 15.2139 -1.03091 -1.35301 0
M  V30 172 O 16.3989 -1.30818 -1.43528 0
M  V30 173 C 13.5289 -2.62995 -2.26828 0
M  V30 174 C 12.4829 -3.76485 -2.03576 0
M  V30 175 C 11.8089 -4.13846 -3.38579 0
M  V30 176 C 13.1089 -5.0342 -1.39161 0
M  V30 177 H 14.8029 -2.94738 -0.526281 0
M  V30 178 H 12.3489 -1.41783 -0.251704 0
M  V30 179 H 14.3019 -2.99669 -2.96271 0
M  V30 180 H 13.0259 -1.7737 -2.7424 0
M  V30 181 H 11.6849 -3.40217 -1.36557 0
M  V30 182 H 11.3329 -3.25232 -3.83709 0
M  V30 183 H 11.0329 -4.90312 -3.23834 0
M  V30 184 H 12.5569 -4.53086 -4.09323 0
M  V30 185 H 13.9709 -5.37812 -1.98573 0
M  V30 186 H 12.3679 -5.84746 -1.34878 0
M  V30 187 H 13.4379 -4.83548 -0.361868 0
M  V30 188 N 14.781 0.264519 -1.55364 0
M  V30 189 C 16.197 0.61215 -1.47394 0
M  V30 190 C 16.397 1.89134 -0.695018 0
M  V30 191 O 15.453 2.51563 -0.217275 0
M  V30 192 C 16.766 0.731235 -2.91674 0
M  V30 193 C 18.314 0.82473 -3.01939 0
M  V30 194 C 18.789 0.975522 -4.4749 0
M  V30 195 N 20.28 1.04083 -4.51354 0
M  V30 196 C 21.015 1.17646 -5.61201 0
M  V30 197 N 20.511 1.27874 -6.80896 0
M  V30 198 N 22.304 1.20823 -5.48961 0
M  V30 199 H 14.455 -0.575456 -2.04456 0
M  V30 200 H 16.718 -0.196099 -0.927496 0
M  V30 201 H 16.424 -0.138392 -3.51428 0
M  V30 202 H 16.298 1.60883 -3.41169 0
M  V30 203 H 18.685 1.68482 -2.42276 0
M  V30 204 H 18.766 -0.0776479 -2.55682 0
M  V30 205 H 18.41 0.120058 -5.07758 0
M  V30 206 H 18.34 1.89268 -4.91412 0
M  V30 207 H 20.831 0.973846 -3.65136 0
M  V30 208 H 21.144 1.38081 -7.60364 0
M  V30 209 H 19.489 1.24863 -6.83692 0
M  V30 210 H 22.68 1.12469 -4.54388 0
M  V30 211 H 22.853 1.31049 -6.3461 0
M  V30 212 N 16.2591 1.48442 0.529413 0
M  V30 213 C 17.4841 1.60406 1.31471 0
M  V30 214 C 17.9091 0.264738 1.86228 0
M  V30 215 O 17.2671 -0.763668 1.64432 0
M  V30 216 C 17.3151 2.65419 2.44101 0
M  V30 217 O 16.4191 2.22618 3.47153 0
M  V30 218 H 15.7601 0.537863 0.389357 0
M  V30 219 H 18.2901 1.94432 0.636965 0
M  V30 220 H 18.3001 2.86709 2.90279 0
M  V30 221 H 16.9751 3.62652 2.03608 0
M  V30 222 H 15.5521 2.11543 3.0709 0
M  V30 223 N 17.7372 -0.778329 1.37039 0
M  V30 224 C 18.7002 -1.87301 1.32102 0
M  V30 225 C 19.7002 -1.59198 0.226405 0
M  V30 226 O 20.8902 -1.67403 0.481861 0
M  V30 227 C 18.0222 -3.24309 1.05055 0
M  V30 228 H 19.2152 -1.93093 2.29467 0
M  V30 229 H 16.7682 -0.977358 1.21973 0
M  V30 230 H 17.5032 -3.24196 0.0819373 0
M  V30 231 H 17.2882 -3.46098 1.84279 0
M  V30 232 H 18.7782 -4.04382 1.04234 0
M  V30 233 N 19.2153 -1.21501 -1.00376 0
M  V30 234 C 20.1783 -0.976927 -2.07337 0
M  V30 235 C 21.1783 0.0525322 -1.60714 0
M  V30 236 O 22.3683 -0.184869 -1.73216 0
M  V30 237 C 19.5003 -0.473423 -3.37597 0
M  V30 238 H 20.6933 -1.92587 -2.29892 0
M  V30 239 H 18.2463 -1.03217 -1.17371 0
M  V30 240 H 18.9813 0.480379 -3.20722 0
M  V30 241 H 18.7663 -1.216 -3.72768 0
M  V30 242 H 20.2563 -0.32675 -4.1632 0
M  V30 243 N 20.6934 1.19889 -1.02296 0
M  V30 244 C 21.9214 1.9339 -0.735399 0
M  V30 245 C 22.3364 1.75148 0.704887 0
M  V30 246 O 21.6934 1.06954 1.47875 0
M  V30 247 C 21.7444 3.45313 -1.06962 0
M  V30 248 O 21.4654 3.62964 -2.45334 0
M  V30 249 C 22.9664 4.35948 -0.804021 0
M  V30 250 H 20.1864 0.61448 -0.269546 0
M  V30 251 H 22.7304 1.522 -1.36585 0
M  V30 252 H 20.8854 3.84359 -0.484455 0
M  V30 253 H 21.2994 4.56886 -2.57595 0
M  V30 254 H 22.7734 5.41174 -1.0879 0
M  V30 255 H 23.2504 4.3842 0.261691 0
M  V30 256 H 23.8564 4.02574 -1.37164 0
M  V30 257 N 22.1715 0.800033 1.35784 0
M  V30 258 C 23.3995 0.389606 2.03199 0
M  V30 259 C 23.8145 -0.997375 1.60306 0
M  V30 260 O 23.1715 -1.64154 0.797481 0
M  V30 261 C 23.2225 0.455855 3.58614 0
M  V30 262 O 22.9435 1.78815 3.99946 0
M  V30 263 C 24.4445 0.0374032 4.43284 0
M  V30 264 H 21.6645 0.159132 0.651857 0
M  V30 265 H 24.2085 1.08183 1.73541 0
M  V30 266 H 22.3635 -0.188057 3.86943 0
M  V30 267 H 22.7775 1.74636 4.94573 0
M  V30 268 H 24.2515 0.134882 5.51835 0
M  V30 269 H 24.7285 -1.01651 4.27275 0
M  V30 270 H 25.3345 0.654215 4.20238 0
M  V30 271 N 23.6496 -1.47581 0.552962 0
M  V30 272 C 24.5796 -2.32762 -0.185451 0
M  V30 273 C 25.5606 -1.43527 -0.912905 0
M  V30 274 O 26.7456 -1.72388 -0.894201 0
M  V30 275 C 23.8756 -3.25219 -1.21859 0
M  V30 276 C 22.8296 -4.23661 -0.607864 0
M  V30 277 C 22.1556 -5.05413 -1.74533 0
M  V30 278 C 23.4556 -5.20481 0.435582 0
M  V30 279 H 25.1496 -2.94749 0.525684 0
M  V30 280 H 22.6956 -1.41738 0.254251 0
M  V30 281 H 24.6486 -3.8365 -1.7433 0
M  V30 282 H 23.3726 -2.61279 -1.95961 0
M  V30 283 H 22.0316 -3.66451 -0.104489 0
M  V30 284 H 21.6796 -4.3788 -2.47529 0
M  V30 285 H 21.3796 -5.72059 -1.34249 0
M  V30 286 H 22.9036 -5.66701 -2.27338 0
M  V30 287 H 24.3176 -5.733 -0.00290157 0
M  V30 288 H 22.7146 -5.95305 0.757067 0
M  V30 289 H 23.7846 -4.66217 1.33303 0
M  V30 290 N 25.1277 -0.289203 -1.54924 0
M  V30 291 C 26.5387 0.205791 -1.85562 0
M  V30 292 C 26.8897 1.54351 -1.2112 0
M  V30 293 O 26.0147 2.10435 -0.504601 0
M  V30 294 C 26.6097 0.380177 -3.3666 0
M  V30 295 C 25.1687 0.819395 -3.67373 0
M  V30 296 C 24.3157 -0.079159 -2.77187 0
M  V30 297 H 27.2667 -0.510577 -1.50262 0
M  V30 298 H 27.2877 1.21659 -3.60526 0
M  V30 299 H 26.7997 -0.593589 -3.83534 0
M  V30 300 H 24.9007 1.80413 -3.26009 0
M  V30 301 H 25.0137 0.646957 -4.74712 0
M  V30 302 H 23.3777 0.439565 -2.50878 0
M  V30 303 H 24.1607 -1.04906 -3.26878 0
M  V30 304 N 26.6058 1.57591 -0.0167156 0
M  V30 305 C 28.0218 1.55946 0.339557 0
M  V30 306 C 28.2218 1.02109 1.73713 0
M  V30 307 O 27.2778 0.662303 2.43659 0
M  V30 308 C 28.5908 3.00037 0.199499 0
M  V30 309 C 30.1388 3.11805 0.273193 0
M  V30 310 C 30.6138 4.57713 0.162068 0
M  V30 311 N 32.1048 4.6268 0.219444 0
M  V30 312 C 32.8398 5.73185 0.157054 0
M  V30 313 N 32.3358 6.92786 0.0442936 0
M  V30 314 N 34.1288 5.61707 0.21014 0
M  V30 315 H 26.2798 1.90921 -0.930758 0
M  V30 316 H 28.5428 0.877674 -0.358319 0
M  V30 317 H 28.2488 3.4333 -0.76273 0
M  V30 318 H 28.1228 3.64387 0.974786 0
M  V30 319 H 30.5098 2.68433 1.22587 0
M  V30 320 H 30.5908 2.50201 -0.532256 0
M  V30 321 H 30.2348 5.01763 -0.78714 0
M  V30 322 H 30.1648 5.17283 0.986222 0
M  V30 323 H 32.6558 3.76649 0.307246 0
M  V30 324 H 32.9688 7.728 0.00304069 0
M  V30 325 H 31.3138 6.94999 0.00968457 0
M  V30 326 H 34.5048 4.6716 0.296546 0
M  V30 327 H 34.6778 6.47807 0.158054 0
M  V30 328 N 28.0839 -0.256276 1.55502 0
M  V30 329 C 29.4999 -0.604325 1.47716 0
M  V30 330 C 29.6999 -1.88763 0.705039 0
M  V30 331 O 28.7559 -2.51445 0.230613 0
M  V30 332 C 30.0689 -0.715756 2.92057 0
M  V30 333 C 31.6169 -0.808706 3.02372 0
M  V30 334 C 32.0919 -0.951777 4.48001 0
M  V30 335 N 33.5829 -1.01688 4.519 0
M  V30 336 C 34.3179 -1.14668 5.61817 0
M  V30 337 N 33.8139 -1.24261 6.81565 0
M  V30 338 N 35.6069 -1.1791 5.49594 0
M  V30 339 H 27.7579 0.586291 2.04148 0
M  V30 340 H 30.0209 0.201015 0.926443 0
M  V30 341 H 29.7269 0.157027 3.51349 0
M  V30 342 H 29.6009 -1.59071 3.42018 0
M  V30 343 H 31.9879 -1.67195 2.43166 0
M  V30 344 H 32.0689 0.0912063 2.55637 0
M  V30 345 H 31.7129 -0.0931291 5.07815 0
M  V30 346 H 31.6429 -1.86659 4.92408 0
M  V30 347 H 34.1339 -0.954468 3.65648 0
M  V30 348 H 34.4469 -1.34046 7.61086 0
M  V30 349 H 32.7919 -1.21236 6.84344 0
M  V30 350 H 35.9829 -1.10057 4.54978 0
M  V30 351 H 36.1559 -1.27681 6.35296 0
M  V30 352 N 29.562 -1.4872 -0.521534 0
M  V30 353 C 30.492 -1.66771 -1.63431 0
M  V30 354 C 31.473 -0.516499 -1.62069 0
M  V30 355 O 32.658 -0.750013 -1.79132 0
M  V30 356 C 29.788 -1.71515 -3.01993 0
M  V30 357 C 28.742 -2.86222 -3.18216 0
M  V30 358 C 28.068 -2.76061 -4.57924 0
M  V30 359 C 29.368 -4.27419 -3.00184 0
M  V30 360 H 31.062 -2.59932 -1.48579 0
M  V30 361 H 28.608 -1.25089 -0.713358 0
M  V30 362 H 30.561 -1.82731 -3.7972 0
M  V30 363 H 29.285 -0.749393 -3.17886 0
M  V30 364 H 27.944 -2.74575 -2.42908 0
M  V30 365 H 27.592 -1.77437 -4.70665 0
M  V30 366 H 27.292 -3.53037 -4.69722 0
M  V30 367 H 28.816 -2.89256 -5.37739 0
M  V30 368 H 30.23 -4.39855 -3.67697 0
M  V30 369 H 28.627 -5.05458 -3.2347 0
M  V30 370 H 29.697 -4.43293 -1.96518 0
M  V30 371 N 31.0401 0.771051 -1.3745 0
M  V30 372 C 32.0031 1.86598 -1.33093 0
M  V30 373 C 33.0031 1.59076 -0.234845 0
M  V30 374 O 34.1931 1.67145 -0.490732 0
M  V30 375 C 31.3251 3.23747 -1.06773 0
M  V30 376 H 32.5181 1.91873 -2.30488 0
M  V30 377 H 30.0711 0.970876 -1.2249 0
M  V30 378 H 30.8061 3.24148 -0.099129 0
M  V30 379 H 30.5911 3.45115 -1.86112 0
M  V30 380 H 32.0811 4.03824 -1.06377 0
M  V30 381 N 32.5182 1.22032 0.997298 0
M  V30 382 C 33.7672 1.03637 1.73038 0
M  V30 383 C 34.0802 -0.429475 1.90827 0
M  V30 384 O 35.2862 -0.732995 2.61418 0
M  V30 385 C 33.7422 1.80582 3.11317 0
M  V30 386 C 33.3502 3.31387 3.01474 0
M  V30 387 C 35.0942 1.70621 3.88701 0
M  V30 388 C 33.0012 4.00791 4.3488 0
M  V30 389 H 31.9312 0.384179 0.648785 0
M  V30 390 H 34.5822 1.4584 1.11368 0
M  V30 391 H 32.9642 1.31175 3.73643 0
M  V30 392 H 34.1382 3.88155 2.4834 0
M  V30 393 H 32.4532 3.41976 2.37575 0
M  V30 394 H 35.0502 2.19799 4.87434 0
M  V30 395 H 35.3932 0.665823 4.10941 0
M  V30 396 H 35.9262 2.17547 3.33044 0
M  V30 397 H 32.6652 5.05064 4.1784 0
M  V30 398 H 32.1852 3.48811 4.87945 0
M  V30 399 H 33.8642 4.06139 5.03647 0
M  V30 400 N 33.9963 -1.19345 1.0293 0
M  V30 401 C 34.9593 -2.20793 0.615069 0
M  V30 402 C 35.9593 -1.57553 -0.321533 0
M  V30 403 O 37.1493 -1.73862 -0.108483 0
M  V30 404 C 34.2813 -3.40754 -0.0999222 0
M  V30 405 H 35.4743 -2.58955 1.51269 0
M  V30 406 H 33.0273 -1.3303 0.820534 0
M  V30 407 H 33.7623 -3.0811 -1.01187 0
M  V30 408 H 33.5473 -3.87889 0.57309 0
M  V30 409 H 35.0373 -4.15898 -0.376645 0
M  V30 410 N 35.4744 -0.807222 -1.35358 0
M  V30 411 C 36.4374 -0.223665 -2.28106 0
M  V30 412 C 37.4374 0.589354 -1.4961 0
M  V30 413 O 38.6274 0.407745 -1.69361 0
M  V30 414 C 35.7594 0.688149 -3.33882 0
M  V30 415 H 36.9524 -1.04169 -2.81227 0
M  V30 416 H 34.5054 -0.577921 -1.45223 0
M  V30 417 H 35.2404 1.52984 -2.85948 0
M  V30 418 H 35.0254 0.10687 -3.91954 0
M  V30 419 H 36.5154 1.09075 -4.03104 0
M  V30 420 N 36.9525 1.47285 -0.560781 0
M  V30 421 C 37.8855 2.27009 0.232821 0
M  V30 422 C 38.8635 1.34273 0.917039 0
M  V30 423 O 40.0475 1.63659 0.935315 0
M  V30 424 C 37.1745 3.11406 1.33206 0
M  V30 425 C 36.2205 4.19746 0.756019 0
M  V30 426 S 37.0535 5.34003 -0.400165 0
M  V30 427 C 38.2095 6.21964 0.700805 0
M  V30 428 H 38.4425 2.93971 -0.443683 0
M  V30 429 H 35.9755 1.50446 -0.347181 0
M  V30 430 H 37.9335 3.60601 1.96156 0
M  V30 431 H 36.5945 2.438 1.98041 0
M  V30 432 H 35.7875 4.78541 1.5816 0
M  V30 433 H 35.3895 3.73451 0.202619 0
M  V30 434 H 37.6815 6.58529 1.59202 0
M  V30 435 H 38.6245 7.07941 0.150126 0
M  V30 436 H 39.0325 5.5566 0.995083 0
M  V30 437 N 38.4306 0.297415 1.54768 0
M  V30 438 C 39.6786 -0.312295 1.99673 0
M  V30 439 C 39.9996 -1.54686 1.18732 0
M  V30 440 O 39.2696 -1.93854 0.282382 0
M  V30 441 H 37.8496 -0.118381 0.73756 0
M  V30 442 H 40.5116 0.407915 1.90583 0
M  V30 443 H 39.6076 -0.586813 3.06534 0
M  V30 444 N 39.9087 -1.5758 0.0250728 0
M  V30 445 C 40.8717 -2.08896 -0.943139 0
M  V30 446 C 41.8717 -1.00321 -1.25668 0
M  V30 447 O 43.0617 -1.26495 -1.19769 0
M  V30 448 C 40.1937 -2.55143 -2.26086 0
M  V30 449 H 41.3867 -2.95723 -0.498775 0
M  V30 450 H 38.9397 -1.54703 -0.222888 0
M  V30 451 H 39.6747 -1.71633 -2.75159 0
M  V30 452 H 39.4597 -3.34461 -2.04641 0
M  V30 453 H 40.9497 -2.95083 -2.95492 0
M  V30 454 N 41.3868 0.248026 -1.55636 0
M  V30 455 C 42.6328 0.97767 -1.77678 0
M  V30 456 C 42.9658 1.85016 -0.590135 0
M  V30 457 O 42.2408 1.90095 0.411611 0
M  V30 458 C 42.5238 1.83914 -3.09593 0
M  V30 459 C 42.3768 0.99491 -4.38659 0
M  V30 460 C 43.6958 2.82183 -3.37729 0
M  V30 461 H 40.8148 0.354005 -0.646413 0
M  V30 462 H 43.4568 0.248253 -1.88371 0
M  V30 463 H 41.6068 2.46104 -3.00608 0
M  V30 464 H 43.2788 0.391789 -4.59633 0
M  V30 465 H 41.5218 0.299231 -4.32767 0
M  V30 466 H 42.1928 1.63145 -5.2734 0
M  V30 467 H 44.6688 2.30129 -3.4667 0
M  V30 468 H 43.5448 3.39582 -4.31249 0
M  V30 469 H 43.8058 3.58588 -2.58586 0
M  V30 470 N 42.8649 1.48995 0.513639 0
M  V30 471 C 43.7949 1.67636 1.62544 0
M  V30 472 C 44.7759 0.525087 1.61793 0
M  V30 473 O 45.9609 0.759502 1.78732 0
M  V30 474 C 43.0909 1.73114 3.01079 0
M  V30 475 C 42.0449 2.87905 3.16693 0
M  V30 476 C 41.3709 2.78486 4.56453 0
M  V30 477 C 42.6709 4.29005 2.97913 0
M  V30 478 H 44.3649 2.60716 1.47198 0
M  V30 479 H 41.9109 1.25465 0.706714 0
M  V30 480 H 43.8639 1.84742 3.78746 0
M  V30 481 H 42.5879 0.766241 3.17484 0
M  V30 482 H 41.2469 2.75859 2.41448 0
M  V30 483 H 40.8949 1.7993 4.69717 0
M  V30 484 H 40.5949 3.55523 4.67843 0
M  V30 485 H 42.1189 2.92104 5.36197 0
M  V30 486 H 43.5329 4.41798 3.65359 0
M  V30 487 H 41.9299 5.07166 3.20785 0
M  V30 488 H 42.9999 4.44329 1.94165 0
M  V30 489 N 44.343 -0.763751 1.37857 0
M  V30 490 C 45.589 -1.52483 1.33704 0
M  V30 491 C 45.922 -1.94051 -0.0759612 0
M  V30 492 O 45.197 -1.64675 -1.03501 0
M  V30 493 C 45.48 -2.78441 2.28348 0
M  V30 494 C 45.333 -2.43075 3.78463 0
M  V30 495 C 46.652 -3.80415 2.21298 0
M  V30 496 H 43.771 -0.553169 0.487005 0
M  V30 497 H 46.413 -0.875562 1.68624 0
M  V30 498 H 44.563 -3.33842 1.987 0
M  V30 499 H 46.235 -1.93527 4.18742 0
M  V30 500 H 44.478 -1.75666 3.96641 0
M  V30 501 H 45.149 -3.33149 4.40132 0
M  V30 502 H 47.625 -3.34527 2.47449 0
M  V30 503 H 46.501 -4.66257 2.89647 0
M  V30 504 H 46.762 -4.25262 1.20849 0
M  V30 505 N 45.8211 -1.22559 -0.990812 0
M  V30 506 C 47.0511 -1.07623 -1.76355 0
M  V30 507 C 47.4591 0.37601 -1.85426 0
M  V30 508 O 46.8021 1.27228 -1.32509 0
M  V30 509 C 46.8641 -1.61507 -3.21179 0
M  V30 510 C 46.5281 -3.10146 -3.35646 0
M  V30 511 C 47.5251 -4.07553 -3.22796 0
M  V30 512 C 45.2101 -3.49644 -3.60631 0
M  V30 513 C 47.2041 -5.42442 -3.34716 0
M  V30 514 C 44.8911 -4.84682 -3.72192 0
M  V30 515 C 45.8891 -5.8089 -3.59243 0
M  V30 516 O 45.5771 -7.13476 -3.70415 0
M  V30 517 H 45.3091 -0.377745 -0.560611 0
M  V30 518 H 47.8631 -1.62658 -1.25425 0
M  V30 519 H 46.0931 -1.00881 -3.73309 0
M  V30 520 H 47.7821 -1.42202 -3.80175 0
M  V30 521 H 48.5481 -3.78381 -3.03403 0
M  V30 522 H 44.4271 -2.75282 -3.69785 0
M  V30 523 H 47.9711 -6.17518 -3.24526 0
M  V30 524 H 43.8681 -5.13534 -3.91092 0
M  V30 525 H 44.6361 -7.21083 -3.87275 0
M  V30 526 N 47.2992 1.18797 -1.03562 0
M  V30 527 C 48.5472 1.88278 -0.734569 0
M  V30 528 C 48.8682 1.8043 0.739586 0
M  V30 529 O 48.1382 1.21925 1.53333 0
M  V30 530 H 46.7182 0.696991 -0.268725 0
M  V30 531 H 49.3802 1.44192 -1.31129 0
M  V30 532 H 48.4762 2.94443 -1.03489 0
M  V30 533 N 48.7773 0.814389 1.34928 0
M  V30 534 C 49.7073 0.244827 2.32213 0
M  V30 535 C 50.6883 -0.634024 1.57842 0
M  V30 536 O 51.8733 -0.562676 1.8587 0
M  V30 537 C 49.0033 -0.601106 3.42058 0
M  V30 538 C 47.9573 0.179896 4.27622 0
M  V30 539 C 47.2833 -0.788237 5.28858 0
M  V30 540 C 48.5833 1.38329 5.03649 0
M  V30 541 H 50.2773 1.05763 2.80097 0
M  V30 542 H 47.8233 0.510029 1.34665 0
M  V30 543 H 49.7763 -1.00968 4.09125 0
M  V30 544 H 48.5003 -1.44688 2.92802 0
M  V30 545 H 47.1593 0.569739 3.62146 0
M  V30 546 H 46.8073 -1.62973 4.75866 0
M  V30 547 H 46.5073 -0.269942 5.8698 0
M  V30 548 H 48.0313 -1.19485 5.98795 0
M  V30 549 H 49.4453 1.04918 5.63618 0
M  V30 550 H 47.8423 1.83662 5.71304 0
M  V30 551 H 48.9123 2.16592 4.33839 0
M  V30 552 N 50.2554 -1.46986 0.568584 0
M  V30 553 C 51.5014 -2.02741 0.0488709 0
M  V30 554 C 51.8344 -1.44077 -1.30214 0
M  V30 555 O 51.1094 -0.600552 -1.84996 0
M  V30 556 C 51.3924 -3.60086 -0.032047 0
M  V30 557 C 51.2454 -4.29162 1.34686 0
M  V30 558 C 52.5644 -4.33838 -0.739798 0
M  V30 559 H 49.6834 -0.736749 0.0192338 0
M  V30 560 H 52.3254 -1.75289 0.733065 0
M  V30 561 H 50.4754 -3.83606 -0.61473 0
M  V30 562 H 52.1474 -4.16948 1.97362 0
M  V30 563 H 50.3904 -3.89073 1.91846 0
M  V30 564 H 51.0614 -5.37826 1.24285 0
M  V30 565 H 53.5374 -4.15378 -0.244939 0
M  V30 566 H 52.4134 -5.43537 -0.765406 0
M  V30 567 H 52.6744 -4.03875 -1.79827 0
M  V30 568 N 51.7335 -0.305618 -1.54608 0
M  V30 569 C 52.9815 0.301701 -1.99835 0
M  V30 570 C 53.3025 1.54054 -1.19551 0
M  V30 571 O 52.5725 1.93702 -0.292658 0
M  V30 572 H 51.1525 0.114468 -0.738178 0
M  V30 573 H 53.8145 -0.418016 -1.90364 0
M  V30 574 H 52.9105 0.570548 -3.06841 0
M  V30 575 N 53.2116 1.57565 -0.0334293 0
M  V30 576 C 54.4396 1.9628 0.654347 0
M  V30 577 C 54.8546 0.910138 1.65414 0
M  V30 578 O 54.2116 -0.107595 1.82183 0
M  V30 579 C 54.2626 3.35067 1.35693 0
M  V30 580 O 53.9836 4.36296 0.397191 0
M  V30 581 C 55.4846 3.88439 2.13613 0
M  V30 582 H 52.7046 0.646369 0.180132 0
M  V30 583 H 55.2486 2.04282 -0.0944721 0
M  V30 584 H 53.4036 3.2827 2.05712 0
M  V30 585 H 53.8176 5.1678 0.896597 0
M  V30 586 H 55.2916 4.8788 2.58219 0
M  V30 587 H 55.7686 3.22914 2.97696 0
M  V30 588 H 56.3746 3.98516 1.48543 0
M  V30 589 N 54.6897 -0.239769 1.55765 0
M  V30 590 C 55.9367 -0.966801 1.7793 0
M  V30 591 C 56.2647 -1.85046 0.599015 0
M  V30 592 O 55.5197 -1.91197 -0.417395 0
M  V30 593 C 55.8187 -1.852 3.05672 0
M  V30 594 C 55.4847 -1.1231 4.36689 0
M  V30 595 C 54.1467 -0.921689 4.72291 0
M  V30 596 C 56.4987 -0.607019 5.17653 0
M  V30 597 C 53.8267 -0.191996 5.86386 0
M  V30 598 C 56.1787 0.109241 6.32506 0
M  V30 599 C 54.8427 0.322073 6.66723 0
M  V30 600 H 54.1127 -0.353778 0.651093 0
M  V30 601 H 56.7597 -0.23634 1.90036 0
M  V30 602 H 55.0647 -2.64975 2.8861 0
M  V30 603 H 56.7617 -2.41635 3.20021 0
M  V30 604 H 53.3517 -1.29004 4.08725 0
M  V30 605 H 57.5357 -0.750153 4.90598 0
M  V30 606 H 52.7917 -0.0166949 6.11398 0
M  V30 607 H 56.9657 0.516737 6.9448 0
M  V30 608 H 54.5927 0.88944 7.54979 0
M  V30 609 N 56.1678 -1.49265 -0.50573 0
M  V30 610 C 57.4158 -1.582 -1.25766 0
M  V30 611 C 57.7368 -0.268482 -1.93143 0
M  V30 612 O 57.0068 0.711833 -1.8251 0
M  V30 613 H 55.5868 -0.582873 -0.467191 0
M  V30 614 H 58.2488 -1.85865 -0.586525 0
M  V30 615 H 57.3448 -2.37563 -2.02412 0
M  V30 616 N 57.6459 0.756429 -1.3826 0
M  V30 617 C 58.8939 1.51248 -1.34047 0
M  V30 618 C 59.2149 1.94875 0.0698372 0
M  V30 619 O 58.4849 1.67436 1.01696 0
M  V30 620 H 57.0649 0.561018 -0.493222 0
M  V30 621 H 59.7269 0.899347 -1.7291 0
M  V30 622 H 58.8229 2.40472 -1.98947 0
M  V30 623 N 59.124 1.23083 0.984299 0
M  V30 624 C 60.535 1.05609 1.5396 0
M  V30 625 C 60.886 -0.377793 1.92528 0
M  V30 626 O 60.011 -1.26398 1.75649 0
M  V30 627 C 60.606 1.91087 2.7977 0
M  V30 628 C 59.165 1.77885 3.31713 0
M  V30 629 C 58.312 1.87028 2.04733 0
M  V30 630 H 61.263 1.36802 0.804419 0
M  V30 631 H 61.284 1.43336 3.5247 0
M  V30 632 H 60.796 2.9544 2.51668 0
M  V30 633 H 58.897 0.762995 3.64704 0
M  V30 634 H 59.01 2.61047 4.01735 0
M  V30 635 H 57.374 1.30565 2.18689 0
M  V30 636 H 58.157 2.92929 1.79017 0
M  V30 637 N 60.6021 -1.18246 1.0419 0
M  V30 638 C 61.5651 -2.20128 0.638452 0
M  V30 639 C 62.5651 -1.57885 -0.304805 0
M  V30 640 O 63.7551 -1.73967 -0.0900369 0
M  V30 641 C 60.8871 -3.4084 -0.0637751 0
M  V30 642 H 62.0801 -2.57336 1.54007 0
M  V30 643 H 59.6331 -1.32152 0.834598 0
M  V30 644 H 60.3681 -3.09166 -0.979136 0
M  V30 645 H 60.1531 -3.8726 0.614198 0
M  V30 646 H 61.6431 -4.16274 -0.332512 0
M  V30 647 N 62.0802 -0.821533 -1.34494 0
M  V30 648 C 63.3082 -0.421884 -2.02553 0
M  V30 649 C 63.7232 0.971745 -1.61872 0
M  V30 650 O 63.0802 1.62864 -0.823496 0
M  V30 651 C 63.1312 -0.51285 -3.57844 0
M  V30 652 O 62.8522 -1.85155 -3.97051 0
M  V30 653 C 64.3532 -0.107921 -4.43169 0
M  V30 654 H 61.5732 -0.169482 -0.649243 0
M  V30 655 H 64.1172 -1.1093 -1.71798 0
M  V30 656 H 62.2722 0.126474 -3.87193 0
M  V30 657 H 62.6862 -1.82482 -4.91732 0
M  V30 658 H 64.1602 -0.222657 -5.51551 0
M  V30 659 H 64.6372 0.948401 -4.28838 0
M  V30 660 H 65.2432 -0.720989 -4.19144 0
M  V30 661 N 63.5583 1.46682 -0.576371 0
M  V30 662 C 64.5213 2.28707 0.150239 0
M  V30 663 C 65.5213 1.38035 0.824794 0
M  V30 664 O 66.7113 1.60476 0.677719 0
M  V30 665 C 63.8433 3.18248 1.22192 0
M  V30 666 H 65.0363 2.94423 -0.570521 0
M  V30 667 H 62.5893 1.52688 -0.334078 0
M  V30 668 H 63.3243 2.57265 1.97447 0
M  V30 669 H 63.1093 3.85 0.742812 0
M  V30 670 H 64.5993 3.80001 1.73172 0
M  V30 671 N 65.0364 0.313813 1.54444 0
M  V30 672 C 66.2844 -0.291099 1.99993 0
M  V30 673 C 66.6054 -1.53418 1.20366 0
M  V30 674 O 65.8754 -1.93544 0.302927 0
M  V30 675 H 64.4554 -0.110552 0.738774 0
M  V30 676 H 67.1174 0.428106 1.9014 0
M  V30 677 H 66.2134 -0.554268 3.07139 0
M  V30 678 N 66.5145 -1.57545 0.0417849 0
M  V30 679 C 67.4775 -2.09885 -0.92093 0
M  V30 680 C 68.4775 -1.01648 -1.24596 0
M  V30 681 O 69.6675 -1.27759 -1.1842 0
M  V30 682 C 66.7995 -2.57527 -2.23367 0
M  V30 683 H 67.9925 -2.96236 -0.467382 0
M  V30 684 H 65.5455 -1.5493 -0.206467 0
M  V30 685 H 66.2805 -1.74542 -2.73323 0
M  V30 686 H 66.0655 -3.36613 -2.01083 0
M  V30 687 H 67.5555 -2.98201 -2.92346 0
M  V30 688 N 67.9926 0.231505 -1.5589 0
M  V30 689 C 69.2396 0.957352 -1.78441 0
M  V30 690 C 69.5676 1.84726 -0.60882 0
M  V30 691 O 68.8226 1.91416 0.40725 0
M  V30 692 C 69.1216 1.83577 -3.0665 0
M  V30 693 C 68.7876 1.09993 -4.37278 0
M  V30 694 C 67.4496 0.896629 -4.72773 0
M  V30 695 C 69.8016 0.579558 -5.17968 0
M  V30 696 C 67.1296 0.160896 -5.86479 0
M  V30 697 C 69.4816 -0.142783 -6.32439 0
M  V30 698 C 68.1456 -0.357427 -6.66542 0
M  V30 699 H 67.4156 0.35032 -0.65296 0
M  V30 700 H 70.0626 0.226259 -1.90159 0
M  V30 701 H 68.3676 2.63441 -2.90011 0
M  V30 702 H 70.0646 2.39934 -3.21298 0
M  V30 703 H 66.6546 1.26835 -4.09403 0
M  V30 704 H 70.8386 0.724125 -4.90989 0
M  V30 705 H 66.0946 -0.0157293 -6.11398 0
M  V30 706 H 70.2686 -0.553559 -6.94196 0
M  V30 707 H 67.8956 -0.929466 -7.54497 0
M  V30 708 N 69.4707 1.49531 0.497807 0
M  V30 709 C 70.6957 1.63159 1.28039 0
M  V30 710 C 71.1207 0.30418 1.85624 0
M  V30 711 O 70.4787 -0.728618 1.66015 0
M  V30 712 C 70.5267 2.70537 2.38416 0
M  V30 713 O 69.6307 2.29931 3.42353 0
M  V30 714 H 68.9717 0.546001 0.377861 0
M  V30 715 H 71.5017 1.9574 0.59558 0
M  V30 716 H 71.5117 2.92802 2.84132 0
M  V30 717 H 70.1867 3.6689 1.95869 0
M  V30 718 H 68.7637 2.18009 3.02533 0
M  V30 719 N 70.9488 -0.749086 1.3866 0
M  V30 720 C 72.3648 -1.05276 1.19955 0
M  V30 721 C 72.5648 -2.01435 0.05134 0
M  V30 722 O 71.6208 -2.45232 -0.60147 0
M  V30 723 C 72.9338 -1.62853 2.52783 0
M  V30 724 C 74.4818 -1.75002 2.59506 0
M  V30 725 C 74.9568 -2.35991 3.92521 0
M  V30 726 N 76.4478 -2.43416 3.94085 0
M  V30 727 C 77.1828 -2.91511 4.9377 0
M  V30 728 N 76.6788 -3.39608 6.03853 0
M  V30 729 N 78.4718 -2.90592 4.81157 0
M  V30 730 H 70.6228 -0.111066 2.12109 0
M  V30 731 H 72.8858 -0.111901 0.941373 0
M  V30 732 H 72.5918 -0.99664 3.37283 0
M  V30 733 H 72.4658 -2.61854 2.715 0
M  V30 734 H 74.8528 -2.37317 1.75398 0
M  V30 735 H 74.9338 -0.74693 2.44652 0
M  V30 736 H 74.5778 -1.74308 4.77053 0
M  V30 737 H 74.5078 -3.3695 4.04688 0
M  V30 738 H 76.9988 -2.09405 3.14576 0
M  V30 739 H 77.3118 -3.74775 6.75843 0
M  V30 740 H 75.6568 -3.37653 6.07466 0
M  V30 741 H 78.8478 -2.52332 3.94267 0
M  V30 742 H 79.0208 -3.27762 5.58996 0
M  V30 743 N 72.4269 -1.23603 -0.977757 0
M  V30 744 C 73.8379 -1.06424 -1.53398 0
M  V30 745 C 74.1889 0.367578 -1.92726 0
M  V30 746 O 73.3139 1.25465 -1.76316 0
M  V30 747 C 73.9089 -1.92568 -2.78753 0
M  V30 748 C 72.4679 -1.79642 -3.30765 0
M  V30 749 C 71.6149 -1.88111 -2.03739 0
M  V30 750 H 74.5659 -1.37227 -0.797152 0
M  V30 751 H 74.5869 -1.45203 -3.51705 0
M  V30 752 H 74.0989 -2.96771 -2.50098 0
M  V30 753 H 72.1999 -0.782325 -3.64294 0
M  V30 754 H 72.3129 -2.63174 -4.00345 0
M  V30 755 H 70.6769 -1.31723 -2.17994 0
M  V30 756 H 71.4599 -2.93875 -1.77461 0
M  V30 757 N 73.905 1.17692 -1.04816 0
M  V30 758 C 75.153 1.87488 -0.754497 0
M  V30 759 C 75.474 1.81205 0.720407 0
M  V30 760 O 74.744 1.23544 1.52032 0
M  V30 761 H 73.324 0.694101 -0.276102 0
M  V30 762 H 75.986 1.42793 -1.32651 0
M  V30 763 H 75.082 2.93328 -1.06606 0
M  V30 764 N 75.3831 0.828654 1.34056 0
M  V30 765 C 76.3131 0.269443 2.3194 0
M  V30 766 C 77.2941 -0.617247 1.58506 0
M  V30 767 O 78.4791 -0.542931 1.86456 0
M  V30 768 C 75.6091 -0.564793 3.42677 0
M  V30 769 C 74.5631 0.225241 4.27407 0
M  V30 770 C 73.8891 -0.7321 5.29664 0
M  V30 771 C 75.1891 1.43663 5.02154 0
M  V30 772 H 76.8831 1.08728 2.7896 0
M  V30 773 H 74.4291 0.524283 1.34117 0
M  V30 774 H 76.3821 -0.966233 4.10173 0
M  V30 775 H 75.1061 -1.41574 2.9432 0
M  V30 776 H 73.7651 0.608117 3.61521 0
M  V30 777 H 73.4131 -1.57916 4.77568 0
M  V30 778 H 73.1131 -0.20767 5.87233 0
M  V30 779 H 74.6371 -1.13128 6.00029 0
M  V30 780 H 76.0511 1.1089 5.62473 0
M  V30 781 H 74.4481 1.89711 5.69324 0
M  V30 782 H 75.5181 2.21181 4.31517 0
M  V30 783 N 76.8612 -1.46375 0.584142 0
M  V30 784 C 78.2722 -1.86031 0.157959 0
M  V30 785 C 78.6232 -1.48753 -1.27933 0
M  V30 786 O 77.7482 -0.903098 -1.96655 0
M  V30 787 C 78.3432 -3.37642 0.279892 0
M  V30 788 C 76.9022 -3.76289 -0.09143 0
M  V30 789 C 76.0492 -2.7039 0.615178 0
M  V30 790 H 79.0002 -1.37509 0.792274 0
M  V30 791 H 79.0212 -3.77275 -0.494364 0
M  V30 792 H 78.5332 -3.64742 1.32607 0
M  V30 793 H 76.6342 -3.54806 -1.13769 0
M  V30 794 H 76.7472 -4.78246 0.285886 0
M  V30 795 H 75.1112 -2.5464 0.0552833 0
M  V30 796 H 75.8942 -3.0033 1.66303 0
M  V30 797 N 78.3393 -0.321999 -1.54275 0
M  V30 798 C 79.5853 0.281461 -2.00837 0
M  V30 799 C 79.9183 1.51909 -1.20985 0
M  V30 800 O 79.1933 1.923 -0.291733 0
M  V30 801 C 79.4763 0.617162 -3.54772 0
M  V30 802 C 79.3293 -0.631064 -4.45351 0
M  V30 803 C 80.6483 1.43542 -4.16033 0
M  V30 804 H 77.7673 0.100826 -0.730071 0
M  V30 805 H 80.4093 -0.438268 -1.84876 0
M  V30 806 H 78.5593 1.23034 -3.68504 0
M  V30 807 H 80.2313 -1.26934 -4.43492 0
M  V30 808 H 78.4743 -1.26025 -4.15091 0
M  V30 809 H 79.1453 -0.351735 -5.50878 0
M  V30 810 H 81.6213 0.917134 -4.05867 0
M  V30 811 H 80.4973 1.63907 -5.23856 0
M  V30 812 H 80.7583 2.43108 -3.69257 0
M  V30 813 N 79.8174 1.5752 -0.0501392 0
M  V30 814 C 80.7274 2.14952 0.939827 0
M  V30 815 C 81.7434 1.10706 1.34239 0
M  V30 816 O 82.9194 1.42869 1.41952 0
M  V30 817 C 79.9844 2.68232 2.19665 0
M  V30 818 C 79.0454 3.87272 1.85253 0
M  V30 819 C 78.2784 4.38002 3.04943 0
M  V30 820 O 78.5014 3.87811 4.18281 0
M  V30 821 O 77.4354 5.29602 2.86017 0
M  V30 822 H 81.2614 2.9986 0.481392 0
M  V30 823 H 78.8464 1.4841 0.171699 0
M  V30 824 H 80.7284 3.02475 2.93406 0
M  V30 825 H 79.4034 1.86395 2.64648 0
M  V30 826 H 78.3104 3.5792 1.0883 0
M  V30 827 H 79.6434 4.70336 1.4507 0
M  V30 828 N 81.2955 -0.223234 1.56011 0
M  V30 829 C 82.5255 -0.963413 1.82762 0
M  V30 830 C 82.9335 -1.78516 0.626804 0
M  V30 831 O 82.2765 -1.78974 -0.414014 0
M  V30 832 C 82.3385 -1.93126 3.0322 0
M  V30 833 C 82.0025 -1.2942 4.38291 0
M  V30 834 C 82.9995 -0.684916 5.15369 0
M  V30 835 C 80.6845 -1.30647 4.85012 0
M  V30 836 C 82.6785 -0.0963971 6.37327 0
M  V30 837 C 80.3655 -0.71411 6.06913 0
M  V30 838 C 81.3635 -0.110123 6.82911 0
M  V30 839 O 81.0515 0.47303 8.02507 0
M  V30 840 H 80.7835 -0.288011 0.611576 0
M  V30 841 H 83.3375 -0.244103 2.03944 0
M  V30 842 H 81.5675 -2.68952 2.77852 0
M  V30 843 H 83.2565 -2.53685 3.16857 0
M  V30 844 H 84.0225 -0.667774 4.80381 0
M  V30 845 H 79.9015 -1.76598 4.25833 0
M  V30 846 H 83.4455 0.375657 6.96588 0
M  V30 847 H 79.3425 -0.728659 6.41374 0
M  V30 848 H 80.1105 0.367186 8.17676 0
M  V30 849 N 82.7736 -1.49793 -0.48987 0
M  V30 850 C 83.7036 -1.70201 -1.59856 0
M  V30 851 C 84.6846 -0.55076 -1.60937 0
M  V30 852 O 85.8696 -0.787841 -1.77501 0
M  V30 853 C 82.9996 -1.77882 -2.98287 0
M  V30 854 C 81.9536 -2.92907 -3.12073 0
M  V30 855 C 81.2796 -2.85712 -4.51965 0
M  V30 856 C 82.5796 -4.3369 -2.91051 0
M  V30 857 H 84.2736 -2.63025 -1.43032 0
M  V30 858 H 81.8196 -1.26574 -0.686664 0
M  V30 859 H 83.7726 -1.90744 -3.75759 0
M  V30 860 H 82.4966 -0.816653 -3.16225 0
M  V30 861 H 81.1556 -2.79665 -2.37029 0
M  V30 862 H 80.8036 -1.8738 -4.66795 0
M  V30 863 H 80.5036 -3.62921 -4.62128 0
M  V30 864 H 82.0276 -3.00598 -5.31482 0
M  V30 865 H 83.4416 -4.47555 -3.58284 0
M  V30 866 H 81.8386 -5.12205 -3.12675 0
M  V30 867 H 82.9086 -4.47362 -1.87071 0
M  V30 868 N 84.2517 0.741722 -1.39055 0
M  V30 869 C 85.1837 1.8657 -1.33133 0
M  V30 870 C 86.1967 1.61001 -0.241329 0
M  V30 871 O 87.3857 1.7136 -0.499784 0
M  V30 872 C 84.4857 3.22457 -1.04283 0
M  V30 873 C 83.6587 3.75435 -2.24427 0
M  V30 874 C 82.7177 4.89867 -1.92138 0
M  V30 875 O 81.7437 5.03879 -2.64754 0
M  V30 876 N 82.9457 5.73738 -0.88347 0
M  V30 877 H 85.7107 1.92156 -2.29991 0
M  V30 878 H 83.2717 0.922172 -1.3307 0
M  V30 879 H 85.2637 3.9657 -0.807128 0
M  V30 880 H 83.8337 3.12181 -0.161807 0
M  V30 881 H 83.0537 2.92751 -2.6399 0
M  V30 882 H 84.3417 4.07563 -3.04581 0
M  V30 883 H 83.7397 5.64999 -0.281517 0
M  V30 884 H 82.2967 6.47947 -0.707662 0
M  V30 885 N 85.7298 1.2412 0.971189 0
M  V30 886 C 86.9758 1.08041 1.71625 0
M  V30 887 C 87.3088 -0.380407 1.90438 0
M  V30 888 O 86.5838 -1.28127 1.46334 0
M  V30 889 C 86.8668 1.81682 3.10908 0
M  V30 890 C 86.7198 3.35493 2.99608 0
M  V30 891 C 88.0388 1.58671 4.10501 0
M  V30 892 H 85.1578 0.39388 0.622919 0
M  V30 893 H 87.7998 1.52743 1.13003 0
M  V30 894 H 85.9498 1.43684 3.60953 0
M  V30 895 H 87.6218 3.83068 2.57015 0
M  V30 896 H 85.8648 3.64052 2.35899 0
M  V30 897 H 86.5358 3.82217 3.98264 0
M  V30 898 H 89.0118 1.91719 3.69301 0
M  V30 899 H 87.8878 2.1266 5.06031 0
M  V30 900 H 88.1488 0.524161 4.38982 0
M  V30 901 N 87.2079 -1.17134 1.05439 0
M  V30 902 C 88.6189 -1.69084 0.791676 0
M  V30 903 C 88.9699 -1.83822 -0.685839 0
M  V30 904 O 88.0949 -1.52757 -1.53278 0
M  V30 905 C 88.6899 -3.07119 1.4305 0
M  V30 906 C 87.2489 -3.56225 1.21577 0
M  V30 907 C 86.3959 -2.32421 1.51247 0
M  V30 908 H 89.3469 -1.01617 1.219 0
M  V30 909 H 89.3679 -3.71087 0.84112 0
M  V30 910 H 88.8799 -2.9636 2.50584 0
M  V30 911 H 86.9809 -3.72257 0.159787 0
M  V30 912 H 87.0939 -4.38837 1.92246 0
M  V30 913 H 85.4579 -2.3701 0.932653 0
M  V30 914 H 86.2409 -2.24268 2.5992 0
M  V30 915 N 88.686 -0.835752 -1.33615 0
M  V30 916 C 89.911 -0.442389 -2.02627 0
M  V30 917 C 90.336 0.947735 -1.62479 0
M  V30 918 O 89.694 1.61907 -0.815826 0
M  V30 919 C 89.742 -0.567216 -3.56111 0
M  V30 920 O 88.846 0.407799 -4.10379 0
M  V30 921 H 88.187 -0.180278 -0.639059 0
M  V30 922 H 90.717 -1.12972 -1.70583 0
M  V30 923 H 90.727 -0.447708 -4.05536 0
M  V30 924 H 89.402 -1.58103 -3.84677 0
M  V30 925 H 87.979 0.246107 -3.72087 0
M  V30 926 N 90.1641 1.46063 -0.591896 0
M  V30 927 C 91.1271 2.28854 0.125973 0
M  V30 928 C 92.1271 1.38903 0.810107 0
M  V30 929 O 93.3171 1.61186 0.66066 0
M  V30 930 C 90.4491 3.19526 1.1881 0
M  V30 931 H 91.6421 2.93802 -0.601717 0
M  V30 932 H 89.1951 1.52325 -0.350254 0
M  V30 933 H 89.9301 2.59345 1.94707 0
M  V30 934 H 89.7151 3.85766 0.701936 0
M  V30 935 H 91.2051 3.81817 1.69132 0
M  V30 936 N 91.6422 0.330177 1.54103 0
M  V30 937 C 92.8672 -0.274893 2.0557 0
M  V30 938 C 93.2922 -1.44487 1.20437 0
M  V30 939 O 92.6502 -1.80021 0.214991 0
M  V30 940 C 92.6982 -0.68079 3.54115 0
M  V30 941 O 91.8022 -1.7824 3.71893 0
M  V30 942 H 91.1432 -0.0483849 0.662235 0
M  V30 943 H 93.6732 0.480508 1.98878 0
M  V30 944 H 93.6832 -0.961635 3.96505 0
M  V30 945 H 92.3582 0.174903 4.15532 0
M  V30 946 H 90.9352 -1.49985 3.41407 0
M  V30 947 N 93.1203 -1.57491 0.0584922 0
M  V30 948 C 94.0533 -2.07533 -0.948969 0
M  V30 949 C 95.0313 -0.977444 -1.29942 0
M  V30 950 O 96.2153 -1.2499 -1.41102 0
M  V30 951 C 93.3423 -2.52192 -2.2609 0
M  V30 952 C 92.3883 -3.73287 -2.06298 0
M  V30 953 S 93.2213 -5.18603 -1.33459 0
M  V30 954 C 94.3773 -5.66583 -2.65959 0
M  V30 955 H 94.6103 -2.92662 -0.523118 0
M  V30 956 H 92.1433 -1.53631 -0.153954 0
M  V30 957 H 94.1013 -2.78585 -3.01498 0
M  V30 958 H 92.7623 -1.67356 -2.65802 0
M  V30 959 H 91.9553 -4.0248 -3.03357 0
M  V30 960 H 91.5573 -3.47199 -1.39029 0
M  V30 961 H 93.8493 -5.72616 -3.62101 0
M  V30 962 H 94.7923 -6.65684 -2.41393 0
M  V30 963 H 95.2003 -4.94342 -2.72554 0
M  V30 964 N 94.5984 0.214957 -1.56127 0
M  V30 965 C 95.8464 0.936518 -1.79091 0
M  V30 966 C 96.1674 1.84606 -0.628148 0
M  V30 967 O 95.4374 1.92664 0.35462 0
M  V30 968 H 94.0174 0.3488 -0.660566 0
M  V30 969 H 96.6794 0.22523 -1.93594 0
M  V30 970 H 95.7754 1.53943 -2.71492 0
M  V30 971 N 96.0765 1.50051 0.48192 0
M  V30 972 C 97.4925 1.37237 0.814756 0
M  V30 973 C 97.6925 0.420109 1.97072 0
M  V30 974 O 96.7485 -0.141246 2.52105 0
M  V30 975 C 98.0615 2.78375 1.13701 0
M  V30 976 C 99.6095 2.87213 1.2441 0
M  V30 977 C 100.084 4.29161 1.59954 0
M  V30 978 N 101.575 4.32061 1.66967 0
M  V30 979 C 102.31 5.38879 1.95952 0
M  V30 980 N 101.806 6.55918 2.23031 0
M  V30 981 N 103.599 5.26312 1.97363 0
M  V30 982 H 95.7505 2.10546 -0.28005 0
M  V30 983 H 98.0135 0.945921 -0.0627454 0
M  V30 984 H 97.7195 3.49845 0.360787 0
M  V30 985 H 97.5935 3.14941 2.07586 0
M  V30 986 H 99.9805 2.15969 2.01101 0
M  V30 987 H 100.061 2.54204 0.285299 0
M  V30 988 H 99.7055 5.00938 0.838067 0
M  V30 989 H 99.6355 4.59648 2.56966 0
M  V30 990 H 102.126 3.47661 1.48123 0
M  V30 991 H 102.439 7.33139 2.44391 0
M  V30 992 H 100.784 6.59112 2.20447 0
M  V30 993 H 103.975 4.33876 1.75697 0
M  V30 994 H 104.148 6.09649 2.19618 0
M  V30 995 N 97.5546 -0.734337 1.39446 0
M  V30 996 C 98.8316 -1.48579 1.27215 0
M  V30 997 C 99.2116 -2.1077 -0.117968 0
M  V30 998 O 98.5596 -1.98646 -1.12924 0
M  V30 999 C 98.7696 -2.53667 2.39696 0
M  V30 1000 C 100.118 -3.20031 2.79044 0
M  V30 1001 O 101.142 -2.6398 2.39151 0
M  V30 1002 O 100.001 -4.21455 3.47905 0
M  V30 1003 H 97.0946 -0.659816 0.49857 0
M  V30 1004 H 99.6406 -0.768106 1.51322 0
M  V30 1005 H 98.4126 -2.06096 3.32626 0
M  V30 1006 H 98.0356 -3.32994 2.17258 0
M  V30 1007 N 99.0327 -1.24633 -0.964593 0
M  V30 1008 C 100.282 -1.08188 -1.7023 0
M  V30 1009 C 100.595 0.37873 -1.91898 0
M  V30 1010 O 101.801 0.663427 -2.6327 0
M  V30 1011 C 100.257 -1.88773 -3.06419 0
M  V30 1012 C 99.8647 -3.39263 -2.92582 0
M  V30 1013 C 101.609 -1.80867 -3.84041 0
M  V30 1014 C 99.5157 -4.1218 -4.24101 0
M  V30 1015 H 98.4457 -0.401245 -0.638372 0
M  V30 1016 H 101.097 -1.48742 -1.07462 0
M  V30 1017 H 99.4787 -1.41035 -3.70034 0
M  V30 1018 H 100.653 -3.94603 -2.37961 0
M  V30 1019 H 98.9677 -3.48154 -2.28424 0
M  V30 1020 H 101.565 -2.32646 -4.81435 0
M  V30 1021 H 101.908 -0.774543 -4.09031 0
M  V30 1022 H 102.441 -2.26301 -3.27159 0
M  V30 1023 H 99.1797 -5.15965 -4.04303 0
M  V30 1024 H 98.6997 -3.61626 -4.78526 0
M  V30 1025 H 100.379 -4.19349 -4.92702 0
M  V30 1026 N 100.511 1.16574 -1.06058 0
M  V30 1027 C 101.458 2.20883 -0.669263 0
M  V30 1028 C 102.428 1.62729 0.332918 0
M  V30 1029 O 103.613 1.895 0.222346 0
M  V30 1030 C 100.753 3.45049 -0.0593572 0
M  V30 1031 C 99.8658 4.17458 -1.11143 0
M  V30 1032 C 99.0008 5.29135 -0.467916 0
M  V30 1033 C 98.0398 5.93343 -1.50369 0
M  V30 1034 N 97.1768 6.96516 -0.883706 0
M  V30 1035 H 102.017 2.53709 -1.5632 0
M  V30 1036 H 99.5538 1.24616 -0.781625 0
M  V30 1037 H 101.512 4.16033 0.311771 0
M  V30 1038 H 100.142 3.12781 0.797992 0
M  V30 1039 H 99.1938 3.45101 -1.60029 0
M  V30 1040 H 100.506 4.61307 -1.89731 0
M  V30 1041 H 99.6598 6.06684 -0.0436871 0
M  V30 1042 H 98.3988 4.86443 0.349864 0
M  V30 1043 H 97.4038 5.14517 -1.93784 0
M  V30 1044 H 98.6288 6.38114 -2.32352 0
M  V30 1045 H 96.5748 6.55943 -0.086595 0
M  V30 1046 H 96.4918 7.38723 -1.607 0
M  V30 1047 H 97.7598 7.77993 -0.484543 0
M  V30 1048 N 101.989 0.842826 1.3317 0
M  V30 1049 C 103.235 0.441099 1.97945 0
M  V30 1050 C 103.568 -0.998024 1.66593 0
M  V30 1051 O 102.843 -1.69839 0.947898 0
M  V30 1052 C 103.126 0.666841 3.53872 0
M  V30 1053 C 102.979 2.15352 3.94897 0
M  V30 1054 C 104.298 0.115544 4.39948 0
M  V30 1055 H 101.417 0.161739 0.719034 0
M  V30 1056 H 104.059 1.05907 1.57746 0
M  V30 1057 H 102.209 0.140828 3.88245 0
M  V30 1058 H 103.881 2.7447 3.70761 0
M  V30 1059 H 102.124 2.63653 3.44484 0
M  V30 1060 H 102.795 2.26221 5.03516 0
M  V30 1061 H 105.271 0.565213 4.12243 0
M  V30 1062 H 104.147 0.303152 5.48062 0
M  V30 1063 H 104.408 -0.980935 4.3108 0
M  V30 1064 N 103.467 -1.45747 0.599634 0
M  V30 1065 C 104.399 -2.28628 -0.161879 0
M  V30 1066 C 105.412 -1.39494 -0.839367 0
M  V30 1067 O 106.601 -1.63941 -0.706089 0
M  V30 1068 C 103.701 -3.15014 -1.24976 0
M  V30 1069 C 102.874 -4.32378 -0.660935 0
M  V30 1070 C 101.933 -5.00033 -1.63869 0
M  V30 1071 O 100.959 -5.57085 -1.1681 0
M  V30 1072 N 102.161 -4.98589 -2.97303 0
M  V30 1073 H 104.926 -2.94624 0.549265 0
M  V30 1074 H 102.487 -1.55847 0.438565 0
M  V30 1075 H 104.479 -3.5714 -1.9035 0
M  V30 1076 H 103.049 -2.5098 -1.86354 0
M  V30 1077 H 102.269 -3.9383 0.170688 0
M  V30 1078 H 103.557 -5.08197 -0.247619 0
M  V30 1079 H 102.955 -4.53514 -3.38145 0
M  V30 1080 H 101.512 -5.44603 -3.58121 0
M  V30 1081 N 104.945 -0.338344 -1.53925 0
M  V30 1082 C 106.192 0.259758 -2.00827 0
M  V30 1083 C 106.52 1.50973 -1.22628 0
M  V30 1084 O 105.775 1.93379 -0.300509 0
M  V30 1085 C 106.074 0.62448 -3.51902 0
M  V30 1086 C 105.74 -0.528006 -4.47798 0
M  V30 1087 C 104.402 -0.844298 -4.73735 0
M  V30 1088 C 106.754 -1.30143 -5.0469 0
M  V30 1089 C 104.082 -1.93648 -5.53821 0
M  V30 1090 C 106.434 -2.38382 -5.85967 0
M  V30 1091 C 105.098 -2.70576 -6.10201 0
M  V30 1092 H 104.368 0.0950523 -0.734878 0
M  V30 1093 H 107.015 -0.465182 -1.85764 0
M  V30 1094 H 105.32 1.43006 -3.64769 0
M  V30 1095 H 107.017 1.09905 -3.85645 0
M  V30 1096 H 103.607 -0.271421 -4.2774 0
M  V30 1097 H 107.791 -1.07033 -4.84621 0
M  V30 1098 H 103.047 -2.19021 -5.70824 0
M  V30 1099 H 107.221 -2.98746 -6.29066 0
M  V30 1100 H 104.848 -3.55333 -6.72044 0
M  V30 1101 N 106.423 1.57458 -0.0668435 0
M  V30 1102 C 107.355 2.09413 0.931601 0
M  V30 1103 C 108.368 1.02522 1.26464 0
M  V30 1104 O 109.557 1.30049 1.22269 0
M  V30 1105 C 106.657 2.53537 2.24882 0
M  V30 1106 C 105.83 3.83944 2.09537 0
M  V30 1107 C 104.889 4.14214 3.2452 0
M  V30 1108 O 103.915 4.83891 2.9973 0
M  V30 1109 N 105.117 3.67367 4.49469 0
M  V30 1110 H 107.882 2.95699 0.488048 0
M  V30 1111 H 105.443 1.61462 0.119009 0
M  V30 1112 H 107.435 2.70853 3.00701 0
M  V30 1113 H 106.005 1.72415 2.60753 0
M  V30 1114 H 105.225 3.76057 1.18215 0
M  V30 1115 H 106.513 4.69312 1.96529 0
M  V30 1116 H 105.911 3.11068 4.72497 0
M  V30 1117 H 104.468 3.89891 5.2233 0
M  V30 1118 N 107.901 -0.206675 1.56239 0
M  V30 1119 C 109.149 -0.927007 1.79586 0
M  V30 1120 C 109.47 -1.8427 0.637929 0
M  V30 1121 O 108.74 -1.92849 -0.344398 0
M  V30 1122 H 107.32 -0.345292 0.662407 0
M  V30 1123 H 109.982 -0.21496 1.93711 0
M  V30 1124 H 109.078 -1.52501 2.72305 0
M  V30 1125 N 109.379 -1.50304 -0.473955 0
M  V30 1126 C 110.627 -1.60832 -1.22382 0
M  V30 1127 C 110.948 -0.30939 -1.9253 0
M  V30 1128 O 110.218 0.67296 -1.83978 0
M  V30 1129 H 108.798 -0.592652 -0.454723 0
M  V30 1130 H 111.46 -1.87068 -0.546968 0
M  V30 1131 H 110.556 -2.41803 -1.97327 0
M  V30 1132 N 110.857 0.726932 -1.39834 0
M  V30 1133 C 112.105 1.4837 -1.37225 0
M  V30 1134 C 112.426 1.94979 0.0284857 0
M  V30 1135 O 111.696 1.69555 0.981213 0
M  V30 1136 H 110.276 0.55043 -0.505011 0
M  V30 1137 H 112.938 0.862468 -1.74778 0
M  V30 1138 H 112.034 2.36198 -2.04003 0
M  V30 1139 N 112.336 1.25143 0.95797 0
M  V30 1140 C 113.747 1.08851 1.51685 0
M  V30 1141 C 114.098 -0.33687 1.93286 0
M  V30 1142 O 113.223 -1.22644 1.7829 0
M  V30 1143 C 113.818 1.96978 2.75654 0
M  V30 1144 C 112.377 1.84881 3.27866 0
M  V30 1145 C 111.524 1.91329 2.0072 0
M  V30 1146 H 114.475 1.38478 0.77522 0
M  V30 1147 H 114.496 1.5078 3.4935 0
M  V30 1148 H 114.008 3.00712 2.45345 0
M  V30 1149 H 112.109 0.840182 3.63004 0
M  V30 1150 H 112.222 2.6951 3.96107 0
M  V30 1151 H 110.586 1.35174 2.15871 0
M  V30 1152 H 111.369 2.96661 1.72764 0
M  V30 1153 N 113.814 -1.1601 1.06675 0
M  V30 1154 C 114.764 -2.18512 0.650888 0
M  V30 1155 C 115.748 -1.57677 -0.320441 0
M  V30 1156 O 116.94 -1.76482 -0.135266 0
M  V30 1157 C 114.069 -3.43273 0.0429255 0
M  V30 1158 C 113.155 -4.11176 1.03898 0
M  V30 1159 N 113.546 -4.54672 2.216 0
M  V30 1160 C 111.844 -4.37417 0.870779 0
M  V30 1161 C 112.545 -5.07248 2.84736 0
M  V30 1162 N 111.521 -5.0037 2.12441 0
M  V30 1163 H 115.323 -2.49863 1.54745 0
M  V30 1164 H 112.837 -1.32503 0.938975 0
M  V30 1165 H 114.834 -4.16006 -0.272857 0
M  V30 1166 H 113.494 -3.13408 -0.84884 0
M  V30 1167 H 114.505 -4.4828 2.59356 0
M  V30 1168 H 111.182 -4.17488 0.0313293 0
M  V30 1169 H 112.572 -5.50912 3.84636 0
M  V30 1170 N 115.292 -0.849877 -1.32721 0
M  V30 1171 C 116.255 -0.296122 -2.27279 0
M  V30 1172 C 117.255 0.541458 -1.5141 0
M  V30 1173 O 118.445 0.353658 -1.70572 0
M  V30 1174 C 115.577 0.581579 -3.35902 0
M  V30 1175 H 116.77 -1.13064 -2.77771 0
M  V30 1176 H 114.323 -0.62383 -1.43311 0
M  V30 1177 H 115.058 1.43809 -2.9067 0
M  V30 1178 H 114.843 -0.0178814 -3.92096 0
M  V30 1179 H 116.333 0.961951 -4.0637 0
M  V30 1180 N 116.77 1.45427 -0.607355 0
M  V30 1181 C 118.016 2.0254 -0.102607 0
M  V30 1182 C 118.349 1.47478 1.26348 0
M  V30 1183 O 117.624 0.64939 1.83339 0
M  V30 1184 C 117.907 3.60044 -0.0634347 0
M  V30 1185 C 117.76 4.2544 -1.46017 0
M  V30 1186 C 119.079 4.35646 0.624514 0
M  V30 1187 H 116.198 0.73598 -0.0387607 0
M  V30 1188 H 118.84 1.73284 -0.779282 0
M  V30 1189 H 116.99 3.85101 0.512808 0
M  V30 1190 H 118.662 4.11569 -2.08347 0
M  V30 1191 H 116.905 3.83849 -2.02094 0
M  V30 1192 H 117.576 5.34342 -1.385 0
M  V30 1193 H 120.052 4.15882 0.134723 0
M  V30 1194 H 118.928 5.45376 0.621028 0
M  V30 1195 H 119.189 4.08501 1.69055 0
M  V30 1196 N 118.248 0.346503 1.53744 0
M  V30 1197 C 119.478 -0.250047 2.05081 0
M  V30 1198 C 119.886 -1.44529 1.22098 0
M  V30 1199 O 119.229 -1.81992 0.249917 0
M  V30 1200 C 119.291 -0.725934 3.52094 0
M  V30 1201 C 118.955 0.350053 4.55657 0
M  V30 1202 C 119.952 1.19372 5.0601 0
M  V30 1203 C 117.637 0.504827 4.99757 0
M  V30 1204 C 119.631 2.17768 5.99046 0
M  V30 1205 C 117.318 1.49218 5.92602 0
M  V30 1206 C 118.316 2.32706 6.42135 0
M  V30 1207 O 118.004 3.2976 7.33153 0
M  V30 1208 H 117.736 -0.0515469 0.674032 0
M  V30 1209 H 120.29 0.497559 1.99282 0
M  V30 1210 H 118.52 -1.52483 3.55367 0
M  V30 1211 H 120.209 -1.24336 3.86388 0
M  V30 1212 H 120.975 1.08525 4.72702 0
M  V30 1213 H 116.854 -0.135178 4.60802 0
M  V30 1214 H 120.398 2.82971 6.37631 0
M  V30 1215 H 116.295 1.6012 6.25325 0
M  V30 1216 H 117.063 3.25265 7.51096 0
M  V30 1217 N 119.726 -1.57421 0.075193 0
M  V30 1218 C 120.656 -2.15942 -0.888324 0
M  V30 1219 C 121.637 -1.08737 -1.30806 0
M  V30 1220 O 122.822 -1.36787 -1.37851 0
M  V30 1221 C 119.952 -2.72379 -2.1547 0
M  V30 1222 C 118.906 -3.8478 -1.87425 0
M  V30 1223 C 118.232 -4.27834 -3.20721 0
M  V30 1224 C 119.532 -5.08869 -1.17684 0
M  V30 1225 H 121.226 -2.96705 -0.400799 0
M  V30 1226 H 118.772 -1.42723 -0.191342 0
M  V30 1227 H 120.725 -3.11965 -2.83295 0
M  V30 1228 H 119.449 -1.88841 -2.6647 0
M  V30 1229 H 118.108 -3.45703 -1.22004 0
M  V30 1230 H 117.756 -3.41214 -3.6957 0
M  V30 1231 H 117.456 -5.03605 -3.02746 0
M  V30 1232 H 118.98 -4.70039 -3.89738 0
M  V30 1233 H 120.394 -5.4575 -1.75584 0
M  V30 1234 H 118.791 -5.8994 -1.09956 0
M  V30 1235 H 119.861 -4.84648 -0.156453 0
M  V30 1236 N 121.204 0.198386 -1.56346 0
M  V30 1237 C 122.134 1.24865 -1.9731 0
M  V30 1238 C 123.115 1.47651 -0.844576 0
M  V30 1239 O 124.3 1.59444 -1.10866 0
M  V30 1240 C 121.43 2.59358 -2.30977 0
M  V30 1241 C 120.384 2.5119 -3.46537 0
M  V30 1242 C 119.71 3.89926 -3.65871 0
M  V30 1243 C 121.01 2.03977 -4.80823 0
M  V30 1244 H 122.704 0.908252 -2.85291 0
M  V30 1245 H 120.25 0.435462 -1.37258 0
M  V30 1246 H 122.203 3.33011 -2.58228 0
M  V30 1247 H 120.927 2.95132 -1.39874 0
M  V30 1248 H 119.586 1.79993 -3.19371 0
M  V30 1249 H 119.234 4.23046 -2.72105 0
M  V30 1250 H 118.934 3.85336 -4.4361 0
M  V30 1251 H 120.458 4.65205 -3.95495 0
M  V30 1252 H 121.872 2.67386 -5.07127 0
M  V30 1253 H 120.269 2.10397 -5.62008 0
M  V30 1254 H 121.339 0.992861 -4.74626 0
M  V30 1255 N 122.682 1.50554 0.465978 0
M  V30 1256 C 123.959 1.5232 1.22712 0
M  V30 1257 C 124.339 0.270807 2.09356 0
M  V30 1258 O 123.687 -0.745541 2.15995 0
M  V30 1259 C 123.897 2.82175 2.05374 0
M  V30 1260 C 125.245 3.33033 2.6339 0
M  V30 1261 O 126.269 2.83531 2.15612 0
M  V30 1262 O 125.128 4.19336 3.50456 0
M  V30 1263 H 122.222 0.611183 0.557122 0
M  V30 1264 H 124.768 1.62847 0.477381 0
M  V30 1265 H 123.54 3.64797 1.41558 0
M  V30 1266 H 123.163 2.74675 2.87471 0
M  V30 1267 N 124.16 -0.719506 1.40217 0
M  V30 1268 C 125.408 -1.47641 1.3801 0
M  V30 1269 C 125.729 -1.94992 -0.018145 0
M  V30 1270 O 124.999 -1.70073 -0.972207 0
M  V30 1271 H 123.579 -0.547744 0.507923 0
M  V30 1272 H 126.241 -0.853187 1.75233 0
M  V30 1273 H 125.337 -2.35112 2.05253 0
M  V30 1274 N 125.638 -1.25649 -0.95132 0
M  V30 1275 C 126.568 -1.08808 -2.06599 0
M  V30 1276 C 127.549 0.00382547 -1.701 0
M  V30 1277 O 128.734 -0.166325 -1.93486 0
M  V30 1278 C 125.864 -0.709542 -3.39975 0
M  V30 1279 C 124.818 -1.75206 -3.90496 0
M  V30 1280 C 124.144 -1.22811 -5.20405 0
M  V30 1281 C 125.444 -3.15153 -4.16504 0
M  V30 1282 H 127.138 -2.02048 -2.20946 0
M  V30 1283 H 124.684 -0.972835 -1.06169 0
M  V30 1284 H 126.637 -0.578649 -4.17408 0
M  V30 1285 H 125.361 0.258556 -3.25575 0
M  V30 1286 H 124.02 -1.87145 -3.15234 0
M  V30 1287 H 123.668 -0.250145 -5.02378 0
M  V30 1288 H 123.368 -1.92492 -5.55176 0
M  V30 1289 H 124.892 -1.10968 -6.00432 0
M  V30 1290 H 126.306 -3.06349 -4.84586 0
M  V30 1291 H 124.703 -3.82333 -4.62538 0
M  V30 1292 H 125.773 -3.61966 -3.22658 0
M  V30 1293 N 127.117 1.15442 -1.07289 0
M  V30 1294 C 128.533 1.38201 -0.798288 0
M  V30 1295 C 128.733 1.92429 0.597769 0
M  V30 1296 O 127.789 2.12962 1.3566 0
M  V30 1297 C 129.102 2.35357 -1.87156 0
M  V30 1298 C 130.65 2.49021 -1.89624 0
M  V30 1299 C 131.125 3.49468 -2.96034 0
M  V30 1300 N 132.616 3.57003 -2.95132 0
M  V30 1301 C 133.351 4.34543 -3.74112 0
M  V30 1302 N 132.847 5.15421 -4.6294 0
M  V30 1303 N 134.64 4.29625 -3.62462 0
M  V30 1304 H 126.791 0.78584 -1.97328 0
M  V30 1305 H 129.054 0.408065 -0.855679 0
M  V30 1306 H 128.76 2.02626 -2.87464 0
M  V30 1307 H 128.634 3.35129 -1.73114 0
M  V30 1308 H 131.021 2.81051 -0.899687 0
M  V30 1309 H 131.102 1.4925 -2.07745 0
M  V30 1310 H 130.746 3.18173 -3.95889 0
M  V30 1311 H 130.676 4.48992 -2.75161 0
M  V30 1312 H 133.167 2.99276 -2.30743 0
M  V30 1313 H 133.48 5.7183 -5.19837 0
M  V30 1314 H 131.825 5.14729 -4.66989 0
M  V30 1315 H 135.016 3.65505 -2.92444 0
M  V30 1316 H 135.189 4.89807 -4.24256 0
M  V30 1317 N 128.595 0.856903 1.32268 0
M  V30 1318 C 129.558 0.308171 2.27119 0
M  V30 1319 C 130.558 -0.533421 1.51695 0
M  V30 1320 O 131.748 -0.344607 1.70757 0
M  V30 1321 C 128.88 -0.563757 3.36206 0
M  V30 1322 H 130.073 1.14535 2.77167 0
M  V30 1323 H 127.626 0.631421 1.42978 0
M  V30 1324 H 128.361 -1.42266 2.91429 0
M  V30 1325 H 128.146 0.0386749 3.92081 0
M  V30 1326 H 129.636 -0.940386 4.06874 0
M  V30 1327 N 130.073 -1.45103 0.615059 0
M  V30 1328 C 131.005 -2.28786 -0.13762 0
M  V30 1329 C 132.018 -1.40376 -0.824525 0
M  V30 1330 O 133.207 -1.64681 -0.688662 0
M  V30 1331 C 130.307 -3.16322 -1.21628 0
M  V30 1332 C 129.48 -4.33054 -0.615039 0
M  V30 1333 C 128.539 -5.01743 -1.58556 0
M  V30 1334 O 127.565 -5.58293 -1.10895 0
M  V30 1335 N 128.767 -5.01714 -2.91998 0
M  V30 1336 H 131.532 -2.94025 0.580483 0
M  V30 1337 H 129.093 -1.55373 0.45507 0
M  V30 1338 H 131.085 -3.59139 -1.86552 0
M  V30 1339 H 129.655 -2.52943 -1.83681 0
M  V30 1340 H 128.875 -3.93627 0.21245 0
M  V30 1341 H 130.163 -5.08431 -0.193704 0
M  V30 1342 H 129.561 -4.57075 -3.33316 0
M  V30 1343 H 128.118 -5.48371 -3.52325 0
M  V30 1344 N 131.551 -0.354651 -1.53558 0
M  V30 1345 C 132.828 0.294281 -1.93374 0
M  V30 1346 C 133.208 1.67313 -1.28723 0
M  V30 1347 O 132.556 2.24179 -0.442247 0
M  V30 1348 C 132.766 0.355445 -3.47185 0
M  V30 1349 C 134.114 0.601007 -4.20325 0
M  V30 1350 O 135.138 0.437106 -3.53508 0
M  V30 1351 O 133.997 0.919322 -5.38712 0
M  V30 1352 H 131.091 0.174033 -0.808481 0
M  V30 1353 H 133.637 -0.406638 -1.64756 0
M  V30 1354 H 132.409 -0.611729 -3.86489 0
M  V30 1355 H 132.032 1.1027 -3.82003 0
M  V30 1356 N 133.029 1.57378 -0.0835403 0
M  V30 1357 C 134.306 1.85363 0.624507 0
M  V30 1358 C 134.686 0.978239 1.87066 0
M  V30 1359 O 134.034 0.0475908 2.2845 0
M  V30 1360 C 134.244 3.35795 0.950947 0
M  V30 1361 C 135.592 4.03581 1.31939 0
M  V30 1362 O 136.616 3.40609 1.04232 0
M  V30 1363 O 135.475 5.14672 1.83779 0
M  V30 1364 H 132.569 0.766162 0.311329 0
M  V30 1365 H 135.115 1.69307 -0.115362 0
M  V30 1366 H 133.887 3.91244 0.0663899 0
M  V30 1367 H 133.51 3.57154 1.74719 0
M  V30 1368 N 134.507 -0.190092 1.56449 0
M  V30 1369 C 135.737 -0.92443 1.84764 0
M  V30 1370 C 136.145 -1.77146 0.664529 0
M  V30 1371 O 135.488 -1.79812 -0.375957 0
M  V30 1372 C 135.55 -1.86651 3.07248 0
M  V30 1373 C 135.214 -1.20094 4.40938 0
M  V30 1374 C 136.211 -0.575445 5.16706 0
M  V30 1375 C 133.896 -1.2033 4.87674 0
M  V30 1376 C 135.89 0.0388111 6.37388 0
M  V30 1377 C 133.577 -0.585214 6.08291 0
M  V30 1378 C 134.575 0.0347578 6.82991 0
M  V30 1379 O 134.263 0.643147 8.01323 0
M  V30 1380 H 133.995 -0.274974 0.617548 0
M  V30 1381 H 136.549 -0.200788 2.04416 0
M  V30 1382 H 134.779 -2.62998 2.83494 0
M  V30 1383 H 136.468 -2.46907 3.22167 0
M  V30 1384 H 137.234 -0.565728 4.81689 0
M  V30 1385 H 133.113 -1.67526 4.29484 0
M  V30 1386 H 136.657 0.523329 6.95634 0
M  V30 1387 H 132.554 -0.592451 6.42775 0
M  V30 1388 H 133.322 0.540545 8.16713 0
M  V30 1389 N 135.985 -1.50799 -0.457987 0
M  V30 1390 C 136.933 -1.71162 -1.575 0
M  V30 1391 C 137.927 -0.577592 -1.59249 0
M  V30 1392 O 139.133 -0.758443 -1.63241 0
M  V30 1393 H 135.508 -0.540468 -0.522875 0
M  V30 1394 H 137.479 -2.64837 -1.37492 0
M  V30 1395 C 136.228 -1.83496 -2.95338 0
M  V30 1396 H 135.551 -2.70153 -2.94716 0
M  V30 1397 H 136.991 -2.01765 -3.72917 0
M  V30 1398 C 135.45 -0.589694 -3.31699 0
M  V30 1399 O 135.98 0.265163 -4.00824 0
M  V30 1400 N 134.186 -0.439845 -2.87252 0
M  V30 1401 H 133.733 -1.13655 -2.31172 0
M  V30 1402 H 133.691 0.392159 -3.11945 0
M  V30 1403 N 137.463 0.71206 -1.40597 0
M  V30 1404 C 138.711 1.46907 -1.38791 0
M  V30 1405 C 139.032 1.94998 0.00780391 0
M  V30 1406 O 138.302 1.70587 0.963174 0
M  V30 1407 H 136.882 0.545043 -0.51082 0
M  V30 1408 H 139.544 0.843882 -1.75683 0
M  V30 1409 H 138.64 2.34021 -2.06496 0
M  V30 1410 N 138.941 1.26152 0.944643 0
M  V30 1411 C 140.187 1.12665 1.69346 0
M  V30 1412 C 140.542 -0.3273 1.89596 0
M  V30 1413 O 139.835 -1.23717 1.46303 0
M  V30 1414 C 140.029 1.82541 3.07268 0
M  V30 1415 C 139.858 3.34582 3.00475 0
M  V30 1416 C 138.628 4.03863 3.03681 0
M  V30 1417 C 140.826 4.30828 2.80877 0
M  V30 1418 N 138.808 5.42603 2.87151 0
M  V30 1419 C 140.179 5.5672 2.7288 0
M  V30 1420 C 142.234 4.21122 2.65633 0
M  V30 1421 C 140.937 6.74013 2.51196 0
M  V30 1422 C 142.963 5.38118 2.45323 0
M  V30 1423 C 142.325 6.62955 2.38055 0
M  V30 1424 H 138.424 0.467041 0.627214 0
M  V30 1425 H 141.008 1.59391 1.11815 0
M  V30 1426 H 139.179 1.38296 3.62945 0
M  V30 1427 H 140.911 1.61708 3.70989 0
M  V30 1428 H 137.666 3.55198 3.1326 0
M  V30 1429 H 138.09 6.15443 2.82063 0
M  V30 1430 H 142.732 3.25344 2.70021 0
M  V30 1431 H 140.45 7.6989 2.4555 0
M  V30 1432 H 144.036 5.32475 2.34439 0
M  V30 1433 H 142.916 7.51959 2.22546 0
M  V30 1434 N 140.419 -1.14872 1.07899 0
M  V30 1435 C 141.696 -1.81928 0.71845 0
M  V30 1436 C 142.076 -1.95417 -0.798455 0
M  V30 1437 O 141.424 -1.50997 -1.715 0
M  V30 1438 C 141.634 -3.17937 1.43935 0
M  V30 1439 C 142.982 -3.93501 1.59506 0
M  V30 1440 O 144.006 -3.27509 1.40058 0
M  V30 1441 O 142.865 -5.1183 1.91551 0
M  V30 1442 H 139.959 -0.78628 0.256305 0
M  V30 1443 H 142.505 -1.21934 1.18026 0
M  V30 1444 H 141.277 -3.0325 2.47295 0
M  V30 1445 H 140.9 -3.85619 0.968687 0
M  V30 1446 N 141.898 -0.863906 -1.31812 0
M  V30 1447 C 143.147 -0.46801 -1.96195 0
M  V30 1448 C 143.46 0.983474 -1.69077 0
M  V30 1449 O 144.666 1.48523 -2.27273 0
M  V30 1450 C 143.122 -0.785995 -3.51212 0
M  V30 1451 C 142.73 -2.25383 -3.87178 0
M  V30 1452 C 144.474 -0.458274 -4.22019 0
M  V30 1453 C 142.381 -2.51455 -5.3528 0
M  V30 1454 H 141.311 -0.171283 -0.734287 0
M  V30 1455 H 143.962 -1.05597 -1.50072 0
M  V30 1456 H 142.344 -0.127359 -3.95795 0
M  V30 1457 H 143.518 -2.95502 -3.53575 0
M  V30 1458 H 141.833 -2.54698 -3.2942 0
M  V30 1459 H 144.43 -0.630369 -5.30971 0
M  V30 1460 H 144.773 0.600834 -4.11941 0
M  V30 1461 H 145.306 -1.07319 -3.8305 0
M  V30 1462 H 142.045 -3.56025 -5.50387 0
M  V30 1463 H 141.565 -1.85923 -5.70257 0
M  V30 1464 H 143.244 -2.35874 -6.02472 0
M  V30 1465 N 143.376 1.44774 -0.622745 0
M  V30 1466 C 144.324 2.32387 0.0994683 0
M  V30 1467 C 145.318 1.46859 0.844326 0
M  V30 1468 O 146.524 1.63254 0.758174 0
M  V30 1469 H 142.899 0.750273 0.0509291 0
M  V30 1470 H 144.87 2.91062 -0.65767 0
M  V30 1471 C 143.619 3.30723 1.07319 0
M  V30 1472 H 142.942 3.96541 0.509462 0
M  V30 1473 H 144.382 3.94725 1.54817 0
M  V30 1474 C 142.841 2.59021 2.15429 0
M  V30 1475 O 143.371 2.38286 3.23393 0
M  V30 1476 N 141.577 2.189 1.91131 0
M  V30 1477 H 141.124 2.35964 1.03337 0
M  V30 1478 H 141.082 1.71251 2.63668 0
M  V30 1479 N 144.854 0.36279 1.53368 0
M  V30 1480 C 146.082 -0.228613 2.05633 0
M  V30 1481 C 146.497 -1.42676 1.23649 0
M  V30 1482 O 145.854 -1.80394 0.27647 0
M  V30 1483 C 145.905 -0.624845 3.56059 0
M  V30 1484 O 145.626 0.525675 4.34935 0
M  V30 1485 C 147.127 -1.27493 4.24571 0
M  V30 1486 H 144.347 -0.0407183 0.669763 0
M  V30 1487 H 146.891 0.520352 1.97769 0
M  V30 1488 H 145.046 -1.32373 3.64083 0
M  V30 1489 H 145.46 0.205969 5.24095 0
M  V30 1490 H 146.934 -1.50277 5.31151 0
M  V30 1491 H 147.411 -2.23439 3.78116 0
M  V30 1492 H 148.017 -0.617558 4.20792 0
M  V30 1493 N 146.332 -1.57332 0.0918853 0
M  V30 1494 C 147.743 -1.81496 -0.437739 0
M  V30 1495 C 148.094 -1.00727 -1.6837 0
M  V30 1496 O 147.219 -0.235694 -2.15113 0
M  V30 1497 C 147.814 -3.29197 -0.800939 0
M  V30 1498 C 146.373 -3.54136 -1.27532 0
M  V30 1499 C 145.52 -2.75979 -0.270392 0
M  V30 1500 H 148.471 -1.55494 0.317366 0
M  V30 1501 H 148.492 -3.42344 -1.66074 0
M  V30 1502 H 148.004 -3.87955 0.106078 0
M  V30 1503 H 146.105 -3.00705 -2.20016 0
M  V30 1504 H 146.218 -4.62792 -1.23938 0
M  V30 1505 H 144.582 -2.43349 -0.751872 0
M  V30 1506 H 145.365 -3.37484 0.629248 0
M  V30 1507 N 147.81 0.181792 -1.56548 0
M  V30 1508 C 148.773 1.20894 -1.94724 0
M  V30 1509 C 149.773 1.37738 -0.829747 0
M  V30 1510 O 150.963 1.35323 -1.09697 0
M  V30 1511 C 148.095 2.57593 -2.23291 0
M  V30 1512 H 149.288 0.882275 -2.86629 0
M  V30 1513 H 146.841 0.423838 -1.50444 0
M  V30 1514 H 147.576 2.95291 -1.34067 0
M  V30 1515 H 147.361 2.46735 -3.04736 0
M  V30 1516 H 148.851 3.31637 -2.53785 0
M  V30 1517 N 149.288 1.51039 0.449983 0
M  V30 1518 C 150.535 1.63081 1.20045 0
M  V30 1519 C 150.863 0.341024 1.91487 0
M  V30 1520 O 150.118 -0.674276 1.83717 0
M  V30 1521 C 150.417 2.77556 2.25161 0
M  V30 1522 C 150.083 4.17289 1.70823 0
M  V30 1523 C 148.745 4.55305 1.55725 0
M  V30 1524 C 151.097 5.04536 1.3074 0
M  V30 1525 C 148.425 5.78287 0.989999 0
M  V30 1526 C 150.777 6.28085 0.754482 0
M  V30 1527 C 149.441 6.64885 0.590308 0
M  V30 1528 H 148.711 0.596755 0.439277 0
M  V30 1529 H 151.358 1.85037 0.49333 0
M  V30 1530 H 149.663 2.49771 3.01863 0
M  V30 1531 H 151.36 2.84073 2.83026 0
M  V30 1532 H 147.95 3.8731 1.83546 0
M  V30 1533 H 152.134 4.75782 1.41229 0
M  V30 1534 H 147.39 6.05456 0.850451 0
M  V30 1535 H 151.564 6.95038 0.435324 0
M  V30 1536 H 149.191 7.60055 0.14862 0
M  V30 1537 N 150.766 -0.704594 1.40972 0
M  V30 1538 C 151.676 -1.84856 1.44448 0
M  V30 1539 C 152.692 -1.70726 0.335961 0
M  V30 1540 O 153.868 -1.92799 0.582276 0
M  V30 1541 C 150.933 -3.20758 1.31587 0
M  V30 1542 C 149.994 -3.47063 2.52677 0
M  V30 1543 C 149.227 -4.76481 2.4042 0
M  V30 1544 O 149.45 -5.52341 1.42391 0
M  V30 1545 O 148.384 -5.03367 3.30007 0
M  V30 1546 H 152.21 -1.8488 2.40942 0
M  V30 1547 H 149.795 -0.85647 1.22413 0
M  V30 1548 H 151.677 -4.01913 1.26665 0
M  V30 1549 H 150.352 -3.21438 0.382049 0
M  V30 1550 H 149.259 -2.65873 2.63177 0
M  V30 1551 H 150.592 -3.5119 3.44858 0
M  V30 1552 N 152.244 -1.26651 -0.937939 0
M  V30 1553 C 153.154 -1.10276 -2.07066 0
M  V30 1554 C 154.17 -0.0354197 -1.73964 0
M  V30 1555 O 155.346 -0.239816 -1.99967 0
M  V30 1556 C 152.411 -0.740887 -3.38691 0
M  V30 1557 C 151.472 -1.88799 -3.85556 0
M  V30 1558 C 150.705 -1.54329 -5.10899 0
M  V30 1559 O 150.928 -0.446494 -5.6865 0
M  V30 1560 O 149.862 -2.37911 -5.52885 0
M  V30 1561 H 153.688 -2.05309 -2.23789 0
M  V30 1562 H 151.273 -1.05743 -1.0554 0
M  V30 1563 H 153.155 -0.55195 -4.1777 0
M  V30 1564 H 151.83 0.180022 -3.23199 0
M  V30 1565 H 150.737 -2.13191 -3.07409 0
M  V30 1566 H 152.07 -2.78874 -4.05574 0
M  V30 1567 N 153.722 1.14298 -1.08507 0
M  V30 1568 C 154.952 1.88945 -0.835663 0
M  V30 1569 C 155.36 1.78894 0.615928 0
M  V30 1570 O 154.703 1.1468 1.43506 0
M  V30 1571 C 154.765 3.39585 -1.17994 0
M  V30 1572 C 154.429 3.7342 -2.63451 0
M  V30 1573 C 155.426 3.73454 -3.61702 0
M  V30 1574 C 153.111 4.03368 -2.99332 0
M  V30 1575 C 155.105 4.02961 -4.93864 0
M  V30 1576 C 152.792 4.32538 -4.31687 0
M  V30 1577 C 153.79 4.32318 -5.28763 0
M  V30 1578 O 153.478 4.6078 -6.58739 0
M  V30 1579 H 153.21 0.605307 -0.300965 0
M  V30 1580 H 155.764 1.45673 -1.44806 0
M  V30 1581 H 153.994 3.83315 -0.51055 0
M  V30 1582 H 155.683 3.9554 -0.911182 0
M  V30 1583 H 156.449 3.50403 -3.35325 0
M  V30 1584 H 152.328 4.02692 -2.24411 0
M  V30 1585 H 155.872 4.02704 -5.69627 0
M  V30 1586 H 151.769 4.55059 -4.57812 0
M  V30 1587 H 152.537 4.78492 -6.64069 0
M  V30 1588 N 155.201 0.870884 1.31352 0
M  V30 1589 C 156.431 0.496049 2.00557 0
M  V30 1590 C 156.839 -0.916241 1.65534 0
M  V30 1591 O 156.182 -1.61188 0.881134 0
M  V30 1592 C 156.244 0.574418 3.54881 0
M  V30 1593 C 155.908 1.94849 4.1338 0
M  V30 1594 C 156.905 2.91611 4.30417 0
M  V30 1595 C 154.59 2.25005 4.49086 0
M  V30 1596 C 156.584 4.16672 4.82352 0
M  V30 1597 C 154.271 3.50315 5.00722 0
M  V30 1598 C 155.269 4.45964 5.17306 0
M  V30 1599 O 154.957 5.69052 5.67833 0
M  V30 1600 H 154.689 0.191664 0.64826 0
M  V30 1601 H 157.243 1.17409 1.68536 0
M  V30 1602 H 155.473 -0.160549 3.86367 0
M  V30 1603 H 157.162 0.212879 4.05341 0
M  V30 1604 H 157.928 2.69622 4.03149 0
M  V30 1605 H 153.807 1.51332 4.35453 0
M  V30 1606 H 157.351 4.91336 4.95211 0
M  V30 1607 H 153.248 3.72147 5.27424 0
M  V30 1608 H 154.016 5.71236 5.86201 0
M  V30 1609 N 156.679 -1.44442 0.630414 0
M  V30 1610 C 157.611 -2.2892 -0.113347 0
M  V30 1611 C 158.624 -1.41243 -0.80959 0
M  V30 1612 O 159.813 -1.65402 -0.671156 0
M  V30 1613 C 156.913 -3.17594 -1.18266 0
M  V30 1614 C 156.086 -4.33682 -0.569073 0
M  V30 1615 C 155.145 -5.03397 -1.53226 0
M  V30 1616 O 154.171 -5.59438 -1.04967 0
M  V30 1617 N 155.373 -5.04783 -2.86661 0
M  V30 1618 H 158.138 -2.93392 0.611636 0
M  V30 1619 H 155.699 -1.54881 0.471523 0
M  V30 1620 H 157.691 -3.61097 -1.82732 0
M  V30 1621 H 156.261 -2.54876 -1.80988 0
M  V30 1622 H 155.481 -3.9338 0.254187 0
M  V30 1623 H 156.769 -5.08608 -0.139767 0
M  V30 1624 H 156.167 -4.60584 -3.28449 0
M  V30 1625 H 154.724 -5.52077 -3.46489 0
M  V30 1626 N 158.157 -0.370918 -1.53173 0
M  V30 1627 C 159.382 0.220293 -2.06227 0
M  V30 1628 C 159.807 1.41243 -1.24225 0
M  V30 1629 O 159.165 1.79387 -0.262645 0
M  V30 1630 C 159.213 0.586663 -3.55796 0
M  V30 1631 O 158.317 1.68317 -3.76488 0
M  V30 1632 H 157.658 0.0308099 -0.663285 0
M  V30 1633 H 160.188 -0.533068 -1.97534 0
M  V30 1634 H 160.198 0.85617 -3.98916 0
M  V30 1635 H 158.873 -0.285013 -4.14922 0
M  V30 1636 H 157.45 1.40881 -3.45264 0
M  V30 1637 N 159.635 1.57281 -0.100228 0
M  V30 1638 C 160.883 1.94153 0.561157 0
M  V30 1639 C 161.204 0.983157 1.68401 0
M  V30 1640 O 160.474 0.0361132 1.95867 0
M  V30 1641 H 159.054 0.716791 0.210283 0
M  V30 1642 H 161.716 1.94202 -0.164765 0
M  V30 1643 H 160.812 2.96709 0.968008 0
M  V30 1644 N 161.113 -0.173488 1.56642 0
M  V30 1645 C 162.043 -1.2171 1.99271 0
M  V30 1646 C 163.024 -1.46289 0.867959 0
M  V30 1647 O 164.209 -1.5766 1.13388 0
M  V30 1648 C 161.339 -2.55651 2.35074 0
M  V30 1649 C 160.293 -2.45645 3.50489 0
M  V30 1650 C 159.619 -3.84056 3.72028 0
M  V30 1651 C 160.919 -1.96302 4.84007 0
M  V30 1652 H 162.613 -0.86275 2.867 0
M  V30 1653 H 160.159 -0.413571 1.37933 0
M  V30 1654 H 162.112 -3.2886 2.63494 0
M  V30 1655 H 160.836 -2.92869 1.44552 0
M  V30 1656 H 159.495 -1.7489 3.22194 0
M  V30 1657 H 159.143 -4.18664 2.788 0
M  V30 1658 H 158.843 -3.7823 4.49684 0
M  V30 1659 H 160.367 -4.58854 4.02846 0
M  V30 1660 H 161.781 -2.59284 5.11317 0
M  V30 1661 H 160.178 -2.01429 5.65284 0
M  V30 1662 H 161.248 -0.917226 4.76146 0
M  V30 1663 N 162.591 -1.51276 -0.441967 0
M  V30 1664 C 163.816 -1.67799 -1.21895 0
M  V30 1665 C 164.241 -0.372864 -1.84367 0
M  V30 1666 O 163.599 0.666501 -1.68604 0
M  V30 1667 C 163.647 -2.79199 -2.28211 0
M  V30 1668 O 162.751 -2.42479 -3.33583 0
M  V30 1669 H 162.092 -0.559649 -0.357336 0
M  V30 1670 H 164.622 -1.97815 -0.522522 0
M  V30 1671 H 164.632 -3.03146 -2.73069 0
M  V30 1672 H 163.307 -3.73906 -1.82118 0
M  V30 1673 H 161.884 -2.29087 -2.94234 0
M  V30 1674 N 164.069 0.697108 -1.41344 0
M  V30 1675 C 165.315 1.4593 -1.40827 0
M  V30 1676 C 165.648 1.94193 -0.0167098 0
M  V30 1677 O 164.923 1.69425 0.955263 0
M  V30 1678 C 165.206 2.67229 -2.41373 0
M  V30 1679 C 165.059 2.24741 -3.8963 0
M  V30 1680 C 166.378 3.69423 -2.39196 0
M  V30 1681 H 163.497 0.529303 -0.512842 0
M  V30 1682 H 166.139 0.794112 -1.72609 0
M  V30 1683 H 164.289 3.23982 -2.14401 0
M  V30 1684 H 165.961 1.73327 -4.27499 0
M  V30 1685 H 164.204 1.56542 -4.0457 0
M  V30 1686 H 164.875 3.1177 -4.55525 0
M  V30 1687 H 167.351 3.2234 -2.63128 0
M  V30 1688 H 166.227 4.51907 -3.11563 0
M  V30 1689 H 166.488 4.19012 -1.41001 0
M  V30 1690 N 165.547 1.27147 0.931209 0
M  V30 1691 C 166.796 1.12664 1.67302 0
M  V30 1692 C 167.109 -0.327718 1.92835 0
M  V30 1693 O 168.315 -0.593392 2.64936 0
M  V30 1694 C 166.771 1.9683 3.01307 0
M  V30 1695 C 166.379 3.46901 2.83485 0
M  V30 1696 C 168.123 1.90985 3.79111 0
M  V30 1697 C 166.03 4.23279 4.13024 0
M  V30 1698 H 164.96 0.41803 0.627509 0
M  V30 1699 H 167.611 1.51539 1.03481 0
M  V30 1700 H 165.993 1.50797 3.66164 0
M  V30 1701 H 167.167 4.00773 2.27415 0
M  V30 1702 H 165.482 3.54088 2.19113 0
M  V30 1703 H 168.079 2.45328 4.75098 0
M  V30 1704 H 168.422 0.882718 4.06834 0
M  V30 1705 H 168.955 2.34895 3.21044 0
M  V30 1706 H 165.694 5.26503 3.90481 0
M  V30 1707 H 165.214 3.74186 4.6877 0
M  V30 1708 H 166.893 4.32265 4.81411 0
M  V30 1709 N 167.025 -1.13721 1.09112 0
M  V30 1710 C 167.958 -2.18094 0.67158 0
M  V30 1711 C 168.936 -1.59414 -0.320299 0
M  V30 1712 O 170.12 -1.87183 -0.222444 0
M  V30 1713 C 167.247 -3.38698 -0.0111189 0
M  V30 1714 C 166.293 -4.15966 0.942055 0
M  V30 1715 S 167.126 -4.7604 2.45246 0
M  V30 1716 C 168.282 -5.99994 1.78208 0
M  V30 1717 H 168.515 -2.53344 1.55577 0
M  V30 1718 H 166.048 -1.24967 0.906789 0
M  V30 1719 H 168.006 -4.08559 -0.398716 0
M  V30 1720 H 166.667 -3.01756 -0.871905 0
M  V30 1721 H 165.86 -5.02318 0.411396 0
M  V30 1722 H 165.462 -3.51745 1.2709 0
M  V30 1723 H 167.754 -6.68441 1.10424 0
M  V30 1724 H 168.697 -6.57662 2.62463 0
M  V30 1725 H 169.105 -5.50432 1.25238 0
M  V30 1726 N 168.503 -0.877838 -1.30888 0
M  V30 1727 C 169.914 -0.544193 -1.78593 0
M  V30 1728 C 170.265 0.939301 -1.72254 0
M  V30 1729 O 169.39 1.7337 -1.29505 0
M  V30 1730 C 169.985 -0.98105 -3.24285 0
M  V30 1731 C 168.544 -0.698935 -3.69854 0
M  V30 1732 C 167.691 -1.168 -2.51502 0
M  V30 1733 H 170.642 -1.06278 -1.17859 0
M  V30 1734 H 170.663 -0.307009 -3.79259 0
M  V30 1735 H 170.175 -2.06079 -3.28866 0
M  V30 1736 H 168.276 0.369112 -3.70767 0
M  V30 1737 H 168.389 -1.28148 -4.61644 0
M  V30 1738 H 166.753 -0.587535 -2.47831 0
M  V30 1739 H 167.536 -2.25533 -2.58824 0
M  V30 1740 N 169.982 1.44106 -0.638065 0
M  V30 1741 C 171.228 2.02277 -0.145546 0
M  V30 1742 C 171.561 1.50125 1.23191 0
M  V30 1743 O 170.836 0.688133 1.8192 0
M  V30 1744 C 171.119 3.59829 -0.139791 0
M  V30 1745 C 170.972 4.22247 -1.55008 0
M  V30 1746 C 172.291 4.36873 0.531966 0
M  V30 1747 H 169.41 0.734992 -0.0543632 0
M  V30 1748 H 172.052 1.71592 -0.815863 0
M  V30 1749 H 170.202 3.86102 0.431007 0
M  V30 1750 H 171.874 4.07057 -2.1703 0
M  V30 1751 H 170.117 3.79476 -2.10191 0
M  V30 1752 H 170.788 5.31284 -1.49804 0
M  V30 1753 H 173.264 4.16074 0.0464781 0
M  V30 1754 H 172.14 5.4657 0.505206 0
M  V30 1755 H 172.401 4.11995 1.60352 0
M  V30 1756 N 171.46 0.379036 1.52974 0
M  V30 1757 C 172.708 -0.206014 2.01047 0
M  V30 1758 C 173.029 -1.48175 1.26765 0
M  V30 1759 O 172.299 -1.92085 0.384743 0
M  V30 1760 H 170.879 -0.0791184 0.742798 0
M  V30 1761 H 173.541 0.508366 1.88153 0
M  V30 1762 H 172.637 -0.423501 3.09213 0
M  V30 1763 N 172.938 -1.57226 0.108567 0
M  V30 1764 C 174.186 -1.94448 -0.550853 0
M  V30 1765 C 174.507 -0.992074 -1.67878 0
M  V30 1766 O 173.777 -0.0465 -1.95845 0
M  V30 1767 H 172.357 -0.717897 -0.206479 0
M  V30 1768 H 175.019 -1.94112 0.175062 0
M  V30 1769 H 174.115 -2.97218 -0.952259 0
M  V30 1770 N 174.416 0.165178 -1.56732 0
M  V30 1771 C 175.348 1.22911 -1.93457 0
M  V30 1772 C 176.361 1.40152 -0.828333 0
M  V30 1773 O 177.55 1.40046 -1.10677 0
M  V30 1774 C 174.65 2.59686 -2.17753 0
M  V30 1775 C 173.823 2.63663 -3.48999 0
M  V30 1776 C 172.882 3.81845 -3.62051 0
M  V30 1777 O 171.908 3.67559 -4.34613 0
M  V30 1778 N 173.11 4.98557 -2.97357 0
M  V30 1779 H 175.875 0.917118 -2.85323 0
M  V30 1780 H 173.436 0.354895 -1.57962 0
M  V30 1781 H 175.428 3.37225 -2.23743 0
M  V30 1782 H 173.998 2.83251 -1.32242 0
M  V30 1783 H 173.218 1.72173 -3.54612 0
M  V30 1784 H 174.506 2.63336 -4.35352 0
M  V30 1785 H 173.904 5.13065 -2.38287 0
M  V30 1786 H 172.461 5.73936 -3.08934 0
M  V30 1787 N 175.894 1.51508 0.433938 0
M  V30 1788 C 177.119 1.68443 1.21003 0
M  V30 1789 C 177.544 0.382636 1.84167 0
M  V30 1790 O 176.902 -0.65755 1.68956 0
M  V30 1791 C 176.95 2.80405 2.26727 0
M  V30 1792 O 176.054 2.44245 3.32292 0
M  V30 1793 H 175.395 0.561536 0.354363 0
M  V30 1794 H 177.925 1.9809 0.512024 0
M  V30 1795 H 177.935 3.0459 2.71457 0
M  V30 1796 H 176.61 3.74867 1.80132 0
M  V30 1797 H 175.187 2.30644 2.93015 0
M  V30 1798 N 177.372 -0.689602 1.41712 0
M  V30 1799 C 178.597 -1.48329 1.44959 0
M  V30 1800 C 179.022 -1.8801 0.0581283 0
M  V30 1801 O 178.38 -1.55026 -0.940035 0
M  V30 1802 C 178.428 -2.71835 2.36935 0
M  V30 1803 O 177.532 -3.69549 1.8305 0
M  V30 1804 H 176.873 -0.446199 0.491734 0
M  V30 1805 H 179.403 -0.847127 1.86239 0
M  V30 1806 H 179.413 -3.20076 2.53013 0
M  V30 1807 H 178.088 -2.42291 3.38035 0
M  V30 1808 H 176.665 -3.2851 1.76452 0
M  V30 1809 N 178.85 -1.27639 -0.924453 0
M  V30 1810 C 180.097 -1.14167 -1.67249 0
M  V30 1811 C 180.425 0.311863 -1.91984 0
M  V30 1812 O 179.68 1.24425 -1.51053 0
M  V30 1813 C 179.979 -1.87407 -3.04325 0
M  V30 1814 C 179.645 -3.37249 -2.99289 0
M  V30 1815 C 178.307 -3.7812 -2.97622 0
M  V30 1816 C 180.659 -4.32845 -2.90336 0
M  V30 1817 C 177.987 -5.12944 -2.8479 0
M  V30 1818 C 180.339 -5.6773 -2.79045 0
M  V30 1819 C 179.003 -6.07889 -2.7573 0
M  V30 1820 H 178.273 -0.417766 -0.612007 0
M  V30 1821 H 180.92 -1.58286 -1.07786 0
M  V30 1822 H 179.225 -1.35805 -3.67511 0
M  V30 1823 H 180.922 -1.74408 -3.61086 0
M  V30 1824 H 177.512 -3.04748 -3.01374 0
M  V30 1825 H 181.696 -4.02239 -2.90719 0
M  V30 1826 H 176.952 -5.432 -2.80612 0
M  V30 1827 H 181.126 -6.41472 -2.71083 0
M  V30 1828 H 178.753 -7.12314 -2.65544 0
M  V30 1829 N 180.328 1.1314 -1.09713 0
M  V30 1830 C 181.558 1.88048 -0.855656 0
M  V30 1831 C 181.966 1.79537 0.596919 0
M  V30 1832 O 181.309 1.16196 1.42282 0
M  V30 1833 C 181.371 3.38314 -1.21589 0
M  V30 1834 C 181.035 3.70605 -2.67397 0
M  V30 1835 C 182.032 3.69596 -3.65643 0
M  V30 1836 C 179.717 4.0017 -3.03593 0
M  V30 1837 C 181.711 3.977 -4.9811 0
M  V30 1838 C 179.398 4.27935 -4.36251 0
M  V30 1839 C 180.396 4.26685 -5.33318 0
M  V30 1840 O 180.084 4.53767 -6.63589 0
M  V30 1841 H 179.816 0.60208 -0.307368 0
M  V30 1842 H 182.37 1.44128 -1.46343 0
M  V30 1843 H 180.6 3.82752 -0.551177 0
M  V30 1844 H 182.289 3.94552 -0.953083 0
M  V30 1845 H 183.055 3.46826 -3.39023 0
M  V30 1846 H 178.934 4.00289 -2.2867 0
M  V30 1847 H 182.478 3.9664 -5.73866 0
M  V30 1848 H 178.375 4.50178 -4.62613 0
M  V30 1849 H 179.143 4.71422 -6.69107 0
M  V30 1850 N 181.806 0.884767 1.30421 0
M  V30 1851 C 183.034 0.518044 2.0031 0
M  V30 1852 C 183.449 -0.893408 1.66324 0
M  V30 1853 O 182.806 -1.5875 0.900262 0
M  V30 1854 C 182.857 0.682997 3.54989 0
M  V30 1855 O 182.578 2.03888 3.87764 0
M  V30 1856 C 184.079 0.31924 4.42149 0
M  V30 1857 H 181.299 0.200265 0.640418 0
M  V30 1858 H 183.843 1.19001 1.6631 0
M  V30 1859 H 181.998 0.0584052 3.87356 0
M  V30 1860 H 182.412 2.05735 4.82466 0
M  V30 1861 H 183.886 0.485555 5.4986 0
M  V30 1862 H 184.363 -0.742717 4.32875 0
M  V30 1863 H 184.969 0.920147 4.15227 0
M  V30 1864 N 183.284 -1.43765 0.645699 0
M  V30 1865 C 184.561 -1.9541 0.0862963 0
M  V30 1866 C 184.941 -1.58725 -1.39175 0
M  V30 1867 O 184.289 -0.868581 -2.11348 0
M  V30 1868 C 184.499 -3.47488 0.324565 0
M  V30 1869 C 185.847 -4.24001 0.225497 0
M  V30 1870 O 186.871 -3.55274 0.256715 0
M  V30 1871 O 185.73 -5.46313 0.142801 0
M  V30 1872 H 182.824 -0.826882 -0.0139483 0
M  V30 1873 H 185.37 -1.53743 0.718415 0
M  V30 1874 H 184.142 -3.67289 1.3496 0
M  V30 1875 H 183.765 -3.96135 -0.340987 0
M  V30 1876 N 184.763 -0.387143 -1.52771 0
M  V30 1877 C 186.009 0.188506 -2.02525 0
M  V30 1878 C 186.364 1.44649 -1.26864 0
M  V30 1879 O 185.657 1.88189 -0.359945 0
M  V30 1880 C 185.851 0.512209 -3.53711 0
M  V30 1881 C 185.68 -0.712855 -4.44014 0
M  V30 1882 C 184.45 -1.23147 -4.90064 0
M  V30 1883 C 186.648 -1.58453 -4.89282 0
M  V30 1884 N 184.63 -2.41431 -5.64433 0
M  V30 1885 C 186.001 -2.61381 -5.6221 0
M  V30 1886 C 188.056 -1.60488 -4.71326 0
M  V30 1887 C 186.759 -3.66227 -6.19088 0
M  V30 1888 C 188.785 -2.6424 -5.29085 0
M  V30 1889 C 188.147 -3.6589 -6.01917 0
M  V30 1890 H 184.246 0.0311236 -0.78138 0
M  V30 1891 H 186.83 -0.536548 -1.87161 0
M  V30 1892 H 185.001 1.20632 -3.69192 0
M  V30 1893 H 186.733 1.07482 -3.90166 0
M  V30 1894 H 183.488 -0.792795 -4.66917 0
M  V30 1895 H 183.912 -3.01274 -6.0627 0
M  V30 1896 H 188.554 -0.83247 -4.14524 0
M  V30 1897 H 186.272 -4.44337 -6.74974 0
M  V30 1898 H 189.858 -2.66695 -5.17074 0
M  V30 1899 H 188.738 -4.44855 -6.45813 0
M  V30 1900 N 186.241 1.57166 -0.116904 0
M  V30 1901 C 187.471 1.99184 0.548586 0
M  V30 1902 C 187.879 0.995436 1.60897 0
M  V30 1903 O 187.222 -0.0201293 1.83689 0
M  V30 1904 C 187.284 3.37611 1.23526 0
M  V30 1905 C 186.948 4.55857 0.323077 0
M  V30 1906 C 187.945 5.18056 -0.437476 0
M  V30 1907 C 185.63 5.01751 0.234761 0
M  V30 1908 C 187.624 6.24536 -1.2741 0
M  V30 1909 C 185.311 6.08093 -0.605496 0
M  V30 1910 C 186.309 6.69352 -1.35856 0
M  V30 1911 O 185.997 7.7364 -2.18487 0
M  V30 1912 H 185.729 0.659148 0.149999 0
M  V30 1913 H 188.283 2.0443 -0.199428 0
M  V30 1914 H 186.513 3.29113 2.0303 0
M  V30 1915 H 188.202 3.63932 1.79745 0
M  V30 1916 H 188.968 4.83516 -0.379105 0
M  V30 1917 H 184.847 4.53817 0.810601 0
M  V30 1918 H 188.391 6.72281 -1.86237 0
M  V30 1919 H 184.288 6.42063 -0.665268 0
M  V30 1920 H 185.056 7.90727 -2.11406 0
M  V30 1921 N 187.719 -0.156864 1.56817 0
M  V30 1922 C 188.651 -1.21883 1.94106 0
M  V30 1923 C 189.664 -1.3971 0.835754 0
M  V30 1924 O 190.853 -1.39457 1.11418 0
M  V30 1925 C 187.953 -2.58527 2.19127 0
M  V30 1926 C 187.126 -2.61809 3.50393 0
M  V30 1927 C 186.185 -3.7992 3.64071 0
M  V30 1928 O 185.211 -3.65249 4.36557 0
M  V30 1929 N 186.413 -4.96973 2.99997 0
M  V30 1930 H 189.178 -0.901974 2.85805 0
M  V30 1931 H 186.739 -0.346513 1.58148 0
M  V30 1932 H 188.731 -3.36034 2.25529 0
M  V30 1933 H 187.301 -2.82545 1.33742 0
M  V30 1934 H 186.521 -1.7029 3.5552 0
M  V30 1935 H 187.809 -2.61024 4.36742 0
M  V30 1936 H 187.207 -5.11794 2.41004 0
M  V30 1937 H 185.764 -5.7229 3.11974 0
M  V30 1938 N 189.197 -1.51736 -0.425897 0
M  V30 1939 C 190.608 -1.5732 -1.00536 0
M  V30 1940 C 190.959 -0.403537 -1.92005 0
M  V30 1941 O 190.084 0.478256 -2.11049 0
M  V30 1942 C 190.679 -2.85119 -1.8301 0
M  V30 1943 C 189.238 -2.93236 -2.35987 0
M  V30 1944 C 188.385 -2.52098 -1.15508 0
M  V30 1945 H 191.336 -1.57348 -0.206739 0
M  V30 1946 H 191.357 -2.69526 -2.68581 0
M  V30 1947 H 190.869 -3.7023 -1.16411 0
M  V30 1948 H 188.97 -2.12581 -3.06007 0
M  V30 1949 H 189.083 -3.9713 -2.68001 0
M  V30 1950 H 187.447 -2.05558 -1.50393 0
M  V30 1951 H 188.23 -3.39565 -0.505014 0
M  V30 1952 N 190.675 0.682077 -1.42076 0
M  V30 1953 C 191.9 1.47558 -1.45744 0
M  V30 1954 C 192.325 1.87977 -0.0680981 0
M  V30 1955 O 191.683 1.55522 0.9318 0
M  V30 1956 C 191.731 2.70575 -2.38373 0
M  V30 1957 O 190.835 3.68573 -1.85007 0
M  V30 1958 H 190.176 0.443585 -0.494093 0
M  V30 1959 H 192.706 0.837238 -1.86686 0
M  V30 1960 H 192.716 3.18729 -2.54707 0
M  V30 1961 H 191.391 2.40495 -3.39315 0
M  V30 1962 H 189.968 3.2757 -1.78192 0
M  V30 1963 N 192.153 1.28127 0.917671 0
M  V30 1964 C 193.085 1.07517 2.02417 0
M  V30 1965 C 194.098 0.0281099 1.62776 0
M  V30 1966 O 195.287 0.270748 1.76435 0
M  V30 1967 C 192.387 0.610957 3.33347 0
M  V30 1968 C 191.56 1.73255 4.01624 0
M  V30 1969 C 190.619 1.26238 5.10833 0
M  V30 1970 O 189.645 1.96389 5.34247 0
M  V30 1971 N 190.847 0.123448 5.80369 0
M  V30 1972 H 193.612 2.02806 2.20658 0
M  V30 1973 H 191.173 1.19827 1.08871 0
M  V30 1974 H 193.165 0.280101 4.0373 0
M  V30 1975 H 191.735 -0.24898 3.11607 0
M  V30 1976 H 190.955 2.23319 3.24842 0
M  V30 1977 H 192.243 2.48503 4.43986 0
M  V30 1978 H 191.641 -0.461847 5.63812 0
M  V30 1979 H 190.198 -0.148158 6.51632 0
M  V30 1980 N 193.631 -1.12557 1.10312 0
M  V30 1981 C 194.856 -1.88405 0.867085 0
M  V30 1982 C 195.281 -1.79038 -0.576817 0
M  V30 1983 O 194.639 -1.14439 -1.40618 0
M  V30 1984 C 194.687 -3.3563 1.31851 0
M  V30 1985 O 193.791 -4.09565 0.482734 0
M  V30 1986 H 193.132 -0.585455 0.313271 0
M  V30 1987 H 195.662 -1.42352 1.4696 0
M  V30 1988 H 195.672 -3.86469 1.3079 0
M  V30 1989 H 194.347 -3.41765 2.37001 0
M  V30 1990 H 192.924 -3.68695 0.558448 0
M  V30 1991 N 195.109 -0.891671 -1.2995 0
M  V30 1992 C 196.057 -0.353066 -2.29905 0
M  V30 1993 C 197.051 0.543509 -1.60444 0
M  V30 1994 O 198.257 0.4272 -1.74857 0
M  V30 1995 H 194.632 -0.095531 -0.745907 0
M  V30 1996 H 196.603 -1.20961 -2.72784 0
M  V30 1997 C 195.352 0.411475 -3.45257 0
M  V30 1998 H 194.675 -0.269182 -3.98893 0
M  V30 1999 H 196.115 0.753328 -4.17254 0
M  V30 2000 C 194.574 1.6111 -2.9588 0
M  V30 2001 O 195.104 2.71045 -2.96475 0
M  V30 2002 N 193.31 1.45054 -2.51809 0
M  V30 2003 H 192.857 0.556175 -2.51524 0
M  V30 2004 H 192.815 2.25453 -2.1913 0
M  V30 2005 N 196.587 1.43421 -0.653314 0
M  V30 2006 C 197.835 2.01414 -0.166415 0
M  V30 2007 C 198.156 1.51803 1.22397 0
M  V30 2008 O 197.426 0.730693 1.81763 0
M  V30 2009 H 196.006 0.744703 -0.0585319 0
M  V30 2010 H 198.668 1.75629 -0.845003 0
M  V30 2011 H 197.764 3.11734 -0.151111 0
M  V30 2012 N 198.065 0.39524 1.52563 0
M  V30 2013 C 198.997 -0.472201 2.24283 0
M  V30 2014 C 200.01 -1.02178 1.26742 0
M  V30 2015 O 201.199 -0.923097 1.52778 0
M  V30 2016 C 198.299 -1.66775 2.95024 0
M  V30 2017 C 197.472 -1.2445 4.19322 0
M  V30 2018 C 196.531 -2.30539 4.7301 0
M  V30 2019 O 195.557 -1.91702 5.35947 0
M  V30 2020 N 196.759 -3.6253 4.53379 0
M  V30 2021 H 199.524 0.142282 2.99362 0
M  V30 2022 H 197.085 0.2219 1.60372 0
M  V30 2023 H 199.077 -2.37283 3.27839 0
M  V30 2024 H 197.647 -2.18845 2.23217 0
M  V30 2025 H 196.867 -0.368069 3.92478 0
M  V30 2026 H 198.155 -0.938457 5.0007 0
M  V30 2027 H 197.553 -3.96841 4.03154 0
M  V30 2028 H 196.11 -4.29055 4.90668 0
M  V30 2029 N 199.544 -1.57102 0.125237 0
M  V30 2030 C 200.492 -2.16905 -0.839927 0
M  V30 2031 C 201.486 -1.11998 -1.27094 0
M  V30 2032 O 202.692 -1.3029 -1.24195 0
M  V30 2033 H 199.067 -0.694252 -0.288995 0
M  V30 2034 H 201.038 -2.96774 -0.311115 0
M  V30 2035 C 199.787 -2.78795 -2.07771 0
M  V30 2036 H 199.11 -3.59221 -1.755 0
M  V30 2037 H 200.55 -3.2417 -2.73295 0
M  V30 2038 C 199.009 -1.76193 -2.87155 0
M  V30 2039 O 199.539 -1.21909 -3.82755 0
M  V30 2040 N 197.745 -1.45991 -2.51267 0
M  V30 2041 H 197.292 -1.90325 -1.73592 0
M  V30 2042 H 197.25 -0.775844 -3.04677 0
M  V30 2043 N 201.022 0.148545 -1.56898 0
M  V30 2044 C 202.252 0.875118 -1.8715 0
M  V30 2045 C 202.66 1.75322 -0.711262 0
M  V30 2046 O 202.003 1.80745 0.328151 0
M  V30 2047 C 202.065 1.7844 -3.12089 0
M  V30 2048 C 201.729 1.08361 -4.43967 0
M  V30 2049 C 202.726 0.438247 -5.1805 0
M  V30 2050 C 200.411 1.07358 -4.90693 0
M  V30 2051 C 202.405 -0.20779 -6.37061 0
M  V30 2052 C 200.092 0.42373 -6.09629 0
M  V30 2053 C 201.09 -0.215829 -6.82659 0
M  V30 2054 O 200.778 -0.855378 -7.99336 0
M  V30 2055 H 200.51 0.258504 -0.624621 0
M  V30 2056 H 203.064 0.14652 -2.04877 0
M  V30 2057 H 201.294 2.55389 -2.90367 0
M  V30 2058 H 202.983 2.38279 -3.286 0
M  V30 2059 H 203.749 0.437817 -4.8302 0
M  V30 2060 H 199.628 1.5608 -4.33774 0
M  V30 2061 H 203.172 -0.70758 -6.94002 0
M  V30 2062 H 199.069 0.421822 -6.4412 0
M  V30 2063 H 199.837 -0.756892 -8.14993 0
M  V30 2064 N 202.5 1.5196 0.417844 0
M  V30 2065 C 203.728 1.69426 1.18753 0
M  V30 2066 C 204.143 0.399955 1.84515 0
M  V30 2067 O 203.5 -0.623288 1.71527 0
M  V30 2068 C 203.551 2.82375 2.25714 0
M  V30 2069 O 203.272 4.06793 1.62638 0
M  V30 2070 C 204.773 3.11277 3.15628 0
M  V30 2071 H 201.993 0.568031 0.357186 0
M  V30 2072 H 204.537 1.98475 0.49273 0
M  V30 2073 H 202.692 2.5587 2.90877 0
M  V30 2074 H 203.106 4.69667 2.3348 0
M  V30 2075 H 204.58 3.93843 3.86771 0
M  V30 2076 H 205.057 2.24473 3.77503 0
M  V30 2077 H 205.663 3.39515 2.56144 0
M  V30 2078 N 203.978 -0.674533 1.42435 0
M  V30 2079 C 205.208 -1.46071 1.46105 0
M  V30 2080 C 205.616 -1.89067 0.0709605 0
M  V30 2081 O 204.959 -1.58731 -0.924677 0
M  V30 2082 C 205.021 -2.74145 2.32561 0
M  V30 2083 C 204.685 -2.53224 3.8043 0
M  V30 2084 C 205.682 -2.17809 4.72075 0
M  V30 2085 C 203.367 -2.6821 4.24698 0
M  V30 2086 C 205.361 -1.97648 6.05982 0
M  V30 2087 C 203.048 -2.47665 5.58664 0
M  V30 2088 C 204.046 -2.12437 6.49122 0
M  V30 2089 O 203.734 -1.9209 7.80613 0
M  V30 2090 H 203.466 -0.455959 0.499076 0
M  V30 2091 H 206.02 -0.836193 1.87609 0
M  V30 2092 H 204.25 -3.3908 1.85908 0
M  V30 2093 H 205.939 -3.36028 2.27683 0
M  V30 2094 H 206.705 -2.05826 4.39159 0
M  V30 2095 H 202.584 -2.94609 3.54579 0
M  V30 2096 H 206.128 -1.70075 6.7655 0
M  V30 2097 H 202.025 -2.59244 5.91154 0
M  V30 2098 H 202.793 -2.06686 7.91974 0
M  V30 2099 N 205.456 -1.28612 -0.910864 0
M  V30 2100 C 206.403 -1.12786 -2.01365 0
M  V30 2101 C 207.373 -0.024201 -1.66082 0
M  V30 2102 O 208.558 -0.189667 -1.89855 0
M  V30 2103 C 205.698 -0.798743 -3.35729 0
M  V30 2104 C 204.811 -1.98173 -3.83864 0
M  V30 2105 C 203.946 -1.59298 -5.06752 0
M  V30 2106 C 202.985 -2.74245 -5.47226 0
M  V30 2107 N 202.122 -2.35842 -6.61304 0
M  V30 2108 H 206.962 -2.07142 -2.14234 0
M  V30 2109 H 204.499 -1.03093 -1.0493 0
M  V30 2110 H 206.457 -0.588662 -4.13026 0
M  V30 2111 H 205.087 0.10789 -3.2262 0
M  V30 2112 H 204.139 -2.30386 -3.02699 0
M  V30 2113 H 205.451 -2.84343 -4.09818 0
M  V30 2114 H 204.605 -1.34513 -5.916 0
M  V30 2115 H 203.344 -0.702618 -4.82612 0
M  V30 2116 H 202.349 -2.99725 -4.60918 0
M  V30 2117 H 203.574 -3.63928 -5.73353 0
M  V30 2118 H 201.52 -1.49279 -6.38789 0
M  V30 2119 H 201.437 -3.15546 -6.86998 0
M  V30 2120 H 202.705 -2.14348 -7.4945 0
M  V30 2121 N 206.934 1.1197 -1.10907 0
M  V30 2122 C 208.18 1.84059 -0.865674 0
M  V30 2123 C 208.535 1.82731 0.602254 0
M  V30 2124 O 207.828 1.26543 1.43866 0
M  V30 2125 C 208.022 3.30749 -1.35425 0
M  V30 2126 C 207.851 3.46363 -2.86815 0
M  V30 2127 C 206.621 3.59712 -3.54874 0
M  V30 2128 C 208.819 3.41116 -3.84895 0
M  V30 2129 N 206.801 3.63741 -4.94536 0
M  V30 2130 C 208.172 3.51698 -5.10596 0
M  V30 2131 C 210.227 3.24612 -3.77533 0
M  V30 2132 C 208.93 3.4748 -6.29802 0
M  V30 2133 C 210.956 3.21708 -4.96244 0
M  V30 2134 C 210.318 3.32856 -6.20795 0
M  V30 2135 H 206.417 0.689015 -0.369841 0
M  V30 2136 H 209.001 1.34016 -1.41237 0
M  V30 2137 H 207.172 3.79322 -0.834814 0
M  V30 2138 H 208.904 3.90718 -1.05458 0
M  V30 2139 H 205.659 3.62038 -3.05329 0
M  V30 2140 H 206.083 3.69408 -5.67333 0
M  V30 2141 H 210.725 3.14883 -2.8215 0
M  V30 2142 H 208.443 3.55978 -7.25469 0
M  V30 2143 H 212.029 3.10113 -4.92261 0
M  V30 2144 H 210.909 3.3059 -7.11112 0
M  V30 2145 N 208.412 0.89855 1.29475 0
M  V30 2146 C 209.322 0.379974 2.31502 0
M  V30 2147 C 210.338 -0.524695 1.659 0
M  V30 2148 O 211.514 -0.414551 1.97087 0
M  V30 2149 C 208.579 -0.385138 3.44554 0
M  V30 2150 C 207.64 0.550914 4.2575 0
M  V30 2151 C 206.873 -0.177778 5.33404 0
M  V30 2152 O 207.096 -1.40189 5.52904 0
M  V30 2153 O 206.03 0.479106 5.9999 0
M  V30 2154 H 209.856 1.22639 2.77837 0
M  V30 2155 H 207.441 0.662834 1.33891 0
M  V30 2156 H 209.323 -0.817841 4.13388 0
M  V30 2157 H 207.998 -1.20763 3.0033 0
M  V30 2158 H 206.905 1.03271 3.59564 0
M  V30 2159 H 208.238 1.33979 4.73614 0
M  V30 2160 N 209.89 -1.43072 0.660911 0
M  V30 2161 C 211.118 -2.06067 0.185422 0
M  V30 2162 C 211.533 -1.49582 -1.15198 0
M  V30 2163 O 210.89 -0.630134 -1.71276 0
M  V30 2164 C 210.941 -3.61371 0.0966523 0
M  V30 2165 O 210.662 -4.15758 1.38119 0
M  V30 2166 C 212.163 -4.41455 -0.403996 0
M  V30 2167 H 209.383 -0.664459 0.0934604 0
M  V30 2168 H 211.927 -1.83447 0.90373 0
M  V30 2169 H 210.082 -3.8315 -0.572259 0
M  V30 2170 H 210.496 -5.09499 1.24542 0
M  V30 2171 H 211.97 -5.50437 -0.415045 0
M  V30 2172 H 212.447 -4.15036 -1.43674 0
M  V30 2173 H 213.053 -4.24663 0.232691 0
M  V30 2174 N 211.368 -0.403325 -1.52352 0
M  V30 2175 C 212.615 0.174347 -2.01748 0
M  V30 2176 C 212.943 1.45636 -1.2892 0
M  V30 2177 O 212.198 1.9193 -0.382258 0
M  V30 2178 C 212.497 0.474665 -3.54234 0
M  V30 2179 C 212.163 -0.717458 -4.45155 0
M  V30 2180 C 210.825 -1.04447 -4.69728 0
M  V30 2181 C 213.177 -1.51432 -4.98716 0
M  V30 2182 C 210.505 -2.16963 -5.45109 0
M  V30 2183 C 212.857 -2.6302 -5.75329 0
M  V30 2184 C 211.521 -2.96213 -5.98175 0
M  V30 2185 H 210.791 0.0637981 -0.738248 0
M  V30 2186 H 213.438 -0.543553 -1.83624 0
M  V30 2187 H 211.743 1.27406 -3.70506 0
M  V30 2188 H 213.44 0.934496 -3.89959 0
M  V30 2189 H 210.03 -0.452596 -4.26204 0
M  V30 2190 H 214.214 -1.27491 -4.79645 0
M  V30 2191 H 209.47 -2.43034 -5.61021 0
M  V30 2192 H 213.644 -3.25158 -6.15829 0
M  V30 2193 H 211.271 -3.83516 -6.56368 0
M  V30 2194 N 212.846 1.57033 -0.133567 0
M  V30 2195 C 213.776 2.1909 0.807567 0
M  V30 2196 C 214.757 1.13517 1.26681 0
M  V30 2197 O 215.942 1.41809 1.32679 0
M  V30 2198 C 213.072 2.80188 2.05212 0
M  V30 2199 C 212.026 3.91471 1.73015 0
M  V30 2200 C 211.352 4.39443 3.04622 0
M  V30 2201 C 212.652 5.12886 0.987168 0
M  V30 2202 H 214.346 2.97988 0.290403 0
M  V30 2203 H 211.892 1.43335 0.138239 0
M  V30 2204 H 213.845 3.22264 2.71521 0
M  V30 2205 H 212.569 1.98601 2.59278 0
M  V30 2206 H 211.228 3.49993 1.0909 0
M  V30 2207 H 210.876 3.54695 3.56651 0
M  V30 2208 H 210.576 5.14495 2.83847 0
M  V30 2209 H 212.1 4.8418 3.72024 0
M  V30 2210 H 213.514 5.51891 1.55208 0
M  V30 2211 H 211.911 5.93615 0.87985 0
M  V30 2212 H 212.981 4.84894 -0.0235286 0
M  V30 2213 N 214.325 -0.140222 1.56975 0
M  V30 2214 C 215.553 -0.866437 1.87884 0
M  V30 2215 C 215.968 -1.74428 0.722517 0
M  V30 2216 O 215.325 -1.79891 -0.30749 0
M  V30 2217 C 215.376 -1.71753 3.18093 0
M  V30 2218 O 215.097 -0.875056 4.29272 0
M  V30 2219 C 216.598 -2.55074 3.62563 0
M  V30 2220 H 213.818 -0.25019 0.622612 0
M  V30 2221 H 216.362 -0.130977 2.0408 0
M  V30 2222 H 214.517 -2.40598 3.03631 0
M  V30 2223 H 214.931 -1.46002 5.03769 0
M  V30 2224 H 216.405 -3.10356 4.5649 0
M  V30 2225 H 216.882 -3.31434 2.88181 0
M  V30 2226 H 217.488 -1.91509 3.79743 0
M  V30 2227 N 215.803 -1.52179 -0.40978 0
M  V30 2228 C 217.219 -1.40968 -0.74835 0
M  V30 2229 C 217.419 -0.513657 -1.94843 0
M  V30 2230 O 216.475 0.0208026 -2.52491 0
M  V30 2231 C 217.788 -2.83483 -1.0029 0
M  V30 2232 C 219.336 -2.92821 -1.10565 0
M  V30 2233 C 219.811 -4.36303 -1.39296 0
M  V30 2234 N 221.302 -4.39535 -1.46162 0
M  V30 2235 C 222.037 -5.47614 -1.70018 0
M  V30 2236 N 221.533 -6.65812 -1.91483 0
M  V30 2237 N 223.326 -5.35129 -1.72027 0
M  V30 2238 H 215.477 -2.0897 0.380186 0
M  V30 2239 H 217.74 -0.94185 0.107805 0
M  V30 2240 H 217.446 -3.51168 -0.193461 0
M  V30 2241 H 217.32 -3.24487 -1.92323 0
M  V30 2242 H 219.707 -2.25318 -1.90568 0
M  V30 2243 H 219.788 -2.55276 -0.16369 0
M  V30 2244 H 219.432 -5.04366 -0.598109 0
M  V30 2245 H 219.362 -4.71385 -2.34743 0
M  V30 2246 H 221.853 -3.54332 -1.31367 0
M  V30 2247 H 222.166 -7.43964 -2.09134 0
M  V30 2248 H 220.511 -6.68879 -1.88749 0
M  V30 2249 H 223.702 -4.41764 -1.54796 0
M  V30 2250 H 223.875 -6.19433 -1.9028 0
M  V30 2251 N 217.281 0.66697 -1.42791 0
M  V30 2252 C 218.191 1.80962 -1.49299 0
M  V30 2253 C 219.207 1.69775 -0.381108 0
M  V30 2254 O 220.383 1.91188 -0.633188 0
M  V30 2255 C 217.448 3.17156 -1.40045 0
M  V30 2256 C 216.509 3.40242 -2.6179 0
M  V30 2257 C 215.742 4.69939 -2.52969 0
M  V30 2258 O 215.965 5.48372 -1.56985 0
M  V30 2259 O 214.899 4.94441 -3.43237 0
M  V30 2260 H 218.725 1.78427 -2.45759 0
M  V30 2261 H 216.31 0.823713 -1.24641 0
M  V30 2262 H 218.192 3.98413 -1.37276 0
M  V30 2263 H 216.867 3.20312 -0.467138 0
M  V30 2264 H 215.774 2.58802 -2.70134 0
M  V30 2265 H 217.107 3.41923 -3.54047 0
M  V30 2266 N 218.759 1.29093 0.90403 0
M  V30 2267 C 219.692 1.08176 2.00931 0
M  V30 2268 C 220.67 -0.005083 1.62599 0
M  V30 2269 O 221.854 0.144765 1.87943 0
M  V30 2270 C 218.981 0.645897 3.32484 0
M  V30 2271 C 218.027 1.73081 3.89801 0
M  V30 2272 S 218.86 3.32905 4.19446 0
M  V30 2273 C 220.016 2.91176 5.54046 0
M  V30 2274 H 220.249 2.01752 2.18365 0
M  V30 2275 H 217.782 1.13191 1.0501 0
M  V30 2276 H 219.74 0.401131 4.08535 0
M  V30 2277 H 218.401 -0.270188 3.12936 0
M  V30 2278 H 217.594 1.37768 4.84805 0
M  V30 2279 H 217.196 1.92888 3.20422 0
M  V30 2280 H 219.488 2.37952 6.34338 0
M  V30 2281 H 220.431 3.85014 5.94281 0
M  V30 2282 H 220.839 2.296 5.15698 0
M  V30 2283 N 220.237 -1.11381 1.11499 0
M  V30 2284 C 221.648 -1.6465 0.880191 0
M  V30 2285 C 221.999 -1.87199 -0.587434 0
M  V30 2286 O 221.124 -1.60667 -1.44966 0
M  V30 2287 C 221.719 -2.99105 1.59128 0
M  V30 2288 C 220.278 -3.49279 1.40289 0
M  V30 2289 C 219.425 -2.24077 1.63354 0
M  V30 2290 H 222.376 -0.950123 1.27116 0
M  V30 2291 H 222.397 -3.66107 1.03664 0
M  V30 2292 H 221.909 -2.82661 2.65941 0
M  V30 2293 H 220.01 -3.70887 0.356888 0
M  V30 2294 H 220.123 -4.2803 2.15238 0
M  V30 2295 H 218.487 -2.31733 1.05698 0
M  V30 2296 H 219.27 -2.10175 2.71443 0
M  V30 2297 N 221.715 -0.905404 -1.28997 0
M  V30 2298 C 222.678 -0.392253 -2.25819 0
M  V30 2299 C 223.678 0.476753 -1.5357 0
M  V30 2300 O 224.868 0.280994 -1.71919 0
M  V30 2301 C 222 0.438588 -3.38067 0
M  V30 2302 H 223.193 -1.24743 -2.72725 0
M  V30 2303 H 220.746 -0.684051 -1.40536 0
M  V30 2304 H 221.481 1.31352 -2.96508 0
M  V30 2305 H 221.266 -0.184167 -3.91667 0
M  V30 2306 H 222.756 0.78873 -4.10084 0
M  V30 2307 N 223.193 1.4272 -0.668489 0
M  V30 2308 C 224.439 2.02443 -0.197076 0
M  V30 2309 C 224.794 1.51882 1.18109 0
M  V30 2310 O 224.087 0.708618 1.78015 0
M  V30 2311 C 224.281 3.57021 -0.164499 0
M  V30 2312 C 224.11 4.22583 -1.53797 0
M  V30 2313 C 222.88 4.58019 -2.13416 0
M  V30 2314 C 225.078 4.50588 -2.47941 0
M  V30 2315 N 223.06 5.08729 -3.4361 0
M  V30 2316 C 224.431 5.02782 -3.62782 0
M  V30 2317 C 226.486 4.32571 -2.46551 0
M  V30 2318 C 225.189 5.38852 -4.76478 0
M  V30 2319 C 227.215 4.69713 -3.59338 0
M  V30 2320 C 226.577 5.22053 -4.72906 0
M  V30 2321 H 222.676 0.773214 -0.116894 0
M  V30 2322 H 225.26 1.73673 -0.880108 0
M  V30 2323 H 223.431 3.85323 0.487925 0
M  V30 2324 H 225.163 4.03439 0.319207 0
M  V30 2325 H 221.918 4.43566 -1.65969 0
M  V30 2326 H 222.342 5.38521 -4.10273 0
M  V30 2327 H 226.984 3.91365 -1.59978 0
M  V30 2328 H 224.702 5.78993 -5.63731 0
M  V30 2329 H 228.288 4.57454 -3.59482 0
M  V30 2330 H 227.168 5.50258 -5.58736 0
M  V30 2331 N 224.671 0.411399 1.52136 0
M  V30 2332 C 225.601 -0.404015 2.29978 0
M  V30 2333 C 226.582 -1.04412 1.34284 0
M  V30 2334 O 227.767 -1.0527 1.63192 0
M  V30 2335 C 224.897 -1.5197 3.12286 0
M  V30 2336 C 223.851 -1.00448 4.16046 0
M  V30 2337 C 223.177 -2.21393 4.86712 0
M  V30 2338 C 224.477 -0.0569336 5.22269 0
M  V30 2339 H 226.171 0.245529 2.98392 0
M  V30 2340 H 223.717 0.119525 1.43503 0
M  V30 2341 H 225.67 -2.09715 3.6551 0
M  V30 2342 H 224.394 -2.19716 2.41646 0
M  V30 2343 H 223.053 -0.449421 3.63835 0
M  V30 2344 H 222.701 -2.87699 4.12599 0
M  V30 2345 H 222.401 -1.87571 5.56858 0
M  V30 2346 H 223.925 -2.7974 5.4275 0
M  V30 2347 H 225.339 -0.54325 5.7072 0
M  V30 2348 H 223.736 0.192594 5.99791 0
M  V30 2349 H 224.806 0.887663 4.76706 0
M  V30 2350 N 226.149 -1.5696 0.141893 0
M  V30 2351 C 227.081 -2.13619 -0.830627 0
M  V30 2352 C 228.094 -1.08439 -1.21428 0
M  V30 2353 O 229.283 -1.35734 -1.15925 0
M  V30 2354 C 226.383 -2.63978 -2.12529 0
M  V30 2355 C 225.556 -3.93504 -1.9098 0
M  V30 2356 C 224.615 -4.29225 -3.04388 0
M  V30 2357 O 223.641 -4.97641 -2.76302 0
M  V30 2358 N 224.843 -3.88393 -4.31429 0
M  V30 2359 H 227.608 -2.97691 -0.34641 0
M  V30 2360 H 225.169 -1.61846 -0.0418375 0
M  V30 2361 H 227.161 -2.84891 -2.87436 0
M  V30 2362 H 225.731 -1.84659 -2.52229 0
M  V30 2363 H 224.951 -3.81269 -1.00139 0
M  V30 2364 H 226.239 -4.78154 -1.73914 0
M  V30 2365 H 225.637 -3.33257 -4.57117 0
M  V30 2366 H 224.194 -4.14368 -5.03133 0
M  V30 2367 N 227.627 0.131896 -1.57047 0
M  V30 2368 C 228.59 1.14638 -1.98471 0
M  V30 2369 C 229.59 1.35029 -0.873148 0
M  V30 2370 O 230.78 1.31764 -1.13946 0
M  V30 2371 C 227.912 2.50358 -2.31373 0
M  V30 2372 H 229.105 0.79064 -2.8929 0
M  V30 2373 H 226.658 0.375761 -1.51716 0
M  V30 2374 H 227.393 2.90876 -1.43393 0
M  V30 2375 H 227.178 2.36915 -3.12432 0
M  V30 2376 H 228.668 3.23395 -2.64207 0
M  V30 2377 N 229.106 1.52395 0.401703 0
M  V30 2378 C 230.054 1.7689 1.51039 0
M  V30 2379 C 231.048 0.636298 1.56996 0
M  V30 2380 O 232.254 0.818507 1.60314 0
M  V30 2381 H 228.629 0.559502 0.502456 0
M  V30 2382 H 230.6 2.69757 1.27568 0
M  V30 2383 C 229.349 1.94331 2.88324 0
M  V30 2384 H 228.672 2.80905 2.84486 0
M  V30 2385 H 230.112 2.15466 3.65172 0
M  V30 2386 C 228.571 0.712396 3.29282 0
M  V30 2387 O 229.101 -0.116218 4.01532 0
M  V30 2388 N 227.307 0.546154 2.85422 0
M  V30 2389 H 226.854 1.22156 2.26794 0
M  V30 2390 H 226.812 -0.276113 3.13185 0
M  V30 2391 N 230.584 -0.659388 1.43143 0
M  V30 2392 C 231.531 -1.77249 1.47822 0
M  V30 2393 C 232.501 -1.62818 0.328558 0
M  V30 2394 O 233.686 -1.83151 0.534838 0
M  V30 2395 C 230.826 -3.15371 1.40126 0
M  V30 2396 C 229.939 -3.4098 2.65249 0
M  V30 2397 C 229.074 -4.68915 2.49584 0
M  V30 2398 C 228.113 -4.87608 3.70006 0
M  V30 2399 N 227.25 -6.06796 3.53189 0
M  V30 2400 H 232.09 -1.72584 2.42938 0
M  V30 2401 H 229.627 -0.842297 1.20598 0
M  V30 2402 H 231.585 -3.9521 1.33659 0
M  V30 2403 H 230.215 -3.19121 0.485964 0
M  V30 2404 H 229.267 -2.55282 2.8202 0
M  V30 2405 H 230.579 -3.50681 3.54717 0
M  V30 2406 H 229.733 -5.56871 2.4079 0
M  V30 2407 H 228.472 -4.61524 1.5763 0
M  V30 2408 H 227.477 -3.9809 3.79215 0
M  V30 2409 H 228.702 -4.96834 4.62961 0
M  V30 2410 H 226.648 -6.00549 2.63965 0
M  V30 2411 H 226.565 -6.17428 4.36255 0
M  V30 2412 H 227.833 -6.9739 3.48236 0
M  V30 2413 N 232.062 -1.29571 -0.897171 0
M  V30 2414 C 233.31 -1.17456 -1.64464 0
M  V30 2415 C 233.631 0.273698 -1.9307 0
M  V30 2416 O 232.901 1.18684 -1.55855 0
M  V30 2417 H 231.481 -0.431706 -0.609622 0
M  V30 2418 H 234.143 -1.62531 -1.07562 0
M  V30 2419 H 233.239 -1.72648 -2.59998 0
M  V30 2420 N 233.54 1.10788 -1.12088 0
M  V30 2421 C 234.786 1.82942 -0.875226 0
M  V30 2422 C 235.119 1.84779 0.597538 0
M  V30 2423 O 234.394 1.30578 1.44152 0
M  V30 2424 C 234.677 3.29789 -1.44606 0
M  V30 2425 C 234.53 3.36307 -2.98693 0
M  V30 2426 C 235.849 4.26064 -1.10261 0
M  V30 2427 H 232.968 0.664195 -0.319397 0
M  V30 2428 H 235.61 1.29867 -1.38689 0
M  V30 2429 H 233.76 3.75118 -1.01089 0
M  V30 2430 H 235.432 2.99487 -3.50864 0
M  V30 2431 H 233.675 2.76318 -3.34411 0
M  V30 2432 H 234.346 4.39694 -3.33726 0
M  V30 2433 H 236.822 3.88951 -1.4784 0
M  V30 2434 H 235.698 5.27183 -1.52869 0
M  V30 2435 H 235.959 4.42098 -0.0142953 0
M  V30 2436 N 235.018 0.912232 1.28515 0
M  V30 2437 C 236.243 0.559774 1.99703 0
M  V30 2438 C 236.668 -0.851393 1.67729 0
M  V30 2439 O 236.026 -1.56875 0.908834 0
M  V30 2440 C 236.074 0.773874 3.52198 0
M  V30 2441 O 235.178 -0.167842 4.12058 0
M  V30 2442 H 234.519 0.21723 0.627461 0
M  V30 2443 H 237.049 1.22725 1.63706 0
M  V30 2444 H 237.059 0.683386 4.02236 0
M  V30 2445 H 235.734 1.80261 3.74805 0
M  V30 2446 H 234.311 -0.0287509 3.72889 0
M  V30 2447 N 236.496 -1.42363 0.676048 0
M  V30 2448 C 237.907 -1.84649 0.275948 0
M  V30 2449 C 238.258 -1.56588 -1.18214 0
M  V30 2450 O 237.383 -1.02634 -1.90513 0
M  V30 2451 C 237.978 -3.35178 0.494053 0
M  V30 2452 C 236.537 -3.76109 0.148061 0
M  V30 2453 C 235.684 -2.65931 0.785891 0
M  V30 2454 H 238.635 -1.32192 0.878121 0
M  V30 2455 H 238.656 -3.79655 -0.25343 0
M  V30 2456 H 238.168 -3.55571 1.55535 0
M  V30 2457 H 236.269 -3.61323 -0.909742 0
M  V30 2458 H 236.382 -4.7546 0.589454 0
M  V30 2459 H 234.746 -2.53773 0.217113 0
M  V30 2460 H 235.529 -2.89146 1.85067 0
M  V30 2461 N 237.974 -0.419461 -1.51915 0
M  V30 2462 C 239.202 0.152136 -2.0634 0
M  V30 2463 C 239.617 1.37988 -1.28859 0
M  V30 2464 O 238.974 1.79243 -0.343232 0
M  V30 2465 C 239.025 0.492266 -3.58133 0
M  V30 2466 O 238.746 -0.686736 -4.32684 0
M  V30 2467 C 240.247 1.11648 -4.2901 0
M  V30 2468 H 237.467 0.0158325 -0.670813 0
M  V30 2469 H 240.011 -0.593394 -1.95702 0
M  V30 2470 H 238.166 1.18769 -3.68745 0
M  V30 2471 H 238.58 -0.400341 -5.2297 0
M  V30 2472 H 240.054 1.3046 -5.36362 0
M  V30 2473 H 240.531 2.09251 -3.86148 0
M  V30 2474 H 241.137 0.460958 -4.22795 0
M  V30 2475 N 239.452 1.56882 -0.150215 0
M  V30 2476 C 240.7 1.9584 0.499105 0
M  V30 2477 C 241.021 1.03623 1.65188 0
M  V30 2478 O 240.291 0.0984084 1.95653 0
M  V30 2479 H 238.871 0.723119 0.187373 0
M  V30 2480 H 241.533 1.9358 -0.226466 0
M  V30 2481 H 240.629 2.99638 0.873122 0
M  V30 2482 N 240.93 -0.123565 1.57115 0
M  V30 2483 C 241.878 -1.17082 2.00984 0
M  V30 2484 C 242.872 -1.43136 0.906009 0
M  V30 2485 O 244.078 -1.43152 1.09121 0
M  V30 2486 H 240.453 -0.394653 0.64012 0
M  V30 2487 H 242.424 -0.774292 2.88179 0
M  V30 2488 C 241.173 -2.49057 2.42623 0
M  V30 2489 H 240.496 -2.29846 3.27125 0
M  V30 2490 H 241.936 -3.20906 2.7712 0
M  V30 2491 C 240.395 -3.11305 1.28805 0
M  V30 2492 O 240.925 -3.97171 0.60153 0
M  V30 2493 N 239.131 -2.71111 1.04628 0
M  V30 2494 H 238.678 -2.01382 1.60634 0
M  V30 2495 H 238.636 -3.1309 0.286685 0
M  V30 2496 N 242.408 -1.52605 -0.393616 0
M  V30 2497 C 243.371 -1.76415 -1.46323 0
M  V30 2498 C 244.371 -0.634126 -1.47768 0
M  V30 2499 O 245.561 -0.902142 -1.4902 0
M  V30 2500 C 242.693 -1.8607 -2.85641 0
M  V30 2501 H 243.886 -2.71916 -1.26498 0
M  V30 2502 H 241.439 -1.43257 -0.625073 0
M  V30 2503 H 242.174 -0.925378 -3.10817 0
M  V30 2504 H 241.959 -2.68235 -2.85993 0
M  V30 2505 H 243.449 -2.06179 -3.63153 0
M  V30 2506 N 243.887 0.651787 -1.4349 0
M  V30 2507 C 244.85 1.74647 -1.48429 0
M  V30 2508 C 245.85 1.56513 -0.368817 0
M  V30 2509 O 247.04 1.62385 -0.630623 0
M  V30 2510 C 244.172 3.13533 -1.33827 0
M  V30 2511 H 245.365 1.71649 -2.4592 0
M  V30 2512 H 242.918 0.863573 -1.30277 0
M  V30 2513 H 243.653 3.22142 -0.37349 0
M  V30 2514 H 243.438 3.28101 -2.14691 0
M  V30 2515 H 244.928 3.93356 -1.40218 0
M  V30 2516 N 245.365 1.30045 0.890287 0
M  V30 2517 C 246.611 1.18737 1.64406 0
M  V30 2518 C 246.944 -0.258525 1.92472 0
M  V30 2519 O 246.219 -1.18562 1.54186 0
M  V30 2520 C 246.502 2.01087 2.98724 0
M  V30 2521 C 246.355 3.53867 2.77665 0
M  V30 2522 C 247.674 1.84457 3.9958 0
M  V30 2523 H 244.793 0.432698 0.596608 0
M  V30 2524 H 247.435 1.5962 1.0306 0
M  V30 2525 H 245.585 1.66349 3.51084 0
M  V30 2526 H 247.257 3.98637 2.32133 0
M  V30 2527 H 245.5 3.78318 2.12269 0
M  V30 2528 H 246.171 4.06772 3.7315 0
M  V30 2529 H 248.647 2.14817 3.56361 0
M  V30 2530 H 247.523 2.44411 4.91482 0
M  V30 2531 H 247.784 0.802276 4.3476 0
M  V30 2532 N 246.843 -1.10192 1.12674 0
M  V30 2533 C 248.091 -1.81845 0.881861 0
M  V30 2534 C 248.412 -1.85737 -0.593867 0
M  V30 2535 O 247.682 -1.33724 -1.4316 0
M  V30 2536 H 246.262 -0.673432 0.323261 0
M  V30 2537 H 248.924 -1.33316 1.42172 0
M  V30 2538 H 248.02 -2.85288 1.2656 0
M  V30 2539 N 248.321 -0.919034 -1.28029 0
M  V30 2540 C 249.251 -0.428581 -2.29533 0
M  V30 2541 C 250.232 0.50659 -1.62381 0
M  V30 2542 O 251.417 0.413195 -1.89753 0
M  V30 2543 C 248.547 0.327388 -3.45753 0
M  V30 2544 C 247.501 -0.519137 -4.2484 0
M  V30 2545 C 246.827 0.365486 -5.33449 0
M  V30 2546 C 248.127 -1.77914 -4.91064 0
M  V30 2547 H 249.821 -1.27687 -2.70807 0
M  V30 2548 H 247.367 -0.615428 -1.30186 0
M  V30 2549 H 249.32 0.681378 -4.15855 0
M  V30 2550 H 248.044 1.20963 -3.03374 0
M  V30 2551 H 246.703 -0.855717 -3.56473 0
M  V30 2552 H 246.351 1.24642 -4.87312 0
M  V30 2553 H 246.051 -0.197356 -5.87268 0
M  V30 2554 H 247.575 0.715241 -6.06396 0
M  V30 2555 H 248.989 -1.49374 -5.53498 0
M  V30 2556 H 247.386 -2.2848 -5.54903 0
M  V30 2557 H 248.456 -2.50382 -4.15255 0
M  V30 2558 N 249.799 1.42003 -0.683588 0
M  V30 2559 C 251.024 2.06265 -0.216647 0
M  V30 2560 C 251.449 1.51059 1.12083 0
M  V30 2561 O 250.807 0.632638 1.69904 0
M  V30 2562 C 250.855 3.60191 -0.171759 0
M  V30 2563 O 249.959 4.03396 0.857069 0
M  V30 2564 H 249.3 0.65502 -0.108834 0
M  V30 2565 H 251.83 1.81982 -0.935077 0
M  V30 2566 H 251.84 4.08 0.0014303 0
M  V30 2567 H 250.515 3.99743 -1.14796 0
M  V30 2568 H 249.092 3.67117 0.654208 0
M  V30 2569 N 251.277 0.427512 1.51691 0
M  V30 2570 C 252.21 -0.433876 2.24037 0
M  V30 2571 C 253.188 -1.03287 1.25581 0
M  V30 2572 O 254.372 -1.07722 1.54688 0
M  V30 2573 C 251.499 -1.60385 2.98319 0
M  V30 2574 C 250.545 -1.12648 4.11355 0
M  V30 2575 S 251.378 -0.076543 5.35445 0
M  V30 2576 C 252.534 -1.25141 6.13262 0
M  V30 2577 H 252.767 0.180367 2.96752 0
M  V30 2578 H 250.3 0.211946 1.52938 0
M  V30 2579 H 252.258 -2.27462 3.41718 0
M  V30 2580 H 250.919 -2.18948 2.25213 0
M  V30 2581 H 250.112 -2.0011 4.62571 0
M  V30 2582 H 249.714 -0.534088 3.70167 0
M  V30 2583 H 252.006 -2.17162 6.41753 0
M  V30 2584 H 252.949 -0.779411 7.03797 0
M  V30 2585 H 253.357 -1.48553 5.44603 0
M  V30 2586 N 252.755 -1.56801 0.158532 0
M  V30 2587 C 253.98 -2.01295 -0.499516 0
M  V30 2588 C 254.405 -1.03799 -1.56867 0
M  V30 2589 O 253.763 -0.0155162 -1.81293 0
M  V30 2590 C 253.811 -3.44469 -1.06647 0
M  V30 2591 O 252.915 -3.50012 -2.18095 0
M  V30 2592 H 252.256 -0.652884 -0.12099 0
M  V30 2593 H 254.786 -2.02958 0.258661 0
M  V30 2594 H 254.796 -3.8351 -1.39227 0
M  V30 2595 H 253.471 -4.14932 -0.283581 0
M  V30 2596 H 252.048 -3.22822 -1.86656 0
M  V30 2597 N 254.233 0.115231 -1.57178 0
M  V30 2598 C 255.481 0.820727 -1.84685 0
M  V30 2599 C 255.802 1.80237 -0.744279 0
M  V30 2600 O 255.072 1.94529 0.231375 0
M  V30 2601 H 253.652 0.306084 -0.681411 0
M  V30 2602 H 256.314 0.101656 -1.94635 0
M  V30 2603 H 255.41 1.36366 -2.80733 0
M  V30 2604 N 255.711 1.52812 0.385517 0
M  V30 2605 C 256.959 1.67694 1.12797 0
M  V30 2606 C 257.28 0.421115 1.90399 0
M  V30 2607 O 256.55 -0.564551 1.87589 0
M  V30 2608 H 255.13 0.618155 0.419396 0
M  V30 2609 H 257.792 1.89938 0.436972 0
M  V30 2610 H 256.888 2.52896 1.82894 0
M  V30 2611 N 257.189 -0.644168 1.43834 0
M  V30 2612 C 258.414 -1.43642 1.49605 0
M  V30 2613 C 258.839 -1.8773 0.117913 0
M  V30 2614 O 258.197 -1.57938 -0.890239 0
M  V30 2615 C 258.245 -2.6416 2.45463 0
M  V30 2616 O 257.349 -3.63538 1.94714 0
M  V30 2617 H 256.69 -0.430329 0.50568 0
M  V30 2618 H 259.22 -0.787448 1.8884 0
M  V30 2619 H 259.23 -3.11864 2.63068 0
M  V30 2620 H 257.905 -2.31414 3.45572 0
M  V30 2621 H 256.482 -3.2273 1.86814 0
M  V30 2622 N 258.668 -1.30515 -0.883378 0
M  V30 2623 C 259.631 -1.1701 -1.97082 0
M  V30 2624 C 260.631 -0.10089 -1.60483 0
M  V30 2625 O 261.821 -0.349127 -1.70666 0
M  V30 2626 C 258.953 -0.793045 -3.31547 0
M  V30 2627 H 260.146 -2.13622 -2.10489 0
M  V30 2628 H 257.699 -1.13935 -1.06998 0
M  V30 2629 H 258.434 0.172499 -3.23841 0
M  V30 2630 H 258.219 -1.56576 -3.5948 0
M  V30 2631 H 259.709 -0.722073 -4.1131 0
M  V30 2632 N 260.146 1.09593 -1.13257 0
M  V30 2633 C 261.076 2.18214 -0.830946 0
M  V30 2634 C 262.057 1.68812 0.208966 0
M  V30 2635 O 263.242 1.9408 0.0682666 0
M  V30 2636 C 260.372 3.46051 -0.294296 0
M  V30 2637 C 259.326 4.08778 -1.26826 0
M  V30 2638 C 258.652 5.31419 -0.591449 0
M  V30 2639 C 259.952 4.51476 -2.62615 0
M  V30 2640 H 261.646 2.43703 -1.73923 0
M  V30 2641 H 259.192 1.17128 -0.837675 0
M  V30 2642 H 261.145 4.2134 -0.0709606 0
M  V30 2643 H 259.869 3.20079 0.649366 0
M  V30 2644 H 258.528 3.35505 -1.47756 0
M  V30 2645 H 258.176 5.01727 0.357633 0
M  V30 2646 H 257.876 5.74341 -1.24123 0
M  V30 2647 H 259.4 6.09433 -0.377355 0
M  V30 2648 H 260.814 5.17999 -2.45663 0
M  V30 2649 H 259.211 5.05277 -3.23752 0
M  V30 2650 H 260.281 3.63962 -3.20406 0
M  V30 2651 N 261.624 0.925811 1.2754 0
M  V30 2652 C 262.873 0.561084 1.93739 0
M  V30 2653 C 263.186 -0.901685 1.73577 0
M  V30 2654 O 264.392 -1.37511 2.34101 0
M  V30 2655 C 262.848 0.952668 3.47062 0
M  V30 2656 C 262.456 2.43599 3.75983 0
M  V30 2657 C 264.2 0.659103 4.19352 0
M  V30 2658 C 262.107 2.76707 5.22673 0
M  V30 2659 H 261.037 0.206122 0.725279 0
M  V30 2660 H 263.688 1.12637 1.44863 0
M  V30 2661 H 262.07 0.316053 3.94737 0
M  V30 2662 H 263.244 3.12035 3.39073 0
M  V30 2663 H 261.559 2.70125 3.16893 0
M  V30 2664 H 264.156 0.882985 5.27359 0
M  V30 2665 H 264.499 -0.403607 4.14339 0
M  V30 2666 H 265.032 1.25473 3.77494 0
M  V30 2667 H 261.771 3.8188 5.32774 0
M  V30 2668 H 261.291 2.12919 5.60737 0
M  V30 2669 H 262.97 2.6435 5.90532 0
M  V30 2670 N 263.102 -1.41638 0.69111 0
M  V30 2671 C 264.032 -2.3347 0.037248 0
M  V30 2672 C 265.013 -1.51575 -0.771947 0
M  V30 2673 O 266.198 -1.80126 -0.72582 0
M  V30 2674 C 263.328 -3.35354 -0.903064 0
M  V30 2675 C 262.282 -4.27526 -0.201288 0
M  V30 2676 C 261.608 -5.19747 -1.25565 0
M  V30 2677 C 262.908 -5.13959 0.929689 0
M  V30 2678 H 264.602 -2.88397 0.804227 0
M  V30 2679 H 262.148 -1.38669 0.388189 0
M  V30 2680 H 264.101 -3.98519 -1.36969 0
M  V30 2681 H 262.825 -2.78767 -1.70166 0
M  V30 2682 H 261.484 -3.65779 0.245265 0
M  V30 2683 H 261.132 -4.59479 -2.04666 0
M  V30 2684 H 260.832 -5.8225 -0.791128 0
M  V30 2685 H 262.356 -5.85789 -1.72288 0
M  V30 2686 H 263.77 -5.70718 0.543546 0
M  V30 2687 H 262.167 -5.85379 1.32103 0
M  V30 2688 H 263.237 -4.51389 1.77133 0
M  V30 2689 N 264.58 -0.43555 -1.51462 0
M  V30 2690 C 265.543 0.365137 -2.26273 0
M  V30 2691 C 266.543 0.951227 -1.29647 0
M  V30 2692 O 267.733 0.825958 -1.53374 0
M  V30 2693 C 264.865 1.51645 -3.05314 0
M  V30 2694 H 266.058 -0.290474 -2.9849 0
M  V30 2695 H 263.611 -0.188676 -1.55157 0
M  V30 2696 H 264.346 2.20816 -2.3751 0
M  V30 2697 H 264.131 1.10238 -3.76284 0
M  V30 2698 H 265.621 2.08218 -3.61987 0
M  V30 2699 N 266.058 1.56714 -0.166846 0
M  V30 2700 C 267.021 2.16539 0.751232 0
M  V30 2701 C 268.021 1.11228 1.16125 0
M  V30 2702 O 269.211 1.36765 1.07894 0
M  V30 2703 C 266.343 2.74462 2.02196 0
M  V30 2704 H 267.536 2.99013 0.230499 0
M  V30 2705 H 265.089 1.56081 0.0826982 0
M  V30 2706 H 265.824 1.95709 2.58589 0
M  V30 2707 H 265.609 3.51527 1.73698 0
M  V30 2708 H 267.099 3.20489 2.67725 0
M  V30 2709 N 267.536 -0.106894 1.57237 0
M  V30 2710 C 268.766 -0.825191 1.89405 0
M  V30 2711 C 269.174 -1.73374 0.757496 0
M  V30 2712 O 268.517 -1.81552 -0.280115 0
M  V30 2713 C 268.579 -1.70102 3.1671 0
M  V30 2714 C 268.243 -0.965523 4.46684 0
M  V30 2715 C 269.24 -0.300741 5.19029 0
M  V30 2716 C 266.925 -0.943105 4.93367 0
M  V30 2717 C 268.919 0.376622 6.36286 0
M  V30 2718 C 266.606 -0.261949 6.10538 0
M  V30 2719 C 267.604 0.396748 6.81847 0
M  V30 2720 O 267.292 1.06701 7.96787 0
M  V30 2721 H 267.024 -0.241852 0.631255 0
M  V30 2722 H 269.578 -0.0921491 2.05193 0
M  V30 2723 H 267.808 -2.47601 2.97036 0
M  V30 2724 H 269.497 -2.29483 3.34802 0
M  V30 2725 H 270.263 -0.309599 4.84011 0
M  V30 2726 H 266.142 -1.44524 4.3776 0
M  V30 2727 H 269.686 0.891334 6.91882 0
M  V30 2728 H 265.583 -0.250896 6.45012 0
M  V30 2729 H 266.351 0.972707 8.127 0
M  V30 2730 N 269.014 -1.53014 -0.377408 0
M  V30 2731 C 270.244 -1.72265 -1.14054 0
M  V30 2732 C 270.652 -0.44601 -1.83868 0
M  V30 2733 O 269.995 0.590095 -1.73964 0
M  V30 2734 C 270.057 -2.82492 -2.22348 0
M  V30 2735 C 269.721 -4.23233 -1.72402 0
M  V30 2736 C 270.718 -5.05992 -1.19448 0
M  V30 2737 C 268.403 -4.696 -1.78273 0
M  V30 2738 C 270.397 -6.33203 -0.730268 0
M  V30 2739 C 268.084 -5.96792 -1.31464 0
M  V30 2740 C 269.082 -6.78424 -0.789297 0
M  V30 2741 O 268.77 -8.0323 -0.328077 0
M  V30 2742 H 268.502 -0.579873 -0.347453 0
M  V30 2743 H 271.056 -2.00502 -0.445882 0
M  V30 2744 H 269.286 -2.49702 -2.95272 0
M  V30 2745 H 270.975 -2.90034 -2.83963 0
M  V30 2746 H 271.741 -4.71349 -1.14259 0
M  V30 2747 H 267.62 -4.06142 -2.18106 0
M  V30 2748 H 271.164 -6.96868 -0.319542 0
M  V30 2749 H 267.061 -6.30937 -1.36342 0
M  V30 2750 H 267.829 -8.1727 -0.448493 0
M  V30 2751 N 270.492 0.636531 -1.44174 0
M  V30 2752 C 271.903 1.21806 -1.41493 0
M  V30 2753 C 272.254 1.95785 -0.1275 0
M  V30 2754 O 271.379 2.02147 0.772376 0
M  V30 2755 C 271.974 2.21551 -2.56321 0
M  V30 2756 C 270.533 2.75143 -2.56853 0
M  V30 2757 C 269.68 1.50052 -2.33195 0
M  V30 2758 H 272.631 0.427531 -1.52833 0
M  V30 2759 H 272.652 3.0405 -2.28765 0
M  V30 2760 H 272.164 1.67679 -3.50008 0
M  V30 2761 H 270.265 3.33033 -1.67093 0
M  V30 2762 H 270.378 3.2155 -3.55165 0
M  V30 2763 H 268.742 1.77993 -1.82183 0
M  V30 2764 H 269.525 0.980903 -3.28988 0
M  V30 2765 N 271.97 1.30982 0.876444 0
M  V30 2766 C 272.902 1.13902 1.98894 0
M  V30 2767 C 273.915 0.0798815 1.62604 0
M  V30 2768 O 275.104 0.326743 1.75484 0
M  V30 2769 C 272.204 0.716699 3.31235 0
M  V30 2770 C 271.377 1.85945 3.95908 0
M  V30 2771 C 270.436 1.42426 5.06558 0
M  V30 2772 O 269.462 2.13287 5.27729 0
M  V30 2773 N 270.664 0.308025 5.79682 0
M  V30 2774 H 273.429 2.09724 2.14094 0
M  V30 2775 H 270.99 1.2323 1.05004 0
M  V30 2776 H 272.982 0.408403 4.02634 0
M  V30 2777 H 271.552 -0.149719 3.12241 0
M  V30 2778 H 270.772 2.33541 3.17573 0
M  V30 2779 H 272.06 2.62503 4.35855 0
M  V30 2780 H 271.458 -0.282241 5.64995 0
M  V30 2781 H 270.015 0.0592282 6.51773 0
M  V30 2782 N 273.449 -1.08991 1.13837 0
M  V30 2783 C 274.381 -2.15606 0.777612 0
M  V30 2784 C 275.394 -1.61533 -0.202739 0
M  V30 2785 O 276.583 -1.78491 0.0181055 0
M  V30 2786 C 273.683 -3.3864 0.132623 0
M  V30 2787 C 272.856 -4.22115 1.1462 0
M  V30 2788 C 271.915 -5.23564 0.526074 0
M  V30 2789 O 270.941 -5.56678 1.18735 0
M  V30 2790 N 272.143 -5.76266 -0.699866 0
M  V30 2791 H 274.908 -2.47159 1.69506 0
M  V30 2792 H 272.469 -1.24747 1.03198 0
M  V30 2793 H 274.461 -4.03626 -0.29459 0
M  V30 2794 H 273.031 -3.04938 -0.687849 0
M  V30 2795 H 272.251 -3.53199 1.75055 0
M  V30 2796 H 273.539 -4.74709 1.83109 0
M  V30 2797 H 272.937 -5.51585 -1.25581 0
M  V30 2798 H 271.494 -6.42963 -1.06968 0
M  V30 2799 N 274.927 -0.932562 -1.27047 0
M  V30 2800 C 276.174 -0.575559 -1.94148 0
M  V30 2801 C 276.502 0.883984 -1.73251 0
M  V30 2802 O 275.757 1.64655 -1.0577 0
M  V30 2803 C 276.056 -0.853713 -3.47054 0
M  V30 2804 C 275.722 -2.29577 -3.88079 0
M  V30 2805 C 274.384 -2.68999 -3.9899 0
M  V30 2806 C 276.736 -3.23331 -4.08787 0
M  V30 2807 C 274.064 -4.01289 -4.28 0
M  V30 2808 C 276.416 -4.55207 -4.39282 0
M  V30 2809 C 275.08 -4.94457 -4.48407 0
M  V30 2810 H 274.35 -0.210612 -0.710439 0
M  V30 2811 H 276.997 -1.17744 -1.51025 0
M  V30 2812 H 275.302 -0.169204 -3.91434 0
M  V30 2813 H 276.999 -0.55639 -3.97121 0
M  V30 2814 H 273.589 -1.97994 -3.80127 0
M  V30 2815 H 277.773 -2.94074 -3.99793 0
M  V30 2816 H 273.029 -4.31374 -4.33275 0
M  V30 2817 H 277.203 -5.27852 -4.54252 0
M  V30 2818 H 274.83 -5.96994 -4.7064 0
M  V30 2819 N 276.405 1.4127 -0.698611 0
M  V30 2820 C 277.816 1.84187 -0.305289 0
M  V30 2821 C 278.167 1.58449 1.15708 0
M  V30 2822 O 277.292 1.05651 1.88856 0
M  V30 2823 C 277.887 3.3435 -0.547314 0
M  V30 2824 C 276.446 3.75826 -0.207878 0
M  V30 2825 C 275.593 2.64647 -0.828099 0
M  V30 2826 H 278.544 1.30778 -0.89904 0
M  V30 2827 H 278.565 3.8001 0.192998 0
M  V30 2828 H 278.077 3.53051 -1.61172 0
M  V30 2829 H 276.178 3.62725 0.852143 0
M  V30 2830 H 276.291 4.74462 -0.665021 0
M  V30 2831 H 274.655 2.53395 -0.257458 0
M  V30 2832 H 275.438 2.86165 -1.89643 0
M  V30 2833 N 277.883 0.443576 1.51229 0
M  V30 2834 C 279.113 -0.119117 2.06256 0
M  V30 2835 C 279.521 -1.36471 1.31043 0
M  V30 2836 O 278.864 -1.80034 0.365151 0
M  V30 2837 C 278.926 -0.500546 3.55998 0
M  V30 2838 C 278.59 0.639125 4.52509 0
M  V30 2839 C 279.587 1.51311 4.97394 0
M  V30 2840 C 277.272 0.821632 4.95535 0
M  V30 2841 C 279.266 2.55425 5.83984 0
M  V30 2842 C 276.953 1.86603 5.81913 0
M  V30 2843 C 277.951 2.73072 6.26036 0
M  V30 2844 O 277.639 3.75718 7.10698 0
M  V30 2845 H 277.371 -0.00857665 0.675946 0
M  V30 2846 H 279.925 0.623288 1.95715 0
M  V30 2847 H 278.155 -1.29575 3.64345 0
M  V30 2848 H 279.844 -0.995116 3.93513 0
M  V30 2849 H 280.61 1.38367 4.64844 0
M  V30 2850 H 276.489 0.158149 4.60729 0
M  V30 2851 H 280.033 3.22949 6.18344 0
M  V30 2852 H 275.93 1.99564 6.13876 0
M  V30 2853 H 276.698 3.72374 7.2889 0
M  V30 2854 N 279.361 -1.56624 0.175154 0
M  V30 2855 C 280.324 -2.16934 -0.739738 0
M  V30 2856 C 281.324 -1.11842 -1.15533 0
M  V30 2857 O 282.514 -1.37335 -1.07167 0
M  V30 2858 C 279.646 -2.75531 -2.00738 0
M  V30 2859 H 280.839 -2.99131 -0.214639 0
M  V30 2860 H 278.392 -1.56123 -0.0744197 0
M  V30 2861 H 279.127 -1.97078 -2.57548 0
M  V30 2862 H 278.912 -3.52444 -1.71831 0
M  V30 2863 H 280.402 -3.21904 -2.66021 0
M  V30 2864 N 280.839 0.0985539 -1.57292 0
M  V30 2865 C 281.802 1.10402 -2.00858 0
M  V30 2866 C 282.802 1.33146 -0.901593 0
M  V30 2867 O 283.992 1.29318 -1.16716 0
M  V30 2868 C 281.124 2.45394 -2.36632 0
M  V30 2869 H 282.317 0.729099 -2.90902 0
M  V30 2870 H 279.87 0.343495 -1.52479 0
M  V30 2871 H 280.605 2.87769 -1.49531 0
M  V30 2872 H 280.39 2.30235 -3.17387 0
M  V30 2873 H 281.88 3.17718 -2.71007 0
M  V30 2874 N 282.317 1.53212 0.369288 0
M  V30 2875 C 283.542 1.73423 1.1375 0
M  V30 2876 C 283.967 0.460404 1.82378 0
M  V30 2877 O 283.325 -0.585298 1.71592 0
M  V30 2878 C 283.373 2.89769 2.1463 0
M  V30 2879 O 282.477 2.58119 3.21634 0
M  V30 2880 H 281.818 0.576061 0.330227 0
M  V30 2881 H 284.348 2.00083 0.427547 0
M  V30 2882 H 284.358 3.15829 2.58294 0
M  V30 2883 H 283.033 3.8217 1.64071 0
M  V30 2884 H 281.61 2.42864 2.82969 0
M  V30 2885 N 283.795 -0.628877 1.44509 0
M  V30 2886 C 284.725 -1.75187 1.54376 0
M  V30 2887 C 285.706 -1.65411 0.396618 0
M  V30 2888 O 286.891 -1.84137 0.617031 0
M  V30 2889 C 284.021 -3.13725 1.48976 0
M  V30 2890 C 282.975 -3.38291 2.62189 0
M  V30 2891 C 282.301 -4.76883 2.41841 0
M  V30 2892 C 283.601 -3.30632 4.04326 0
M  V30 2893 H 285.295 -1.67187 2.48373 0
M  V30 2894 H 282.841 -0.802909 1.19538 0
M  V30 2895 H 284.794 -3.92064 1.54478 0
M  V30 2896 H 283.518 -3.22515 0.514961 0
M  V30 2897 H 282.177 -2.62334 2.56079 0
M  V30 2898 H 281.825 -4.82378 1.42548 0
M  V30 2899 H 281.525 -4.94278 3.17747 0
M  V30 2900 H 283.049 -5.57449 2.49165 0
M  V30 2901 H 284.463 -3.98873 4.11793 0
M  V30 2902 H 282.86 -3.59561 4.80454 0
M  V30 2903 H 283.93 -2.28404 4.27738 0
M  V30 2904 N 285.273 -1.31445 -0.869486 0
M  V30 2905 C 286.498 -1.24256 -1.66058 0
M  V30 2906 C 286.923 0.188928 -1.87149 0
M  V30 2907 O 286.281 1.13522 -1.4136 0
M  V30 2908 C 286.329 -1.9924 -3.00559 0
M  V30 2909 O 285.433 -1.33007 -3.90362 0
M  V30 2910 H 284.774 -0.428973 -0.506831 0
M  V30 2911 H 287.304 -1.73521 -1.08404 0
M  V30 2912 H 287.314 -2.08854 -3.50491 0
M  V30 2913 H 285.989 -3.03342 -2.84528 0
M  V30 2914 H 284.566 -1.31848 -3.48813 0
M  V30 2915 N 286.751 1.08385 -1.14413 0
M  V30 2916 C 287.999 1.80419 -0.910679 0
M  V30 2917 C 288.32 1.86658 0.564243 0
M  V30 2918 O 287.59 1.35985 1.41014 0
M  V30 2919 H 286.17 0.668204 -0.333934 0
M  V30 2920 H 288.832 1.31037 -1.44275 0
M  V30 2921 H 287.928 2.83238 -1.31082 0
M  V30 2922 N 288.23 0.939286 1.26551 0
M  V30 2923 C 289.477 0.585847 1.9384 0
M  V30 2924 C 289.805 -0.874784 1.73718 0
M  V30 2925 O 289.06 -1.64092 1.06642 0
M  V30 2926 C 289.359 0.872106 3.46596 0
M  V30 2927 C 289.025 2.31632 3.86856 0
M  V30 2928 C 287.687 2.71111 3.97558 0
M  V30 2929 C 290.039 3.25494 4.07066 0
M  V30 2930 C 287.367 4.03553 4.25866 0
M  V30 2931 C 289.719 4.57531 4.36862 0
M  V30 2932 C 288.383 4.96828 4.45778 0
M  V30 2933 H 287.653 0.214377 0.709312 0
M  V30 2934 H 290.3 1.18544 1.50398 0
M  V30 2935 H 288.605 0.18996 3.91339 0
M  V30 2936 H 290.302 0.577442 3.96821 0
M  V30 2937 H 286.892 2.00008 3.79071 0
M  V30 2938 H 291.076 2.9619 3.98227 0
M  V30 2939 H 286.332 4.33665 4.30981 0
M  V30 2940 H 290.506 5.30254 4.51446 0
M  V30 2941 H 288.133 5.99482 4.67468 0
M  V30 2942 N 289.708 -1.40897 0.706093 0
M  V30 2943 C 290.638 -2.33418 0.0620085 0
M  V30 2944 C 291.619 -1.52385 -0.755827 0
M  V30 2945 O 292.804 -1.80886 -0.706674 0
M  V30 2946 C 289.934 -3.36293 -0.867445 0
M  V30 2947 C 288.888 -4.27716 -0.155932 0
M  V30 2948 C 288.214 -5.2105 -1.20046 0
M  V30 2949 C 289.514 -5.12944 0.984149 0
M  V30 2950 H 291.208 -2.87527 0.83477 0
M  V30 2951 H 288.754 -1.38249 0.402875 0
M  V30 2952 H 290.707 -3.99949 -1.32735 0
M  V30 2953 H 289.431 -2.80556 -1.67199 0
M  V30 2954 H 288.09 -3.65498 0.284047 0
M  V30 2955 H 287.738 -4.61624 -1.99781 0
M  V30 2956 H 287.438 -5.83056 -0.729328 0
M  V30 2957 H 288.962 -5.87584 -1.66066 0
M  V30 2958 H 290.376 -5.70109 0.604048 0
M  V30 2959 H 288.773 -5.83945 1.38304 0
M  V30 2960 H 289.843 -4.49485 1.81911 0
M  V30 2961 N 291.186 -0.45159 -1.50991 0
M  V30 2962 C 292.134 0.366864 -2.29689 0
M  V30 2963 C 293.128 1.00809 -1.36139 0
M  V30 2964 O 294.334 0.941427 -1.53418 0
M  V30 2965 H 290.709 0.137133 -0.739391 0
M  V30 2966 H 292.68 -0.317538 -2.96706 0
M  V30 2967 C 291.429 1.44751 -3.16137 0
M  V30 2968 H 290.752 0.963473 -3.88017 0
M  V30 2969 H 292.192 1.99315 -3.74232 0
M  V30 2970 C 290.651 2.43869 -2.32442 0
M  V30 2971 O 291.181 3.4872 -1.99392 0
M  V30 2972 N 289.387 2.15105 -1.95392 0
M  V30 2973 H 288.934 1.29866 -2.22469 0
M  V30 2974 H 288.892 2.81661 -1.39693 0
M  V30 2975 N 292.664 1.56529 -0.183458 0
M  V30 2976 C 294.075 1.83739 0.331177 0
M  V30 2977 C 294.426 1.10373 1.62211 0
M  V30 2978 O 293.551 0.36071 2.13373 0
M  V30 2979 C 294.146 3.33306 0.607646 0
M  V30 2980 C 292.705 3.60969 1.06668 0
M  V30 2981 C 291.852 2.77086 0.109029 0
M  V30 2982 H 294.803 1.53379 -0.407484 0
M  V30 2983 H 294.824 3.51444 1.45832 0
M  V30 2984 H 294.336 3.86677 -0.332086 0
M  V30 2985 H 292.437 3.13021 2.0211 0
M  V30 2986 H 292.55 4.69231 0.967447 0
M  V30 2987 H 290.914 2.47319 0.608714 0
M  V30 2988 H 291.697 3.33241 -0.82494 0
M  V30 2989 N 294.142 -0.090211 1.57342 0
M  V30 2990 C 295.367 -0.810082 1.90925 0
M  V30 2991 C 295.792 -1.71248 0.778187 0
M  V30 2992 O 295.15 -1.79278 -0.269991 0
M  V30 2993 C 295.198 -1.59529 3.23393 0
M  V30 2994 O 294.302 -2.70461 3.11327 0
M  V30 2995 H 293.643 -0.222231 0.625707 0
M  V30 2996 H 296.173 -0.0639716 2.045 0
M  V30 2997 H 296.183 -1.97847 3.5682 0
M  V30 2998 H 294.858 -0.933055 4.05299 0
M  V30 2999 H 293.435 -2.35135 2.89423 0
M  V30 3000 N 295.62 -1.53406 -0.361157 0
M  V30 3001 C 296.53 -1.83122 -1.4664 0
M  V30 3002 C 297.546 -0.719943 -1.58407 0
M  V30 3003 O 298.722 -1.01046 -1.74218 0
M  V30 3004 C 295.787 -2.01891 -2.81853 0
M  V30 3005 C 294.848 -3.25784 -2.79577 0
M  V30 3006 C 294.081 -3.43648 -4.0834 0
M  V30 3007 O 294.304 -2.65714 -5.0473 0
M  V30 3008 O 293.238 -4.37018 -4.13883 0
M  V30 3009 H 297.064 -2.7703 -1.24451 0
M  V30 3010 H 294.649 -1.38841 -0.551678 0
M  V30 3011 H 296.531 -2.15782 -3.61962 0
M  V30 3012 H 295.206 -1.11173 -3.0401 0
M  V30 3013 H 294.113 -3.17312 -1.98151 0
M  V30 3014 H 295.446 -4.16439 -2.62373 0
M  V30 3015 N 297.098 0.621204 -1.44841 0
M  V30 3016 C 298.346 1.37783 -1.47852 0
M  V30 3017 C 298.667 1.94653 -0.116224 0
M  V30 3018 O 297.937 1.76367 0.852737 0
M  V30 3019 H 296.517 0.511453 -0.544449 0
M  V30 3020 H 299.179 0.730446 -1.80694 0
M  V30 3021 H 298.275 2.20414 -2.20961 0
M  V30 3022 N 298.576 1.31904 0.862503 0
M  V30 3023 C 299.822 1.23207 1.61838 0
M  V30 3024 C 300.177 -0.206062 1.91293 0
M  V30 3025 O 299.47 -1.14162 1.53875 0
M  V30 3026 C 299.664 2.01713 2.95037 0
M  V30 3027 C 299.493 3.53014 2.78588 0
M  V30 3028 C 298.263 4.22359 2.77382 0
M  V30 3029 C 300.461 4.47819 2.52909 0
M  V30 3030 N 298.443 5.59766 2.52062 0
M  V30 3031 C 299.814 5.72947 2.36922 0
M  V30 3032 C 301.869 4.37162 2.38314 0
M  V30 3033 C 300.572 6.88623 2.07823 0
M  V30 3034 C 302.598 5.5263 2.10604 0
M  V30 3035 C 301.96 6.76752 1.95411 0
M  V30 3036 H 298.059 0.505984 0.596242 0
M  V30 3037 H 300.643 1.66179 1.01452 0
M  V30 3038 H 298.814 1.61098 3.53415 0
M  V30 3039 H 300.546 1.84975 3.59953 0
M  V30 3040 H 297.301 3.74401 2.90036 0
M  V30 3041 H 297.725 6.32135 2.42352 0
M  V30 3042 H 302.367 3.41857 2.48784 0
M  V30 3043 H 300.085 7.83948 1.9609 0
M  V30 3044 H 303.671 5.46307 2.00101 0
M  V30 3045 H 302.551 7.6459 1.74274 0
M  V30 3046 N 300.054 -1.07777 1.14986 0
M  V30 3047 C 301.3 -1.80719 0.93339 0
M  V30 3048 C 301.655 -1.8484 -0.534019 0
M  V30 3049 O 300.948 -1.31795 -1.3907 0
M  V30 3050 C 301.142 -3.25495 1.47608 0
M  V30 3051 C 300.971 -3.3548 2.99472 0
M  V30 3052 C 299.741 -3.46293 3.6798 0
M  V30 3053 C 301.939 -3.26596 3.97291 0
M  V30 3054 N 299.921 -3.45136 5.07695 0
M  V30 3055 C 301.292 -3.32506 5.23297 0
M  V30 3056 C 303.347 -3.10376 3.89321 0
M  V30 3057 C 302.05 -3.23866 6.42264 0
M  V30 3058 C 304.076 -3.03069 5.07842 0
M  V30 3059 C 303.438 -3.09587 6.32721 0
M  V30 3060 H 299.537 -0.674814 0.395158 0
M  V30 3061 H 302.121 -1.28681 1.46114 0
M  V30 3062 H 300.292 -3.75963 0.975022 0
M  V30 3063 H 302.024 -3.86535 1.19887 0
M  V30 3064 H 298.779 -3.50456 3.18555 0
M  V30 3065 H 299.203 -3.48097 5.80653 0
M  V30 3066 H 303.845 -3.04194 2.93642 0
M  V30 3067 H 301.563 -3.28807 7.38181 0
M  V30 3068 H 305.149 -2.91629 5.03432 0
M  V30 3069 H 304.029 -3.0397 7.22891 0
M  V30 3070 N 301.532 -0.945985 -1.26051 0
M  V30 3071 C 302.943 -0.638096 -1.75457 0
M  V30 3072 C 303.294 0.846672 -1.76991 0
M  V30 3073 O 302.419 1.66262 -1.38513 0
M  V30 3074 C 303.014 -1.15157 -3.18629 0
M  V30 3075 C 301.573 -0.894004 -3.65629 0
M  V30 3076 C 300.72 -1.29967 -2.44957 0
M  V30 3077 H 303.671 -1.12376 -1.1206 0
M  V30 3078 H 303.692 -0.507615 -3.77099 0
M  V30 3079 H 303.204 -2.23222 -3.1748 0
M  V30 3080 H 301.305 0.172057 -3.72203 0
M  V30 3081 H 301.418 -1.52439 -4.54202 0
M  V30 3082 H 299.782 -0.718078 -2.44368 0
M  V30 3083 H 300.565 -2.38935 -2.46505 0
M  V30 3084 N 303.011 1.40521 -0.713556 0
M  V30 3085 C 304.239 2.05237 -0.261775 0
M  V30 3086 C 304.654 1.53755 1.09567 0
M  V30 3087 O 304.011 0.693268 1.6882 0
M  V30 3088 C 304.062 3.60763 -0.230706 0
M  V30 3089 O 303.783 4.10345 -1.53455 0
M  V30 3090 C 305.284 4.42651 0.239874 0
M  V30 3091 H 302.504 0.660533 -0.118057 0
M  V30 3092 H 305.048 1.79967 -0.971192 0
M  V30 3093 H 303.203 3.8501 0.429661 0
M  V30 3094 H 303.617 5.04526 -1.43366 0
M  V30 3095 H 305.091 5.51599 0.210468 0
M  V30 3096 H 305.568 4.20082 1.28171 0
M  V30 3097 H 306.174 4.23507 -0.390142 0
M  V30 3098 N 304.489 0.459591 1.5075 0
M  V30 3099 C 305.419 -0.330644 2.31147 0
M  V30 3100 C 306.4 -1.00087 1.37538 0
M  V30 3101 O 307.585 -1.00025 1.66459 0
M  V30 3102 C 304.715 -1.41958 3.16962 0
M  V30 3103 C 303.669 -0.871608 4.19031 0
M  V30 3104 C 302.995 -2.05797 4.9351 0
M  V30 3105 C 304.295 0.109251 5.22186 0
M  V30 3106 H 305.989 0.340336 2.97459 0
M  V30 3107 H 303.535 0.165119 1.4305 0
M  V30 3108 H 305.488 -1.9798 3.71997 0
M  V30 3109 H 304.212 -2.11917 2.48513 0
M  V30 3110 H 302.871 -0.333442 3.6508 0
M  V30 3111 H 302.519 -2.74427 4.21544 0
M  V30 3112 H 302.219 -1.6976 5.62544 0
M  V30 3113 H 303.743 -2.62331 5.51375 0
M  V30 3114 H 305.157 -0.361405 5.7216 0
M  V30 3115 H 303.554 0.383316 5.98875 0
M  V30 3116 H 304.624 1.03887 4.73641 0
M  V30 3117 N 305.967 -1.56429 0.191757 0
M  V30 3118 C 307.216 -1.9666 -0.448088 0
M  V30 3119 C 307.529 -1.08136 -1.62991 0
M  V30 3120 O 308.735 -1.38135 -2.33733 0
M  V30 3121 C 307.191 -3.49753 -0.848585 0
M  V30 3122 C 306.799 -4.46935 0.308764 0
M  V30 3123 C 308.543 -3.9876 -1.4557 0
M  V30 3124 C 306.45 -5.91293 -0.112506 0
M  V30 3125 H 305.38 -0.734312 -0.171179 0
M  V30 3126 H 308.031 -1.81301 0.283242 0
M  V30 3127 H 306.413 -3.60604 -1.63649 0
M  V30 3128 H 307.587 -4.47813 1.08627 0
M  V30 3129 H 305.902 -4.08102 0.827158 0
M  V30 3130 H 308.499 -5.04086 -1.78328 0
M  V30 3131 H 308.842 -3.42875 -2.36099 0
M  V30 3132 H 309.375 -3.9101 -0.731836 0
M  V30 3133 H 306.114 -6.51097 0.758514 0
M  V30 3134 H 305.634 -5.93676 -0.854941 0
M  V30 3135 H 307.313 -6.44663 -0.549448 0
M  V30 3136 N 307.445 0.0818655 -1.57387 0
M  V30 3137 C 308.693 0.781368 -1.86384 0
M  V30 3138 C 309.014 1.78618 -0.782342 0
M  V30 3139 O 308.284 1.94976 0.190061 0
M  V30 3140 H 306.864 0.291562 -0.687751 0
M  V30 3141 H 309.526 0.060348 -1.94807 0
M  V30 3142 H 308.622 1.3038 -2.83562 0
M  V30 3143 N 308.923 1.53595 0.353017 0
M  V30 3144 C 309.853 1.83902 1.43883 0
M  V30 3145 C 310.834 0.693421 1.55324 0
M  V30 3146 O 312.019 0.944452 1.69687 0
M  V30 3147 C 309.149 2.04016 2.8106 0
M  V30 3148 C 308.103 3.19814 2.84434 0
M  V30 3149 C 307.429 3.25244 4.24406 0
M  V30 3150 C 308.729 4.58133 2.50822 0
M  V30 3151 H 310.423 2.74835 1.1877 0
M  V30 3152 H 307.969 1.32242 0.569917 0
M  V30 3153 H 309.922 2.238 3.57059 0
M  V30 3154 H 308.646 1.09804 3.07588 0
M  V30 3155 H 307.305 2.9987 2.10887 0
M  V30 3156 H 306.953 2.28646 4.48029 0
M  V30 3157 H 306.653 4.03054 4.27576 0
M  V30 3158 H 308.177 3.47228 5.0226 0
M  V30 3159 H 309.591 4.77995 3.16534 0
M  V30 3160 H 307.988 5.38276 2.6529 0
M  V30 3161 H 309.058 4.62387 1.46034 0
M  V30 3162 N 310.401 -0.613514 1.45168 0
M  V30 3163 C 311.364 -1.7065 1.53007 0
M  V30 3164 C 312.364 -1.5548 0.410184 0
M  V30 3165 O 313.554 -1.60656 0.673455 0
M  V30 3166 C 310.686 -3.09875 1.42093 0
M  V30 3167 H 311.879 -1.65068 2.50385 0
M  V30 3168 H 309.432 -0.828728 1.32521 0
M  V30 3169 H 310.167 -3.21039 0.458769 0
M  V30 3170 H 309.952 -3.22293 2.23315 0
M  V30 3171 H 311.442 -3.895 1.50598 0
M  V30 3172 N 311.879 -1.3236 -0.855495 0
M  V30 3173 C 312.812 -1.15559 -1.96777 0
M  V30 3174 C 313.79 -0.0552681 -1.62506 0
M  V30 3175 O 314.974 -0.214419 -1.87277 0
M  V30 3176 C 312.101 -0.768851 -3.29858 0
M  V30 3177 C 311.147 -1.87429 -3.83109 0
M  V30 3178 S 311.98 -3.48243 -4.06801 0
M  V30 3179 C 313.136 -3.11539 -5.42858 0
M  V30 3180 H 313.369 -2.09717 -2.10727 0
M  V30 3181 H 310.902 -1.17011 -1.00737 0
M  V30 3182 H 312.86 -0.55248 -4.06765 0
M  V30 3183 H 311.521 0.153857 -3.13723 0
M  V30 3184 H 310.714 -1.55667 -4.79358 0
M  V30 3185 H 310.316 -2.04647 -3.13042 0
M  V30 3186 H 312.608 -2.61331 -6.2507 0
M  V30 3187 H 313.551 -4.06806 -5.79582 0
M  V30 3188 H 313.959 -2.48582 -5.06821 0
M  V30 3189 N 313.357 1.07166 -1.15556 0
M  V30 3190 C 314.305 2.16517 -0.8499 0
M  V30 3191 C 315.299 1.68468 0.177454 0
M  V30 3192 O 316.505 1.79971 0.0323026 0
M  V30 3193 H 312.88 0.706652 -0.25719 0
M  V30 3194 H 314.851 2.39514 -1.77976 0
M  V30 3195 C 313.6 3.45855 -0.357682 0
M  V30 3196 H 312.923 3.83214 -1.13961 0
M  V30 3197 H 314.363 4.23607 -0.182489 0
M  V30 3198 C 312.822 3.24062 0.921152 0
M  V30 3199 O 313.352 3.48813 1.9923 0
M  V30 3200 N 311.558 2.77539 0.86141 0
M  V30 3201 H 311.105 2.57598 -0.0104408 0
M  V30 3202 H 311.063 2.63337 1.71758 0
M  V30 3203 N 314.835 0.952656 1.25548 0
M  V30 3204 C 316.112 0.523818 1.88456 0
M  V30 3205 C 316.492 -0.998871 1.85973 0
M  V30 3206 O 315.84 -1.86381 1.3219 0
M  V30 3207 C 316.05 1.0982 3.31271 0
M  V30 3208 C 317.398 1.17385 4.08051 0
M  V30 3209 O 318.422 1.04961 3.40384 0
M  V30 3210 O 317.281 1.36852 5.29088 0
M  V30 3211 H 314.375 0.172485 0.808813 0
M  V30 3212 H 316.921 1.04596 1.33633 0
M  V30 3213 H 315.693 2.1415 3.27499 0
M  V30 3214 H 315.316 0.559191 3.93648 0
M  V30 3215 N 316.313 -1.40141 0.720998 0
M  V30 3216 C 317.538 -2.05618 0.271258 0
M  V30 3217 C 317.963 -1.53978 -1.08039 0
M  V30 3218 O 317.321 -0.677463 -1.68167 0
M  V30 3219 C 317.369 -3.59609 0.267197 0
M  V30 3220 O 316.473 -4.05526 -0.749814 0
M  V30 3221 H 315.814 -0.651904 0.126162 0
M  V30 3222 H 318.344 -1.79439 0.982997 0
M  V30 3223 H 318.354 -4.0786 0.106744 0
M  V30 3224 H 317.029 -3.96559 1.25354 0
M  V30 3225 H 315.606 -3.68722 -0.556644 0
M  V30 3226 N 317.792 -0.46758 -1.50504 0
M  V30 3227 C 319.04 0.0884469 -2.01906 0
M  V30 3228 C 319.361 1.40532 -1.35188 0
M  V30 3229 O 318.631 1.89515 -0.496079 0
M  V30 3230 H 317.211 0.0356765 -0.746148 0
M  V30 3231 H 319.873 -0.6172 -1.84869 0
M  V30 3232 H 318.969 0.2425 -3.11156 0
M  V30 3233 N 319.27 1.56325 -0.20005 0
M  V30 3234 C 320.518 1.97329 0.436547 0
M  V30 3235 C 320.839 1.08826 1.61808 0
M  V30 3236 O 320.109 0.160604 1.95241 0
M  V30 3237 H 318.689 0.728714 0.164272 0
M  V30 3238 H 321.351 1.92761 -0.287937 0
M  V30 3239 H 320.447 3.02264 0.777353 0
M  V30 3240 N 320.748 -0.0735177 1.57428 0
M  V30 3241 C 321.978 -0.78483 1.91112 0
M  V30 3242 C 322.386 -1.71729 0.7941 0
M  V30 3243 O 321.729 -1.82105 -0.241542 0
M  V30 3244 C 321.791 -1.63346 3.20247 0
M  V30 3245 C 321.455 -0.870557 4.48632 0
M  V30 3246 C 322.452 -0.19058 5.19551 0
M  V30 3247 C 320.137 -0.838242 4.95256 0
M  V30 3248 C 322.131 0.511503 6.35344 0
M  V30 3249 C 319.818 -0.132386 6.10957 0
M  V30 3250 C 320.816 0.541288 6.80852 0
M  V30 3251 O 320.504 1.23578 7.94345 0
M  V30 3252 H 320.236 -0.228408 0.636244 0
M  V30 3253 H 322.79 -0.0486039 2.05342 0
M  V30 3254 H 321.02 -2.41245 3.02222 0
M  V30 3255 H 322.709 -2.22329 3.39595 0
M  V30 3256 H 323.475 -0.206864 4.84559 0
M  V30 3257 H 319.354 -1.35206 4.40727 0
M  V30 3258 H 322.898 1.03789 6.89836 0
M  V30 3259 H 318.795 -0.114023 6.45399 0
M  V30 3260 H 319.563 1.14487 8.10454 0
M  V30 3261 N 322.226 -1.5378 -0.344866 0
M  V30 3262 C 323.174 -1.82373 -1.4437 0
M  V30 3263 C 324.168 -0.694128 -1.54526 0
M  V30 3264 O 325.374 -0.877442 -1.57165 0
M  V30 3265 H 321.749 -0.577765 -0.481344 0
M  V30 3266 H 323.72 -2.74306 -1.17468 0
M  V30 3267 C 322.469 -2.04898 -2.80913 0
M  V30 3268 H 321.792 -2.9127 -2.73865 0
M  V30 3269 H 323.232 -2.28871 -3.56923 0
M  V30 3270 C 321.691 -0.834116 -3.26411 0
M  V30 3271 O 322.221 -0.0328885 -4.01687 0
M  V30 3272 N 320.427 -0.65171 -2.83198 0
M  V30 3273 H 319.974 -1.30489 -2.22104 0
M  V30 3274 H 319.932 0.159686 -3.13994 0
M  V30 3275 N 323.704 0.605807 -1.45491 0
M  V30 3276 C 324.667 1.69836 -1.5391 0
M  V30 3277 C 325.667 1.55261 -0.418424 0
M  V30 3278 O 326.857 1.60296 -0.681965 0
M  V30 3279 C 323.989 3.09117 -1.43734 0
M  V30 3280 H 325.182 1.63738 -2.51257 0
M  V30 3281 H 322.735 0.821689 -1.32959 0
M  V30 3282 H 323.47 3.20791 -0.475788 0
M  V30 3283 H 323.255 3.21104 -2.25021 0
M  V30 3284 H 324.745 3.88696 -1.52661 0
M  V30 3285 N 325.182 1.32811 0.848464 0
M  V30 3286 C 326.13 1.22231 1.97895 0
M  V30 3287 C 327.124 0.125749 1.68933 0
M  V30 3288 O 328.33 0.289083 1.77663 0
M  V30 3289 H 324.705 0.379058 0.649476 0
M  V30 3290 H 326.676 2.17828 2.03945 0
M  V30 3291 C 325.425 0.968572 3.33937 0
M  V30 3292 H 324.748 1.80458 3.56756 0
M  V30 3293 H 326.188 0.934808 4.13567 0
M  V30 3294 C 324.647 -0.328628 3.35293 0
M  V30 3295 O 325.177 -1.33848 3.78745 0
M  V30 3296 N 323.383 -0.352788 2.88451 0
M  V30 3297 H 322.93 0.469541 2.53285 0
M  V30 3298 H 322.888 -1.22057 2.89741 0
M  V30 3299 N 326.66 -1.06551 1.16123 0
M  V30 3300 C 327.885 -1.83544 0.965735 0
M  V30 3301 C 328.31 -1.81843 -0.481102 0
M  V30 3302 O 327.668 -1.21732 -1.34354 0
M  V30 3303 C 327.716 -3.28169 1.49457 0
M  V30 3304 O 326.82 -4.0643 0.699157 0
M  V30 3305 H 326.161 -0.568026 0.343864 0
M  V30 3306 H 328.691 -1.34362 1.54299 0
M  V30 3307 H 328.701 -3.78992 1.51092 0
M  V30 3308 H 327.376 -3.28722 2.54784 0
M  V30 3309 H 325.953 -3.65216 0.7531 0
M  V30 3310 N 328.138 -0.959301 -1.25041 0
M  V30 3311 C 329.071 -0.427418 -2.24161 0
M  V30 3312 C 330.049 0.493837 -1.54919 0
M  V30 3313 O 331.233 0.427144 -1.83597 0
M  V30 3314 C 328.36 0.383893 -3.36517 0
M  V30 3315 C 327.406 -0.478431 -4.23808 0
M  V30 3316 S 328.239 -1.91353 -5.00144 0
M  V30 3317 C 329.395 -1.11077 -6.15965 0
M  V30 3318 H 329.628 -1.26743 -2.6893 0
M  V30 3319 H 327.161 -0.763714 -1.34189 0
M  V30 3320 H 329.119 0.846039 -4.01687 0
M  V30 3321 H 327.78 1.19878 -2.90324 0
M  V30 3322 H 326.973 0.14406 -5.03794 0
M  V30 3323 H 326.575 -0.87597 -3.63597 0
M  V30 3324 H 328.867 -0.361699 -6.76534 0
M  V30 3325 H 329.81 -1.88472 -6.82557 0
M  V30 3326 H 330.218 -0.638843 -5.60873 0
M  V30 3327 N 329.616 1.39756 -0.72842 0
M  V30 3328 C 330.862 2.01425 -0.282761 0
M  V30 3329 C 331.217 1.56754 1.11561 0
M  V30 3330 O 330.51 0.783482 1.74849 0
M  V30 3331 C 330.704 3.56002 -0.315776 0
M  V30 3332 C 330.533 4.1568 -1.71582 0
M  V30 3333 C 329.303 4.48555 -2.32651 0
M  V30 3334 C 331.501 4.39667 -2.66829 0
M  V30 3335 N 329.483 4.93698 -3.64877 0
M  V30 3336 C 330.854 4.86942 -3.8378 0
M  V30 3337 C 332.909 4.21724 -2.64675 0
M  V30 3338 C 331.612 5.18158 -4.98904 0
M  V30 3339 C 333.638 4.54049 -3.78937 0
M  V30 3340 C 333 5.01525 -4.94623 0
M  V30 3341 H 329.099 0.76756 -0.149583 0
M  V30 3342 H 331.683 1.69784 -0.952976 0
M  V30 3343 H 329.854 3.87046 0.324057 0
M  V30 3344 H 331.586 4.0443 0.147808 0
M  V30 3345 H 328.341 4.36128 -1.84633 0
M  V30 3346 H 328.765 5.20635 -4.32744 0
M  V30 3347 H 333.407 3.84228 -1.76433 0
M  V30 3348 H 331.125 5.54562 -5.87781 0
M  V30 3349 H 334.711 4.41795 -3.78561 0
M  V30 3350 H 333.591 5.26065 -5.81572 0
M  V30 3351 N 331.094 0.475555 1.50254 0
M  V30 3352 C 332.342 -0.077738 2.0195 0
M  V30 3353 C 332.663 -1.39813 1.35931 0
M  V30 3354 O 331.933 -1.89249 0.506123 0
M  V30 3355 H 330.513 -0.031719 0.746326 0
M  V30 3356 H 333.175 0.626995 1.84539 0
M  V30 3357 H 332.271 -0.225995 3.11281 0
M  V30 3358 N 332.573 -1.56217 0.208337 0
M  V30 3359 C 333.984 -1.84243 -0.301904 0
M  V30 3360 C 334.335 -1.12939 -1.60434 0
M  V30 3361 O 333.46 -0.39461 -2.12772 0
M  V30 3362 C 334.055 -3.34231 -0.554543 0
M  V30 3363 C 332.614 -3.62621 -1.00912 0
M  V30 3364 C 331.761 -2.77224 -0.064933 0
M  V30 3365 H 334.712 -1.52712 0.431833 0
M  V30 3366 H 334.733 -3.5372 -1.40223 0
M  V30 3367 H 334.245 -3.86099 0.393561 0
M  V30 3368 H 332.346 -3.16197 -1.97104 0
M  V30 3369 H 332.459 -4.7071 -0.892674 0
M  V30 3370 H 330.823 -2.48256 -0.56929 0
M  V30 3371 H 331.606 -3.31887 0.877851 0
M  V30 3372 N 334.051 0.0651679 -1.57465 0
M  V30 3373 C 335.276 0.779605 -1.9219 0
M  V30 3374 C 335.701 1.69988 -0.805333 0
M  V30 3375 O 335.059 1.79685 0.241435 0
M  V30 3376 C 335.107 1.54364 -3.2589 0
M  V30 3377 O 334.211 2.65474 -3.1559 0
M  V30 3378 H 333.552 0.212249 -0.629163 0
M  V30 3379 H 336.082 0.0314294 -2.04576 0
M  V30 3380 H 336.092 1.92146 -3.59922 0
M  V30 3381 H 334.767 0.868457 -4.06732 0
M  V30 3382 H 333.344 2.30501 -2.93128 0
M  V30 3383 N 335.529 1.53961 0.336706 0
M  V30 3384 C 336.754 1.75797 1.10046 0
M  V30 3385 C 337.179 0.498985 1.81361 0
M  V30 3386 O 336.537 -0.548769 1.72795 0
M  V30 3387 C 336.585 2.94257 2.08436 0
M  V30 3388 O 335.689 2.64883 3.16087 0
M  V30 3389 H 335.03 0.582936 0.317934 0
M  V30 3390 H 337.56 2.00945 0.38501 0
M  V30 3391 H 337.57 3.21237 2.51537 0
M  V30 3392 H 336.245 3.85564 1.55927 0
M  V30 3393 H 334.822 2.48812 2.77753 0
M  V30 3394 N 337.007 -0.598083 1.45811 0
M  V30 3395 C 338.284 -1.35777 1.40797 0
M  V30 3396 C 338.664 -2.10935 0.083462 0
M  V30 3397 O 338.012 -2.08505 -0.934763 0
M  V30 3398 C 338.222 -2.29666 2.62783 0
M  V30 3399 C 339.57 -2.91977 3.08277 0
M  V30 3400 O 340.594 -2.39984 2.63223 0
M  V30 3401 O 339.453 -3.86376 3.86491 0
M  V30 3402 H 336.547 -0.609291 0.55919 0
M  V30 3403 H 339.093 -0.620379 1.57954 0
M  V30 3404 H 337.865 -1.73454 3.50756 0
M  V30 3405 H 337.488 -3.1077 2.48008 0
M  V30 3406 N 338.485 -1.33259 -0.841409 0
M  V30 3407 C 339.896 -1.22066 -1.41269 0
M  V30 3408 C 340.247 0.161479 -1.95534 0
M  V30 3409 O 339.372 1.06094 -1.88608 0
M  V30 3410 C 339.967 -2.20996 -2.568 0
M  V30 3411 C 338.526 -2.13649 -3.09888 0
M  V30 3412 C 337.673 -2.08623 -1.82679 0
M  V30 3413 H 340.624 -1.44895 -0.647395 0
M  V30 3414 H 340.645 -1.81621 -3.34356 0
M  V30 3415 H 340.157 -3.2158 -2.17274 0
M  V30 3416 H 338.258 -1.16359 -3.53965 0
M  V30 3417 H 338.371 -3.04079 -3.70234 0
M  V30 3418 H 336.735 -1.54061 -2.02824 0
M  V30 3419 H 337.518 -3.1101 -1.45353 0
M  V30 3420 N 339.963 1.05934 -1.16686 0
M  V30 3421 C 340.926 2.11669 -0.879144 0
M  V30 3422 C 341.926 1.60294 0.127445 0
M  V30 3423 O 343.116 1.7389 -0.103865 0
M  V30 3424 C 340.248 3.39438 -0.315425 0
M  V30 3425 H 341.441 2.38626 -1.81653 0
M  V30 3426 H 338.994 1.22058 -0.976299 0
M  V30 3427 H 339.729 3.18132 0.629468 0
M  V30 3428 H 339.514 3.78034 -1.04079 0
M  V30 3429 H 341.004 4.17391 -0.132189 0
M  V30 3430 N 341.441 0.965919 1.2453 0
M  V30 3431 C 342.687 0.637349 1.93156 0
M  V30 3432 C 343.042 -0.818261 1.74133 0
M  V30 3433 O 342.335 -1.58079 1.08266 0
M  V30 3434 C 342.529 0.945428 3.44669 0
M  V30 3435 C 342.358 2.42944 3.78429 0
M  V30 3436 C 341.128 3.08895 3.9989 0
M  V30 3437 C 343.326 3.40941 3.8505 0
M  V30 3438 N 341.308 4.47052 4.20735 0
M  V30 3439 C 342.679 4.64448 4.10717 0
M  V30 3440 C 344.734 3.35624 3.67779 0
M  V30 3441 C 343.437 5.83292 4.20907 0
M  V30 3442 C 345.463 4.53818 3.79214 0
M  V30 3443 C 344.825 5.76114 4.05304 0
M  V30 3444 H 340.924 0.284034 0.728594 0
M  V30 3445 H 343.508 1.24041 1.50073 0
M  V30 3446 H 341.679 0.371193 3.86622 0
M  V30 3447 H 343.411 0.575613 4.00586 0
M  V30 3448 H 340.166 2.59432 3.96222 0
M  V30 3449 H 340.59 5.18634 4.35141 0
M  V30 3450 H 345.232 2.4211 3.46616 0
M  V30 3451 H 342.95 6.77236 4.40883 0
M  V30 3452 H 346.536 4.51263 3.67224 0
M  V30 3453 H 345.416 6.66045 4.13949 0
M  V30 3454 N 342.919 -1.39368 0.735821 0
M  V30 3455 C 343.866 -2.30599 0.0963825 0
M  V30 3456 C 344.836 -1.49257 -0.728794 0
M  V30 3457 O 346.021 -1.77941 -0.688588 0
M  V30 3458 C 343.161 -3.35596 -0.804305 0
M  V30 3459 C 342.274 -4.31987 0.0335761 0
M  V30 3460 C 341.409 -5.24053 -0.868461 0
M  V30 3461 C 340.448 -6.12095 -0.0258776 0
M  V30 3462 N 339.585 -6.96514 -0.883893 0
M  V30 3463 H 344.425 -2.8471 0.880002 0
M  V30 3464 H 341.962 -1.40188 0.445619 0
M  V30 3465 H 343.92 -3.95062 -1.34096 0
M  V30 3466 H 342.55 -2.82938 -1.55389 0
M  V30 3467 H 341.602 -3.74133 0.68766 0
M  V30 3468 H 342.914 -4.94074 0.685036 0
M  V30 3469 H 342.068 -5.88549 -1.47293 0
M  V30 3470 H 340.807 -4.62289 -1.5537 0
M  V30 3471 H 339.812 -5.4661 0.591386 0
M  V30 3472 H 341.037 -6.75923 0.656156 0
M  V30 3473 H 338.983 -6.37318 -1.55441 0
M  V30 3474 H 338.9 -7.55448 -0.288931 0
M  V30 3475 H 340.168 -7.65439 -1.4739 0
M  V30 3476 N 344.397 -0.483516 -1.5 0
M  V30 3477 C 345.813 -0.138404 -1.58999 0
M  V30 3478 C 346.013 1.35597 -1.4905 0
M  V30 3479 O 345.069 2.13039 -1.35539 0
M  V30 3480 C 346.382 -0.699658 -2.92447 0
M  V30 3481 C 347.93 -0.664195 -3.05872 0
M  V30 3482 C 348.405 -1.20321 -4.41913 0
M  V30 3483 N 349.896 -1.16315 -4.48358 0
M  V30 3484 C 350.631 -1.55058 -5.52037 0
M  V30 3485 N 350.127 -2.01311 -6.62907 0
M  V30 3486 N 351.92 -1.46584 -5.42651 0
M  V30 3487 H 344.071 -1.45529 -1.5471 0
M  V30 3488 H 346.334 -0.60258 -0.731848 0
M  V30 3489 H 346.04 -1.747 -3.05242 0
M  V30 3490 H 345.914 -0.150194 -3.76901 0
M  V30 3491 H 348.301 0.374272 -2.92717 0
M  V30 3492 H 348.382 -1.25061 -2.23144 0
M  V30 3493 H 348.026 -2.24037 -4.55818 0
M  V30 3494 H 347.956 -0.592896 -5.23252 0
M  V30 3495 H 350.447 -0.824058 -3.68806 0
M  V30 3496 H 350.76 -2.2899 -7.38095 0
M  V30 3497 H 349.105 -2.05273 -6.63994 0
M  V30 3498 H 352.296 -1.10281 -4.54924 0
M  V30 3499 H 352.469 -1.77103 -6.23329 0
M  V30 3500 N 345.875 1.56104 -0.216619 0
M  V30 3501 C 346.823 2.21434 0.712036 0
M  V30 3502 C 347.817 1.19218 1.20348 0
M  V30 3503 O 349.023 1.3731 1.16387 0
M  V30 3504 H 345.398 0.70992 0.248026 0
M  V30 3505 H 347.369 2.98083 0.137558 0
M  V30 3506 C 346.118 2.90434 1.91163 0
M  V30 3507 H 345.441 3.68842 1.54258 0
M  V30 3508 H 346.881 3.39552 2.5393 0
M  V30 3509 C 345.34 1.92635 2.76394 0
M  V30 3510 O 345.87 1.44017 3.74996 0
M  V30 3511 N 344.076 1.60392 2.42328 0
M  V30 3512 H 343.623 2.00122 1.622 0
M  V30 3513 H 343.581 0.952159 2.99635 0
M  V30 3514 N 347.353 -0.0568162 1.57498 0
M  V30 3515 C 348.63 -0.786954 1.79071 0
M  V30 3516 C 349.01 -1.95028 0.80792 0
M  V30 3517 O 348.358 -2.27968 -0.155858 0
M  V30 3518 C 348.568 -1.24594 3.26002 0
M  V30 3519 C 349.916 -1.67323 3.90241 0
M  V30 3520 O 350.94 -1.34124 3.29984 0
M  V30 3521 O 349.799 -2.28842 4.9628 0
M  V30 3522 H 346.893 -0.378262 0.735423 0
M  V30 3523 H 349.439 -0.035734 1.69662 0
M  V30 3524 H 348.211 -0.41423 3.89101 0
M  V30 3525 H 347.834 -2.05803 3.40192 0
M  V30 3526 N 348.832 -1.54138 -0.328536 0
M  V30 3527 C 350.243 -1.63395 -0.903272 0
M  V30 3528 C 350.594 -0.524828 -1.8905 0
M  V30 3529 O 349.719 0.343068 -2.13663 0
M  V30 3530 C 350.314 -2.9618 -1.64507 0
M  V30 3531 C 348.873 -3.0765 -2.1686 0
M  V30 3532 C 348.02 -2.58933 -0.992416 0
M  V30 3533 H 350.971 -1.58344 -0.106253 0
M  V30 3534 H 350.992 -2.86061 -2.50897 0
M  V30 3535 H 350.504 -3.76884 -0.926302 0
M  V30 3536 H 348.605 -2.31611 -2.91868 0
M  V30 3537 H 348.718 -4.1337 -2.42202 0
M  V30 3538 H 347.082 -2.14706 -1.37016 0
M  V30 3539 H 347.865 -3.42089 -0.288041 0
M  V30 3540 N 350.31 0.590341 -1.46126 0
M  V30 3541 C 351.243 1.71434 -1.50617 0
M  V30 3542 C 352.221 1.58543 -0.360948 0
M  V30 3543 O 353.405 1.79865 -0.563985 0
M  V30 3544 C 350.532 3.09422 -1.37753 0
M  V30 3545 C 349.578 3.40854 -2.5636 0
M  V30 3546 S 350.411 3.33773 -4.18755 0
M  V30 3547 C 351.567 4.74312 -4.08386 0
M  V30 3548 H 351.8 1.67364 -2.45717 0
M  V30 3549 H 349.333 0.76845 -1.33919 0
M  V30 3550 H 351.291 3.8903 -1.31018 0
M  V30 3551 H 349.952 3.10989 -0.440949 0
M  V30 3552 H 349.145 4.41368 -2.43332 0
M  V30 3553 H 348.747 2.68798 -2.60046 0
M  V30 3554 H 351.039 5.64522 -3.74595 0
M  V30 3555 H 351.982 4.92397 -5.08872 0
M  V30 3556 H 352.39 4.50803 -3.3976 0
M  V30 3557 N 351.788 1.33704 0.83433 0
M  V30 3558 C 353.034 1.25603 1.59222 0
M  V30 3559 C 353.367 -0.176659 1.93395 0
M  V30 3560 O 352.642 -1.11915 1.59076 0
M  V30 3561 C 352.925 2.13576 2.89926 0
M  V30 3562 C 352.778 3.65326 2.62406 0
M  V30 3563 C 354.097 2.01238 3.91397 0
M  V30 3564 H 351.216 0.457613 0.577719 0
M  V30 3565 H 353.858 1.63848 0.961972 0
M  V30 3566 H 352.008 1.8109 3.43713 0
M  V30 3567 H 353.68 4.08124 2.15017 0
M  V30 3568 H 351.923 3.8698 1.96033 0
M  V30 3569 H 352.594 4.22232 3.55562 0
M  V30 3570 H 355.07 2.29738 3.46929 0
M  V30 3571 H 353.946 2.65036 4.80673 0
M  V30 3572 H 354.207 0.985951 4.30966 0
M  V30 3573 N 353.266 -1.05314 1.17247 0
M  V30 3574 C 354.198 -2.13023 0.845812 0
M  V30 3575 C 355.211 -1.62096 -0.151246 0
M  V30 3576 O 356.4 -1.78343 0.0748818 0
M  V30 3577 C 353.5 -3.38047 0.240292 0
M  V30 3578 C 352.673 -4.18255 1.27991 0
M  V30 3579 C 351.732 -5.21625 0.692375 0
M  V30 3580 O 350.758 -5.52619 1.36385 0
M  V30 3581 N 351.96 -5.78201 -0.516178 0
M  V30 3582 H 354.725 -2.41642 1.77283 0
M  V30 3583 H 352.286 -1.21401 1.07115 0
M  V30 3584 H 354.278 -4.04359 -0.16603 0
M  V30 3585 H 352.848 -3.06972 -0.590487 0
M  V30 3586 H 352.068 -3.47451 1.86203 0
M  V30 3587 H 353.356 -4.68643 1.98119 0
M  V30 3588 H 352.754 -5.55301 -1.07969 0
M  V30 3589 H 351.311 -6.4604 -0.86458 0
M  V30 3590 N 354.744 -0.972509 -1.24016 0
M  V30 3591 C 355.993 -0.632603 -1.91523 0
M  V30 3592 C 356.306 0.836641 -1.76804 0
M  V30 3593 O 357.512 1.28728 -2.39043 0
M  V30 3594 C 355.968 -1.08082 -3.43287 0
M  V30 3595 C 355.576 -2.57386 -3.66683 0
M  V30 3596 C 357.32 -0.814288 -4.16617 0
M  V30 3597 C 355.227 -2.95915 -5.12043 0
M  V30 3598 H 354.157 -0.232898 -0.717129 0
M  V30 3599 H 356.808 -1.17936 -1.40582 0
M  V30 3600 H 355.19 -0.462339 -3.93292 0
M  V30 3601 H 356.364 -3.24405 -3.27258 0
M  V30 3602 H 354.679 -2.81701 -3.06649 0
M  V30 3603 H 357.276 -1.0781 -5.23718 0
M  V30 3604 H 357.619 0.24955 -4.15551 0
M  V30 3605 H 358.152 -1.39397 -3.72577 0
M  V30 3606 H 354.891 -4.0139 -5.18234 0
M  V30 3607 H 354.411 -2.33584 -5.52448 0
M  V30 3608 H 356.09 -2.86086 -5.80314 0
M  V30 3609 N 356.222 1.38976 -0.743202 0
M  V30 3610 C 357.633 1.83123 -0.363732 0
M  V30 3611 C 357.984 1.6205 1.10609 0
M  V30 3612 O 357.109 1.11606 1.854 0
M  V30 3613 C 357.704 3.32439 -0.653408 0
M  V30 3614 C 356.263 3.74974 -0.327338 0
M  V30 3615 C 355.41 2.61878 -0.911875 0
M  V30 3616 H 358.361 1.27852 -0.940191 0
M  V30 3617 H 358.382 3.80432 0.0720031 0
M  V30 3618 H 357.894 3.47745 -1.72323 0
M  V30 3619 H 355.995 3.65252 0.736314 0
M  V30 3620 H 356.108 4.72106 -0.815631 0
M  V30 3621 H 354.472 2.52448 -0.337944 0
M  V30 3622 H 355.255 2.79987 -1.98651 0
M  V30 3623 N 357.7 0.491464 1.49741 0
M  V30 3624 C 359.116 0.146835 1.58923 0
M  V30 3625 C 359.316 -1.34804 1.49767 0
M  V30 3626 O 358.372 -2.12317 1.36667 0
M  V30 3627 C 359.685 0.715157 2.92072 0
M  V30 3628 C 361.233 0.680407 3.05515 0
M  V30 3629 C 361.708 1.22663 4.41269 0
M  V30 3630 N 363.199 1.18691 4.47735 0
M  V30 3631 C 363.934 1.57984 5.51207 0
M  V30 3632 N 363.43 2.04824 6.6183 0
M  V30 3633 N 365.223 1.49459 5.41866 0
M  V30 3634 H 357.374 1.46347 1.53936 0
M  V30 3635 H 359.637 0.606453 0.728642 0
M  V30 3636 H 359.343 1.76317 3.04311 0
M  V30 3637 H 359.217 0.17018 3.76816 0
M  V30 3638 H 361.604 -0.358743 2.92911 0
M  V30 3639 H 361.685 1.26242 2.22478 0
M  V30 3640 H 361.329 2.26451 4.54623 0
M  V30 3641 H 361.259 0.620637 5.2293 0
M  V30 3642 H 363.75 0.843605 3.68364 0
M  V30 3643 H 364.063 2.32901 7.3687 0
M  V30 3644 H 362.408 2.08791 6.62896 0
M  V30 3645 H 365.599 1.12692 4.54333 0
M  V30 3646 H 365.772 1.80406 6.22381 0
M  V30 3647 N 359.178 -1.55987 0.224894 0
M  V30 3648 C 360.108 -2.23426 -0.678457 0
M  V30 3649 C 361.089 -1.20709 -1.19847 0
M  V30 3650 O 362.274 -1.49304 -1.24186 0
M  V30 3651 C 359.404 -2.91676 -1.88527 0
M  V30 3652 C 358.358 -4.00893 -1.49896 0
M  V30 3653 C 357.684 -4.56455 -2.78483 0
M  V30 3654 C 358.984 -5.17769 -0.686461 0
M  V30 3655 H 360.678 -2.99175 -0.116173 0
M  V30 3656 H 358.224 -1.43897 -0.054436 0
M  V30 3657 H 360.177 -3.37547 -2.5227 0
M  V30 3658 H 358.901 -2.1338 -2.47258 0
M  V30 3659 H 357.56 -3.55758 -0.884985 0
M  V30 3660 H 357.208 -3.74886 -3.35365 0
M  V30 3661 H 356.908 -5.30169 -2.53368 0
M  V30 3662 H 358.432 -5.05047 -3.43162 0
M  V30 3663 H 359.846 -5.60001 -1.22767 0
M  V30 3664 H 358.243 -5.97735 -0.532259 0
M  V30 3665 H 359.313 -4.83932 0.306196 0
M  V30 3666 N 360.656 0.0484629 -1.57525 0
M  V30 3667 C 361.902 0.744226 -1.88651 0
M  V30 3668 C 362.235 1.76029 -0.820212 0
M  V30 3669 O 361.51 1.93782 0.166985 0
M  V30 3670 C 361.793 1.43128 -3.30434 0
M  V30 3671 C 361.646 0.43005 -4.47739 0
M  V30 3672 C 362.965 2.37031 -3.70816 0
M  V30 3673 H 360.084 0.269089 -0.68612 0
M  V30 3674 H 362.726 0.00713532 -1.89999 0
M  V30 3675 H 360.876 2.05956 -3.29415 0
M  V30 3676 H 362.548 -0.194816 -4.60888 0
M  V30 3677 H 360.791 -0.252522 -4.33064 0
M  V30 3678 H 361.462 0.948874 -5.43783 0
M  V30 3679 H 363.938 1.84263 -3.73077 0
M  V30 3680 H 362.814 2.82094 -4.70865 0
M  V30 3681 H 363.075 3.22864 -3.02012 0
M  V30 3682 N 362.134 1.5431 0.320358 0
M  V30 3683 C 363.097 1.83195 1.3774 0
M  V30 3684 C 364.097 0.703906 1.44575 0
M  V30 3685 O 365.287 0.972214 1.44546 0
M  V30 3686 C 362.419 1.99487 2.76438 0
M  V30 3687 H 363.612 2.77642 1.1338 0
M  V30 3688 H 361.165 1.46076 0.556012 0
M  V30 3689 H 361.9 1.07262 3.06048 0
M  V30 3690 H 361.685 2.81575 2.7287 0
M  V30 3691 H 363.175 2.23271 3.52902 0
M  V30 3692 N 363.613 -0.582584 1.46437 0
M  V30 3693 C 364.561 -1.71272 1.5738 0
M  V30 3694 C 365.555 -1.63524 0.44229 0
M  V30 3695 O 366.761 -1.69016 0.619166 0
M  V30 3696 H 363.136 -0.566273 0.494813 0
M  V30 3697 H 365.107 -1.59174 2.52401 0
M  V30 3698 C 363.856 -3.09658 1.58136 0
M  V30 3699 H 363.179 -3.16291 2.44541 0
M  V30 3700 H 364.619 -3.88494 1.69847 0
M  V30 3701 C 363.078 -3.3547 0.310026 0
M  V30 3702 O 363.608 -3.97199 -0.599683 0
M  V30 3703 N 361.814 -2.89925 0.197901 0
M  V30 3704 H 361.361 -2.39873 0.93909 0
M  V30 3705 H 361.319 -3.07568 -0.65185 0
M  V30 3706 N 365.091 -1.34144 -0.827227 0
M  V30 3707 C 366.039 -1.25364 -1.95925 0
M  V30 3708 C 367.033 -0.152608 -1.68711 0
M  V30 3709 O 368.239 -0.317311 -1.77181 0
M  V30 3710 H 364.614 -0.389342 -0.643364 0
M  V30 3711 H 366.585 -2.21045 -2.00454 0
M  V30 3712 C 365.334 -1.02158 -3.32354 0
M  V30 3713 H 364.657 -1.86111 -3.5384 0
M  V30 3714 H 366.097 -1.00048 -4.12027 0
M  V30 3715 C 364.556 0.275244 -3.35774 0
M  V30 3716 O 365.086 1.27806 -3.80826 0
M  V30 3717 N 363.292 0.306853 -2.88975 0
M  V30 3718 H 362.839 -0.509777 -2.52506 0
M  V30 3719 H 362.797 1.17432 -2.91646 0
M  V30 3720 N 366.569 1.04691 -1.17803 0
M  V30 3721 C 367.797 1.81446 -0.99423 0
M  V30 3722 C 368.212 1.83174 0.457459 0
M  V30 3723 O 367.569 1.26265 1.31771 0
M  V30 3724 C 367.62 3.27334 -1.5341 0
M  V30 3725 O 367.341 3.25798 -2.92895 0
M  V30 3726 C 368.842 4.20759 -1.39559 0
M  V30 3727 H 366.062 0.571599 -0.351447 0
M  V30 3728 H 368.606 1.31982 -1.56208 0
M  V30 3729 H 366.761 3.74052 -1.00815 0
M  V30 3730 H 367.175 4.17144 -3.17949 0
M  V30 3731 H 368.649 5.21084 -1.82141 0
M  V30 3732 H 369.126 4.37856 -0.343394 0
M  V30 3733 H 369.732 3.79901 -1.91195 0
M  V30 3734 N 368.047 0.979072 1.23499 0
M  V30 3735 C 369.463 0.687475 1.44034 0
M  V30 3736 C 369.663 -0.746801 1.8715 0
M  V30 3737 O 368.719 -1.51939 2.0167 0
M  V30 3738 C 370.032 1.68127 2.49307 0
M  V30 3739 C 371.58 1.69516 2.63122 0
M  V30 3740 C 372.055 2.67723 3.71603 0
M  V30 3741 N 373.546 2.66233 3.79044 0
M  V30 3742 C 374.281 3.38891 4.62537 0
M  V30 3743 N 373.777 4.21103 5.50131 0
M  V30 3744 N 375.57 3.27661 4.56721 0
M  V30 3745 H 367.721 1.90559 0.938135 0
M  V30 3746 H 369.984 0.821051 0.473897 0
M  V30 3747 H 369.69 2.70693 2.2454 0
M  V30 3748 H 369.564 1.46306 3.4767 0
M  V30 3749 H 371.951 0.676561 2.8724 0
M  V30 3750 H 372.032 1.95404 1.65079 0
M  V30 3751 H 371.676 3.69724 3.48233 0
M  V30 3752 H 371.606 2.39111 4.69184 0
M  V30 3753 H 374.097 2.06568 3.16446 0
M  V30 3754 H 374.41 4.73403 6.10827 0
M  V30 3755 H 372.755 4.25195 5.49759 0
M  V30 3756 H 375.946 2.62887 3.87309 0
M  V30 3757 H 376.119 3.84547 5.21562 0
M  V30 3758 N 369.525 -1.3858 0.750561 0
M  V30 3759 C 370.774 -1.99424 0.302172 0
M  V30 3760 C 371.087 -1.60254 -1.12152 0
M  V30 3761 O 372.293 -2.14046 -1.67023 0
M  V30 3762 C 370.749 -3.56558 0.489307 0
M  V30 3763 C 370.357 -4.04682 1.92189 0
M  V30 3764 C 372.101 -4.24374 0.103478 0
M  V30 3765 C 370.008 -5.54446 2.05775 0
M  V30 3766 H 368.938 -0.746046 0.10923 0
M  V30 3767 H 371.589 -1.58383 0.92667 0
M  V30 3768 H 369.971 -3.95472 -0.204329 0
M  V30 3769 H 371.145 -3.77065 2.64875 0
M  V30 3770 H 369.46 -3.4958 2.26236 0
M  V30 3771 H 372.057 -5.34384 0.183787 0
M  V30 3772 H 372.4 -4.05468 -0.943481 0
M  V30 3773 H 372.933 -3.90688 0.748854 0
M  V30 3774 H 369.672 -5.78252 3.08714 0
M  V30 3775 H 369.192 -5.83816 1.37546 0
M  V30 3776 H 370.871 -6.20099 1.84626 0
M  V30 3777 N 371.003 -0.499398 -1.49478 0
M  V30 3778 C 372.249 0.0377587 -2.03365 0
M  V30 3779 C 372.604 1.3484 -1.37244 0
M  V30 3780 O 371.897 1.85 -0.498547 0
M  V30 3781 C 372.091 0.248424 -3.56536 0
M  V30 3782 C 371.92 -1.04025 -4.37503 0
M  V30 3783 C 370.69 -1.59159 -4.79579 0
M  V30 3784 C 372.888 -1.9431 -4.76181 0
M  V30 3785 N 370.87 -2.82634 -5.44969 0
M  V30 3786 C 372.241 -3.02364 -5.41272 0
M  V30 3787 C 374.296 -1.95008 -4.58123 0
M  V30 3788 C 372.999 -4.1114 -5.90217 0
M  V30 3789 C 375.025 -3.02758 -5.08027 0
M  V30 3790 C 374.387 -4.09531 -5.73118 0
M  V30 3791 H 370.486 -0.026923 -0.781536 0
M  V30 3792 H 373.07 -0.673901 -1.82665 0
M  V30 3793 H 371.241 0.929139 -3.77123 0
M  V30 3794 H 372.973 0.782445 -3.97064 0
M  V30 3795 H 369.728 -1.13696 -4.5975 0
M  V30 3796 H 370.152 -3.45416 -5.82252 0
M  V30 3797 H 374.794 -1.13766 -4.07207 0
M  V30 3798 H 372.512 -4.93181 -6.40155 0
M  V30 3799 H 376.098 -3.04315 -4.95866 0
M  V30 3800 H 374.978 -4.91534 -6.11035 0
M  V30 3801 N 372.481 1.55866 -0.233164 0
M  V30 3802 C 373.727 1.98897 0.395959 0
M  V30 3803 C 374.06 1.12091 1.58585 0
M  V30 3804 O 373.335 0.181182 1.93654 0
M  V30 3805 C 373.618 3.50658 0.819224 0
M  V30 3806 C 373.471 4.48233 -0.375109 0
M  V30 3807 C 374.79 4.07135 1.67121 0
M  V30 3808 H 371.909 0.723102 0.142451 0
M  V30 3809 H 374.551 1.87082 -0.331725 0
M  V30 3810 H 372.701 3.60857 1.43925 0
M  V30 3811 H 374.373 4.50031 -1.01341 0
M  V30 3812 H 372.616 4.21624 -1.02058 0
M  V30 3813 H 373.287 5.51988 -0.0358328 0
M  V30 3814 H 375.763 3.99952 1.14795 0
M  V30 3815 H 374.639 5.13615 1.93625 0
M  V30 3816 H 374.9 3.54736 2.63846 0
M  V30 3817 N 373.959 -0.0401083 1.57549 0
M  V30 3818 C 375.189 -0.744115 1.92734 0
M  V30 3819 C 375.597 -1.70005 0.830348 0
M  V30 3820 O 374.94 -1.82576 -0.20286 0
M  V30 3821 C 375.002 -1.56516 3.2364 0
M  V30 3822 C 374.666 -0.7752 4.50377 0
M  V30 3823 C 375.663 -0.0803326 5.19838 0
M  V30 3824 C 373.348 -0.733002 4.96923 0
M  V30 3825 C 375.342 0.646154 6.34116 0
M  V30 3826 C 373.029 -0.00276321 6.111 0
M  V30 3827 C 374.027 0.685585 6.7955 0
M  V30 3828 O 373.715 1.40399 7.91545 0
M  V30 3829 H 373.447 -0.214861 0.640945 0
M  V30 3830 H 376.001 -0.00503675 2.05399 0
M  V30 3831 H 374.231 -2.3478 3.07271 0
M  V30 3832 H 375.92 -2.15076 3.44234 0
M  V30 3833 H 376.686 -0.104035 4.84888 0
M  V30 3834 H 372.565 -1.25827 4.43496 0
M  V30 3835 H 376.109 1.18398 6.87479 0
M  V30 3836 H 372.006 0.0229012 6.45496 0
M  V30 3837 H 372.774 1.31653 8.07843 0
M  V30 3838 N 375.437 -1.54477 -0.31217 0
M  V30 3839 C 376.677 -1.74958 -1.05684 0
M  V30 3840 C 377.041 -0.518414 -1.84869 0
M  V30 3841 O 378.242 -0.600759 -2.62001 0
M  V30 3842 C 376.513 -2.99656 -1.94785 0
M  V30 3843 S 378.072 -3.4109 -2.76049 0
M  V30 3844 H 374.89 -0.615104 -0.356606 0
M  V30 3845 H 377.492 -1.92669 -0.331514 0
M  V30 3846 H 376.196 -3.87397 -1.35468 0
M  V30 3847 H 375.727 -2.845 -2.71704 0
M  V30 3848 H 377.742 -2.97283 -3.97287 0
M  V30 3849 N 376.915 0.57481 -1.46744 0
M  V30 3850 C 378.163 1.33009 -1.52161 0
M  V30 3851 C 378.484 1.94185 -0.178092 0
M  V30 3852 O 377.754 1.7899 0.796196 0
M  V30 3853 H 376.334 0.493873 -0.560445 0
M  V30 3854 H 378.996 0.672589 -1.82927 0
M  V30 3855 H 378.092 2.13273 -2.27862 0
M  V30 3856 N 378.394 1.34581 0.820102 0
M  V30 3857 C 379.342 1.26401 1.95258 0
M  V30 3858 C 380.336 0.161553 1.68628 0
M  V30 3859 O 381.542 0.326703 1.7701 0
M  V30 3860 H 377.917 0.392749 0.64129 0
M  V30 3861 H 379.888 2.22105 1.99279 0
M  V30 3862 C 378.637 1.03919 3.31807 0
M  V30 3863 H 377.96 1.87984 3.52848 0
M  V30 3864 H 379.4 1.02232 4.11491 0
M  V30 3865 C 377.859 -0.257433 3.35915 0
M  V30 3866 O 378.389 -1.25784 3.81499 0
M  V30 3867 N 376.595 -0.291524 2.89134 0
M  V30 3868 H 376.142 0.523161 2.52232 0
M  V30 3869 H 376.1 -1.15883 2.92264 0
M  V30 3870 N 379.872 -1.04064 1.18357 0
M  V30 3871 C 381.12 -1.76915 0.977013 0
M  V30 3872 C 381.441 -1.88624 -0.494577 0
M  V30 3873 O 380.711 -1.41125 -1.3587 0
M  V30 3874 H 379.291 -0.65535 0.358504 0
M  V30 3875 H 381.953 -1.25592 1.49039 0
M  V30 3876 H 381.049 -2.78178 1.41504 0
M  V30 3877 N 381.35 -0.985608 -1.22978 0
M  V30 3878 C 382.578 -0.675582 -1.95559 0
M  V30 3879 C 382.993 0.758413 -1.72897 0
M  V30 3880 O 382.35 1.51094 -1.02357 0
M  V30 3881 C 382.401 -0.96293 -3.48439 0
M  V30 3882 O 382.122 -2.34057 -3.70336 0
M  V30 3883 C 383.623 -0.669585 -4.38214 0
M  V30 3884 H 380.843 -0.250523 -0.622478 0
M  V30 3885 H 383.387 -1.3184 -1.56328 0
M  V30 3886 H 381.542 -0.366033 -3.85667 0
M  V30 3887 H 381.956 -2.43424 -4.64591 0
M  V30 3888 H 383.43 -0.920967 -5.44263 0
M  V30 3889 H 383.907 0.396383 -4.37408 0
M  V30 3890 H 384.513 -1.2472 -4.06602 0
M  V30 3891 N 382.828 1.3818 -0.7579 0
M  V30 3892 C 384.239 1.82726 -0.383134 0
M  V30 3893 C 384.59 1.63214 1.08884 0
M  V30 3894 O 383.715 1.13566 1.84205 0
M  V30 3895 C 384.31 3.31728 -0.688631 0
M  V30 3896 C 382.869 3.74606 -0.367091 0
M  V30 3897 C 382.016 2.60896 -0.939599 0
M  V30 3898 H 384.967 1.26847 -0.953699 0
M  V30 3899 H 384.988 3.80487 0.0316492 0
M  V30 3900 H 384.5 3.45898 -1.76001 0
M  V30 3901 H 382.601 3.66013 0.697532 0
M  V30 3902 H 382.714 4.71215 -0.865658 0
M  V30 3903 H 381.078 2.52075 -0.3647 0
M  V30 3904 H 381.861 2.77864 -2.0161 0
M  V30 3905 N 384.306 0.507319 1.49211 0
M  V30 3906 C 385.531 -0.033725 2.07373 0
M  V30 3907 C 385.956 -1.29485 1.36437 0
M  V30 3908 O 385.314 -1.76294 0.423087 0
M  V30 3909 C 385.362 -0.263945 3.59633 0
M  V30 3910 O 384.466 -1.33737 3.90113 0
M  V30 3911 H 383.807 0.0290331 0.663365 0
M  V30 3912 H 386.337 0.708749 1.91932 0
M  V30 3913 H 386.347 -0.493536 4.05004 0
M  V30 3914 H 385.022 0.657424 4.10671 0
M  V30 3915 H 383.599 -1.09224 3.56545 0
M  V30 3916 N 385.784 -1.5574 0.241426 0
M  V30 3917 C 387.061 -1.90704 -0.434881 0
M  V30 3918 C 387.441 -1.16145 -1.76277 0
M  V30 3919 O 386.789 -0.277152 -2.26813 0
M  V30 3920 C 386.999 -3.43657 -0.608343 0
M  V30 3921 C 388.347 -4.14806 -0.906725 0
M  V30 3922 O 389.371 -3.49366 -0.694408 0
M  V30 3923 O 388.23 -5.30548 -1.31075 0
M  V30 3924 H 385.324 -0.793592 -0.23268 0
M  V30 3925 H 387.87 -1.67288 0.285086 0
M  V30 3926 H 386.642 -3.89927 0.327505 0
M  V30 3927 H 386.265 -3.72918 -1.37906 0
M  V30 3928 N 387.262 0.0317525 -1.57568 0
M  V30 3929 C 388.192 1.03274 -2.0942 0
M  V30 3930 C 389.173 1.3788 -0.996143 0
M  V30 3931 O 390.358 1.46811 -1.27122 0
M  V30 3932 C 387.488 2.33448 -2.57137 0
M  V30 3933 C 386.442 2.13091 -3.71182 0
M  V30 3934 C 385.768 3.49001 -4.05095 0
M  V30 3935 C 387.068 1.51928 -4.99715 0
M  V30 3936 H 388.762 0.60112 -2.93303 0
M  V30 3937 H 386.308 0.287705 -1.41097 0
M  V30 3938 H 388.261 3.03802 -2.92032 0
M  V30 3939 H 386.985 2.78665 -1.70333 0
M  V30 3940 H 385.644 1.45171 -3.36632 0
M  V30 3941 H 385.292 3.91862 -3.15362 0
M  V30 3942 H 384.992 3.36207 -4.81911 0
M  V30 3943 H 386.516 4.20721 -4.42522 0
M  V30 3944 H 387.93 2.12196 -5.32584 0
M  V30 3945 H 386.327 1.49716 -5.81124 0
M  V30 3946 H 387.397 0.484811 -4.8247 0
M  V30 3947 N 388.74 1.54641 0.303973 0
M  V30 3948 C 389.988 1.73437 1.0375 0
M  V30 3949 C 390.309 0.521449 1.87899 0
M  V30 3950 O 389.579 -0.46432 1.90318 0
M  V30 3951 H 388.159 0.639518 0.386039 0
M  V30 3952 H 390.821 1.91988 0.335675 0
M  V30 3953 H 389.917 2.62235 1.69231 0
M  V30 3954 N 390.218 -0.567019 1.47046 0
M  V30 3955 C 391.466 -1.322 1.52864 0
M  V30 3956 C 391.787 -1.94088 0.188388 0
M  V30 3957 O 391.057 -1.7941 -0.786693 0
M  V30 3958 H 389.637 -0.490894 0.563056 0
M  V30 3959 H 392.299 -0.662879 1.83281 0
M  V30 3960 H 391.395 -2.12062 2.2899 0
M  V30 3961 N 391.696 -1.35014 -0.812953 0
M  V30 3962 C 392.973 -1.18502 -1.55617 0
M  V30 3963 C 393.353 0.238421 -2.09749 0
M  V30 3964 O 392.701 1.2411 -1.91857 0
M  V30 3965 C 392.911 -2.24783 -2.66971 0
M  V30 3966 C 394.259 -2.60268 -3.35478 0
M  V30 3967 O 395.283 -2.23648 -2.77236 0
M  V30 3968 O 394.142 -3.2321 -4.40678 0
M  V30 3969 H 391.236 -0.459984 -0.687272 0
M  V30 3970 H 393.782 -1.46677 -0.853464 0
M  V30 3971 H 392.554 -3.20284 -2.24798 0
M  V30 3972 H 392.177 -1.97841 -3.44884 0
M  V30 3973 N 393.175 1.03435 -1.18907 0
M  V30 3974 C 394.123 2.13703 -0.918353 0
M  V30 3975 C 395.117 1.68947 0.123767 0
M  V30 3976 O 396.323 1.79983 -0.0249701 0
M  V30 3977 H 392.698 0.698112 -0.279542 0
M  V30 3978 H 394.669 2.33731 -1.85506 0
M  V30 3979 C 393.418 3.44542 -0.467532 0
M  V30 3980 H 392.741 3.79394 -1.26095 0
M  V30 3981 H 394.181 4.22812 -0.317164 0
M  V30 3982 C 392.64 3.26829 0.817588 0
M  V30 3983 O 393.17 3.54975 1.88031 0
M  V30 3984 N 391.376 2.80139 0.772677 0
M  V30 3985 H 390.923 2.57434 -0.0923883 0
M  V30 3986 H 390.881 2.68668 1.63294 0
M  V30 3987 N 394.653 0.992116 1.22453 0
M  V30 3988 C 395.902 0.662992 1.90492 0
M  V30 3989 C 396.215 -0.808407 1.78113 0
M  V30 3990 O 397.421 -1.24908 2.41061 0
M  V30 3991 C 395.877 1.1353 3.41524 0
M  V30 3992 C 395.485 2.63187 3.62542 0
M  V30 3993 C 397.229 0.880465 4.15269 0
M  V30 3994 C 395.136 3.04024 5.0727 0
M  V30 3995 H 394.066 0.244278 0.713333 0
M  V30 3996 H 396.717 1.20157 1.38688 0
M  V30 3997 H 395.099 0.52485 3.92506 0
M  V30 3998 H 396.273 3.2957 3.22056 0
M  V30 3999 H 394.588 2.86543 3.02129 0
M  V30 4000 H 397.185 1.16128 5.21937 0
M  V30 4001 H 397.528 -0.183408 4.15896 0
M  V30 4002 H 398.061 1.45307 3.70312 0
M  V30 4003 H 394.8 4.09584 5.11782 0
M  V30 4004 H 394.32 2.42343 5.48662 0
M  V30 4005 H 395.999 2.95282 5.75689 0
M  V30 4006 N 396.131 -1.37776 0.765217 0
M  V30 4007 C 397.542 -1.82521 0.392819 0
M  V30 4008 C 397.893 -1.63789 -1.08017 0
M  V30 4009 O 397.018 -1.14542 -1.83601 0
M  V30 4010 C 397.613 -3.31358 0.706214 0
M  V30 4011 C 396.172 -3.74406 0.386952 0
M  V30 4012 C 395.319 -2.60394 0.953422 0
M  V30 4013 H 398.27 -1.2634 0.960412 0
M  V30 4014 H 398.291 -3.80498 -0.0114706 0
M  V30 4015 H 397.803 -3.44959 1.77833 0
M  V30 4016 H 395.904 -3.66377 -0.678112 0
M  V30 4017 H 396.017 -4.70749 0.890636 0
M  V30 4018 H 394.381 -2.51878 0.378064 0
M  V30 4019 H 395.164 -2.76791 2.03081 0
M  V30 4020 N 397.609 -0.515225 -1.4894 0
M  V30 4021 C 398.572 0.244681 -2.2789 0
M  V30 4022 C 399.572 0.881166 -1.34507 0
M  V30 4023 O 400.762 0.743497 -1.57537 0
M  V30 4024 C 397.894 1.35247 -3.12923 0
M  V30 4025 H 399.087 -0.448289 -2.96531 0
M  V30 4026 H 396.64 -0.270656 -1.53939 0
M  V30 4027 H 397.375 2.07916 -2.48881 0
M  V30 4028 H 397.16 0.901374 -3.81599 0
M  V30 4029 H 398.65 1.88737 -3.72516 0
M  V30 4030 N 399.087 1.5561 -0.249682 0
M  V30 4031 C 400.034 2.21496 0.648694 0
M  V30 4032 C 401.004 1.17977 1.16921 0
M  V30 4033 O 402.189 1.46434 1.22318 0
M  V30 4034 C 399.329 2.92039 1.83868 0
M  V30 4035 C 398.442 4.10219 1.35442 0
M  V30 4036 C 397.577 4.6847 2.50419 0
M  V30 4037 C 396.616 5.78893 1.98869 0
M  V30 4038 N 395.753 6.31315 3.07223 0
M  V30 4039 H 400.593 2.97892 0.0801582 0
M  V30 4040 H 398.13 1.47074 0.0278031 0
M  V30 4041 H 400.088 3.31138 2.53778 0
M  V30 4042 H 398.718 2.18111 2.37965 0
M  V30 4043 H 397.77 3.76413 0.54928 0
M  V30 4044 H 399.082 4.89927 0.936649 0
M  V30 4045 H 398.236 5.10158 3.28366 0
M  V30 4046 H 396.975 3.87984 2.95499 0
M  V30 4047 H 395.98 5.3668 1.19393 0
M  V30 4048 H 397.205 6.61232 1.54755 0
M  V30 4049 H 395.151 5.53733 3.51732 0
M  V30 4050 H 395.068 7.06224 2.69784 0
M  V30 4051 H 396.336 6.77662 3.8522 0
M  V30 4052 N 400.565 -0.0233959 1.57583 0
M  V30 4053 C 401.812 -0.713063 1.8953 0
M  V30 4054 C 402.14 -1.75056 0.847673 0
M  V30 4055 O 401.395 -1.95119 -0.150636 0
M  V30 4056 C 401.694 -1.41428 3.28227 0
M  V30 4057 C 401.36 -0.512222 4.47981 0
M  V30 4058 C 400.022 -0.263785 4.80476 0
M  V30 4059 C 402.374 0.110248 5.21083 0
M  V30 4060 C 399.702 0.615804 5.83459 0
M  V30 4061 C 402.054 0.977573 6.25001 0
M  V30 4062 C 400.718 1.23542 6.55968 0
M  V30 4063 H 399.988 -0.260928 0.69354 0
M  V30 4064 H 402.635 0.0271047 1.91481 0
M  V30 4065 H 400.94 -2.22791 3.22291 0
M  V30 4066 H 402.637 -1.95355 3.50196 0
M  V30 4067 H 399.227 -0.716013 4.22577 0
M  V30 4068 H 403.411 -0.0687137 4.96252 0
M  V30 4069 H 398.667 0.82382 6.05824 0
M  V30 4070 H 402.841 1.46638 6.80786 0
M  V30 4071 H 400.468 1.91871 7.35588 0
M  V30 4072 N 402.043 -1.548 -0.295768 0
M  V30 4073 C 402.973 -1.89115 -1.36959 0
M  V30 4074 C 403.954 -0.75059 -1.52644 0
M  V30 4075 O 405.139 -1.00678 -1.66065 0
M  V30 4076 C 402.269 -2.14307 -2.73295 0
M  V30 4077 C 401.223 -3.30151 -2.72368 0
M  V30 4078 C 400.549 -3.40772 -4.12042 0
M  V30 4079 C 401.849 -4.67126 -2.33646 0
M  V30 4080 H 403.543 -2.79053 -1.08488 0
M  V30 4081 H 401.089 -1.34266 -0.520443 0
M  V30 4082 H 403.042 -2.36898 -3.48507 0
M  V30 4083 H 401.766 -1.21145 -3.03301 0
M  V30 4084 H 400.425 -3.0749 -1.99613 0
M  V30 4085 H 400.073 -2.45117 -4.39234 0
M  V30 4086 H 399.773 -4.18645 -4.12322 0
M  V30 4087 H 401.297 -3.6563 -4.89027 0
M  V30 4088 H 402.711 -4.89414 -2.98575 0
M  V30 4089 H 401.108 -5.47751 -2.45129 0
M  V30 4090 H 402.178 -4.67489 -1.28772 0
M  V30 4091 N 403.521 0.559213 -1.47345 0
M  V30 4092 C 404.431 1.69388 -1.62311 0
M  V30 4093 C 405.447 1.6648 -0.505993 0
M  V30 4094 O 406.623 1.85964 -0.773262 0
M  V30 4095 C 403.688 3.05894 -1.63185 0
M  V30 4096 C 402.749 3.19885 -2.86307 0
M  V30 4097 C 401.982 4.49879 -2.87131 0
M  V30 4098 O 402.205 5.35217 -1.97229 0
M  V30 4099 O 401.139 4.67618 -3.78968 0
M  V30 4100 H 404.965 1.59706 -2.58317 0
M  V30 4101 H 402.55 0.728989 -1.30407 0
M  V30 4102 H 404.432 3.87133 -1.66451 0
M  V30 4103 H 403.107 3.15964 -0.70345 0
M  V30 4104 H 402.014 2.38052 -2.88587 0
M  V30 4105 H 403.347 3.14718 -3.78435 0
M  V30 4106 N 404.999 1.35443 0.805782 0
M  V30 4107 C 406.247 1.28507 1.55982 0
M  V30 4108 C 406.568 -0.140046 1.94496 0
M  V30 4109 O 405.838 -1.07666 1.63661 0
M  V30 4110 H 404.418 0.472676 0.578434 0
M  V30 4111 H 407.08 1.69555 0.961098 0
M  V30 4112 H 406.176 1.90148 2.47488 0
M  V30 4113 N 406.477 -1.02803 1.19454 0
M  V30 4114 C 407.407 -2.12999 0.956758 0
M  V30 4115 C 408.388 -1.69743 -0.110188 0
M  V30 4116 O 409.573 -1.94148 0.0450038 0
M  V30 4117 C 406.703 -3.43746 0.495553 0
M  V30 4118 C 405.657 -4.00688 1.50443 0
M  V30 4119 C 404.983 -5.27067 0.900275 0
M  V30 4120 C 406.283 -4.35397 2.8849 0
M  V30 4121 H 407.977 -2.33148 1.87836 0
M  V30 4122 H 405.523 -1.12045 0.904539 0
M  V30 4123 H 407.476 -4.2021 0.316493 0
M  V30 4124 H 406.2 -3.23321 -0.461646 0
M  V30 4125 H 404.859 -3.2632 1.67065 0
M  V30 4126 H 404.507 -5.02959 -0.064503 0
M  V30 4127 H 404.207 -5.66127 1.57397 0
M  V30 4128 H 405.731 -6.06196 0.73203 0
M  V30 4129 H 407.145 -5.02795 2.75446 0
M  V30 4130 H 405.542 -4.85541 3.52661 0
M  V30 4131 H 406.612 -3.44662 3.41081 0
M  V30 4132 N 407.956 -0.998596 -1.21925 0
M  V30 4133 C 409.184 -0.696286 -1.94832 0
M  V30 4134 C 409.599 0.740032 -1.73692 0
M  V30 4135 O 408.956 1.5 -1.03953 0
M  V30 4136 C 409.007 -0.999833 -3.47398 0
M  V30 4137 O 408.728 -2.37972 -3.67833 0
M  V30 4138 C 410.229 -0.716025 -4.37479 0
M  V30 4139 H 407.449 -0.257111 -0.619786 0
M  V30 4140 H 409.993 -1.33491 -1.54921 0
M  V30 4141 H 408.148 -0.406918 -3.85257 0
M  V30 4142 H 408.562 -2.48338 -4.61983 0
M  V30 4143 H 410.036 -0.978642 -5.43256 0
M  V30 4144 H 410.513 0.349968 -4.37803 0
M  V30 4145 H 411.119 -1.29025 -4.05256 0
M  V30 4146 N 409.434 1.37368 -0.772513 0
M  V30 4147 C 410.364 2.32856 -0.173304 0
M  V30 4148 C 411.345 1.55818 0.682262 0
M  V30 4149 O 412.53 1.84052 0.619566 0
M  V30 4150 C 409.66 3.40048 0.706007 0
M  V30 4151 C 408.614 4.27973 -0.0483144 0
M  V30 4152 C 407.94 5.26184 0.950491 0
M  V30 4153 C 409.24 5.07665 -1.22776 0
M  V30 4154 H 410.934 2.83217 -0.971002 0
M  V30 4155 H 408.48 1.3617 -0.468377 0
M  V30 4156 H 410.433 4.05827 1.13501 0
M  V30 4157 H 409.157 2.88214 1.53623 0
M  V30 4158 H 407.816 3.63726 -0.458107 0
M  V30 4159 H 407.464 4.7063 1.77529 0
M  V30 4160 H 407.164 5.85872 0.450314 0
M  V30 4161 H 408.688 5.94838 1.37842 0
M  V30 4162 H 410.102 5.66578 -0.875366 0
M  V30 4163 H 408.499 5.76681 -1.66007 0
M  V30 4164 H 409.569 4.40294 -2.03149 0
M  V30 4165 N 410.912 0.523116 1.48665 0
M  V30 4166 C 412.328 0.180511 1.58576 0
M  V30 4167 C 412.528 -1.31597 1.52592 0
M  V30 4168 O 411.584 -2.0937 1.4114 0
M  V30 4169 C 412.897 0.776949 2.90489 0
M  V30 4170 C 414.445 0.745058 3.04003 0
M  V30 4171 C 414.92 1.31995 4.38567 0
M  V30 4172 N 416.411 1.28162 4.45117 0
M  V30 4173 C 417.146 1.6964 5.47731 0
M  V30 4174 N 416.642 2.18816 6.57337 0
M  V30 4175 N 418.435 1.6092 5.38573 0
M  V30 4176 H 410.586 1.4958 1.50797 0
M  V30 4177 H 412.849 0.621772 0.715614 0
M  V30 4178 H 412.555 1.82732 3.00503 0
M  V30 4179 H 412.429 0.25007 3.7637 0
M  V30 4180 H 414.816 -0.296532 2.93606 0
M  V30 4181 H 414.897 1.30933 2.1975 0
M  V30 4182 H 414.541 2.36043 4.49718 0
M  V30 4183 H 414.471 0.731418 5.21496 0
M  V30 4184 H 416.962 0.92155 3.66491 0
M  V30 4185 H 417.275 2.48478 7.31764 0
M  V30 4186 H 415.62 2.22805 6.58318 0
M  V30 4187 H 418.811 1.22304 4.5184 0
M  V30 4188 H 418.984 1.93567 6.18414 0
M  V30 4189 N 412.39 -1.55475 0.257931 0
M  V30 4190 C 413.618 -2.03609 -0.367559 0
M  V30 4191 C 414.033 -1.13687 -1.50734 0
M  V30 4192 O 413.39 -0.153479 -1.81853 0
M  V30 4193 C 413.441 -3.51001 -0.864908 0
M  V30 4194 O 413.162 -4.37499 0.229465 0
M  V30 4195 C 414.663 -4.14946 -1.55997 0
M  V30 4196 H 411.883 -0.665459 -0.0860521 0
M  V30 4197 H 414.427 -2.00843 0.385014 0
M  V30 4198 H 412.582 -3.54266 -1.56762 0
M  V30 4199 H 412.996 -5.24286 -0.14998 0
M  V30 4200 H 414.47 -5.19735 -1.85956 0
M  V30 4201 H 414.947 -3.6209 -2.4857 0
M  V30 4202 H 415.553 -4.15635 -0.901543 0
M  V30 4203 N 413.868 0.0150385 -1.57593 0
M  V30 4204 C 414.816 1.02958 -2.08572 0
M  V30 4205 C 415.81 1.36554 -1.00246 0
M  V30 4206 O 417.016 1.35295 -1.18724 0
M  V30 4207 H 413.391 0.349619 -0.665786 0
M  V30 4208 H 415.362 0.573932 -2.92829 0
M  V30 4209 C 414.111 2.31752 -2.59203 0
M  V30 4210 H 413.434 2.06765 -3.42182 0
M  V30 4211 H 414.874 3.01053 -2.98568 0
M  V30 4212 C 413.333 3.01692 -1.49945 0
M  V30 4213 O 413.863 3.92083 -0.873704 0
M  V30 4214 N 412.069 2.6326 -1.23056 0
M  V30 4215 H 411.616 1.89838 -1.74125 0
M  V30 4216 H 411.574 3.10372 -0.501685 0
M  V30 4217 N 415.346 1.54954 0.287554 0
M  V30 4218 C 416.278 1.83224 1.37701 0
M  V30 4219 C 417.291 0.715898 1.46215 0
M  V30 4220 O 418.48 0.993565 1.48292 0
M  V30 4221 C 415.58 1.96723 2.75959 0
M  V30 4222 C 414.753 3.27253 2.90215 0
M  V30 4223 C 413.812 3.30998 4.09056 0
M  V30 4224 O 412.838 4.04457 4.00503 0
M  V30 4225 N 414.04 2.57353 5.20336 0
M  V30 4226 H 416.805 2.77254 1.138 0
M  V30 4227 H 414.366 1.54694 0.477652 0
M  V30 4228 H 416.358 1.96615 3.5373 0
M  V30 4229 H 414.928 1.09626 2.92747 0
M  V30 4230 H 414.148 3.40022 1.99447 0
M  V30 4231 H 415.436 4.13365 2.96659 0
M  V30 4232 H 414.834 1.97327 5.30169 0
M  V30 4233 H 413.391 2.62984 5.96391 0
M  V30 4234 N 416.824 -0.551391 1.4764 0
M  V30 4235 C 418.052 -1.33357 1.58189 0
M  V30 4236 C 418.467 -1.87342 0.234199 0
M  V30 4237 O 417.824 -1.65301 -0.77343 0
M  V30 4238 C 417.875 -2.49942 2.61173 0
M  V30 4239 O 417.596 -1.98187 3.90709 0
M  V30 4240 C 419.097 -3.42072 2.8196 0
M  V30 4241 H 416.317 -0.40631 0.533998 0
M  V30 4242 H 418.861 -0.667367 1.93304 0
M  V30 4243 H 417.016 -3.12489 2.28975 0
M  V30 4244 H 417.43 -2.74342 4.47031 0
M  V30 4245 H 418.904 -4.20278 3.57869 0
M  V30 4246 H 419.381 -3.95978 1.89995 0
M  V30 4247 H 419.987 -2.85336 3.15378 0
M  V30 4248 N 418.302 -1.35869 -0.798587 0
M  V30 4249 C 419.549 -1.29588 -1.55606 0
M  V30 4250 C 419.877 0.127456 -1.94082 0
M  V30 4251 O 419.132 1.09461 -1.62225 0
M  V30 4252 C 419.431 -2.1556 -2.85077 0
M  V30 4253 C 419.097 -3.6424 -2.65781 0
M  V30 4254 C 417.759 -4.04766 -2.60227 0
M  V30 4255 C 420.111 -4.58547 -2.47758 0
M  V30 4256 C 417.439 -5.37753 -2.34603 0
M  V30 4257 C 419.791 -5.91742 -2.23662 0
M  V30 4258 C 418.455 -6.31402 -2.16534 0
M  V30 4259 H 417.725 -0.474197 -0.569402 0
M  V30 4260 H 420.372 -1.67839 -0.922086 0
M  V30 4261 H 418.677 -1.70216 -3.52893 0
M  V30 4262 H 420.374 -2.08031 -3.42818 0
M  V30 4263 H 416.964 -3.32086 -2.70956 0
M  V30 4264 H 421.148 -4.28117 -2.51056 0
M  V30 4265 H 416.404 -5.67474 -2.2756 0
M  V30 4266 H 420.578 -6.6439 -2.08708 0
M  V30 4267 H 418.205 -7.34381 -1.96441 0
M  V30 4268 N 419.78 1.02168 -1.19998 0
M  V30 4269 C 421.196 1.27969 -0.953737 0
M  V30 4270 C 421.396 1.98079 0.369703 0
M  V30 4271 O 420.452 2.27306 1.09947 0
M  V30 4272 C 421.765 2.11971 -2.13281 0
M  V30 4273 C 423.313 2.25255 -2.17323 0
M  V30 4274 C 423.788 3.12632 -3.34702 0
M  V30 4275 N 425.279 3.2022 -3.34684 0
M  V30 4276 C 426.014 3.88039 -4.22153 0
M  V30 4277 N 425.51 4.58027 -5.19791 0
M  V30 4278 N 427.303 3.84511 -4.10009 0
M  V30 4279 H 419.454 0.550794 -2.05134 0
M  V30 4280 H 421.717 0.305683 -0.897364 0
M  V30 4281 H 421.423 1.67785 -3.09097 0
M  V30 4282 H 421.297 3.12699 -2.10949 0
M  V30 4283 H 423.684 2.68667 -1.22073 0
M  V30 4284 H 423.765 1.24053 -2.23706 0
M  V30 4285 H 423.409 2.69926 -4.30235 0
M  V30 4286 H 423.339 4.13909 -3.25556 0
M  V30 4287 H 425.83 2.70382 -2.64012 0
M  V30 4288 H 426.143 5.07429 -5.82868 0
M  V30 4289 H 424.488 4.56869 -5.23733 0
M  V30 4290 H 427.679 3.28978 -3.33003 0
M  V30 4291 H 427.852 4.3709 -4.78389 0
M  V30 4292 N 421.258 1.00505 1.21394 0
M  V30 4293 C 422.535 0.603277 1.86064 0
M  V30 4294 C 422.915 -0.919095 1.90042 0
M  V30 4295 O 422.263 -1.80607 1.39977 0
M  V30 4296 C 422.473 1.23772 3.26315 0
M  V30 4297 C 423.821 1.34586 4.02705 0
M  V30 4298 O 424.845 1.19304 3.35626 0
M  V30 4299 O 423.704 1.59169 5.22807 0
M  V30 4300 H 420.798 0.206634 0.800769 0
M  V30 4301 H 423.344 1.1017 1.29076 0
M  V30 4302 H 422.116 2.27848 3.18121 0
M  V30 4303 H 421.739 0.725648 3.90922 0
M  V30 4304 N 422.737 -1.36956 0.779787 0
M  V30 4305 C 423.965 -2.03755 0.359398 0
M  V30 4306 C 424.38 -1.58807 -1.02106 0
M  V30 4307 O 423.737 -0.773024 -1.6532 0
M  V30 4308 C 423.788 -3.59251 0.402568 0
M  V30 4309 O 423.509 -4.02557 1.72858 0
M  V30 4310 C 425.01 -4.43291 -0.0284068 0
M  V30 4311 H 422.23 -0.654148 0.149437 0
M  V30 4312 H 424.774 -1.75128 1.05595 0
M  V30 4313 H 422.929 -3.86621 -0.245478 0
M  V30 4314 H 423.343 -4.97111 1.67275 0
M  V30 4315 H 424.817 -5.51975 0.0529466 0
M  V30 4316 H 425.294 -4.25719 -1.07982 0
M  V30 4317 H 425.9 -4.21163 0.591758 0
M  V30 4318 N 424.215 -0.530993 -1.48385 0
M  V30 4319 C 425.445 -0.00133928 -2.066 0
M  V30 4320 C 425.853 1.28599 -1.38777 0
M  V30 4321 O 425.196 1.77599 -0.469495 0
M  V30 4322 C 425.258 0.292137 -3.58311 0
M  V30 4323 C 424.922 -0.901864 -4.48013 0
M  V30 4324 C 425.919 -1.80053 -4.87726 0
M  V30 4325 C 423.604 -1.10915 -4.89901 0
M  V30 4326 C 425.598 -2.89038 -5.68098 0
M  V30 4327 C 423.285 -2.20213 -5.70043 0
M  V30 4328 C 424.283 -3.09107 -6.0905 0
M  V30 4329 O 423.971 -4.16514 -6.87583 0
M  V30 4330 H 423.703 -0.0308475 -0.675296 0
M  V30 4331 H 426.257 -0.736335 -1.91748 0
M  V30 4332 H 424.487 1.08112 -3.7128 0
M  V30 4333 H 426.176 0.763994 -3.98645 0
M  V30 4334 H 426.942 -1.65234 -4.55986 0
M  V30 4335 H 422.821 -0.426498 -4.59023 0
M  V30 4336 H 426.365 -3.58451 -5.98464 0
M  V30 4337 H 422.262 -2.35016 -6.01197 0
M  V30 4338 H 423.03 -4.14237 -7.05939 0
M  V30 4339 N 425.693 1.55336 -0.266172 0
M  V30 4340 C 426.656 2.20878 0.612001 0
M  V30 4341 C 427.656 1.18388 1.08816 0
M  V30 4342 O 428.846 1.4335 0.989774 0
M  V30 4343 C 425.978 2.86765 1.84332 0
M  V30 4344 H 427.171 2.99873 0.0398718 0
M  V30 4345 H 424.724 1.56291 -0.0167309 0
M  V30 4346 H 425.459 2.11759 2.45619 0
M  V30 4347 H 425.244 3.61862 1.5099 0
M  V30 4348 H 426.734 3.36867 2.46801 0
M  V30 4349 N 427.171 -0.0066808 1.57599 0
M  V30 4350 C 428.134 -0.985035 2.06953 0
M  V30 4351 C 429.134 -1.27663 0.977687 0
M  V30 4352 O 430.324 -1.22293 1.24057 0
M  V30 4353 C 427.456 -2.3118 2.50536 0
M  V30 4354 H 428.649 -0.558255 2.94658 0
M  V30 4355 H 426.202 -0.254011 1.54222 0
M  V30 4356 H 426.937 -2.78561 1.66054 0
M  V30 4357 H 426.722 -2.11338 3.3027 0
M  V30 4358 H 428.212 -3.01377 2.8907 0
M  V30 4359 N 428.649 -1.55105 -0.279332 0
M  V30 4360 C 429.926 -1.66119 -1.03267 0
M  V30 4361 C 430.306 -0.523525 -2.04505 0
M  V30 4362 O 429.654 0.477194 -2.23462 0
M  V30 4363 C 429.864 -3.05067 -1.69515 0
M  V30 4364 C 431.212 -3.62606 -2.20912 0
M  V30 4365 O 432.236 -3.07659 -1.79512 0
M  V30 4366 O 431.095 -4.58861 -2.96831 0
M  V30 4367 H 428.189 -0.674429 -0.478618 0
M  V30 4368 H 430.735 -1.67446 -0.275694 0
M  V30 4369 H 429.507 -3.79311 -0.9612 0
M  V30 4370 H 429.13 -3.07611 -2.51915 0
M  V30 4371 N 430.127 0.543554 -1.4793 0
M  V30 4372 C 431.375 1.29752 -1.54948 0
M  V30 4373 C 431.696 1.93764 -0.219242 0
M  V30 4374 O 430.966 1.80639 0.75805 0
M  V30 4375 H 429.546 0.481874 -0.570795 0
M  V30 4376 H 432.208 0.633636 -1.84312 0
M  V30 4377 H 431.304 2.08392 -2.32334 0
M  V30 4378 N 431.605 1.3629 0.791371 0
M  V30 4379 C 432.853 1.30154 1.5461 0
M  V30 4380 C 433.174 -0.119409 1.94634 0
M  V30 4381 O 432.444 -1.05924 1.64794 0
M  V30 4382 H 431.024 0.478784 0.573389 0
M  V30 4383 H 433.686 1.70565 0.94306 0
M  V30 4384 H 432.782 1.92762 2.45457 0
M  V30 4385 N 433.083 -1.0153 1.20538 0
M  V30 4386 C 434.499 -1.27461 0.96051 0
M  V30 4387 C 434.699 -1.98273 -0.359193 0
M  V30 4388 O 433.755 -2.27886 -1.0874 0
M  V30 4389 C 435.068 -2.10837 2.14402 0
M  V30 4390 C 436.616 -2.24099 2.18515 0
M  V30 4391 C 437.091 -3.10852 3.36355 0
M  V30 4392 N 438.582 -3.18441 3.36377 0
M  V30 4393 C 439.317 -3.85795 4.24205 0
M  V30 4394 N 438.813 -4.55264 5.22213 0
M  V30 4395 N 440.606 -3.82331 4.12043 0
M  V30 4396 H 432.757 -0.539907 2.05423 0
M  V30 4397 H 435.02 -0.30092 0.898972 0
M  V30 4398 H 434.726 -1.66144 3.09983 0
M  V30 4399 H 434.6 -3.11576 2.12604 0
M  V30 4400 H 436.987 -2.68016 1.23497 0
M  V30 4401 H 437.068 -1.22865 2.24361 0
M  V30 4402 H 436.712 -2.6764 4.31661 0
M  V30 4403 H 436.642 -4.12177 3.27746 0
M  V30 4404 H 439.133 -2.68978 2.65442 0
M  V30 4405 H 439.446 -5.04331 5.85551 0
M  V30 4406 H 437.791 -4.54085 5.26148 0
M  V30 4407 H 440.982 -3.27207 3.34743 0
M  V30 4408 H 441.155 -4.34547 4.807 0
M  V30 4409 N 434.561 -1.01147 -1.20859 0
M  V30 4410 C 435.509 -0.57059 -2.25493 0
M  V30 4411 C 436.503 0.388109 -1.64894 0
M  V30 4412 O 437.709 0.258592 -1.78133 0
M  V30 4413 H 434.084 -0.166191 -0.733406 0
M  V30 4414 H 436.055 -1.46411 -2.60012 0
M  V30 4415 C 434.804 0.0805241 -3.47607 0
M  V30 4416 H 434.127 -0.648156 -3.94511 0
M  V30 4417 H 435.567 0.352197 -4.22535 0
M  V30 4418 C 434.026 1.32175 -3.09889 0
M  V30 4419 O 434.556 2.41553 -3.20959 0
M  V30 4420 N 432.762 1.20392 -2.64488 0
M  V30 4421 H 432.309 0.313905 -2.5568 0
M  V30 4422 H 432.267 2.03541 -2.39621 0
M  V30 4423 N 436.039 1.36541 -0.78704 0
M  V30 4424 C 437.287 1.98911 -0.357633 0
M  V30 4425 C 437.608 1.62778 1.07371 0
M  V30 4426 O 436.878 0.900612 1.73971 0
M  V30 4427 H 435.458 0.735734 -0.129246 0
M  V30 4428 H 438.12 1.66776 -1.00855 0
M  V30 4429 H 437.216 3.08874 -0.447549 0
M  V30 4430 N 437.518 0.538854 1.48102 0
M  V30 4431 C 438.764 0.00801365 2.02798 0
M  V30 4432 C 439.097 -1.3309 1.41424 0
M  V30 4433 O 438.372 -1.86169 0.563158 0
M  V30 4434 C 438.655 -0.104589 3.59948 0
M  V30 4435 C 438.508 1.26012 4.31788 0
M  V30 4436 C 439.827 -0.827055 4.32259 0
M  V30 4437 H 436.946 0.00438624 0.736987 0
M  V30 4438 H 439.588 0.6976 1.7673 0
M  V30 4439 H 437.738 -0.691893 3.82289 0
M  V30 4440 H 439.41 1.88922 4.2084 0
M  V30 4441 H 437.653 1.83968 3.92859 0
M  V30 4442 H 438.324 1.13424 5.40221 0
M  V30 4443 H 440.8 -0.328578 4.14801 0
M  V30 4444 H 439.676 -0.87476 5.41885 0
M  V30 4445 H 439.937 -1.87927 4.0017 0
M  V30 4446 N 438.996 -1.55193 0.274407 0
M  V30 4447 C 440.243 -1.99581 -0.342579 0
M  V30 4448 C 440.571 -1.1628 -1.55914 0
M  V30 4449 O 439.826 -0.22029 -1.94456 0
M  V30 4450 C 440.125 -3.49019 -0.769458 0
M  V30 4451 C 439.791 -4.49598 0.342389 0
M  V30 4452 C 438.453 -4.76821 0.647686 0
M  V30 4453 C 440.805 -5.0964 1.09163 0
M  V30 4454 C 438.133 -5.61354 1.70581 0
M  V30 4455 C 440.485 -5.95323 2.13948 0
M  V30 4456 C 439.149 -6.20867 2.45113 0
M  V30 4457 H 438.419 -0.730319 -0.125358 0
M  V30 4458 H 441.066 -1.87529 0.387971 0
M  V30 4459 H 439.371 -3.58544 -1.57967 0
M  V30 4460 H 441.068 -3.8077 -1.25757 0
M  V30 4461 H 437.658 -4.28496 0.094318 0
M  V30 4462 H 441.842 -4.88632 0.869024 0
M  V30 4463 H 437.098 -5.79392 1.9523 0
M  V30 4464 H 441.272 -6.40881 2.72478 0
M  V30 4465 H 438.899 -6.86162 3.27239 0
M  V30 4466 N 440.474 -0.00167713 -1.576 0
M  V30 4467 C 441.422 1.0074 -2.09652 0
M  V30 4468 C 442.416 1.35483 -1.01689 0
M  V30 4469 O 443.622 1.34028 -1.20152 0
M  V30 4470 H 439.997 0.342537 -0.669457 0
M  V30 4471 H 441.968 0.542841 -2.93421 0
M  V30 4472 C 440.717 2.2899 -2.61647 0
M  V30 4473 H 440.04 2.03124 -3.44355 0
M  V30 4474 H 441.48 2.9787 -3.01744 0
M  V30 4475 C 439.939 3.00085 -1.53136 0
M  V30 4476 O 440.469 3.91135 -0.91524 0
M  V30 4477 N 438.675 2.6194 -1.25841 0
M  V30 4478 H 438.222 1.8798 -1.76129 0
M  V30 4479 H 438.18 3.09822 -0.534576 0
M  V30 4480 N 441.952 1.55251 0.271103 0
M  V30 4481 C 443.199 1.75946 1.00245 0
M  V30 4482 C 443.527 0.561611 1.86215 0
M  V30 4483 O 442.782 -0.455832 1.90317 0
M  V30 4484 C 443.081 3.01879 1.91321 0
M  V30 4485 C 442.747 4.34337 1.21086 0
M  V30 4486 C 441.409 4.70338 1.01666 0
M  V30 4487 C 443.761 5.16325 0.71119 0
M  V30 4488 C 441.089 5.8588 0.310099 0
M  V30 4489 C 443.441 6.32597 0.0182157 0
M  V30 4490 C 442.105 6.67236 -0.18768 0
M  V30 4491 H 441.375 0.643833 0.366824 0
M  V30 4492 H 444.022 1.89521 0.27458 0
M  V30 4493 H 442.327 2.83212 2.70736 0
M  V30 4494 H 444.024 3.15088 2.48033 0
M  V30 4495 H 440.614 4.06043 1.37213 0
M  V30 4496 H 444.798 4.88987 0.848844 0
M  V30 4497 H 440.054 6.1124 0.139873 0
M  V30 4498 H 444.228 6.9538 -0.376711 0
M  V30 4499 H 441.855 7.56618 -0.73715 0
M  V30 4500 N 443.43 -0.535701 1.48216 0
M  V30 4501 C 444.841 -1.11769 1.49548 0
M  V30 4502 C 445.192 -1.94442 0.26207 0
M  V30 4503 O 444.317 -2.06987 -0.631287 0
M  V30 4504 C 444.912 -2.03367 2.70975 0
M  V30 4505 C 443.471 -2.56795 2.75196 0
M  V30 4506 C 442.618 -1.33631 2.42977 0
M  V30 4507 H 445.569 -0.321232 1.55415 0
M  V30 4508 H 445.59 -2.87569 2.49167 0
M  V30 4509 H 445.102 -1.43169 3.60727 0
M  V30 4510 H 443.203 -3.20731 1.89638 0
M  V30 4511 H 443.316 -2.9632 3.76472 0
M  V30 4512 H 441.68 -1.6502 1.94012 0
M  V30 4513 H 442.463 -0.75194 3.34964 0
M  V30 4514 N 444.908 -1.36708 -0.784132 0
M  V30 4515 C 446.319 -1.27947 -1.35965 0
M  V30 4516 C 446.67 0.0784013 -1.96043 0
M  V30 4517 O 445.795 0.979989 -1.92938 0
M  V30 4518 C 446.39 -2.31689 -2.47195 0
M  V30 4519 C 444.949 -2.26601 -3.00548 0
M  V30 4520 C 444.096 -2.16184 -1.73666 0
M  V30 4521 H 447.047 -1.4751 -0.585358 0
M  V30 4522 H 447.068 -1.95638 -3.26352 0
M  V30 4523 H 446.58 -3.30506 -2.03439 0
M  V30 4524 H 444.681 -1.31268 -3.48711 0
M  V30 4525 H 444.794 -3.19508 -3.57004 0
M  V30 4526 H 443.158 -1.62524 -1.96107 0
M  V30 4527 H 443.941 -3.16896 -1.32031 0
M  V30 4528 N 446.386 1.0089 -1.21074 0
M  V30 4529 C 447.334 2.11707 -0.963476 0
M  V30 4530 C 448.328 1.69172 0.0879032 0
M  V30 4531 O 449.534 1.79889 -0.0631415 0
M  V30 4532 H 445.909 0.692026 -0.294287 0
M  V30 4533 H 447.88 2.29743 -1.90422 0
M  V30 4534 C 446.629 3.43473 -0.540509 0
M  V30 4535 H 445.952 3.76634 -1.34114 0
M  V30 4536 H 447.392 4.22044 -0.406777 0
M  V30 4537 C 445.851 3.2849 0.748079 0
M  V30 4538 O 446.381 3.58883 1.8046 0
M  V30 4539 N 444.587 2.81715 0.713081 0
M  V30 4540 H 444.134 2.5718 -0.146973 0
M  V30 4541 H 444.092 2.72071 1.57558 0
M  V30 4542 N 447.864 1.01787 1.20321 0
M  V30 4543 C 449.112 0.706538 1.89347 0
M  V30 4544 C 449.433 -0.766289 1.79313 0
M  V30 4545 O 448.703 -1.55126 1.19635 0
M  V30 4546 H 447.283 0.258348 0.700903 0
M  V30 4547 H 449.945 1.28974 1.46122 0
M  V30 4548 H 449.041 0.991066 2.95946 0
M  V30 4549 N 449.342 -1.36122 0.79427 0
M  V30 4550 C 450.57 -2.03362 0.380989 0
M  V30 4551 C 450.985 -1.59881 -1.00416 0
M  V30 4552 O 450.342 -0.790515 -1.6449 0
M  V30 4553 C 450.393 -3.58804 0.440649 0
M  V30 4554 O 450.114 -4.007 1.77118 0
M  V30 4555 C 451.615 -4.43296 0.0186117 0
M  V30 4556 H 448.835 -0.652526 0.156367 0
M  V30 4557 H 451.379 -1.73998 1.07447 0
M  V30 4558 H 449.534 -3.8686 -0.204458 0
M  V30 4559 H 449.948 -4.95309 1.72538 0
M  V30 4560 H 451.422 -5.51887 0.111488 0
M  V30 4561 H 451.899 -4.2684 -1.03461 0
M  V30 4562 H 452.505 -4.20512 0.636395 0
M  V30 4563 N 450.82 -0.546701 -1.47814 0
M  V30 4564 C 451.77 0.227042 -2.26867 0
M  V30 4565 C 452.754 0.894844 -1.33721 0
M  V30 4566 O 453.946 0.794887 -1.58147 0
M  V30 4567 C 451.075 1.26299 -3.19223 0
M  V30 4568 C 450.161 0.59913 -4.19847 0
M  V30 4569 N 450.552 -0.324777 -5.04756 0
M  V30 4570 C 448.85 0.854331 -4.37741 0
M  V30 4571 C 449.551 -0.709386 -5.77358 0
M  V30 4572 N 448.527 -0.0666153 -5.43559 0
M  V30 4573 H 452.329 -0.483476 -2.89896 0
M  V30 4574 H 449.843 -0.365893 -1.58224 0
M  V30 4575 H 451.84 1.83116 -3.74532 0
M  V30 4576 H 450.5 1.97471 -2.57751 0
M  V30 4577 H 451.511 -0.698351 -5.1317 0
M  V30 4578 H 448.188 1.55536 -3.87447 0
M  V30 4579 H 449.578 -1.46796 -6.55668 0
M  V30 4580 N 452.299 1.55045 -0.282633 0
M  V30 4581 C 453.524 2.04628 0.337977 0
M  V30 4582 C 453.949 1.15937 1.48123 0
M  V30 4583 O 453.307 0.159532 1.80597 0
M  V30 4584 C 453.355 3.51854 0.78936 0
M  V30 4585 O 452.459 3.66236 1.89592 0
M  V30 4586 H 451.8 0.660434 0.0687261 0
M  V30 4587 H 454.33 2.00261 -0.419124 0
M  V30 4588 H 454.34 3.93361 1.08311 0
M  V30 4589 H 453.015 4.15873 -0.0470419 0
M  V30 4590 H 451.592 3.36633 1.60413 0
M  V30 4591 N 453.777 0.010035 1.57597 0
M  V30 4592 C 455.023 -0.668011 1.92118 0
M  V30 4593 C 455.378 -1.70821 0.885328 0
M  V30 4594 O 454.671 -1.91333 -0.101187 0
M  V30 4595 C 454.865 -1.34434 3.31153 0
M  V30 4596 C 454.694 -0.371176 4.48166 0
M  V30 4597 C 453.464 0.0220686 5.05295 0
M  V30 4598 C 455.662 0.366731 5.12991 0
M  V30 4599 N 453.644 0.9924 6.05826 0
M  V30 4600 C 455.015 1.19142 6.08445 0
M  V30 4601 C 457.07 0.429489 4.96044 0
M  V30 4602 C 455.773 2.07317 6.88776 0
M  V30 4603 C 457.799 1.2985 5.76969 0
M  V30 4604 C 457.161 2.11101 6.72023 0
M  V30 4605 H 453.26 -0.217337 0.751192 0
M  V30 4606 H 455.844 0.0727375 1.94564 0
M  V30 4607 H 454.015 -2.05533 3.29561 0
M  V30 4608 H 455.747 -1.97789 3.53075 0
M  V30 4609 H 452.502 -0.348409 4.72317 0
M  V30 4610 H 452.926 1.47324 6.60776 0
M  V30 4611 H 457.568 -0.18442 4.22398 0
M  V30 4612 H 455.286 2.69771 7.61741 0
M  V30 4613 H 458.872 1.3511 5.65894 0
M  V30 4614 H 457.752 2.77257 7.33552 0
M  V30 4615 N 455.255 -1.55392 -0.262866 0
M  V30 4616 C 456.666 -1.67079 -0.833158 0
M  V30 4617 C 457.017 -0.604539 -1.86654 0
M  V30 4618 O 456.142 0.252138 -2.14926 0
M  V30 4619 C 456.737 -3.02891 -1.51797 0
M  V30 4620 C 455.296 -3.16571 -2.03617 0
M  V30 4621 C 454.443 -2.62909 -0.881701 0
M  V30 4622 H 457.394 -1.58652 -0.0389986 0
M  V30 4623 H 457.415 -2.96445 -2.38538 0
M  V30 4624 H 456.927 -3.80473 -0.765619 0
M  V30 4625 H 455.028 -2.43782 -2.81782 0
M  V30 4626 H 455.141 -4.23271 -2.24452 0
M  V30 4627 H 453.505 -2.20324 -1.27786 0
M  V30 4628 H 454.288 -3.43003 -0.14269 0
M  V30 4629 N 456.733 0.527833 -1.48498 0
M  V30 4630 C 457.963 1.30633 -1.60058 0
M  V30 4631 C 458.371 1.87394 -0.260786 0
M  V30 4632 O 457.714 1.67227 0.760317 0
M  V30 4633 C 457.776 2.49361 -2.58958 0
M  V30 4634 C 457.44 2.13671 -4.03972 0
M  V30 4635 C 458.437 1.69217 -4.91591 0
M  V30 4636 C 456.122 2.24129 -4.49524 0
M  V30 4637 C 458.116 1.35689 -6.2279 0
M  V30 4638 C 455.803 1.90212 -5.80743 0
M  V30 4639 C 456.801 1.46063 -6.67199 0
M  V30 4640 O 456.489 1.12593 -7.95976 0
M  V30 4641 H 456.221 0.403444 -0.54241 0
M  V30 4642 H 458.775 0.643233 -1.95068 0
M  V30 4643 H 457.005 3.18659 -2.19073 0
M  V30 4644 H 458.694 3.11421 -2.6033 0
M  V30 4645 H 459.46 1.60607 -4.57636 0
M  V30 4646 H 455.339 2.57447 -3.82416 0
M  V30 4647 H 458.883 1.01157 -6.90227 0
M  V30 4648 H 454.78 1.98464 -6.14233 0
M  V30 4649 H 455.548 1.25972 -8.08748 0
M  V30 4650 N 458.211 1.37122 0.776871 0
M  V30 4651 C 459.457 1.3325 1.53675 0
M  V30 4652 C 459.812 -0.0839891 1.92217 0
M  V30 4653 O 459.105 -1.04145 1.60824 0
M  V30 4654 C 459.299 2.20068 2.81611 0
M  V30 4655 C 459.128 3.70016 2.55574 0
M  V30 4656 C 457.898 4.39144 2.4996 0
M  V30 4657 C 460.096 4.62996 2.23917 0
M  V30 4658 N 458.078 5.74663 2.15953 0
M  V30 4659 C 459.449 5.86854 2.00005 0
M  V30 4660 C 461.504 4.51433 2.1003 0
M  V30 4661 C 460.207 7.00446 1.63609 0
M  V30 4662 C 462.233 5.64905 1.75033 0
M  V30 4663 C 461.595 6.8781 1.51977 0
M  V30 4664 H 457.694 0.542878 0.562856 0
M  V30 4665 H 460.278 1.72295 0.906784 0
M  V30 4666 H 458.449 1.83248 3.42454 0
M  V30 4667 H 460.181 2.07492 3.47461 0
M  V30 4668 H 456.936 3.92088 2.65639 0
M  V30 4669 H 457.36 6.46268 2.0166 0
M  V30 4670 H 462.002 3.56987 2.26539 0
M  V30 4671 H 459.72 7.94831 1.45837 0
M  V30 4672 H 463.306 5.57926 1.64952 0
M  V30 4673 H 462.186 7.74126 1.25296 0
M  V30 4674 N 459.689 -1.00246 1.21608 0
M  V30 4675 C 460.637 -2.11193 0.97469 0
M  V30 4676 C 461.631 -1.69216 -0.0789303 0
M  V30 4677 O 462.837 -1.79853 0.0726806 0
M  V30 4678 H 459.212 -0.690455 0.297953 0
M  V30 4679 H 461.183 -2.2873 1.91638 0
M  V30 4680 C 459.932 -3.43182 0.558717 0
M  V30 4681 H 459.255 -3.75918 1.3611 0
M  V30 4682 H 460.695 -4.21823 0.429154 0
M  V30 4683 C 459.154 -3.28882 -0.730648 0
M  V30 4684 O 459.684 -3.59835 -1.78554 0
M  V30 4685 N 457.89 -2.8209 -0.698131 0
M  V30 4686 H 457.437 -2.57099 0.16061 0
M  V30 4687 H 457.395 -2.72903 -1.56113 0
M  V30 4688 N 461.167 -1.02423 -1.1978 0
M  V30 4689 C 462.077 -0.610919 -2.26506 0
M  V30 4690 C 463.093 0.355152 -1.70337 0
M  V30 4691 O 464.269 0.214195 -2.00258 0
M  V30 4692 C 461.334 0.0365921 -3.46681 0
M  V30 4693 C 460.395 -0.976389 -4.18049 0
M  V30 4694 C 459.628 -0.359683 -5.32487 0
M  V30 4695 O 459.851 0.838601 -5.64202 0
M  V30 4696 O 458.785 -1.08022 -5.92127 0
M  V30 4697 H 462.611 -1.49965 -2.64091 0
M  V30 4698 H 460.196 -0.794156 -1.26545 0
M  V30 4699 H 462.078 0.39786 -4.19518 0
M  V30 4700 H 460.753 0.899398 -3.10954 0
M  V30 4701 H 459.66 -1.38916 -3.47352 0
M  V30 4702 H 460.993 -1.80941 -4.57735 0
M  V30 4703 N 462.645 1.35699 -0.801477 0
M  V30 4704 C 463.577 2.28598 -0.166028 0
M  V30 4705 C 464.59 1.50044 0.631721 0
M  V30 4706 O 465.779 1.72339 0.464921 0
M  V30 4707 C 462.879 3.29625 0.787451 0
M  V30 4708 C 462.052 4.37384 0.037171 0
M  V30 4709 C 461.111 5.183 0.908375 0
M  V30 4710 O 460.137 5.68053 0.361189 0
M  V30 4711 N 461.339 5.35912 2.23112 0
M  V30 4712 H 464.104 2.83771 -0.964071 0
M  V30 4713 H 461.665 1.47994 -0.656469 0
M  V30 4714 H 463.657 3.80648 1.37439 0
M  V30 4715 H 462.227 2.75004 1.48632 0
M  V30 4716 H 461.447 3.87364 -0.730935 0
M  V30 4717 H 462.735 5.0653 -0.480109 0
M  V30 4718 H 462.133 4.97125 2.69968 0
M  V30 4719 H 460.69 5.90133 2.76741 0
M  V30 4720 N 464.123 0.554532 1.47522 0
M  V30 4721 C 465.053 -0.182974 2.32782 0
M  V30 4722 C 466.034 -0.911377 1.43624 0
M  V30 4723 O 467.219 -0.892366 1.72483 0
M  V30 4724 C 464.349 -1.21513 3.25349 0
M  V30 4725 C 463.303 -0.603355 4.23726 0
M  V30 4726 C 462.629 -1.73995 5.05598 0
M  V30 4727 C 463.929 0.441121 5.20434 0
M  V30 4728 H 465.623 0.52882 2.94693 0
M  V30 4729 H 463.169 0.255759 1.41711 0
M  V30 4730 H 465.122 -1.73922 3.83835 0
M  V30 4731 H 463.846 -1.95683 2.61487 0
M  V30 4732 H 462.505 -0.10059 3.66462 0
M  V30 4733 H 462.153 -2.47063 4.38143 0
M  V30 4734 H 461.853 -1.3364 5.72201 0
M  V30 4735 H 463.377 -2.26735 5.66942 0
M  V30 4736 H 464.791 0.00319931 5.733 0
M  V30 4737 H 463.188 0.763402 5.95224 0
M  V30 4738 H 464.258 1.33799 4.66075 0
M  V30 4739 N 465.601 -1.54893 0.290851 0
M  V30 4740 C 466.847 -2.0023 -0.321867 0
M  V30 4741 C 467.18 -1.179 -1.54316 0
M  V30 4742 O 466.455 -0.25293 -1.92848 0
M  V30 4743 C 466.738 -3.53456 -0.688515 0
M  V30 4744 C 466.591 -4.46532 0.541209 0
M  V30 4745 C 467.91 -4.13057 -1.51895 0
M  V30 4746 H 465.029 -0.727891 -0.115515 0
M  V30 4747 H 467.671 -1.85722 0.400931 0
M  V30 4748 H 465.821 -3.6595 -1.30433 0
M  V30 4749 H 467.493 -4.4596 1.17973 0
M  V30 4750 H 465.736 -4.17545 1.17636 0
M  V30 4751 H 466.407 -5.51475 0.240675 0
M  V30 4752 H 468.883 -4.03937 -0.99872 0
M  V30 4753 H 467.759 -5.20448 -1.74429 0
M  V30 4754 H 468.02 -3.64284 -2.50498 0
M  V30 4755 N 467.08 -0.0183926 -1.57589 0
M  V30 4756 C 468.043 0.951986 -2.08494 0
M  V30 4757 C 469.043 1.26092 -0.997874 0
M  V30 4758 O 470.233 1.20304 -1.25987 0
M  V30 4759 C 467.365 2.27165 -2.54182 0
M  V30 4760 H 468.558 0.511307 -2.95509 0
M  V30 4761 H 466.111 0.229444 -1.54607 0
M  V30 4762 H 466.846 2.75884 -1.70465 0
M  V30 4763 H 466.631 2.06057 -3.33591 0
M  V30 4764 H 468.121 2.9674 -2.93828 0
M  V30 4765 N 468.558 1.5553 0.254621 0
M  V30 4766 C 469.491 1.84624 1.34124 0
M  V30 4767 C 470.469 0.700693 1.46728 0
M  V30 4768 O 471.653 0.94564 1.63064 0
M  V30 4769 C 468.78 2.02412 2.71564 0
M  V30 4770 C 467.826 3.25028 2.7615 0
M  V30 4771 S 468.659 4.81893 2.33538 0
M  V30 4772 C 469.815 5.02677 3.72917 0
M  V30 4773 H 470.048 2.76501 1.09245 0
M  V30 4774 H 467.581 1.47537 0.455211 0
M  V30 4775 H 469.539 2.13345 3.50705 0
M  V30 4776 H 468.2 1.11391 2.93685 0
M  V30 4777 H 467.393 3.34418 3.77069 0
M  V30 4778 H 466.995 3.12781 2.05046 0
M  V30 4779 H 469.287 4.89546 4.68349 0
M  V30 4780 H 470.23 6.0468 3.68467 0
M  V30 4781 H 470.638 4.30561 3.65072 0
M  V30 4782 N 470.036 -0.519951 1.48776 0
M  V30 4783 C 470.983 -1.62352 1.64044 0
M  V30 4784 C 471.953 -1.58945 0.482251 0
M  V30 4785 O 473.138 -1.77219 0.706971 0
M  V30 4786 C 470.278 -3.00579 1.69547 0
M  V30 4787 C 469.391 -3.14145 2.96541 0
M  V30 4788 C 468.526 -4.42991 2.93142 0
M  V30 4789 C 467.565 -4.50122 4.14797 0
M  V30 4790 N 466.702 -5.7037 4.09418 0
M  V30 4791 H 471.542 -1.48643 2.58281 0
M  V30 4792 H 469.079 -0.723516 1.28077 0
M  V30 4793 H 471.037 -3.80671 1.70719 0
M  V30 4794 H 469.667 -3.13036 0.787918 0
M  V30 4795 H 468.719 -2.27239 3.05068 0
M  V30 4796 H 470.031 -3.15275 3.86527 0
M  V30 4797 H 469.185 -5.31385 2.92772 0
M  V30 4798 H 467.924 -4.44398 2.00902 0
M  V30 4799 H 466.929 -3.60133 4.15433 0
M  V30 4800 H 468.154 -4.50445 5.08208 0
M  V30 4801 H 466.1 -5.72655 3.20004 0
M  V30 4802 H 466.017 -5.73036 4.93119 0
M  V30 4803 H 467.285 -6.61023 4.13121 0
M  V30 4804 N 471.514 -1.37532 -0.769588 0
M  V30 4805 C 472.477 -1.33292 -1.86456 0
M  V30 4806 C 473.477 -0.236537 -1.59051 0
M  V30 4807 O 474.667 -0.492511 -1.67093 0
M  V30 4808 C 471.799 -1.07118 -3.23633 0
M  V30 4809 H 472.992 -2.30692 -1.91628 0
M  V30 4810 H 470.545 -1.22593 -0.969572 0
M  V30 4811 H 471.28 -0.102578 -3.24138 0
M  V30 4812 H 471.065 -1.86479 -3.44917 0
M  V30 4813 H 472.555 -1.06806 -4.03711 0
M  V30 4814 N 472.992 0.995999 -1.22138 0
M  V30 4815 C 474.269 1.70834 -0.952642 0
M  V30 4816 C 474.649 2.04257 0.533119 0
M  V30 4817 O 473.997 1.72343 1.50034 0
M  V30 4818 C 474.207 2.96119 -1.84701 0
M  V30 4819 C 475.555 3.68962 -2.10124 0
M  V30 4820 O 476.579 3.0612 -1.82124 0
M  V30 4821 O 475.438 4.82017 -2.57531 0
M  V30 4822 H 472.532 0.745498 -0.357997 0
M  V30 4823 H 475.078 1.05262 -1.33109 0
M  V30 4824 H 473.85 2.67898 -2.85213 0
M  V30 4825 H 473.473 3.6943 -1.46995 0
M  V30 4826 N 474.47 1.03057 1.19235 0
M  V30 4827 C 475.719 0.72326 1.88287 0
M  V30 4828 C 476.032 -0.751333 1.80594 0
M  V30 4829 O 477.238 -1.17176 2.44912 0
M  V30 4830 C 475.694 1.24338 3.3774 0
M  V30 4831 C 475.302 2.74587 3.53986 0
M  V30 4832 C 477.046 1.01213 4.12257 0
M  V30 4833 C 474.953 3.20009 4.97341 0
M  V30 4834 H 473.883 0.266848 0.705201 0
M  V30 4835 H 476.534 1.24509 1.34795 0
M  V30 4836 H 474.916 0.649457 3.90638 0
M  V30 4837 H 476.09 3.39649 3.11408 0
M  V30 4838 H 474.405 2.9601 2.9286 0
M  V30 4839 H 477.002 1.32675 5.17978 0
M  V30 4840 H 477.345 -0.051001 4.16269 0
M  V30 4841 H 477.878 1.57014 3.65501 0
M  V30 4842 H 474.617 4.25659 4.98493 0
M  V30 4843 H 474.137 2.59676 5.40674 0
M  V30 4844 H 475.816 3.13447 5.66003 0
M  V30 4845 N 475.948 -1.35272 0.808662 0
M  V30 4846 C 476.88 -2.28507 0.178149 0
M  V30 4847 C 477.893 -1.50377 -0.623754 0
M  V30 4848 O 479.082 -1.72583 -0.455774 0
M  V30 4849 C 476.182 -3.30038 -0.769959 0
M  V30 4850 C 475.355 -4.37398 -0.0139749 0
M  V30 4851 C 474.414 -5.18775 -0.880875 0
M  V30 4852 O 473.44 -5.68236 -0.331059 0
M  V30 4853 N 474.642 -5.37087 -2.20267 0
M  V30 4854 H 477.407 -2.83255 0.979106 0
M  V30 4855 H 474.968 -1.47643 0.664308 0
M  V30 4856 H 476.96 -3.81371 -1.35418 0
M  V30 4857 H 475.53 -2.75789 -1.47171 0
M  V30 4858 H 474.75 -3.86971 0.751468 0
M  V30 4859 H 476.038 -5.06268 0.506965 0
M  V30 4860 H 475.436 -4.9855 -2.67328 0
M  V30 4861 H 473.993 -5.91593 -2.73608 0
M  V30 4862 N 477.426 -0.562348 -1.47226 0
M  V30 4863 C 478.376 0.202967 -2.27095 0
M  V30 4864 C 479.36 0.880611 -1.34663 0
M  V30 4865 O 480.552 0.778069 -1.58981 0
M  V30 4866 C 477.681 1.22906 -3.20545 0
M  V30 4867 C 476.767 0.554566 -4.20459 0
M  V30 4868 N 477.158 -0.378295 -5.04383 0
M  V30 4869 C 475.456 0.807854 -4.38623 0
M  V30 4870 C 476.157 -0.770583 -5.76573 0
M  V30 4871 N 475.133 -0.124263 -5.43458 0
M  V30 4872 H 478.935 -0.514196 -2.89367 0
M  V30 4873 H 476.449 -0.382655 -1.57827 0
M  V30 4874 H 478.446 1.79134 -3.76453 0
M  V30 4875 H 477.106 1.94726 -2.59831 0
M  V30 4876 H 478.117 -0.75274 -5.124 0
M  V30 4877 H 474.794 1.51418 -3.89075 0
M  V30 4878 H 476.184 -1.53742 -6.54074 0
M  V30 4879 N 478.904 1.54736 -0.299062 0
M  V30 4880 C 480.15 2.00397 0.311244 0
M  V30 4881 C 480.483 1.18716 1.53688 0
M  V30 4882 O 479.758 0.263154 1.92712 0
M  V30 4883 C 480.041 3.53817 0.669761 0
M  V30 4884 C 479.894 4.46239 -0.564882 0
M  V30 4885 C 481.213 4.13856 1.49702 0
M  V30 4886 H 478.332 0.728493 0.111653 0
M  V30 4887 H 480.974 1.85506 -0.410774 0
M  V30 4888 H 479.124 3.66637 1.28491 0
M  V30 4889 H 480.796 4.45328 -1.20337 0
M  V30 4890 H 479.039 4.16916 -1.19849 0
M  V30 4891 H 479.71 5.5134 -0.269918 0
M  V30 4892 H 482.186 4.04461 0.977284 0
M  V30 4893 H 481.062 5.21365 1.71666 0
M  V30 4894 H 481.323 3.65608 2.48563 0
M  V30 4895 N 480.382 0.0267497 1.57577 0
M  V30 4896 C 481.312 -0.954308 2.13108 0
M  V30 4897 C 482.293 -1.34088 1.04663 0
M  V30 4898 O 483.478 -1.41992 1.32484 0
M  V30 4899 C 480.608 -2.23744 2.65624 0
M  V30 4900 C 479.562 -1.99168 3.78835 0
M  V30 4901 C 478.888 -3.33726 4.17769 0
M  V30 4902 C 480.188 -1.33277 5.0501 0
M  V30 4903 H 481.882 -0.491848 2.95332 0
M  V30 4904 H 479.428 -0.23514 1.42067 0
M  V30 4905 H 481.381 -2.92754 3.03106 0
M  V30 4906 H 480.105 -2.72151 1.80558 0
M  V30 4907 H 478.764 -1.32577 3.41788 0
M  V30 4908 H 478.412 -3.79888 3.29688 0
M  V30 4909 H 478.112 -3.18089 4.94058 0
M  V30 4910 H 479.636 -4.04008 4.57832 0
M  V30 4911 H 481.05 -1.92283 5.40093 0
M  V30 4912 H 479.447 -1.28045 5.8628 0
M  V30 4913 H 480.517 -0.305411 4.83937 0
M  V30 4914 N 481.861 -1.55662 -0.24637 0
M  V30 4915 C 482.809 -1.91186 -1.3248 0
M  V30 4916 C 483.803 -0.790996 -1.49799 0
M  V30 4917 O 485.009 -0.975617 -1.51267 0
M  V30 4918 H 481.384 -0.607207 -0.443626 0
M  V30 4919 H 483.355 -2.81221 -0.997853 0
M  V30 4920 C 482.104 -2.22349 -2.67313 0
M  V30 4921 H 481.427 -3.08097 -2.54786 0
M  V30 4922 H 482.867 -2.51107 -3.41645 0
M  V30 4923 C 481.326 -1.04001 -3.20446 0
M  V30 4924 O 481.856 -0.28828 -4.00664 0
M  V30 4925 N 480.062 -0.830494 -2.7848 0
M  V30 4926 H 479.609 -1.4435 -2.13356 0
M  V30 4927 H 479.567 -0.0403258 -3.14374 0
M  V30 4928 N 483.339 0.512053 -1.4905 0
M  V30 4929 C 484.587 1.26436 -1.57665 0
M  V30 4930 C 484.908 1.93255 -0.260293 0
M  V30 4931 O 484.178 1.82206 0.719564 0
M  V30 4932 H 482.758 0.469658 -0.580888 0
M  V30 4933 H 485.42 0.594398 -1.85615 0
M  V30 4934 H 484.516 2.03417 -2.36702 0
M  V30 4935 N 484.817 1.37938 0.762283 0
M  V30 4936 C 485.78 1.34279 1.85747 0
M  V30 4937 C 486.78 0.244969 1.58923 0
M  V30 4938 O 487.97 0.501365 1.66829 0
M  V30 4939 C 485.102 1.08833 3.23061 0
M  V30 4940 H 486.295 2.31705 1.90401 0
M  V30 4941 H 483.848 1.23105 0.963057 0
M  V30 4942 H 484.583 0.119767 3.24079 0
M  V30 4943 H 484.368 1.88306 3.43923 0
M  V30 4944 H 485.858 1.08946 4.03138 0
M  V30 4945 N 486.295 -0.989507 1.22664 0
M  V30 4946 C 487.523 -1.76496 1.07967 0
M  V30 4947 C 487.938 -1.85148 -0.369543 0
M  V30 4948 O 487.295 -1.32408 -1.25596 0
M  V30 4949 C 487.346 -3.19642 1.68853 0
M  V30 4950 O 487.067 -3.11453 3.08105 0
M  V30 4951 C 488.568 -4.13621 1.59475 0
M  V30 4952 H 485.788 -0.55418 0.378319 0
M  V30 4953 H 488.332 -1.24378 1.62328 0
M  V30 4954 H 486.487 -3.68816 1.18547 0
M  V30 4955 H 486.901 -4.01499 3.37489 0
M  V30 4956 H 488.375 -5.11801 2.06795 0
M  V30 4957 H 488.852 -4.35718 0.55191 0
M  V30 4958 H 489.458 -3.70346 2.09103 0
M  V30 4959 N 487.773 -1.03688 -1.18687 0
M  V30 4960 C 489.184 -0.766488 -1.70241 0
M  V30 4961 C 489.535 0.713052 -1.82784 0
M  V30 4962 O 488.66 1.55529 -1.50465 0
M  V30 4963 C 489.255 -1.38475 -3.09209 0
M  V30 4964 C 487.814 -1.16276 -3.5799 0
M  V30 4965 C 486.961 -1.4778 -2.34641 0
M  V30 4966 H 489.912 -1.20378 -1.03415 0
M  V30 4967 H 489.933 -0.785939 -3.72295 0
M  V30 4968 H 489.445 -2.46157 -3.00048 0
M  V30 4969 H 487.546 -0.104508 -3.72453 0
M  V30 4970 H 487.659 -1.8571 -4.41643 0
M  V30 4971 H 486.023 -0.897366 -2.38368 0
M  V30 4972 H 486.806 -2.56562 -2.28102 0
M  V30 4973 N 489.251 1.34841 -0.815825 0
M  V30 4974 C 490.662 1.80937 -0.46029 0
M  V30 4975 C 491.013 1.67685 1.01863 0
M  V30 4976 O 490.138 1.21277 1.79223 0
M  V30 4977 C 490.733 3.28509 -0.828708 0
M  V30 4978 C 489.292 3.72712 -0.525644 0
M  V30 4979 C 488.439 2.56676 -1.04941 0
M  V30 4980 H 491.39 1.22688 -1.00664 0
M  V30 4981 H 491.411 3.80279 -0.129757 0
M  V30 4982 H 490.923 3.38122 -1.90513 0
M  V30 4983 H 489.024 3.68642 0.541666 0
M  V30 4984 H 489.137 4.67119 -1.06474 0
M  V30 4985 H 487.501 2.50302 -0.471286 0
M  V30 4986 H 488.284 2.69063 -2.13214 0
M  V30 4987 N 490.729 0.570148 1.46925 0
M  V30 4988 C 491.692 -0.159933 2.28641 0
M  V30 4989 C 492.692 -0.830638 1.37685 0
M  V30 4990 O 493.882 -0.684516 1.60187 0
M  V30 4991 C 491.014 -1.2354 3.17727 0
M  V30 4992 H 492.207 0.558035 2.94662 0
M  V30 4993 H 489.76 0.327603 1.52828 0
M  V30 4994 H 490.495 -1.98535 2.56426 0
M  V30 4995 H 490.28 -0.759125 3.84681 0
M  V30 4996 H 491.77 -1.74782 3.79264 0
M  V30 4997 N 492.207 -1.54576 0.307264 0
M  V30 4998 C 493.17 -2.22423 -0.553224 0
M  V30 4999 C 494.17 -1.21231 -1.05639 0
M  V30 5000 O 495.36 -1.45923 -0.951419 0
M  V30 5001 C 492.492 -2.91552 -1.76664 0
M  V30 5002 H 493.685 -2.99874 0.0396484 0
M  V30 5003 H 491.238 -1.56192 0.0581629 0
M  V30 5004 H 491.973 -2.18196 -2.39918 0
M  V30 5005 H 491.758 -3.65738 -1.41343 0
M  V30 5006 H 493.248 -3.43292 -2.37783 0
M  V30 5007 N 493.685 -0.035106 -1.57561 0
M  V30 5008 C 495.096 0.502885 -1.798 0
M  V30 5009 C 495.447 1.71892 -0.945921 0
M  V30 5010 O 494.572 2.15822 -0.157991 0
M  V30 5011 C 495.167 0.919097 -3.26095 0
M  V30 5012 C 493.726 1.40216 -3.49308 0
M  V30 5013 C 492.873 0.369709 -2.74824 0
M  V30 5014 H 495.824 -0.261102 -1.56537 0
M  V30 5015 H 495.845 1.78308 -3.36135 0
M  V30 5016 H 495.357 0.0338526 -3.88085 0
M  V30 5017 H 493.458 2.30714 -2.92578 0
M  V30 5018 H 493.571 1.40541 -4.58023 0
M  V30 5019 H 491.935 0.839113 -2.40481 0
M  V30 5020 H 492.718 -0.507173 -3.39533 0
M  V30 5021 N 495.163 1.55791 0.238111 0
M  V30 5022 C 496.126 1.90239 1.27835 0
M  V30 5023 C 497.126 0.779552 1.4064 0
M  V30 5024 O 498.316 1.04747 1.3919 0
M  V30 5025 C 495.448 2.13859 2.65475 0
M  V30 5026 H 496.641 2.83262 0.985034 0
M  V30 5027 H 494.194 1.48818 0.477799 0
M  V30 5028 H 494.929 1.23334 2.99932 0
M  V30 5029 H 494.714 2.95643 2.57561 0
M  V30 5030 H 496.204 2.41664 3.40571 0
M  V30 5031 N 496.642 -0.504142 1.49319 0
M  V30 5032 C 497.605 -1.5883 1.65244 0
M  V30 5033 C 498.605 -1.52009 0.524386 0
M  V30 5034 O 499.795 -1.55218 0.79077 0
M  V30 5035 C 496.927 -2.98481 1.64687 0
M  V30 5036 H 498.12 -1.4604 2.61939 0
M  V30 5037 H 495.673 -0.728144 1.38303 0
M  V30 5038 H 496.408 -3.16751 0.695644 0
M  V30 5039 H 496.193 -3.0484 2.46607 0
M  V30 5040 H 497.683 -3.77256 1.79075 0
M  V30 5041 N 498.12 -1.38341 -0.754957 0
M  V30 5042 C 499.531 -1.30803 -1.3322 0
M  V30 5043 C 499.882 0.0368 -1.96165 0
M  V30 5044 O 499.007 0.938844 -1.94974 0
M  V30 5045 C 499.602 -2.3688 -2.42225 0
M  V30 5046 C 498.161 -2.32925 -2.95674 0
M  V30 5047 C 497.308 -2.19819 -1.69042 0
M  V30 5048 H 500.259 -1.48719 -0.553937 0
M  V30 5049 H 500.28 -2.02517 -3.22129 0
M  V30 5050 H 499.792 -3.34747 -1.96383 0
M  V30 5051 H 497.893 -1.38635 -3.45848 0
M  V30 5052 H 498.006 -3.27008 -3.50146 0
M  V30 5053 H 496.37 -1.66648 -1.92615 0
M  V30 5054 H 497.153 -3.19625 -1.25279 0
M  V30 5055 N 499.598 0.982988 -1.23187 0
M  V30 5056 C 500.561 2.05649 -1.01198 0
M  V30 5057 C 501.561 1.6078 0.0252464 0
M  V30 5058 O 502.751 1.72878 -0.214243 0
M  V30 5059 C 499.883 3.36744 -0.530656 0
M  V30 5060 H 501.076 2.2659 -1.96461 0
M  V30 5061 H 498.629 1.15602 -1.05195 0
M  V30 5062 H 499.364 3.21492 0.425873 0
M  V30 5063 H 499.149 3.7065 -1.2791 0
M  V30 5064 H 500.639 4.15705 -0.397366 0
M  V30 5065 N 501.076 1.04316 1.18135 0
M  V30 5066 C 502.039 0.640794 2.2006 0
M  V30 5067 C 503.039 -0.303124 1.57917 0
M  V30 5068 O 504.229 -0.0881855 1.73977 0
M  V30 5069 C 501.361 -0.060148 3.40847 0
M  V30 5070 H 502.554 1.54281 2.57172 0
M  V30 5071 H 500.107 0.836004 1.32063 0
M  V30 5072 H 500.842 -0.975845 3.0927 0
M  V30 5073 H 500.627 0.618319 3.87194 0
M  V30 5074 H 502.117 -0.328082 4.16309 0
M  V30 5075 O 502.593 -1.30005 0.958179 0
M  V30 5076 H 503.284 -1.84399 0.593022 0
M  V30 END ATOM
M  V30 BEGIN BOND
M  V30 END BOND
M  V30 END CTAB
M  END
$$$$
