drugbank_target|P62857 40S ribosomal protein S28 (DB11638)
 OpenBabel12092121093D

  0  0  0     0  0            999 V3000
M  V30 BEGIN CTAB
M  V30 COUNTS 1124 1126 0 0 0
M  V30 BEGIN ATOM
M  V30 1 H -0.908 1.98254 -0.117106 0
M  V30 2 N 0 1.576 0 0
M  V30 3 C 0.933 2.03868 1.02534 0
M  V30 4 C 1.911 0.928543 1.3348 0
M  V30 5 O 3.095 1.19667 1.45644 0
M  V30 6 C 0.222 2.43627 2.35294 0
M  V30 7 C -0.732 3.65373 2.2001 0
M  V30 8 S 0.101 5.13292 1.52614 0
M  V30 9 C 1.257 5.56322 2.86805 0
M  V30 10 H 1.49 2.90518 0.631377 0
M  V30 11 H -0.977 1.52953 0.210867 0
M  V30 12 H 0.981 2.67203 3.11629 0
M  V30 13 H -0.358 1.57376 2.7183 0
M  V30 14 H -1.165 3.90944 3.18086 0
M  V30 15 H -1.563 3.418 1.51819 0
M  V30 16 H 0.729 5.58782 3.83104 0
M  V30 17 H 1.672 6.56266 2.65933 0
M  V30 18 H 2.08 4.83886 2.90714 0
M  V30 19 N 1.4781 -0.272755 1.55222 0
M  V30 20 C 2.7551 -1.02562 1.66555 0
M  V30 21 C 3.1351 -2.04282 0.532189 0
M  V30 22 O 2.4831 -2.23662 -0.467717 0
M  V30 23 C 2.6931 -1.6822 3.05782 0
M  V30 24 C 4.0411 -2.19373 3.63539 0
M  V30 25 O 5.0651 -1.78206 3.08417 0
M  V30 26 O 3.9241 -2.94883 4.60115 0
M  V30 27 H 1.0181 -0.475755 0.676451 0
M  V30 28 H 3.5641 -0.268593 1.67561 0
M  V30 29 H 2.3361 -0.945112 3.79715 0
M  V30 30 H 1.9591 -2.50609 3.08676 0
M  V30 31 N 2.9562 -1.48159 -0.537278 0
M  V30 32 C 4.1842 -1.59454 -1.31841 0
M  V30 33 C 4.5992 -0.252065 -1.8711 0
M  V30 34 O 3.9562 0.757621 -1.66031 0
M  V30 35 C 4.0072 -2.63546 -2.47439 0
M  V30 36 O 3.7282 -3.92583 -1.94449 0
M  V30 37 C 5.2292 -2.85212 -3.39366 0
M  V30 38 H 2.4492 -0.53785 -0.401196 0
M  V30 39 H 4.9932 -1.93932 -0.648891 0
M  V30 40 H 3.1482 -2.31946 -3.1029 0
M  V30 41 H 3.5622 -4.49629 -2.70063 0
M  V30 42 H 5.0362 -3.61863 -4.16844 0
M  V30 43 H 5.5132 -1.93765 -3.94147 0
M  V30 44 H 6.1192 -3.18086 -2.82314 0
M  V30 45 N 4.4343 0.785586 -1.36625 0
M  V30 46 C 5.6593 1.57963 -1.34397 0
M  V30 47 C 6.0843 1.87964 0.071526 0
M  V30 48 O 5.4423 1.48182 1.0446 0
M  V30 49 C 5.4903 2.87511 -2.17646 0
M  V30 50 O 4.5943 3.81281 -1.57158 0
M  V30 51 H 3.9353 0.479014 -0.459828 0
M  V30 52 H 6.4653 0.973411 -1.79961 0
M  V30 53 H 6.4753 3.36745 -2.30362 0
M  V30 54 H 5.1503 2.65002 -3.20541 0
M  V30 55 H 3.7273 3.39885 -1.53403 0
M  V30 56 N 5.9124 1.20967 1.01018 0
M  V30 57 C 7.3284 0.965905 1.27053 0
M  V30 58 C 7.5284 -0.350785 1.98423 0
M  V30 59 O 6.5844 -1.07773 2.28344 0
M  V30 60 C 7.8974 2.15294 2.09926 0
M  V30 61 C 9.4454 2.19463 2.23171 0
M  V30 62 C 9.9204 3.3767 3.09424 0
M  V30 63 N 11.4114 3.37724 3.17012 0
M  V30 64 C 12.1464 4.25837 3.83993 0
M  V30 65 N 11.6424 5.24138 4.53047 0
M  V30 66 N 13.4354 4.1366 3.80581 0
M  V30 67 H 5.5864 2.0565 0.531194 0
M  V30 68 H 7.8494 0.90024 0.297106 0
M  V30 69 H 7.5554 3.10684 1.64828 0
M  V30 70 H 7.4294 2.13923 3.10672 0
M  V30 71 H 9.8164 1.24632 2.6749 0
M  V30 72 H 9.8974 2.2488 1.21912 0
M  V30 73 H 9.5414 4.32791 2.65808 0
M  V30 74 H 9.4714 3.29491 4.10784 0
M  V30 75 H 11.9624 2.6658 2.6785 0
M  V30 76 H 12.2754 5.87684 5.01844 0
M  V30 77 H 10.6204 5.28068 4.5185 0
M  V30 78 H 13.8114 3.36127 3.25785 0
M  V30 79 H 13.9844 4.82538 4.32505 0
M  V30 80 N 7.3905 -1.2043 1.01659 0
M  V30 81 C 8.6365 -1.90079 0.706963 0
M  V30 82 C 8.9695 -1.78648 -0.761474 0
M  V30 83 O 8.2445 -1.17069 -1.55323 0
M  V30 84 C 8.5275 -3.41469 1.14327 0
M  V30 85 C 8.3805 -3.61833 2.67201 0
M  V30 86 C 9.6995 -4.34261 0.714529 0
M  V30 87 H 6.8185 -0.690254 0.2583 0
M  V30 88 H 9.4605 -1.41826 1.26433 0
M  V30 89 H 7.6105 -3.82696 0.669056 0
M  V30 90 H 9.2825 -3.2986 3.22475 0
M  V30 91 H 7.5255 -3.05304 3.08175 0
M  V30 92 H 8.1965 -4.67955 2.92783 0
M  V30 93 H 10.6725 -4.00682 1.12221 0
M  V30 94 H 9.5485 -5.38806 1.04784 0
M  V30 95 H 9.8095 -4.40431 -0.383799 0
M  V30 96 N 8.8686 -0.792821 -1.36206 0
M  V30 97 C 9.8006 -0.151469 -2.28699 0
M  V30 98 C 10.8136 0.641262 -1.49638 0
M  V30 99 O 12.0026 0.475885 -1.72039 0
M  V30 100 C 9.1026 0.808424 -3.29117 0
M  V30 101 C 8.2756 0.0650202 -4.37352 0
M  V30 102 C 7.3346 0.941358 -5.17711 0
M  V30 103 O 6.3606 0.397352 -5.67811 0
M  V30 104 N 7.5626 2.2652 -5.3448 0
M  V30 105 H 10.3276 -0.945982 -2.84379 0
M  V30 106 H 7.8886 -0.647032 -1.48409 0
M  V30 107 H 9.8806 1.3986 -3.79765 0
M  V30 108 H 8.4506 1.5038 -2.74052 0
M  V30 109 H 7.6706 -0.706255 -3.87822 0
M  V30 110 H 8.9586 -0.447847 -5.06825 0
M  V30 111 H 8.3566 2.73128 -4.95396 0
M  V30 112 H 6.9136 2.80493 -5.88359 0
M  V30 113 N 10.3467 1.47872 -0.545128 0
M  V30 114 C 11.7577 1.86384 -0.108581 0
M  V30 115 C 12.1087 1.45309 1.31832 0
M  V30 116 O 11.2337 0.850641 1.9898 0
M  V30 117 C 11.8287 3.38265 -0.190274 0
M  V30 118 C 10.3877 3.75914 0.191164 0
M  V30 119 C 9.5347 2.71926 -0.543273 0
M  V30 120 H 12.4857 1.39561 -0.755537 0
M  V30 121 H 12.5067 3.75831 0.594217 0
M  V30 122 H 12.0187 3.6813 -1.2289 0
M  V30 123 H 10.1197 3.51665 1.23136 0
M  V30 124 H 10.2327 4.78836 -0.158987 0
M  V30 125 H 8.5967 2.54697 0.0122495 0
M  V30 126 H 9.3797 3.04634 -1.58282 0
M  V30 127 N 11.8248 0.280983 1.55075 0
M  V30 128 C 13.0738 -0.334784 1.98902 0
M  V30 129 C 13.3868 -1.56534 1.17288 0
M  V30 130 O 14.5928 -2.25443 1.51287 0
M  V30 131 C 13.0488 -0.646994 3.54037 0
M  V30 132 C 12.6568 0.564085 4.44435 0
M  V30 133 C 14.4008 -1.22506 4.06439 0
M  V30 134 C 12.3078 0.226137 5.90967 0
M  V30 135 H 11.2378 -0.128866 0.742906 0
M  V30 136 H 13.8888 0.386556 1.79382 0
M  V30 137 H 12.2708 -1.42739 3.6938 0
M  V30 138 H 13.4448 1.34082 4.40861 0
M  V30 139 H 11.7598 1.0594 4.02698 0
M  V30 140 H 14.3568 -1.49182 5.13468 0
M  V30 141 H 14.6998 -2.16085 3.55827 0
M  V30 142 H 15.2328 -0.50682 3.94558 0
M  V30 143 H 11.9718 1.12996 6.45687 0
M  V30 144 H 11.4918 -0.513717 5.97596 0
M  V30 145 H 13.1708 -0.179539 6.46751 0
M  V30 146 N 13.3029 -1.57598 0.00835791 0
M  V30 147 C 14.2499 -2.08945 -0.980346 0
M  V30 148 C 15.2199 -0.986738 -1.33614 0
M  V30 149 O 16.4049 -1.25968 -1.43306 0
M  V30 150 C 13.5449 -2.60425 -2.26435 0
M  V30 151 C 12.6579 -3.84628 -1.96685 0
M  V30 152 C 11.7929 -4.24579 -3.19228 0
M  V30 153 C 10.8319 -5.41596 -2.85202 0
M  V30 154 N 9.9689 -5.768 -4.00307 0
M  V30 155 H 14.8089 -2.93148 -0.535551 0
M  V30 156 H 12.3459 -1.44912 -0.252776 0
M  V30 157 H 14.3039 -2.88354 -3.01509 0
M  V30 158 H 12.9339 -1.79083 -2.68568 0
M  V30 159 H 11.9859 -3.63556 -1.11942 0
M  V30 160 H 13.2979 -4.69796 -1.67611 0
M  V30 161 H 12.4519 -4.53834 -4.02641 0
M  V30 162 H 11.1909 -3.38137 -3.51447 0
M  V30 163 H 10.1959 -5.12056 -2.00198 0
M  V30 164 H 11.4209 -6.29721 -2.54222 0
M  V30 165 H 9.3669 -4.93316 -4.32407 0
M  V30 166 H 9.2839 -6.5656 -3.74786 0
M  V30 167 H 10.5519 -6.10652 -4.84484 0
M  V30 168 N 14.781 0.264519 -1.55364 0
M  V30 169 C 15.711 1.33121 -1.91836 0
M  V30 170 C 16.692 1.51101 -0.781192 0
M  V30 171 O 17.877 1.64003 -1.04003 0
M  V30 172 C 15.007 2.68921 -2.19769 0
M  V30 173 C 13.961 2.65661 -3.35571 0
M  V30 174 C 13.287 4.05093 -3.49004 0
M  V30 175 C 14.587 2.24187 -4.71739 0
M  V30 176 H 16.281 1.02844 -2.81182 0
M  V30 177 H 13.827 0.493286 -1.35287 0
M  V30 178 H 15.78 3.43663 -2.43872 0
M  V30 179 H 14.504 3.00799 -1.27231 0
M  V30 180 H 13.163 1.93377 -3.1145 0
M  V30 181 H 12.811 4.34206 -2.53917 0
M  V30 182 H 12.511 4.03804 -4.26868 0
M  V30 183 H 14.035 4.81561 -3.75408 0
M  V30 184 H 15.449 2.88654 -4.9533 0
M  V30 185 H 13.846 2.34044 -5.52579 0
M  V30 186 H 14.916 1.19327 -4.69988 0
M  V30 187 N 16.2591 1.48442 0.529413 0
M  V30 188 C 17.2221 1.62524 1.61612 0
M  V30 189 C 18.2221 0.498509 1.52877 0
M  V30 190 O 19.4121 0.76431 1.56537 0
M  V30 191 C 16.5441 1.59597 3.01233 0
M  V30 192 H 17.7371 2.59423 1.50465 0
M  V30 193 H 15.2901 1.37047 0.751514 0
M  V30 194 H 16.0251 0.641781 3.17886 0
M  V30 195 H 15.8101 2.41397 3.08982 0
M  V30 196 H 17.3001 1.72646 3.80241 0
M  V30 197 N 17.7372 -0.778329 1.37039 0
M  V30 198 C 19.1532 -1.07796 1.17695 0
M  V30 199 C 19.3532 -2.01498 0.00860115 0
M  V30 200 O 18.4092 -2.43901 -0.653352 0
M  V30 201 C 19.7222 -1.68178 2.49272 0
M  V30 202 C 21.2702 -1.80467 2.55735 0
M  V30 203 C 21.7452 -2.44263 3.87427 0
M  V30 204 N 23.2362 -2.51721 3.88833 0
M  V30 205 C 23.9712 -3.01919 4.87476 0
M  V30 206 N 23.4672 -3.5234 5.96513 0
M  V30 207 N 25.2602 -3.00733 4.74885 0
M  V30 208 H 17.4112 -0.156032 2.11826 0
M  V30 209 H 19.6742 -0.131844 0.938787 0
M  V30 210 H 19.3802 -1.06796 3.35093 0
M  V30 211 H 19.2542 -2.67554 2.65885 0
M  V30 212 H 21.6412 -2.40984 1.70325 0
M  V30 213 H 21.7222 -0.798656 2.43013 0
M  V30 214 H 21.3662 -1.84388 4.73248 0
M  V30 215 H 21.2962 -3.45458 3.9745 0
M  V30 216 H 23.7872 -2.1603 3.10063 0
M  V30 217 H 24.1002 -3.89027 6.67741 0
M  V30 218 H 22.4452 -3.50462 6.00168 0
M  V30 219 H 25.6362 -2.60638 3.88826 0
M  V30 220 H 25.8092 -3.39545 5.51918 0
M  V30 221 N 19.2153 -1.21501 -1.00376 0
M  V30 222 C 20.4613 -1.03452 -1.74429 0
M  V30 223 C 20.7943 0.430764 -1.89362 0
M  V30 224 O 20.0693 1.31962 -1.42886 0
M  V30 225 C 20.3523 -1.73375 -3.15615 0
M  V30 226 C 20.2053 -3.27431 -3.08397 0
M  V30 227 C 21.5243 -1.47732 -4.14564 0
M  V30 228 H 18.6433 -0.377226 -0.633143 0
M  V30 229 H 21.2853 -1.49693 -1.17013 0
M  V30 230 H 19.4353 -1.34064 -3.64636 0
M  V30 231 H 21.1073 -3.76119 -2.67081 0
M  V30 232 H 19.3503 -3.5767 -2.45468 0
M  V30 233 H 20.0213 -3.71524 -4.08258 0
M  V30 234 H 22.4973 -1.8186 -3.74254 0
M  V30 235 H 21.3733 -1.99169 -5.11491 0
M  V30 236 H 21.6343 -0.407589 -4.40217 0
M  V30 237 N 20.6934 1.19889 -1.02296 0
M  V30 238 C 21.9214 1.9339 -0.735399 0
M  V30 239 C 22.3364 1.75148 0.704887 0
M  V30 240 O 21.6934 1.06954 1.47875 0
M  V30 241 C 21.7444 3.45313 -1.06962 0
M  V30 242 O 21.4654 3.62964 -2.45334 0
M  V30 243 C 22.9664 4.35948 -0.804021 0
M  V30 244 H 20.1864 0.61448 -0.269546 0
M  V30 245 H 22.7304 1.522 -1.36585 0
M  V30 246 H 20.8854 3.84359 -0.484455 0
M  V30 247 H 21.2994 4.56886 -2.57595 0
M  V30 248 H 22.7734 5.41174 -1.0879 0
M  V30 249 H 23.2504 4.3842 0.261691 0
M  V30 250 H 23.8564 4.02574 -1.37164 0
M  V30 251 N 22.1715 0.800033 1.35784 0
M  V30 252 C 23.1185 0.203848 2.29898 0
M  V30 253 C 24.0885 -0.658375 1.52495 0
M  V30 254 O 25.2735 -0.604832 1.8096 0
M  V30 255 C 22.4135 -0.64688 3.38983 0
M  V30 256 C 21.5265 0.235054 4.3136 0
M  V30 257 C 20.6615 -0.623054 5.27533 0
M  V30 258 C 19.7005 0.259682 6.11549 0
M  V30 259 N 18.8375 -0.558019 6.99879 0
M  V30 260 H 23.6775 1.01186 2.80295 0
M  V30 261 H 21.2145 0.51053 1.37957 0
M  V30 262 H 23.1725 -1.15521 4.00887 0
M  V30 263 H 21.8025 -1.42021 2.89879 0
M  V30 264 H 20.8545 0.861438 3.70518 0
M  V30 265 H 22.1665 0.914768 4.9034 0
M  V30 266 H 21.3205 -1.19678 5.94779 0
M  V30 267 H 20.0595 -1.33636 4.69034 0
M  V30 268 H 19.0645 0.845726 5.43256 0
M  V30 269 H 20.2895 0.970748 6.72126 0
M  V30 270 H 18.2355 -1.25542 6.43875 0
M  V30 271 H 18.1525 0.0637872 7.55973 0
M  V30 272 H 19.4205 -1.11523 7.71481 0
M  V30 273 N 23.6496 -1.47581 0.552962 0
M  V30 274 C 24.8956 -2.02782 0.0273648 0
M  V30 275 C 25.2286 -1.42687 -1.31734 0
M  V30 276 O 24.5036 -0.580897 -1.85623 0
M  V30 277 C 24.7866 -3.60031 -0.0702371 0
M  V30 278 C 24.6396 -4.30566 1.30126 0
M  V30 279 C 25.9586 -4.33028 -0.785771 0
M  V30 280 H 23.0776 -0.736912 0.0114185 0
M  V30 281 H 25.7196 -1.76056 0.714432 0
M  V30 282 H 23.8696 -3.82932 -0.655382 0
M  V30 283 H 25.5416 -4.19018 1.92929 0
M  V30 284 H 23.7846 -3.91086 1.87709 0
M  V30 285 H 24.4556 -5.39114 1.18573 0
M  V30 286 H 26.9316 -4.15095 -0.288982 0
M  V30 287 H 25.8076 -5.42695 -0.823013 0
M  V30 288 H 26.0686 -4.01945 -1.841 0
M  V30 289 N 25.1277 -0.289203 -1.54924 0
M  V30 290 C 26.0577 0.58549 -2.2604 0
M  V30 291 C 27.0387 1.14753 -1.25562 0
M  V30 292 O 28.2237 1.17906 -1.54311 0
M  V30 293 C 25.3537 1.76305 -2.99222 0
M  V30 294 C 24.3077 1.33191 -4.06748 0
M  V30 295 C 23.6337 2.5937 -4.6758 0
M  V30 296 C 24.9337 0.471775 -5.20165 0
M  V30 297 H 26.6277 -0.00763532 -2.99399 0
M  V30 298 H 24.1737 -0.00511229 -1.43999 0
M  V30 299 H 26.1267 2.38097 -3.47689 0
M  V30 300 H 24.8507 2.38223 -2.23422 0
M  V30 301 H 23.5097 0.737121 -3.59113 0
M  V30 302 H 23.1577 3.19576 -3.88433 0
M  V30 303 H 22.8577 2.31228 -5.40192 0
M  V30 304 H 24.3817 3.21985 -5.18804 0
M  V30 305 H 25.7957 0.995056 -5.64599 0
M  V30 306 H 24.1927 0.284639 -5.99425 0
M  V30 307 H 25.2627 -0.506041 -4.82252 0
M  V30 308 N 26.6058 1.57591 -0.0167156 0
M  V30 309 C 27.8538 1.90906 0.663285 0
M  V30 310 C 28.1748 0.892509 1.73376 0
M  V30 311 O 27.4448 -0.0677623 1.95783 0
M  V30 312 H 26.0248 0.704637 0.247983 0
M  V30 313 H 28.6868 1.94803 -0.0615909 0
M  V30 314 H 27.7828 2.9116 1.12393 0
M  V30 315 N 28.0839 -0.256276 1.55502 0
M  V30 316 C 29.4999 -0.604325 1.47716 0
M  V30 317 C 29.6999 -1.88763 0.705039 0
M  V30 318 O 28.7559 -2.51445 0.230613 0
M  V30 319 C 30.0689 -0.715756 2.92057 0
M  V30 320 C 31.6169 -0.808706 3.02372 0
M  V30 321 C 32.0919 -0.951777 4.48001 0
M  V30 322 N 33.5829 -1.01688 4.519 0
M  V30 323 C 34.3179 -1.14668 5.61817 0
M  V30 324 N 33.8139 -1.24261 6.81565 0
M  V30 325 N 35.6069 -1.1791 5.49594 0
M  V30 326 H 27.7579 0.586291 2.04148 0
M  V30 327 H 30.0209 0.201015 0.926443 0
M  V30 328 H 29.7269 0.157027 3.51349 0
M  V30 329 H 29.6009 -1.59071 3.42018 0
M  V30 330 H 31.9879 -1.67195 2.43166 0
M  V30 331 H 32.0689 0.0912063 2.55637 0
M  V30 332 H 31.7129 -0.0931291 5.07815 0
M  V30 333 H 31.6429 -1.86659 4.92408 0
M  V30 334 H 34.1339 -0.954468 3.65648 0
M  V30 335 H 34.4469 -1.34046 7.61086 0
M  V30 336 H 32.7919 -1.21236 6.84344 0
M  V30 337 H 35.9829 -1.10057 4.54978 0
M  V30 338 H 36.1559 -1.27681 6.35296 0
M  V30 339 N 29.562 -1.4872 -0.521534 0
M  V30 340 C 30.79 -1.60843 -1.30142 0
M  V30 341 C 31.205 -0.271897 -1.86832 0
M  V30 342 O 30.562 0.739969 -1.66825 0
M  V30 343 C 30.613 -2.66155 -2.4463 0
M  V30 344 O 30.334 -3.94623 -1.90275 0
M  V30 345 C 31.835 -2.88795 -3.36322 0
M  V30 346 H 29.055 -0.542075 -0.395468 0
M  V30 347 H 31.599 -1.94609 -0.628285 0
M  V30 348 H 29.754 -2.35224 -3.07812 0
M  V30 349 H 30.168 -4.52468 -2.65279 0
M  V30 350 H 31.642 -3.66264 -4.12983 0
M  V30 351 H 32.119 -1.97934 -3.9207 0
M  V30 352 H 32.725 -3.21063 -2.78924 0
M  V30 353 N 31.0401 0.771051 -1.3745 0
M  V30 354 C 32.2881 1.52661 -1.32435 0
M  V30 355 C 32.6091 1.9479 0.0905024 0
M  V30 356 O 31.8791 1.66348 1.03466 0
M  V30 357 H 30.4591 0.566218 -0.487244 0
M  V30 358 H 33.1211 0.917636 -1.71946 0
M  V30 359 H 32.2171 2.42568 -1.96385 0
M  V30 360 N 32.5182 1.22032 0.997298 0
M  V30 361 C 33.7432 1.06921 1.77715 0
M  V30 362 C 34.1682 -0.376226 1.84299 0
M  V30 363 O 33.5262 -1.27165 1.29223 0
M  V30 364 C 33.5742 1.67996 3.19076 0
M  V30 365 O 32.6782 0.930653 4.01762 0
M  V30 366 H 32.0192 0.375814 0.547412 0
M  V30 367 H 34.5492 1.61737 1.25309 0
M  V30 368 H 34.5592 1.72538 3.69723 0
M  V30 369 H 33.2342 2.73182 3.13599 0
M  V30 370 H 31.8112 0.960917 3.60307 0
M  V30 371 N 33.9963 -1.19345 1.0293 0
M  V30 372 C 34.9283 -2.22036 0.56857 0
M  V30 373 C 35.9413 -1.58865 -0.355779 0
M  V30 374 O 37.1303 -1.77851 -0.152103 0
M  V30 375 C 34.2303 -3.38363 -0.190752 0
M  V30 376 C 33.4033 -4.31118 0.738643 0
M  V30 377 C 32.4623 -5.26194 0.0246497 0
M  V30 378 O 31.4883 -5.65461 0.651354 0
M  V30 379 N 32.6903 -5.66971 -1.24594 0
M  V30 380 H 35.4553 -2.6219 1.45177 0
M  V30 381 H 33.0163 -1.34015 0.908381 0
M  V30 382 H 35.0083 -3.98981 -0.677961 0
M  V30 383 H 33.5783 -2.96994 -0.975366 0
M  V30 384 H 32.7983 -3.68276 1.40593 0
M  V30 385 H 34.0863 -4.90001 1.37029 0
M  V30 386 H 33.4843 -5.37104 -1.77583 0
M  V30 387 H 32.0413 -6.2984 -1.67764 0
M  V30 388 N 35.4744 -0.807222 -1.35358 0
M  V30 389 C 36.7224 -0.387122 -1.98358 0
M  V30 390 C 37.0434 1.04942 -1.64354 0
M  V30 391 O 36.3134 1.72615 -0.926339 0
M  V30 392 H 34.8934 -0.140154 -0.733734 0
M  V30 393 H 37.5554 -1.0332 -1.6526 0
M  V30 394 H 36.6514 -0.493352 -3.08176 0
M  V30 395 N 36.9525 1.47285 -0.560781 0
M  V30 396 C 37.8845 2.28118 0.222438 0
M  V30 397 C 38.8975 1.37219 0.876056 0
M  V30 398 O 40.0865 1.62011 0.749307 0
M  V30 399 C 37.1865 3.1159 1.33285 0
M  V30 400 C 36.3595 4.30473 0.77534 0
M  V30 401 C 35.4185 4.95513 1.77069 0
M  V30 402 O 34.4445 5.53792 1.31539 0
M  V30 403 N 35.6465 4.90531 3.10418 0
M  V30 404 H 38.4115 2.95976 -0.470958 0
M  V30 405 H 35.9725 1.56955 -0.39709 0
M  V30 406 H 37.9645 3.51967 1.99752 0
M  V30 407 H 36.5345 2.45951 1.92943 0
M  V30 408 H 35.7545 3.94144 -0.0662113 0
M  V30 409 H 37.0425 5.07362 0.382272 0
M  V30 410 H 36.4405 4.44389 3.5005 0
M  V30 411 H 34.9975 5.34917 3.72434 0
M  V30 412 N 38.4306 0.297415 1.54768 0
M  V30 413 C 39.6706 -0.313829 2.01976 0
M  V30 414 C 40.0346 -1.51366 1.1812 0
M  V30 415 O 41.2356 -2.19603 1.5501 0
M  V30 416 C 39.5066 -0.664964 3.51159 0
M  V30 417 S 41.0656 -1.25958 4.20333 0
M  V30 418 H 37.8836 -0.0965014 0.704421 0
M  V30 419 H 40.4856 0.424451 1.90837 0
M  V30 420 H 39.1896 0.21681 4.09827 0
M  V30 421 H 38.7206 -1.43413 3.66328 0
M  V30 422 H 40.7356 -2.54751 4.25813 0
M  V30 423 N 39.9087 -1.5758 0.0250728 0
M  V30 424 C 41.1367 -1.9593 -0.664747 0
M  V30 425 C 41.5517 -0.901352 -1.65895 0
M  V30 426 O 40.9087 0.117255 -1.82123 0
M  V30 427 C 40.9597 -3.34342 -1.37468 0
M  V30 428 O 40.6807 -4.36079 -0.420324 0
M  V30 429 C 42.1817 -3.873 -2.1567 0
M  V30 430 H 39.4017 -0.645405 -0.183557 0
M  V30 431 H 41.9457 -2.04329 0.0836372 0
M  V30 432 H 40.1007 -3.27175 -2.0745 0
M  V30 433 H 40.5147 -5.16297 -0.923991 0
M  V30 434 H 41.9887 -4.86504 -2.60803 0
M  V30 435 H 42.4657 -3.21331 -2.99405 0
M  V30 436 H 43.0717 -3.97723 -1.50654 0
M  V30 437 N 41.3868 0.248026 -1.55636 0
M  V30 438 C 42.3188 1.32993 -1.8667 0
M  V30 439 C 43.3318 1.44345 -0.752877 0
M  V30 440 O 44.5208 1.45715 -1.03098 0
M  V30 441 C 41.6208 2.70863 -2.03682 0
M  V30 442 C 40.7938 2.81792 -3.34532 0
M  V30 443 C 39.8528 4.005 -3.41301 0
M  V30 444 O 38.8788 3.9008 -4.14519 0
M  V30 445 N 40.0808 5.13618 -2.70512 0
M  V30 446 H 42.8458 1.06707 -2.8006 0
M  V30 447 H 40.4068 0.438129 -1.55859 0
M  V30 448 H 42.3988 3.48612 -2.05553 0
M  V30 449 H 40.9688 2.89862 -1.17041 0
M  V30 450 H 40.1888 1.90729 -3.44987 0
M  V30 451 H 41.4768 2.86043 -4.20781 0
M  V30 452 H 40.8748 5.24975 -2.10755 0
M  V30 453 H 39.4318 5.89505 -2.78077 0
M  V30 454 N 42.8649 1.48995 0.513639 0
M  V30 455 C 44.1109 1.58076 1.27042 0
M  V30 456 C 44.4439 0.261026 1.92438 0
M  V30 457 O 43.7189 -0.734393 1.80103 0
M  V30 458 C 44.0019 2.73091 2.34719 0
M  V30 459 C 43.8549 4.14821 1.73907 0
M  V30 460 C 45.1739 2.83796 3.36375 0
M  V30 461 H 42.2929 0.575391 0.460536 0
M  V30 462 H 44.9349 1.81232 0.570516 0
M  V30 463 H 43.0849 2.53479 2.94416 0
M  V30 464 H 44.7569 4.45917 1.18135 0
M  V30 465 H 42.9999 4.21058 1.0437 0
M  V30 466 H 43.6709 4.91147 2.51949 0
M  V30 467 H 46.1469 3.01611 2.86653 0
M  V30 468 H 45.0229 3.65971 4.09093 0
M  V30 469 H 45.2839 1.92624 3.9793 0
M  V30 470 N 44.343 -0.763751 1.37857 0
M  V30 471 C 45.759 -1.06542 1.18832 0
M  V30 472 C 45.959 -2.01478 0.0299722 0
M  V30 473 O 45.015 -2.4458 -0.627447 0
M  V30 474 C 46.328 -1.65525 2.51042 0
M  V30 475 C 47.876 -1.77745 2.57635 0
M  V30 476 C 48.351 -2.4014 3.89996 0
M  V30 477 N 49.842 -2.47582 3.91481 0
M  V30 478 C 50.577 -2.96732 4.9065 0
M  V30 479 N 50.073 -3.45993 6.00217 0
M  V30 480 N 51.866 -2.95679 4.78048 0
M  V30 481 H 44.017 -0.133556 2.1198 0
M  V30 482 H 46.28 -0.121879 0.940133 0
M  V30 483 H 45.986 -1.03236 3.36207 0
M  V30 484 H 45.86 -2.64719 2.68707 0
M  V30 485 H 48.247 -2.39164 1.72872 0
M  V30 486 H 48.328 -0.772836 2.43846 0
M  V30 487 H 47.972 -1.79358 4.75177 0
M  V30 488 H 47.902 -3.41223 4.01092 0
M  V30 489 H 50.393 -2.1273 3.12337 0
M  V30 490 H 50.706 -3.81922 6.7183 0
M  V30 491 H 49.051 -3.44077 6.03851 0
M  V30 492 H 52.242 -2.56499 3.91568 0
M  V30 493 H 52.415 -3.33672 5.55488 0
M  V30 494 N 45.8211 -1.22559 -0.990812 0
M  V30 495 C 47.0671 -1.05297 -1.73322 0
M  V30 496 C 47.4001 0.410655 -1.89808 0
M  V30 497 O 46.6751 1.30439 -1.44277 0
M  V30 498 C 46.9581 -1.76713 -3.13759 0
M  V30 499 C 46.8111 -3.30684 -3.04907 0
M  V30 500 C 48.1301 -1.52121 -4.12974 0
M  V30 501 H 45.2491 -0.38392 -0.629106 0
M  V30 502 H 47.8911 -1.50926 -1.15418 0
M  V30 503 H 46.0411 -1.37924 -3.63193 0
M  V30 504 H 47.7131 -3.7893 -2.63077 0
M  V30 505 H 45.9561 -3.60253 -2.41661 0
M  V30 506 H 46.6271 -3.75833 -4.04294 0
M  V30 507 H 49.1031 -1.85819 -3.72304 0
M  V30 508 H 47.9791 -2.04582 -5.0935 0
M  V30 509 H 48.2401 -0.454257 -4.3976 0
M  V30 510 N 47.2992 1.18797 -1.03562 0
M  V30 511 C 48.2092 2.25913 -0.632505 0
M  V30 512 C 49.2252 1.70668 0.338882 0
M  V30 513 O 50.4012 2.00453 0.195076 0
M  V30 514 C 47.4662 3.467 0.00350942 0
M  V30 515 C 46.5272 4.17098 -1.01624 0
M  V30 516 C 45.7602 5.32119 -0.410478 0
M  V30 517 O 45.9832 5.64976 0.784725 0
M  V30 518 O 44.9172 5.9107 -1.13667 0
M  V30 519 H 48.7432 2.62648 -1.52478 0
M  V30 520 H 46.3282 1.25781 -0.806195 0
M  V30 521 H 48.2102 4.19878 0.35781 0
M  V30 522 H 46.8852 3.11798 0.869686 0
M  V30 523 H 45.7922 3.4601 -1.42224 0
M  V30 524 H 47.1252 4.55987 -1.85301 0
M  V30 525 N 48.7773 0.814389 1.34928 0
M  V30 526 C 50.0243 0.398423 1.98542 0
M  V30 527 C 50.3523 -1.03638 1.64589 0
M  V30 528 O 49.6073 -1.73509 0.90516 0
M  V30 529 C 49.9063 0.537781 3.53331 0
M  V30 530 C 49.5723 1.93704 4.07172 0
M  V30 531 C 48.2343 2.31984 4.21589 0
M  V30 532 C 50.5863 2.85213 4.36237 0
M  V30 533 C 47.9143 3.61125 4.62391 0
M  V30 534 C 50.2663 4.13809 4.78482 0
M  V30 535 C 48.9303 4.52077 4.91104 0
M  V30 536 H 48.2003 0.145793 0.726516 0
M  V30 537 H 50.8473 1.03669 1.61012 0
M  V30 538 H 49.1523 -0.183906 3.91368 0
M  V30 539 H 50.8493 0.196588 4.00518 0
M  V30 540 H 47.4393 1.62966 3.96409 0
M  V30 541 H 51.6233 2.56885 4.24645 0
M  V30 542 H 46.8793 3.90612 4.70353 0
M  V30 543 H 51.0533 4.84811 4.99932 0
M  V30 544 H 48.6803 5.52196 5.22478 0
M  V30 545 N 50.2554 -1.46986 0.568584 0
M  V30 546 C 51.1884 -2.27129 -0.220779 0
M  V30 547 C 52.1664 -1.34757 -0.909905 0
M  V30 548 O 53.3504 -1.64152 -0.926622 0
M  V30 549 C 50.4774 -3.12108 -1.31553 0
M  V30 550 C 49.5234 -4.20141 -0.733748 0
M  V30 551 S 50.3564 -5.33783 0.428479 0
M  V30 552 C 51.5124 -6.22327 -0.667811 0
M  V30 553 H 51.7454 -2.93731 0.459267 0
M  V30 554 H 49.2784 -1.5026 0.355154 0
M  V30 555 H 51.2364 -3.61636 -1.94241 0
M  V30 556 H 49.8974 -2.44847 -1.96746 0
M  V30 557 H 49.0904 -4.79373 -1.5562 0
M  V30 558 H 48.6924 -3.73553 -0.182812 0
M  V30 559 H 50.9844 -6.59364 -1.55708 0
M  V30 560 H 51.9274 -7.0801 -0.11258 0
M  V30 561 H 52.3354 -5.5618 -0.965601 0
M  V30 562 N 51.7335 -0.305618 -1.54608 0
M  V30 563 C 53.0105 0.355652 -1.92339 0
M  V30 564 C 53.3905 1.71324 -1.23335 0
M  V30 565 O 52.7385 2.25473 -0.370702 0
M  V30 566 C 52.9485 0.46572 -3.45879 0
M  V30 567 C 54.2965 0.734426 -4.182 0
M  V30 568 O 55.3205 0.54935 -3.51938 0
M  V30 569 O 54.1795 1.09024 -5.35515 0
M  V30 570 H 51.2735 0.199666 -0.802535 0
M  V30 571 H 53.8195 -0.354017 -1.65966 0
M  V30 572 H 52.5915 -0.488461 -3.88239 0
M  V30 573 H 52.2145 1.22367 -3.78301 0
M  V30 574 N 53.2116 1.57565 -0.0334293 0
M  V30 575 C 54.4886 1.83282 0.683163 0
M  V30 576 C 54.8686 0.91823 1.90084 0
M  V30 577 O 54.2166 -0.025113 2.28486 0
M  V30 578 C 54.4266 3.32599 1.0573 0
M  V30 579 C 55.7746 3.99179 1.44711 0
M  V30 580 O 56.7986 3.3712 1.15015 0
M  V30 581 O 55.6576 5.08565 2.0006 0
M  V30 582 H 52.7516 0.755869 0.335546 0
M  V30 583 H 55.2976 1.69589 -0.0614402 0
M  V30 584 H 54.0696 3.90834 0.190828 0
M  V30 585 H 53.6926 3.51415 1.85993 0
M  V30 586 N 54.6897 -0.239769 1.55765 0
M  V30 587 C 55.9177 -0.98417 1.81994 0
M  V30 588 C 56.3327 -1.7867 0.610124 0
M  V30 589 O 55.6897 -1.77571 -0.421271 0
M  V30 590 C 55.7407 -1.91635 3.06526 0
M  V30 591 O 55.4617 -1.14629 4.22838 0
M  V30 592 C 56.9627 -2.77616 3.45607 0
M  V30 593 H 54.1827 -0.28928 0.605441 0
M  V30 594 H 56.7267 -0.260499 2.02834 0
M  V30 595 H 54.8817 -2.5942 2.87715 0
M  V30 596 H 55.2957 -1.77745 4.93464 0
M  V30 597 H 56.7697 -3.38759 4.35828 0
M  V30 598 H 57.2467 -3.4909 2.6652 0
M  V30 599 H 57.8527 -2.15271 3.66795 0
M  V30 600 N 56.1678 -1.49265 -0.50573 0
M  V30 601 C 57.3928 -1.62478 -1.28902 0
M  V30 602 C 57.8178 -0.294332 -1.85783 0
M  V30 603 O 57.1758 0.737412 -1.65626 0
M  V30 604 C 57.2238 -2.69268 -2.39848 0
M  V30 605 O 56.3278 -2.28113 -3.43567 0
M  V30 606 H 55.6688 -0.54399 -0.380751 0
M  V30 607 H 58.1988 -1.95421 -0.605952 0
M  V30 608 H 58.2088 -2.91291 -2.85681 0
M  V30 609 H 56.8838 -3.65846 -1.97812 0
M  V30 610 H 55.4608 -2.16401 -3.03685 0
M  V30 611 N 57.6459 0.756429 -1.3826 0
M  V30 612 C 59.0619 1.0591 -1.19395 0
M  V30 613 C 59.2619 2.01459 -0.0406567 0
M  V30 614 O 58.3179 2.44909 0.614467 0
M  V30 615 C 59.6309 1.64191 -2.51916 0
M  V30 616 C 61.1789 1.76376 -2.58574 0
M  V30 617 C 61.6539 2.38069 -3.91264 0
M  V30 618 N 63.1449 2.45503 -3.92788 0
M  V30 619 C 63.8799 2.94126 -4.92217 0
M  V30 620 N 63.3759 3.42805 -6.02043 0
M  V30 621 N 65.1689 2.9314 -4.7961 0
M  V30 622 H 57.3199 0.122313 -2.12048 0
M  V30 623 H 59.5829 0.116892 -0.940766 0
M  V30 624 H 59.2889 1.01451 -3.3675 0
M  V30 625 H 59.1629 2.6329 -2.70108 0
M  V30 626 H 61.5499 2.38244 -1.74137 0
M  V30 627 H 61.6309 0.759894 -2.44252 0
M  V30 628 H 61.2749 1.76835 -4.76121 0
M  V30 629 H 61.2049 3.39091 -4.02895 0
M  V30 630 H 63.6959 2.1107 -3.13461 0
M  V30 631 H 64.0089 3.78354 -6.73846 0
M  V30 632 H 62.3539 3.4087 -6.05667 0
M  V30 633 H 65.5449 2.54419 -3.92923 0
M  V30 634 H 65.7179 3.30721 -5.5725 0
M  V30 635 N 59.124 1.23083 0.984299 0
M  V30 636 C 60.349 1.088 1.76571 0
M  V30 637 C 60.774 -0.356657 1.84688 0
M  V30 638 O 60.132 -1.25788 1.30565 0
M  V30 639 C 60.18 1.71371 3.17277 0
M  V30 640 O 59.284 0.973213 4.00752 0
M  V30 641 H 58.625 0.381599 0.543395 0
M  V30 642 H 61.155 1.63057 1.23587 0
M  V30 643 H 61.165 1.76449 3.67872 0
M  V30 644 H 59.84 2.76493 3.10684 0
M  V30 645 H 58.417 0.999078 3.59267 0
M  V30 646 N 60.6021 -1.18246 1.0419 0
M  V30 647 C 61.8511 -1.87588 0.741194 0
M  V30 648 C 62.1641 -1.81303 -0.734066 0
M  V30 649 O 63.3701 -2.46019 -1.14834 0
M  V30 650 C 61.8261 -3.36538 1.27555 0
M  V30 651 C 61.4341 -3.51349 2.77953 0
M  V30 652 C 63.1781 -4.11273 1.05143 0
M  V30 653 C 61.0851 -4.94265 3.2474 0
M  V30 654 H 60.0151 -0.702622 0.273565 0
M  V30 655 H 62.6661 -1.33601 1.25789 0
M  V30 656 H 61.0481 -3.9 0.686703 0
M  V30 657 H 62.2221 -3.08153 3.42605 0
M  V30 658 H 60.5371 -2.90022 2.98791 0
M  V30 659 H 63.1341 -5.16689 1.37611 0
M  V30 660 H 63.4771 -4.16298 -0.0112774 0
M  V30 661 H 64.0101 -3.63987 1.60495 0
M  V30 662 H 60.7491 -4.94408 4.30396 0
M  V30 663 H 60.2691 -5.38172 2.64823 0
M  V30 664 H 61.9481 -5.62987 3.18834 0
M  V30 665 N 62.0802 -0.821533 -1.34494 0
M  V30 666 C 63.3292 -0.405355 -1.97585 0
M  V30 667 C 63.6422 1.03677 -1.65863 0
M  V30 668 O 64.8482 1.55679 -2.22433 0
M  V30 669 C 63.3042 -0.673861 -3.53535 0
M  V30 670 C 62.9122 -2.12951 -3.94152 0
M  V30 671 C 64.6562 -0.32378 -4.23263 0
M  V30 672 C 62.5632 -2.34298 -5.43009 0
M  V30 673 H 61.4932 -0.147836 -0.739365 0
M  V30 674 H 64.1442 -1.00769 -1.53355 0
M  V30 675 H 62.5262 -0.00137554 -3.96 0
M  V30 676 H 63.7002 -2.84104 -3.62797 0
M  V30 677 H 62.0152 -2.44089 -3.37356 0
M  V30 678 H 64.6122 -0.461126 -5.32708 0
M  V30 679 H 64.9552 0.731586 -4.09821 0
M  V30 680 H 65.4882 -0.950786 -3.8627 0
M  V30 681 H 62.2272 -3.38335 -5.61435 0
M  V30 682 H 61.7472 -1.67687 -5.75883 0
M  V30 683 H 63.4262 -2.16588 -6.09671 0
M  V30 684 N 63.5583 1.46682 -0.576371 0
M  V30 685 C 64.9743 1.57822 -0.237562 0
M  V30 686 C 65.1743 1.57237 1.26011 0
M  V30 687 O 64.2303 1.48596 2.04146 0
M  V30 688 C 65.5433 2.87499 -0.881168 0
M  V30 689 C 67.0913 3.01119 -0.85417 0
M  V30 690 C 67.5663 4.33524 -1.4772 0
M  V30 691 N 69.0573 4.40207 -1.44125 0
M  V30 692 C 69.7923 5.4126 -1.89276 0
M  V30 693 N 69.2883 6.49021 -2.42371 0
M  V30 694 N 71.0813 5.32422 -1.80231 0
M  V30 695 H 63.2323 1.45306 -1.54919 0
M  V30 696 H 65.4953 0.692733 -0.647167 0
M  V30 697 H 65.2013 2.9372 -1.93447 0
M  V30 698 H 65.0753 3.75224 -0.385592 0
M  V30 699 H 67.4623 2.94485 0.190491 0
M  V30 700 H 67.5433 2.14887 -1.3877 0
M  V30 701 H 67.1873 4.40916 -2.52103 0
M  V30 702 H 67.1173 5.1852 -0.918947 0
M  V30 703 H 69.6083 3.62931 -1.05307 0
M  V30 704 H 69.9213 7.2233 -2.74698 0
M  V30 705 H 68.2663 6.49858 -2.46393 0
M  V30 706 H 71.4573 4.47137 -1.38514 0
M  V30 707 H 71.6303 6.11034 -2.15735 0
M  V30 708 N 65.0364 0.313813 1.54444 0
M  V30 709 C 65.9844 -0.572171 2.25453 0
M  V30 710 C 66.9784 -1.12657 1.2651 0
M  V30 711 O 68.1844 -1.07573 1.44319 0
M  V30 712 H 64.5594 -0.203146 0.724041 0
M  V30 713 H 66.5304 0.0491145 2.9836 0
M  V30 714 C 65.2794 -1.72626 3.0182 0
M  V30 715 H 64.6024 -1.30891 3.77767 0
M  V30 716 H 66.0424 -2.32199 3.54767 0
M  V30 717 C 64.5014 -2.63806 2.09542 0
M  V30 718 O 65.0314 -3.65256 1.67185 0
M  V30 719 N 63.2374 -2.31824 1.75232 0
M  V30 720 H 62.7844 -1.49368 2.09873 0
M  V30 721 H 62.7424 -2.93095 1.13767 0
M  V30 722 N 66.5145 -1.57545 0.0417849 0
M  V30 723 C 67.7605 -1.92601 -0.635021 0
M  V30 724 C 68.0935 -0.919627 -1.71045 0
M  V30 725 O 67.3685 0.0557892 -1.9442 0
M  V30 726 C 67.6515 -3.38085 -1.23979 0
M  V30 727 C 67.5045 -4.49467 -0.173057 0
M  V30 728 C 68.8235 -3.83776 -2.15416 0
M  V30 729 H 65.9425 -0.700397 -0.229374 0
M  V30 730 H 68.5845 -1.89728 0.101633 0
M  V30 731 H 66.7345 -3.40664 -1.86762 0
M  V30 732 H 68.4065 -4.59018 0.458312 0
M  V30 733 H 66.6495 -4.30909 0.499996 0
M  V30 734 H 67.3205 -5.48323 -0.636054 0
M  V30 735 H 69.7965 -3.83013 -1.62605 0
M  V30 736 H 68.6725 -4.8624 -2.54679 0
M  V30 737 H 68.9335 -3.19998 -3.05047 0
M  V30 738 N 67.9926 0.231505 -1.5589 0
M  V30 739 C 68.9396 1.28682 -1.91598 0
M  V30 740 C 69.9096 1.47071 -0.771974 0
M  V30 741 O 71.0946 1.60802 -1.027 0
M  V30 742 C 68.2346 2.6342 -2.22944 0
M  V30 743 C 67.3476 2.52912 -3.50228 0
M  V30 744 C 66.4826 3.80106 -3.7107 0
M  V30 745 C 65.5216 3.64279 -4.91902 0
M  V30 746 N 64.6586 4.834 -5.09184 0
M  V30 747 H 69.4986 0.975305 -2.81588 0
M  V30 748 H 67.0356 0.470299 -1.39379 0
M  V30 749 H 68.9936 3.41869 -2.39126 0
M  V30 750 H 67.6236 2.92687 -1.36139 0
M  V30 751 H 66.6756 1.6595 -3.42294 0
M  V30 752 H 67.9876 2.37133 -4.38827 0
M  V30 753 H 67.1416 4.66999 -3.87295 0
M  V30 754 H 65.8806 3.98799 -2.80733 0
M  V30 755 H 64.8856 2.7577 -4.75637 0
M  V30 756 H 66.1106 3.47067 -5.83714 0
M  V30 757 H 64.0566 5.02425 -4.21788 0
M  V30 758 H 63.9736 4.70311 -5.91898 0
M  V30 759 H 65.2416 5.71747 -5.29835 0
M  V30 760 N 69.4707 1.49531 0.497807 0
M  V30 761 C 70.7187 1.58865 1.24926 0
M  V30 762 C 71.0397 0.278721 1.92998 0
M  V30 763 O 70.3097 -0.702144 1.82885 0
M  V30 764 H 68.8897 0.585343 0.464094 0
M  V30 765 H 71.5517 1.86174 0.57666 0
M  V30 766 H 70.6477 2.38633 2.01149 0
M  V30 767 N 70.9488 -0.749086 1.3866 0
M  V30 768 C 72.3598 -1.32664 1.31366 0
M  V30 769 C 72.7108 -1.96179 -0.028484 0
M  V30 770 O 71.8358 -1.9537 -0.93057 0
M  V30 771 C 72.4308 -2.41219 2.37905 0
M  V30 772 C 70.9898 -2.94684 2.34176 0
M  V30 773 C 70.1368 -1.68108 2.20533 0
M  V30 774 H 73.0878 -0.547628 1.48952 0
M  V30 775 H 73.1088 -3.21268 2.0388 0
M  V30 776 H 72.6208 -1.94962 3.35576 0
M  V30 777 H 70.7218 -3.45258 1.401 0
M  V30 778 H 70.8348 -3.48757 3.2849 0
M  V30 779 H 69.1988 -1.91907 1.67463 0
M  V30 780 H 69.9818 -1.23923 3.20153 0
M  V30 781 N 72.4269 -1.23603 -0.977757 0
M  V30 782 C 73.6729 -1.07129 -1.72195 0
M  V30 783 C 74.0059 0.390501 -1.90233 0
M  V30 784 O 73.2809 1.28902 -1.45653 0
M  V30 785 C 73.5639 -1.80031 -3.11867 0
M  V30 786 C 73.4169 -3.33899 -3.01383 0
M  V30 787 C 74.7359 -1.56492 -4.11337 0
M  V30 788 H 71.8549 -0.390571 -0.624999 0
M  V30 789 H 74.4969 -1.52142 -1.13811 0
M  V30 790 H 72.6469 -1.41768 -3.6171 0
M  V30 791 H 74.3189 -3.81699 -2.59043 0
M  V30 792 H 72.5619 -3.62796 -2.37827 0
M  V30 793 H 73.2329 -3.801 -4.00285 0
M  V30 794 H 75.7089 -1.89757 -3.70313 0
M  V30 795 H 74.5849 -2.09973 -5.07151 0
M  V30 796 H 74.8459 -0.500874 -4.39254 0
M  V30 797 N 73.905 1.17692 -1.04816 0
M  V30 798 C 75.321 1.39863 -0.768794 0
M  V30 799 C 75.521 1.91118 0.638451 0
M  V30 800 O 74.577 2.10036 1.40146 0
M  V30 801 C 75.89 2.39274 -1.82122 0
M  V30 802 C 77.438 2.52987 -1.843 0
M  V30 803 C 77.913 3.55669 -2.88555 0
M  V30 804 N 79.404 3.63183 -2.87493 0
M  V30 805 C 80.139 4.42381 -3.64811 0
M  V30 806 N 79.635 5.25125 -4.51903 0
M  V30 807 N 81.428 4.37217 -3.53267 0
M  V30 808 H 73.579 0.82752 -1.95617 0
M  V30 809 H 75.842 0.426123 -0.846831 0
M  V30 810 H 75.548 2.08678 -2.83102 0
M  V30 811 H 75.422 3.38725 -1.65967 0
M  V30 812 H 77.809 2.82896 -0.839869 0
M  V30 813 H 77.89 1.53623 -2.04532 0
M  V30 814 H 77.534 3.26499 -3.89051 0
M  V30 815 H 77.464 4.54728 -2.65575 0
M  V30 816 H 79.955 3.04103 -2.24343 0
M  V30 817 H 80.268 5.82728 -5.07591 0
M  V30 818 H 78.613 5.24519 -4.55966 0
M  V30 819 H 81.804 3.71626 -2.84625 0
M  V30 820 H 81.977 4.98696 -4.13771 0
M  V30 821 N 75.3831 0.828654 1.34056 0
M  V30 822 C 76.2931 0.256725 2.33191 0
M  V30 823 C 77.3091 -0.611898 1.62886 0
M  V30 824 O 78.4851 -0.51844 1.94613 0
M  V30 825 C 75.5501 -0.567238 3.42028 0
M  V30 826 C 74.6111 0.324458 4.28072 0
M  V30 827 C 73.8441 -0.460274 5.31712 0
M  V30 828 O 74.0671 -1.693 5.44696 0
M  V30 829 O 73.0011 0.160391 6.01686 0
M  V30 830 H 76.8271 1.07739 2.83947 0
M  V30 831 H 74.4121 0.59093 1.37217 0
M  V30 832 H 76.2941 -1.03582 4.08471 0
M  V30 833 H 74.9691 -1.36513 2.93506 0
M  V30 834 H 73.8761 0.840659 3.64532 0
M  V30 835 H 75.2091 1.08685 4.8005 0
M  V30 836 N 76.8612 -1.46375 0.584142 0
M  V30 837 C 78.1092 -2.01978 0.0701287 0
M  V30 838 C 78.4302 -1.4579 -1.295 0
M  V30 839 O 77.7002 -0.64314 -1.85042 0
M  V30 840 H 76.2802 -0.746648 0.0229345 0
M  V30 841 H 78.9422 -1.79461 0.760245 0
M  V30 842 H 78.0382 -3.121 0.0022064 0
M  V30 843 N 78.3393 -0.321999 -1.54275 0
M  V30 844 C 79.6163 0.335232 -1.92706 0
M  V30 845 C 79.9963 1.70006 -1.25145 0
M  V30 846 O 79.3443 2.25067 -0.394596 0
M  V30 847 C 79.5543 0.429008 -3.46353 0
M  V30 848 C 80.9023 0.690029 -4.18956 0
M  V30 849 O 81.9263 0.511992 -3.52501 0
M  V30 850 O 80.7853 1.03338 -5.36641 0
M  V30 851 H 77.8793 0.191143 -0.804608 0
M  V30 852 H 80.4253 -0.3716 -1.65581 0
M  V30 853 H 79.1973 -0.529611 -3.87699 0
M  V30 854 H 78.8203 1.18348 -3.79578 0
M  V30 855 N 79.8174 1.5752 -0.0501392 0
M  V30 856 C 81.0634 1.92936 0.624798 0
M  V30 857 C 81.3964 0.928685 1.70555 0
M  V30 858 O 80.6714 -0.0454779 1.94447 0
M  V30 859 C 80.9544 3.38737 1.22185 0
M  V30 860 C 80.8074 4.49552 0.149218 0
M  V30 861 C 82.1264 3.84913 2.13378 0
M  V30 862 H 79.2454 0.701604 0.225657 0
M  V30 863 H 81.8874 1.89671 -0.111693 0
M  V30 864 H 80.0374 3.4165 1.84953 0
M  V30 865 H 81.7094 4.58768 -0.482648 0
M  V30 866 H 79.9524 4.30638 -0.522841 0
M  V30 867 H 80.6234 5.48653 0.606966 0
M  V30 868 H 83.0994 3.8387 1.60572 0
M  V30 869 H 81.9754 4.87584 2.52097 0
M  V30 870 H 82.2364 3.21611 3.03346 0
M  V30 871 N 81.2955 -0.223234 1.56011 0
M  V30 872 C 82.2255 -1.27988 1.95298 0
M  V30 873 C 83.2065 -1.48976 0.820979 0
M  V30 874 O 84.3915 -1.61188 1.08315 0
M  V30 875 C 81.5215 -2.63 2.26822 0
M  V30 876 C 80.4755 -2.56671 3.42497 0
M  V30 877 C 79.8015 -3.95697 3.59622 0
M  V30 878 C 81.1015 -2.11601 4.77517 0
M  V30 879 H 82.7955 -0.953525 2.8381 0
M  V30 880 H 80.3415 -0.457244 1.36548 0
M  V30 881 H 82.2945 -3.37077 2.52898 0
M  V30 882 H 81.0185 -2.9732 1.35161 0
M  V30 883 H 79.6775 -1.85051 3.16467 0
M  V30 884 H 79.3255 -4.27322 2.6534 0
M  V30 885 H 79.0255 -3.92345 4.37424 0
M  V30 886 H 80.5495 -4.71438 3.88044 0
M  V30 887 H 81.9635 -2.7542 5.02809 0
M  V30 888 H 80.3605 -2.19311 5.5859 0
M  V30 889 H 81.4305 -1.06824 4.72987 0
M  V30 890 N 82.7736 -1.49793 -0.48987 0
M  V30 891 C 84.0016 -1.63568 -1.26701 0
M  V30 892 C 84.4166 -0.311465 -1.86213 0
M  V30 893 O 83.7736 0.704416 -1.68357 0
M  V30 894 C 83.8246 -2.71284 -2.38929 0
M  V30 895 O 83.5456 -3.9857 -1.81861 0
M  V30 896 C 85.0466 -2.95864 -3.3012 0
M  V30 897 H 82.2666 -0.550342 -0.383881 0
M  V30 898 H 84.8106 -1.95898 -0.586864 0
M  V30 899 H 82.9656 -2.417 -3.02753 0
M  V30 900 H 83.3796 -4.57993 -2.55622 0
M  V30 901 H 84.8536 -3.74941 -4.05121 0
M  V30 902 H 85.3306 -2.06206 -3.87783 0
M  V30 903 H 85.9366 -3.26907 -2.72051 0
M  V30 904 N 84.2517 0.741722 -1.39055 0
M  V30 905 C 85.1817 1.869 -1.39966 0
M  V30 906 C 86.1627 1.6804 -0.26392 0
M  V30 907 O 87.3477 1.88458 -0.468755 0
M  V30 908 C 84.4777 3.24572 -1.23574 0
M  V30 909 C 83.4317 3.58056 -2.34477 0
M  V30 910 C 82.7577 4.94593 -2.0318 0
M  V30 911 C 84.0577 3.61716 -3.76774 0
M  V30 912 H 85.7517 1.86395 -2.34302 0
M  V30 913 H 83.2977 0.895361 -1.1278 0
M  V30 914 H 85.2507 4.031 -1.22834 0
M  V30 915 H 83.9747 3.25587 -0.257045 0
M  V30 916 H 82.6337 2.81854 -2.34423 0
M  V30 917 H 82.2817 4.92181 -1.03765 0
M  V30 918 H 81.9817 5.17964 -2.77465 0
M  V30 919 H 83.5057 5.75486 -2.04079 0
M  V30 920 H 84.9197 4.30335 -3.78794 0
M  V30 921 H 83.3167 3.96603 -4.50362 0
M  V30 922 H 84.3867 2.61672 -4.08235 0
M  V30 923 N 85.7298 1.2412 0.971189 0
M  V30 924 C 86.6598 1.05508 2.08304 0
M  V30 925 C 87.6408 -0.0308864 1.70072 0
M  V30 926 O 88.8258 0.135521 1.93727 0
M  V30 927 C 85.9558 0.655365 3.4106 0
M  V30 928 C 84.9098 1.68971 3.93234 0
M  V30 929 C 84.2358 1.14516 5.22293 0
M  V30 930 C 85.5358 3.08487 4.21465 0
M  V30 931 H 87.2298 1.98507 2.24132 0
M  V30 932 H 84.7758 0.955821 1.07704 0
M  V30 933 H 86.7288 0.51217 4.18276 0
M  V30 934 H 85.4528 -0.31032 3.25122 0
M  V30 935 H 84.1118 1.82106 3.18171 0
M  V30 936 H 83.7598 0.170189 5.02712 0
M  V30 937 H 83.4598 1.83635 5.58168 0
M  V30 938 H 84.9838 1.01401 6.02121 0
M  V30 939 H 86.3978 2.98601 4.89398 0
M  V30 940 H 84.7948 3.74926 4.68562 0
M  V30 941 H 85.8648 3.56787 3.28376 0
M  V30 942 N 87.2079 -1.17134 1.05439 0
M  V30 943 C 88.1179 -2.24878 0.668365 0
M  V30 944 C 89.1339 -1.71186 -0.311687 0
M  V30 945 O 90.3099 -2.00738 -0.163161 0
M  V30 946 C 87.3749 -3.46662 0.051648 0
M  V30 947 C 86.4359 -4.15429 1.08246 0
M  V30 948 C 85.6689 -5.31399 0.495082 0
M  V30 949 O 85.8919 -5.66153 -0.694743 0
M  V30 950 O 84.8259 -5.89187 1.23056 0
M  V30 951 H 88.6519 -2.60189 1.56637 0
M  V30 952 H 86.2369 -1.24482 0.826104 0
M  V30 953 H 88.1189 -4.20394 -0.290966 0
M  V30 954 H 86.7939 -3.13142 -0.819971 0
M  V30 955 H 85.7009 -3.43704 1.47711 0
M  V30 956 H 87.0339 -4.52982 1.92532 0
M  V30 957 N 88.686 -0.835752 -1.33615 0
M  V30 958 C 89.911 -0.442389 -2.02627 0
M  V30 959 C 90.336 0.947735 -1.62479 0
M  V30 960 O 89.694 1.61907 -0.815826 0
M  V30 961 C 89.742 -0.567216 -3.56111 0
M  V30 962 O 88.846 0.407799 -4.10379 0
M  V30 963 H 88.187 -0.180278 -0.639059 0
M  V30 964 H 90.717 -1.12972 -1.70583 0
M  V30 965 H 90.727 -0.447708 -4.05536 0
M  V30 966 H 89.402 -1.58103 -3.84677 0
M  V30 967 H 87.979 0.246107 -3.72087 0
M  V30 968 N 90.1641 1.46063 -0.591896 0
M  V30 969 C 91.0741 2.34192 0.13831 0
M  V30 970 C 92.0901 1.50305 0.876608 0
M  V30 971 O 93.2661 1.8315 0.837728 0
M  V30 972 C 90.3311 3.27656 1.13326 0
M  V30 973 C 89.3921 4.27445 0.39863 0
M  V30 974 C 88.6251 5.16443 1.34618 0
M  V30 975 O 88.8481 5.08553 2.58321 0
M  V30 976 O 87.7821 5.95843 0.851768 0
M  V30 977 H 91.6081 2.98002 -0.58552 0
M  V30 978 H 89.1931 1.45188 -0.352239 0
M  V30 979 H 91.0751 3.85291 1.70671 0
M  V30 980 H 89.7501 2.6643 1.83839 0
M  V30 981 H 88.6571 3.73471 -0.216895 0
M  V30 982 H 89.9901 4.91482 -0.265709 0
M  V30 983 N 91.6422 0.330177 1.54103 0
M  V30 984 C 93.0582 -0.0222371 1.59585 0
M  V30 985 C 93.2582 -1.49902 1.34654 0
M  V30 986 O 92.3142 -2.25592 1.13421 0
M  V30 987 C 93.6272 0.401932 2.98002 0
M  V30 988 C 95.1752 0.353145 3.11001 0
M  V30 989 C 95.6502 0.752576 4.51775 0
M  V30 990 N 97.1412 0.706239 4.57784 0
M  V30 991 C 97.8762 0.987417 5.64834 0
M  V30 992 N 97.3722 1.33607 6.79795 0
M  V30 993 N 99.1652 0.91254 5.54643 0
M  V30 994 H 91.3162 1.29228 1.68564 0
M  V30 995 H 93.5792 0.525906 0.78875 0
M  V30 996 H 93.2852 1.4311 3.21267 0
M  V30 997 H 93.1592 -0.229699 3.765 0
M  V30 998 H 95.5462 -0.666822 2.87467 0
M  V30 999 H 95.6272 1.0198 2.34593 0
M  V30 1000 H 95.2712 1.77049 4.76042 0
M  V30 1001 H 95.2012 0.0635409 5.26562 0
M  V30 1002 H 97.6922 0.44889 3.75224 0
M  V30 1003 H 98.0052 1.53582 7.57385 0
M  V30 1004 H 96.3502 1.37439 6.81275 0
M  V30 1005 H 99.5412 0.639601 4.6371 0
M  V30 1006 H 99.7142 1.13503 6.37982 0
M  V30 1007 N 93.1203 -1.57491 0.0584922 0
M  V30 1008 C 94.0303 -2.15448 -0.928414 0
M  V30 1009 C 95.0463 -1.11416 -1.3365 0
M  V30 1010 O 96.2223 -1.4362 -1.41193 0
M  V30 1011 C 93.2873 -2.69393 -2.18239 0
M  V30 1012 C 92.3483 -3.88249 -1.83196 0
M  V30 1013 C 91.5813 -4.39613 -3.02616 0
M  V30 1014 O 91.8043 -3.90023 -4.16219 0
M  V30 1015 O 90.7383 -5.31111 -2.83204 0
M  V30 1016 H 94.5643 -3.00112 -0.465483 0
M  V30 1017 H 92.1493 -1.48499 -0.163826 0
M  V30 1018 H 94.0313 -3.04026 -2.91798 0
M  V30 1019 H 92.7063 -1.87796 -2.63656 0
M  V30 1020 H 91.6133 -3.58492 -1.06931 0
M  V30 1021 H 92.9463 -4.71098 -1.42573 0
M  V30 1022 N 94.5984 0.214957 -1.56127 0
M  V30 1023 C 95.5614 1.24997 -1.92116 0
M  V30 1024 C 96.5614 1.39467 -0.800344 0
M  V30 1025 O 97.7514 1.37619 -1.06802 0
M  V30 1026 C 94.8834 2.62271 -2.17777 0
M  V30 1027 H 96.0764 0.942875 -2.84693 0
M  V30 1028 H 93.6294 0.455654 -1.49511 0
M  V30 1029 H 94.3644 2.98068 -1.27773 0
M  V30 1030 H 94.1494 2.53143 -2.99434 0
M  V30 1031 H 95.6394 3.36946 -2.46693 0
M  V30 1032 N 96.0765 1.50051 0.48192 0
M  V30 1033 C 97.4925 1.37237 0.814756 0
M  V30 1034 C 97.6925 0.420109 1.97072 0
M  V30 1035 O 96.7485 -0.141246 2.52105 0
M  V30 1036 C 98.0615 2.78375 1.13701 0
M  V30 1037 C 99.6095 2.87213 1.2441 0
M  V30 1038 C 100.084 4.29161 1.59954 0
M  V30 1039 N 101.575 4.32061 1.66967 0
M  V30 1040 C 102.31 5.38879 1.95952 0
M  V30 1041 N 101.806 6.55918 2.23031 0
M  V30 1042 N 103.599 5.26312 1.97363 0
M  V30 1043 H 95.7505 2.10546 -0.28005 0
M  V30 1044 H 98.0135 0.945921 -0.0627454 0
M  V30 1045 H 97.7195 3.49845 0.360787 0
M  V30 1046 H 97.5935 3.14941 2.07586 0
M  V30 1047 H 99.9805 2.15969 2.01101 0
M  V30 1048 H 100.061 2.54204 0.285299 0
M  V30 1049 H 99.7055 5.00938 0.838067 0
M  V30 1050 H 99.6355 4.59648 2.56966 0
M  V30 1051 H 102.126 3.47661 1.48123 0
M  V30 1052 H 102.439 7.33139 2.44391 0
M  V30 1053 H 100.784 6.59112 2.20447 0
M  V30 1054 H 103.975 4.33876 1.75697 0
M  V30 1055 H 104.148 6.09649 2.19618 0
M  V30 1056 N 97.5546 -0.734337 1.39446 0
M  V30 1057 C 98.9706 -1.03997 1.21065 0
M  V30 1058 C 99.1706 -2.01369 0.0727019 0
M  V30 1059 O 98.2266 -2.45856 -0.575426 0
M  V30 1060 C 99.5396 -1.60163 2.54496 0
M  V30 1061 C 101.088 -1.7224 2.61347 0
M  V30 1062 C 101.563 -2.31814 3.95002 0
M  V30 1063 N 103.054 -2.39223 3.96644 0
M  V30 1064 C 103.789 -2.86258 4.96834 0
M  V30 1065 N 103.285 -3.33184 6.07421 0
M  V30 1066 N 105.078 -2.85473 4.84213 0
M  V30 1067 H 97.2286 -0.0885624 2.12215 0
M  V30 1068 H 99.4916 -0.10191 0.942506 0
M  V30 1069 H 99.1976 -0.960811 3.38321 0
M  V30 1070 H 99.0716 -2.5896 2.74262 0
M  V30 1071 H 101.459 -2.35443 1.77906 0
M  V30 1072 H 101.54 -0.720939 2.4543 0
M  V30 1073 H 101.184 -1.69238 4.78875 0
M  V30 1074 H 101.114 -3.32638 4.08239 0
M  V30 1075 H 103.605 -2.06057 3.16779 0
M  V30 1076 H 103.918 -3.67586 6.7978 0
M  V30 1077 H 102.263 -3.31191 6.11013 0
M  V30 1078 H 105.454 -2.48136 3.96921 0
M  V30 1079 H 105.627 -3.21814 5.62441 0
M  V30 1080 N 99.0327 -1.24633 -0.964593 0
M  V30 1081 C 99.9627 -1.06611 -2.07741 0
M  V30 1082 C 100.944 0.0218666 -1.70086 0
M  V30 1083 O 102.129 -0.145793 -1.93652 0
M  V30 1084 C 99.2587 -0.673444 -3.40708 0
M  V30 1085 C 98.2127 -1.71054 -3.92332 0
M  V30 1086 C 97.5387 -1.17285 -5.21678 0
M  V30 1087 C 98.8387 -3.10718 -4.19824 0
M  V30 1088 H 100.533 -1.99693 -2.23076 0
M  V30 1089 H 98.0787 -0.96152 -1.07195 0
M  V30 1090 H 100.032 -0.534345 -4.17998 0
M  V30 1091 H 98.7557 0.293073 -3.25282 0
M  V30 1092 H 97.4147 -1.83791 -3.17201 0
M  V30 1093 H 97.0627 -0.196847 -5.02615 0
M  V30 1094 H 96.7627 -1.86592 -5.57187 0
M  V30 1095 H 98.2867 -1.04593 -6.01575 0
M  V30 1096 H 99.7007 -3.01192 -4.87808 0
M  V30 1097 H 98.0977 -3.77406 -4.66567 0
M  V30 1098 H 99.1677 -3.58524 -3.26479 0
M  V30 1099 N 100.511 1.16574 -1.06058 0
M  V30 1100 C 101.927 1.3904 -0.783585 0
M  V30 1101 C 102.127 1.91784 0.618145 0
M  V30 1102 O 101.183 2.11511 1.37911 0
M  V30 1103 C 102.496 2.37329 -1.84649 0
M  V30 1104 C 104.044 2.51018 -1.86973 0
M  V30 1105 C 104.519 3.52588 -2.92311 0
M  V30 1106 N 106.01 3.60113 -2.91329 0
M  V30 1107 C 106.745 4.38486 -3.69482 0
M  V30 1108 N 106.241 5.20302 -4.57447 0
M  V30 1109 N 108.034 4.33446 -3.57885 0
M  V30 1110 H 100.185 0.806725 -1.96483 0
M  V30 1111 H 102.448 0.417117 -0.851303 0
M  V30 1112 H 102.154 2.05663 -2.85299 0
M  V30 1113 H 102.028 3.36946 -1.6955 0
M  V30 1114 H 104.415 2.81989 -0.869827 0
M  V30 1115 H 104.496 1.51445 -2.0615 0
M  V30 1116 H 104.14 3.22354 -3.92492 0
M  V30 1117 H 104.07 4.51886 -2.70383 0
M  V30 1118 H 106.561 3.01707 -2.27555 0
M  V30 1119 H 106.874 5.77311 -5.13743 0
M  V30 1120 H 105.219 5.19653 -4.61503 0
M  V30 1121 H 108.41 3.68586 -2.88551 0
M  V30 1122 H 108.583 4.94279 -4.19037 0
M  V30 1123 O 102.028 0.977372 1.28568 0
M  V30 1124 H 102.719 0.620331 1.83498 0
M  V30 END ATOM
M  V30 BEGIN BOND
M  V30 END BOND
M  V30 END CTAB
M  END
$$$$
