drugbank_target|Q92696 Geranylgeranyl transferase type-2 subunit alpha (DB04464; DB07780; DB07841)
 OpenBabel12092120463D

  0  0  0     0  0            999 V3000
M  V30 BEGIN CTAB
M  V30 COUNTS 9160 9257 0 0 0
M  V30 BEGIN ATOM
M  V30 1 H -0.908 1.98254 -0.117106 0
M  V30 2 N 0 1.576 0 0
M  V30 3 C 0.933 2.03868 1.02534 0
M  V30 4 C 1.911 0.928543 1.3348 0
M  V30 5 O 3.095 1.19667 1.45644 0
M  V30 6 C 0.222 2.43627 2.35294 0
M  V30 7 C -0.732 3.65373 2.2001 0
M  V30 8 S 0.101 5.13292 1.52614 0
M  V30 9 C 1.257 5.56322 2.86805 0
M  V30 10 H 1.49 2.90518 0.631377 0
M  V30 11 H -0.977 1.52953 0.210867 0
M  V30 12 H 0.981 2.67203 3.11629 0
M  V30 13 H -0.358 1.57376 2.7183 0
M  V30 14 H -1.165 3.90944 3.18086 0
M  V30 15 H -1.563 3.418 1.51819 0
M  V30 16 H 0.729 5.58782 3.83104 0
M  V30 17 H 1.672 6.56266 2.65933 0
M  V30 18 H 2.08 4.83886 2.90714 0
M  V30 19 N 1.4781 -0.272755 1.55222 0
M  V30 20 C 2.4281 -1.33946 1.84506 0
M  V30 21 C 3.4121 -1.44682 0.70399 0
M  V30 22 O 4.6041 -1.48358 0.965338 0
M  V30 23 C 1.7331 -2.69968 2.12067 0
M  V30 24 C 0.8191 -2.63341 3.32434 0
M  V30 25 N 1.2101 -2.26335 4.52334 0
M  V30 26 C -0.4919 -2.94402 3.35028 0
M  V30 27 C 0.2091 -2.29705 5.34425 0
M  V30 28 N -0.8149 -2.68188 4.72838 0
M  V30 29 H 2.9871 -1.04343 2.74754 0
M  V30 30 H 0.5011 -0.481389 1.55101 0
M  V30 31 H 2.4981 -3.46916 2.31202 0
M  V30 32 H 1.1581 -3.00459 1.23103 0
M  V30 33 H 2.1691 -1.98309 4.78429 0
M  V30 34 H -1.1539 -3.29603 2.56257 0
M  V30 35 H 0.2361 -2.03653 6.40293 0
M  V30 36 N 2.9562 -1.48159 -0.537278 0
M  V30 37 C 4.2042 -1.55497 -1.29094 0
M  V30 38 C 4.5252 -0.227454 -1.93669 0
M  V30 39 O 3.7952 0.750386 -1.80959 0
M  V30 40 H 2.3752 -0.572832 -0.47945 0
M  V30 41 H 5.0372 -1.84579 -0.625818 0
M  V30 42 H 4.1332 -2.33216 -2.07405 0
M  V30 43 N 4.4343 0.785586 -1.36625 0
M  V30 44 C 5.8503 1.08419 -1.17122 0
M  V30 45 C 6.0503 2.015 0.00208491 0
M  V30 46 O 5.1063 2.43551 0.666278 0
M  V30 47 C 6.4193 1.69498 -2.48377 0
M  V30 48 C 7.9673 1.81821 -2.54775 0
M  V30 49 C 8.4423 2.46315 -3.86126 0
M  V30 50 N 9.9333 2.53779 -3.87492 0
M  V30 51 C 10.6683 3.045 -4.85868 0
M  V30 52 N 10.1643 3.55499 -5.94637 0
M  V30 53 N 11.9573 3.03247 -4.73284 0
M  V30 54 H 4.1083 0.167264 -2.1174 0
M  V30 55 H 6.3713 0.13682 -0.938075 0
M  V30 56 H 6.0773 1.08571 -3.34522 0
M  V30 57 H 5.9513 2.6896 -2.64462 0
M  V30 58 H 8.3383 2.41884 -1.69045 0
M  V30 59 H 8.4193 0.811532 -2.42586 0
M  V30 60 H 8.0633 1.86895 -4.72263 0
M  V30 61 H 7.9933 3.47561 -3.95612 0
M  V30 62 H 10.4843 2.17672 -3.08913 0
M  V30 63 H 10.7973 3.92562 -6.65669 0
M  V30 64 H 9.1423 3.5364 -5.98301 0
M  V30 65 H 12.3333 2.62696 -3.87438 0
M  V30 66 H 12.5063 3.42467 -5.50109 0
M  V30 67 N 5.9124 1.20967 1.01018 0
M  V30 68 C 6.8424 0.988272 2.11555 0
M  V30 69 C 7.8234 -0.0849778 1.69888 0
M  V30 70 O 9.0084 0.0738202 1.9406 0
M  V30 71 C 6.1384 0.546528 3.42973 0
M  V30 72 C 5.0924 1.56375 3.9841 0
M  V30 73 C 4.4184 0.97842 5.25672 0
M  V30 74 C 5.7184 2.94922 4.31066 0
M  V30 75 H 7.4124 1.91276 2.30334 0
M  V30 76 H 4.9584 0.921073 1.1069 0
M  V30 77 H 6.9114 0.378839 4.19694 0
M  V30 78 H 5.6354 -0.413598 3.23971 0
M  V30 79 H 4.2944 1.71891 3.23804 0
M  V30 80 H 3.9424 0.0101688 5.02999 0
M  V30 81 H 3.6424 1.65784 5.63728 0
M  V30 82 H 5.1664 0.821939 6.05043 0
M  V30 83 H 6.5804 2.8288 4.9865 0
M  V30 84 H 4.9774 3.5983 4.80253 0
M  V30 85 H 6.0474 3.4616 3.39561 0
M  V30 86 N 7.3905 -1.2043 1.01659 0
M  V30 87 C 8.3375 -2.23215 0.586822 0
M  V30 88 C 9.3075 -1.61382 -0.393085 0
M  V30 89 O 10.4925 -1.88544 -0.292525 0
M  V30 90 C 7.6325 -3.45032 -0.0687464 0
M  V30 91 C 6.7455 -4.21296 0.955724 0
M  V30 92 C 5.8805 -5.30507 0.271208 0
M  V30 93 C 4.9195 -5.98515 1.28244 0
M  V30 94 N 4.0565 -6.99316 0.62459 0
M  V30 95 H 8.8965 -2.59336 1.46796 0
M  V30 96 H 6.4335 -1.27431 0.734836 0
M  V30 97 H 8.3915 -4.1459 -0.465965 0
M  V30 98 H 7.0215 -3.09604 -0.913529 0
M  V30 99 H 6.0735 -3.50803 1.4711 0
M  V30 100 H 7.3855 -4.6803 1.72479 0
M  V30 101 H 6.5395 -6.06428 -0.18151 0
M  V30 102 H 5.2785 -4.8481 -0.530163 0
M  V30 103 H 4.2835 -5.21355 1.74554 0
M  V30 104 H 5.5085 -6.46298 2.08509 0
M  V30 105 H 3.4545 -6.55812 -0.156914 0
M  V30 106 H 3.3715 -7.44178 1.33172 0
M  V30 107 H 4.6395 -7.79255 0.195462 0
M  V30 108 N 8.8686 -0.792821 -1.36206 0
M  V30 109 C 10.1146 -0.36733 -1.99446 0
M  V30 110 C 10.4476 1.05917 -1.62774 0
M  V30 111 O 9.7226 1.7324 -0.88421 0
M  V30 112 C 10.0056 -0.535044 -3.56103 0
M  V30 113 C 9.8586 -2.00548 -4.02617 0
M  V30 114 C 11.1776 0.0478191 -4.40074 0
M  V30 115 H 8.2966 -0.134941 -0.724541 0
M  V30 116 H 10.9386 -0.999794 -1.61568 0
M  V30 117 H 9.0886 0.00336329 -3.885 0
M  V30 118 H 10.7606 -2.60521 -3.80692 0
M  V30 119 H 9.0036 -2.50686 -3.54032 0
M  V30 120 H 9.6746 -2.07377 -5.11565 0
M  V30 121 H 12.1506 -0.411822 -4.14057 0
M  V30 122 H 11.0266 -0.0995336 -5.4881 0
M  V30 123 H 11.2876 1.14025 -4.27142 0
M  V30 124 N 10.3467 1.47872 -0.545128 0
M  V30 125 C 11.2937 2.29849 0.2093 0
M  V30 126 C 12.2637 1.38313 0.919707 0
M  V30 127 O 13.4487 1.67277 0.917772 0
M  V30 128 C 10.5887 3.22019 1.24088 0
M  V30 129 C 9.7017 4.2864 0.537778 0
M  V30 130 C 8.8367 5.07973 1.5536 0
M  V30 131 C 7.8757 6.06381 0.8348 0
M  V30 132 N 7.0127 6.78717 1.79688 0
M  V30 133 H 11.8527 2.93845 -0.49591 0
M  V30 134 H 9.3897 1.44848 -0.256389 0
M  V30 135 H 11.3477 3.73868 1.85144 0
M  V30 136 H 9.9777 2.59914 1.91428 0
M  V30 137 H 9.0297 3.7994 -0.187046 0
M  V30 138 H 10.3417 4.98793 -0.0258907 0
M  V30 139 H 9.4957 5.63912 2.23803 0
M  V30 140 H 8.2347 4.37693 2.15118 0
M  V30 141 H 7.2397 5.49631 0.136388 0
M  V30 142 H 8.4647 6.78665 0.24313 0
M  V30 143 H 6.4107 6.11177 2.38326 0
M  V30 144 H 6.3277 7.44998 1.28505 0
M  V30 145 H 7.5957 7.39237 2.47282 0
M  V30 146 N 11.8248 0.280983 1.55075 0
M  V30 147 C 13.0528 -0.337293 2.04132 0
M  V30 148 C 13.4678 -1.4903 1.15912 0
M  V30 149 O 12.8248 -1.81606 0.180459 0
M  V30 150 C 12.8758 -0.812706 3.52246 0
M  V30 151 O 12.5968 0.294387 4.3711 0
M  V30 152 C 14.0978 -1.4982 4.17216 0
M  V30 153 H 11.3178 -0.0761638 0.666663 0
M  V30 154 H 13.8618 0.414787 2.00249 0
M  V30 155 H 12.0168 -1.51486 3.56554 0
M  V30 156 H 12.4308 -0.0721325 5.2445 0
M  V30 157 H 13.9048 -1.7822 5.22438 0
M  V30 158 H 14.3818 -2.43168 3.65741 0
M  V30 159 H 14.9878 -0.839742 4.16927 0
M  V30 160 N 13.3029 -1.57598 0.00835791 0
M  V30 161 C 14.5279 -1.95617 -0.689103 0
M  V30 162 C 14.9529 -0.883753 -1.66046 0
M  V30 163 O 14.3109 0.157352 -1.80616 0
M  V30 164 C 14.3589 -3.32736 -1.38994 0
M  V30 165 O 13.4629 -3.27631 -2.50463 0
M  V30 166 H 12.8039 -0.638379 -0.182668 0
M  V30 167 H 15.3339 -2.045 0.064036 0
M  V30 168 H 15.3439 -3.68494 -1.75147 0
M  V30 169 H 14.0189 -4.1034 -0.677778 0
M  V30 170 H 12.5959 -3.03561 -2.16576 0
M  V30 171 N 14.781 0.264519 -1.55364 0
M  V30 172 C 15.691 1.34902 -1.91934 0
M  V30 173 C 16.707 1.53595 -0.817593 0
M  V30 174 O 17.883 1.67558 -1.11742 0
M  V30 175 C 14.948 2.68676 -2.19121 0
M  V30 176 C 14.009 2.58657 -3.4263 0
M  V30 177 C 13.242 3.86051 -3.68511 0
M  V30 178 O 13.465 4.87126 -2.96757 0
M  V30 179 O 12.399 3.85744 -4.62045 0
M  V30 180 H 16.225 1.06883 -2.8427 0
M  V30 181 H 13.81 0.463775 -1.42019 0
M  V30 182 H 15.692 3.47759 -2.37995 0
M  V30 183 H 14.367 2.96463 -1.29966 0
M  V30 184 H 13.274 1.7792 -3.29082 0
M  V30 185 H 14.607 2.35818 -4.32031 0
M  V30 186 N 16.2591 1.48442 0.529413 0
M  V30 187 C 17.1691 1.6569 1.66084 0
M  V30 188 C 18.1851 0.539432 1.65427 0
M  V30 189 O 19.3611 0.810572 1.84368 0
M  V30 190 C 16.4261 1.69315 3.02545 0
M  V30 191 C 15.4871 2.92694 3.14052 0
M  V30 192 C 14.7201 2.96137 4.44003 0
M  V30 193 O 14.9431 2.07973 5.31134 0
M  V30 194 O 13.8771 3.88312 4.59888 0
M  V30 195 H 17.7031 2.61483 1.54469 0
M  V30 196 H 15.2881 1.3185 0.702567 0
M  V30 197 H 17.1701 1.74217 3.83701 0
M  V30 198 H 15.8451 0.766966 3.14483 0
M  V30 199 H 14.7521 2.93324 2.32189 0
M  V30 200 H 16.0851 3.84699 3.0703 0
M  V30 201 N 17.7372 -0.778329 1.37039 0
M  V30 202 C 18.6692 -1.90034 1.2814 0
M  V30 203 C 19.6822 -1.61585 0.198558 0
M  V30 204 O 20.8712 -1.72625 0.454175 0
M  V30 205 C 17.9712 -3.25108 0.956968 0
M  V30 206 C 17.1442 -3.81253 2.14394 0
M  V30 207 C 16.2032 -4.94789 1.79082 0
M  V30 208 O 15.2292 -5.10721 2.51301 0
M  V30 209 N 16.4312 -5.75878 0.731043 0
M  V30 210 H 19.1962 -1.98186 2.24816 0
M  V30 211 H 16.7572 -0.957129 1.30578 0
M  V30 212 H 18.7492 -3.9857 0.701701 0
M  V30 213 H 17.3192 -3.125 0.0789812 0
M  V30 214 H 16.5392 -2.99647 2.56135 0
M  V30 215 H 17.8272 -4.15495 2.93668 0
M  V30 216 H 17.2252 -5.65547 0.131618 0
M  V30 217 H 15.7822 -6.49596 0.535622 0
M  V30 218 N 19.2153 -1.21501 -1.00376 0
M  V30 219 C 20.1783 -0.976927 -2.07337 0
M  V30 220 C 21.1783 0.0525322 -1.60714 0
M  V30 221 O 22.3683 -0.184869 -1.73216 0
M  V30 222 C 19.5003 -0.473423 -3.37597 0
M  V30 223 H 20.6933 -1.92587 -2.29892 0
M  V30 224 H 18.2463 -1.03217 -1.17371 0
M  V30 225 H 18.9813 0.480379 -3.20722 0
M  V30 226 H 18.7663 -1.216 -3.72768 0
M  V30 227 H 20.2563 -0.32675 -4.1632 0
M  V30 228 N 20.6934 1.19889 -1.02296 0
M  V30 229 C 21.6034 2.26571 -0.608508 0
M  V30 230 C 22.6194 1.70299 0.356964 0
M  V30 231 O 23.7954 2.00235 0.216326 0
M  V30 232 C 20.8604 3.46677 0.0402814 0
M  V30 233 C 19.9214 4.18153 -0.97194 0
M  V30 234 C 19.1544 5.32525 -0.354016 0
M  V30 235 O 19.3774 5.64112 0.844604 0
M  V30 236 O 18.3114 5.92242 -1.07391 0
M  V30 237 H 22.1374 2.64251 -1.49684 0
M  V30 238 H 19.7224 1.26629 -0.792809 0
M  V30 239 H 21.6044 4.19475 0.402324 0
M  V30 240 H 20.2794 3.10858 0.902707 0
M  V30 241 H 19.1864 3.47499 -1.38546 0
M  V30 242 H 20.5194 4.57927 -1.80454 0
M  V30 243 N 22.1715 0.800033 1.35784 0
M  V30 244 C 23.1345 0.211565 2.28221 0
M  V30 245 C 24.1345 -0.59728 1.49296 0
M  V30 246 O 25.3245 -0.416721 1.69142 0
M  V30 247 C 22.4565 -0.705846 3.33513 0
M  V30 248 H 23.6495 1.02677 2.81776 0
M  V30 249 H 21.2025 0.570211 1.45528 0
M  V30 250 H 21.9375 -1.54498 2.85133 0
M  V30 251 H 21.7225 -0.127655 3.91892 0
M  V30 252 H 23.2125 -1.11211 4.02519 0
M  V30 253 N 23.6496 -1.47581 0.552962 0
M  V30 254 C 24.5966 -2.29957 -0.197108 0
M  V30 255 C 25.5666 -1.38799 -0.912359 0
M  V30 256 O 26.7516 -1.67761 -0.908888 0
M  V30 257 C 23.8916 -3.22672 -1.22379 0
M  V30 258 C 23.0046 -4.28919 -0.515038 0
M  V30 259 C 22.1396 -5.0879 -1.52664 0
M  V30 260 C 21.1786 -6.06815 -0.802631 0
M  V30 261 N 20.3156 -6.7966 -1.76086 0
M  V30 262 H 25.1556 -2.93578 0.511486 0
M  V30 263 H 22.6926 -1.4471 0.264067 0
M  V30 264 H 24.6506 -3.74845 -1.83159 0
M  V30 265 H 23.2806 -2.60925 -1.90047 0
M  V30 266 H 22.3326 -3.79835 0.207192 0
M  V30 267 H 23.6446 -4.98773 0.0523425 0
M  V30 268 H 22.7986 -5.65091 -2.20809 0
M  V30 269 H 21.5376 -4.38828 -2.12794 0
M  V30 270 H 20.5426 -5.49695 -0.107238 0
M  V30 271 H 21.7676 -6.78784 -0.207135 0
M  V30 272 H 19.7136 -6.12432 -2.35081 0
M  V30 273 H 19.6306 -7.45669 -1.24552 0
M  V30 274 H 20.8986 -7.40538 -2.43359 0
M  V30 275 N 25.1277 -0.289203 -1.54924 0
M  V30 276 C 26.5437 0.0645403 -1.59469 0
M  V30 277 C 26.7437 1.53419 -1.30632 0
M  V30 278 O 25.7997 2.2852 -1.074 0
M  V30 279 C 27.1127 -0.32278 -2.98963 0
M  V30 280 C 28.6607 -0.270564 -3.11828 0
M  V30 281 C 29.1357 -0.632532 -4.53611 0
M  V30 282 N 30.6267 -0.584617 -4.59496 0
M  V30 283 C 31.3617 -0.837314 -5.67254 0
M  V30 284 N 30.8577 -1.15536 -6.83098 0
M  V30 285 N 32.6507 -0.765166 -5.56868 0
M  V30 286 H 24.8017 -1.24714 -1.71931 0
M  V30 287 H 27.0647 -0.504809 -0.802416 0
M  V30 288 H 26.7707 -1.34541 -3.24948 0
M  V30 289 H 26.6447 0.32944 -3.75759 0
M  V30 290 H 29.0317 0.742805 -2.85598 0
M  V30 291 H 29.1127 -0.957242 -2.37214 0
M  V30 292 H 28.7567 -1.64365 -4.80569 0
M  V30 293 H 28.6867 0.07609 -5.26545 0
M  V30 294 H 31.1777 -0.349248 -3.76283 0
M  V30 295 H 31.4907 -1.33447 -7.61191 0
M  V30 296 H 29.8357 -1.19328 -6.84679 0
M  V30 297 H 33.0267 -0.516432 -4.65243 0
M  V30 298 H 33.1997 -0.965477 -6.40767 0
M  V30 299 N 26.6058 1.57591 -0.0167156 0
M  V30 300 C 27.5358 2.12496 0.967858 0
M  V30 301 C 28.5168 1.03807 1.34752 0
M  V30 302 O 29.7018 1.31577 1.42833 0
M  V30 303 C 26.8318 2.64194 2.25431 0
M  V30 304 C 25.7858 3.77559 2.01576 0
M  V30 305 C 25.1118 4.15636 3.36379 0
M  V30 306 C 26.4118 5.04151 1.36489 0
M  V30 307 H 28.1058 2.95013 0.510643 0
M  V30 308 H 25.6518 1.41915 0.244181 0
M  V30 309 H 27.6048 3.01236 2.94678 0
M  V30 310 H 26.3288 1.78821 2.73296 0
M  V30 311 H 24.9878 3.40937 1.34751 0
M  V30 312 H 24.6358 3.27263 3.81979 0
M  V30 313 H 24.3358 4.92022 3.21229 0
M  V30 314 H 25.8598 4.5525 4.06915 0
M  V30 315 H 27.2738 5.38857 1.95718 0
M  V30 316 H 25.6708 5.85453 1.31776 0
M  V30 317 H 26.7408 4.83733 0.336219 0
M  V30 318 N 28.0839 -0.256276 1.55502 0
M  V30 319 C 28.9939 -1.33882 1.92647 0
M  V30 320 C 30.0099 -1.53159 0.825727 0
M  V30 321 O 31.1859 -1.66963 1.12629 0
M  V30 322 C 28.2509 -2.6751 2.20543 0
M  V30 323 C 27.3119 -2.56836 3.43997 0
M  V30 324 C 26.5449 -3.84092 3.70553 0
M  V30 325 O 26.7679 -4.85545 2.99336 0
M  V30 326 O 25.7019 -3.83288 4.64084 0
M  V30 327 H 29.5279 -1.05374 2.84833 0
M  V30 328 H 27.1129 -0.456237 1.42263 0
M  V30 329 H 28.9949 -3.46492 2.39835 0
M  V30 330 H 27.6699 -2.9577 1.31536 0
M  V30 331 H 26.5769 -1.76172 3.30021 0
M  V30 332 H 27.9099 -2.33523 4.33275 0
M  V30 333 N 29.562 -1.4872 -0.521534 0
M  V30 334 C 30.978 -1.35028 -0.850855 0
M  V30 335 C 31.178 -0.367712 -1.98116 0
M  V30 336 O 30.234 0.208037 -2.51642 0
M  V30 337 C 31.547 -2.75263 -1.21041 0
M  V30 338 C 33.095 -2.83813 -1.31981 0
M  V30 339 C 33.57 -4.24769 -1.71276 0
M  V30 340 N 35.061 -4.27482 -1.78363 0
M  V30 341 C 35.796 -5.33494 -2.1017 0
M  V30 342 N 35.292 -6.49775 -2.40343 0
M  V30 343 N 37.085 -5.20894 -2.11248 0
M  V30 344 H 29.236 -2.11214 0.22413 0
M  V30 345 H 31.499 -0.947252 0.0376439 0
M  V30 346 H 31.205 -3.48765 -0.453415 0
M  V30 347 H 31.079 -3.09327 -2.15863 0
M  V30 348 H 33.466 -2.10561 -2.06756 0
M  V30 349 H 33.547 -2.53358 -0.352596 0
M  V30 350 H 33.191 -4.9854 -0.970588 0
M  V30 351 H 33.121 -4.52673 -2.69062 0
M  V30 352 H 35.612 -3.43611 -1.57288 0
M  V30 353 H 35.925 -7.26402 -2.63743 0
M  V30 354 H 34.27 -6.53035 -2.37844 0
M  V30 355 H 37.461 -4.29065 -1.87139 0
M  V30 356 H 37.634 -6.03612 -2.35704 0
M  V30 357 N 31.0401 0.771051 -1.3745 0
M  V30 358 C 31.9501 1.91538 -1.35464 0
M  V30 359 C 32.9661 1.72134 -0.254123 0
M  V30 360 O 34.1421 1.95358 -0.489626 0
M  V30 361 C 31.2071 3.26671 -1.16134 0
M  V30 362 C 30.2681 3.58723 -2.35831 0
M  V30 363 C 29.5011 4.87409 -2.17413 0
M  V30 364 O 29.7241 5.58506 -1.15876 0
M  V30 365 O 28.6581 5.18539 -3.05615 0
M  V30 366 H 32.4841 1.96165 -2.31847 0
M  V30 367 H 30.0691 0.9139 -1.18187 0
M  V30 368 H 31.9511 4.07499 -1.07345 0
M  V30 369 H 30.6261 3.22894 -0.228251 0
M  V30 370 H 29.5331 2.78127 -2.50192 0
M  V30 371 H 30.8661 3.67243 -3.27709 0
M  V30 372 N 32.5182 1.22032 0.997298 0
M  V30 373 C 33.4502 0.944263 2.08845 0
M  V30 374 C 34.4632 -0.0754663 1.62625 0
M  V30 375 O 35.6522 0.157994 1.77799 0
M  V30 376 C 32.7522 0.397723 3.36558 0
M  V30 377 C 31.9252 1.47362 4.11829 0
M  V30 378 C 30.9842 0.934951 5.17827 0
M  V30 379 O 30.0102 1.62016 5.45655 0
M  V30 380 N 31.2122 -0.245895 5.79979 0
M  V30 381 H 33.9772 1.88363 2.33109 0
M  V30 382 H 31.5382 1.12661 1.16272 0
M  V30 383 H 33.5302 0.0227771 4.04694 0
M  V30 384 H 32.1002 -0.446646 3.09393 0
M  V30 385 H 31.3202 2.02208 3.38386 0
M  V30 386 H 32.6082 2.19764 4.58891 0
M  V30 387 H 32.0062 -0.819475 5.59733 0
M  V30 388 H 30.5632 -0.562272 6.4937 0
M  V30 389 N 33.9963 -1.19345 1.0293 0
M  V30 390 C 34.9433 -2.2258 0.610464 0
M  V30 391 C 35.9133 -1.6179 -0.375946 0
M  V30 392 O 37.0983 -1.88844 -0.272511 0
M  V30 393 C 34.2383 -3.45085 -0.0321473 0
M  V30 394 C 33.3513 -4.20258 1.00035 0
M  V30 395 C 32.4863 -5.3019 0.32746 0
M  V30 396 C 31.5253 -5.97121 1.34584 0
M  V30 397 N 30.6623 -6.98615 0.698726 0
M  V30 398 H 35.5023 -2.57764 1.49538 0
M  V30 399 H 33.0393 -1.26644 0.748311 0
M  V30 400 H 34.9973 -4.15061 -0.421966 0
M  V30 401 H 33.6273 -3.10555 -0.88064 0
M  V30 402 H 32.6793 -3.49223 1.50823 0
M  V30 403 H 33.9913 -4.66175 1.77433 0
M  V30 404 H 33.1453 -6.06587 -0.11718 0
M  V30 405 H 31.8843 -4.85345 -0.478713 0
M  V30 406 H 30.8893 -5.19474 1.80074 0
M  V30 407 H 32.1143 -6.4405 2.15352 0
M  V30 408 H 30.0603 -6.55942 -0.0873471 0
M  V30 409 H 29.9773 -7.42724 1.41058 0
M  V30 410 H 31.2453 -7.79004 0.278102 0
M  V30 411 N 35.4744 -0.807222 -1.35358 0
M  V30 412 C 36.4044 -0.232509 -2.3234 0
M  V30 413 C 37.3854 0.642386 -1.57504 0
M  V30 414 O 38.5704 0.572526 -1.85569 0
M  V30 415 C 35.7004 0.619238 -3.41735 0
M  V30 416 C 34.6544 -0.157215 -4.27711 0
M  V30 417 C 33.9804 0.816273 -5.28433 0
M  V30 418 C 35.2804 -1.35656 -5.04376 0
M  V30 419 H 36.9744 -1.04276 -2.80654 0
M  V30 420 H 34.5204 -0.50288 -1.34934 0
M  V30 421 H 36.4734 1.03137 -4.08584 0
M  V30 422 H 35.1974 1.46239 -2.92031 0
M  V30 423 H 33.8564 -0.550525 -3.62443 0
M  V30 424 H 33.5044 1.65494 -4.74996 0
M  V30 425 H 33.2044 0.301067 -5.86828 0
M  V30 426 H 34.7284 1.22659 -5.98153 0
M  V30 427 H 36.1424 -1.01927 -5.64166 0
M  V30 428 H 34.5394 -1.8063 -5.7227 0
M  V30 429 H 35.6094 -2.14288 -4.34981 0
M  V30 430 N 36.9525 1.47285 -0.560781 0
M  V30 431 C 37.8995 2.30058 0.18491 0
M  V30 432 C 38.8695 1.39281 0.904986 0
M  V30 433 O 40.0545 1.68241 0.899979 0
M  V30 434 C 37.1945 3.23317 1.20666 0
M  V30 435 C 36.3075 4.29186 0.492285 0
M  V30 436 C 35.4425 5.09592 1.49964 0
M  V30 437 C 34.4815 6.07232 0.770439 0
M  V30 438 N 33.6185 6.80584 1.72479 0
M  V30 439 H 38.4585 2.93302 -0.527048 0
M  V30 440 H 35.9955 1.44568 -0.271738 0
M  V30 441 H 37.9535 3.75811 1.81168 0
M  V30 442 H 36.5835 2.61929 1.88661 0
M  V30 443 H 35.6355 3.7972 -0.227333 0
M  V30 444 H 36.9475 4.98738 -0.0787929 0
M  V30 445 H 36.1015 5.66254 2.17809 0
M  V30 446 H 34.8405 4.3995 2.10464 0
M  V30 447 H 33.8455 5.49745 0.0780846 0
M  V30 448 H 35.0705 6.78884 0.171134 0
M  V30 449 H 33.0165 6.1367 2.3183 0
M  V30 450 H 32.9335 7.46319 1.20596 0
M  V30 451 H 34.2015 7.41818 2.39428 0
M  V30 452 N 38.4306 0.297415 1.54768 0
M  V30 453 C 39.3606 -0.573494 2.26348 0
M  V30 454 C 40.3416 -1.14085 1.26169 0
M  V30 455 O 41.5266 -1.17086 1.54934 0
M  V30 456 C 38.6566 -1.74716 3.00153 0
M  V30 457 C 37.6106 -1.31032 4.07449 0
M  V30 458 C 36.9366 -2.56887 4.68949 0
M  V30 459 C 38.2366 -0.444183 5.20408 0
M  V30 460 H 39.9306 0.0235131 2.99391 0
M  V30 461 H 37.4766 0.0127488 1.43994 0
M  V30 462 H 39.4296 -2.3625 3.48947 0
M  V30 463 H 38.1536 -2.37035 2.24682 0
M  V30 464 H 36.8126 -0.718066 3.59499 0
M  V30 465 H 36.4606 -3.17512 3.90122 0
M  V30 466 H 36.1606 -2.2836 5.41411 0
M  V30 467 H 37.6846 -3.19229 5.20505 0
M  V30 468 H 39.0986 -0.9651 5.65118 0
M  V30 469 H 37.4956 -0.252846 5.99567 0
M  V30 470 H 38.5656 0.531609 4.81977 0
M  V30 471 N 39.9087 -1.5758 0.0250728 0
M  V30 472 C 41.1387 -1.95646 -0.663783 0
M  V30 473 C 41.5467 -0.899935 -1.66427 0
M  V30 474 O 40.8897 0.127191 -1.83259 0
M  V30 475 C 40.9517 -3.29835 -1.43 0
M  V30 476 C 40.6157 -4.53197 -0.588305 0
M  V30 477 C 41.6127 -5.19726 0.13469 0
M  V30 478 C 39.2977 -4.99529 -0.526897 0
M  V30 479 C 41.2917 -6.30902 0.90781 0
M  V30 480 C 38.9787 -6.10589 0.24993 0
M  V30 481 C 39.9767 -6.76134 0.965994 0
M  V30 482 O 39.6647 -7.85062 1.7301 0
M  V30 483 H 39.3967 -0.649282 -0.188174 0
M  V30 484 H 41.9507 -2.05245 0.0799006 0
M  V30 485 H 40.1807 -3.16716 -2.21873 0
M  V30 486 H 41.8697 -3.52833 -2.00658 0
M  V30 487 H 42.6357 -4.84904 0.0965562 0
M  V30 488 H 38.5147 -4.48319 -1.07381 0
M  V30 489 H 42.0587 -6.81995 1.46724 0
M  V30 490 H 37.9557 -6.44849 0.289795 0
M  V30 491 H 38.7237 -8.01708 1.64944 0
M  V30 492 N 41.3868 0.248026 -1.55636 0
M  V30 493 C 42.3188 1.32993 -1.8667 0
M  V30 494 C 43.3318 1.44345 -0.752877 0
M  V30 495 O 44.5208 1.45715 -1.03098 0
M  V30 496 C 41.6208 2.70863 -2.03682 0
M  V30 497 C 40.7938 2.81792 -3.34532 0
M  V30 498 C 39.8528 4.005 -3.41301 0
M  V30 499 O 38.8788 3.9008 -4.14519 0
M  V30 500 N 40.0808 5.13618 -2.70512 0
M  V30 501 H 42.8458 1.06707 -2.8006 0
M  V30 502 H 40.4068 0.438129 -1.55859 0
M  V30 503 H 42.3988 3.48612 -2.05553 0
M  V30 504 H 40.9688 2.89862 -1.17041 0
M  V30 505 H 40.1888 1.90729 -3.44987 0
M  V30 506 H 41.4768 2.86043 -4.20781 0
M  V30 507 H 40.8748 5.24975 -2.10755 0
M  V30 508 H 39.4318 5.89505 -2.78077 0
M  V30 509 N 42.8649 1.48995 0.513639 0
M  V30 510 C 44.0899 1.61792 1.29762 0
M  V30 511 C 44.5149 0.284475 1.85936 0
M  V30 512 O 43.8729 -0.746185 1.65232 0
M  V30 513 C 43.9209 2.67993 2.41272 0
M  V30 514 O 43.0249 2.26287 3.44772 0
M  V30 515 H 42.3659 0.541963 0.38363 0
M  V30 516 H 44.8959 1.95097 0.616307 0
M  V30 517 H 44.9059 2.89772 2.87221 0
M  V30 518 H 43.5809 3.64791 1.9975 0
M  V30 519 H 42.1579 2.14788 3.04829 0
M  V30 520 N 44.343 -0.763751 1.37857 0
M  V30 521 C 45.306 -1.85889 1.34081 0
M  V30 522 C 46.306 -1.58949 0.243277 0
M  V30 523 O 47.496 -1.66882 0.499589 0
M  V30 524 C 44.628 -3.23176 1.08489 0
M  V30 525 H 45.821 -1.90648 2.31502 0
M  V30 526 H 43.374 -0.964367 1.23003 0
M  V30 527 H 44.109 -3.24091 0.116318 0
M  V30 528 H 43.894 -3.44124 1.8794 0
M  V30 529 H 45.384 -4.03254 1.08517 0
M  V30 530 N 45.8211 -1.22559 -0.990812 0
M  V30 531 C 47.0491 -1.07779 -1.76611 0
M  V30 532 C 47.4641 0.371513 -1.85109 0
M  V30 533 O 46.8211 1.25737 -1.32274 0
M  V30 534 C 46.8721 -1.68512 -3.19822 0
M  V30 535 O 46.5931 -3.07774 -3.1178 0
M  V30 536 C 48.0941 -1.59035 -4.13791 0
M  V30 537 H 45.3141 -0.377729 -0.554583 0
M  V30 538 H 47.8581 -1.62195 -1.24551 0
M  V30 539 H 46.0131 -1.18154 -3.68942 0
M  V30 540 H 46.4271 -3.37062 -4.01858 0
M  V30 541 H 47.9011 -2.0625 -5.1202 0
M  V30 542 H 48.3781 -0.547273 -4.35777 0
M  V30 543 H 48.9841 -2.08709 -3.70568 0
M  V30 544 N 47.2992 1.18797 -1.03562 0
M  V30 545 C 48.2312 2.21731 -0.580337 0
M  V30 546 C 49.2442 1.59051 0.347349 0
M  V30 547 O 50.4332 1.77929 0.142669 0
M  V30 548 C 47.5332 3.38459 0.172805 0
M  V30 549 C 46.7062 4.3072 -0.761496 0
M  V30 550 C 45.7652 5.26174 -0.0525547 0
M  V30 551 O 44.7912 5.65108 -0.681333 0
M  V30 552 N 45.9932 5.67624 1.21586 0
M  V30 553 H 48.7582 2.61417 -1.46565 0
M  V30 554 H 46.3192 1.33531 -0.915476 0
M  V30 555 H 48.3112 3.99335 0.656793 0
M  V30 556 H 46.8812 2.97507 0.959602 0
M  V30 557 H 46.1012 3.67525 -1.42544 0
M  V30 558 H 47.3892 4.89267 -1.39626 0
M  V30 559 H 46.7872 5.38038 1.74732 0
M  V30 560 H 45.3442 6.30721 1.64421 0
M  V30 561 N 48.7773 0.814389 1.34928 0
M  V30 562 C 49.7403 0.235759 2.27984 0
M  V30 563 C 50.7403 -0.581412 1.49921 0
M  V30 564 O 51.9303 -0.398758 1.69575 0
M  V30 565 C 49.0623 -0.670433 3.34242 0
M  V30 566 H 50.2553 1.05659 2.80671 0
M  V30 567 H 47.8083 0.585614 1.44915 0
M  V30 568 H 48.5433 -1.51466 2.86755 0
M  V30 569 H 48.3283 -0.0860822 3.92005 0
M  V30 570 H 49.8183 -1.06935 4.03676 0
M  V30 571 N 50.2554 -1.46986 0.568584 0
M  V30 572 C 51.5014 -2.02741 0.0488709 0
M  V30 573 C 51.8344 -1.44077 -1.30214 0
M  V30 574 O 51.1094 -0.600552 -1.84996 0
M  V30 575 C 51.3924 -3.60086 -0.032047 0
M  V30 576 C 51.2454 -4.29162 1.34686 0
M  V30 577 C 52.5644 -4.33838 -0.739798 0
M  V30 578 H 49.6834 -0.736749 0.0192338 0
M  V30 579 H 52.3254 -1.75289 0.733065 0
M  V30 580 H 50.4754 -3.83606 -0.61473 0
M  V30 581 H 52.1474 -4.16948 1.97362 0
M  V30 582 H 50.3904 -3.89073 1.91846 0
M  V30 583 H 51.0614 -5.37826 1.24285 0
M  V30 584 H 53.5374 -4.15378 -0.244939 0
M  V30 585 H 52.4134 -5.43537 -0.765406 0
M  V30 586 H 52.6744 -4.03875 -1.79827 0
M  V30 587 N 51.7335 -0.305618 -1.54608 0
M  V30 588 C 52.9805 0.302298 -2.00231 0
M  V30 589 C 53.3085 1.5354 -1.19398 0
M  V30 590 O 52.5635 1.93973 -0.259423 0
M  V30 591 C 52.8625 0.698983 -3.50498 0
M  V30 592 C 52.5285 -0.432903 -4.48817 0
M  V30 593 C 51.1905 -0.743622 -4.75419 0
M  V30 594 C 53.5425 -1.19409 -5.07337 0
M  V30 595 C 50.8705 -1.81857 -5.57804 0
M  V30 596 C 53.2225 -2.25899 -5.90891 0
M  V30 597 C 51.8865 -2.57572 -6.15803 0
M  V30 598 H 51.1565 0.110619 -0.732697 0
M  V30 599 H 53.8035 -0.425674 -1.86709 0
M  V30 600 H 52.1085 1.50711 -3.61654 0
M  V30 601 H 53.8055 1.1806 -3.83227 0
M  V30 602 H 50.3955 -0.18063 -4.28219 0
M  V30 603 H 54.5795 -0.967295 -4.86782 0
M  V30 604 H 49.8355 -2.06864 -5.75341 0
M  V30 605 H 54.0095 -2.85335 -6.35261 0
M  V30 606 H 51.6365 -3.40998 -6.7943 0
M  V30 607 N 53.2116 1.57565 -0.0334293 0
M  V30 608 C 54.1436 2.0739 0.975811 0
M  V30 609 C 55.1566 0.998166 1.2861 0
M  V30 610 O 56.3456 1.27426 1.25 0
M  V30 611 C 53.4456 2.4871 2.30209 0
M  V30 612 C 52.6186 3.79413 2.17634 0
M  V30 613 C 51.6776 4.07237 3.33233 0
M  V30 614 O 50.7036 4.77425 3.09927 0
M  V30 615 N 51.9056 3.5775 4.5716 0
M  V30 616 H 54.6706 2.94598 0.55066 0
M  V30 617 H 52.2316 1.61173 0.15323 0
M  V30 618 H 54.2236 2.64413 3.06378 0
M  V30 619 H 52.7936 1.66845 2.64351 0
M  V30 620 H 52.0136 3.73465 1.26165 0
M  V30 621 H 53.3016 4.65038 2.0644 0
M  V30 622 H 52.6996 3.00976 4.78989 0
M  V30 623 H 51.2566 3.78724 5.30482 0
M  V30 624 N 54.6897 -0.239769 1.55765 0
M  V30 625 C 55.6367 -1.29696 1.90913 0
M  V30 626 C 56.6067 -1.47478 0.764164 0
M  V30 627 O 57.7917 -1.61345 1.01845 0
M  V30 628 C 54.9317 -2.64598 2.21544 0
M  V30 629 C 54.0447 -2.54765 3.48882 0
M  V30 630 C 53.1797 -3.82069 3.69049 0
M  V30 631 C 52.2187 -3.66883 4.89963 0
M  V30 632 N 51.3557 -4.86094 5.06614 0
M  V30 633 H 56.1957 -0.990224 2.81067 0
M  V30 634 H 53.7327 -0.477684 1.39128 0
M  V30 635 H 55.6907 -3.43132 2.3731 0
M  V30 636 H 54.3207 -2.93405 1.34585 0
M  V30 637 H 53.3727 -1.67763 3.41409 0
M  V30 638 H 54.6847 -2.39457 4.37563 0
M  V30 639 H 53.8387 -4.69046 3.84812 0
M  V30 640 H 52.5777 -4.00282 2.78614 0
M  V30 641 H 51.5827 -2.78289 4.74168 0
M  V30 642 H 52.8077 -3.50157 5.81865 0
M  V30 643 H 50.7537 -5.04655 4.19117 0
M  V30 644 H 50.6707 -4.73443 5.89396 0
M  V30 645 H 51.9387 -5.74549 5.26795 0
M  V30 646 N 56.1678 -1.49265 -0.50573 0
M  V30 647 C 57.5838 -1.35923 -0.836486 0
M  V30 648 C 57.7838 -0.388704 -1.97715 0
M  V30 649 O 56.8398 0.181336 -2.51848 0
M  V30 650 C 58.1528 -2.76531 -1.18115 0
M  V30 651 C 59.7008 -2.85197 -1.28964 0
M  V30 652 C 60.1758 -4.26561 -1.66761 0
M  V30 653 N 61.6668 -4.2935 -1.73819 0
M  V30 654 C 62.4018 -5.35693 -2.045 0
M  V30 655 N 61.8978 -6.52287 -2.33438 0
M  V30 656 N 63.6908 -5.23105 -2.05711 0
M  V30 657 H 55.8418 -2.10965 0.246519 0
M  V30 658 H 58.1048 -0.9468 0.0476887 0
M  V30 659 H 57.8108 -3.49226 -0.416398 0
M  V30 660 H 57.6848 -3.11599 -2.1257 0
M  V30 661 H 60.0718 -2.12742 -2.04511 0
M  V30 662 H 60.1528 -2.53718 -0.325704 0
M  V30 663 H 59.7968 -4.99541 -0.917656 0
M  V30 664 H 59.7268 -4.55502 -2.64246 0
M  V30 665 H 62.2178 -3.4526 -1.53635 0
M  V30 666 H 62.5308 -7.29158 -2.56024 0
M  V30 667 H 60.8758 -6.55521 -2.30905 0
M  V30 668 H 64.0668 -4.31026 -1.82577 0
M  V30 669 H 64.2398 -6.06078 -2.29289 0
M  V30 670 N 57.6459 0.756429 -1.3826 0
M  V30 671 C 58.5779 1.87971 -1.31147 0
M  V30 672 C 59.5909 1.61248 -0.224239 0
M  V30 673 O 60.7799 1.71881 -0.481581 0
M  V30 674 C 57.8799 3.23545 -1.00857 0
M  V30 675 C 57.0529 3.77794 -2.20432 0
M  V30 676 C 56.1119 4.91877 -1.86931 0
M  V30 677 O 55.1379 5.06659 -2.59395 0
M  V30 678 N 56.3399 5.74643 -0.822568 0
M  V30 679 H 59.1049 1.94585 -2.2794 0
M  V30 680 H 56.6659 0.936234 -1.32084 0
M  V30 681 H 58.6579 3.97403 -0.765021 0
M  V30 682 H 57.2279 3.12335 -0.128687 0
M  V30 683 H 56.4479 2.95534 -2.6087 0
M  V30 684 H 57.7359 4.10771 -3.00241 0
M  V30 685 H 57.1339 5.65266 -0.221575 0
M  V30 686 H 55.6909 6.48661 -0.638899 0
M  V30 687 N 59.124 1.23083 0.984299 0
M  V30 688 C 60.087 1.00979 2.05757 0
M  V30 689 C 61.087 -0.0269573 1.60777 0
M  V30 690 O 62.277 0.212403 1.729 0
M  V30 691 C 59.409 0.527072 3.36801 0
M  V30 692 H 60.602 1.9622 2.26799 0
M  V30 693 H 58.155 1.05072 1.15714 0
M  V30 694 H 58.89 -0.429294 3.21446 0
M  V30 695 H 58.675 1.27515 3.70786 0
M  V30 696 H 60.165 0.392942 4.15747 0
M  V30 697 N 60.6021 -1.18246 1.0419 0
M  V30 698 C 61.8501 -1.87886 0.744543 0
M  V30 699 C 62.1711 -1.8082 -0.730006 0
M  V30 700 O 61.4411 -1.22736 -1.52685 0
M  V30 701 H 60.0211 -0.695556 0.272417 0
M  V30 702 H 62.6831 -1.43494 1.31892 0
M  V30 703 H 61.7791 -2.9389 1.05049 0
M  V30 704 N 62.0802 -0.821533 -1.34494 0
M  V30 705 C 62.9902 -0.244355 -2.33324 0
M  V30 706 C 64.0062 0.620527 -1.62559 0
M  V30 707 O 65.1822 0.528754 -1.94335 0
M  V30 708 C 62.2472 0.585368 -3.41723 0
M  V30 709 C 61.3082 -0.301752 -4.28238 0
M  V30 710 C 60.5412 0.488466 -5.3146 0
M  V30 711 O 60.7642 1.72186 -5.4379 0
M  V30 712 O 59.6982 -0.12848 -6.01763 0
M  V30 713 H 63.5242 -1.06231 -2.84515 0
M  V30 714 H 61.1092 -0.583645 -1.37528 0
M  V30 715 H 62.9912 1.05747 -4.07916 0
M  V30 716 H 61.6662 1.38068 -2.92778 0
M  V30 717 H 60.5732 -0.821315 -3.64973 0
M  V30 718 H 61.9062 -1.06138 -4.8062 0
M  V30 719 N 63.5583 1.46682 -0.576371 0
M  V30 720 C 64.4883 2.33028 0.148397 0
M  V30 721 C 65.4693 1.44961 0.889956 0
M  V30 722 O 66.6543 1.73789 0.866662 0
M  V30 723 C 63.7843 3.27117 1.1667 0
M  V30 724 C 62.7383 4.24575 0.540386 0
M  V30 725 C 62.0643 5.08126 1.6647 0
M  V30 726 C 63.3643 5.19722 -0.518331 0
M  V30 727 H 65.0583 2.93875 -0.572509 0
M  V30 728 H 62.6043 1.41315 -0.276768 0
M  V30 729 H 64.5573 3.86374 1.68204 0
M  V30 730 H 63.2813 2.64364 1.9178 0
M  V30 731 H 61.9403 3.66571 0.0461769 0
M  V30 732 H 61.5883 4.41762 2.40531 0
M  V30 733 H 61.2883 5.74122 1.25131 0
M  V30 734 H 62.8123 5.70246 2.18293 0
M  V30 735 H 64.2263 5.73232 -0.0883058 0
M  V30 736 H 62.6233 5.94026 -0.851679 0
M  V30 737 H 63.6933 4.64037 -1.40703 0
M  V30 738 N 65.0364 0.313813 1.54444 0
M  V30 739 C 66.3134 -0.345447 1.92525 0
M  V30 740 C 66.6934 -1.70667 1.24242 0
M  V30 741 O 66.0414 -2.25273 0.382654 0
M  V30 742 C 66.2514 -0.44737 3.46121 0
M  V30 743 C 67.5994 -0.712238 4.18584 0
M  V30 744 O 68.6234 -0.530678 3.52225 0
M  V30 745 O 67.4824 -1.06183 5.36085 0
M  V30 746 H 64.5764 -0.195407 0.803583 0
M  V30 747 H 67.1224 0.362813 1.65776 0
M  V30 748 H 65.8944 0.509043 3.87975 0
M  V30 749 H 65.5174 -1.20359 3.78945 0
M  V30 750 N 66.5145 -1.57545 0.0417849 0
M  V30 751 C 67.4245 -2.14451 -0.951213 0
M  V30 752 C 68.4405 -1.09992 -1.34825 0
M  V30 753 O 69.6165 -1.42114 -1.42708 0
M  V30 754 C 66.6815 -2.67063 -2.21084 0
M  V30 755 C 65.7425 -3.86284 -1.87304 0
M  V30 756 C 64.9755 -4.36378 -3.07261 0
M  V30 757 O 65.1985 -3.85587 -4.20332 0
M  V30 758 O 64.1325 -5.28077 -2.88822 0
M  V30 759 H 67.9585 -2.99601 -0.497287 0
M  V30 760 H 65.5435 -1.48317 -0.179567 0
M  V30 761 H 67.4255 -3.00914 -2.95006 0
M  V30 762 H 66.1005 -1.84989 -2.65633 0
M  V30 763 H 65.0075 -3.57338 -1.10727 0
M  V30 764 H 66.3405 -4.6956 -1.47562 0
M  V30 765 N 67.9926 0.231505 -1.5589 0
M  V30 766 C 69.2176 0.978689 -1.82856 0
M  V30 767 C 69.6426 1.77559 -0.620846 0
M  V30 768 O 69.0006 1.76119 0.430305 0
M  V30 769 C 69.0486 1.87997 -3.07716 0
M  V30 770 O 68.1526 2.97393 -2.85712 0
M  V30 771 H 67.4936 0.277663 -0.603158 0
M  V30 772 H 70.0236 0.24783 -2.03093 0
M  V30 773 H 70.0336 2.2917 -3.37558 0
M  V30 774 H 68.7086 1.29417 -3.95252 0
M  V30 775 H 67.2856 2.60238 -2.67078 0
M  V30 776 N 69.4707 1.49531 0.497807 0
M  V30 777 C 70.7167 1.59415 1.25358 0
M  V30 778 C 71.0497 0.281422 1.9215 0
M  V30 779 O 70.3247 -0.715249 1.80871 0
M  V30 780 C 70.6077 2.75566 2.3181 0
M  V30 781 C 70.4607 4.16642 1.69498 0
M  V30 782 C 71.7797 2.87347 3.33346 0
M  V30 783 H 68.8987 0.580244 0.454408 0
M  V30 784 H 71.5407 1.81827 0.551262 0
M  V30 785 H 69.6907 2.56587 2.91711 0
M  V30 786 H 71.3627 4.47145 1.13399 0
M  V30 787 H 69.6057 4.22141 0.998978 0
M  V30 788 H 70.2767 4.93792 2.46725 0
M  V30 789 H 72.7527 3.04634 2.83438 0
M  V30 790 H 71.6287 3.70289 4.05188 0
M  V30 791 H 71.8897 1.96834 3.95865 0
M  V30 792 N 70.9488 -0.749086 1.3866 0
M  V30 793 C 71.8788 -1.8764 1.38973 0
M  V30 794 C 72.8598 -1.68178 0.255004 0
M  V30 795 O 74.0448 -1.88704 0.458754 0
M  V30 796 C 71.1748 -3.25222 1.21851 0
M  V30 797 C 70.1288 -3.59295 2.32575 0
M  V30 798 C 69.4548 -4.95663 2.00555 0
M  V30 799 C 70.7548 -3.63709 3.7485 0
M  V30 800 H 72.4488 -1.87635 2.3331 0
M  V30 801 H 69.9948 -0.901329 1.12303 0
M  V30 802 H 71.9478 -4.03746 1.20695 0
M  V30 803 H 70.6718 -3.25719 0.239775 0
M  V30 804 H 69.3308 -2.83093 2.32925 0
M  V30 805 H 68.9788 -4.92724 1.01154 0
M  V30 806 H 68.6788 -5.19429 2.74714 0
M  V30 807 H 70.2028 -5.7656 2.01024 0
M  V30 808 H 71.6168 -4.32338 3.76506 0
M  V30 809 H 70.0138 -3.98986 4.48252 0
M  V30 810 H 71.0838 -2.63834 4.06841 0
M  V30 811 N 72.4269 -1.23603 -0.977757 0
M  V30 812 C 73.3369 -1.03632 -2.1047 0
M  V30 813 C 74.3529 0.0199435 -1.73989 0
M  V30 814 O 75.5289 -0.176076 -2.00629 0
M  V30 815 C 72.5939 -0.63276 -3.40877 0
M  V30 816 C 71.6549 -1.76437 -3.91367 0
M  V30 817 C 70.8879 -1.37997 -5.15551 0
M  V30 818 O 71.1109 -0.265357 -5.69782 0
M  V30 819 O 70.0449 -2.20201 -5.60174 0
M  V30 820 H 73.8709 -1.98086 -2.30208 0
M  V30 821 H 71.4559 -1.02332 -1.08851 0
M  V30 822 H 73.3379 -0.418761 -4.19314 0
M  V30 823 H 72.0129 0.282754 -3.22463 0
M  V30 824 H 70.9199 -2.03304 -3.14036 0
M  V30 825 H 72.2529 -2.6583 -4.14241 0
M  V30 826 N 73.905 1.17692 -1.04816 0
M  V30 827 C 74.835 2.23777 -0.666791 0
M  V30 828 C 75.816 1.66796 0.33361 0
M  V30 829 O 77.001 1.93039 0.212042 0
M  V30 830 C 74.131 3.47281 -0.0367933 0
M  V30 831 C 73.085 4.17059 -0.961546 0
M  V30 832 C 72.411 5.34342 -0.195626 0
M  V30 833 C 73.711 4.69713 -2.28402 0
M  V30 834 H 75.405 2.55933 -1.55367 0
M  V30 835 H 72.951 1.23019 -0.748484 0
M  V30 836 H 74.904 4.20706 0.241775 0
M  V30 837 H 73.628 3.14381 0.885004 0
M  V30 838 H 72.287 3.45541 -1.22462 0
M  V30 839 H 71.935 4.97692 0.728816 0
M  V30 840 H 71.635 5.81966 -0.811775 0
M  V30 841 H 73.159 6.10553 0.0757473 0
M  V30 842 H 74.573 5.34794 -2.06563 0
M  V30 843 H 72.97 5.279 -2.8538 0
M  V30 844 H 74.04 3.86726 -2.92525 0
M  V30 845 N 75.3831 0.828654 1.34056 0
M  V30 846 C 76.6111 0.43262 2.02326 0
M  V30 847 C 77.0261 -0.963147 1.62385 0
M  V30 848 O 76.3831 -1.62425 0.832121 0
M  V30 849 C 76.4341 0.53182 3.57567 0
M  V30 850 O 76.1551 1.87258 3.96063 0
M  V30 851 C 77.6561 0.131422 4.43105 0
M  V30 852 H 74.8761 0.172923 0.648335 0
M  V30 853 H 77.4201 1.1184 1.71208 0
M  V30 854 H 75.5751 -0.105938 3.87255 0
M  V30 855 H 75.9891 1.85087 4.90758 0
M  V30 856 H 77.4631 0.251904 5.51425 0
M  V30 857 H 77.9401 -0.925645 4.29335 0
M  V30 858 H 78.5461 0.743207 4.18756 0
M  V30 859 N 76.8612 -1.46375 0.584142 0
M  V30 860 C 78.0862 -2.07268 0.0740405 0
M  V30 861 C 78.5112 -1.42979 -1.22223 0
M  V30 862 O 77.8692 -0.514092 -1.73859 0
M  V30 863 C 77.9172 -3.60518 -0.0767769 0
M  V30 864 O 77.0212 -3.96533 -1.13292 0
M  V30 865 H 76.3622 -0.660961 0.0634524 0
M  V30 866 H 78.8922 -1.87991 0.807492 0
M  V30 867 H 78.9022 -4.07021 -0.282489 0
M  V30 868 H 77.5772 -4.06702 0.86986 0
M  V30 869 H 76.1542 -3.61738 -0.905553 0
M  V30 870 N 78.3393 -0.321999 -1.54275 0
M  V30 871 C 79.2713 0.578671 -2.21775 0
M  V30 872 C 80.2843 1.08109 -1.21722 0
M  V30 873 O 81.4733 0.994938 -1.482 0
M  V30 874 C 78.5733 1.80661 -2.86731 0
M  V30 875 C 77.7463 1.44314 -4.12907 0
M  V30 876 C 76.8053 2.52845 -4.61472 0
M  V30 877 O 75.8313 2.17054 -5.2619 0
M  V30 878 N 77.0333 3.83748 -4.35566 0
M  V30 879 H 79.7983 0.000709447 -2.997 0
M  V30 880 H 77.3593 -0.145132 -1.61248 0
M  V30 881 H 79.3513 2.52655 -3.16145 0
M  V30 882 H 77.9213 2.29245 -2.12521 0
M  V30 883 H 77.1413 0.554906 -3.90275 0
M  V30 884 H 78.4293 1.17598 -4.95023 0
M  V30 885 H 77.8273 4.15625 -3.83761 0
M  V30 886 H 76.3843 4.51977 -4.69638 0
M  V30 887 N 79.8174 1.5752 -0.0501392 0
M  V30 888 C 81.0664 1.91827 0.623328 0
M  V30 889 C 81.3794 0.930222 1.72065 0
M  V30 890 O 82.5854 1.1653 2.4522 0
M  V30 891 C 81.0414 3.40692 1.16003 0
M  V30 892 C 80.6494 4.479 0.0948811 0
M  V30 893 C 82.3934 3.84034 1.80881 0
M  V30 894 C 80.3004 5.87879 0.644411 0
M  V30 895 H 79.2304 0.715918 0.236596 0
M  V30 896 H 81.8814 1.83115 -0.118861 0
M  V30 897 H 80.2634 3.44405 1.9545 0
M  V30 898 H 81.4374 4.55775 -0.678675 0
M  V30 899 H 79.7524 4.13892 -0.45637 0
M  V30 900 H 82.3494 4.85984 2.22988 0
M  V30 901 H 82.6924 3.20225 2.6601 0
M  V30 902 H 83.2254 3.82833 1.0809 0
M  V30 903 H 79.9644 6.55282 -0.169229 0
M  V30 904 H 79.4844 5.83567 1.38598 0
M  V30 905 H 81.1634 6.37098 1.12763 0
M  V30 906 N 81.2955 -0.223234 1.56011 0
M  V30 907 C 82.2255 -1.27988 1.95298 0
M  V30 908 C 83.2065 -1.48976 0.820979 0
M  V30 909 O 84.3915 -1.61188 1.08315 0
M  V30 910 C 81.5215 -2.63 2.26822 0
M  V30 911 C 80.4755 -2.56671 3.42497 0
M  V30 912 C 79.8015 -3.95697 3.59622 0
M  V30 913 C 81.1015 -2.11601 4.77517 0
M  V30 914 H 82.7955 -0.953525 2.8381 0
M  V30 915 H 80.3415 -0.457244 1.36548 0
M  V30 916 H 82.2945 -3.37077 2.52898 0
M  V30 917 H 81.0185 -2.9732 1.35161 0
M  V30 918 H 79.6775 -1.85051 3.16467 0
M  V30 919 H 79.3255 -4.27322 2.6534 0
M  V30 920 H 79.0255 -3.92345 4.37424 0
M  V30 921 H 80.5495 -4.71438 3.88044 0
M  V30 922 H 81.9635 -2.7542 5.02809 0
M  V30 923 H 80.3605 -2.19311 5.5859 0
M  V30 924 H 81.4305 -1.06824 4.72987 0
M  V30 925 N 82.7736 -1.49793 -0.48987 0
M  V30 926 C 84.0216 -1.59525 -1.24081 0
M  V30 927 C 84.3426 -0.288953 -1.92847 0
M  V30 928 O 83.6126 0.692436 -1.83254 0
M  V30 929 H 82.1926 -0.587796 -0.460983 0
M  V30 930 H 84.8546 -1.86477 -0.566778 0
M  V30 931 H 83.9506 -2.39696 -1.99881 0
M  V30 932 N 84.2517 0.741722 -1.39055 0
M  V30 933 C 85.2147 1.83733 -1.37021 0
M  V30 934 C 86.2147 1.58542 -0.268534 0
M  V30 935 O 87.4047 1.66067 -0.526076 0
M  V30 936 C 84.5367 3.2141 -1.13617 0
M  V30 937 H 85.7297 1.86941 -2.34506 0
M  V30 938 H 83.2827 0.944676 -1.24521 0
M  V30 939 H 84.0177 3.23865 -0.167863 0
M  V30 940 H 83.8027 3.4109 -1.93391 0
M  V30 941 H 85.2927 4.01477 -1.14918 0
M  V30 942 N 85.7298 1.2412 0.971189 0
M  V30 943 C 86.6778 1.02812 2.08644 0
M  V30 944 C 87.6718 -0.0358403 1.69362 0
M  V30 945 O 88.8778 0.118429 1.7961 0
M  V30 946 H 85.2528 0.315428 0.682649 0
M  V30 947 H 87.2238 1.97397 2.23779 0
M  V30 948 C 85.9728 0.645874 3.41649 0
M  V30 949 H 85.2958 1.45632 3.72332 0
M  V30 950 H 86.7358 0.536366 4.20594 0
M  V30 951 C 85.1948 -0.646713 3.30635 0
M  V30 952 O 85.7248 -1.69338 3.64263 0
M  V30 953 N 83.9308 -0.626115 2.83775 0
M  V30 954 H 83.4778 0.225988 2.56607 0
M  V30 955 H 83.4358 -1.49117 2.76788 0
M  V30 956 N 87.2079 -1.17134 1.05439 0
M  V30 957 C 88.6189 -1.69084 0.791676 0
M  V30 958 C 88.9699 -1.83822 -0.685839 0
M  V30 959 O 88.0949 -1.52757 -1.53278 0
M  V30 960 C 88.6899 -3.07119 1.4305 0
M  V30 961 C 87.2489 -3.56225 1.21577 0
M  V30 962 C 86.3959 -2.32421 1.51247 0
M  V30 963 H 89.3469 -1.01617 1.219 0
M  V30 964 H 89.3679 -3.71087 0.84112 0
M  V30 965 H 88.8799 -2.9636 2.50584 0
M  V30 966 H 86.9809 -3.72257 0.159787 0
M  V30 967 H 87.0939 -4.38837 1.92246 0
M  V30 968 H 85.4579 -2.3701 0.932653 0
M  V30 969 H 86.2409 -2.24268 2.5992 0
M  V30 970 N 88.686 -0.835752 -1.33615 0
M  V30 971 C 89.963 -0.352017 -1.92406 0
M  V30 972 C 90.343 1.16225 -1.76224 0
M  V30 973 O 89.691 1.97526 -1.14873 0
M  V30 974 C 89.901 -0.795485 -3.39813 0
M  V30 975 C 91.249 -0.801703 -4.16963 0
M  V30 976 O 92.273 -0.738889 -3.48452 0
M  V30 977 O 91.132 -0.886607 -5.3926 0
M  V30 978 H 88.226 -0.0989641 -0.821057 0
M  V30 979 H 90.772 -0.921397 -1.42507 0
M  V30 980 H 89.544 -1.83795 -3.45449 0
M  V30 981 H 89.167 -0.202505 -3.97084 0
M  V30 982 N 90.1641 1.46063 -0.591896 0
M  V30 983 C 91.4111 2.02338 -0.0809991 0
M  V30 984 C 91.7391 1.46228 1.28249 0
M  V30 985 O 90.9941 0.620818 1.85592 0
M  V30 986 C 91.2931 3.57391 0.0249813 0
M  V30 987 C 90.9591 4.32583 -1.27211 0
M  V30 988 C 89.6211 4.52844 -1.62745 0
M  V30 989 C 91.9731 4.75687 -2.13005 0
M  V30 990 C 89.3011 5.13462 -2.83855 0
M  V30 991 C 91.6531 5.37644 -3.3335 0
M  V30 992 C 90.3171 5.5613 -3.69155 0
M  V30 993 H 89.5871 0.740407 -0.0296397 0
M  V30 994 H 92.2341 1.75321 -0.770374 0
M  V30 995 H 90.5391 3.83597 0.797537 0
M  V30 996 H 92.2361 3.98621 0.436184 0
M  V30 997 H 88.8261 4.17116 -0.985499 0
M  V30 998 H 93.0101 4.59782 -1.86855 0
M  V30 999 H 88.2661 5.25965 -3.11722 0
M  V30 1000 H 92.4401 5.7 -4.00092 0
M  V30 1001 H 90.0671 6.0287 -4.63089 0
M  V30 1002 N 91.6422 0.330177 1.54103 0
M  V30 1003 C 92.6052 -0.520144 2.2322 0
M  V30 1004 C 93.6052 -1.03828 1.22786 0
M  V30 1005 O 94.7952 -0.929652 1.4732 0
M  V30 1006 C 91.9272 -1.72317 2.94142 0
M  V30 1007 H 93.1202 0.0841605 2.99782 0
M  V30 1008 H 90.6732 0.0813433 1.56088 0
M  V30 1009 H 91.4082 -2.36653 2.21734 0
M  V30 1010 H 91.1932 -1.35898 3.67796 0
M  V30 1011 H 92.6832 -2.3266 3.46784 0
M  V30 1012 N 93.1203 -1.57491 0.0584922 0
M  V30 1013 C 94.3483 -1.97296 -0.623037 0
M  V30 1014 C 94.7633 -0.936338 -1.63946 0
M  V30 1015 O 94.1203 0.0785981 -1.82331 0
M  V30 1016 C 94.1713 -3.37183 -1.30345 0
M  V30 1017 O 93.8923 -4.36872 -0.32773 0
M  V30 1018 C 95.3933 -3.91788 -2.07406 0
M  V30 1019 H 92.6133 -0.649153 -0.169826 0
M  V30 1020 H 95.1573 -2.04106 0.12696 0
M  V30 1021 H 93.3123 -3.31502 -2.00463 0
M  V30 1022 H 93.7263 -5.18141 -0.814269 0
M  V30 1023 H 95.2003 -4.91926 -2.50425 0
M  V30 1024 H 95.6773 -3.27609 -2.92521 0
M  V30 1025 H 96.2833 -4.00829 -1.42184 0
M  V30 1026 N 94.5984 0.214957 -1.56127 0
M  V30 1027 C 95.5284 1.2695 -1.95974 0
M  V30 1028 C 96.5094 1.48539 -0.828868 0
M  V30 1029 O 97.6944 1.60611 -1.09168 0
M  V30 1030 C 94.8244 2.61794 -2.28214 0
M  V30 1031 C 93.7784 2.54851 -3.43853 0
M  V30 1032 C 93.1044 3.93785 -3.61715 0
M  V30 1033 C 94.4044 2.09065 -4.78632 0
M  V30 1034 H 96.0984 0.93846 -2.84312 0
M  V30 1035 H 93.6444 0.449996 -1.36788 0
M  V30 1036 H 95.5974 3.35731 -2.54682 0
M  V30 1037 H 94.3214 2.96599 -1.36736 0
M  V30 1038 H 92.9804 1.8337 -3.17444 0
M  V30 1039 H 92.6284 4.25908 -2.67602 0
M  V30 1040 H 92.3284 3.90019 -4.39498 0
M  V30 1041 H 93.8524 4.69374 -3.90539 0
M  V30 1042 H 95.2664 2.7275 -5.04262 0
M  V30 1043 H 93.6634 2.16346 -5.59745 0
M  V30 1044 H 94.7334 1.04315 -4.73547 0
M  V30 1045 N 96.0765 1.50051 0.48192 0
M  V30 1046 C 97.3225 1.61706 1.2338 0
M  V30 1047 C 97.6775 0.308488 1.89911 0
M  V30 1048 O 96.9705 -0.692798 1.78636 0
M  V30 1049 C 97.1645 2.72717 2.30998 0
M  V30 1050 C 96.9935 4.14242 1.75024 0
M  V30 1051 C 95.7635 4.80786 1.55476 0
M  V30 1052 C 97.9615 4.98846 1.25128 0
M  V30 1053 N 95.9435 6.06563 0.946311 0
M  V30 1054 C 97.3145 6.15258 0.765382 0
M  V30 1055 C 99.3695 4.84702 1.13881 0
M  V30 1056 C 98.0725 7.19079 0.178113 0
M  V30 1057 C 100.098 5.8869 0.565486 0
M  V30 1058 C 99.4605 7.04343 0.0899105 0
M  V30 1059 H 95.5595 0.645958 0.440753 0
M  V30 1060 H 98.1435 1.8713 0.537624 0
M  V30 1061 H 96.3145 2.49033 2.98055 0
M  V30 1062 H 98.0465 2.73789 2.9803 0
M  V30 1063 H 94.8015 4.37899 1.80392 0
M  V30 1064 H 95.2255 6.73767 0.660812 0
M  V30 1065 H 99.8675 3.95583 1.49244 0
M  V30 1066 H 97.5855 8.07882 -0.187749 0
M  V30 1067 H 101.171 5.79808 0.480974 0
M  V30 1068 H 100.051 7.83433 -0.346782 0
M  V30 1069 N 97.5546 -0.734337 1.39446 0
M  V30 1070 C 98.5026 -1.86971 1.38364 0
M  V30 1071 C 99.4966 -1.67288 0.266687 0
M  V30 1072 O 100.703 -1.74621 0.436755 0
M  V30 1073 H 97.0776 -0.615474 0.432082 0
M  V30 1074 H 99.0486 -1.85 2.34132 0
M  V30 1075 C 97.7976 -3.2466 1.24465 0
M  V30 1076 H 97.1206 -3.40402 2.09682 0
M  V30 1077 H 98.5606 -4.04292 1.27764 0
M  V30 1078 C 97.0196 -3.36867 -0.0468674 0
M  V30 1079 O 97.5496 -3.88618 -1.01681 0
M  V30 1080 N 95.7556 -2.90391 -0.110145 0
M  V30 1081 H 95.3026 -2.48466 0.679868 0
M  V30 1082 H 95.2606 -2.98939 -0.973799 0
M  V30 1083 N 99.0327 -1.24633 -0.964593 0
M  V30 1084 C 100.273 -1.09981 -1.72289 0
M  V30 1085 C 100.637 0.354792 -1.88693 0
M  V30 1086 O 101.838 0.62289 -2.61483 0
M  V30 1087 C 100.109 -1.82262 -3.07434 0
M  V30 1088 S 101.668 -1.83379 -3.98645 0
M  V30 1089 H 98.4857 -0.393292 -0.59232 0
M  V30 1090 H 101.088 -1.58009 -1.15123 0
M  V30 1091 H 99.7917 -2.87206 -2.93157 0
M  V30 1092 H 99.3227 -1.3458 -3.69664 0
M  V30 1093 H 101.338 -0.903691 -4.87901 0
M  V30 1094 N 100.511 1.16574 -1.06058 0
M  V30 1095 C 101.927 1.3904 -0.783585 0
M  V30 1096 C 102.127 1.91784 0.618145 0
M  V30 1097 O 101.183 2.11511 1.37911 0
M  V30 1098 C 102.496 2.37329 -1.84649 0
M  V30 1099 C 104.044 2.51018 -1.86973 0
M  V30 1100 C 104.519 3.52588 -2.92311 0
M  V30 1101 N 106.01 3.60113 -2.91329 0
M  V30 1102 C 106.745 4.38486 -3.69482 0
M  V30 1103 N 106.241 5.20302 -4.57447 0
M  V30 1104 N 108.034 4.33446 -3.57885 0
M  V30 1105 H 100.185 0.806725 -1.96483 0
M  V30 1106 H 102.448 0.417117 -0.851303 0
M  V30 1107 H 102.154 2.05663 -2.85299 0
M  V30 1108 H 102.028 3.36946 -1.6955 0
M  V30 1109 H 104.415 2.81989 -0.869827 0
M  V30 1110 H 104.496 1.51445 -2.0615 0
M  V30 1111 H 104.14 3.22354 -3.92492 0
M  V30 1112 H 104.07 4.51886 -2.70383 0
M  V30 1113 H 106.561 3.01707 -2.27555 0
M  V30 1114 H 106.874 5.77311 -5.13743 0
M  V30 1115 H 105.219 5.19653 -4.61503 0
M  V30 1116 H 108.41 3.68586 -2.88551 0
M  V30 1117 H 108.583 4.94279 -4.19037 0
M  V30 1118 N 101.989 0.842826 1.3317 0
M  V30 1119 C 103.405 0.531128 1.50503 0
M  V30 1120 C 103.605 -0.940734 1.78192 0
M  V30 1121 O 102.661 -1.72436 1.84451 0
M  V30 1122 C 103.974 1.40789 2.65705 0
M  V30 1123 C 105.522 1.40708 2.79589 0
M  V30 1124 C 105.997 2.26878 3.97857 0
M  V30 1125 N 107.488 2.24609 4.05099 0
M  V30 1126 C 108.223 2.88019 4.95815 0
M  V30 1127 N 107.719 3.60496 5.9162 0
M  V30 1128 N 109.512 2.77469 4.88843 0
M  V30 1129 H 101.663 1.79557 1.1346 0
M  V30 1130 H 103.926 0.766267 0.558156 0
M  V30 1131 H 103.632 2.454 2.51936 0
M  V30 1132 H 103.506 1.08677 3.61205 0
M  V30 1133 H 105.893 0.368668 2.92788 0
M  V30 1134 H 105.974 1.76829 1.84838 0
M  V30 1135 H 105.618 3.3078 3.85418 0
M  V30 1136 H 105.548 1.88096 4.91861 0
M  V30 1137 H 108.039 1.71906 3.36536 0
M  V30 1138 H 108.352 4.06076 6.57512 0
M  V30 1139 H 106.697 3.64604 5.91683 0
M  V30 1140 H 109.888 2.20406 4.12963 0
M  V30 1141 H 110.061 3.2717 5.59342 0
M  V30 1142 N 103.467 -1.45747 0.599634 0
M  V30 1143 C 104.377 -2.34262 -0.125888 0
M  V30 1144 C 105.393 -1.50768 -0.868625 0
M  V30 1145 O 106.569 -1.83592 -0.828003 0
M  V30 1146 C 103.634 -3.28252 -1.11587 0
M  V30 1147 C 102.695 -4.27651 -0.375956 0
M  V30 1148 C 101.928 -5.1715 -1.31877 0
M  V30 1149 O 102.151 -5.09916 -2.55621 0
M  V30 1150 O 101.085 -5.96286 -0.820157 0
M  V30 1151 H 104.911 -2.97688 0.601315 0
M  V30 1152 H 102.496 -1.44999 0.359934 0
M  V30 1153 H 104.378 -3.86191 -1.68626 0
M  V30 1154 H 103.053 -2.67401 -1.82424 0
M  V30 1155 H 101.96 -3.7335 0.236698 0
M  V30 1156 H 103.293 -4.91334 0.29177 0
M  V30 1157 N 104.945 -0.338344 -1.53925 0
M  V30 1158 C 106.191 0.260143 -2.01125 0
M  V30 1159 C 106.524 1.50617 -1.22589 0
M  V30 1160 O 105.799 1.91979 -0.312113 0
M  V30 1161 C 106.082 0.579499 -3.55407 0
M  V30 1162 C 105.935 -0.678264 -4.44657 0
M  V30 1163 C 107.254 1.39122 -4.17532 0
M  V30 1164 H 104.373 0.0930772 -0.731099 0
M  V30 1165 H 107.015 -0.457852 -1.84401 0
M  V30 1166 H 105.165 1.19118 -3.69788 0
M  V30 1167 H 106.837 -1.31631 -4.42121 0
M  V30 1168 H 105.08 -1.3042 -4.13731 0
M  V30 1169 H 105.751 -0.410143 -5.50474 0
M  V30 1170 H 108.227 0.874035 -4.06817 0
M  V30 1171 H 107.103 1.58342 -5.25565 0
M  V30 1172 H 107.364 2.39178 -3.71815 0
M  V30 1173 N 106.423 1.57458 -0.0668435 0
M  V30 1174 C 107.353 2.15468 0.899764 0
M  V30 1175 C 108.334 1.08042 1.31381 0
M  V30 1176 O 109.519 1.36054 1.38574 0
M  V30 1177 C 106.649 2.71232 2.16911 0
M  V30 1178 C 105.603 3.83781 1.89463 0
M  V30 1179 C 104.929 4.26127 3.22986 0
M  V30 1180 C 106.229 5.08238 1.20381 0
M  V30 1181 H 107.923 2.96488 0.416529 0
M  V30 1182 H 105.469 1.4262 0.198908 0
M  V30 1183 H 107.422 3.10458 2.84945 0
M  V30 1184 H 106.146 1.87426 2.67468 0
M  V30 1185 H 104.805 3.45051 1.23836 0
M  V30 1186 H 104.453 3.39249 3.71374 0
M  V30 1187 H 104.153 5.01993 3.05413 0
M  V30 1188 H 105.677 4.67966 3.92225 0
M  V30 1189 H 107.091 5.44811 1.78475 0
M  V30 1190 H 105.488 5.89349 1.13083 0
M  V30 1191 H 106.558 4.84558 0.182153 0
M  V30 1192 N 107.901 -0.206675 1.56239 0
M  V30 1193 C 108.833 -1.27997 1.9013 0
M  V30 1194 C 109.846 -1.42299 0.790883 0
M  V30 1195 O 111.035 -1.42931 1.06925 0
M  V30 1196 C 108.135 -2.65368 2.10792 0
M  V30 1197 C 107.308 -2.72824 3.41886 0
M  V30 1198 C 106.367 -3.9131 3.51799 0
M  V30 1199 O 105.393 -3.78953 4.24716 0
M  V30 1200 N 106.595 -5.06265 2.84035 0
M  V30 1201 H 109.36 -0.992444 2.82791 0
M  V30 1202 H 106.921 -0.396652 1.56966 0
M  V30 1203 H 108.913 -3.43039 2.14724 0
M  V30 1204 H 107.483 -2.86657 1.24685 0
M  V30 1205 H 106.703 -1.81515 3.49923 0
M  V30 1206 H 107.991 -2.74786 4.28217 0
M  V30 1207 H 107.389 -5.19203 2.246 0
M  V30 1208 H 105.946 -5.81925 2.93609 0
M  V30 1209 N 109.379 -1.50304 -0.473955 0
M  V30 1210 C 110.311 -1.65109 -1.58971 0
M  V30 1211 C 111.324 -0.532676 -1.53839 0
M  V30 1212 O 112.513 -0.805751 -1.59279 0
M  V30 1213 C 109.613 -1.61684 -2.97845 0
M  V30 1214 C 108.786 -2.8951 -3.27876 0
M  V30 1215 C 107.845 -2.78768 -4.4629 0
M  V30 1216 O 106.871 -3.52722 -4.46739 0
M  V30 1217 N 108.073 -1.9213 -5.47783 0
M  V30 1218 H 110.838 -2.61347 -1.46689 0
M  V30 1219 H 108.399 -1.47732 -0.662324 0
M  V30 1220 H 110.391 -1.52114 -3.75024 0
M  V30 1221 H 108.961 -0.731925 -3.03911 0
M  V30 1222 H 108.181 -3.13228 -2.39336 0
M  V30 1223 H 109.469 -3.74199 -3.4475 0
M  V30 1224 H 108.867 -1.31353 -5.50239 0
M  V30 1225 H 107.424 -1.88466 -6.23958 0
M  V30 1226 N 110.857 0.726932 -1.39834 0
M  V30 1227 C 111.787 1.85405 -1.41941 0
M  V30 1228 C 112.768 1.67751 -0.281728 0
M  V30 1229 O 113.953 1.8795 -0.488717 0
M  V30 1230 C 111.083 3.23243 -1.2701 0
M  V30 1231 C 110.037 3.55549 -2.38262 0
M  V30 1232 C 109.363 4.9241 -2.08415 0
M  V30 1233 C 110.663 3.577 -3.80589 0
M  V30 1234 H 112.357 1.83899 -2.36266 0
M  V30 1235 H 109.903 0.883349 -1.13723 0
M  V30 1236 H 111.856 4.01775 -1.27103 0
M  V30 1237 H 110.58 3.25296 -0.291564 0
M  V30 1238 H 109.239 2.79351 -2.37399 0
M  V30 1239 H 108.887 4.91052 -1.0898 0
M  V30 1240 H 108.587 5.14992 -2.82943 0
M  V30 1241 H 110.111 5.73289 -2.10171 0
M  V30 1242 H 111.525 4.26293 -3.83337 0
M  V30 1243 H 109.922 3.91804 -4.54543 0
M  V30 1244 H 110.992 2.57328 -4.10987 0
M  V30 1245 N 112.336 1.25143 0.95797 0
M  V30 1246 C 113.246 1.06968 2.08794 0
M  V30 1247 C 114.262 0.00773911 1.73998 0
M  V30 1248 O 115.438 0.207972 2.00323 0
M  V30 1249 C 112.503 0.68691 3.39827 0
M  V30 1250 C 111.564 1.82641 3.88511 0
M  V30 1251 C 110.797 1.46181 5.1329 0
M  V30 1252 O 111.02 0.355971 5.69288 0
M  V30 1253 O 109.954 2.29085 5.566 0
M  V30 1254 H 113.78 2.01723 2.27027 0
M  V30 1255 H 111.365 1.04051 1.07209 0
M  V30 1256 H 113.247 0.485417 4.18595 0
M  V30 1257 H 111.922 -0.231417 3.22872 0
M  V30 1258 H 110.829 2.08274 3.10762 0
M  V30 1259 H 112.162 2.72386 4.09959 0
M  V30 1260 N 113.814 -1.1601 1.06675 0
M  V30 1261 C 115.042 -1.90527 0.806667 0
M  V30 1262 C 115.457 -1.77643 -0.639396 0
M  V30 1263 O 114.814 -1.12369 -1.43803 0
M  V30 1264 C 114.865 -3.41106 1.19705 0
M  V30 1265 O 114.586 -3.53608 2.58636 0
M  V30 1266 C 116.087 -4.32663 0.965266 0
M  V30 1267 H 113.307 -0.604053 0.292166 0
M  V30 1268 H 115.851 -1.47026 1.4214 0
M  V30 1269 H 114.006 -3.82296 0.626774 0
M  V30 1270 H 114.42 -4.47011 2.74375 0
M  V30 1271 H 115.894 -5.36763 1.288 0
M  V30 1272 H 116.371 -4.39089 -0.0987936 0
M  V30 1273 H 116.977 -3.97206 1.52011 0
M  V30 1274 N 115.292 -0.849877 -1.32721 0
M  V30 1275 C 116.224 -0.248332 -2.27851 0
M  V30 1276 C 117.237 0.577218 -1.52224 0
M  V30 1277 O 118.426 0.402489 -1.73903 0
M  V30 1278 C 115.526 0.668107 -3.32249 0
M  V30 1279 C 114.699 -0.120534 -4.37234 0
M  V30 1280 C 113.758 0.720932 -5.21238 0
M  V30 1281 O 112.784 0.156166 -5.68986 0
M  V30 1282 N 113.986 2.03647 -5.43607 0
M  V30 1283 H 116.751 -1.06575 -2.80111 0
M  V30 1284 H 114.312 -0.709395 -1.45531 0
M  V30 1285 H 116.304 1.23627 -3.85355 0
M  V30 1286 H 114.874 1.38621 -2.80184 0
M  V30 1287 H 114.094 -0.870108 -3.84477 0
M  V30 1288 H 115.382 -0.662406 -5.0447 0
M  V30 1289 H 114.78 2.51871 -5.06535 0
M  V30 1290 H 113.337 2.55287 -5.99727 0
M  V30 1291 N 116.77 1.45427 -0.607355 0
M  V30 1292 C 117.717 2.3053 0.111625 0
M  V30 1293 C 118.687 1.4209 0.860216 0
M  V30 1294 O 119.872 1.71019 0.845998 0
M  V30 1295 C 117.012 3.26992 1.10319 0
M  V30 1296 C 116.125 4.30535 0.355493 0
M  V30 1297 C 115.26 5.14105 1.33676 0
M  V30 1298 C 114.299 6.09376 0.576862 0
M  V30 1299 N 113.436 6.85727 1.5074 0
M  V30 1300 H 118.276 2.91477 -0.620093 0
M  V30 1301 H 115.813 1.43631 -0.317594 0
M  V30 1302 H 117.771 3.81385 1.6912 0
M  V30 1303 H 116.401 2.67799 1.80232 0
M  V30 1304 H 115.453 3.78805 -0.348023 0
M  V30 1305 H 116.765 4.98235 -0.237423 0
M  V30 1306 H 115.919 5.72897 1.99684 0
M  V30 1307 H 114.658 4.46423 1.9636 0
M  V30 1308 H 113.663 5.49715 -0.0968519 0
M  V30 1309 H 114.888 6.79085 -0.0449341 0
M  V30 1310 H 112.834 6.20735 2.12189 0
M  V30 1311 H 112.751 7.49778 0.967913 0
M  V30 1312 H 114.019 7.4906 2.15706 0
M  V30 1313 N 118.248 0.346503 1.53744 0
M  V30 1314 C 119.473 -0.253074 2.0585 0
M  V30 1315 C 119.898 -1.43202 1.21962 0
M  V30 1316 O 119.256 -1.79783 0.234073 0
M  V30 1317 C 119.304 -0.643193 3.54817 0
M  V30 1318 O 118.408 -1.74286 3.73762 0
M  V30 1319 H 117.749 -0.0413583 0.662711 0
M  V30 1320 H 120.279 0.501574 1.98357 0
M  V30 1321 H 120.289 -0.919526 3.97503 0
M  V30 1322 H 118.964 0.218966 4.15323 0
M  V30 1323 H 117.541 -1.46356 3.42979 0
M  V30 1324 N 119.726 -1.57421 0.075193 0
M  V30 1325 C 121.137 -1.81021 -0.456964 0
M  V30 1326 C 121.488 -0.98936 -1.69429 0
M  V30 1327 O 120.613 -0.212865 -2.15351 0
M  V30 1328 C 121.208 -3.28329 -0.83581 0
M  V30 1329 C 119.767 -3.52764 -1.31281 0
M  V30 1330 C 118.914 -2.75676 -0.299648 0
M  V30 1331 H 121.865 -1.55822 0.300856 0
M  V30 1332 H 121.886 -3.40564 -1.69696 0
M  V30 1333 H 121.398 -3.88046 0.0649238 0
M  V30 1334 H 119.499 -2.98355 -2.23193 0
M  V30 1335 H 119.612 -4.61451 -1.28839 0
M  V30 1336 H 117.976 -2.42538 -0.777641 0
M  V30 1337 H 118.759 -3.38132 0.593417 0
M  V30 1338 N 121.204 0.198386 -1.56346 0
M  V30 1339 C 122.114 1.2664 -1.97483 0
M  V30 1340 C 123.13 1.49989 -0.882002 0
M  V30 1341 O 124.306 1.62668 -1.18748 0
M  V30 1342 C 121.371 2.59141 -2.30319 0
M  V30 1343 C 120.432 2.43892 -3.53292 0
M  V30 1344 C 119.665 3.70074 -3.84553 0
M  V30 1345 O 119.888 4.74101 -3.1715 0
M  V30 1346 O 118.822 3.658 -4.7799 0
M  V30 1347 H 122.648 0.947304 -2.88548 0
M  V30 1348 H 120.233 0.403123 -1.43859 0
M  V30 1349 H 122.115 3.37352 -2.5253 0
M  V30 1350 H 120.79 2.90684 -1.42423 0
M  V30 1351 H 119.697 1.63803 -3.36332 0
M  V30 1352 H 121.03 2.17282 -4.41644 0
M  V30 1353 N 122.682 1.50554 0.465978 0
M  V30 1354 C 123.592 1.72585 1.58907 0
M  V30 1355 C 124.608 0.60911 1.6299 0
M  V30 1356 O 125.784 0.88804 1.80765 0
M  V30 1357 C 122.849 1.81995 2.95091 0
M  V30 1358 C 121.91 3.05751 3.01355 0
M  V30 1359 C 121.143 3.14702 4.31043 0
M  V30 1360 O 121.366 2.30313 5.21835 0
M  V30 1361 O 120.3 4.07468 4.43005 0
M  V30 1362 H 124.126 2.67799 1.43239 0
M  V30 1363 H 121.711 1.34711 0.646013 0
M  V30 1364 H 123.593 1.90335 3.75966 0
M  V30 1365 H 122.268 0.899659 3.10947 0
M  V30 1366 H 121.175 3.02908 2.19539 0
M  V30 1367 H 122.508 3.97375 2.90437 0
M  V30 1368 N 124.16 -0.719506 1.40217 0
M  V30 1369 C 125.09 -1.8465 1.42922 0
M  V30 1370 C 126.071 -1.67599 0.29062 0
M  V30 1371 O 127.256 -1.87688 0.498677 0
M  V30 1372 C 124.386 -3.22565 1.28722 0
M  V30 1373 C 123.34 -3.54281 2.40144 0
M  V30 1374 C 122.666 -4.91298 2.11023 0
M  V30 1375 C 123.966 -3.55676 3.82481 0
M  V30 1376 H 125.66 -1.82644 2.37237 0
M  V30 1377 H 123.206 -0.877305 1.1419 0
M  V30 1378 H 125.159 -4.01095 1.29232 0
M  V30 1379 H 123.883 -3.25137 0.308811 0
M  V30 1380 H 122.542 -2.78088 2.38877 0
M  V30 1381 H 122.19 -4.90468 1.11582 0
M  V30 1382 H 121.89 -5.13485 2.8567 0
M  V30 1383 H 123.414 -5.72166 2.13209 0
M  V30 1384 H 124.828 -4.24254 3.85592 0
M  V30 1385 H 123.225 -3.89388 4.56614 0
M  V30 1386 H 124.295 -2.55144 4.12346 0
M  V30 1387 N 125.638 -1.25649 -0.95132 0
M  V30 1388 C 126.601 -1.06399 -2.03007 0
M  V30 1389 C 127.601 -0.0156794 -1.60792 0
M  V30 1390 O 128.791 -0.25817 -1.72276 0
M  V30 1391 C 125.923 -0.616184 -3.35285 0
M  V30 1392 H 127.116 -2.02164 -2.21517 0
M  V30 1393 H 124.669 -1.08103 -1.12887 0
M  V30 1394 H 125.404 0.343917 -3.22471 0
M  V30 1395 H 125.189 -1.37301 -3.67275 0
M  V30 1396 H 126.679 -0.503032 -4.14559 0
M  V30 1397 N 127.117 1.15442 -1.07289 0
M  V30 1398 C 128.08 2.18358 -0.696591 0
M  V30 1399 C 129.08 1.58637 0.262837 0
M  V30 1400 O 130.27 1.74145 0.0438809 0
M  V30 1401 C 127.402 3.4089 -0.0266151 0
M  V30 1402 H 128.595 2.53162 -1.60776 0
M  V30 1403 H 126.148 1.29893 -0.869342 0
M  V30 1404 H 126.883 3.11653 0.896822 0
M  V30 1405 H 126.668 3.85495 -0.716657 0
M  V30 1406 H 128.158 4.17009 0.222028 0
M  V30 1407 N 128.595 0.856903 1.32268 0
M  V30 1408 C 129.525 0.31858 2.31316 0
M  V30 1409 C 130.506 -0.583487 1.59779 0
M  V30 1410 O 131.691 -0.503259 1.87566 0
M  V30 1411 C 128.821 -0.491979 3.43798 0
M  V30 1412 C 127.775 0.315849 4.26833 0
M  V30 1413 C 127.101 -0.619586 5.31098 0
M  V30 1414 C 128.401 1.54282 4.98993 0
M  V30 1415 H 130.095 1.14621 2.76591 0
M  V30 1416 H 127.641 0.552613 1.32974 0
M  V30 1417 H 129.594 -0.879012 4.1213 0
M  V30 1418 H 128.318 -1.35299 2.97257 0
M  V30 1419 H 126.977 0.684664 3.6015 0
M  V30 1420 H 126.625 -1.47751 4.8081 0
M  V30 1421 H 126.325 -0.0830621 5.87541 0
M  V30 1422 H 127.849 -1.00375 6.02293 0
M  V30 1423 H 129.263 1.22796 5.59995 0
M  V30 1424 H 127.66 2.01745 5.65172 0
M  V30 1425 H 128.73 2.30285 4.26728 0
M  V30 1426 N 130.073 -1.45103 0.615059 0
M  V30 1427 C 131.319 -2.02483 0.113347 0
M  V30 1428 C 131.652 -1.48146 -1.25564 0
M  V30 1429 O 130.927 -0.659104 -1.82992 0
M  V30 1430 C 131.21 -3.60005 0.0825278 0
M  V30 1431 C 131.063 -4.2466 1.48271 0
M  V30 1432 C 132.382 -4.35972 -0.601401 0
M  V30 1433 H 129.501 -0.735764 0.0426632 0
M  V30 1434 H 132.143 -1.72868 0.788461 0
M  V30 1435 H 130.293 -3.85367 -0.492378 0
M  V30 1436 H 131.965 -4.10458 2.10527 0
M  V30 1437 H 130.208 -3.82772 2.04127 0
M  V30 1438 H 130.879 -5.336 1.41332 0
M  V30 1439 H 133.355 -4.15947 -0.112666 0
M  V30 1440 H 132.231 -5.45697 -0.592097 0
M  V30 1441 H 132.492 -4.09391 -1.66887 0
M  V30 1442 N 131.551 -0.354651 -1.53558 0
M  V30 1443 C 132.498 0.496968 -2.25386 0
M  V30 1444 C 133.468 1.0865 -1.25636 0
M  V30 1445 O 134.653 1.12104 -1.54394 0
M  V30 1446 C 131.793 1.63637 -3.03837 0
M  V30 1447 C 130.906 1.07307 -4.18461 0
M  V30 1448 C 130.041 2.18068 -4.84376 0
M  V30 1449 C 129.08 1.59147 -5.91049 0
M  V30 1450 N 128.217 2.63695 -6.50699 0
M  V30 1451 H 133.057 -0.122075 -2.9775 0
M  V30 1452 H 130.594 -0.0720154 -1.46924 0
M  V30 1453 H 132.552 2.30734 -3.47589 0
M  V30 1454 H 131.182 2.22623 -2.33749 0
M  V30 1455 H 130.234 0.292708 -3.79272 0
M  V30 1456 H 131.546 0.602193 -4.95152 0
M  V30 1457 H 130.7 2.93007 -5.31255 0
M  V30 1458 H 129.439 2.68504 -4.07133 0
M  V30 1459 H 128.444 0.827175 -5.43542 0
M  V30 1460 H 129.669 1.09549 -6.70206 0
M  V30 1461 H 127.615 3.13365 -5.76315 0
M  V30 1462 H 127.532 2.21263 -7.22896 0
M  V30 1463 H 128.8 3.3837 -7.02229 0
M  V30 1464 N 133.029 1.57378 -0.0835403 0
M  V30 1465 C 133.992 2.12252 0.864959 0
M  V30 1466 C 134.992 1.04916 1.21858 0
M  V30 1467 O 136.182 1.30853 1.14991 0
M  V30 1468 C 133.314 2.63358 2.16461 0
M  V30 1469 H 134.507 2.97371 0.388676 0
M  V30 1470 H 132.06 1.55423 0.165317 0
M  V30 1471 H 132.795 1.81727 2.686 0
M  V30 1472 H 132.58 3.41826 1.92087 0
M  V30 1473 H 134.07 3.05847 2.84337 0
M  V30 1474 N 134.507 -0.190092 1.56449 0
M  V30 1475 C 135.417 -1.25591 1.98152 0
M  V30 1476 C 136.433 -1.49519 0.889944 0
M  V30 1477 O 137.609 -1.62036 1.19609 0
M  V30 1478 C 134.674 -2.57916 2.3169 0
M  V30 1479 C 133.735 -2.42015 3.5458 0
M  V30 1480 C 132.968 -3.6803 3.8651 0
M  V30 1481 O 133.191 -4.72413 3.1966 0
M  V30 1482 O 132.125 -3.6326 4.79923 0
M  V30 1483 H 135.951 -0.931988 2.89046 0
M  V30 1484 H 133.536 -0.395488 1.4407 0
M  V30 1485 H 135.418 -3.36008 2.54316 0
M  V30 1486 H 134.093 -2.89925 1.43963 0
M  V30 1487 H 133 -1.62017 3.37196 0
M  V30 1488 H 134.333 -2.14937 4.4279 0
M  V30 1489 N 135.985 -1.50799 -0.457987 0
M  V30 1490 C 136.915 -1.73553 -1.5621 0
M  V30 1491 C 137.896 -0.584774 -1.59732 0
M  V30 1492 O 139.081 -0.825314 -1.7579 0
M  V30 1493 C 136.211 -1.84169 -2.94447 0
M  V30 1494 C 135.165 -2.99461 -3.0579 0
M  V30 1495 C 134.491 -2.95235 -4.45803 0
M  V30 1496 C 135.791 -4.39766 -2.81786 0
M  V30 1497 H 137.485 -2.66 -1.37421 0
M  V30 1498 H 135.031 -1.28002 -0.659662 0
M  V30 1499 H 136.984 -1.98672 -3.71628 0
M  V30 1500 H 135.708 -0.883545 -3.14422 0
M  V30 1501 H 134.367 -2.8463 -2.31044 0
M  V30 1502 H 134.015 -1.97239 -4.62715 0
M  V30 1503 H 133.715 -3.72642 -4.54326 0
M  V30 1504 H 135.239 -3.11803 -5.24987 0
M  V30 1505 H 136.653 -4.55054 -3.4871 0
M  V30 1506 H 135.05 -5.18722 -3.0174 0
M  V30 1507 H 136.12 -4.51229 -1.7754 0
M  V30 1508 N 137.463 0.71206 -1.40597 0
M  V30 1509 C 138.711 1.46907 -1.38791 0
M  V30 1510 C 139.032 1.94998 0.00780391 0
M  V30 1511 O 138.302 1.70587 0.963174 0
M  V30 1512 H 136.882 0.545043 -0.51082 0
M  V30 1513 H 139.544 0.843882 -1.75683 0
M  V30 1514 H 138.64 2.34021 -2.06496 0
M  V30 1515 N 138.941 1.26152 0.944643 0
M  V30 1516 C 140.188 1.11492 1.69044 0
M  V30 1517 C 140.516 -0.342366 1.91463 0
M  V30 1518 O 139.771 -1.26812 1.49054 0
M  V30 1519 C 140.07 1.82541 3.07268 0
M  V30 1520 C 139.736 3.32445 3.04616 0
M  V30 1521 C 138.398 3.73337 3.036 0
M  V30 1522 C 140.75 4.28171 2.97185 0
M  V30 1523 C 138.078 5.08348 2.92915 0
M  V30 1524 C 140.43 5.63218 2.88041 0
M  V30 1525 C 139.094 6.03426 2.85366 0
M  V30 1526 H 138.364 0.407977 0.618576 0
M  V30 1527 H 141.011 1.56551 1.10291 0
M  V30 1528 H 139.316 1.29941 3.69625 0
M  V30 1529 H 141.013 1.68642 3.63815 0
M  V30 1530 H 137.603 2.99915 3.06185 0
M  V30 1531 H 141.787 3.97563 2.97081 0
M  V30 1532 H 137.043 5.38667 2.89219 0
M  V30 1533 H 141.217 6.37078 2.81254 0
M  V30 1534 H 138.844 7.07999 2.76842 0
M  V30 1535 N 140.419 -1.14872 1.07899 0
M  V30 1536 C 141.349 -2.2193 0.725887 0
M  V30 1537 C 142.33 -1.67622 -0.28927 0
M  V30 1538 O 143.515 -1.93533 -0.160787 0
M  V30 1539 C 140.645 -3.47061 0.128856 0
M  V30 1540 C 139.599 -4.14363 1.07178 0
M  V30 1541 C 138.925 -5.33636 0.337229 0
M  V30 1542 C 140.225 -4.63492 2.40775 0
M  V30 1543 H 141.919 -2.51724 1.62097 0
M  V30 1544 H 139.465 -1.20991 0.780838 0
M  V30 1545 H 141.418 -4.21199 -0.130147 0
M  V30 1546 H 140.142 -3.16617 -0.80134 0
M  V30 1547 H 138.801 -3.42173 1.3158 0
M  V30 1548 H 138.449 -4.99449 -0.596606 0
M  V30 1549 H 138.149 -5.79609 0.965788 0
M  V30 1550 H 139.673 -6.10539 0.0861567 0
M  V30 1551 H 141.087 -5.2913 2.20669 0
M  V30 1552 H 139.484 -5.20148 2.99276 0
M  V30 1553 H 140.554 -3.78834 3.02676 0
M  V30 1554 N 141.898 -0.863906 -1.31812 0
M  V30 1555 C 142.808 -0.318461 -2.32428 0
M  V30 1556 C 143.824 0.568496 -1.64451 0
M  V30 1557 O 145 0.46666 -1.95919 0
M  V30 1558 C 142.065 0.476355 -3.43412 0
M  V30 1559 C 141.126 -0.43784 -4.27061 0
M  V30 1560 C 140.359 0.319138 -5.32745 0
M  V30 1561 O 140.582 1.54799 -5.48993 0
M  V30 1562 O 139.516 -0.319861 -6.01049 0
M  V30 1563 H 143.342 -1.15229 -2.80991 0
M  V30 1564 H 140.927 -0.627103 -1.35602 0
M  V30 1565 H 142.809 0.927156 -4.11074 0
M  V30 1566 H 141.484 1.28683 -2.97022 0
M  V30 1567 H 140.391 -0.937013 -3.62175 0
M  V30 1568 H 141.724 -1.21375 -4.77 0
M  V30 1569 N 143.376 1.44774 -0.622745 0
M  V30 1570 C 144.601 2.06999 -0.128968 0
M  V30 1571 C 145.026 1.4617 1.1839 0
M  V30 1572 O 144.384 0.560007 1.72434 0
M  V30 1573 C 144.432 3.60595 -0.0188351 0
M  V30 1574 O 143.536 3.99398 1.02739 0
M  V30 1575 H 142.877 0.659047 -0.0809544 0
M  V30 1576 H 145.407 1.85784 -0.85705 0
M  V30 1577 H 145.417 4.07627 0.174476 0
M  V30 1578 H 144.092 4.04252 -0.977384 0
M  V30 1579 H 142.669 3.64011 0.809326 0
M  V30 1580 N 144.854 0.36279 1.53368 0
M  V30 1581 C 146.094 -0.227882 2.03126 0
M  V30 1582 C 146.458 -1.4622 1.24434 0
M  V30 1583 O 147.659 -2.12831 1.64184 0
M  V30 1584 C 145.93 -0.515427 3.53664 0
M  V30 1585 S 147.489 -1.08017 4.25297 0
M  V30 1586 H 144.307 -0.0665377 0.70788 0
M  V30 1587 H 146.909 0.50501 1.88865 0
M  V30 1588 H 145.613 0.390436 4.08539 0
M  V30 1589 H 145.144 -1.27747 3.72081 0
M  V30 1590 H 147.159 -2.36462 4.36234 0
M  V30 1591 N 146.332 -1.57332 0.0918853 0
M  V30 1592 C 147.262 -2.16872 -0.865371 0
M  V30 1593 C 148.243 -1.10118 -1.29646 0
M  V30 1594 O 149.428 -1.38242 -1.36392 0
M  V30 1595 C 146.558 -2.74649 -2.12569 0
M  V30 1596 C 145.512 -3.86747 -1.83333 0
M  V30 1597 C 144.838 -4.31212 -3.16166 0
M  V30 1598 C 146.138 -5.10089 -1.1228 0
M  V30 1599 H 147.832 -2.97114 -0.369307 0
M  V30 1600 H 145.378 -1.42918 -0.176194 0
M  V30 1601 H 147.331 -3.14952 -2.7997 0
M  V30 1602 H 146.055 -1.91657 -2.64452 0
M  V30 1603 H 144.714 -3.46978 -1.18331 0
M  V30 1604 H 144.362 -3.45115 -3.6593 0
M  V30 1605 H 144.062 -5.06788 -2.97388 0
M  V30 1606 H 145.586 -4.74146 -3.84731 0
M  V30 1607 H 147 -5.47582 -1.69785 0
M  V30 1608 H 145.397 -5.91073 -1.03693 0
M  V30 1609 H 146.467 -4.84786 -0.105041 0
M  V30 1610 N 147.81 0.181792 -1.56548 0
M  V30 1611 C 149.226 0.53316 -1.50431 0
M  V30 1612 C 149.426 1.85184 -0.794297 0
M  V30 1613 O 148.482 2.50058 -0.350318 0
M  V30 1614 C 149.795 0.575597 -2.9514 0
M  V30 1615 C 151.343 0.663519 -3.05886 0
M  V30 1616 C 151.818 0.736946 -4.52032 0
M  V30 1617 N 153.309 0.800118 -4.56237 0
M  V30 1618 C 154.044 0.877327 -5.66649 0
M  V30 1619 N 153.54 0.916016 -6.86718 0
M  V30 1620 N 155.333 0.915542 -5.54594 0
M  V30 1621 H 147.484 -0.683025 -2.01118 0
M  V30 1622 H 149.747 -0.244988 -0.915797 0
M  V30 1623 H 149.453 -0.324482 -3.502 0
M  V30 1624 H 149.327 1.42572 -3.49218 0
M  V30 1625 H 151.714 1.55403 -2.50867 0
M  V30 1626 H 151.795 -0.21307 -2.54911 0
M  V30 1627 H 151.439 -0.149262 -5.07681 0
M  V30 1628 H 151.369 1.62953 -5.00753 0
M  V30 1629 H 153.86 0.778926 -3.69785 0
M  V30 1630 H 154.173 0.975813 -7.66614 0
M  V30 1631 H 152.518 0.884469 -6.89349 0
M  V30 1632 H 155.709 0.882245 -4.59711 0
M  V30 1633 H 155.882 0.972253 -6.40665 0
M  V30 1634 N 149.288 1.51039 0.449983 0
M  V30 1635 C 150.534 1.63322 1.20223 0
M  V30 1636 C 150.867 0.34241 1.91158 0
M  V30 1637 O 150.142 -0.657344 1.83055 0
M  V30 1638 C 150.425 2.82801 2.22925 0
M  V30 1639 C 150.278 4.21823 1.56157 0
M  V30 1640 C 151.597 2.97807 3.24035 0
M  V30 1641 H 148.716 0.594407 0.435718 0
M  V30 1642 H 151.358 1.83489 0.493136 0
M  V30 1643 H 149.508 2.65738 2.834 0
M  V30 1644 H 151.18 4.50526 0.991162 0
M  V30 1645 H 149.423 4.25105 0.864172 0
M  V30 1646 H 150.094 5.01391 2.30891 0
M  V30 1647 H 152.57 3.13497 2.73603 0
M  V30 1648 H 151.446 3.82992 3.93202 0
M  V30 1649 H 151.707 2.09328 3.89402 0
M  V30 1650 N 150.766 -0.704594 1.40972 0
M  V30 1651 C 151.714 -1.83994 1.42299 0
M  V30 1652 C 152.708 -1.66684 0.302111 0
M  V30 1653 O 153.914 -1.73655 0.473697 0
M  V30 1654 H 150.289 -0.606171 0.44504 0
M  V30 1655 H 152.26 -1.79992 2.38003 0
M  V30 1656 C 151.009 -3.21946 1.31323 0
M  V30 1657 H 150.332 -3.35878 2.16855 0
M  V30 1658 H 151.772 -4.01491 1.36311 0
M  V30 1659 C 150.231 -3.36891 0.0245977 0
M  V30 1660 O 150.761 -3.90687 -0.934153 0
M  V30 1661 N 148.967 -2.90559 -0.0485243 0
M  V30 1662 H 148.514 -2.46968 0.732419 0
M  V30 1663 H 148.472 -3.00937 -0.910171 0
M  V30 1664 N 152.244 -1.26651 -0.937939 0
M  V30 1665 C 153.655 -1.1125 -1.49934 0
M  V30 1666 C 154.006 0.306077 -1.93798 0
M  V30 1667 O 153.131 1.19792 -1.80219 0
M  V30 1668 C 153.726 -2.01339 -2.72485 0
M  V30 1669 C 152.285 -1.90074 -3.24883 0
M  V30 1670 C 151.432 -1.94498 -1.97651 0
M  V30 1671 H 154.383 -1.39693 -0.753091 0
M  V30 1672 H 154.404 -1.56319 -3.46907 0
M  V30 1673 H 153.916 -3.04577 -2.40529 0
M  V30 1674 H 152.017 -0.897827 -3.61621 0
M  V30 1675 H 152.13 -2.75778 -3.9177 0
M  V30 1676 H 150.494 -1.38591 -2.13693 0
M  V30 1677 H 151.277 -2.99372 -1.68022 0
M  V30 1678 N 153.722 1.14298 -1.08507 0
M  V30 1679 C 154.669 2.19414 -0.715965 0
M  V30 1680 C 155.639 1.63399 0.298326 0
M  V30 1681 O 156.824 1.89929 0.182101 0
M  V30 1682 C 153.964 3.44845 -0.132534 0
M  V30 1683 C 153.077 4.15007 -1.19973 0
M  V30 1684 C 152.212 5.28024 -0.580048 0
M  V30 1685 C 151.251 5.9002 -1.62921 0
M  V30 1686 N 150.388 6.94485 -1.03125 0
M  V30 1687 H 155.228 2.50336 -1.61666 0
M  V30 1688 H 152.765 1.2293 -0.807882 0
M  V30 1689 H 154.723 4.16601 0.223454 0
M  V30 1690 H 153.353 3.14403 0.731467 0
M  V30 1691 H 152.405 3.41629 -1.67313 0
M  V30 1692 H 153.717 4.57178 -1.99473 0
M  V30 1693 H 152.871 6.06455 -0.172364 0
M  V30 1694 H 151.61 4.87076 0.246603 0
M  V30 1695 H 150.615 5.10291 -2.04654 0
M  V30 1696 H 151.84 6.33042 -2.45835 0
M  V30 1697 H 149.786 6.55612 -0.225711 0
M  V30 1698 H 149.703 7.35148 -1.76334 0
M  V30 1699 H 150.971 7.7679 -0.649458 0
M  V30 1700 N 155.201 0.870884 1.31352 0
M  V30 1701 C 156.426 0.495957 2.01383 0
M  V30 1702 C 156.851 -0.904324 1.64935 0
M  V30 1703 O 156.209 -1.59687 0.858466 0
M  V30 1704 C 156.257 0.661433 3.54482 0
M  V30 1705 O 155.361 -0.298851 4.11316 0
M  V30 1706 H 154.702 0.197158 0.634054 0
M  V30 1707 H 157.232 1.17455 1.67527 0
M  V30 1708 H 157.242 0.555072 4.04207 0
M  V30 1709 H 155.917 1.68246 3.8035 0
M  V30 1710 H 154.494 -0.147368 3.72609 0
M  V30 1711 N 156.679 -1.44442 0.630414 0
M  V30 1712 C 157.909 -2.06115 0.141465 0
M  V30 1713 C 158.317 -1.47179 -1.1889 0
M  V30 1714 O 157.66 -0.588873 -1.74006 0
M  V30 1715 C 157.722 -3.59467 -0.0484355 0
M  V30 1716 C 157.386 -4.40864 1.20366 0
M  V30 1717 C 158.383 -4.74391 2.12719 0
M  V30 1718 C 156.068 -4.8125 1.43887 0
M  V30 1719 C 158.062 -5.47186 3.26904 0
M  V30 1720 C 155.749 -5.53795 2.5837 0
M  V30 1721 C 156.747 -5.86682 3.49705 0
M  V30 1722 O 156.435 -6.57749 4.62191 0
M  V30 1723 H 156.167 -0.671648 0.0765792 0
M  V30 1724 H 158.721 -1.86312 0.864695 0
M  V30 1725 H 156.951 -3.77758 -0.826803 0
M  V30 1726 H 158.64 -4.02909 -0.491849 0
M  V30 1727 H 159.406 -4.43728 1.95781 0
M  V30 1728 H 155.285 -4.55073 0.736853 0
M  V30 1729 H 158.829 -5.72773 3.98217 0
M  V30 1730 H 154.726 -5.83872 2.75251 0
M  V30 1731 H 155.494 -6.76217 4.61164 0
M  V30 1732 N 158.157 -0.370918 -1.53173 0
M  V30 1733 C 159.405 0.216673 -2.00935 0
M  V30 1734 C 159.726 1.48845 -1.25977 0
M  V30 1735 O 158.996 1.92286 -0.374551 0
M  V30 1736 H 157.576 0.0830565 -0.742368 0
M  V30 1737 H 160.238 -0.49838 -1.8842 0
M  V30 1738 H 159.334 0.439893 -3.08984 0
M  V30 1739 N 159.635 1.57281 -0.100228 0
M  V30 1740 C 160.863 1.98879 0.570509 0
M  V30 1741 C 161.278 0.979476 1.61405 0
M  V30 1742 O 160.635 -0.0302288 1.82475 0
M  V30 1743 C 160.686 3.4052 1.2136 0
M  V30 1744 O 160.407 4.37588 0.211786 0
M  V30 1745 C 161.908 3.97149 1.96945 0
M  V30 1746 H 159.128 0.653428 0.152555 0
M  V30 1747 H 161.672 2.03697 -0.18103 0
M  V30 1748 H 159.827 3.367 1.91603 0
M  V30 1749 H 160.241 5.20118 0.676607 0
M  V30 1750 H 161.715 4.98393 2.37294 0
M  V30 1751 H 162.192 3.3525 2.83733 0
M  V30 1752 H 162.798 4.04458 1.31506 0
M  V30 1753 N 161.113 -0.173488 1.56642 0
M  V30 1754 C 162.359 -0.887108 1.83035 0
M  V30 1755 C 162.714 -1.79965 0.680461 0
M  V30 1756 O 162.007 -1.88854 -0.323225 0
M  V30 1757 C 162.201 -1.72069 3.13252 0
M  V30 1758 C 162.03 -0.89035 4.40798 0
M  V30 1759 C 160.8 -0.566282 5.02117 0
M  V30 1760 C 162.998 -0.232921 5.13772 0
M  V30 1761 N 160.98 0.280427 6.13259 0
M  V30 1762 C 162.351 0.475046 6.18177 0
M  V30 1763 C 164.406 -0.150863 4.97671 0
M  V30 1764 C 163.109 1.25729 7.08227 0
M  V30 1765 C 165.135 0.618039 5.88162 0
M  V30 1766 C 164.497 1.31438 6.92029 0
M  V30 1767 H 160.596 -0.303303 0.720785 0
M  V30 1768 H 163.18 -0.154244 1.94088 0
M  V30 1769 H 161.351 -2.42499 3.03395 0
M  V30 1770 H 163.083 -2.37545 3.2765 0
M  V30 1771 H 159.838 -0.895852 4.6505 0
M  V30 1772 H 160.262 0.694027 6.73433 0
M  V30 1773 H 164.904 -0.674868 4.17379 0
M  V30 1774 H 162.622 1.79265 7.87966 0
M  V30 1775 H 166.208 0.683173 5.77775 0
M  V30 1776 H 165.088 1.89981 7.6084 0
M  V30 1777 N 162.591 -1.51276 -0.441967 0
M  V30 1778 C 163.541 -1.6864 -1.53442 0
M  V30 1779 C 164.525 -0.540444 -1.51552 0
M  V30 1780 O 165.717 -0.796157 -1.58083 0
M  V30 1781 C 162.846 -1.8106 -2.91672 0
M  V30 1782 C 161.932 -3.01424 -2.98336 0
M  V30 1783 N 162.323 -4.2467 -2.74752 0
M  V30 1784 C 160.621 -3.00584 -3.29493 0
M  V30 1785 C 161.322 -5.05891 -2.87139 0
M  V30 1786 N 160.298 -4.40442 -3.18609 0
M  V30 1787 H 164.1 -2.61598 -1.33954 0
M  V30 1788 H 161.614 -1.4886 -0.6492 0
M  V30 1789 H 163.611 -1.91609 -3.70259 0
M  V30 1790 H 162.271 -0.892795 -3.12185 0
M  V30 1791 H 163.282 -4.53691 -2.49769 0
M  V30 1792 H 159.959 -2.18417 -3.55809 0
M  V30 1793 H 161.349 -6.13983 -2.72899 0
M  V30 1794 N 164.069 0.697108 -1.41344 0
M  V30 1795 C 165.019 1.80313 -1.39539 0
M  V30 1796 C 166.003 1.58618 -0.270001 0
M  V30 1797 O 167.195 1.69477 -0.510551 0
M  V30 1798 C 164.324 3.18606 -1.27848 0
M  V30 1799 C 163.41 3.46001 -2.45244 0
M  V30 1800 N 163.801 3.44103 -3.70711 0
M  V30 1801 C 162.099 3.76542 -2.39023 0
M  V30 1802 C 162.8 3.7036 -4.48563 0
M  V30 1803 N 161.776 3.90027 -3.78655 0
M  V30 1804 H 165.578 1.77207 -2.34468 0
M  V30 1805 H 163.092 0.897031 -1.35378 0
M  V30 1806 H 165.089 3.97833 -1.24637 0
M  V30 1807 H 163.749 3.22925 -0.339032 0
M  V30 1808 H 164.76 3.2452 -4.03618 0
M  V30 1809 H 161.437 3.88241 -1.53542 0
M  V30 1810 H 162.827 3.75042 -5.57488 0
M  V30 1811 N 165.547 1.27147 0.931209 0
M  V30 1812 C 166.963 1.04475 1.20653 0
M  V30 1813 C 167.163 -0.223885 2.00252 0
M  V30 1814 O 166.219 -0.930332 2.34736 0
M  V30 1815 C 167.532 2.28209 1.95809 0
M  V30 1816 C 169.08 2.33211 2.08762 0
M  V30 1817 C 169.555 3.56665 2.87323 0
M  V30 1818 N 171.046 3.57201 2.94892 0
M  V30 1819 C 171.781 4.49395 3.56134 0
M  V30 1820 N 171.277 5.51889 4.18796 0
M  V30 1821 N 173.07 4.37026 3.53504 0
M  V30 1822 H 165.221 2.08612 0.399333 0
M  V30 1823 H 167.484 0.917312 0.239253 0
M  V30 1824 H 167.19 3.20538 1.44736 0
M  V30 1825 H 167.064 2.33247 2.96438 0
M  V30 1826 H 169.451 1.41391 2.59023 0
M  V30 1827 H 169.532 2.32178 1.07364 0
M  V30 1828 H 169.176 4.4882 2.37746 0
M  V30 1829 H 169.106 3.54948 3.88998 0
M  V30 1830 H 171.597 2.83074 2.50354 0
M  V30 1831 H 171.91 6.18409 4.63454 0
M  V30 1832 H 170.255 5.55735 4.17353 0
M  V30 1833 H 173.446 3.56166 3.03749 0
M  V30 1834 H 173.619 5.09067 4.00942 0
M  V30 1835 N 167.025 -1.13721 1.09112 0
M  V30 1836 C 168.265 -1.86576 0.834801 0
M  V30 1837 C 168.629 -1.81435 -0.628122 0
M  V30 1838 O 169.83 -2.49497 -1.00024 0
M  V30 1839 C 168.101 -3.30872 1.35124 0
M  V30 1840 S 169.66 -4.21257 1.22832 0
M  V30 1841 H 166.478 -0.643666 0.302017 0
M  V30 1842 H 169.08 -1.37085 1.39385 0
M  V30 1843 H 167.784 -3.32166 2.41027 0
M  V30 1844 H 167.315 -3.85423 0.788185 0
M  V30 1845 H 169.33 -4.95884 0.177191 0
M  V30 1846 N 168.503 -0.877838 -1.30888 0
M  V30 1847 C 169.749 -0.502773 -1.97088 0
M  V30 1848 C 170.104 0.936274 -1.68082 0
M  V30 1849 O 169.397 1.65162 -0.971196 0
M  V30 1850 C 169.591 -0.705748 -3.50363 0
M  V30 1851 C 169.42 -2.16297 -3.94266 0
M  V30 1852 C 168.19 -2.80614 -4.20219 0
M  V30 1853 C 170.388 -3.13606 -4.07622 0
M  V30 1854 N 168.37 -4.17007 -4.50532 0
M  V30 1855 C 169.741 -4.35051 -4.41736 0
M  V30 1856 C 171.796 -3.09491 -3.90026 0
M  V30 1857 C 170.499 -5.52911 -4.60089 0
M  V30 1858 C 172.525 -4.26616 -4.09576 0
M  V30 1859 C 171.887 -5.46825 -4.44029 0
M  V30 1860 H 167.986 -0.233168 -0.746429 0
M  V30 1861 H 170.57 -1.13408 -1.58261 0
M  V30 1862 H 168.741 -0.103976 -3.88261 0
M  V30 1863 H 170.473 -0.298291 -4.03599 0
M  V30 1864 H 167.228 -2.3152 -4.13153 0
M  V30 1865 H 167.652 -4.87426 -4.69834 0
M  V30 1866 H 172.294 -2.17657 -3.62471 0
M  V30 1867 H 170.012 -6.45255 -4.86489 0
M  V30 1868 H 173.598 -4.24894 -3.97438 0
M  V30 1869 H 172.478 -6.35947 -4.58848 0
M  V30 1870 N 169.982 1.44106 -0.638065 0
M  V30 1871 C 170.912 2.33448 0.0494287 0
M  V30 1872 C 171.893 1.48606 0.827672 0
M  V30 1873 O 173.078 1.77308 0.792173 0
M  V30 1874 C 170.208 3.31771 1.02691 0
M  V30 1875 C 169.162 4.26485 0.359823 0
M  V30 1876 C 168.488 5.14729 1.44769 0
M  V30 1877 C 169.788 5.17056 -0.738296 0
M  V30 1878 H 171.482 2.91183 -0.696636 0
M  V30 1879 H 169.028 1.40014 -0.336456 0
M  V30 1880 H 170.981 3.93161 1.51666 0
M  V30 1881 H 169.705 2.7226 1.80395 0
M  V30 1882 H 168.364 3.66437 -0.10934 0
M  V30 1883 H 168.012 4.51566 2.21578 0
M  V30 1884 H 167.712 5.78913 1.00668 0
M  V30 1885 H 169.236 5.78991 1.93911 0
M  V30 1886 H 170.65 5.72342 -0.331354 0
M  V30 1887 H 169.047 5.89879 -1.10286 0
M  V30 1888 H 170.117 4.57652 -1.60258 0
M  V30 1889 N 171.46 0.379036 1.52974 0
M  V30 1890 C 172.39 -0.452706 2.29069 0
M  V30 1891 C 173.371 -1.07237 1.32039 0
M  V30 1892 O 174.556 -1.08708 1.60923 0
M  V30 1893 C 171.686 -1.5856 3.08992 0
M  V30 1894 C 170.64 -1.0925 4.13822 0
M  V30 1895 C 169.966 -2.31668 4.81907 0
M  V30 1896 C 171.266 -0.167702 5.22031 0
M  V30 1897 H 172.96 0.182181 2.98845 0
M  V30 1898 H 170.506 0.0890592 1.43724 0
M  V30 1899 H 172.459 -2.1742 3.6098 0
M  V30 1900 H 171.183 -2.24792 2.36931 0
M  V30 1901 H 169.842 -0.526494 3.628 0
M  V30 1902 H 169.49 -2.96386 4.06404 0
M  V30 1903 H 169.19 -1.9934 5.52754 0
M  V30 1904 H 170.714 -2.91189 5.36695 0
M  V30 1905 H 172.128 -0.664186 5.6944 0
M  V30 1906 H 170.525 0.0653265 6.00064 0
M  V30 1907 H 171.595 0.786347 4.78482 0
M  V30 1908 N 172.938 -1.57226 0.108567 0
M  V30 1909 C 174.186 -1.94448 -0.550853 0
M  V30 1910 C 174.507 -0.992074 -1.67878 0
M  V30 1911 O 173.777 -0.0465 -1.95845 0
M  V30 1912 H 172.357 -0.717897 -0.206479 0
M  V30 1913 H 175.019 -1.94112 0.175062 0
M  V30 1914 H 174.115 -2.97218 -0.952259 0
M  V30 1915 N 174.416 0.165178 -1.56732 0
M  V30 1916 C 175.832 0.517174 -1.50988 0
M  V30 1917 C 176.032 1.84331 -0.813894 0
M  V30 1918 O 175.088 2.49672 -0.37682 0
M  V30 1919 C 176.401 0.544261 -2.95733 0
M  V30 1920 C 177.949 0.631039 -3.06573 0
M  V30 1921 C 178.424 0.68896 -4.52788 0
M  V30 1922 N 179.915 0.751683 -4.5706 0
M  V30 1923 C 180.65 0.817177 -5.67547 0
M  V30 1924 N 180.146 0.843129 -6.8765 0
M  V30 1925 N 181.939 0.856668 -5.55534 0
M  V30 1926 H 174.09 -0.704318 -2.00382 0
M  V30 1927 H 176.353 -0.254687 -0.913148 0
M  V30 1928 H 176.059 -0.361607 -3.49836 0
M  V30 1929 H 175.933 1.3886 -3.5071 0
M  V30 1930 H 178.32 1.52733 -2.52501 0
M  V30 1931 H 178.401 -0.240095 -2.54671 0
M  V30 1932 H 178.045 -0.2031 -5.07494 0
M  V30 1933 H 177.975 1.57633 -5.02454 0
M  V30 1934 H 180.466 0.739661 -3.70591 0
M  V30 1935 H 180.779 0.894448 -7.67606 0
M  V30 1936 H 179.124 0.811304 -6.90248 0
M  V30 1937 H 182.315 0.833437 -4.60621 0
M  V30 1938 H 182.488 0.904247 -6.4166 0
M  V30 1939 N 175.894 1.51508 0.433938 0
M  V30 1940 C 176.824 1.76016 1.53429 0
M  V30 1941 C 177.805 0.610112 1.58782 0
M  V30 1942 O 178.99 0.853177 1.74455 0
M  V30 1943 C 176.12 1.88831 2.9148 0
M  V30 1944 C 175.074 3.04288 3.00987 0
M  V30 1945 C 174.4 3.0229 4.4105 0
M  V30 1946 C 175.7 4.44193 2.74754 0
M  V30 1947 H 177.394 2.68152 1.33171 0
M  V30 1948 H 174.94 1.29035 0.639214 0
M  V30 1949 H 176.893 2.04559 3.6842 0
M  V30 1950 H 175.617 0.933455 3.12976 0
M  V30 1951 H 174.276 2.8827 2.26486 0
M  V30 1952 H 173.924 2.04576 4.59519 0
M  V30 1953 H 173.624 3.79822 4.4834 0
M  V30 1954 H 175.148 3.20116 5.1996 0
M  V30 1955 H 176.562 4.60544 3.41426 0
M  V30 1956 H 174.959 5.23457 2.9345 0
M  V30 1957 H 176.029 4.53996 1.70339 0
M  V30 1958 N 177.372 -0.689602 1.41712 0
M  V30 1959 C 178.783 -1.26973 1.36875 0
M  V30 1960 C 179.134 -1.96124 0.054748 0
M  V30 1961 O 178.259 -1.99141 -0.84687 0
M  V30 1962 C 178.854 -2.30912 2.47922 0
M  V30 1963 C 177.413 -2.84486 2.46464 0
M  V30 1964 C 176.56 -1.58603 2.27465 0
M  V30 1965 H 179.511 -0.48396 1.51141 0
M  V30 1966 H 179.532 -3.12331 2.17323 0
M  V30 1967 H 179.044 -1.80554 3.43543 0
M  V30 1968 H 177.145 -3.39005 1.54617 0
M  V30 1969 H 177.258 -3.34511 3.42986 0
M  V30 1970 H 175.622 -1.84632 1.75451 0
M  V30 1971 H 176.405 -1.10233 3.25121 0
M  V30 1972 N 178.85 -1.27639 -0.924453 0
M  V30 1973 C 179.76 -1.12466 -2.05885 0
M  V30 1974 C 180.776 -0.053869 -1.73917 0
M  V30 1975 O 181.952 -0.261012 -1.99702 0
M  V30 1976 C 179.017 -0.776768 -3.37886 0
M  V30 1977 C 178.078 -1.92878 -3.83532 0
M  V30 1978 C 177.311 -1.59739 -5.09234 0
M  V30 1979 O 177.534 -0.506782 -5.68144 0
M  V30 1980 O 176.468 -2.43761 -5.50331 0
M  V30 1981 H 180.294 -2.07671 -2.21599 0
M  V30 1982 H 177.879 -1.06857 -1.04413 0
M  V30 1983 H 179.761 -0.596229 -4.17161 0
M  V30 1984 H 178.436 0.145732 -3.23372 0
M  V30 1985 H 177.343 -2.1644 -3.0513 0
M  V30 1986 H 178.676 -2.8316 -4.02593 0
M  V30 1987 N 180.328 1.1314 -1.09713 0
M  V30 1988 C 181.739 1.66029 -0.853885 0
M  V30 1989 C 182.09 1.86241 0.617142 0
M  V30 1990 O 181.215 1.5834 1.47503 0
M  V30 1991 C 181.81 3.01599 -1.5435 0
M  V30 1992 C 180.369 3.51467 -1.34714 0
M  V30 1993 C 179.516 2.26648 -1.59769 0
M  V30 1994 H 182.467 0.970226 -1.25588 0
M  V30 1995 H 182.488 3.67709 -0.978267 0
M  V30 1996 H 182 2.86856 -2.6141 0
M  V30 1997 H 180.101 3.71408 -0.297838 0
M  V30 1998 H 180.214 4.314 -2.08401 0
M  V30 1999 H 178.578 2.33385 -1.01998 0
M  V30 2000 H 179.361 2.14467 -2.68065 0
M  V30 2001 N 181.806 0.884767 1.30421 0
M  V30 2002 C 182.754 0.340869 2.30089 0
M  V30 2003 C 183.748 -0.55201 1.60154 0
M  V30 2004 O 184.954 -0.436467 1.74628 0
M  V30 2005 H 181.329 0.0915739 0.746404 0
M  V30 2006 H 183.3 1.19513 2.73421 0
M  V30 2007 C 182.049 -0.429779 3.45034 0
M  V30 2008 H 181.372 0.248024 3.9903 0
M  V30 2009 H 182.812 -0.775445 4.16849 0
M  V30 2010 C 181.271 -1.62677 2.95022 0
M  V30 2011 O 181.801 -2.72614 2.95033 0
M  V30 2012 N 180.007 -1.46387 2.51036 0
M  V30 2013 H 179.554 -0.569506 2.51226 0
M  V30 2014 H 179.512 -2.26612 2.17932 0
M  V30 2015 N 183.284 -1.43765 0.645699 0
M  V30 2016 C 184.53 -2.02731 0.164844 0
M  V30 2017 C 184.885 -1.49983 -1.2051 0
M  V30 2018 O 184.178 -0.680208 -1.79119 0
M  V30 2019 C 184.372 -3.57238 0.107679 0
M  V30 2020 C 184.201 -4.24977 1.47054 0
M  V30 2021 C 182.971 -4.61356 2.06103 0
M  V30 2022 C 185.169 -4.54476 2.40741 0
M  V30 2023 N 183.151 -5.14132 3.35473 0
M  V30 2024 C 184.522 -5.08489 3.54737 0
M  V30 2025 C 186.577 -4.36438 2.39637 0
M  V30 2026 C 185.28 -5.46364 4.67845 0
M  V30 2027 C 187.306 -4.7537 3.5182 0
M  V30 2028 C 186.668 -5.2951 4.64541 0
M  V30 2029 H 182.767 -0.774976 0.104578 0
M  V30 2030 H 185.351 -1.75051 0.852367 0
M  V30 2031 H 183.522 -3.84498 -0.549165 0
M  V30 2032 H 185.254 -4.0288 -0.383351 0
M  V30 2033 H 182.009 -4.46151 1.58892 0
M  V30 2034 H 182.433 -5.4498 4.01654 0
M  V30 2035 H 187.075 -3.93861 1.53731 0
M  V30 2036 H 184.793 -5.87888 5.54448 0
M  V30 2037 H 188.379 -4.63115 3.52159 0
M  V30 2038 H 187.259 -5.59077 5.49911 0
M  V30 2039 N 184.763 -0.387143 -1.52771 0
M  V30 2040 C 185.991 0.195869 -2.05971 0
M  V30 2041 C 186.406 1.40691 -1.25903 0
M  V30 2042 O 185.763 1.79931 -0.305134 0
M  V30 2043 C 185.814 0.56812 -3.57008 0
M  V30 2044 O 185.535 -0.594803 -4.34043 0
M  V30 2045 C 187.036 1.20723 -4.26545 0
M  V30 2046 H 184.256 0.0300578 -0.670326 0
M  V30 2047 H 186.8 -0.551749 -1.96916 0
M  V30 2048 H 184.955 1.26564 -3.66143 0
M  V30 2049 H 185.369 -0.289322 -5.23701 0
M  V30 2050 H 186.843 1.41807 -5.33474 0
M  V30 2051 H 187.32 2.17395 -3.81623 0
M  V30 2052 H 187.926 0.550535 -4.21722 0
M  V30 2053 N 186.241 1.57166 -0.116904 0
M  V30 2054 C 187.657 1.5779 0.239693 0
M  V30 2055 C 187.857 1.1295 1.66867 0
M  V30 2056 O 186.913 0.81592 2.38954 0
M  V30 2057 C 188.226 3.00699 0.00828202 0
M  V30 2058 C 189.774 3.12912 0.0743438 0
M  V30 2059 C 190.249 4.57817 -0.129348 0
M  V30 2060 N 191.74 4.63139 -0.075247 0
M  V30 2061 C 192.475 5.73023 -0.207788 0
M  V30 2062 N 191.971 6.91665 -0.396382 0
M  V30 2063 N 193.764 5.61906 -0.14751 0
M  V30 2064 H 185.915 1.84615 -1.05029 0
M  V30 2065 H 188.178 0.85311 -0.41341 0
M  V30 2066 H 187.884 3.37784 -0.979531 0
M  V30 2067 H 187.758 3.69848 0.741077 0
M  V30 2068 H 190.145 2.75686 1.05268 0
M  V30 2069 H 190.226 2.4631 -0.690297 0
M  V30 2070 H 189.87 4.95742 -1.10465 0
M  V30 2071 H 189.8 5.22507 0.655253 0
M  V30 2072 H 192.291 3.7784 0.0670898 0
M  V30 2073 H 192.604 7.71255 -0.488437 0
M  V30 2074 H 190.949 6.93654 -0.432329 0
M  V30 2075 H 194.14 4.681 -0.00115036 0
M  V30 2076 H 194.313 6.47501 -0.254247 0
M  V30 2077 N 187.719 -0.156864 1.56817 0
M  V30 2078 C 188.629 -1.2136 2.00771 0
M  V30 2079 C 189.645 -1.47598 0.921459 0
M  V30 2080 O 190.821 -1.59462 1.2302 0
M  V30 2081 C 187.886 -2.52943 2.37109 0
M  V30 2082 C 186.947 -2.34439 3.59634 0
M  V30 2083 C 186.18 -3.59748 3.94229 0
M  V30 2084 O 186.403 -4.65526 3.29609 0
M  V30 2085 O 185.337 -3.52998 4.8752 0
M  V30 2086 H 189.163 -0.870468 2.90958 0
M  V30 2087 H 186.748 -0.36484 1.44877 0
M  V30 2088 H 188.63 -3.30538 2.61386 0
M  V30 2089 H 187.305 -2.86806 1.5008 0
M  V30 2090 H 186.212 -1.54828 3.40557 0
M  V30 2091 H 187.545 -2.05496 4.4725 0
M  V30 2092 N 189.197 -1.51736 -0.425897 0
M  V30 2093 C 190.127 -1.76827 -1.52494 0
M  V30 2094 C 191.108 -0.618524 -1.58456 0
M  V30 2095 O 192.293 -0.862416 -1.74 0
M  V30 2096 C 189.423 -1.90374 -2.90474 0
M  V30 2097 C 188.377 -3.0588 -2.99369 0
M  V30 2098 C 187.703 -3.04625 -4.3944 0
M  V30 2099 C 189.003 -4.45644 -2.72394 0
M  V30 2100 H 190.697 -2.68855 -1.31748 0
M  V30 2101 H 188.243 -1.29372 -0.632362 0
M  V30 2102 H 190.196 -2.0651 -3.6733 0
M  V30 2103 H 188.92 -0.95004 -3.12477 0
M  V30 2104 H 187.579 -2.89467 -2.24954 0
M  V30 2105 H 187.227 -2.0701 -4.58428 0
M  V30 2106 H 186.927 -3.82195 -4.46319 0
M  V30 2107 H 188.451 -3.22869 -5.18255 0
M  V30 2108 H 189.865 -4.62348 -3.38979 0
M  V30 2109 H 188.262 -5.25006 -2.9067 0
M  V30 2110 H 189.332 -4.54893 -1.67929 0
M  V30 2111 N 190.675 0.682077 -1.42076 0
M  V30 2112 C 191.585 1.82535 -1.47371 0
M  V30 2113 C 192.601 1.7017 -0.363079 0
M  V30 2114 O 193.777 1.91848 -0.612875 0
M  V30 2115 C 190.842 3.18624 -1.36674 0
M  V30 2116 C 189.903 3.42999 -2.58167 0
M  V30 2117 C 189.136 4.72595 -2.4797 0
M  V30 2118 O 189.359 5.50006 -1.5116 0
M  V30 2119 O 188.293 4.98054 -3.37974 0
M  V30 2120 H 192.119 1.81023 -2.43853 0
M  V30 2121 H 189.704 0.836887 -1.2376 0
M  V30 2122 H 191.586 3.99847 -1.33043 0
M  V30 2123 H 190.261 3.20789 -0.433138 0
M  V30 2124 H 189.168 2.61653 -2.67373 0
M  V30 2125 H 190.501 3.45659 -3.50401 0
M  V30 2126 N 192.153 1.28127 0.917671 0
M  V30 2127 C 193.083 1.14248 2.03641 0
M  V30 2128 C 194.064 0.0412748 1.7005 0
M  V30 2129 O 195.249 0.217566 1.92977 0
M  V30 2130 C 192.379 0.799431 3.37974 0
M  V30 2131 C 191.333 1.85497 3.85713 0
M  V30 2132 C 190.659 1.36565 5.16966 0
M  V30 2133 C 191.959 3.26085 4.08002 0
M  V30 2134 H 193.653 2.07835 2.15511 0
M  V30 2135 H 191.199 1.00064 1.03553 0
M  V30 2136 H 193.152 0.689114 4.15727 0
M  V30 2137 H 191.876 -0.172145 3.26146 0
M  V30 2138 H 190.535 1.95437 3.10161 0
M  V30 2139 H 190.183 0.383253 5.01538 0
M  V30 2140 H 189.883 2.07143 5.49878 0
M  V30 2141 H 191.407 1.26848 5.97279 0
M  V30 2142 H 192.821 3.19089 4.76293 0
M  V30 2143 H 191.218 3.94462 4.52238 0
M  V30 2144 H 192.288 3.70394 3.12948 0
M  V30 2145 N 193.631 -1.12557 1.10312 0
M  V30 2146 C 194.871 -1.8568 0.854543 0
M  V30 2147 C 195.235 -1.82091 -0.608843 0
M  V30 2148 O 196.436 -2.50544 -0.973717 0
M  V30 2149 C 194.707 -3.2942 1.38626 0
M  V30 2150 S 196.266 -4.19931 1.27293 0
M  V30 2151 H 193.084 -0.640427 0.308827 0
M  V30 2152 H 195.686 -1.35599 1.40831 0
M  V30 2153 H 194.39 -3.2959 2.44537 0
M  V30 2154 H 193.921 -3.84566 0.82902 0
M  V30 2155 H 195.936 -4.95668 0.229776 0
M  V30 2156 N 195.109 -0.891671 -1.2995 0
M  V30 2157 C 196.072 -0.36828 -2.26222 0
M  V30 2158 C 197.072 0.493014 -1.53056 0
M  V30 2159 O 198.262 0.299213 -1.71611 0
M  V30 2160 C 195.394 0.47442 -3.37583 0
M  V30 2161 H 196.587 -1.21844 -2.74033 0
M  V30 2162 H 194.14 -0.669107 -1.41254 0
M  V30 2163 H 194.875 1.34489 -2.95099 0
M  V30 2164 H 194.66 -0.142615 -3.91841 0
M  V30 2165 H 196.15 0.83218 -4.09224 0
M  V30 2166 N 196.587 1.43421 -0.653314 0
M  V30 2167 C 198.003 1.56341 -0.320886 0
M  V30 2168 C 198.203 1.63696 1.17499 0
M  V30 2169 O 197.259 1.59208 1.95982 0
M  V30 2170 C 198.572 2.82424 -1.03233 0
M  V30 2171 C 200.12 2.96168 -1.01259 0
M  V30 2172 C 200.595 4.25084 -1.70492 0
M  V30 2173 N 202.086 4.31948 -1.67257 0
M  V30 2174 C 202.821 5.30466 -2.17701 0
M  V30 2175 N 202.317 6.35261 -2.76434 0
M  V30 2176 N 204.11 5.2212 -2.082 0
M  V30 2177 H 196.261 1.3689 -1.62403 0
M  V30 2178 H 198.524 0.657455 -0.682977 0
M  V30 2179 H 198.23 2.83053 -2.08744 0
M  V30 2180 H 198.104 3.72653 -0.583948 0
M  V30 2181 H 200.491 2.9508 0.0341235 0
M  V30 2182 H 200.572 2.07229 -1.49966 0
M  V30 2183 H 200.216 4.26932 -2.7512 0
M  V30 2184 H 200.146 5.1292 -1.19251 0
M  V30 2185 H 202.637 3.56838 -1.24398 0
M  V30 2186 H 202.95 7.06754 -3.12601 0
M  V30 2187 H 201.295 6.35884 -2.80495 0
M  V30 2188 H 204.486 4.39166 -1.62021 0
M  V30 2189 H 204.659 5.98739 -2.47822 0
M  V30 2190 N 198.065 0.39524 1.52563 0
M  V30 2191 C 199.312 -0.185044 2.01653 0
M  V30 2192 C 199.64 -1.46317 1.28146 0
M  V30 2193 O 198.895 -1.9213 0.372074 0
M  V30 2194 C 199.194 -0.493444 3.53977 0
M  V30 2195 C 198.86 0.69384 4.4553 0
M  V30 2196 C 197.522 1.01954 4.70275 0
M  V30 2197 C 199.874 1.48785 4.99512 0
M  V30 2198 C 197.202 2.14069 5.46252 0
M  V30 2199 C 199.554 2.59965 5.76716 0
M  V30 2200 C 198.218 2.93037 5.99738 0
M  V30 2201 H 197.488 -0.0677123 0.7379 0
M  V30 2202 H 200.135 0.533807 1.8391 0
M  V30 2203 H 198.44 -1.29369 3.69825 0
M  V30 2204 H 200.137 -0.955163 3.89458 0
M  V30 2205 H 196.727 0.429987 4.26438 0
M  V30 2206 H 200.911 1.24946 4.80315 0
M  V30 2207 H 196.167 2.40056 5.62302 0
M  V30 2208 H 200.341 3.21887 6.17545 0
M  V30 2209 H 197.968 3.8003 6.58393 0
M  V30 2210 N 199.544 -1.57102 0.125237 0
M  V30 2211 C 200.474 -2.18659 -0.819174 0
M  V30 2212 C 201.455 -1.12843 -1.27281 0
M  V30 2213 O 202.64 -1.41104 -1.33429 0
M  V30 2214 C 199.77 -2.79096 -2.06695 0
M  V30 2215 C 198.724 -3.90548 -1.75088 0
M  V30 2216 C 198.05 -4.37821 -3.06948 0
M  V30 2217 C 199.35 -5.12356 -1.01435 0
M  V30 2218 H 201.044 -2.9783 -0.306202 0
M  V30 2219 H 198.59 -1.4326 -0.145839 0
M  V30 2220 H 200.543 -3.2082 -2.73226 0
M  V30 2221 H 199.267 -1.97223 -2.60328 0
M  V30 2222 H 197.926 -3.49409 -1.10944 0
M  V30 2223 H 197.574 -3.52799 -3.58527 0
M  V30 2224 H 197.274 -5.12982 -2.86571 0
M  V30 2225 H 198.798 -4.822 -3.74587 0
M  V30 2226 H 200.212 -5.5106 -1.58132 0
M  V30 2227 H 198.609 -5.9314 -0.911319 0
M  V30 2228 H 199.679 -4.849 -0.00218681 0
M  V30 2229 N 201.022 0.148545 -1.56898 0
M  V30 2230 C 201.932 1.20293 -2.01412 0
M  V30 2231 C 202.948 1.47107 -0.929273 0
M  V30 2232 O 204.124 1.58807 -1.23863 0
M  V30 2233 C 201.189 2.51682 -2.38447 0
M  V30 2234 C 200.25 2.32529 -3.60872 0
M  V30 2235 C 199.483 3.57653 -3.96132 0
M  V30 2236 O 199.706 4.63771 -3.32073 0
M  V30 2237 O 198.64 3.50408 -4.89385 0
M  V30 2238 H 202.466 0.855025 -2.91416 0
M  V30 2239 H 200.051 0.357151 -1.45068 0
M  V30 2240 H 201.933 3.29147 -2.63135 0
M  V30 2241 H 200.608 2.86006 -1.51599 0
M  V30 2242 H 199.515 1.53019 -3.41373 0
M  V30 2243 H 200.848 2.03121 -4.48333 0
M  V30 2244 N 202.5 1.5196 0.417844 0
M  V30 2245 C 203.746 1.65836 1.16732 0
M  V30 2246 C 204.079 0.382881 1.90388 0
M  V30 2247 O 203.354 -0.618368 1.84408 0
M  V30 2248 C 203.637 2.87466 2.16876 0
M  V30 2249 C 203.49 4.25041 1.47174 0
M  V30 2250 C 204.809 3.04613 3.17646 0
M  V30 2251 H 201.928 0.603515 0.423011 0
M  V30 2252 H 204.57 1.84494 0.454105 0
M  V30 2253 H 202.72 2.71689 2.777 0
M  V30 2254 H 204.392 4.52527 0.895376 0
M  V30 2255 H 202.635 4.26843 0.773806 0
M  V30 2256 H 203.306 5.06176 2.20204 0
M  V30 2257 H 205.782 3.1923 2.66892 0
M  V30 2258 H 204.658 3.91247 3.8499 0
M  V30 2259 H 204.919 2.17541 3.84874 0
M  V30 2260 N 203.978 -0.674533 1.42435 0
M  V30 2261 C 205.255 -1.4305 1.33402 0
M  V30 2262 C 205.635 -2.11081 -0.0284674 0
M  V30 2263 O 204.983 -2.03257 -1.04397 0
M  V30 2264 C 205.193 -2.43272 2.50239 0
M  V30 2265 C 206.541 -3.07907 2.92367 0
M  V30 2266 O 207.565 -2.53599 2.50132 0
M  V30 2267 O 206.424 -4.0632 3.65467 0
M  V30 2268 H 203.518 -0.638076 0.526106 0
M  V30 2269 H 206.064 -0.703235 1.54443 0
M  V30 2270 H 204.836 -1.91803 3.41068 0
M  V30 2271 H 204.459 -3.23479 2.31186 0
M  V30 2272 N 205.456 -1.28612 -0.910864 0
M  V30 2273 C 206.366 -1.14643 -2.0468 0
M  V30 2274 C 207.382 -0.0723121 -1.7385 0
M  V30 2275 O 208.558 -0.282178 -1.99413 0
M  V30 2276 C 205.623 -0.812561 -3.37044 0
M  V30 2277 C 204.684 -1.96935 -3.81465 0
M  V30 2278 C 203.917 -1.65131 -5.07511 0
M  V30 2279 O 204.14 -0.567013 -5.67575 0
M  V30 2280 O 203.074 -2.49585 -5.47714 0
M  V30 2281 H 206.9 -2.1001 -2.19384 0
M  V30 2282 H 204.485 -1.07958 -1.03274 0
M  V30 2283 H 206.367 -0.640441 -4.16505 0
M  V30 2284 H 205.042 0.111426 -3.23508 0
M  V30 2285 H 203.949 -2.19664 -3.02818 0
M  V30 2286 H 205.282 -2.87414 -3.99567 0
M  V30 2287 N 206.934 1.1197 -1.10907 0
M  V30 2288 C 208.35 1.35591 -0.841852 0
M  V30 2289 C 208.55 1.94233 0.536246 0
M  V30 2290 O 207.606 2.1717 1.28816 0
M  V30 2291 C 208.919 2.29284 -1.94549 0
M  V30 2292 C 210.467 2.42862 -1.97451 0
M  V30 2293 C 210.942 3.39873 -3.07002 0
M  V30 2294 N 212.433 3.47433 -3.06341 0
M  V30 2295 C 213.168 4.22421 -3.87748 0
M  V30 2296 N 212.664 5.00432 -4.79103 0
M  V30 2297 N 214.457 4.17876 -3.75946 0
M  V30 2298 H 206.608 0.722664 -1.99728 0
M  V30 2299 H 208.871 0.380635 -0.868229 0
M  V30 2300 H 208.577 1.93378 -2.93765 0
M  V30 2301 H 208.451 3.29452 -1.83688 0
M  V30 2302 H 210.838 2.78046 -0.988645 0
M  V30 2303 H 210.919 1.42566 -2.12388 0
M  V30 2304 H 210.563 3.05417 -4.05811 0
M  V30 2305 H 210.493 4.40011 -2.89306 0
M  V30 2306 H 212.984 2.91784 -2.40147 0
M  V30 2307 H 213.297 5.55002 -5.37766 0
M  V30 2308 H 211.642 4.99612 -4.83128 0
M  V30 2309 H 214.833 3.56016 -3.03924 0
M  V30 2310 H 215.006 4.76061 -4.39624 0
M  V30 2311 N 208.412 0.89855 1.29475 0
M  V30 2312 C 209.36 0.365253 2.29714 0
M  V30 2313 C 210.354 -0.534993 1.6073 0
M  V30 2314 O 211.56 -0.417921 1.75081 0
M  V30 2315 H 207.935 0.0994853 0.74539 0
M  V30 2316 H 209.906 1.22406 2.72138 0
M  V30 2317 C 208.655 -0.393159 3.4547 0
M  V30 2318 H 207.978 0.290332 3.98744 0
M  V30 2319 H 209.418 -0.731189 4.17648 0
M  V30 2320 C 207.877 -1.59539 2.9673 0
M  V30 2321 O 208.407 -2.69469 2.97908 0
M  V30 2322 N 206.613 -1.43716 2.52575 0
M  V30 2323 H 206.16 -0.542828 2.51816 0
M  V30 2324 H 206.118 -2.24288 2.20323 0
M  V30 2325 N 209.89 -1.43072 0.660911 0
M  V30 2326 C 211.137 -2.01721 0.177445 0
M  V30 2327 C 211.465 -1.5218 -1.21126 0
M  V30 2328 O 210.72 -0.708659 -1.82419 0
M  V30 2329 C 211.019 -3.57103 0.145563 0
M  V30 2330 C 210.685 -4.26021 1.47705 0
M  V30 2331 C 209.347 -4.44563 1.84165 0
M  V30 2332 C 211.699 -4.64983 2.35458 0
M  V30 2333 C 209.027 -4.99334 3.0803 0
M  V30 2334 C 211.379 -5.21127 3.58622 0
M  V30 2335 C 210.043 -5.37884 3.95268 0
M  V30 2336 H 209.313 -0.73815 0.0649317 0
M  V30 2337 H 211.96 -1.71446 0.853144 0
M  V30 2338 H 210.265 -3.86965 -0.61361 0
M  V30 2339 H 211.962 -4.00248 -0.2455 0
M  V30 2340 H 208.552 -4.11939 1.18339 0
M  V30 2341 H 212.736 -4.50343 2.08579 0
M  V30 2342 H 207.992 -5.10493 3.36462 0
M  V30 2343 H 212.166 -5.50262 4.26831 0
M  V30 2344 H 209.793 -5.80089 4.91325 0
M  V30 2345 N 211.368 -0.403325 -1.52352 0
M  V30 2346 C 212.318 0.442244 -2.2367 0
M  V30 2347 C 213.302 1.01823 -1.24583 0
M  V30 2348 O 214.494 0.942005 -1.49851 0
M  V30 2349 C 211.623 1.5615 -3.05732 0
M  V30 2350 C 210.709 0.996575 -4.12225 0
M  V30 2351 N 211.1 0.157804 -5.05554 0
M  V30 2352 C 209.398 1.26767 -4.27605 0
M  V30 2353 C 210.099 -0.155853 -5.81491 0
M  V30 2354 N 209.075 0.451775 -5.41719 0
M  V30 2355 H 212.877 -0.204964 -2.93184 0
M  V30 2356 H 210.391 -0.213418 -1.60992 0
M  V30 2357 H 212.388 2.17981 -3.55373 0
M  V30 2358 H 211.048 2.21139 -2.37755 0
M  V30 2359 H 212.059 -0.206049 -5.1749 0
M  V30 2360 H 208.736 1.91757 -3.70858 0
M  V30 2361 H 210.126 -0.836329 -6.66675 0
M  V30 2362 N 212.846 1.57033 -0.133567 0
M  V30 2363 C 214.086 1.97575 0.523789 0
M  V30 2364 C 214.45 1.01605 1.62912 0
M  V30 2365 O 215.651 1.3114 2.3464 0
M  V30 2366 C 213.922 3.42256 1.02935 0
M  V30 2367 S 215.481 4.04817 1.69319 0
M  V30 2368 H 212.299 0.690427 0.169799 0
M  V30 2369 H 214.901 1.94234 -0.222101 0
M  V30 2370 H 213.605 4.09842 0.213917 0
M  V30 2371 H 213.136 3.4928 1.81017 0
M  V30 2372 H 215.151 3.96767 2.97977 0
M  V30 2373 N 214.325 -0.140222 1.56975 0
M  V30 2374 C 215.571 -0.848084 1.84876 0
M  V30 2375 C 215.926 -1.78481 0.718481 0
M  V30 2376 O 215.219 -1.89497 -0.283093 0
M  V30 2377 C 215.413 -1.65386 3.16832 0
M  V30 2378 C 215.242 -0.79665 4.42587 0
M  V30 2379 C 214.012 -0.459648 5.03205 0
M  V30 2380 C 216.21 -0.12389 5.14151 0
M  V30 2381 N 214.192 0.410446 6.12526 0
M  V30 2382 C 215.563 0.606064 6.17031 0
M  V30 2383 C 217.618 -0.0452654 4.97879 0
M  V30 2384 C 216.321 1.40723 7.054 0
M  V30 2385 C 218.347 0.742658 5.86718 0
M  V30 2386 C 217.709 1.46087 6.89085 0
M  V30 2387 H 213.808 -0.287946 0.727056 0
M  V30 2388 H 216.392 -0.11304 1.94372 0
M  V30 2389 H 214.563 -2.36009 3.08471 0
M  V30 2390 H 216.295 -2.30541 3.32615 0
M  V30 2391 H 213.05 -0.797006 4.66846 0
M  V30 2392 H 213.474 0.836716 6.7181 0
M  V30 2393 H 218.116 -0.586184 4.18717 0
M  V30 2394 H 215.834 1.95938 7.83986 0
M  V30 2395 H 219.42 0.805574 5.76196 0
M  V30 2396 H 218.3 2.06077 7.56639 0
M  V30 2397 N 215.803 -1.52179 -0.40978 0
M  V30 2398 C 217.08 -1.56769 -1.16974 0
M  V30 2399 C 217.46 -0.348322 -2.08206 0
M  V30 2400 O 216.808 0.664862 -2.18613 0
M  V30 2401 C 217.018 -2.89603 -1.9476 0
M  V30 2402 C 218.366 -3.42579 -2.50849 0
M  V30 2403 O 219.39 -2.91338 -2.04941 0
M  V30 2404 O 218.249 -4.32054 -3.34652 0
M  V30 2405 H 215.343 -0.631439 -0.534054 0
M  V30 2406 H 217.889 -1.64507 -0.416613 0
M  V30 2407 H 216.661 -3.698 -1.27921 0
M  V30 2408 H 216.284 -2.85155 -2.77079 0
M  V30 2409 N 217.281 0.66697 -1.42791 0
M  V30 2410 C 218.511 1.45294 -1.46878 0
M  V30 2411 C 218.919 1.89027 -0.0809861 0
M  V30 2412 O 218.262 1.59219 0.916246 0
M  V30 2413 C 218.324 2.72908 -2.34012 0
M  V30 2414 C 217.988 2.51203 -3.81767 0
M  V30 2415 C 218.985 2.15302 -4.73224 0
M  V30 2416 C 216.67 2.65954 -4.26115 0
M  V30 2417 C 218.664 1.94431 -6.07022 0
M  V30 2418 C 216.351 2.44699 -5.59969 0
M  V30 2419 C 217.349 2.08992 -6.5024 0
M  V30 2420 O 217.037 1.87948 -7.81621 0
M  V30 2421 H 216.769 0.453306 -0.501487 0
M  V30 2422 H 219.323 0.826232 -1.88049 0
M  V30 2423 H 217.553 3.38089 -1.87703 0
M  V30 2424 H 219.242 3.34816 -2.29462 0
M  V30 2425 H 220.008 2.03495 -4.40244 0
M  V30 2426 H 215.887 2.92724 -3.56137 0
M  V30 2427 H 219.431 1.66484 -6.77443 0
M  V30 2428 H 215.328 2.56105 -5.9252 0
M  V30 2429 H 216.096 2.02483 -7.93059 0
M  V30 2430 N 218.759 1.29093 0.90403 0
M  V30 2431 C 220.175 1.07011 1.1841 0
M  V30 2432 C 220.375 -0.181358 2.00682 0
M  V30 2433 O 219.431 -0.880331 2.36657 0
M  V30 2434 C 220.744 2.32311 1.90924 0
M  V30 2435 C 222.292 2.37587 2.03768 0
M  V30 2436 C 222.767 3.62679 2.79693 0
M  V30 2437 N 224.258 3.63376 2.87249 0
M  V30 2438 C 224.993 4.56848 3.46522 0
M  V30 2439 N 224.489 5.60648 4.06996 0
M  V30 2440 N 226.282 4.44426 3.44154 0
M  V30 2441 H 218.433 2.09412 0.354993 0
M  V30 2442 H 220.696 0.922181 0.219742 0
M  V30 2443 H 220.402 3.23536 1.37905 0
M  V30 2444 H 220.276 2.39483 2.91424 0
M  V30 2445 H 222.663 1.46853 2.55965 0
M  V30 2446 H 222.744 2.34403 1.02415 0
M  V30 2447 H 222.388 4.53762 2.28173 0
M  V30 2448 H 222.318 3.63119 3.81381 0
M  V30 2449 H 224.809 2.88321 2.44293 0
M  V30 2450 H 225.122 6.28101 4.50232 0
M  V30 2451 H 223.467 5.64463 4.05471 0
M  V30 2452 H 226.658 3.62529 2.96126 0
M  V30 2453 H 226.831 5.17457 3.90054 0
M  V30 2454 N 220.237 -1.11381 1.11499 0
M  V30 2455 C 221.653 -1.35143 0.849031 0
M  V30 2456 C 221.853 -1.94515 -0.525938 0
M  V30 2457 O 220.909 -2.1785 -1.27662 0
M  V30 2458 C 222.222 -2.28249 1.95762 0
M  V30 2459 C 223.77 -2.41812 1.98736 0
M  V30 2460 C 224.245 -3.3824 3.088 0
M  V30 2461 N 225.736 -3.45803 3.08179 0
M  V30 2462 C 226.471 -4.20358 3.89982 0
M  V30 2463 N 225.967 -4.97884 4.8175 0
M  V30 2464 N 227.76 -4.15877 3.78157 0
M  V30 2465 H 219.911 -0.712062 2.00109 0
M  V30 2466 H 222.174 -0.376025 0.870235 0
M  V30 2467 H 221.88 -1.91817 2.94787 0
M  V30 2468 H 221.754 -3.28473 1.85433 0
M  V30 2469 H 224.141 -2.77518 1.00338 0
M  V30 2470 H 224.222 -1.41437 2.13141 0
M  V30 2471 H 223.866 -3.03261 4.07425 0
M  V30 2472 H 223.796 -4.38471 2.91635 0
M  V30 2473 H 226.287 -2.90506 2.41691 0
M  V30 2474 H 226.6 -5.52142 5.40702 0
M  V30 2475 H 224.945 -4.97043 4.85771 0
M  V30 2476 H 228.136 -3.544 3.05808 0
M  V30 2477 H 228.309 -4.73723 4.42143 0
M  V30 2478 N 221.715 -0.905404 -1.28997 0
M  V30 2479 C 222.962 -0.534248 -1.95325 0
M  V30 2480 C 223.29 0.920535 -1.71337 0
M  V30 2481 O 222.545 1.66861 -1.02254 0
M  V30 2482 C 222.844 -0.779906 -3.48787 0
M  V30 2483 C 222.51 -2.21293 -3.92861 0
M  V30 2484 C 221.172 -2.60475 -4.04606 0
M  V30 2485 C 223.524 -3.14587 -4.15553 0
M  V30 2486 C 220.852 -3.9212 -4.36416 0
M  V30 2487 C 223.204 -4.45787 -4.48839 0
M  V30 2488 C 221.868 -4.84834 -4.58794 0
M  V30 2489 H 221.138 -0.195495 -0.714747 0
M  V30 2490 H 223.785 -1.14514 -1.53488 0
M  V30 2491 H 222.09 -0.0861365 -3.91705 0
M  V30 2492 H 223.787 -0.472029 -3.98212 0
M  V30 2493 H 220.377 -1.89887 -3.84241 0
M  V30 2494 H 224.561 -2.85528 -4.0594 0
M  V30 2495 H 219.817 -4.22086 -4.42327 0
M  V30 2496 H 223.991 -5.18098 -4.65346 0
M  V30 2497 H 221.618 -5.86877 -4.83197 0
M  V30 2498 N 223.193 1.4272 -0.668489 0
M  V30 2499 C 224.439 2.01923 -0.188419 0
M  V30 2500 C 224.772 1.52704 1.19979 0
M  V30 2501 O 224.047 0.726566 1.8042 0
M  V30 2502 C 224.33 3.59451 -0.216085 0
M  V30 2503 C 224.183 4.18864 -1.6393 0
M  V30 2504 C 225.502 4.37903 0.439179 0
M  V30 2505 H 222.621 0.733674 -0.0699412 0
M  V30 2506 H 225.263 1.69822 -0.852076 0
M  V30 2507 H 223.413 3.86929 0.349012 0
M  V30 2508 H 225.085 4.02362 -2.25616 0
M  V30 2509 H 223.328 3.74933 -2.18193 0
M  V30 2510 H 223.999 5.27987 -1.61039 0
M  V30 2511 H 226.475 4.16079 -0.0417878 0
M  V30 2512 H 225.351 5.47519 0.389157 0
M  V30 2513 H 225.612 4.15303 1.51577 0
M  V30 2514 N 224.671 0.411399 1.52136 0
M  V30 2515 C 225.634 -0.401089 2.25663 0
M  V30 2516 C 226.634 -0.971732 1.28117 0
M  V30 2517 O 227.824 -0.850254 1.52041 0
M  V30 2518 C 224.956 -1.56483 3.02863 0
M  V30 2519 H 226.149 0.24295 2.98914 0
M  V30 2520 H 223.702 0.163968 1.55438 0
M  V30 2521 H 224.437 -2.24567 2.33967 0
M  V30 2522 H 224.222 -1.16211 3.74483 0
M  V30 2523 H 225.712 -2.13951 3.58629 0
M  V30 2524 N 226.149 -1.5696 0.141893 0
M  V30 2525 C 227.377 -2.00322 -0.517579 0
M  V30 2526 C 227.792 -1.02193 -1.58752 0
M  V30 2527 O 227.149 -0.0181619 -1.82491 0
M  V30 2528 C 227.2 -3.43618 -1.12289 0
M  V30 2529 O 226.921 -4.37995 -0.0956929 0
M  V30 2530 C 228.422 -4.02231 -1.86347 0
M  V30 2531 H 225.642 -0.657243 -0.135177 0
M  V30 2532 H 228.186 -2.03146 0.234973 0
M  V30 2533 H 226.341 -3.41662 -1.82609 0
M  V30 2534 H 226.755 -5.21729 -0.538469 0
M  V30 2535 H 228.229 -5.04509 -2.23997 0
M  V30 2536 H 228.706 -3.42655 -2.74744 0
M  V30 2537 H 229.312 -4.07802 -1.20737 0
M  V30 2538 N 227.627 0.131896 -1.57047 0
M  V30 2539 C 228.559 1.1878 -1.9602 0
M  V30 2540 C 229.572 1.38363 -0.857875 0
M  V30 2541 O 230.761 1.37666 -1.13623 0
M  V30 2542 C 227.861 2.55008 -2.23213 0
M  V30 2543 C 227.034 2.56201 -3.54513 0
M  V30 2544 C 226.093 3.7408 -3.70069 0
M  V30 2545 O 225.119 3.58258 -4.42312 0
M  V30 2546 N 226.321 4.92137 -3.07866 0
M  V30 2547 H 229.086 0.85639 -2.87204 0
M  V30 2548 H 226.647 0.321309 -1.5868 0
M  V30 2549 H 228.639 3.32404 -2.30846 0
M  V30 2550 H 227.209 2.80382 -1.3822 0
M  V30 2551 H 226.429 1.64613 -3.58185 0
M  V30 2552 H 227.717 2.54043 -4.4084 0
M  V30 2553 H 227.115 5.07895 -2.49116 0
M  V30 2554 H 225.672 5.67254 -3.21039 0
M  V30 2555 N 229.106 1.52395 0.401703 0
M  V30 2556 C 230.069 1.75636 1.47257 0
M  V30 2557 C 231.069 0.62628 1.48103 0
M  V30 2558 O 232.259 0.894227 1.49497 0
M  V30 2559 C 229.391 1.84553 2.86624 0
M  V30 2560 H 230.584 2.71241 1.27938 0
M  V30 2561 H 228.137 1.42923 0.632662 0
M  V30 2562 H 228.872 0.908882 3.11303 0
M  V30 2563 H 228.657 2.66715 2.87412 0
M  V30 2564 H 230.147 2.04251 3.64241 0
M  V30 2565 N 230.584 -0.659388 1.43143 0
M  V30 2566 C 231.547 -1.75432 1.47501 0
M  V30 2567 C 232.547 -1.56707 0.360512 0
M  V30 2568 O 233.737 -1.62717 0.622002 0
M  V30 2569 C 230.869 -3.14239 1.32162 0
M  V30 2570 H 232.062 -1.7295 2.45006 0
M  V30 2571 H 229.615 -0.870469 1.29817 0
M  V30 2572 H 230.35 -3.22336 0.356401 0
M  V30 2573 H 230.135 -3.29235 2.12948 0
M  V30 2574 H 231.625 -3.94094 1.3813 0
M  V30 2575 N 232.062 -1.29571 -0.897171 0
M  V30 2576 C 233.308 -1.17863 -1.65034 0
M  V30 2577 C 233.641 0.268729 -1.92332 0
M  V30 2578 O 232.916 1.19378 -1.53555 0
M  V30 2579 C 233.199 -1.995 -2.99786 0
M  V30 2580 C 233.052 -3.5239 -2.79538 0
M  V30 2581 C 234.371 -1.82335 -4.00552 0
M  V30 2582 H 231.49 -0.429528 -0.598895 0
M  V30 2583 H 234.132 -1.59072 -1.03905 0
M  V30 2584 H 232.282 -1.64485 -3.51962 0
M  V30 2585 H 233.954 -3.97401 -2.34244 0
M  V30 2586 H 232.197 -3.77187 -2.14273 0
M  V30 2587 H 232.868 -4.04787 -3.75302 0
M  V30 2588 H 235.344 -2.12924 -3.57495 0
M  V30 2589 H 234.22 -2.41801 -4.92771 0
M  V30 2590 H 234.481 -0.779209 -4.35179 0
M  V30 2591 N 233.54 1.10788 -1.12088 0
M  V30 2592 C 234.951 1.64181 -0.88891 0
M  V30 2593 C 235.302 1.87508 0.577498 0
M  V30 2594 O 234.427 1.61434 1.44112 0
M  V30 2595 C 235.022 2.98257 -1.60712 0
M  V30 2596 C 233.581 3.4853 -1.42139 0
M  V30 2597 C 232.728 2.23208 -1.6454 0
M  V30 2598 H 235.679 0.943368 -1.27618 0
M  V30 2599 H 235.7 3.65552 -1.05604 0
M  V30 2600 H 235.212 2.81246 -2.67436 0
M  V30 2601 H 233.313 3.70692 -0.376552 0
M  V30 2602 H 233.426 4.26882 -2.17505 0
M  V30 2603 H 231.79 2.31169 -1.06925 0
M  V30 2604 H 232.573 2.08733 -2.72554 0
M  V30 2605 N 235.018 0.912232 1.28515 0
M  V30 2606 C 236.429 0.591352 1.77087 0
M  V30 2607 C 236.78 -0.8933 1.74684 0
M  V30 2608 O 235.905 -1.69876 1.34056 0
M  V30 2609 C 236.5 1.06668 3.2157 0
M  V30 2610 C 235.059 0.79675 3.67871 0
M  V30 2611 C 234.206 1.23427 2.48316 0
M  V30 2612 H 237.157 1.09365 1.15 0
M  V30 2613 H 237.178 0.407455 3.78312 0
M  V30 2614 H 236.69 2.14726 3.23287 0
M  V30 2615 H 234.791 -0.270679 3.71616 0
M  V30 2616 H 234.904 1.40343 4.58084 0
M  V30 2617 H 233.268 0.653036 2.46186 0
M  V30 2618 H 234.051 2.32316 2.52753 0
M  V30 2619 N 236.496 -1.42363 0.676048 0
M  V30 2620 C 237.459 -2.29199 0.00766941 0
M  V30 2621 C 238.459 -1.43389 -0.727745 0
M  V30 2622 O 239.649 -1.64764 -0.56556 0
M  V30 2623 C 236.781 -3.2591 -0.999785 0
M  V30 2624 H 237.974 -2.89794 0.771988 0
M  V30 2625 H 235.527 -1.50024 0.438468 0
M  V30 2626 H 236.262 -2.70256 -1.79255 0
M  V30 2627 H 236.047 -3.89202 -0.475829 0
M  V30 2628 H 237.537 -3.91028 -1.46583 0
M  V30 2629 N 237.974 -0.419461 -1.51915 0
M  V30 2630 C 238.884 0.407528 -2.31033 0
M  V30 2631 C 239.9 1.04413 -1.3919 0
M  V30 2632 O 241.076 1.0434 -1.72265 0
M  V30 2633 C 238.141 1.50365 -3.12396 0
M  V30 2634 C 237.202 0.889029 -4.19994 0
M  V30 2635 C 236.435 1.93291 -4.97468 0
M  V30 2636 O 236.658 3.15259 -4.75361 0
M  V30 2637 O 235.592 1.53339 -5.8204 0
M  V30 2638 H 239.418 -0.237865 -3.02767 0
M  V30 2639 H 237.003 -0.182413 -1.48282 0
M  V30 2640 H 238.885 2.13975 -3.63032 0
M  V30 2641 H 237.56 2.13345 -2.43445 0
M  V30 2642 H 236.467 0.215353 -3.7348 0
M  V30 2643 H 237.8 0.302991 -4.91267 0
M  V30 2644 N 239.452 1.56882 -0.150215 0
M  V30 2645 C 240.362 2.20494 0.801222 0
M  V30 2646 C 241.378 1.19019 1.26927 0
M  V30 2647 O 242.554 1.51607 1.32579 0
M  V30 2648 C 239.619 2.81659 2.02161 0
M  V30 2649 C 238.68 3.9827 1.60249 0
M  V30 2650 C 237.913 4.56508 2.7647 0
M  V30 2651 O 238.136 4.13627 3.92771 0
M  V30 2652 O 237.07 5.46719 2.51757 0
M  V30 2653 H 240.896 3.02315 0.289717 0
M  V30 2654 H 238.481 1.49202 0.0769684 0
M  V30 2655 H 240.363 3.20522 2.73576 0
M  V30 2656 H 239.038 2.02849 2.52258 0
M  V30 2657 H 237.945 3.64117 0.858477 0
M  V30 2658 H 239.278 4.78609 1.14864 0
M  V30 2659 N 240.93 -0.123565 1.57115 0
M  V30 2660 C 241.86 -1.15309 2.03042 0
M  V30 2661 C 242.841 -1.43454 0.914061 0
M  V30 2662 O 244.026 -1.53973 1.18347 0
M  V30 2663 C 241.156 -2.48043 2.43089 0
M  V30 2664 C 240.11 -2.3437 3.58127 0
M  V30 2665 C 239.436 -3.72026 3.84059 0
M  V30 2666 C 240.736 -1.80804 4.90007 0
M  V30 2667 H 242.43 -0.771102 2.893 0
M  V30 2668 H 239.976 -0.369479 1.39179 0
M  V30 2669 H 241.929 -3.20311 2.73823 0
M  V30 2670 H 240.653 -2.88122 1.53796 0
M  V30 2671 H 239.312 -1.64551 3.27595 0
M  V30 2672 H 238.96 -4.09582 2.91979 0
M  V30 2673 H 238.66 -3.63732 4.6149 0
M  V30 2674 H 240.184 -4.45806 4.1724 0
M  V30 2675 H 241.598 -2.42886 5.19307 0
M  V30 2676 H 239.995 -1.83343 5.71407 0
M  V30 2677 H 241.065 -0.76528 4.78823 0
M  V30 2678 N 242.408 -1.52605 -0.393616 0
M  V30 2679 C 243.371 -1.76415 -1.46323 0
M  V30 2680 C 244.371 -0.634126 -1.47768 0
M  V30 2681 O 245.561 -0.902142 -1.4902 0
M  V30 2682 C 242.693 -1.8607 -2.85641 0
M  V30 2683 H 243.886 -2.71916 -1.26498 0
M  V30 2684 H 241.439 -1.43257 -0.625073 0
M  V30 2685 H 242.174 -0.925378 -3.10817 0
M  V30 2686 H 241.959 -2.68235 -2.85993 0
M  V30 2687 H 243.449 -2.06179 -3.63153 0
M  V30 2688 N 243.887 0.651787 -1.4349 0
M  V30 2689 C 245.134 1.41167 -1.45183 0
M  V30 2690 C 245.462 1.94349 -0.0766601 0
M  V30 2691 O 244.717 1.72804 0.918555 0
M  V30 2692 C 245.016 2.60914 -2.44251 0
M  V30 2693 C 244.682 2.26142 -3.9009 0
M  V30 2694 C 243.344 2.16371 -4.2981 0
M  V30 2695 C 245.696 1.98334 -4.81989 0
M  V30 2696 C 243.024 1.7695 -5.5938 0
M  V30 2697 C 245.376 1.6041 -6.11924 0
M  V30 2698 C 244.04 1.49166 -6.5062 0
M  V30 2699 H 243.31 0.516566 -0.531263 0
M  V30 2700 H 245.957 0.741099 -1.76579 0
M  V30 2701 H 244.262 3.3311 -2.06265 0
M  V30 2702 H 245.959 3.19127 -2.42815 0
M  V30 2703 H 242.549 2.34658 -3.58655 0
M  V30 2704 H 246.733 2.04803 -4.52072 0
M  V30 2705 H 241.989 1.66831 -5.88198 0
M  V30 2706 H 246.163 1.37925 -6.82605 0
M  V30 2707 H 243.79 1.1839 -7.50925 0
M  V30 2708 N 245.365 1.30045 0.890287 0
M  V30 2709 C 246.593 1.21472 1.67487 0
M  V30 2710 C 247.008 -0.223241 1.87476 0
M  V30 2711 O 246.365 -1.14828 1.41847 0
M  V30 2712 C 246.416 1.93394 3.05419 0
M  V30 2713 O 246.137 3.31576 2.86337 0
M  V30 2714 C 247.638 1.91414 3.99844 0
M  V30 2715 H 244.858 0.420604 0.522813 0
M  V30 2716 H 247.402 1.7158 1.11268 0
M  V30 2717 H 245.557 1.47099 3.58386 0
M  V30 2718 H 245.971 3.67929 3.73802 0
M  V30 2719 H 247.445 2.46285 4.94012 0
M  V30 2720 H 247.922 0.891833 4.3005 0
M  V30 2721 H 248.528 2.37496 3.52811 0
M  V30 2722 N 246.843 -1.10192 1.12674 0
M  V30 2723 C 248.12 -1.78717 0.794965 0
M  V30 2724 C 248.5 -1.98628 -0.714853 0
M  V30 2725 O 247.848 -1.58135 -1.64941 0
M  V30 2726 C 248.058 -3.11546 1.5729 0
M  V30 2727 C 249.406 -3.86382 1.76052 0
M  V30 2728 O 250.43 -3.21274 1.53823 0
M  V30 2729 O 249.289 -5.03246 2.13087 0
M  V30 2730 H 246.383 -0.774702 0.289423 0
M  V30 2731 H 248.929 -1.16819 1.23091 0
M  V30 2732 H 247.701 -2.92489 2.59935 0
M  V30 2733 H 247.324 -3.81164 1.13137 0
M  V30 2734 N 248.321 -0.919034 -1.28029 0
M  V30 2735 C 249.546 -0.570357 -1.99403 0
M  V30 2736 C 249.971 0.842486 -1.68178 0
M  V30 2737 O 249.329 1.56391 -0.917141 0
M  V30 2738 C 249.377 -0.792541 -3.51783 0
M  V30 2739 O 248.481 0.145988 -4.12142 0
M  V30 2740 H 247.822 -0.220555 -0.6263 0
M  V30 2741 H 250.352 -1.23592 -1.63053 0
M  V30 2742 H 250.362 -0.704708 -4.01868 0
M  V30 2743 H 249.037 -1.82247 -3.73844 0
M  V30 2744 H 247.614 0.00897528 -3.72899 0
M  V30 2745 N 249.799 1.42003 -0.683588 0
M  V30 2746 C 250.729 2.33487 -0.024866 0
M  V30 2747 C 251.71 1.51163 0.779975 0
M  V30 2748 O 252.895 1.79739 0.735362 0
M  V30 2749 C 250.025 3.3487 0.920836 0
M  V30 2750 C 248.979 4.27414 0.223958 0
M  V30 2751 C 248.305 5.19074 1.2832 0
M  V30 2752 C 249.605 5.14445 -0.90242 0
M  V30 2753 H 251.299 2.88819 -0.788921 0
M  V30 2754 H 248.845 1.38873 -0.38083 0
M  V30 2755 H 250.798 3.97787 1.39081 0
M  V30 2756 H 249.522 2.77861 1.71642 0
M  V30 2757 H 248.181 3.65904 -0.225864 0
M  V30 2758 H 247.829 4.58387 2.071 0
M  V30 2759 H 247.529 5.81822 0.821995 0
M  V30 2760 H 249.053 5.84867 1.75392 0
M  V30 2761 H 250.467 5.70998 -0.513272 0
M  V30 2762 H 248.864 5.86072 -1.28997 0
M  V30 2763 H 249.934 4.52322 -1.74737 0
M  V30 2764 N 251.277 0.427512 1.51691 0
M  V30 2765 C 252.526 -0.143679 2.01188 0
M  V30 2766 C 252.839 -1.44642 1.31674 0
M  V30 2767 O 254.045 -2.09997 1.72086 0
M  V30 2768 C 252.501 -0.306602 3.58592 0
M  V30 2769 C 252.109 0.985125 4.37035 0
M  V30 2770 C 253.853 -0.832091 4.16265 0
M  V30 2771 C 251.76 0.788382 5.86122 0
M  V30 2772 H 250.69 -0.0574701 0.751807 0
M  V30 2773 H 253.341 0.555772 1.74881 0
M  V30 2774 H 251.723 -1.06882 3.81303 0
M  V30 2775 H 252.897 1.75492 4.26074 0
M  V30 2776 H 251.212 1.4384 3.90767 0
M  V30 2777 H 253.809 -0.995617 5.25349 0
M  V30 2778 H 254.152 -1.81186 3.74803 0
M  V30 2779 H 254.685 -0.128444 3.97593 0
M  V30 2780 H 251.424 1.74025 6.31978 0
M  V30 2781 H 250.944 0.0582143 5.99772 0
M  V30 2782 H 252.623 0.437722 6.45518 0
M  V30 2783 N 252.755 -1.56801 0.158532 0
M  V30 2784 C 253.983 -2.00859 -0.496303 0
M  V30 2785 C 254.398 -1.03871 -1.57659 0
M  V30 2786 O 253.755 -0.0375165 -1.82461 0
M  V30 2787 C 253.806 -3.4479 -1.08638 0
M  V30 2788 O 253.527 -4.38072 -0.0492322 0
M  V30 2789 C 255.028 -4.04185 -1.8207 0
M  V30 2790 H 252.248 -0.65864 -0.128199 0
M  V30 2791 H 254.792 -2.02885 0.256506 0
M  V30 2792 H 252.947 -3.43579 -1.78975 0
M  V30 2793 H 253.361 -5.2227 -0.483102 0
M  V30 2794 H 254.835 -5.06857 -2.18633 0
M  V30 2795 H 255.312 -3.45549 -2.71095 0
M  V30 2796 H 255.918 -4.0906 -1.16405 0
M  V30 2797 N 254.233 0.115231 -1.57178 0
M  V30 2798 C 255.649 0.468877 -1.52557 0
M  V30 2799 C 255.849 1.81649 -0.872125 0
M  V30 2800 O 254.905 2.48347 -0.45606 0
M  V30 2801 C 256.218 0.4499 -2.97315 0
M  V30 2802 C 257.766 0.533185 -3.08425 0
M  V30 2803 C 258.241 0.54456 -4.54751 0
M  V30 2804 N 259.732 0.605892 -4.5922 0
M  V30 2805 C 260.467 0.636203 -5.6986 0
M  V30 2806 N 259.963 0.623931 -6.89985 0
M  V30 2807 N 261.756 0.679496 -5.57978 0
M  V30 2808 H 253.907 -0.767712 -1.9804 0
M  V30 2809 H 256.17 -0.283609 -0.904583 0
M  V30 2810 H 255.876 -0.472721 -3.48509 0
M  V30 2811 H 255.75 1.27632 -3.5495 0
M  V30 2812 H 258.137 1.44623 -2.57232 0
M  V30 2813 H 258.218 -0.320995 -2.53778 0
M  V30 2814 H 257.862 -0.364452 -5.06591 0
M  V30 2815 H 257.792 1.41568 -5.07214 0
M  V30 2816 H 260.283 0.621386 -3.72756 0
M  V30 2817 H 260.596 0.649787 -7.70063 0
M  V30 2818 H 258.941 0.591296 -6.9248 0
M  V30 2819 H 262.132 0.686472 -4.63039 0
M  V30 2820 H 262.305 0.69965 -6.44212 0
M  V30 2821 N 255.711 1.52812 0.385517 0
M  V30 2822 C 256.659 1.78482 1.49155 0
M  V30 2823 C 257.653 0.652914 1.56312 0
M  V30 2824 O 258.859 0.835464 1.59436 0
M  V30 2825 H 255.234 0.5648 0.496493 0
M  V30 2826 H 257.205 2.71095 1.24699 0
M  V30 2827 C 255.954 1.97378 2.86247 0
M  V30 2828 H 255.277 2.83907 2.81491 0
M  V30 2829 H 256.717 2.19327 3.62866 0
M  V30 2830 C 255.176 0.74728 3.28508 0
M  V30 2831 O 255.706 -0.0736232 4.01633 0
M  V30 2832 N 253.912 0.576396 2.84826 0
M  V30 2833 H 253.459 1.24555 2.25486 0
M  V30 2834 H 253.417 -0.24288 3.1346 0
M  V30 2835 N 257.189 -0.644168 1.43834 0
M  V30 2836 C 258.436 -1.40395 1.4593 0
M  V30 2837 C 258.764 -1.94305 0.0869658 0
M  V30 2838 O 258.019 -1.73288 -0.909378 0
M  V30 2839 C 258.318 -2.59615 2.45631 0
M  V30 2840 C 257.984 -2.2407 3.91284 0
M  V30 2841 C 256.646 -2.14089 4.30952 0
M  V30 2842 C 258.998 -1.95775 4.83034 0
M  V30 2843 C 256.326 -1.73981 5.6031 0
M  V30 2844 C 258.678 -1.57163 6.12766 0
M  V30 2845 C 257.342 -1.45713 6.51402 0
M  V30 2846 H 256.612 -0.513741 0.533995 0
M  V30 2847 H 259.259 -0.731724 1.76969 0
M  V30 2848 H 257.564 -3.32011 2.08028 0
M  V30 2849 H 259.261 -3.17834 2.44504 0
M  V30 2850 H 255.851 -2.32753 3.59895 0
M  V30 2851 H 260.035 -2.02403 4.53152 0
M  V30 2852 H 255.291 -1.63709 5.89075 0
M  V30 2853 H 259.465 -1.34303 6.83327 0
M  V30 2854 H 257.092 -1.14406 7.51542 0
M  V30 2855 N 258.668 -1.30515 -0.883378 0
M  V30 2856 C 259.893 -1.22487 -1.67367 0
M  V30 2857 C 260.318 0.208767 -1.86938 0
M  V30 2858 O 259.676 1.15015 -1.40148 0
M  V30 2859 C 259.724 -1.96041 -3.02655 0
M  V30 2860 O 258.828 -1.28859 -3.91751 0
M  V30 2861 H 258.169 -0.423573 -0.511353 0
M  V30 2862 H 260.699 -1.72362 -1.10239 0
M  V30 2863 H 260.709 -2.05124 -3.52687 0
M  V30 2864 H 259.384 -3.00307 -2.8773 0
M  V30 2865 H 257.961 -1.28141 -3.50192 0
M  V30 2866 N 260.146 1.09593 -1.13257 0
M  V30 2867 C 261.094 2.18271 -0.803783 0
M  V30 2868 C 262.088 1.68054 0.213148 0
M  V30 2869 O 263.294 1.79862 0.0704699 0
M  V30 2870 H 259.669 0.711949 -0.242143 0
M  V30 2871 H 261.64 2.43235 -1.72856 0
M  V30 2872 C 260.389 3.46536 -0.28424 0
M  V30 2873 H 259.712 3.85545 -1.05807 0
M  V30 2874 H 261.152 4.23899 -0.0925945 0
M  V30 2875 C 259.611 3.22036 0.989684 0
M  V30 2876 O 260.141 3.44509 2.06584 0
M  V30 2877 N 258.347 2.7565 0.920086 0
M  V30 2878 H 257.894 2.57562 0.0442019 0
M  V30 2879 H 257.852 2.59635 1.77306 0
M  V30 2880 N 261.624 0.925811 1.2754 0
M  V30 2881 C 262.854 0.580666 1.98272 0
M  V30 2882 C 263.262 -0.845207 1.69272 0
M  V30 2883 O 262.605 -1.57306 0.948707 0
M  V30 2884 C 262.667 0.724418 3.52126 0
M  V30 2885 C 262.331 2.12206 4.04744 0
M  V30 2886 C 263.328 3.09604 4.17662 0
M  V30 2887 C 261.013 2.4385 4.39138 0
M  V30 2888 C 263.007 4.36755 4.64246 0
M  V30 2889 C 260.694 3.71237 4.85414 0
M  V30 2890 C 261.692 4.67503 4.97926 0
M  V30 2891 O 261.38 5.92624 5.43187 0
M  V30 2892 H 261.112 0.218987 0.639547 0
M  V30 2893 H 263.666 1.24452 1.63404 0
M  V30 2894 H 261.896 0.0034663 3.867 0
M  V30 2895 H 263.585 0.384607 4.04074 0
M  V30 2896 H 264.351 2.86478 3.91351 0
M  V30 2897 H 260.23 1.69665 4.28643 0
M  V30 2898 H 263.774 5.11898 4.73927 0
M  V30 2899 H 259.671 3.94182 5.11166 0
M  V30 2900 H 260.439 5.95585 5.61445 0
M  V30 2901 N 263.102 -1.41638 0.69111 0
M  V30 2902 C 264.327 -2.06148 0.227583 0
M  V30 2903 C 264.752 -1.51652 -1.11281 0
M  V30 2904 O 264.11 -0.64164 -1.69566 0
M  V30 2905 C 264.158 -3.60095 0.190858 0
M  V30 2906 O 263.262 -4.03845 -0.835664 0
M  V30 2907 H 262.603 -0.654434 0.112306 0
M  V30 2908 H 265.133 -1.81484 0.944714 0
M  V30 2909 H 265.143 -4.07995 0.020207 0
M  V30 2910 H 263.818 -3.99129 1.16915 0
M  V30 2911 H 262.395 -3.67458 -0.63473 0
M  V30 2912 N 264.58 -0.43555 -1.51462 0
M  V30 2913 C 265.805 0.132627 -2.06976 0
M  V30 2914 C 266.23 1.35848 -1.30104 0
M  V30 2915 O 265.588 1.78112 -0.338493 0
M  V30 2916 C 265.636 0.43523 -3.57964 0
M  V30 2917 O 264.74 1.52198 -3.83288 0
M  V30 2918 H 264.081 0.00265 -0.663995 0
M  V30 2919 H 266.611 -0.616369 -1.95095 0
M  V30 2920 H 266.621 0.686206 -4.02188 0
M  V30 2921 H 265.296 -0.460739 -4.1334 0
M  V30 2922 H 263.873 1.2611 -3.50928 0
M  V30 2923 N 266.058 1.56714 -0.166846 0
M  V30 2924 C 267.304 1.97813 0.473473 0
M  V30 2925 C 267.659 1.05095 1.61161 0
M  V30 2926 O 266.952 0.0897541 1.9139 0
M  V30 2927 C 267.146 3.42889 1.00806 0
M  V30 2928 C 266.975 4.49635 -0.0767392 0
M  V30 2929 C 265.745 5.02566 -0.524894 0
M  V30 2930 C 267.943 5.06793 -0.875504 0
M  V30 2931 N 265.925 5.9294 -1.59047 0
M  V30 2932 C 267.296 5.93565 -1.79111 0
M  V30 2933 C 269.351 4.89306 -0.921083 0
M  V30 2934 C 268.054 6.64721 -2.74843 0
M  V30 2935 C 270.08 5.61179 -1.86633 0
M  V30 2936 C 269.442 6.47675 -2.76942 0
M  V30 2937 H 265.541 0.769093 0.141489 0
M  V30 2938 H 268.125 1.92874 -0.266031 0
M  V30 2939 H 266.296 3.48382 1.7171 0
M  V30 2940 H 268.028 3.71008 1.61664 0
M  V30 2941 H 264.783 4.73439 -0.123432 0
M  V30 2942 H 265.207 6.42831 -2.12361 0
M  V30 2943 H 269.849 4.22136 -0.23692 0
M  V30 2944 H 267.567 7.31107 -3.44249 0
M  V30 2945 H 271.153 5.49636 -1.90764 0
M  V30 2946 H 270.033 7.02313 -3.48893 0
M  V30 2947 N 267.536 -0.106894 1.57237 0
M  V30 2948 C 268.486 -1.1366 1.9765 0
M  V30 2949 C 269.47 -1.36416 0.853203 0
M  V30 2950 O 270.662 -1.37305 1.11697 0
M  V30 2951 C 267.791 -2.46 2.39455 0
M  V30 2952 C 266.877 -2.26668 3.58445 0
M  V30 2953 N 267.268 -1.77176 4.73754 0
M  V30 2954 C 265.566 -2.57279 3.64312 0
M  V30 2955 C 266.267 -1.71836 5.5574 0
M  V30 2956 N 265.243 -2.16623 4.98573 0
M  V30 2957 H 269.045 -0.74669 2.84256 0
M  V30 2958 H 266.559 -0.314483 1.59326 0
M  V30 2959 H 268.556 -3.2049 2.6663 0
M  V30 2960 H 267.216 -2.85738 1.54219 0
M  V30 2961 H 268.227 -1.46545 4.96734 0
M  V30 2962 H 264.904 -3.00622 2.89711 0
M  V30 2963 H 266.294 -1.34723 6.58255 0
M  V30 2964 N 269.014 -1.53014 -0.377408 0
M  V30 2965 C 270.244 -1.72265 -1.14054 0
M  V30 2966 C 270.652 -0.44601 -1.83868 0
M  V30 2967 O 269.995 0.590095 -1.73964 0
M  V30 2968 C 270.057 -2.82492 -2.22348 0
M  V30 2969 C 269.721 -4.23233 -1.72402 0
M  V30 2970 C 270.718 -5.05992 -1.19448 0
M  V30 2971 C 268.403 -4.696 -1.78273 0
M  V30 2972 C 270.397 -6.33203 -0.730268 0
M  V30 2973 C 268.084 -5.96792 -1.31464 0
M  V30 2974 C 269.082 -6.78424 -0.789297 0
M  V30 2975 O 268.77 -8.0323 -0.328077 0
M  V30 2976 H 268.502 -0.579873 -0.347453 0
M  V30 2977 H 271.056 -2.00502 -0.445882 0
M  V30 2978 H 269.286 -2.49702 -2.95272 0
M  V30 2979 H 270.975 -2.90034 -2.83963 0
M  V30 2980 H 271.741 -4.71349 -1.14259 0
M  V30 2981 H 267.62 -4.06142 -2.18106 0
M  V30 2982 H 271.164 -6.96868 -0.319542 0
M  V30 2983 H 267.061 -6.30937 -1.36342 0
M  V30 2984 H 267.829 -8.1727 -0.448493 0
M  V30 2985 N 270.492 0.636531 -1.44174 0
M  V30 2986 C 271.908 0.954104 -1.27941 0
M  V30 2987 C 272.108 2.0039 -0.211248 0
M  V30 2988 O 271.164 2.49236 0.404695 0
M  V30 2989 C 272.477 1.4225 -2.64925 0
M  V30 2990 C 274.025 1.53827 -2.72592 0
M  V30 2991 C 274.5 2.04053 -4.10032 0
M  V30 2992 N 275.991 2.11331 -4.12182 0
M  V30 2993 C 276.726 2.51352 -5.15374 0
M  V30 2994 N 276.222 2.90549 -6.2893 0
M  V30 2995 N 278.015 2.51438 -5.02728 0
M  V30 2996 H 270.166 -0.0578386 -2.12321 0
M  V30 2997 H 272.429 0.0367406 -0.947288 0
M  V30 2998 H 272.135 0.725466 -3.44136 0
M  V30 2999 H 272.009 2.39451 -2.9145 0
M  V30 3000 H 274.396 2.22628 -1.93702 0
M  V30 3001 H 274.477 0.550154 -2.49814 0
M  V30 3002 H 274.121 1.35848 -4.89395 0
M  V30 3003 H 274.051 3.03726 -4.30184 0
M  V30 3004 H 276.542 1.83745 -3.30222 0
M  V30 3005 H 276.855 3.19884 -7.03487 0
M  V30 3006 H 275.2 2.88313 -6.32377 0
M  V30 3007 H 278.391 2.20203 -4.13072 0
M  V30 3008 H 278.564 2.82304 -5.83274 0
M  V30 3009 N 271.97 1.30982 0.876444 0
M  V30 3010 C 273.195 1.23373 1.66715 0
M  V30 3011 C 273.62 -0.19885 1.87046 0
M  V30 3012 O 272.978 -1.1427 1.40756 0
M  V30 3013 C 273.026 1.97644 3.01611 0
M  V30 3014 O 272.13 1.30935 3.91062 0
M  V30 3015 H 271.471 0.426279 0.509099 0
M  V30 3016 H 274.001 1.72944 1.09323 0
M  V30 3017 H 274.011 2.06992 3.51594 0
M  V30 3018 H 272.686 3.01829 2.86133 0
M  V30 3019 H 271.263 1.29996 3.49507 0
M  V30 3020 N 273.449 -1.08991 1.13837 0
M  V30 3021 C 274.689 -1.82867 0.913183 0
M  V30 3022 C 275.053 -1.83936 -0.550604 0
M  V30 3023 O 276.254 -2.53515 -0.893515 0
M  V30 3024 C 274.525 -3.24843 1.49036 0
M  V30 3025 S 276.084 -4.15669 1.40588 0
M  V30 3026 H 272.902 -0.630278 0.329046 0
M  V30 3027 H 275.504 -1.31049 1.45073 0
M  V30 3028 H 274.208 -3.21644 2.54899 0
M  V30 3029 H 273.739 -3.81734 0.950947 0
M  V30 3030 H 275.754 -4.94686 0.387353 0
M  V30 3031 N 274.927 -0.932562 -1.27047 0
M  V30 3032 C 275.857 -0.452902 -2.29066 0
M  V30 3033 C 276.838 0.489338 -1.62909 0
M  V30 3034 O 278.023 0.393046 -1.90181 0
M  V30 3035 C 275.153 0.290698 -3.46081 0
M  V30 3036 C 274.107 -0.564168 -4.24265 0
M  V30 3037 C 273.433 0.308886 -5.33807 0
M  V30 3038 C 274.733 -1.83112 -4.89149 0
M  V30 3039 H 276.427 -1.30552 -2.69437 0
M  V30 3040 H 273.973 -0.629201 -1.29526 0
M  V30 3041 H 275.926 0.637233 -4.16554 0
M  V30 3042 H 274.65 1.17738 -3.0464 0
M  V30 3043 H 273.309 -0.893477 -3.55545 0
M  V30 3044 H 272.957 1.19467 -4.88607 0
M  V30 3045 H 272.657 -0.259633 -5.87026 0
M  V30 3046 H 274.181 0.650884 -6.07121 0
M  V30 3047 H 275.595 -1.55236 -5.51883 0
M  V30 3048 H 273.992 -2.34353 -5.52448 0
M  V30 3049 H 275.062 -2.54772 -4.12576 0
M  V30 3050 N 276.405 1.4127 -0.698611 0
M  V30 3051 C 277.335 2.33447 -0.049629 0
M  V30 3052 C 278.316 1.51982 0.763898 0
M  V30 3053 O 279.501 1.80509 0.716257 0
M  V30 3054 C 276.631 3.35828 0.885267 0
M  V30 3055 C 275.585 4.27627 0.178613 0
M  V30 3056 C 274.911 5.20406 1.22807 0
M  V30 3057 C 276.211 5.13459 -0.956933 0
M  V30 3058 H 277.905 2.87966 -0.81951 0
M  V30 3059 H 275.451 1.38461 -0.395538 0
M  V30 3060 H 277.404 3.9924 1.34854 0
M  V30 3061 H 276.128 2.79666 1.68685 0
M  V30 3062 H 274.787 3.65643 -0.26466 0
M  V30 3063 H 274.435 4.60558 2.02226 0
M  V30 3064 H 274.135 5.82661 0.760239 0
M  V30 3065 H 275.659 5.86695 1.69179 0
M  V30 3066 H 277.073 5.70421 -0.573805 0
M  V30 3067 H 275.47 5.8467 -1.35205 0
M  V30 3068 H 276.54 4.50443 -1.79524 0
M  V30 3069 N 277.883 0.443576 1.51229 0
M  V30 3070 C 279.294 -0.0180867 1.86691 0
M  V30 3071 C 279.645 -1.41384 1.36033 0
M  V30 3072 O 278.77 -2.04291 0.713722 0
M  V30 3073 C 279.365 -0.039597 3.38777 0
M  V30 3074 C 277.924 -0.445692 3.73752 0
M  V30 3075 C 277.071 0.357584 2.74985 0
M  V30 3076 H 280.022 0.659138 1.44364 0
M  V30 3077 H 280.043 -0.847761 3.70936 0
M  V30 3078 H 279.555 0.976382 3.75617 0
M  V30 3079 H 277.656 -1.46704 3.42503 0
M  V30 3080 H 277.769 -0.166155 4.78812 0
M  V30 3081 H 276.133 -0.184973 2.54027 0
M  V30 3082 H 276.916 1.37256 3.14668 0
M  V30 3083 N 279.361 -1.56624 0.175154 0
M  V30 3084 C 280.293 -2.15333 -0.785128 0
M  V30 3085 C 281.306 -1.1099 -1.19101 0
M  V30 3086 O 282.495 -1.38162 -1.13019 0
M  V30 3087 C 279.595 -2.68427 -2.06882 0
M  V30 3088 C 278.768 -3.97466 -1.8259 0
M  V30 3089 C 277.827 -4.35585 -2.95215 0
M  V30 3090 O 276.853 -5.03389 -2.65684 0
M  V30 3091 N 278.055 -3.97457 -4.23094 0
M  V30 3092 H 280.82 -2.98359 -0.283187 0
M  V30 3093 H 278.381 -1.61898 -0.00749817 0
M  V30 3094 H 280.373 -2.90924 -2.81328 0
M  V30 3095 H 278.943 -1.89968 -2.48256 0
M  V30 3096 H 278.163 -3.83307 -0.920287 0
M  V30 3097 H 279.451 -4.81736 -1.63733 0
M  V30 3098 H 278.849 -3.42878 -4.49945 0
M  V30 3099 H 277.406 -4.24947 -4.9423 0
M  V30 3100 N 280.839 0.0985539 -1.57292 0
M  V30 3101 C 281.769 1.12064 -2.04851 0
M  V30 3102 C 282.75 1.41981 -0.936767 0
M  V30 3103 O 283.935 1.52071 -1.20781 0
M  V30 3104 C 281.065 2.44144 -2.47004 0
M  V30 3105 C 280.019 2.28643 -3.6181 0
M  V30 3106 C 279.345 3.65869 -3.89929 0
M  V30 3107 C 280.645 1.72986 -4.92822 0
M  V30 3108 H 282.339 0.724979 -2.9049 0
M  V30 3109 H 279.885 0.34729 -1.39749 0
M  V30 3110 H 281.838 3.15914 -2.78884 0
M  V30 3111 H 280.562 2.85639 -1.5836 0
M  V30 3112 H 279.221 1.59318 -3.30172 0
M  V30 3113 H 278.869 4.04885 -2.98458 0
M  V30 3114 H 278.569 3.56344 -4.67218 0
M  V30 3115 H 280.093 4.39112 -4.2428 0
M  V30 3116 H 281.507 2.34593 -5.23105 0
M  V30 3117 H 279.904 1.74229 -5.74251 0
M  V30 3118 H 280.974 0.689007 -4.7998 0
M  V30 3119 N 282.317 1.53212 0.369288 0
M  V30 3120 C 283.267 1.75769 1.45222 0
M  V30 3121 C 284.251 0.612136 1.48801 0
M  V30 3122 O 285.443 0.870674 1.54105 0
M  V30 3123 C 282.572 1.94769 2.82701 0
M  V30 3124 C 281.658 3.15315 2.83615 0
M  V30 3125 N 282.049 4.37295 2.54178 0
M  V30 3126 C 280.347 3.15962 3.14776 0
M  V30 3127 C 281.048 5.19015 2.62675 0
M  V30 3128 N 280.024 4.55142 2.97232 0
M  V30 3129 H 283.826 2.67691 1.2132 0
M  V30 3130 H 281.34 1.51787 0.577438 0
M  V30 3131 H 283.337 2.09056 3.60696 0
M  V30 3132 H 281.997 1.04073 3.07569 0
M  V30 3133 H 283.008 4.65091 2.27839 0
M  V30 3134 H 279.685 2.35144 3.44983 0
M  V30 3135 H 281.075 6.26305 2.43294 0
M  V30 3136 N 283.795 -0.628877 1.44509 0
M  V30 3137 C 285.206 -1.21054 1.42137 0
M  V30 3138 C 285.557 -1.95715 0.137881 0
M  V30 3139 O 284.682 -2.02554 -0.761645 0
M  V30 3140 C 285.277 -2.20189 2.57493 0
M  V30 3141 C 283.836 -2.73777 2.58308 0
M  V30 3142 C 282.983 -1.48813 2.33987 0
M  V30 3143 H 285.934 -0.41942 1.53057 0
M  V30 3144 H 285.955 -3.02833 2.30375 0
M  V30 3145 H 285.467 -1.6582 3.50892 0
M  V30 3146 H 283.568 -3.32142 1.68856 0
M  V30 3147 H 283.681 -3.19662 3.56865 0
M  V30 3148 H 282.045 -1.77024 1.83124 0
M  V30 3149 H 282.828 -0.963442 3.29504 0
M  V30 3150 N 285.273 -1.31445 -0.869486 0
M  V30 3151 C 286.205 -1.14955 -1.98287 0
M  V30 3152 C 287.218 -0.0885037 -1.62559 0
M  V30 3153 O 288.407 -0.336044 -1.75308 0
M  V30 3154 C 285.507 -0.734255 -3.3085 0
M  V30 3155 C 284.68 -1.88042 -3.94917 0
M  V30 3156 C 283.739 -1.4511 -5.05796 0
M  V30 3157 O 282.765 -2.16082 -5.2659 0
M  V30 3158 N 283.967 -0.338763 -5.79511 0
M  V30 3159 H 286.732 -2.10856 -2.12979 0
M  V30 3160 H 284.293 -1.23786 -1.04349 0
M  V30 3161 H 286.285 -0.42975 -4.02412 0
M  V30 3162 H 284.855 0.133158 -3.12316 0
M  V30 3163 H 284.075 -2.35222 -3.1633 0
M  V30 3164 H 285.363 -2.6481 -4.34457 0
M  V30 3165 H 284.761 0.252274 -5.65137 0
M  V30 3166 H 283.318 -0.0937925 -6.51733 0
M  V30 3167 N 286.751 1.08385 -1.14413 0
M  V30 3168 C 288.162 1.62258 -0.923535 0
M  V30 3169 C 288.513 1.88691 0.537595 0
M  V30 3170 O 287.638 1.64454 1.40655 0
M  V30 3171 C 288.233 2.94781 -1.67002 0
M  V30 3172 C 286.792 3.45437 -1.495 0
M  V30 3173 C 285.939 2.19668 -1.69238 0
M  V30 3174 H 288.89 0.916086 -1.2959 0
M  V30 3175 H 288.911 3.63229 -1.13334 0
M  V30 3176 H 288.423 2.7551 -2.73342 0
M  V30 3177 H 286.524 3.6981 -0.455097 0
M  V30 3178 H 286.637 4.22173 -2.2651 0
M  V30 3179 H 285.001 2.28849 -1.11804 0
M  V30 3180 H 285.784 2.02905 -2.7692 0
M  V30 3181 N 288.23 0.939286 1.26551 0
M  V30 3182 C 289.507 0.5038 1.89001 0
M  V30 3183 C 289.887 -1.01854 1.84903 0
M  V30 3184 O 289.235 -1.87773 1.30206 0
M  V30 3185 C 289.445 1.063 3.32417 0
M  V30 3186 C 290.793 1.13051 4.09273 0
M  V30 3187 O 291.817 1.01345 3.41479 0
M  V30 3188 O 290.676 1.31233 5.30509 0
M  V30 3189 H 287.77 0.163897 0.810597 0
M  V30 3190 H 290.316 1.03173 1.34735 0
M  V30 3191 H 289.088 2.10665 3.29752 0
M  V30 3192 H 288.711 0.517408 3.94219 0
M  V30 3193 N 289.708 -1.40897 0.706093 0
M  V30 3194 C 290.933 -2.05895 0.249435 0
M  V30 3195 C 291.358 -1.52823 -1.09666 0
M  V30 3196 O 290.716 -0.659589 -1.68876 0
M  V30 3197 C 290.764 -3.59872 0.22904 0
M  V30 3198 O 289.868 -4.04708 -0.792784 0
M  V30 3199 H 289.209 -0.653206 0.119241 0
M  V30 3200 H 291.739 -1.80471 0.96391 0
M  V30 3201 H 291.749 -4.07951 0.0634791 0
M  V30 3202 H 290.424 -3.97866 1.21141 0
M  V30 3203 H 289.001 -3.68111 -0.59572 0
M  V30 3204 N 291.186 -0.45159 -1.50991 0
M  V30 3205 C 292.434 0.109857 -2.01801 0
M  V30 3206 C 292.755 1.41958 -1.3369 0
M  V30 3207 O 292.025 1.9003 -0.475951 0
M  V30 3208 H 290.605 0.0435884 -0.745727 0
M  V30 3209 H 293.267 -0.597557 -1.85514 0
M  V30 3210 H 292.363 0.275489 -3.10882 0
M  V30 3211 N 292.664 1.56529 -0.183458 0
M  V30 3212 C 294.075 1.83739 0.331177 0
M  V30 3213 C 294.426 1.10373 1.62211 0
M  V30 3214 O 293.551 0.36071 2.13373 0
M  V30 3215 C 294.146 3.33306 0.607646 0
M  V30 3216 C 292.705 3.60969 1.06668 0
M  V30 3217 C 291.852 2.77086 0.109029 0
M  V30 3218 H 294.803 1.53379 -0.407484 0
M  V30 3219 H 294.824 3.51444 1.45832 0
M  V30 3220 H 294.336 3.86677 -0.332086 0
M  V30 3221 H 292.437 3.13021 2.0211 0
M  V30 3222 H 292.55 4.69231 0.967447 0
M  V30 3223 H 290.914 2.47319 0.608714 0
M  V30 3224 H 291.697 3.33241 -0.82494 0
M  V30 3225 N 294.142 -0.090211 1.57342 0
M  V30 3226 C 295.074 -1.13541 1.99101 0
M  V30 3227 C 296.087 -1.3604 0.894258 0
M  V30 3228 O 297.276 -1.34606 1.17233 0
M  V30 3229 C 294.376 -2.49001 2.29895 0
M  V30 3230 C 293.549 -2.46712 3.61182 0
M  V30 3231 C 292.608 -3.64136 3.79857 0
M  V30 3232 O 291.634 -3.46405 4.51655 0
M  V30 3233 N 292.836 -4.83802 3.20806 0
M  V30 3234 H 295.601 -0.779942 2.89373 0
M  V30 3235 H 293.162 -0.279125 1.59476 0
M  V30 3236 H 295.154 -3.26166 2.39578 0
M  V30 3237 H 293.724 -2.76619 1.45605 0
M  V30 3238 H 292.944 -1.55058 3.62423 0
M  V30 3239 H 294.232 -2.42265 4.4742 0
M  V30 3240 H 293.63 -5.01112 2.62494 0
M  V30 3241 H 292.187 -5.58543 3.35966 0
M  V30 3242 N 295.62 -1.53406 -0.361157 0
M  V30 3243 C 296.868 -1.69467 -1.10115 0
M  V30 3244 C 297.189 -0.451352 -1.89705 0
M  V30 3245 O 296.459 0.534636 -1.88463 0
M  V30 3246 H 295.039 -0.624749 -0.409508 0
M  V30 3247 H 297.701 -1.90609 -0.406699 0
M  V30 3248 H 296.797 -2.55774 -1.78847 0
M  V30 3249 N 297.098 0.621204 -1.44841 0
M  V30 3250 C 298.514 0.94048 -1.28946 0
M  V30 3251 C 298.714 2.00154 -0.23249 0
M  V30 3252 O 297.77 2.49651 0.378237 0
M  V30 3253 C 299.083 1.39433 -2.66419 0
M  V30 3254 C 300.631 1.50927 -2.74208 0
M  V30 3255 C 301.106 1.99692 -4.12174 0
M  V30 3256 N 302.597 2.06947 -4.144 0
M  V30 3257 C 303.332 2.45871 -5.1801 0
M  V30 3258 N 302.828 2.83862 -6.31977 0
M  V30 3259 N 304.621 2.46092 -5.05366 0
M  V30 3260 H 296.772 -0.0803548 -2.12248 0
M  V30 3261 H 299.035 0.0266913 -0.947624 0
M  V30 3262 H 298.741 0.688925 -3.44887 0
M  V30 3263 H 298.615 2.36347 -2.93973 0
M  V30 3264 H 301.002 2.20561 -1.96053 0
M  V30 3265 H 301.083 0.523627 -2.50383 0
M  V30 3266 H 300.727 1.30649 -4.90809 0
M  V30 3267 H 300.657 2.99146 -4.33381 0
M  V30 3268 H 303.148 1.80232 -3.32152 0
M  V30 3269 H 303.461 3.12405 -7.0684 0
M  V30 3270 H 301.806 2.8159 -6.35399 0
M  V30 3271 H 304.997 2.1581 -4.15384 0
M  V30 3272 H 305.17 2.76102 -5.86235 0
M  V30 3273 N 298.576 1.31904 0.862503 0
M  V30 3274 C 299.506 1.22782 1.98612 0
M  V30 3275 C 300.487 0.113362 1.69722 0
M  V30 3276 O 301.672 0.299218 1.91881 0
M  V30 3277 C 298.802 0.942058 3.34279 0
M  V30 3278 C 297.756 2.0169 3.77499 0
M  V30 3279 C 297.082 1.58369 5.10709 0
M  V30 3280 C 298.382 3.43096 3.93805 0
M  V30 3281 H 300.076 2.16788 2.06502 0
M  V30 3282 H 297.622 1.04366 0.992154 0
M  V30 3283 H 299.575 0.864818 4.1243 0
M  V30 3284 H 298.299 -0.0336603 3.26583 0
M  V30 3285 H 296.958 2.08416 3.01593 0
M  V30 3286 H 296.606 0.595628 4.99461 0
M  V30 3287 H 296.306 2.30279 5.40597 0
M  V30 3288 H 297.83 1.52067 5.91361 0
M  V30 3289 H 299.244 3.39003 4.62331 0
M  V30 3290 H 297.641 4.13288 4.35101 0
M  V30 3291 H 298.711 3.83334 2.96957 0
M  V30 3292 N 300.054 -1.07777 1.14986 0
M  V30 3293 C 301.465 -1.61766 0.932127 0
M  V30 3294 C 301.816 -1.88974 -0.527581 0
M  V30 3295 O 300.941 -1.65198 -1.39781 0
M  V30 3296 C 301.536 -2.93891 1.68563 0
M  V30 3297 C 300.095 -3.44639 1.5133 0
M  V30 3298 C 299.242 -2.18767 1.704 0
M  V30 3299 H 302.193 -0.909201 1.30074 0
M  V30 3300 H 302.214 -3.62623 1.15259 0
M  V30 3301 H 301.726 -2.74057 2.74799 0
M  V30 3302 H 299.827 -3.69564 0.474702 0
M  V30 3303 H 299.94 -4.20966 2.28746 0
M  V30 3304 H 298.304 -2.28253 1.13016 0
M  V30 3305 H 299.087 -2.01433 2.77992 0
M  V30 3306 N 301.532 -0.945985 -1.26051 0
M  V30 3307 C 302.442 -0.465633 -2.29933 0
M  V30 3308 C 303.458 0.462761 -1.67733 0
M  V30 3309 O 304.634 0.341118 -1.9849 0
M  V30 3310 C 301.699 0.256994 -3.45746 0
M  V30 3311 C 300.76 -0.708549 -4.23412 0
M  V30 3312 C 299.993 -0.0203135 -5.33696 0
M  V30 3313 O 300.216 1.19571 -5.57726 0
M  V30 3314 O 299.15 -0.701459 -5.97799 0
M  V30 3315 H 302.976 -1.32866 -2.73094 0
M  V30 3316 H 300.561 -0.712071 -1.31339 0
M  V30 3317 H 302.443 0.663852 -4.16138 0
M  V30 3318 H 301.118 1.09533 -3.04605 0
M  V30 3319 H 300.025 -1.16545 -3.55483 0
M  V30 3320 H 301.358 -1.51465 -4.68315 0
M  V30 3321 N 303.011 1.40521 -0.713556 0
M  V30 3322 C 304.288 1.94775 -0.17943 0
M  V30 3323 C 304.668 1.65184 1.31444 0
M  V30 3324 O 304.016 0.968429 2.06963 0
M  V30 3325 C 304.226 3.45543 -0.489986 0
M  V30 3326 C 305.574 4.22442 -0.427536 0
M  V30 3327 O 306.598 3.53644 -0.425929 0
M  V30 3328 O 305.457 5.4501 -0.403292 0
M  V30 3329 H 302.551 0.826606 -0.0255192 0
M  V30 3330 H 305.097 1.5014 -0.790949 0
M  V30 3331 H 303.869 3.60432 -1.5233 0
M  V30 3332 H 303.492 3.97311 0.151598 0
M  V30 3333 N 304.489 0.459591 1.5075 0
M  V30 3334 C 305.735 -0.0994966 2.02556 0
M  V30 3335 C 306.068 -1.40399 1.3417 0
M  V30 3336 O 305.343 -1.88892 0.463683 0
M  V30 3337 C 305.626 -0.295242 3.58888 0
M  V30 3338 C 305.479 1.02947 4.37861 0
M  V30 3339 C 306.798 -1.05502 4.27267 0
M  V30 3340 H 303.917 -0.034686 0.736183 0
M  V30 3341 H 306.559 0.602938 1.8018 0
M  V30 3342 H 304.709 -0.893563 3.78084 0
M  V30 3343 H 306.381 1.66348 4.30263 0
M  V30 3344 H 304.624 1.62885 4.02058 0
M  V30 3345 H 305.295 0.846281 5.45474 0
M  V30 3346 H 307.771 -0.547993 4.12476 0
M  V30 3347 H 306.647 -1.16077 5.36486 0
M  V30 3348 H 306.908 -2.08875 3.89645 0
M  V30 3349 N 305.967 -1.56429 0.191757 0
M  V30 3350 C 306.897 -2.21937 -0.725696 0
M  V30 3351 C 307.878 -1.1814 -1.2238 0
M  V30 3352 O 309.063 -1.46636 -1.27325 0
M  V30 3353 C 306.193 -2.87611 -1.94672 0
M  V30 3354 C 305.147 -3.97623 -1.58366 0
M  V30 3355 C 304.473 -4.50446 -2.88102 0
M  V30 3356 C 305.773 -5.16197 -0.796133 0
M  V30 3357 H 307.467 -2.98861 -0.179606 0
M  V30 3358 H 305.013 -1.43749 -0.0849464 0
M  V30 3359 H 306.966 -3.3212 -2.59373 0
M  V30 3360 H 305.69 -2.08087 -2.51728 0
M  V30 3361 H 304.349 -3.53801 -0.960247 0
M  V30 3362 H 303.997 -3.67688 -3.43241 0
M  V30 3363 H 303.697 -5.24675 -2.64556 0
M  V30 3364 H 305.221 -4.97654 -3.53798 0
M  V30 3365 H 306.635 -5.57271 -1.34618 0
M  V30 3366 H 305.032 -5.96471 -0.658928 0
M  V30 3367 H 306.102 -4.84473 0.203478 0
M  V30 3368 N 307.445 0.0818655 -1.57387 0
M  V30 3369 C 308.375 1.09885 -2.06028 0
M  V30 3370 C 309.356 1.4098 -0.951774 0
M  V30 3371 O 310.541 1.50781 -1.22387 0
M  V30 3372 C 307.671 2.4151 -2.4958 0
M  V30 3373 C 306.625 2.24792 -3.64215 0
M  V30 3374 C 305.951 3.61712 -3.93787 0
M  V30 3375 C 307.251 1.67749 -4.94629 0
M  V30 3376 H 308.945 0.694128 -2.91243 0
M  V30 3377 H 306.491 0.332448 -1.4011 0
M  V30 3378 H 308.444 3.12939 -2.82219 0
M  V30 3379 H 307.168 2.83943 -1.61381 0
M  V30 3380 H 305.827 1.55807 -3.31843 0
M  V30 3381 H 305.475 4.01697 -3.02735 0
M  V30 3382 H 305.175 3.51368 -4.70971 0
M  V30 3383 H 306.699 4.34587 -4.28913 0
M  V30 3384 H 308.113 2.29032 -5.25564 0
M  V30 3385 H 306.51 1.68128 -5.76067 0
M  V30 3386 H 307.58 0.638059 -4.80684 0
M  V30 3387 N 308.923 1.53595 0.353017 0
M  V30 3388 C 309.87 1.80919 1.43308 0
M  V30 3389 C 310.84 0.654288 1.5267 0
M  V30 3390 O 312.025 0.897759 1.6836 0
M  V30 3391 C 309.165 2.01605 2.80089 0
M  V30 3392 C 308.278 3.29321 2.79593 0
M  V30 3393 C 307.413 3.40125 4.0803 0
M  V30 3394 C 306.452 4.61826 4.01725 0
M  V30 3395 N 305.589 4.69716 5.21834 0
M  V30 3396 H 310.429 2.73074 1.19308 0
M  V30 3397 H 307.966 1.35263 0.578131 0
M  V30 3398 H 309.924 2.11586 3.59565 0
M  V30 3399 H 308.554 1.12772 3.0246 0
M  V30 3400 H 307.606 3.28229 1.92276 0
M  V30 3401 H 308.918 4.18884 2.70809 0
M  V30 3402 H 308.072 3.49488 4.95927 0
M  V30 3403 H 306.811 2.48601 4.19582 0
M  V30 3404 H 305.816 4.52552 3.12213 0
M  V30 3405 H 307.041 5.54705 3.91764 0
M  V30 3406 H 304.987 3.81097 5.33948 0
M  V30 3407 H 304.904 5.53202 5.1527 0
M  V30 3408 H 306.172 4.83376 6.11529 0
M  V30 3409 N 310.401 -0.613514 1.45168 0
M  V30 3410 C 311.311 -1.75296 1.55912 0
M  V30 3411 C 312.327 -1.68244 0.443856 0
M  V30 3412 O 313.503 -1.88706 0.70371 0
M  V30 3413 C 310.568 -3.1174 1.5172 0
M  V30 3414 C 309.629 -3.30291 2.74238 0
M  V30 3415 C 308.862 -4.60226 2.70236 0
M  V30 3416 O 309.085 -5.42168 1.77229 0
M  V30 3417 O 308.019 -4.81361 3.61352 0
M  V30 3418 H 311.845 -1.69183 2.52212 0
M  V30 3419 H 309.43 -0.776886 1.27612 0
M  V30 3420 H 311.312 -3.93044 1.51968 0
M  V30 3421 H 309.987 -3.18357 0.585697 0
M  V30 3422 H 308.894 -2.48598 2.79553 0
M  V30 3423 H 310.227 -3.28547 3.66494 0
M  V30 3424 N 311.879 -1.3236 -0.855495 0
M  V30 3425 C 312.809 -1.23833 -1.97958 0
M  V30 3426 C 313.79 -0.122361 -1.69659 0
M  V30 3427 O 314.975 -0.30939 -1.9172 0
M  V30 3428 C 312.105 -0.959772 -3.33775 0
M  V30 3429 C 311.059 -2.03689 -3.76424 0
M  V30 3430 C 310.385 -1.61075 -5.09862 0
M  V30 3431 C 311.685 -3.4518 -3.9198 0
M  V30 3432 H 313.379 -2.1788 -2.0535 0
M  V30 3433 H 310.925 -1.04891 -0.986605 0
M  V30 3434 H 312.878 -0.886678 -4.11966 0
M  V30 3435 H 311.602 0.0163404 -3.26596 0
M  V30 3436 H 310.261 -2.10012 -3.00484 0
M  V30 3437 H 309.909 -0.622107 -4.99138 0
M  V30 3438 H 309.609 -2.33143 -5.39368 0
M  V30 3439 H 311.133 -1.55201 -5.90546 0
M  V30 3440 H 312.547 -3.4145 -4.60526 0
M  V30 3441 H 310.944 -4.1559 -4.32903 0
M  V30 3442 H 312.014 -3.84903 -2.94919 0
M  V30 3443 N 313.357 1.07166 -1.15556 0
M  V30 3444 C 314.267 2.17947 -0.868116 0
M  V30 3445 C 315.283 1.73297 0.156297 0
M  V30 3446 O 316.459 2.01392 -0.0182327 0
M  V30 3447 C 313.524 3.44789 -0.36355 0
M  V30 3448 C 312.585 4.03996 -1.45209 0
M  V30 3449 C 311.818 5.24783 -0.971508 0
M  V30 3450 O 312.041 5.70109 0.182194 0
M  V30 3451 O 310.975 5.75715 -1.75603 0
M  V30 3452 H 314.801 2.4503 -1.79427 0
M  V30 3453 H 312.386 1.16539 -0.934824 0
M  V30 3454 H 314.268 4.21307 -0.0887113 0
M  V30 3455 H 312.943 3.19253 0.534708 0
M  V30 3456 H 311.85 3.29009 -1.78056 0
M  V30 3457 H 313.183 4.33808 -2.32533 0
M  V30 3458 N 314.835 0.952656 1.25548 0
M  V30 3459 C 315.765 0.489287 2.28316 0
M  V30 3460 C 316.746 -0.463359 1.63667 0
M  V30 3461 O 317.931 -0.36274 1.90782 0
M  V30 3462 C 315.061 -0.235603 3.465 0
M  V30 3463 C 314.015 0.631593 4.23314 0
M  V30 3464 C 313.341 -0.223923 5.34231 0
M  V30 3465 C 314.641 1.90871 4.86174 0
M  V30 3466 H 316.335 1.34822 2.67326 0
M  V30 3467 H 313.881 0.649728 1.28509 0
M  V30 3468 H 315.834 -0.570882 4.17515 0
M  V30 3469 H 314.558 -1.12877 3.06474 0
M  V30 3470 H 313.217 0.949929 3.54079 0
M  V30 3471 H 312.865 -1.11678 4.90446 0
M  V30 3472 H 312.565 0.35299 5.86539 0
M  V30 3473 H 314.089 -0.554214 6.0808 0
M  V30 3474 H 315.503 1.63997 5.49343 0
M  V30 3475 H 313.9 2.43112 5.4865 0
M  V30 3476 H 314.97 2.61304 4.08471 0
M  V30 3477 N 316.313 -1.40141 0.720998 0
M  V30 3478 C 317.559 -2.01084 0.263231 0
M  V30 3479 C 317.892 -1.57052 -1.14229 0
M  V30 3480 O 317.167 -0.793027 -1.77599 0
M  V30 3481 C 317.45 -3.58401 0.349344 0
M  V30 3482 C 317.303 -4.12491 1.79363 0
M  V30 3483 C 318.622 -4.39231 -0.276351 0
M  V30 3484 H 315.741 -0.730572 0.0971228 0
M  V30 3485 H 318.383 -1.66543 0.914518 0
M  V30 3486 H 316.533 -3.87958 -0.205165 0
M  V30 3487 H 318.205 -3.93711 2.40394 0
M  V30 3488 H 316.448 -3.66576 2.31958 0
M  V30 3489 H 317.119 -5.21646 1.80524 0
M  V30 3490 H 319.595 -4.15637 0.196184 0
M  V30 3491 H 318.471 -5.48586 -0.185681 0
M  V30 3492 H 318.732 -4.20643 -1.36059 0
M  V30 3493 N 317.792 -0.46758 -1.50504 0
M  V30 3494 C 318.724 0.364655 -2.26281 0
M  V30 3495 C 319.737 0.960151 -1.31472 0
M  V30 3496 O 320.926 0.849153 -1.57008 0
M  V30 3497 C 318.026 1.52509 -3.02645 0
M  V30 3498 C 317.199 1.04302 -4.24782 0
M  V30 3499 C 316.258 2.07709 -4.8347 0
M  V30 3500 O 315.284 1.65913 -5.44483 0
M  V30 3501 N 316.486 3.40485 -4.70159 0
M  V30 3502 H 319.251 -0.28495 -2.98342 0
M  V30 3503 H 316.812 -0.298163 -1.59131 0
M  V30 3504 H 318.804 2.21371 -3.38787 0
M  V30 3505 H 317.374 2.07945 -2.33404 0
M  V30 3506 H 316.594 0.180393 -3.93787 0
M  V30 3507 H 317.882 0.698798 -5.03978 0
M  V30 3508 H 317.28 3.77155 -4.21629 0
M  V30 3509 H 315.837 4.05156 -5.1058 0
M  V30 3510 N 319.27 1.56325 -0.20005 0
M  V30 3511 C 320.218 2.20666 0.735482 0
M  V30 3512 C 321.212 1.17934 1.21605 0
M  V30 3513 O 322.418 1.36068 1.17837 0
M  V30 3514 H 318.793 0.70725 0.255542 0
M  V30 3515 H 320.764 2.9792 0.169166 0
M  V30 3516 C 319.513 2.88391 1.94232 0
M  V30 3517 H 318.836 3.67185 1.58161 0
M  V30 3518 H 320.276 3.3684 2.57517 0
M  V30 3519 C 318.735 1.89692 2.78421 0
M  V30 3520 O 319.265 1.40032 3.76502 0
M  V30 3521 N 317.471 1.57813 2.44015 0
M  V30 3522 H 317.018 1.9839 1.64314 0
M  V30 3523 H 316.976 0.920325 3.00628 0
M  V30 3524 N 320.748 -0.0735177 1.57428 0
M  V30 3525 C 321.711 -1.07192 2.02589 0
M  V30 3526 C 322.711 -1.31695 0.922661 0
M  V30 3527 O 323.901 -1.27445 1.18758 0
M  V30 3528 C 321.033 -2.41599 2.40506 0
M  V30 3529 H 322.226 -0.682727 2.92025 0
M  V30 3530 H 319.779 -0.319193 1.53006 0
M  V30 3531 H 320.514 -2.85354 1.5409 0
M  V30 3532 H 320.299 -2.25156 3.21009 0
M  V30 3533 H 321.789 -3.13367 2.76027 0
M  V30 3534 N 322.226 -1.5378 -0.344866 0
M  V30 3535 C 323.473 -1.70963 -1.08526 0
M  V30 3536 C 323.801 -0.472126 -1.88683 0
M  V30 3537 O 323.056 0.546116 -1.87926 0
M  V30 3538 C 323.355 -2.92407 -2.05506 0
M  V30 3539 C 323.021 -4.28066 -1.41671 0
M  V30 3540 C 321.683 -4.64951 -1.2399 0
M  V30 3541 C 324.035 -5.12344 -0.956726 0
M  V30 3542 C 321.363 -5.83733 -0.589277 0
M  V30 3543 C 323.715 -6.3179 -0.320015 0
M  V30 3544 C 322.379 -6.67372 -0.130881 0
M  V30 3545 H 321.649 -0.625598 -0.397124 0
M  V30 3546 H 324.296 -1.87995 -0.36469 0
M  V30 3547 H 322.601 -2.69973 -2.8394 0
M  V30 3548 H 324.298 -3.02895 -2.62784 0
M  V30 3549 H 320.888 -3.99034 -1.56429 0
M  V30 3550 H 325.072 -4.8438 -1.08118 0
M  V30 3551 H 320.328 -6.09877 -0.431344 0
M  V30 3552 H 324.502 -6.96386 0.0445072 0
M  V30 3553 H 322.129 -7.59273 0.375318 0
M  V30 3554 N 323.704 0.605807 -1.45491 0
M  V30 3555 C 324.951 1.36476 -1.49601 0
M  V30 3556 C 325.279 1.94007 -0.138452 0
M  V30 3557 O 324.534 1.75638 0.863114 0
M  V30 3558 C 324.833 2.53012 -2.52428 0
M  V30 3559 C 324.499 2.13617 -3.97087 0
M  V30 3560 C 323.161 2.02587 -4.36477 0
M  V30 3561 C 325.513 1.82899 -4.88055 0
M  V30 3562 C 322.841 1.59064 -5.64726 0
M  V30 3563 C 325.193 1.40861 -6.16718 0
M  V30 3564 C 323.857 1.28391 -6.55036 0
M  V30 3565 H 323.127 0.499402 -0.547429 0
M  V30 3566 H 325.774 0.684546 -1.78847 0
M  V30 3567 H 324.079 3.26379 -2.16758 0
M  V30 3568 H 325.776 3.1124 -2.52845 0
M  V30 3569 H 322.366 2.23129 -3.65939 0
M  V30 3570 H 326.55 1.90317 -4.58359 0
M  V30 3571 H 321.806 1.48034 -5.93208 0
M  V30 3572 H 325.98 1.16138 -6.86648 0
M  V30 3573 H 323.607 0.944403 -7.54311 0
M  V30 3574 N 325.182 1.32811 0.848464 0
M  V30 3575 C 326.41 1.26739 1.63538 0
M  V30 3576 C 326.825 -0.163484 1.88091 0
M  V30 3577 O 326.182 -1.10258 1.45429 0
M  V30 3578 C 326.233 2.03013 2.99112 0
M  V30 3579 O 325.954 3.40518 2.75643 0
M  V30 3580 C 327.455 2.04038 3.93552 0
M  V30 3581 H 324.675 0.437024 0.509167 0
M  V30 3582 H 327.219 1.75033 1.05753 0
M  V30 3583 H 325.374 1.58426 3.53525 0
M  V30 3584 H 325.788 3.79635 3.61908 0
M  V30 3585 H 327.262 2.61877 4.85926 0
M  V30 3586 H 327.739 1.0282 4.26995 0
M  V30 3587 H 328.345 2.486 3.45077 0
M  V30 3588 N 326.66 -1.06551 1.16123 0
M  V30 3589 C 327.937 -1.76097 0.85142 0
M  V30 3590 C 328.317 -2.00802 -0.6513 0
M  V30 3591 O 327.665 -1.63302 -1.59827 0
M  V30 3592 C 327.875 -3.06384 1.67122 0
M  V30 3593 C 329.223 -3.80585 1.88255 0
M  V30 3594 O 330.247 -3.16218 1.63966 0
M  V30 3595 O 329.106 -4.96212 2.2899 0
M  V30 3596 H 326.2 -0.765102 0.313923 0
M  V30 3597 H 328.746 -1.12844 1.26745 0
M  V30 3598 H 327.518 -2.84071 2.69108 0
M  V30 3599 H 327.141 -3.77371 1.25206 0
M  V30 3600 N 328.138 -0.959301 -1.25041 0
M  V30 3601 C 329.549 -0.65667 -1.74771 0
M  V30 3602 C 329.9 0.827852 -1.77879 0
M  V30 3603 O 329.025 1.64783 -1.40269 0
M  V30 3604 C 329.62 -1.1853 -3.1739 0
M  V30 3605 C 328.179 -0.932734 -3.6466 0
M  V30 3606 C 327.326 -1.32558 -2.43564 0
M  V30 3607 H 330.277 -1.13558 -1.10862 0
M  V30 3608 H 330.298 -0.547582 -3.76539 0
M  V30 3609 H 329.81 -2.26576 -3.15095 0
M  V30 3610 H 327.911 0.13257 -3.72364 0
M  V30 3611 H 328.024 -1.57248 -4.52559 0
M  V30 3612 H 326.388 -0.743956 -2.43593 0
M  V30 3613 H 327.171 -2.41537 -2.43957 0
M  V30 3614 N 329.616 1.39756 -0.72842 0
M  V30 3615 C 330.564 2.32485 -0.0731849 0
M  V30 3616 C 331.558 1.52717 0.733063 0
M  V30 3617 O 332.764 1.68428 0.634988 0
M  V30 3618 H 329.139 0.751984 -0.00486469 0
M  V30 3619 H 331.11 2.85382 -0.871761 0
M  V30 3620 C 329.859 3.37773 0.824908 0
M  V30 3621 H 329.182 3.99227 0.213915 0
M  V30 3622 H 330.622 4.05121 1.25111 0
M  V30 3623 C 329.081 2.74287 1.95622 0
M  V30 3624 O 329.611 2.61618 3.04826 0
M  V30 3625 N 327.817 2.32475 1.74367 0
M  V30 3626 H 327.364 2.4298 0.855494 0
M  V30 3627 H 327.322 1.90337 2.50238 0
M  V30 3628 N 331.094 0.475555 1.50254 0
M  V30 3629 C 332.371 -0.139685 1.95101 0
M  V30 3630 C 332.751 -1.56555 1.41611 0
M  V30 3631 O 332.099 -2.19956 0.618993 0
M  V30 3632 C 332.309 -0.0784298 3.48912 0
M  V30 3633 C 333.657 -0.265095 4.23772 0
M  V30 3634 O 334.681 -0.154808 3.55863 0
M  V30 3635 O 333.54 -0.488327 5.44314 0
M  V30 3636 H 330.634 -0.109236 0.819754 0
M  V30 3637 H 333.18 0.536276 1.61004 0
M  V30 3638 H 331.952 0.916918 3.80405 0
M  V30 3639 H 331.575 -0.795655 3.89558 0
M  V30 3640 N 332.573 -1.56217 0.208337 0
M  V30 3641 C 333.505 -2.1695 -0.739276 0
M  V30 3642 C 334.518 -1.13492 -1.1672 0
M  V30 3643 O 335.707 -1.40529 -1.10063 0
M  V30 3644 C 332.807 -2.72755 -2.01142 0
M  V30 3645 C 331.98 -4.0125 -1.74118 0
M  V30 3646 C 331.039 -4.41749 -2.85909 0
M  V30 3647 O 330.065 -5.08912 -2.54946 0
M  V30 3648 N 331.267 -4.06342 -4.14568 0
M  V30 3649 H 334.032 -2.98893 -0.219837 0
M  V30 3650 H 331.593 -1.61878 0.0268445 0
M  V30 3651 H 333.585 -2.96826 -2.75094 0
M  V30 3652 H 332.155 -1.95191 -2.4417 0
M  V30 3653 H 331.375 -3.85173 -0.838775 0
M  V30 3654 H 332.663 -4.851 -1.53477 0
M  V30 3655 H 332.061 -3.52345 -4.42571 0
M  V30 3656 H 330.618 -4.35335 -4.85105 0
M  V30 3657 N 334.051 0.0651679 -1.57465 0
M  V30 3658 C 335.276 0.779605 -1.9219 0
M  V30 3659 C 335.701 1.69988 -0.805333 0
M  V30 3660 O 335.059 1.79685 0.241435 0
M  V30 3661 C 335.107 1.54364 -3.2589 0
M  V30 3662 O 334.211 2.65474 -3.1559 0
M  V30 3663 H 333.552 0.212249 -0.629163 0
M  V30 3664 H 336.082 0.0314294 -2.04576 0
M  V30 3665 H 336.092 1.92146 -3.59922 0
M  V30 3666 H 334.767 0.868457 -4.06732 0
M  V30 3667 H 333.344 2.30501 -2.93128 0
M  V30 3668 N 335.529 1.53961 0.336706 0
M  V30 3669 C 336.492 1.81724 1.39675 0
M  V30 3670 C 337.492 0.688532 1.45313 0
M  V30 3671 O 338.682 0.956829 1.45569 0
M  V30 3672 C 335.814 1.96543 2.78538 0
M  V30 3673 H 337.007 2.76424 1.16318 0
M  V30 3674 H 334.56 1.45478 0.571474 0
M  V30 3675 H 335.295 1.0401 3.07168 0
M  V30 3676 H 335.08 2.78665 2.75841 0
M  V30 3677 H 336.57 2.19516 3.5525 0
M  V30 3678 N 337.007 -0.598083 1.45811 0
M  V30 3679 C 338.253 -1.35679 1.51535 0
M  V30 3680 C 338.608 -1.91745 0.15864 0
M  V30 3681 O 337.901 -1.72654 -0.830724 0
M  V30 3682 C 338.095 -2.51669 2.53766 0
M  V30 3683 C 337.924 -2.06963 3.99245 0
M  V30 3684 C 336.694 -1.92693 4.67116 0
M  V30 3685 C 338.892 -1.63855 4.875 0
M  V30 3686 N 336.874 -1.41897 5.97276 0
M  V30 3687 C 338.245 -1.24541 6.07363 0
M  V30 3688 C 340.3 -1.51533 4.74281 0
M  V30 3689 C 339.003 -0.741354 7.15469 0
M  V30 3690 C 341.029 -1.0253 5.82444 0
M  V30 3691 C 340.391 -0.641869 7.01469 0
M  V30 3692 H 336.49 -0.490042 0.609412 0
M  V30 3693 H 339.074 -0.682687 1.82339 0
M  V30 3694 H 337.245 -3.16663 2.24898 0
M  V30 3695 H 338.977 -3.18578 2.4958 0
M  V30 3696 H 335.732 -2.1417 4.22408 0
M  V30 3697 H 336.156 -1.18704 6.66512 0
M  V30 3698 H 340.798 -1.798 3.82664 0
M  V30 3699 H 338.516 -0.446243 8.06867 0
M  V30 3700 H 342.102 -0.934088 5.74253 0
M  V30 3701 H 340.982 -0.268531 7.8374 0
M  V30 3702 N 338.485 -1.33259 -0.841409 0
M  V30 3703 C 339.732 -1.24572 -1.5965 0
M  V30 3704 C 340.06 0.189137 -1.93578 0
M  V30 3705 O 339.315 1.14566 -1.5866 0
M  V30 3706 C 339.614 -2.06381 -2.9179 0
M  V30 3707 C 339.28 -3.556 -2.77235 0
M  V30 3708 C 337.942 -3.96282 -2.72973 0
M  V30 3709 C 340.294 -4.50433 -2.62221 0
M  V30 3710 C 337.622 -5.30017 -2.51592 0
M  V30 3711 C 339.974 -5.84327 -2.42374 0
M  V30 3712 C 338.638 -6.24194 -2.36512 0
M  V30 3713 H 337.908 -0.455842 -0.5842 0
M  V30 3714 H 340.555 -1.6482 -0.975016 0
M  V30 3715 H 338.86 -1.58903 -3.5813 0
M  V30 3716 H 340.557 -1.97019 -3.49263 0
M  V30 3717 H 337.147 -3.23298 -2.81384 0
M  V30 3718 H 341.331 -4.19914 -2.64549 0
M  V30 3719 H 336.587 -5.59947 -2.45499 0
M  V30 3720 H 340.761 -6.57414 -2.29739 0
M  V30 3721 H 338.388 -7.27759 -2.19706 0
M  V30 3722 N 339.963 1.05934 -1.16686 0
M  V30 3723 C 341.193 1.82226 -0.973515 0
M  V30 3724 C 341.601 1.8297 0.481532 0
M  V30 3725 O 340.944 1.25009 1.34604 0
M  V30 3726 C 341.006 3.29897 -1.42858 0
M  V30 3727 C 340.67 3.52849 -2.90425 0
M  V30 3728 C 341.667 3.45595 -3.88407 0
M  V30 3729 C 339.352 3.80053 -3.28428 0
M  V30 3730 C 341.346 3.65217 -5.22394 0
M  V30 3731 C 339.033 3.99325 -4.62583 0
M  V30 3732 C 340.031 3.91905 -5.59374 0
M  V30 3733 O 339.719 4.10647 -6.91104 0
M  V30 3734 H 339.451 0.581314 -0.345036 0
M  V30 3735 H 342.005 1.3453 -1.55212 0
M  V30 3736 H 340.235 3.78472 -0.793477 0
M  V30 3737 H 341.924 3.87692 -1.20207 0
M  V30 3738 H 342.69 3.24564 -3.60393 0
M  V30 3739 H 338.569 3.84936 -2.53664 0
M  V30 3740 H 342.113 3.59341 -5.9793 0
M  V30 3741 H 338.01 4.19846 -4.90306 0
M  V30 3742 H 338.778 4.27915 -6.97733 0
M  V30 3743 N 341.441 0.965919 1.2453 0
M  V30 3744 C 342.391 0.465731 2.23193 0
M  V30 3745 C 343.375 -0.451277 1.54442 0
M  V30 3746 O 344.567 -0.282489 1.74731 0
M  V30 3747 C 341.696 -0.244511 3.42428 0
M  V30 3748 C 340.782 0.691222 4.18429 0
M  V30 3749 N 341.173 1.82771 4.71623 0
M  V30 3750 C 339.471 0.501649 4.4317 0
M  V30 3751 C 340.172 2.41285 5.29298 0
M  V30 3752 N 339.148 1.69819 5.16394 0
M  V30 3753 H 342.95 1.33291 2.61937 0
M  V30 3754 H 340.464 0.824789 1.39896 0
M  V30 3755 H 342.461 -0.620056 4.12263 0
M  V30 3756 H 341.121 -1.10815 3.05205 0
M  V30 3757 H 342.132 2.20929 4.68413 0
M  V30 3758 H 338.809 -0.318177 4.16286 0
M  V30 3759 H 340.199 3.37181 5.8117 0
M  V30 3760 N 342.919 -1.39368 0.735821 0
M  V30 3761 C 344.335 -1.54204 0.411492 0
M  V30 3762 C 344.535 -1.70268 -1.07755 0
M  V30 3763 O 343.591 -1.70364 -1.86366 0
M  V30 3764 C 344.904 -2.75925 1.19523 0
M  V30 3765 C 346.452 -2.89761 1.18354 0
M  V30 3766 C 346.927 -4.14421 1.94986 0
M  V30 3767 N 348.418 -4.21462 1.92156 0
M  V30 3768 C 349.153 -5.16871 2.48258 0
M  V30 3769 N 348.649 -6.18063 3.13001 0
M  V30 3770 N 350.442 -5.09093 2.38287 0
M  V30 3771 H 342.593 -1.27189 1.70108 0
M  V30 3772 H 344.856 -0.616517 0.720147 0
M  V30 3773 H 344.562 -2.70401 2.24892 0
M  V30 3774 H 344.436 -3.68614 0.800222 0
M  V30 3775 H 346.823 -2.94777 0.137975 0
M  V30 3776 H 346.904 -1.98133 1.61793 0
M  V30 3777 H 346.548 -4.10166 2.99543 0
M  V30 3778 H 346.478 -5.05095 1.48953 0
M  V30 3779 H 348.969 -3.48979 1.44991 0
M  V30 3780 H 349.282 -6.87326 3.53275 0
M  V30 3781 H 347.627 -6.18448 3.17091 0
M  V30 3782 H 350.818 -4.28973 1.8735 0
M  V30 3783 H 350.991 -5.83272 2.82308 0
M  V30 3784 N 344.397 -0.483516 -1.5 0
M  V30 3785 C 345.643 0.0593261 -2.03313 0
M  V30 3786 C 345.998 1.36288 -1.35806 0
M  V30 3787 O 345.291 1.85519 -0.478897 0
M  V30 3788 C 345.485 0.286226 -3.56252 0
M  V30 3789 C 345.314 -0.993788 -4.38582 0
M  V30 3790 C 344.084 -1.54064 -4.81241 0
M  V30 3791 C 346.282 -1.89249 -4.78215 0
M  V30 3792 N 344.264 -2.76838 -5.47936 0
M  V30 3793 C 345.635 -2.96606 -5.44449 0
M  V30 3794 C 347.69 -1.90138 -4.60165 0
M  V30 3795 C 346.393 -4.04857 -5.94544 0
M  V30 3796 C 348.419 -2.97353 -5.1121 0
M  V30 3797 C 347.781 -4.03429 -5.77429 0
M  V30 3798 H 343.88 -0.0186322 -0.781778 0
M  V30 3799 H 346.464 -0.654489 -1.8337 0
M  V30 3800 H 344.635 0.969086 -3.76116 0
M  V30 3801 H 346.367 0.824515 -3.96212 0
M  V30 3802 H 343.122 -1.08813 -4.6093 0
M  V30 3803 H 343.546 -3.39221 -5.85882 0
M  V30 3804 H 348.188 -1.09441 -4.0839 0
M  V30 3805 H 345.906 -4.86363 -6.4535 0
M  V30 3806 H 349.492 -2.99039 -4.99066 0
M  V30 3807 H 348.372 -4.85025 -6.16214 0
M  V30 3808 N 345.875 1.56104 -0.216619 0
M  V30 3809 C 346.805 2.23063 0.690296 0
M  V30 3810 C 347.786 1.20072 1.20485 0
M  V30 3811 O 348.971 1.48643 1.24976 0
M  V30 3812 C 346.101 2.90672 1.90072 0
M  V30 3813 C 345.055 4.00092 1.5202 0
M  V30 3814 C 344.381 4.54972 2.80899 0
M  V30 3815 C 345.681 5.17398 0.71391 0
M  V30 3816 H 347.375 2.99109 0.132038 0
M  V30 3817 H 344.921 1.43866 0.0620664 0
M  V30 3818 H 346.874 3.36204 2.54057 0
M  V30 3819 H 345.598 2.12066 2.48386 0
M  V30 3820 H 344.257 3.55283 0.903839 0
M  V30 3821 H 343.905 3.73102 3.37348 0
M  V30 3822 H 343.605 5.28817 2.56176 0
M  V30 3823 H 345.129 5.0322 3.45836 0
M  V30 3824 H 346.543 5.59342 1.25735 0
M  V30 3825 H 344.94 5.97444 0.563951 0
M  V30 3826 H 346.01 4.84088 -0.280527 0
M  V30 3827 N 347.353 -0.0568162 1.57498 0
M  V30 3828 C 348.283 -1.06593 2.0775 0
M  V30 3829 C 349.264 -1.39448 0.974082 0
M  V30 3830 O 350.449 -1.48815 1.24771 0
M  V30 3831 C 347.579 -2.37509 2.5339 0
M  V30 3832 C 346.533 -2.1897 3.67745 0
M  V30 3833 C 345.859 -3.55402 3.99492 0
M  V30 3834 C 347.159 -1.59859 4.97235 0
M  V30 3835 H 348.853 -0.647706 2.9231 0
M  V30 3836 H 346.399 -0.310116 1.40621 0
M  V30 3837 H 348.352 -3.08409 2.87162 0
M  V30 3838 H 347.076 -2.8134 1.65878 0
M  V30 3839 H 345.735 -1.50508 3.3428 0
M  V30 3840 H 345.383 -3.9683 3.09088 0
M  V30 3841 H 345.083 -3.43831 4.76502 0
M  V30 3842 H 346.607 -4.27708 4.35773 0
M  V30 3843 H 348.021 -2.20642 5.29141 0
M  V30 3844 H 346.418 -1.58942 5.78669 0
M  V30 3845 H 347.488 -0.561506 4.81638 0
M  V30 3846 N 348.832 -1.54138 -0.328536 0
M  V30 3847 C 350.08 -1.71765 -1.06496 0
M  V30 3848 C 350.401 -0.49149 -1.88704 0
M  V30 3849 O 349.671 0.494539 -1.89555 0
M  V30 3850 H 348.251 -0.633295 -0.396164 0
M  V30 3851 H 350.913 -1.91429 -0.366176 0
M  V30 3852 H 350.009 -2.5951 -1.73381 0
M  V30 3853 N 350.31 0.590341 -1.46126 0
M  V30 3854 C 351.726 0.912917 -1.30912 0
M  V30 3855 C 351.926 1.99616 -0.274893 0
M  V30 3856 O 350.982 2.50397 0.325197 0
M  V30 3857 C 352.295 1.3375 -2.69317 0
M  V30 3858 C 353.843 1.45077 -2.77348 0
M  V30 3859 C 354.318 1.90904 -4.16317 0
M  V30 3860 N 355.809 1.9811 -4.18696 0
M  V30 3861 C 356.544 2.34828 -5.23109 0
M  V30 3862 N 356.04 2.70393 -6.37856 0
M  V30 3863 N 357.833 2.35317 -5.10473 0
M  V30 3864 H 349.984 -0.125358 -2.1203 0
M  V30 3865 H 352.247 0.00658481 -0.947977 0
M  V30 3866 H 351.953 0.615614 -3.4627 0
M  V30 3867 H 351.827 2.30058 -2.9892 0
M  V30 3868 H 354.214 2.16353 -2.00687 0
M  V30 3869 H 354.295 0.4704 -2.51438 0
M  V30 3870 H 353.939 1.20209 -4.9347 0
M  V30 3871 H 353.869 2.89886 -4.39629 0
M  V30 3872 H 356.36 1.73146 -3.359 0
M  V30 3873 H 356.673 2.97341 -7.13308 0
M  V30 3874 H 355.018 2.68048 -6.41229 0
M  V30 3875 H 358.209 2.0695 -4.19868 0
M  V30 3876 H 358.382 2.63605 -5.9196 0
M  V30 3877 N 351.788 1.33704 0.83433 0
M  V30 3878 C 352.751 1.24244 1.92603 0
M  V30 3879 C 353.751 0.160383 1.59998 0
M  V30 3880 O 354.941 0.412228 1.69252 0
M  V30 3881 C 352.073 0.91555 3.28376 0
M  V30 3882 H 353.266 2.21287 2.02416 0
M  V30 3883 H 350.819 1.17827 1.02696 0
M  V30 3884 H 351.554 -0.0521886 3.24258 0
M  V30 3885 H 351.339 1.69811 3.53422 0
M  V30 3886 H 352.829 0.874231 4.08347 0
M  V30 3887 N 353.266 -1.05314 1.17247 0
M  V30 3888 C 354.543 -1.75184 0.87005 0
M  V30 3889 C 354.923 -2.01481 -0.629965 0
M  V30 3890 O 354.271 -1.64988 -1.58086 0
M  V30 3891 C 354.481 -3.04594 1.70363 0
M  V30 3892 C 355.829 -3.78567 1.92281 0
M  V30 3893 O 356.853 -3.14461 1.67311 0
M  V30 3894 O 355.712 -4.93755 2.3424 0
M  V30 3895 H 352.806 -0.761729 0.322021 0
M  V30 3896 H 355.352 -1.11493 1.27935 0
M  V30 3897 H 354.124 -2.81201 2.72106 0
M  V30 3898 H 353.747 -3.76022 1.29202 0
M  V30 3899 N 354.744 -0.972509 -1.24016 0
M  V30 3900 C 356.155 -0.67517 -1.74064 0
M  V30 3901 C 356.506 0.808939 -1.78747 0
M  V30 3902 O 355.631 1.63286 -1.42009 0
M  V30 3903 C 356.226 -1.21889 -3.16115 0
M  V30 3904 C 354.785 -0.971358 -3.6365 0
M  V30 3905 C 353.932 -1.35134 -2.42145 0
M  V30 3906 H 356.883 -1.14727 -1.09651 0
M  V30 3907 H 356.904 -0.587489 -3.75937 0
M  V30 3908 H 356.416 -2.29906 -3.12674 0
M  V30 3909 H 354.517 0.0930686 -3.72484 0
M  V30 3910 H 354.63 -1.62039 -4.50866 0
M  V30 3911 H 352.994 -0.769751 -2.4279 0
M  V30 3912 H 353.777 -2.4411 -2.41381 0
M  V30 3913 N 356.222 1.38976 -0.743202 0
M  V30 3914 C 357.154 2.29096 -0.0689228 0
M  V30 3915 C 358.167 1.47229 0.694791 0
M  V30 3916 O 359.356 1.70212 0.537597 0
M  V30 3917 C 356.456 3.25988 0.926548 0
M  V30 3918 C 355.629 4.36833 0.222647 0
M  V30 3919 C 354.688 5.13981 1.12739 0
M  V30 3920 O 353.714 5.6601 0.601795 0
M  V30 3921 N 354.916 5.25966 2.45641 0
M  V30 3922 H 357.681 2.87604 -0.842846 0
M  V30 3923 H 355.242 1.50645 -0.593109 0
M  V30 3924 H 357.234 3.74476 1.5346 0
M  V30 3925 H 355.804 2.68453 1.60162 0
M  V30 3926 H 355.024 3.90116 -0.565983 0
M  V30 3927 H 356.312 5.0811 -0.264841 0
M  V30 3928 H 355.71 4.85228 2.9081 0
M  V30 3929 H 354.267 5.77865 3.01522 0
M  V30 3930 N 357.7 0.491464 1.49741 0
M  V30 3931 C 358.977 -0.118984 1.95238 0
M  V30 3932 C 359.357 -1.55044 1.43264 0
M  V30 3933 O 358.705 -2.19287 0.642287 0
M  V30 3934 C 358.915 -0.0414187 3.48975 0
M  V30 3935 C 360.263 -0.220133 4.24029 0
M  V30 3936 O 361.287 -0.117055 3.56008 0
M  V30 3937 O 360.146 -0.430567 5.44801 0
M  V30 3938 H 357.24 -0.100536 0.820866 0
M  V30 3939 H 359.786 0.553322 1.60426 0
M  V30 3940 H 358.558 0.957214 3.79412 0
M  V30 3941 H 358.181 -0.754292 3.9038 0
M  V30 3942 N 359.178 -1.55987 0.224894 0
M  V30 3943 C 360.141 -2.19178 -0.670348 0
M  V30 3944 C 361.141 -1.15461 -1.11917 0
M  V30 3945 O 362.331 -1.40675 -1.02743 0
M  V30 3946 C 359.463 -2.81777 -1.9187 0
M  V30 3947 H 360.656 -2.99662 -0.119364 0
M  V30 3948 H 358.209 -1.5628 -0.0247128 0
M  V30 3949 H 358.944 -2.05172 -2.51147 0
M  V30 3950 H 358.729 -3.57732 -1.60531 0
M  V30 3951 H 360.219 -3.30205 -2.55645 0
M  V30 3952 N 360.656 0.0484629 -1.57525 0
M  V30 3953 C 361.586 1.0549 -2.08313 0
M  V30 3954 C 362.567 1.38929 -0.981463 0
M  V30 3955 O 363.752 1.48151 -1.25558 0
M  V30 3956 C 360.882 2.36162 -2.54646 0
M  V30 3957 C 359.836 2.17016 -3.68901 0
M  V30 3958 C 359.162 3.53278 -4.01371 0
M  V30 3959 C 360.462 1.57219 -4.98076 0
M  V30 3960 H 362.156 0.632195 -2.92649 0
M  V30 3961 H 359.702 0.302654 -1.40784 0
M  V30 3962 H 361.655 3.06882 -2.88793 0
M  V30 3963 H 360.379 2.80456 -1.67368 0
M  V30 3964 H 359.038 1.48733 -3.35073 0
M  V30 3965 H 358.686 3.95185 -3.11188 0
M  V30 3966 H 358.386 3.41299 -4.78318 0
M  V30 3967 H 359.91 4.25391 -4.38035 0
M  V30 3968 H 361.324 2.17832 -5.30304 0
M  V30 3969 H 359.721 1.55871 -5.79503 0
M  V30 3970 H 360.791 0.535956 -4.81929 0
M  V30 3971 N 362.134 1.5431 0.320358 0
M  V30 3972 C 363.55 1.45091 0.664889 0
M  V30 3973 C 363.75 0.626382 1.91517 0
M  V30 3974 O 362.806 0.126443 2.52183 0
M  V30 3975 C 364.119 2.88848 0.83591 0
M  V30 3976 C 365.667 2.9877 0.933046 0
M  V30 3977 C 366.142 4.43683 1.13621 0
M  V30 3978 N 367.633 4.47309 1.20287 0
M  V30 3979 C 368.368 5.56595 1.37801 0
M  V30 3980 N 367.864 6.75844 1.52338 0
M  V30 3981 N 369.657 5.44248 1.40535 0
M  V30 3982 H 361.808 2.06398 -0.501374 0
M  V30 3983 H 364.071 0.933963 -0.162534 0
M  V30 3984 H 363.777 3.51698 -0.0116092 0
M  V30 3985 H 363.651 3.35148 1.73078 0
M  V30 3986 H 366.038 2.36045 1.77107 0
M  V30 3987 H 366.119 2.55796 0.0145782 0
M  V30 3988 H 365.763 5.06995 0.303032 0
M  V30 3989 H 365.693 4.84269 2.0686 0
M  V30 3990 H 368.184 3.61388 1.10485 0
M  V30 3991 H 368.497 7.54892 1.65403 0
M  V30 3992 H 366.842 6.78746 1.4943 0
M  V30 3993 H 370.033 4.50038 1.28777 0
M  V30 3994 H 370.206 6.29473 1.53842 0
M  V30 3995 N 363.613 -0.582584 1.46437 0
M  V30 3996 C 364.853 -1.35184 1.53312 0
M  V30 3997 C 365.217 -1.9115 0.180508 0
M  V30 3998 O 366.418 -2.68514 0.124017 0
M  V30 3999 C 364.689 -2.45089 2.60127 0
M  V30 4000 S 366.248 -3.32439 2.86408 0
M  V30 4001 H 363.066 -0.460559 0.54167 0
M  V30 4002 H 365.668 -0.669709 1.83671 0
M  V30 4003 H 364.372 -2.02366 3.57038 0
M  V30 4004 H 363.903 -3.18074 2.315 0
M  V30 4005 H 365.918 -4.43924 2.21688 0
M  V30 4006 N 365.091 -1.34144 -0.827227 0
M  V30 4007 C 366.021 -1.28005 -1.95287 0
M  V30 4008 C 367.002 -0.158321 -1.69362 0
M  V30 4009 O 368.187 -0.349987 -1.9102 0
M  V30 4010 C 365.317 -1.03036 -3.31664 0
M  V30 4011 C 364.271 -2.11628 -3.72019 0
M  V30 4012 C 363.597 -1.71854 -5.0633 0
M  V30 4013 C 364.897 -3.53417 -3.8457 0
M  V30 4014 H 366.591 -2.22187 -2.00682 0
M  V30 4015 H 364.137 -1.0696 -0.964135 0
M  V30 4016 H 366.09 -0.973863 -4.09993 0
M  V30 4017 H 364.814 -0.0529391 -3.26557 0
M  V30 4018 H 363.473 -2.16339 -2.95961 0
M  V30 4019 H 363.121 -0.727841 -4.97706 0
M  V30 4020 H 362.821 -2.44531 -5.34302 0
M  V30 4021 H 364.345 -1.67692 -5.87122 0
M  V30 4022 H 365.759 -3.51142 -4.5318 0
M  V30 4023 H 364.156 -4.24679 -4.2399 0
M  V30 4024 H 365.226 -3.91072 -2.86689 0
M  V30 4025 N 366.569 1.04691 -1.17803 0
M  V30 4026 C 367.519 2.10856 -0.867391 0
M  V30 4027 C 368.503 1.601 0.160206 0
M  V30 4028 O 369.695 1.76948 -0.042947 0
M  V30 4029 C 366.824 3.411 -0.388012 0
M  V30 4030 C 365.91 3.9864 -1.44732 0
M  V30 4031 N 366.301 4.30075 -2.66212 0
M  V30 4032 C 364.599 4.26439 -1.30637 0
M  V30 4033 C 365.3 4.76033 -3.34317 0
M  V30 4034 N 364.276 4.76462 -2.61696 0
M  V30 4035 H 368.078 2.33029 -1.79094 0
M  V30 4036 H 365.592 1.22386 -1.0675 0
M  V30 4037 H 367.589 4.16641 -0.146994 0
M  V30 4038 H 366.249 3.20357 0.529271 0
M  V30 4039 H 367.26 4.19917 -3.03134 0
M  V30 4040 H 363.937 4.15056 -0.451129 0
M  V30 4041 H 365.327 5.09427 -4.38103 0
M  V30 4042 N 368.047 0.979072 1.23499 0
M  V30 4043 C 369.293 0.648178 1.92163 0
M  V30 4044 C 369.626 -0.816049 1.76222 0
M  V30 4045 O 368.901 -1.58849 1.12237 0
M  V30 4046 C 369.184 1.03773 3.44824 0
M  V30 4047 C 369.037 2.55948 3.69879 0
M  V30 4048 C 370.356 0.580653 4.36253 0
M  V30 4049 H 367.475 0.236952 0.69787 0
M  V30 4050 H 370.117 1.22012 1.45647 0
M  V30 4051 H 368.267 0.551058 3.84572 0
M  V30 4052 H 369.939 3.12179 3.3962 0
M  V30 4053 H 368.182 2.98641 3.14636 0
M  V30 4054 H 368.853 2.78255 4.76737 0
M  V30 4055 H 371.329 0.998465 4.03943 0
M  V30 4056 H 370.205 0.881663 5.41773 0
M  V30 4057 H 370.466 -0.519052 4.39042 0
M  V30 4058 N 369.525 -1.3858 0.750561 0
M  V30 4059 C 370.75 -2.04997 0.314812 0
M  V30 4060 C 371.175 -1.56235 -1.04749 0
M  V30 4061 O 370.533 -0.712981 -1.66692 0
M  V30 4062 C 370.581 -3.58961 0.343415 0
M  V30 4063 O 369.685 -4.07025 -0.663628 0
M  V30 4064 H 369.026 -0.649081 0.139962 0
M  V30 4065 H 371.556 -1.77313 1.02084 0
M  V30 4066 H 371.566 -4.07542 0.193233 0
M  V30 4067 H 370.241 -3.93811 1.33738 0
M  V30 4068 H 368.818 -3.6982 -0.478307 0
M  V30 4069 N 371.003 -0.499398 -1.49478 0
M  V30 4070 C 372.419 -0.155261 -1.58843 0
M  V30 4071 C 372.619 1.34008 -1.50479 0
M  V30 4072 O 371.675 2.11589 -1.37791 0
M  V30 4073 C 372.988 -0.730636 -2.91689 0
M  V30 4074 C 374.536 -0.696599 -3.0515 0
M  V30 4075 C 375.011 -1.25001 -4.40612 0
M  V30 4076 N 376.502 -1.21064 -4.47099 0
M  V30 4077 C 377.237 -1.60905 -5.50361 0
M  V30 4078 N 376.733 -2.08331 -6.60735 0
M  V30 4079 N 378.526 -1.52331 -5.41065 0
M  V30 4080 H 370.677 -1.47162 -1.53158 0
M  V30 4081 H 372.94 -0.610309 -0.725415 0
M  V30 4082 H 372.646 -1.77928 -3.03372 0
M  V30 4083 H 372.52 -0.190161 -3.7672 0
M  V30 4084 H 374.907 0.343204 -2.93097 0
M  V30 4085 H 374.988 -1.2742 -2.21806 0
M  V30 4086 H 374.632 -2.28859 -4.53416 0
M  V30 4087 H 374.562 -0.64836 -5.22593 0
M  V30 4088 H 377.053 -0.863128 -3.67911 0
M  V30 4089 H 377.366 -2.36805 -7.35624 0
M  V30 4090 H 375.711 -2.12304 -6.6178 0
M  V30 4091 H 378.902 -1.151 -4.53729 0
M  V30 4092 H 379.075 -1.83704 -6.21415 0
M  V30 4093 N 372.481 1.55866 -0.233164 0
M  V30 4094 C 373.758 1.90471 0.444988 0
M  V30 4095 C 374.138 1.15209 1.7689 0
M  V30 4096 O 373.486 0.265119 2.26957 0
M  V30 4097 C 373.696 3.4333 0.626559 0
M  V30 4098 C 375.044 4.14319 0.92871 0
M  V30 4099 O 376.068 3.48993 0.712926 0
M  V30 4100 O 374.927 5.29846 1.33887 0
M  V30 4101 H 372.021 0.792347 0.236885 0
M  V30 4102 H 374.567 1.67437 -0.276211 0
M  V30 4103 H 373.339 3.90095 -0.306822 0
M  V30 4104 H 372.962 3.72181 1.39881 0
M  V30 4105 N 373.959 -0.0401083 1.57549 0
M  V30 4106 C 374.869 -1.06133 2.0922 0
M  V30 4107 C 375.885 -1.40356 1.0284 0
M  V30 4108 O 377.061 -1.49897 1.34509 0
M  V30 4109 C 374.126 -2.34658 2.55218 0
M  V30 4110 C 373.187 -2.07117 3.76033 0
M  V30 4111 C 372.42 -3.29514 4.19829 0
M  V30 4112 O 372.643 -4.39794 3.63232 0
M  V30 4113 O 371.577 -3.15863 5.12362 0
M  V30 4114 H 375.403 -0.652244 2.96613 0
M  V30 4115 H 372.988 -0.256368 1.47184 0
M  V30 4116 H 374.87 -3.10239 2.85184 0
M  V30 4117 H 373.545 -2.74883 1.70941 0
M  V30 4118 H 372.452 -1.29139 3.51104 0
M  V30 4119 H 373.785 -1.71754 4.61261 0
M  V30 4120 N 375.437 -1.54477 -0.31217 0
M  V30 4121 C 376.4 -1.83923 -1.36766 0
M  V30 4122 C 377.4 -0.711563 -1.44199 0
M  V30 4123 O 378.59 -0.979866 -1.44029 0
M  V30 4124 C 375.722 -2.0095 -2.75376 0
M  V30 4125 H 376.915 -2.78239 -1.11906 0
M  V30 4126 H 374.468 -1.46369 -0.548257 0
M  V30 4127 H 375.203 -1.08883 -3.05475 0
M  V30 4128 H 374.988 -2.83018 -2.71373 0
M  V30 4129 H 376.478 -2.2514 -3.51713 0
M  V30 4130 N 376.915 0.57481 -1.46744 0
M  V30 4131 C 378.155 1.34369 -1.54027 0
M  V30 4132 C 378.519 1.91051 -0.190642 0
M  V30 4133 O 379.72 2.68444 -0.138255 0
M  V30 4134 C 377.991 2.43706 -2.61423 0
M  V30 4135 S 379.55 3.30915 -2.88167 0
M  V30 4136 H 376.368 0.45768 -0.544105 0
M  V30 4137 H 378.97 0.659959 -1.84024 0
M  V30 4138 H 377.674 2.0047 -3.58106 0
M  V30 4139 H 377.205 3.16842 -2.33184 0
M  V30 4140 H 379.22 4.42742 -2.24039 0
M  V30 4141 N 378.394 1.34581 0.820102 0
M  V30 4142 C 379.324 1.29038 1.94606 0
M  V30 4143 C 380.305 0.1673 1.69275 0
M  V30 4144 O 381.49 0.360112 1.90832 0
M  V30 4145 C 378.62 1.04793 3.31113 0
M  V30 4146 C 377.574 2.13597 3.70891 0
M  V30 4147 C 376.9 1.74537 5.05412 0
M  V30 4148 C 378.2 3.55451 3.8269 0
M  V30 4149 H 379.894 2.23248 1.99501 0
M  V30 4150 H 377.44 1.0747 0.958449 0
M  V30 4151 H 379.393 0.995592 4.0947 0
M  V30 4152 H 378.117 0.0702565 3.26524 0
M  V30 4153 H 376.776 2.17905 2.9481 0
M  V30 4154 H 376.424 0.754226 4.97313 0
M  V30 4155 H 376.124 2.47361 5.32997 0
M  V30 4156 H 377.648 1.70803 5.86224 0
M  V30 4157 H 379.062 3.5354 4.51312 0
M  V30 4158 H 377.459 4.26922 4.21732 0
M  V30 4159 H 378.529 3.92587 2.84611 0
M  V30 4160 N 379.872 -1.04064 1.18357 0
M  V30 4161 C 381.1 -1.80916 1.00384 0
M  V30 4162 C 381.515 -1.83414 -0.447738 0
M  V30 4163 O 380.872 -1.26962 -1.31099 0
M  V30 4164 C 380.923 -3.26516 1.55144 0
M  V30 4165 O 380.644 -3.2424 2.94618 0
M  V30 4166 C 382.145 -4.20013 1.41789 0
M  V30 4167 H 379.365 -0.569728 0.354474 0
M  V30 4168 H 381.909 -1.31151 1.56906 0
M  V30 4169 H 380.064 -3.73512 1.02798 0
M  V30 4170 H 380.478 -4.15452 3.20156 0
M  V30 4171 H 381.952 -5.20111 1.84901 0
M  V30 4172 H 382.429 -4.37667 0.36661 0
M  V30 4173 H 383.035 -3.78881 1.93207 0
M  V30 4174 N 381.35 -0.985608 -1.22978 0
M  V30 4175 C 382.596 -0.65836 -1.91816 0
M  V30 4176 C 382.929 0.806692 -1.76653 0
M  V30 4177 O 382.204 1.58252 -1.13078 0
M  V30 4178 C 382.487 -1.056 -3.44268 0
M  V30 4179 C 382.34 -2.57906 -3.68516 0
M  V30 4180 C 383.659 -0.603781 -4.35939 0
M  V30 4181 H 380.778 -0.24065 -0.696604 0
M  V30 4182 H 383.42 -1.22783 -1.44998 0
M  V30 4183 H 381.57 -0.571445 -3.84274 0
M  V30 4184 H 383.242 -3.13976 -3.3796 0
M  V30 4185 H 381.485 -3.00305 -3.13048 0
M  V30 4186 H 382.156 -2.80779 -4.75255 0
M  V30 4187 H 384.632 -1.01987 -4.03408 0
M  V30 4188 H 383.508 -0.910383 -5.41298 0
M  V30 4189 H 383.769 0.495761 -4.39312 0
M  V30 4190 N 382.828 1.3818 -0.7579 0
M  V30 4191 C 384.053 2.04827 -0.325679 0
M  V30 4192 C 384.478 1.56788 1.03919 0
M  V30 4193 O 383.836 0.721811 1.66312 0
M  V30 4194 C 383.884 3.58774 -0.362447 0
M  V30 4195 O 382.988 4.07372 0.642033 0
M  V30 4196 H 382.329 0.64833 -0.143402 0
M  V30 4197 H 384.859 1.7677 -1.03023 0
M  V30 4198 H 384.869 4.07434 -0.214844 0
M  V30 4199 H 383.544 3.93096 -1.35824 0
M  V30 4200 H 382.121 3.70068 0.458688 0
M  V30 4201 N 384.306 0.507319 1.49211 0
M  V30 4202 C 385.553 -0.0349529 2.0247 0
M  V30 4203 C 385.881 -1.36409 1.38647 0
M  V30 4204 O 385.136 -1.88841 0.513566 0
M  V30 4205 C 385.435 -0.229513 3.56662 0
M  V30 4206 C 385.101 1.02241 4.39156 0
M  V30 4207 C 383.763 1.36557 4.61417 0
M  V30 4208 C 386.115 1.85428 4.871 0
M  V30 4209 C 383.443 2.53999 5.28868 0
M  V30 4210 C 385.795 3.02028 5.55843 0
M  V30 4211 C 384.459 3.36717 5.76349 0
M  V30 4212 H 383.729 -0.0127902 0.74089 0
M  V30 4213 H 386.376 0.668756 1.79443 0
M  V30 4214 H 384.681 -1.0158 3.78403 0
M  V30 4215 H 386.378 -0.663641 3.9547 0
M  V30 4216 H 382.968 0.745124 4.22073 0
M  V30 4217 H 387.152 1.6023 4.69723 0
M  V30 4218 H 382.408 2.81105 5.42946 0
M  V30 4219 H 386.582 3.66808 5.91967 0
M  V30 4220 H 384.209 4.27821 6.28389 0
M  V30 4221 N 385.784 -1.5574 0.241426 0
M  V30 4222 C 387.009 -2.0366 -0.392111 0
M  V30 4223 C 387.434 -1.11969 -1.51144 0
M  V30 4224 O 386.792 -0.111594 -1.80956 0
M  V30 4225 C 386.84 -3.49638 -0.882371 0
M  V30 4226 O 385.944 -3.6108 -1.99235 0
M  V30 4227 H 385.285 -0.658379 -0.0862122 0
M  V30 4228 H 387.815 -2.01302 0.365881 0
M  V30 4229 H 387.825 -3.90351 -1.18702 0
M  V30 4230 H 386.5 -4.15852 -0.0632361 0
M  V30 4231 H 385.077 -3.32262 -1.69282 0
M  V30 4232 N 387.262 0.0317525 -1.57568 0
M  V30 4233 C 388.678 0.38735 -1.54828 0
M  V30 4234 C 388.878 1.7677 -0.967187 0
M  V30 4235 O 387.934 2.45581 -0.587063 0
M  V30 4236 C 389.247 0.291667 -2.99282 0
M  V30 4237 C 390.795 0.368946 -3.10818 0
M  V30 4238 C 391.27 0.302741 -4.56998 0
M  V30 4239 N 392.761 0.361617 -4.61786 0
M  V30 4240 C 393.496 0.333238 -5.72431 0
M  V30 4241 N 392.992 0.257308 -6.92322 0
M  V30 4242 N 394.785 0.382769 -5.60795 0
M  V30 4243 H 386.936 -0.871609 -1.93692 0
M  V30 4244 H 389.199 -0.331161 -0.888277 0
M  V30 4245 H 388.905 -0.656794 -3.45513 0
M  V30 4246 H 388.779 1.08638 -3.61217 0
M  V30 4247 H 391.166 1.30784 -2.64536 0
M  V30 4248 H 391.247 -0.455066 -2.5172 0
M  V30 4249 H 390.891 -0.632473 -5.03947 0
M  V30 4250 H 390.821 1.14482 -5.14005 0
M  V30 4251 H 393.312 0.422923 -3.75526 0
M  V30 4252 H 393.625 0.24068 -7.72425 0
M  V30 4253 H 391.97 0.223396 -6.94641 0
M  V30 4254 H 395.161 0.44006 -4.66027 0
M  V30 4255 H 395.334 0.357184 -6.47015 0
M  V30 4256 N 388.74 1.54641 0.303973 0
M  V30 4257 C 390.151 1.64811 0.877163 0
M  V30 4258 C 390.502 0.554838 1.88191 0
M  V30 4259 O 389.627 -0.309033 2.14182 0
M  V30 4260 C 390.222 2.9876 1.59775 0
M  V30 4261 C 388.781 3.11061 2.11938 0
M  V30 4262 C 387.928 2.60479 0.951097 0
M  V30 4263 H 390.879 1.58493 0.0810486 0
M  V30 4264 H 390.9 2.90017 2.46314 0
M  V30 4265 H 390.412 3.7831 0.866226 0
M  V30 4266 H 388.513 2.36225 2.88146 0
M  V30 4267 H 388.626 4.17171 2.35595 0
M  V30 4268 H 386.99 2.16859 1.33583 0
M  V30 4269 H 387.773 3.42504 0.233581 0
M  V30 4270 N 390.218 -0.567019 1.47046 0
M  V30 4271 C 391.148 -1.68482 1.61667 0
M  V30 4272 C 392.129 -1.6358 0.466418 0
M  V30 4273 O 393.314 -1.81354 0.694574 0
M  V30 4274 C 390.444 -3.07124 1.62148 0
M  V30 4275 C 389.398 -3.26867 2.76301 0
M  V30 4276 C 388.724 -4.66196 2.61849 0
M  V30 4277 C 390.024 -3.13186 4.17986 0
M  V30 4278 H 391.718 -1.56502 2.5524 0
M  V30 4279 H 389.264 -0.751486 1.22836 0
M  V30 4280 H 391.217 -3.8516 1.70968 0
M  V30 4281 H 389.941 -3.2004 0.651287 0
M  V30 4282 H 388.6 -2.51237 2.66975 0
M  V30 4283 H 388.248 -4.75898 1.62879 0
M  V30 4284 H 387.948 -4.80356 3.38425 0
M  V30 4285 H 389.472 -5.46379 2.72584 0
M  V30 4286 H 390.886 -3.81049 4.2834 0
M  V30 4287 H 389.283 -3.3886 4.95272 0
M  V30 4288 H 390.353 -2.10057 4.3704 0
M  V30 4289 N 391.696 -1.35014 -0.812953 0
M  V30 4290 C 392.626 -1.30069 -1.93919 0
M  V30 4291 C 393.607 -0.176275 -1.69184 0
M  V30 4292 O 394.792 -0.370227 -1.90638 0
M  V30 4293 C 391.922 -1.06547 -3.30552 0
M  V30 4294 C 390.876 -2.15561 -3.69753 0
M  V30 4295 C 390.202 -1.77214 -5.04479 0
M  V30 4296 C 391.502 -3.57476 -3.808 0
M  V30 4297 H 393.196 -2.24303 -1.98314 0
M  V30 4298 H 390.742 -1.07977 -0.952736 0
M  V30 4299 H 392.695 -1.01729 -4.08937 0
M  V30 4300 H 391.419 -0.0875719 -3.26483 0
M  V30 4301 H 390.078 -2.19466 -2.9365 0
M  V30 4302 H 389.726 -0.780589 -4.96906 0
M  V30 4303 H 389.426 -2.50184 -5.31678 0
M  V30 4304 H 390.95 -1.7391 -5.8531 0
M  V30 4305 H 392.364 -3.55929 -4.4943 0
M  V30 4306 H 390.761 -4.29152 -4.19462 0
M  V30 4307 H 391.831 -3.94091 -2.82525 0
M  V30 4308 N 393.175 1.03435 -1.18907 0
M  V30 4309 C 394.421 1.77005 -0.989798 0
M  V30 4310 C 394.754 1.88205 0.478816 0
M  V30 4311 O 394.029 1.39481 1.35556 0
M  V30 4312 C 394.312 3.19925 -1.65287 0
M  V30 4313 C 394.165 3.1663 -3.19477 0
M  V30 4314 C 395.484 4.18189 -1.37134 0
M  V30 4315 H 392.603 0.642538 -0.360991 0
M  V30 4316 H 395.245 1.20784 -1.46667 0
M  V30 4317 H 393.395 3.67929 -1.24741 0
M  V30 4318 H 395.067 2.76567 -3.692 0
M  V30 4319 H 393.31 2.54491 -3.51307 0
M  V30 4320 H 393.981 4.1758 -3.61013 0
M  V30 4321 H 396.457 3.78761 -1.72276 0
M  V30 4322 H 395.333 5.16394 -1.86087 0
M  V30 4323 H 395.594 4.41112 -0.295424 0
M  V30 4324 N 394.653 0.992116 1.22453 0
M  V30 4325 C 395.901 0.666215 1.90804 0
M  V30 4326 C 396.222 -0.804152 1.77647 0
M  V30 4327 O 395.492 -1.57629 1.16318 0
M  V30 4328 H 394.072 0.243423 0.706225 0
M  V30 4329 H 396.734 1.25845 1.48825 0
M  V30 4330 H 395.83 0.928069 2.97982 0
M  V30 4331 N 396.131 -1.37776 0.765217 0
M  V30 4332 C 397.356 -2.04651 0.336537 0
M  V30 4333 C 397.781 -1.57337 -1.03086 0
M  V30 4334 O 397.139 -0.730621 -1.65927 0
M  V30 4335 C 397.187 -3.58577 0.381468 0
M  V30 4336 O 396.291 -4.07706 -0.62042 0
M  V30 4337 H 395.632 -0.64756 0.146838 0
M  V30 4338 H 398.162 -1.76221 1.03959 0
M  V30 4339 H 398.172 -4.07314 0.236448 0
M  V30 4340 H 396.847 -3.9237 1.37907 0
M  V30 4341 H 395.424 -3.70306 -0.439056 0
M  V30 4342 N 397.609 -0.515225 -1.4894 0
M  V30 4343 C 399.025 -0.172099 -1.58669 0
M  V30 4344 C 399.225 1.32405 -1.51892 0
M  V30 4345 O 398.281 2.10116 -1.40027 0
M  V30 4346 C 399.594 -0.761533 -2.90897 0
M  V30 4347 C 401.142 -0.728926 -3.04394 0
M  V30 4348 C 401.617 -1.29667 -4.39261 0
M  V30 4349 N 403.108 -1.25799 -4.4579 0
M  V30 4350 C 403.843 -1.66733 -5.48623 0
M  V30 4351 N 403.339 -2.15327 -6.58488 0
M  V30 4352 N 405.132 -1.58061 -5.39419 0
M  V30 4353 H 397.283 -1.48778 -1.51588 0
M  V30 4354 H 399.546 -0.617968 -0.718901 0
M  V30 4355 H 399.252 -1.81136 -3.01468 0
M  V30 4356 H 399.126 -0.230106 -3.76497 0
M  V30 4357 H 401.513 0.312098 -2.93445 0
M  V30 4358 H 401.594 -1.29766 -2.20442 0
M  V30 4359 H 401.238 -2.33655 -4.50963 0
M  V30 4360 H 401.168 -0.703752 -5.21876 0
M  V30 4361 H 403.659 -0.902102 -3.66975 0
M  V30 4362 H 403.972 -2.44594 -7.33071 0
M  V30 4363 H 402.317 -2.19311 -6.59491 0
M  V30 4364 H 405.508 -1.19906 -4.52482 0
M  V30 4365 H 405.681 -1.90284 -6.19432 0
M  V30 4366 N 399.087 1.5561 -0.249682 0
M  V30 4367 C 400.02 2.17537 0.689408 0
M  V30 4368 C 400.998 1.12829 1.17083 0
M  V30 4369 O 402.182 1.41229 1.24846 0
M  V30 4370 C 399.309 2.77828 1.93725 0
M  V30 4371 C 398.355 3.95615 1.59346 0
M  V30 4372 S 399.188 5.30988 0.69367 0
M  V30 4373 C 400.344 5.94734 1.95046 0
M  V30 4374 H 400.577 2.96852 0.163142 0
M  V30 4375 H 398.11 1.54362 -0.0341166 0
M  V30 4376 H 400.068 3.13199 2.65361 0
M  V30 4377 H 398.729 1.98454 2.43465 0
M  V30 4378 H 397.922 4.364 2.52132 0
M  V30 4379 H 397.524 3.61535 0.957512 0
M  V30 4380 H 399.816 6.12419 2.89739 0
M  V30 4381 H 400.759 6.90109 1.58604 0
M  V30 4382 H 401.167 5.23832 2.10381 0
M  V30 4383 N 400.565 -0.0233959 1.57583 0
M  V30 4384 C 401.475 -1.03907 2.10334 0
M  V30 4385 C 402.491 -1.39257 1.04323 0
M  V30 4386 O 403.667 -1.48462 1.36091 0
M  V30 4387 C 400.732 -2.31938 2.57693 0
M  V30 4388 C 399.793 -2.03117 3.78209 0
M  V30 4389 C 399.026 -3.25043 4.233 0
M  V30 4390 O 399.249 -4.35916 3.67876 0
M  V30 4391 O 398.183 -3.10411 5.15683 0
M  V30 4392 H 402.009 -0.620748 2.97288 0
M  V30 4393 H 399.594 -0.240743 1.47448 0
M  V30 4394 H 401.476 -3.07196 2.88458 0
M  V30 4395 H 400.151 -2.73055 1.73847 0
M  V30 4396 H 399.058 -1.25408 3.52454 0
M  V30 4397 H 400.391 -1.66852 4.63056 0
M  V30 4398 N 402.043 -1.548 -0.295768 0
M  V30 4399 C 403.292 -1.73538 -1.02798 0
M  V30 4400 C 403.605 -0.531159 -1.8825 0
M  V30 4401 O 404.811 -0.600458 -2.64777 0
M  V30 4402 C 403.267 -3.07051 -1.87744 0
M  V30 4403 C 402.875 -4.34968 -1.07269 0
M  V30 4404 C 404.619 -3.35146 -2.60533 0
M  V30 4405 C 402.526 -5.5953 -1.91521 0
M  V30 4406 H 401.456 -0.646794 -0.387522 0
M  V30 4407 H 404.107 -1.81278 -0.284718 0
M  V30 4408 H 402.489 -2.93289 -2.66078 0
M  V30 4409 H 403.663 -4.5958 -0.335117 0
M  V30 4410 H 401.978 -4.13847 -0.460384 0
M  V30 4411 H 404.575 -4.2541 -3.23929 0
M  V30 4412 H 404.918 -2.54255 -3.29636 0
M  V30 4413 H 405.451 -3.49902 -1.89244 0
M  V30 4414 H 402.19 -6.43103 -1.26878 0
M  V30 4415 H 401.71 -5.39096 -2.62937 0
M  V30 4416 H 403.389 -5.96982 -2.49442 0
M  V30 4417 N 403.521 0.559213 -1.47345 0
M  V30 4418 C 404.451 1.67622 -1.62558 0
M  V30 4419 C 405.432 1.63331 -0.475087 0
M  V30 4420 O 406.617 1.80983 -0.704182 0
M  V30 4421 C 403.747 3.0626 -1.63774 0
M  V30 4422 C 402.701 3.25397 -2.7803 0
M  V30 4423 C 402.027 4.64801 -2.64318 0
M  V30 4424 C 403.327 3.10965 -4.19641 0
M  V30 4425 H 405.021 1.55146 -2.56067 0
M  V30 4426 H 402.567 0.744961 -1.23233 0
M  V30 4427 H 404.52 3.84247 -1.73008 0
M  V30 4428 H 403.244 3.1969 -0.66825 0
M  V30 4429 H 401.903 2.49817 -2.68304 0
M  V30 4430 H 401.551 4.75028 -1.65401 0
M  V30 4431 H 401.251 4.78555 -3.40968 0
M  V30 4432 H 402.775 5.44926 -2.75478 0
M  V30 4433 H 404.189 3.78772 -4.30354 0
M  V30 4434 H 402.586 3.36229 -4.97062 0
M  V30 4435 H 403.656 2.07736 -4.38148 0
M  V30 4436 N 404.999 1.35443 0.805782 0
M  V30 4437 C 405.929 1.31095 1.93226 0
M  V30 4438 C 406.91 0.185244 1.69088 0
M  V30 4439 O 408.095 0.380332 1.90439 0
M  V30 4440 C 405.225 1.08299 3.29983 0
M  V30 4441 C 404.179 2.17519 3.68605 0
M  V30 4442 C 403.505 1.79887 5.03532 0
M  V30 4443 C 404.805 3.5949 3.78898 0
M  V30 4444 H 406.499 2.25352 1.97122 0
M  V30 4445 H 404.045 1.0848 0.946996 0
M  V30 4446 H 405.998 1.03897 4.08391 0
M  V30 4447 H 404.722 0.104885 3.26432 0
M  V30 4448 H 403.381 2.2102 2.92482 0
M  V30 4449 H 403.029 0.80693 4.96485 0
M  V30 4450 H 402.729 2.53001 5.30344 0
M  V30 4451 H 404.253 1.77011 5.84379 0
M  V30 4452 H 405.667 3.58307 4.47536 0
M  V30 4453 H 404.064 4.31371 4.1718 0
M  V30 4454 H 405.134 3.95584 2.80431 0
M  V30 4455 N 406.477 -1.02803 1.19454 0
M  V30 4456 C 407.407 -2.12999 0.956758 0
M  V30 4457 C 408.388 -1.69743 -0.110188 0
M  V30 4458 O 409.573 -1.94148 0.0450038 0
M  V30 4459 C 406.703 -3.43746 0.495553 0
M  V30 4460 C 405.657 -4.00688 1.50443 0
M  V30 4461 C 404.983 -5.27067 0.900275 0
M  V30 4462 C 406.283 -4.35397 2.8849 0
M  V30 4463 H 407.977 -2.33148 1.87836 0
M  V30 4464 H 405.523 -1.12045 0.904539 0
M  V30 4465 H 407.476 -4.2021 0.316493 0
M  V30 4466 H 406.2 -3.23321 -0.461646 0
M  V30 4467 H 404.859 -3.2632 1.67065 0
M  V30 4468 H 404.507 -5.02959 -0.064503 0
M  V30 4469 H 404.207 -5.66127 1.57397 0
M  V30 4470 H 405.731 -6.06196 0.73203 0
M  V30 4471 H 407.145 -5.02795 2.75446 0
M  V30 4472 H 405.542 -4.85541 3.52661 0
M  V30 4473 H 406.612 -3.44662 3.41081 0
M  V30 4474 N 407.956 -0.998596 -1.21925 0
M  V30 4475 C 408.889 -0.498517 -2.22688 0
M  V30 4476 C 409.867 0.444301 -1.56412 0
M  V30 4477 O 411.051 0.368518 -1.84863 0
M  V30 4478 C 408.178 0.276639 -3.37568 0
M  V30 4479 C 407.224 -0.61302 -4.22071 0
M  V30 4480 S 408.057 -2.07168 -4.93803 0
M  V30 4481 C 409.213 -1.30617 -6.12119 0
M  V30 4482 H 409.446 -1.35234 -2.64762 0
M  V30 4483 H 406.979 -0.806018 -1.31692 0
M  V30 4484 H 408.937 0.717817 -4.04175 0
M  V30 4485 H 407.598 1.10581 -2.93991 0
M  V30 4486 H 406.791 -0.0162909 -5.03997 0
M  V30 4487 H 406.393 -0.991202 -3.60626 0
M  V30 4488 H 408.685 -0.57675 -6.75041 0
M  V30 4489 H 409.628 -2.10091 -6.76215 0
M  V30 4490 H 410.036 -0.816957 -5.58557 0
M  V30 4491 N 409.434 1.37368 -0.772513 0
M  V30 4492 C 410.68 1.99969 -0.337681 0
M  V30 4493 C 411.013 1.61184 1.08321 0
M  V30 4494 O 410.288 0.858395 1.74533 0
M  V30 4495 C 410.571 3.56858 -0.482121 0
M  V30 4496 C 410.424 4.0555 -1.94549 0
M  V30 4497 C 411.743 4.39955 0.113143 0
M  V30 4498 H 408.862 0.726464 -0.124171 0
M  V30 4499 H 411.504 1.63034 -0.975699 0
M  V30 4500 H 409.654 3.88452 0.0610361 0
M  V30 4501 H 411.326 3.84518 -2.54841 0
M  V30 4502 H 409.569 3.57715 -2.45403 0
M  V30 4503 H 410.24 5.14587 -1.9976 0
M  V30 4504 H 412.716 4.14623 -0.35031 0
M  V30 4505 H 411.592 5.48897 -0.0180514 0
M  V30 4506 H 411.853 4.25403 1.20354 0
M  V30 4507 N 410.912 0.523116 1.48665 0
M  V30 4508 C 412.189 -0.0775449 1.95446 0
M  V30 4509 C 412.569 -1.5197 1.4652 0
M  V30 4510 O 411.917 -2.17876 0.688657 0
M  V30 4511 C 412.127 0.0326135 3.48985 0
M  V30 4512 C 413.475 -0.130141 4.24401 0
M  V30 4513 O 414.499 -0.0415142 3.56176 0
M  V30 4514 O 413.358 -0.31491 5.45592 0
M  V30 4515 H 410.452 -0.0831012 0.822814 0
M  V30 4516 H 412.998 0.587227 1.59216 0
M  V30 4517 H 411.77 1.03748 3.77296 0
M  V30 4518 H 411.393 -0.671317 3.91892 0
M  V30 4519 N 412.39 -1.55475 0.257931 0
M  V30 4520 C 413.667 -1.91155 -0.414629 0
M  V30 4521 C 414.047 -1.18008 -1.75035 0
M  V30 4522 O 413.395 -0.301193 -2.26506 0
M  V30 4523 C 413.605 -3.44283 -0.571859 0
M  V30 4524 C 414.953 -4.15744 -0.862678 0
M  V30 4525 O 415.977 -3.50083 -0.657314 0
M  V30 4526 O 414.836 -5.31909 -1.2544 0
M  V30 4527 H 411.93 -0.796016 -0.22425 0
M  V30 4528 H 414.476 -1.66976 0.302814 0
M  V30 4529 H 413.248 -3.89558 0.368844 0
M  V30 4530 H 412.871 -3.7436 -1.33943 0
M  V30 4531 N 413.868 0.0150385 -1.57593 0
M  V30 4532 C 415.093 0.718067 -1.94573 0
M  V30 4533 C 415.518 1.6734 -0.859005 0
M  V30 4534 O 414.876 1.80362 0.184147 0
M  V30 4535 C 414.924 1.43918 -3.30636 0
M  V30 4536 O 414.028 2.55299 -3.23876 0
M  V30 4537 H 413.369 0.192125 -0.635597 0
M  V30 4538 H 415.899 -0.0336708 -2.04572 0
M  V30 4539 H 415.909 1.80598 -3.65853 0
M  V30 4540 H 414.584 0.738619 -4.09289 0
M  V30 4541 H 413.161 2.21058 -3.00312 0
M  V30 4542 N 415.346 1.54954 0.287554 0
M  V30 4543 C 416.757 1.65732 0.859634 0
M  V30 4544 C 417.108 0.574767 1.87592 0
M  V30 4545 O 416.233 -0.286299 2.14498 0
M  V30 4546 C 416.828 3.00438 1.56597 0
M  V30 4547 C 415.387 3.13292 2.08627 0
M  V30 4548 C 414.534 2.61473 0.923416 0
M  V30 4549 H 417.485 1.5857 0.0642338 0
M  V30 4550 H 417.506 2.92613 2.43224 0
M  V30 4551 H 417.018 3.79207 0.826053 0
M  V30 4552 H 415.119 2.39268 2.85625 0
M  V30 4553 H 415.232 4.19647 2.31157 0
M  V30 4554 H 413.596 2.18264 1.31275 0
M  V30 4555 H 414.379 3.42733 0.197241 0
M  V30 4556 N 416.824 -0.551391 1.4764 0
M  V30 4557 C 417.754 -1.66757 1.63445 0
M  V30 4558 C 418.735 -1.63077 0.483742 0
M  V30 4559 O 419.92 -1.80607 0.71377 0
M  V30 4560 C 417.05 -3.05387 1.65396 0
M  V30 4561 C 416.004 -3.23918 2.79752 0
M  V30 4562 C 415.33 -4.63393 2.66779 0
M  V30 4563 C 416.63 -3.08735 4.21284 0
M  V30 4564 H 418.324 -1.53786 2.56886 0
M  V30 4565 H 415.87 -0.738415 1.23626 0
M  V30 4566 H 417.823 -3.83325 1.75043 0
M  V30 4567 H 416.547 -3.19332 0.685195 0
M  V30 4568 H 415.206 -2.48391 2.69625 0
M  V30 4569 H 414.854 -4.74144 1.67918 0
M  V30 4570 H 414.554 -4.7674 3.43501 0
M  V30 4571 H 416.078 -5.43458 2.78364 0
M  V30 4572 H 417.492 -3.76484 4.32357 0
M  V30 4573 H 415.889 -3.33588 4.98838 0
M  V30 4574 H 416.959 -2.0541 4.39243 0
M  V30 4575 N 418.302 -1.35869 -0.798587 0
M  V30 4576 C 419.551 -1.28921 -1.5512 0
M  V30 4577 C 419.864 0.13208 -1.95154 0
M  V30 4578 O 421.07 0.323879 -2.69561 0
M  V30 4579 C 419.526 -2.26141 -2.79979 0
M  V30 4580 C 419.134 -3.73658 -2.47151 0
M  V30 4581 C 420.878 -2.28152 -3.57976 0
M  V30 4582 C 418.785 -4.62679 -3.6835 0
M  V30 4583 H 417.715 -0.479031 -0.582276 0
M  V30 4584 H 420.366 -1.61179 -0.877125 0
M  V30 4585 H 418.748 -1.86865 -3.49138 0
M  V30 4586 H 419.922 -4.21616 -1.85947 0
M  V30 4587 H 418.237 -3.74333 -1.82383 0
M  V30 4588 H 420.834 -2.91875 -4.4801 0
M  V30 4589 H 421.177 -1.28748 -3.95891 0
M  V30 4590 H 421.71 -2.65998 -2.95787 0
M  V30 4591 H 418.449 -5.63111 -3.35538 0
M  V30 4592 H 417.969 -4.19442 -4.28752 0
M  V30 4593 H 419.648 -4.78498 -4.35487 0
M  V30 4594 N 419.78 1.02168 -1.19998 0
M  V30 4595 C 421.026 1.75945 -1.00852 0
M  V30 4596 C 421.359 1.88702 0.458828 0
M  V30 4597 O 420.634 1.40911 1.34069 0
M  V30 4598 C 420.917 3.18154 -1.68671 0
M  V30 4599 C 420.77 3.13224 -3.22817 0
M  V30 4600 C 422.089 4.16711 -1.41561 0
M  V30 4601 H 419.208 0.638673 -0.367785 0
M  V30 4602 H 421.85 1.19222 -1.4794 0
M  V30 4603 H 420 3.66586 -1.28636 0
M  V30 4604 H 421.672 2.72635 -3.72112 0
M  V30 4605 H 419.915 2.50751 -3.53986 0
M  V30 4606 H 420.586 4.13728 -3.65422 0
M  V30 4607 H 423.062 3.76913 -1.76284 0
M  V30 4608 H 421.938 5.14391 -1.91553 0
M  V30 4609 H 422.199 4.40774 -0.342193 0
M  V30 4610 N 421.258 1.00505 1.21394 0
M  V30 4611 C 422.168 0.574806 2.27449 0
M  V30 4612 C 423.184 -0.382206 1.6975 0
M  V30 4613 O 424.36 -0.246027 1.99892 0
M  V30 4614 C 421.425 -0.0917414 3.46579 0
M  V30 4615 C 420.486 0.909758 4.1955 0
M  V30 4616 C 419.719 0.274924 5.32991 0
M  V30 4617 O 419.942 -0.928254 5.62796 0
M  V30 4618 O 418.876 0.985877 5.93771 0
M  V30 4619 H 422.702 1.45744 2.66444 0
M  V30 4620 H 420.287 0.773923 1.27792 0
M  V30 4621 H 422.169 -0.464551 4.18832 0
M  V30 4622 H 420.844 -0.948755 3.09484 0
M  V30 4623 H 419.751 1.33372 3.49518 0
M  V30 4624 H 421.084 1.73636 4.60555 0
M  V30 4625 N 422.737 -1.36956 0.779787 0
M  V30 4626 C 423.983 -2.00237 0.357324 0
M  V30 4627 C 424.338 -1.60787 -1.05666 0
M  V30 4628 O 423.631 -0.847836 -1.71821 0
M  V30 4629 C 423.825 -3.54585 0.447686 0
M  V30 4630 C 423.654 -4.09025 1.86891 0
M  V30 4631 C 422.424 -4.39612 2.49138 0
M  V30 4632 C 424.622 -4.29461 2.82963 0
M  V30 4633 N 422.604 -4.79816 3.82949 0
M  V30 4634 C 423.975 -4.72363 4.01588 0
M  V30 4635 C 426.03 -4.1161 2.80145 0
M  V30 4636 C 424.733 -4.99284 5.17791 0
M  V30 4637 C 426.759 -4.39672 3.95528 0
M  V30 4638 C 426.121 -4.82822 5.12896 0
M  V30 4639 H 422.22 -0.76148 0.177968 0
M  V30 4640 H 424.804 -1.6613 1.01533 0
M  V30 4641 H 422.975 -3.87982 -0.180184 0
M  V30 4642 H 424.707 -4.047 0.0023955 0
M  V30 4643 H 421.462 -4.28975 2.00693 0
M  V30 4644 H 421.886 -5.04216 4.51769 0
M  V30 4645 H 426.528 -3.77415 1.90572 0
M  V30 4646 H 424.246 -5.32365 6.07958 0
M  V30 4647 H 427.832 -4.27441 3.94697 0
M  V30 4648 H 426.712 -5.04118 6.00695 0
M  V30 4649 N 424.215 -0.530993 -1.48385 0
M  V30 4650 C 425.631 -0.188919 -1.58478 0
M  V30 4651 C 425.831 1.30786 -1.53288 0
M  V30 4652 O 424.887 2.08619 -1.42248 0
M  V30 4653 C 426.2 -0.792343 -2.90073 0
M  V30 4654 C 427.748 -0.76117 -3.03604 0
M  V30 4655 C 428.223 -1.34319 -4.37861 0
M  V30 4656 N 429.714 -1.3052 -4.44431 0
M  V30 4657 C 430.449 -1.72543 -5.46824 0
M  V30 4658 N 429.945 -2.22299 -6.56167 0
M  V30 4659 N 431.738 -1.63773 -5.37712 0
M  V30 4660 H 423.889 -1.50377 -1.50002 0
M  V30 4661 H 426.152 -0.625559 -0.712306 0
M  V30 4662 H 425.858 -1.84323 -2.99529 0
M  V30 4663 H 425.732 -0.270026 -3.76232 0
M  V30 4664 H 428.119 0.280957 -2.93759 0
M  V30 4665 H 428.2 -1.32097 -2.19053 0
M  V30 4666 H 427.844 -2.38425 -4.4846 0
M  V30 4667 H 427.774 -0.759064 -5.21101 0
M  V30 4668 H 430.265 -0.940973 -3.65997 0
M  V30 4669 H 430.578 -2.52356 -7.30436 0
M  V30 4670 H 428.923 -2.26293 -6.57127 0
M  V30 4671 H 432.114 -1.24698 -4.51185 0
M  V30 4672 H 432.287 -1.96844 -6.17379 0
M  V30 4673 N 425.693 1.55336 -0.266172 0
M  V30 4674 C 426.921 2.03801 0.356756 0
M  V30 4675 C 427.336 1.14485 1.50129 0
M  V30 4676 O 426.693 0.163121 1.8177 0
M  V30 4677 C 426.744 3.51455 0.846281 0
M  V30 4678 O 426.465 4.37371 -0.252663 0
M  V30 4679 C 427.966 4.15767 1.53794 0
M  V30 4680 H 425.186 0.665906 0.0825218 0
M  V30 4681 H 427.73 2.00636 -0.39566 0
M  V30 4682 H 425.885 3.55092 1.54881 0
M  V30 4683 H 426.299 5.24358 0.122173 0
M  V30 4684 H 427.773 5.20714 1.83198 0
M  V30 4685 H 428.25 3.63404 2.46646 0
M  V30 4686 H 428.856 4.16107 0.879488 0
M  V30 4687 N 427.171 -0.0066808 1.57599 0
M  V30 4688 C 428.582 -0.550379 1.78403 0
M  V30 4689 C 428.933 -1.74339 0.900014 0
M  V30 4690 O 428.058 -2.16166 0.100713 0
M  V30 4691 C 428.653 -1.00523 3.23544 0
M  V30 4692 C 427.212 -1.49428 3.45468 0
M  V30 4693 C 426.359 -0.442444 2.73748 0
M  V30 4694 H 429.31 0.219508 1.57175 0
M  V30 4695 H 429.331 -1.87157 3.31289 0
M  V30 4696 H 428.843 -0.136735 3.87859 0
M  V30 4697 H 426.944 -2.3839 2.86358 0
M  V30 4698 H 427.057 -1.52635 4.54136 0
M  V30 4699 H 425.421 -0.902578 2.38171 0
M  V30 4700 H 426.204 0.416973 3.40758 0
M  V30 4701 N 428.649 -1.55105 -0.279332 0
M  V30 4702 C 429.926 -1.66119 -1.03267 0
M  V30 4703 C 430.306 -0.523525 -2.04505 0
M  V30 4704 O 429.654 0.477194 -2.23462 0
M  V30 4705 C 429.864 -3.05067 -1.69515 0
M  V30 4706 C 431.212 -3.62606 -2.20912 0
M  V30 4707 O 432.236 -3.07659 -1.79512 0
M  V30 4708 O 431.095 -4.58861 -2.96831 0
M  V30 4709 H 428.189 -0.674429 -0.478618 0
M  V30 4710 H 430.735 -1.67446 -0.275694 0
M  V30 4711 H 429.507 -3.79311 -0.9612 0
M  V30 4712 H 429.13 -3.07611 -2.51915 0
M  V30 4713 N 430.127 0.543554 -1.4793 0
M  V30 4714 C 431.375 1.29752 -1.54948 0
M  V30 4715 C 431.696 1.93764 -0.219242 0
M  V30 4716 O 430.966 1.80639 0.75805 0
M  V30 4717 H 429.546 0.481874 -0.570795 0
M  V30 4718 H 432.208 0.633636 -1.84312 0
M  V30 4719 H 431.304 2.08392 -2.32334 0
M  V30 4720 N 431.605 1.3629 0.791371 0
M  V30 4721 C 433.021 1.16661 1.08914 0
M  V30 4722 C 433.221 -0.0106266 2.01497 0
M  V30 4723 O 432.277 -0.676596 2.43266 0
M  V30 4724 C 433.59 2.47656 1.70549 0
M  V30 4725 C 435.138 2.54002 1.82899 0
M  V30 4726 C 435.613 3.85078 2.47949 0
M  V30 4727 N 437.104 3.86413 2.5542 0
M  V30 4728 C 437.839 4.84572 3.06557 0
M  V30 4729 N 437.335 5.93124 3.58016 0
M  V30 4730 N 439.128 4.71994 3.05251 0
M  V30 4731 H 431.279 2.11668 0.176238 0
M  V30 4732 H 433.542 0.937486 0.140796 0
M  V30 4733 H 433.248 3.34059 1.09989 0
M  V30 4734 H 433.122 2.63319 2.70079 0
M  V30 4735 H 435.509 1.68018 2.42598 0
M  V30 4736 H 435.59 2.42239 0.821808 0
M  V30 4737 H 435.234 4.71467 1.88895 0
M  V30 4738 H 435.164 3.94135 3.49235 0
M  V30 4739 H 437.655 3.07988 2.18979 0
M  V30 4740 H 437.968 6.63999 3.95381 0
M  V30 4741 H 436.313 5.96796 3.56173 0
M  V30 4742 H 439.504 3.86321 2.64336 0
M  V30 4743 H 439.677 5.48653 3.44796 0
M  V30 4744 N 433.083 -1.0153 1.20538 0
M  V30 4745 C 434.031 -2.12215 0.952235 0
M  V30 4746 C 435.025 -1.69123 -0.0968735 0
M  V30 4747 O 436.231 -1.7992 0.0536006 0
M  V30 4748 H 432.606 -0.693576 0.290613 0
M  V30 4749 H 434.577 -2.3075 1.89201 0
M  V30 4750 C 433.326 -3.43755 0.522287 0
M  V30 4751 H 432.649 -3.7734 1.32115 0
M  V30 4752 H 434.089 -4.22254 0.384389 0
M  V30 4753 C 432.548 -3.28088 -0.765489 0
M  V30 4754 O 433.078 -3.57921 -1.8236 0
M  V30 4755 N 431.284 -2.81333 -0.728011 0
M  V30 4756 H 430.831 -2.57255 0.133332 0
M  V30 4757 H 430.789 -2.71232 -1.58999 0
M  V30 4758 N 434.561 -1.01147 -1.20859 0
M  V30 4759 C 435.977 -0.725422 -1.42161 0
M  V30 4760 C 436.177 0.696919 -1.89064 0
M  V30 4761 O 435.233 1.46539 -2.05627 0
M  V30 4762 C 436.546 -1.74678 -2.44761 0
M  V30 4763 C 438.094 -1.76433 -2.58535 0
M  V30 4764 C 438.569 -2.77481 -3.64374 0
M  V30 4765 N 440.06 -2.76189 -3.71852 0
M  V30 4766 C 440.795 -3.51035 -4.53389 0
M  V30 4767 N 440.291 -4.35541 -5.38773 0
M  V30 4768 N 442.084 -3.39655 -4.47873 0
M  V30 4769 H 434.235 -1.92979 -0.887282 0
M  V30 4770 H 436.498 -0.833327 -0.451962 0
M  V30 4771 H 436.204 -2.76551 -2.17285 0
M  V30 4772 H 436.078 -1.55472 -3.43669 0
M  V30 4773 H 438.465 -0.75248 -2.85345 0
M  V30 4774 H 438.546 -1.99712 -1.5984 0
M  V30 4775 H 438.19 -3.78827 -3.38308 0
M  V30 4776 H 438.12 -2.51466 -4.6268 0
M  V30 4777 H 440.611 -2.14885 -3.10858 0
M  V30 4778 H 440.924 -4.89432 -5.98061 0
M  V30 4779 H 439.269 -4.39621 -5.38292 0
M  V30 4780 H 442.46 -2.73063 -3.80203 0
M  V30 4781 H 442.633 -3.9824 -5.11184 0
M  V30 4782 N 436.039 1.36541 -0.78704 0
M  V30 4783 C 437.45 1.81873 -0.421807 0
M  V30 4784 C 437.801 1.65487 1.05397 0
M  V30 4785 O 436.926 1.17448 1.81755 0
M  V30 4786 C 437.521 3.30192 -0.758841 0
M  V30 4787 C 436.08 3.73743 -0.446468 0
M  V30 4788 C 435.227 2.58844 -0.994728 0
M  V30 4789 H 438.178 1.24796 -0.98039 0
M  V30 4790 H 438.199 3.80468 -0.0490648 0
M  V30 4791 H 437.711 3.42087 -1.83299 0
M  V30 4792 H 435.812 3.6741 0.619739 0
M  V30 4793 H 435.925 4.69272 -0.965415 0
M  V30 4794 H 434.289 2.51245 -0.418087 0
M  V30 4795 H 435.072 2.73525 -2.07458 0
M  V30 4796 N 437.518 0.538854 1.48102 0
M  V30 4797 C 438.743 0.0102694 2.07397 0
M  V30 4798 C 439.168 -1.26562 1.39153 0
M  V30 4799 O 438.526 -1.75357 0.460387 0
M  V30 4800 C 438.574 -0.187602 3.60112 0
M  V30 4801 O 437.678 -1.25432 3.92862 0
M  V30 4802 H 437.019 0.0430975 0.6626 0
M  V30 4803 H 439.549 0.749301 1.90385 0
M  V30 4804 H 439.559 -0.407517 4.0596 0
M  V30 4805 H 438.234 0.744386 4.09184 0
M  V30 4806 H 436.811 -1.01636 3.58782 0
M  V30 4807 N 438.996 -1.55193 0.274407 0
M  V30 4808 C 439.946 -2.19184 -0.627882 0
M  V30 4809 C 440.93 -1.15625 -1.11892 0
M  V30 4810 O 442.122 -1.41441 -1.06411 0
M  V30 4811 C 439.251 -2.91591 -1.81189 0
M  V30 4812 C 438.337 -4.02438 -1.33807 0
M  V30 4813 N 438.728 -5.0246 -0.580349 0
M  V30 4814 C 437.026 -4.15496 -1.62109 0
M  V30 4815 C 437.727 -5.80756 -0.331344 0
M  V30 4816 N 436.703 -5.36038 -0.903556 0
M  V30 4817 H 440.505 -2.93871 -0.0411216 0
M  V30 4818 H 438.019 -1.62213 0.0779348 0
M  V30 4819 H 440.016 -3.35883 -2.46957 0
M  V30 4820 H 438.676 -2.18414 -2.40261 0
M  V30 4821 H 439.687 -5.17399 -0.227762 0
M  V30 4822 H 436.364 -3.53509 -2.22121 0
M  V30 4823 H 437.754 -6.71335 0.275454 0
M  V30 4824 N 440.474 -0.00167713 -1.576 0
M  V30 4825 C 441.72 0.683832 -1.90923 0
M  V30 4826 C 442.053 1.7333 -0.875799 0
M  V30 4827 O 441.328 1.94215 0.10525 0
M  V30 4828 C 441.611 1.32543 -3.3482 0
M  V30 4829 C 441.464 0.287387 -4.48881 0
M  V30 4830 C 442.783 2.25114 -3.78169 0
M  V30 4831 H 439.902 0.247125 -0.694333 0
M  V30 4832 H 442.544 -0.0533149 -1.89925 0
M  V30 4833 H 440.694 1.95372 -3.35801 0
M  V30 4834 H 442.366 -0.341346 -4.60035 0
M  V30 4835 H 440.609 -0.39017 -4.32042 0
M  V30 4836 H 441.28 0.775393 -5.46527 0
M  V30 4837 H 443.756 1.723 -3.7875 0
M  V30 4838 H 442.632 2.66971 -4.79602 0
M  V30 4839 H 442.893 3.13092 -3.12131 0
M  V30 4840 N 441.952 1.55251 0.271103 0
M  V30 4841 C 443.198 1.7713 0.999832 0
M  V30 4842 C 443.553 0.56659 1.83868 0
M  V30 4843 O 442.846 -0.44069 1.86463 0
M  V30 4844 C 443.04 3.01879 1.91321 0
M  V30 4845 C 442.869 4.34368 1.16426 0
M  V30 4846 C 441.639 4.97593 0.879169 0
M  V30 4847 C 443.837 5.1131 0.553749 0
M  V30 4848 N 441.819 6.13813 0.103618 0
M  V30 4849 C 443.19 6.19938 -0.0875442 0
M  V30 4850 C 445.245 4.95754 0.461782 0
M  V30 4851 C 443.948 7.14703 -0.811942 0
M  V30 4852 C 445.974 5.90875 -0.249027 0
M  V30 4853 C 445.336 6.98893 -0.879051 0
M  V30 4854 H 441.435 0.700407 0.347784 0
M  V30 4855 H 444.019 1.92744 0.275314 0
M  V30 4856 H 442.19 2.87637 2.60997 0
M  V30 4857 H 443.922 3.12154 2.57569 0
M  V30 4858 H 440.677 4.58538 1.18491 0
M  V30 4859 H 441.101 6.76455 -0.271543 0
M  V30 4860 H 445.743 4.12342 0.934552 0
M  V30 4861 H 443.461 7.97634 -1.29639 0
M  V30 4862 H 447.047 5.80916 -0.320529 0
M  V30 4863 H 445.927 7.71231 -1.42031 0
M  V30 4864 N 443.43 -0.535701 1.48216 0
M  V30 4865 C 444.36 -1.65014 1.65204 0
M  V30 4866 C 445.341 -1.62554 0.501011 0
M  V30 4867 O 446.526 -1.7984 0.732886 0
M  V30 4868 C 443.656 -3.03616 1.68626 0
M  V30 4869 C 442.61 -3.20932 2.83172 0
M  V30 4870 C 441.936 -4.60537 2.71679 0
M  V30 4871 C 443.236 -3.04249 4.24535 0
M  V30 4872 H 444.93 -1.51053 2.58502 0
M  V30 4873 H 442.476 -0.725262 1.24402 0
M  V30 4874 H 444.429 -3.81446 1.79099 0
M  V30 4875 H 443.153 -3.18587 0.719026 0
M  V30 4876 H 441.812 -2.45517 2.72244 0
M  V30 4877 H 441.46 -4.72336 1.72937 0
M  V30 4878 H 441.16 -4.73069 3.48538 0
M  V30 4879 H 442.684 -5.40475 2.84112 0
M  V30 4880 H 444.098 -3.71877 4.36326 0
M  V30 4881 H 442.495 -3.28278 5.02348 0
M  V30 4882 H 443.565 -2.00739 4.41397 0
M  V30 4883 N 444.908 -1.36708 -0.784132 0
M  V30 4884 C 446.148 -1.32618 -1.55537 0
M  V30 4885 C 446.512 0.0920681 -1.91779 0
M  V30 4886 O 447.713 0.257573 -2.67563 0
M  V30 4887 C 445.984 -2.22788 -2.79464 0
M  V30 4888 S 447.543 -2.36432 -3.69656 0
M  V30 4889 H 444.361 -0.470973 -0.53264 0
M  V30 4890 H 446.963 -1.72333 -0.92312 0
M  V30 4891 H 445.667 -3.24774 -2.50899 0
M  V30 4892 H 445.198 -1.84112 -3.47658 0
M  V30 4893 H 447.213 -1.56573 -4.7085 0
M  V30 4894 N 446.386 1.0089 -1.21074 0
M  V30 4895 C 447.663 1.71834 -0.934469 0
M  V30 4896 C 448.043 2.0368 0.554753 0
M  V30 4897 O 447.391 1.70742 1.51854 0
M  V30 4898 C 447.601 2.98061 -1.8155 0
M  V30 4899 C 448.949 3.7117 -2.06199 0
M  V30 4900 O 449.973 3.08034 -1.78867 0
M  V30 4901 O 448.832 4.84721 -2.52404 0
M  V30 4902 H 445.926 0.749253 -0.35007 0
M  V30 4903 H 448.472 1.06668 -1.31985 0
M  V30 4904 H 447.244 2.70908 -2.82355 0
M  V30 4905 H 446.867 3.70968 -1.43068 0
M  V30 4906 N 447.864 1.01787 1.20321 0
M  V30 4907 C 448.794 0.609625 2.25401 0
M  V30 4908 C 449.775 -0.375951 1.65893 0
M  V30 4909 O 450.96 -0.261101 1.92437 0
M  V30 4910 C 448.09 -0.0515995 3.47262 0
M  V30 4911 C 447.044 0.855095 4.19371 0
M  V30 4912 C 446.37 0.0595757 5.34667 0
M  V30 4913 C 447.67 2.16374 4.75373 0
M  V30 4914 H 449.364 1.48803 2.59804 0
M  V30 4915 H 446.91 0.716934 1.24884 0
M  V30 4916 H 448.863 -0.348764 4.19954 0
M  V30 4917 H 447.587 -0.964726 3.12027 0
M  V30 4918 H 446.246 1.13628 3.48546 0
M  V30 4919 H 445.894 -0.85524 4.95676 0
M  V30 4920 H 445.594 0.663406 5.83843 0
M  V30 4921 H 447.118 -0.231105 6.10162 0
M  V30 4922 H 448.532 1.92885 5.39878 0
M  V30 4923 H 446.929 2.71853 5.34991 0
M  V30 4924 H 447.999 2.82589 3.94045 0
M  V30 4925 N 449.342 -1.36122 0.79427 0
M  V30 4926 C 450.753 -1.81646 0.431446 0
M  V30 4927 C 451.104 -1.66043 -1.04518 0
M  V30 4928 O 450.229 -1.1841 -1.8113 0
M  V30 4929 C 450.824 -3.29785 0.776341 0
M  V30 4930 C 449.383 -3.73501 0.466282 0
M  V30 4931 C 448.53 -2.58313 1.00844 0
M  V30 4932 H 451.481 -1.24274 0.986995 0
M  V30 4933 H 451.502 -3.80437 0.0692413 0
M  V30 4934 H 451.014 -3.4111 1.8511 0
M  V30 4935 H 449.115 -3.67733 -0.600245 0
M  V30 4936 H 449.228 -4.68754 0.990288 0
M  V30 4937 H 447.592 -2.5102 0.431406 0
M  V30 4938 H 448.375 -2.72421 2.08906 0
M  V30 4939 N 450.82 -0.546701 -1.47814 0
M  V30 4940 C 451.783 0.196287 -2.28358 0
M  V30 4941 C 452.783 0.852437 -1.36346 0
M  V30 4942 O 453.973 0.709913 -1.59078 0
M  V30 4943 C 451.105 1.28579 -3.15722 0
M  V30 4944 H 452.298 -0.511086 -2.95513 0
M  V30 4945 H 449.851 -0.303248 -1.5333 0
M  V30 4946 H 450.586 2.0259 -2.53235 0
M  V30 4947 H 450.371 0.820229 -3.83425 0
M  V30 4948 H 451.861 1.80793 -3.76435 0
M  V30 4949 N 452.299 1.55045 -0.282633 0
M  V30 4950 C 453.262 2.21515 0.588539 0
M  V30 4951 C 454.262 1.19535 1.07554 0
M  V30 4952 O 455.452 1.44391 0.974514 0
M  V30 4953 C 452.584 2.88704 1.8128 0
M  V30 4954 H 453.777 2.99899 0.00806397 0
M  V30 4955 H 451.33 1.56265 -0.0333067 0
M  V30 4956 H 452.065 2.14352 2.43359 0
M  V30 4957 H 451.85 3.63443 1.47144 0
M  V30 4958 H 453.34 3.39465 2.43214 0
M  V30 4959 N 453.777 0.010035 1.57597 0
M  V30 4960 C 455.002 -0.687021 1.95691 0
M  V30 4961 C 455.427 -1.65952 0.885519 0
M  V30 4962 O 454.785 -1.80633 -0.15543 0
M  V30 4963 C 454.833 -1.3864 3.32884 0
M  V30 4964 O 453.937 -2.50115 3.27897 0
M  V30 4965 H 453.278 -0.181989 0.638573 0
M  V30 4966 H 455.808 0.0662122 2.04493 0
M  V30 4967 H 455.818 -1.74754 3.6868 0
M  V30 4968 H 454.493 -0.673411 4.10412 0
M  V30 4969 H 453.07 -2.16253 3.03791 0
M  V30 4970 N 455.255 -1.55392 -0.262866 0
M  V30 4971 C 456.185 -1.91978 -1.32917 0
M  V30 4972 C 457.166 -0.7828 -1.51017 0
M  V30 4973 O 458.351 -1.04178 -1.63892 0
M  V30 4974 C 455.481 -2.20055 -2.68687 0
M  V30 4975 C 454.435 -3.35854 -2.65304 0
M  V30 4976 C 453.761 -3.49435 -4.04721 0
M  V30 4977 C 455.061 -4.71977 -2.23685 0
M  V30 4978 H 456.755 -2.81292 -1.02544 0
M  V30 4979 H 454.301 -1.3534 -0.491846 0
M  V30 4980 H 456.254 -2.44237 -3.43404 0
M  V30 4981 H 454.978 -1.27551 -3.00663 0
M  V30 4982 H 453.637 -3.11655 -1.93045 0
M  V30 4983 H 453.285 -2.54379 -4.33936 0
M  V30 4984 H 452.985 -4.27297 -4.0335 0
M  V30 4985 H 454.509 -3.7592 -4.81161 0
M  V30 4986 H 455.923 -4.95637 -2.88127 0
M  V30 4987 H 454.32 -5.52828 -2.33456 0
M  V30 4988 H 455.39 -4.70115 -1.18827 0
M  V30 4989 N 456.733 0.527833 -1.48498 0
M  V30 4990 C 457.681 1.65313 -1.63628 0
M  V30 4991 C 458.675 1.6177 -0.502676 0
M  V30 4992 O 459.881 1.66601 -0.681469 0
M  V30 4993 H 456.256 0.547518 -0.515488 0
M  V30 4994 H 458.227 1.49696 -2.58135 0
M  V30 4995 C 456.976 3.03576 -1.6952 0
M  V30 4996 H 456.299 3.06997 -2.56111 0
M  V30 4997 H 457.739 3.81923 -1.84149 0
M  V30 4998 C 456.198 3.34089 -0.43432 0
M  V30 4999 O 456.728 3.99151 0.451852 0
M  V30 5000 N 454.934 2.88991 -0.305368 0
M  V30 5001 H 454.481 2.36222 -1.02747 0
M  V30 5002 H 454.439 3.09776 0.537249 0
M  V30 5003 N 458.211 1.37122 0.776871 0
M  V30 5004 C 459.488 1.22586 1.52421 0
M  V30 5005 C 459.868 -0.182726 2.10308 0
M  V30 5006 O 459.216 -1.18979 1.9508 0
M  V30 5007 C 459.426 2.31782 2.60918 0
M  V30 5008 C 460.774 2.69071 3.2846 0
M  V30 5009 O 461.798 2.3092 2.71209 0
M  V30 5010 O 460.657 3.3478 4.31954 0
M  V30 5011 H 457.751 0.478045 0.674835 0
M  V30 5012 H 460.297 1.48888 0.814275 0
M  V30 5013 H 459.069 3.26131 2.16227 0
M  V30 5014 H 458.692 2.06916 3.39517 0
M  V30 5015 N 459.689 -1.00246 1.21608 0
M  V30 5016 C 460.621 -2.09244 0.935401 0
M  V30 5017 C 461.634 -1.62592 -0.0823594 0
M  V30 5018 O 462.823 -1.77865 0.150456 0
M  V30 5019 C 459.923 -3.36724 0.383453 0
M  V30 5020 C 459.096 -4.1245 1.45615 0
M  V30 5021 C 458.155 -5.18219 0.912991 0
M  V30 5022 O 457.181 -5.46337 1.59701 0
M  V30 5023 N 458.383 -5.7987 -0.270478 0
M  V30 5024 H 461.148 -2.33905 1.87373 0
M  V30 5025 H 458.709 -1.16748 1.12167 0
M  V30 5026 H 460.701 -4.047 0.00562157 0
M  V30 5027 H 459.271 -3.09201 -0.459758 0
M  V30 5028 H 458.491 -3.39241 2.00772 0
M  V30 5029 H 459.779 -4.59819 2.17817 0
M  V30 5030 H 459.177 -5.59381 -0.843195 0
M  V30 5031 H 457.734 -6.49126 -0.589794 0
M  V30 5032 N 461.167 -1.02423 -1.1978 0
M  V30 5033 C 462.097 -0.62157 -2.25075 0
M  V30 5034 C 463.078 0.367148 -1.6609 0
M  V30 5035 O 464.263 0.250892 -1.92573 0
M  V30 5036 C 461.393 0.0331826 -3.47284 0
M  V30 5037 C 460.347 -0.877323 -4.18912 0
M  V30 5038 C 459.673 -0.0879296 -5.34628 0
M  V30 5039 C 460.973 -2.18892 -4.74219 0
M  V30 5040 H 462.667 -1.50179 -2.59011 0
M  V30 5041 H 460.213 -0.723547 -1.24502 0
M  V30 5042 H 462.166 0.326488 -4.20133 0
M  V30 5043 H 460.89 0.948164 -3.12534 0
M  V30 5044 H 459.549 -1.15475 -3.47938 0
M  V30 5045 H 459.197 0.828941 -4.96123 0
M  V30 5046 H 458.897 -0.694359 -5.83483 0
M  V30 5047 H 460.421 0.198743 -6.10276 0
M  V30 5048 H 461.835 -1.95746 -5.38847 0
M  V30 5049 H 460.232 -2.74686 -5.33542 0
M  V30 5050 H 461.302 -2.84674 -3.92541 0
M  V30 5051 N 462.645 1.35699 -0.801477 0
M  V30 5052 C 464.056 1.81415 -0.441073 0
M  V30 5053 C 464.407 1.66595 1.03636 0
M  V30 5054 O 463.532 1.19369 1.80499 0
M  V30 5055 C 464.127 3.29369 -0.793819 0
M  V30 5056 C 462.686 3.73248 -0.486083 0
M  V30 5057 C 461.833 2.57775 -1.02213 0
M  V30 5058 H 464.784 1.23749 -0.993572 0
M  V30 5059 H 464.805 3.80395 -0.0894158 0
M  V30 5060 H 464.317 3.40123 -1.86917 0
M  V30 5061 H 462.418 3.68046 0.580735 0
M  V30 5062 H 462.531 4.68222 -1.01513 0
M  V30 5063 H 460.895 2.50788 -0.444712 0
M  V30 5064 H 461.678 2.71309 -2.10348 0
M  V30 5065 N 464.123 0.554532 1.47522 0
M  V30 5066 C 465.055 -0.232106 2.28022 0
M  V30 5067 C 466.068 -0.881865 1.36847 0
M  V30 5068 O 467.257 -0.756168 1.61692 0
M  V30 5069 C 464.357 -1.34604 3.11022 0
M  V30 5070 C 463.53 -0.793582 4.30141 0
M  V30 5071 C 462.589 -1.79168 4.94758 0
M  V30 5072 O 461.615 -1.33886 5.5323 0
M  V30 5073 N 462.817 -3.12495 4.89211 0
M  V30 5074 H 465.582 0.458407 2.96173 0
M  V30 5075 H 463.143 0.390433 1.57122 0
M  V30 5076 H 465.135 -2.01243 3.51118 0
M  V30 5077 H 463.705 -1.93983 2.45131 0
M  V30 5078 H 462.925 0.0495025 3.94169 0
M  V30 5079 H 464.213 -0.403776 5.07195 0
M  V30 5080 H 463.611 -3.51931 4.42901 0
M  V30 5081 H 462.168 -3.74698 5.33333 0
M  V30 5082 N 465.601 -1.54893 0.290851 0
M  V30 5083 C 466.551 -2.19838 -0.604599 0
M  V30 5084 C 467.535 -1.16805 -1.10659 0
M  V30 5085 O 468.727 -1.42562 -1.04905 0
M  V30 5086 C 465.856 -2.93497 -1.78086 0
M  V30 5087 C 464.942 -4.03835 -1.29531 0
M  V30 5088 N 465.333 -5.03047 -0.527024 0
M  V30 5089 C 463.631 -4.17192 -1.57693 0
M  V30 5090 C 464.332 -5.81074 -0.269728 0
M  V30 5091 N 463.308 -5.36966 -0.846651 0
M  V30 5092 H 467.11 -2.93898 -0.00995032 0
M  V30 5093 H 464.624 -1.62121 0.0951353 0
M  V30 5094 H 466.621 -3.38484 -2.43381 0
M  V30 5095 H 465.281 -2.2095 -2.37931 0
M  V30 5096 H 466.292 -5.17611 -0.172872 0
M  V30 5097 H 462.969 -3.55845 -2.18359 0
M  V30 5098 H 464.359 -6.71005 0.346643 0
M  V30 5099 N 467.08 -0.0183926 -1.57589 0
M  V30 5100 C 468.308 0.673046 -1.95647 0
M  V30 5101 C 468.723 1.66275 -0.894312 0
M  V30 5102 O 468.08 1.82072 0.124975 0
M  V30 5103 C 468.131 1.38884 -3.33756 0
M  V30 5104 O 467.852 0.438806 -4.35897 0
M  V30 5105 C 469.353 2.1731 -3.86383 0
M  V30 5106 H 466.573 0.186292 -0.644621 0
M  V30 5107 H 469.117 -0.0749748 -2.04363 0
M  V30 5108 H 467.272 2.08835 -3.26293 0
M  V30 5109 H 467.686 0.945869 -5.15901 0
M  V30 5110 H 469.16 2.62863 -4.85394 0
M  V30 5111 H 469.637 3.00764 -3.20059 0
M  V30 5112 H 470.243 1.52339 -3.97081 0
M  V30 5113 N 468.558 1.5553 0.254621 0
M  V30 5114 C 469.805 1.77 0.983736 0
M  V30 5115 C 470.133 0.58133 1.85609 0
M  V30 5116 O 469.388 -0.435621 1.9079 0
M  V30 5117 C 469.687 3.03891 1.88109 0
M  V30 5118 C 469.353 4.35597 1.16472 0
M  V30 5119 C 468.015 4.7139 0.966714 0
M  V30 5120 C 470.367 5.1705 0.656387 0
M  V30 5121 C 467.695 5.86176 0.247942 0
M  V30 5122 C 470.047 6.32581 -0.0488807 0
M  V30 5123 C 468.711 6.67 -0.258438 0
M  V30 5124 H 467.981 0.647688 0.359974 0
M  V30 5125 H 470.628 1.89802 0.254463 0
M  V30 5126 H 468.933 2.86068 2.67717 0
M  V30 5127 H 470.63 3.17701 2.44677 0
M  V30 5128 H 467.22 4.07475 1.32899 0
M  V30 5129 H 471.404 4.8986 0.796933 0
M  V30 5130 H 466.66 6.11354 0.075035 0
M  V30 5131 H 470.834 6.94942 -0.450444 0
M  V30 5132 H 468.461 7.55793 -0.817358 0
M  V30 5133 N 470.036 -0.519951 1.48776 0
M  V30 5134 C 471.452 -0.849418 1.35119 0
M  V30 5135 C 471.652 -1.98077 0.36982 0
M  V30 5136 O 470.708 -2.51664 -0.205359 0
M  V30 5137 C 472.021 -1.20748 2.75391 0
M  V30 5138 C 473.569 -1.31679 2.83954 0
M  V30 5139 C 474.044 -1.70824 4.24951 0
M  V30 5140 N 475.535 -1.77908 4.27672 0
M  V30 5141 C 476.27 -2.09603 5.33717 0
M  V30 5142 N 475.766 -2.39652 6.5003 0
M  V30 5143 N 477.559 -2.10694 5.21119 0
M  V30 5144 H 469.71 0.226377 2.1119 0
M  V30 5145 H 471.973 0.0386519 0.947212 0
M  V30 5146 H 471.679 -0.449703 3.48813 0
M  V30 5147 H 471.553 -2.15534 3.09556 0
M  V30 5148 H 473.94 -2.06532 2.10781 0
M  V30 5149 H 474.021 -0.3499 2.53396 0
M  V30 5150 H 473.665 -0.965282 4.98643 0
M  V30 5151 H 473.595 -2.6858 4.52959 0
M  V30 5152 H 476.086 -1.56923 3.43779 0
M  V30 5153 H 476.399 -2.6297 7.26682 0
M  V30 5154 H 474.744 -2.37149 6.53288 0
M  V30 5155 H 477.935 -1.86682 4.29264 0
M  V30 5156 H 478.108 -2.35062 6.03863 0
M  V30 5157 N 471.514 -1.37532 -0.769588 0
M  V30 5158 C 472.76 -1.33057 -1.53048 0
M  V30 5159 C 473.093 0.0841865 -1.94017 0
M  V30 5160 O 472.368 1.04198 -1.64235 0
M  V30 5161 C 472.651 -2.27166 -2.79406 0
M  V30 5162 C 472.504 -3.77429 -2.44677 0
M  V30 5163 C 473.823 -2.19683 -3.81349 0
M  V30 5164 H 470.942 -0.484655 -0.555228 0
M  V30 5165 H 473.584 -1.68251 -0.882702 0
M  V30 5166 H 471.734 -1.97283 -3.34682 0
M  V30 5167 H 473.406 -4.17918 -1.953 0
M  V30 5168 H 471.649 -3.95892 -1.77346 0
M  V30 5169 H 472.32 -4.38716 -3.35011 0
M  V30 5170 H 474.796 -2.46029 -3.35573 0
M  V30 5171 H 473.672 -2.87668 -4.67481 0
M  V30 5172 H 473.933 -1.19045 -4.25771 0
M  V30 5173 N 472.992 0.995999 -1.22138 0
M  V30 5174 C 474.241 1.72928 -1.03821 0
M  V30 5175 C 474.554 1.90872 0.427444 0
M  V30 5176 O 475.76 2.61496 0.730212 0
M  V30 5177 C 474.216 3.11124 -1.80913 0
M  V30 5178 C 473.824 3.01122 -3.31707 0
M  V30 5179 C 475.568 3.8852 -1.71035 0
M  V30 5180 C 473.475 4.34453 -4.01253 0
M  V30 5181 H 472.405 0.648376 -0.384869 0
M  V30 5182 H 475.056 1.11213 -1.45959 0
M  V30 5183 H 473.438 3.73503 -1.31573 0
M  V30 5184 H 474.612 2.47926 -3.88419 0
M  V30 5185 H 472.927 2.3721 -3.42228 0
M  V30 5186 H 475.524 4.872 -2.20318 0
M  V30 5187 H 475.867 4.1087 -0.670196 0
M  V30 5188 H 476.4 3.32812 -2.17902 0
M  V30 5189 H 473.139 4.17303 -5.05508 0
M  V30 5190 H 472.659 4.87574 -3.49331 0
M  V30 5191 H 474.338 5.03215 -4.06674 0
M  V30 5192 N 474.47 1.03057 1.19235 0
M  V30 5193 C 475.716 0.738841 1.89506 0
M  V30 5194 C 476.071 -0.724807 1.78225 0
M  V30 5195 O 475.364 -1.52118 1.16494 0
M  V30 5196 C 475.558 1.1268 3.39172 0
M  V30 5197 C 475.387 2.62662 3.65019 0
M  V30 5198 C 474.157 3.29658 3.82954 0
M  V30 5199 C 476.355 3.60873 3.66436 0
M  V30 5200 N 474.337 4.68726 3.96446 0
M  V30 5201 C 475.708 4.85566 3.8552 0
M  V30 5202 C 477.763 3.54647 3.49471 0
M  V30 5203 C 476.466 6.04783 3.89397 0
M  V30 5204 C 478.492 4.73281 3.54625 0
M  V30 5205 C 477.854 5.96789 3.74196 0
M  V30 5206 H 473.953 0.322256 0.712513 0
M  V30 5207 H 476.537 1.31822 1.43287 0
M  V30 5208 H 474.708 0.575612 3.84111 0
M  V30 5209 H 476.44 0.787145 3.96971 0
M  V30 5210 H 473.195 2.8007 3.81913 0
M  V30 5211 H 473.619 5.40971 4.07037 0
M  V30 5212 H 478.261 2.60143 3.33295 0
M  V30 5213 H 475.979 6.99654 4.04364 0
M  V30 5214 H 479.565 4.70094 3.42787 0
M  V30 5215 H 478.445 6.87051 3.78061 0
M  V30 5216 N 475.948 -1.35272 0.808662 0
M  V30 5217 C 477.176 -2.02946 0.402537 0
M  V30 5218 C 477.591 -1.60937 -0.987147 0
M  V30 5219 O 476.948 -0.807917 -1.63643 0
M  V30 5220 C 476.999 -3.58317 0.47868 0
M  V30 5221 O 476.72 -3.98799 1.81358 0
M  V30 5222 C 478.221 -4.43251 0.0656281 0
M  V30 5223 H 475.441 -0.650831 0.163279 0
M  V30 5224 H 477.985 -1.72849 1.09286 0
M  V30 5225 H 476.14 -3.87055 -0.163415 0
M  V30 5226 H 476.554 -4.93451 1.77781 0
M  V30 5227 H 478.028 -5.51738 0.170017 0
M  V30 5228 H 478.505 -4.27913 -0.989278 0
M  V30 5229 H 479.111 -4.19813 0.68096 0
M  V30 5230 N 477.426 -0.562348 -1.47226 0
M  V30 5231 C 478.389 0.172056 -2.28553 0
M  V30 5232 C 479.389 0.837928 -1.37242 0
M  V30 5233 O 480.579 0.693001 -1.59822 0
M  V30 5234 C 477.711 1.25223 -3.17068 0
M  V30 5235 H 478.904 -0.542401 -2.94954 0
M  V30 5236 H 476.457 -0.319493 -1.53 0
M  V30 5237 H 477.192 1.99892 -2.55369 0
M  V30 5238 H 476.977 0.779515 -3.84273 0
M  V30 5239 H 478.467 1.76791 -3.78332 0
M  V30 5240 N 478.904 1.54736 -0.299062 0
M  V30 5241 C 480.152 1.99706 0.31017 0
M  V30 5242 C 480.473 1.18896 1.54559 0
M  V30 5243 O 479.743 0.284445 1.93824 0
M  V30 5244 H 478.323 0.737686 0.117596 0
M  V30 5245 H 480.985 1.9054 -0.409943 0
M  V30 5246 H 480.081 3.06596 0.58355 0
M  V30 5247 N 480.382 0.0267497 1.57577 0
M  V30 5248 C 481.659 -0.690926 1.82991 0
M  V30 5249 C 482.039 -1.90471 0.910164 0
M  V30 5250 O 481.387 -2.28474 -0.0347985 0
M  V30 5251 C 481.597 -1.07139 3.32148 0
M  V30 5252 C 482.945 -1.46402 3.98562 0
M  V30 5253 O 483.969 -1.16443 3.36629 0
M  V30 5254 O 482.828 -2.02214 5.07712 0
M  V30 5255 H 479.922 -0.338747 0.75444 0
M  V30 5256 H 482.468 0.0542506 1.69613 0
M  V30 5257 H 481.24 -0.207394 3.9075 0
M  V30 5258 H 480.863 -1.87481 3.50623 0
M  V30 5259 N 481.861 -1.55662 -0.24637 0
M  V30 5260 C 483.107 -1.77782 -0.975779 0
M  V30 5261 C 483.44 -0.592103 -1.84953 0
M  V30 5262 O 482.715 0.409588 -1.90138 0
M  V30 5263 C 482.998 -3.09788 -1.83584 0
M  V30 5264 C 482.851 -4.38764 -0.990241 0
M  V30 5265 C 484.17 -3.38029 -2.81823 0
M  V30 5266 H 481.289 -0.646789 -0.353317 0
M  V30 5267 H 483.931 -1.88398 -0.246248 0
M  V30 5268 H 482.081 -3.00869 -2.45784 0
M  V30 5269 H 483.753 -4.59675 -0.386897 0
M  V30 5270 H 481.996 -4.32798 -0.294626 0
M  V30 5271 H 482.667 -5.27514 -1.62584 0
M  V30 5272 H 485.143 -3.46915 -2.2976 0
M  V30 5273 H 484.019 -4.3161 -3.39122 0
M  V30 5274 H 484.28 -2.58968 -3.58313 0
M  V30 5275 N 483.339 0.512053 -1.4905 0
M  V30 5276 C 484.271 1.63121 -1.6101 0
M  V30 5277 C 485.284 1.55145 -0.493352 0
M  V30 5278 O 486.473 1.61278 -0.764955 0
M  V30 5279 C 483.573 3.01863 -1.54052 0
M  V30 5280 C 482.746 3.35138 -2.81072 0
M  V30 5281 C 481.805 4.5324 -2.67319 0
M  V30 5282 O 480.831 4.55571 -3.41238 0
M  V30 5283 N 482.033 5.52495 -1.78127 0
M  V30 5284 H 484.798 1.53292 -2.5753 0
M  V30 5285 H 482.359 0.699706 -1.45999 0
M  V30 5286 H 484.351 3.78774 -1.42521 0
M  V30 5287 H 482.921 3.05675 -0.654345 0
M  V30 5288 H 482.141 2.4723 -3.07036 0
M  V30 5289 H 483.429 3.54162 -3.65304 0
M  V30 5290 H 482.827 5.53403 -1.17308 0
M  V30 5291 H 481.384 6.28553 -1.72525 0
M  V30 5292 N 484.817 1.37938 0.762283 0
M  V30 5293 C 485.764 1.34467 1.87583 0
M  V30 5294 C 486.734 0.208633 1.64785 0
M  V30 5295 O 487.919 0.399494 1.86571 0
M  V30 5296 C 485.059 1.16692 3.24772 0
M  V30 5297 C 484.172 2.39608 3.59461 0
M  V30 5298 C 483.307 2.14631 4.85908 0
M  V30 5299 C 482.346 3.33364 5.13357 0
M  V30 5300 N 481.483 3.07877 6.30996 0
M  V30 5301 H 486.323 2.29669 1.89885 0
M  V30 5302 H 483.86 1.14116 0.928219 0
M  V30 5303 H 485.818 1.04405 4.03925 0
M  V30 5304 H 484.448 0.251333 3.2182 0
M  V30 5305 H 483.5 2.626 2.75219 0
M  V30 5306 H 484.812 3.28128 3.75678 0
M  V30 5307 H 483.966 1.99429 5.72986 0
M  V30 5308 H 482.705 1.23463 4.71814 0
M  V30 5309 H 481.71 3.49094 4.24751 0
M  V30 5310 H 482.935 4.25395 5.29354 0
M  V30 5311 H 480.881 2.19348 6.18241 0
M  V30 5312 H 480.798 3.89944 6.47673 0
M  V30 5313 H 482.066 2.96313 7.20985 0
M  V30 5314 N 486.295 -0.989507 1.22664 0
M  V30 5315 C 487.205 -2.11449 1.01619 0
M  V30 5316 C 488.221 -1.73962 -0.036545 0
M  V30 5317 O 489.397 -2.00788 0.156924 0
M  V30 5318 C 486.462 -3.41465 0.600204 0
M  V30 5319 C 485.523 -3.93033 1.72695 0
M  V30 5320 C 484.756 -5.16844 1.33071 0
M  V30 5321 O 484.979 -5.7001 0.210975 0
M  V30 5322 O 483.913 -5.6225 2.14845 0
M  V30 5323 H 487.739 -2.32088 1.9588 0
M  V30 5324 H 485.324 -1.09823 1.01289 0
M  V30 5325 H 487.206 -4.19695 0.37873 0
M  V30 5326 H 485.881 -3.22178 -0.313511 0
M  V30 5327 H 484.788 -3.15961 2.00298 0
M  V30 5328 H 486.121 -4.16758 2.61865 0
M  V30 5329 N 487.773 -1.03688 -1.18687 0
M  V30 5330 C 489.013 -0.746858 -1.90267 0
M  V30 5331 C 489.377 0.712075 -1.78307 0
M  V30 5332 O 490.578 1.11553 -2.44559 0
M  V30 5333 C 488.849 -1.19543 -3.36815 0
M  V30 5334 S 490.408 -1.03047 -4.26529 0
M  V30 5335 H 487.226 -0.271663 -0.657054 0
M  V30 5336 H 489.828 -1.32838 -1.43437 0
M  V30 5337 H 488.532 -2.2527 -3.43047 0
M  V30 5338 H 488.063 -0.607533 -3.88681 0
M  V30 5339 H 490.078 0.0543232 -4.9617 0
M  V30 5340 N 489.251 1.34841 -0.815825 0
M  V30 5341 C 490.497 1.98793 -0.401129 0
M  V30 5342 C 490.83 1.64548 1.03139 0
M  V30 5343 O 490.105 0.913487 1.71714 0
M  V30 5344 C 490.388 3.55143 -0.595409 0
M  V30 5345 C 490.241 3.99155 -2.07352 0
M  V30 5346 C 491.56 4.40092 -0.0268823 0
M  V30 5347 H 488.679 0.722146 -0.14722 0
M  V30 5348 H 491.321 1.59847 -1.02707 0
M  V30 5349 H 489.471 3.8845 -0.0625779 0
M  V30 5350 H 491.143 3.76216 -2.66945 0
M  V30 5351 H 489.386 3.49726 -2.56659 0
M  V30 5352 H 490.057 5.07971 -2.1603 0
M  V30 5353 H 492.533 4.13298 -0.482042 0
M  V30 5354 H 491.409 5.48562 -0.19267 0
M  V30 5355 H 491.67 4.29016 1.06759 0
M  V30 5356 N 490.729 0.570148 1.46925 0
M  V30 5357 C 491.659 -0.158274 2.32963 0
M  V30 5358 C 492.64 -0.896093 1.44583 0
M  V30 5359 O 493.825 -0.874022 1.7342 0
M  V30 5360 C 490.955 -1.18055 3.26619 0
M  V30 5361 C 489.909 -0.558379 4.24342 0
M  V30 5362 C 489.235 -1.68623 5.07415 0
M  V30 5363 C 490.535 0.496295 5.19937 0
M  V30 5364 H 492.229 0.560046 2.94115 0
M  V30 5365 H 489.775 0.270775 1.41431 0
M  V30 5366 H 491.728 -1.69841 3.85658 0
M  V30 5367 H 490.452 -1.92899 2.63548 0
M  V30 5368 H 489.111 -0.0617157 3.66548 0
M  V30 5369 H 488.759 -2.42402 4.40738 0
M  V30 5370 H 488.459 -1.27564 5.73586 0
M  V30 5371 H 489.983 -2.20709 5.69315 0
M  V30 5372 H 491.397 0.0640052 5.73264 0
M  V30 5373 H 489.794 0.82649 5.94381 0
M  V30 5374 H 490.864 1.38735 4.6463 0
M  V30 5375 N 492.207 -1.54576 0.307264 0
M  V30 5376 C 493.137 -2.26708 -0.55907 0
M  V30 5377 C 494.118 -1.26893 -1.1328 0
M  V30 5378 O 495.303 -1.55677 -1.16097 0
M  V30 5379 C 492.433 -3.01259 -1.72801 0
M  V30 5380 C 491.387 -4.08275 -1.28435 0
M  V30 5381 C 490.713 -4.70575 -2.53895 0
M  V30 5382 C 492.013 -5.2068 -0.411038 0
M  V30 5383 H 493.707 -2.9937 0.042576 0
M  V30 5384 H 491.253 -1.43983 0.0219173 0
M  V30 5385 H 493.206 -3.50444 -2.34023 0
M  V30 5386 H 491.93 -2.26187 -2.356 0
M  V30 5387 H 490.589 -3.59949 -0.695161 0
M  V30 5388 H 490.237 -3.92136 -3.15021 0
M  V30 5389 H 489.937 -5.42854 -2.24908 0
M  V30 5390 H 491.461 -5.22527 -3.15908 0
M  V30 5391 H 492.875 -5.65721 -0.929097 0
M  V30 5392 H 491.272 -5.99716 -0.214664 0
M  V30 5393 H 492.342 -4.81629 0.562287 0
M  V30 5394 N 493.685 -0.035106 -1.57561 0
M  V30 5395 C 494.632 0.94474 -2.10578 0
M  V30 5396 C 495.602 1.3192 -1.00927 0
M  V30 5397 O 496.787 1.41147 -1.28382 0
M  V30 5398 C 493.927 2.21982 -2.64231 0
M  V30 5399 C 493.04 1.90128 -3.87911 0
M  V30 5400 C 492.175 3.11975 -4.29936 0
M  V30 5401 C 491.214 2.75968 -5.46359 0
M  V30 5402 N 490.351 3.90459 -5.83512 0
M  V30 5403 H 495.191 0.485717 -2.94015 0
M  V30 5404 H 492.728 0.228143 -1.4532 0
M  V30 5405 H 494.686 2.96572 -2.9343 0
M  V30 5406 H 493.316 2.6549 -1.83616 0
M  V30 5407 H 492.368 1.05755 -3.65404 0
M  V30 5408 H 493.68 1.59613 -4.72573 0
M  V30 5409 H 492.834 3.9488 -4.60603 0
M  V30 5410 H 491.573 3.45657 -3.44053 0
M  V30 5411 H 490.578 1.91478 -5.1538 0
M  V30 5412 H 491.803 2.43497 -6.33945 0
M  V30 5413 H 489.749 4.23971 -5.00584 0
M  V30 5414 H 489.666 3.63588 -6.62827 0
M  V30 5415 H 490.934 4.7405 -6.18787 0
M  V30 5416 N 495.163 1.55791 0.238111 0
M  V30 5417 C 496.411 1.77681 0.963001 0
M  V30 5418 C 496.732 0.600674 1.85518 0
M  V30 5419 O 496.002 -0.383182 1.92116 0
M  V30 5420 H 494.582 0.655315 0.358568 0
M  V30 5421 H 497.244 1.93239 0.253945 0
M  V30 5422 H 496.34 2.69177 1.57956 0
M  V30 5423 N 496.642 -0.504142 1.49319 0
M  V30 5424 C 498.058 -0.835039 1.36012 0
M  V30 5425 C 498.258 -1.97674 0.390808 0
M  V30 5426 O 497.314 -2.51867 -0.178655 0
M  V30 5427 C 498.627 -1.17821 2.76656 0
M  V30 5428 C 500.175 -1.2866 2.85334 0
M  V30 5429 C 500.65 -1.66307 4.26739 0
M  V30 5430 N 502.141 -1.73362 4.29534 0
M  V30 5431 C 502.876 -2.0393 5.35911 0
M  V30 5432 N 502.372 -2.32744 6.52535 0
M  V30 5433 N 504.165 -2.05155 5.23324 0
M  V30 5434 H 496.316 0.248764 2.10938 0
M  V30 5435 H 498.579 0.0486962 0.946748 0
M  V30 5436 H 498.285 -0.412682 3.4927 0
M  V30 5437 H 498.159 -2.12239 3.11825 0
M  V30 5438 H 500.546 -2.04285 2.1296 0
M  V30 5439 H 500.627 -0.323004 2.53752 0
M  V30 5440 H 500.271 -0.91234 4.99639 0
M  V30 5441 H 500.201 -2.63761 4.55782 0
M  V30 5442 H 502.692 -1.53268 3.45424 0
M  V30 5443 H 503.005 -2.55248 7.2943 0
M  V30 5444 H 501.35 -2.30207 6.55767 0
M  V30 5445 H 504.541 -1.82119 4.3122 0
M  V30 5446 H 504.714 -2.28644 6.06322 0
M  V30 5447 N 498.12 -1.38341 -0.754957 0
M  V30 5448 C 499.052 -1.31347 -1.87831 0
M  V30 5449 C 500.065 -0.225955 -1.61224 0
M  V30 5450 O 501.254 -0.48341 -1.7183 0
M  V30 5451 C 498.354 -1.01201 -3.23437 0
M  V30 5452 C 497.527 -2.20834 -3.77559 0
M  V30 5453 C 496.586 -1.87454 -4.91678 0
M  V30 5454 O 495.612 -2.59934 -5.06382 0
M  V30 5455 N 496.814 -0.828682 -5.74555 0
M  V30 5456 H 499.579 -2.28147 -1.94342 0
M  V30 5457 H 497.14 -1.32184 -0.934828 0
M  V30 5458 H 499.132 -0.769249 -3.97322 0
M  V30 5459 H 497.702 -0.132011 -3.12321 0
M  V30 5460 H 496.922 -2.61184 -2.95256 0
M  V30 5461 H 498.21 -3.00678 -4.10451 0
M  V30 5462 H 497.608 -0.227591 -5.65242 0
M  V30 5463 H 496.165 -0.645802 -6.48593 0
M  V30 5464 N 499.598 0.982988 -1.23187 0
M  V30 5465 C 500.508 2.10907 -1.02739 0
M  V30 5466 C 501.524 1.73979 0.0273188 0
M  V30 5467 O 502.7 2.00702 -0.16757 0
M  V30 5468 C 499.765 3.41142 -0.618304 0
M  V30 5469 C 498.826 3.92112 -1.74777 0
M  V30 5470 C 498.059 5.16131 -1.3581 0
M  V30 5471 O 498.282 5.6989 -0.241201 0
M  V30 5472 O 497.216 5.61103 -2.17824 0
M  V30 5473 H 501.042 2.31046 -1.97108 0
M  V30 5474 H 498.627 1.09284 -1.01869 0
M  V30 5475 H 500.509 4.19488 -0.400982 0
M  V30 5476 H 499.184 3.2234 0.296421 0
M  V30 5477 H 498.091 3.14895 -2.0197 0
M  V30 5478 H 499.424 4.15364 -2.64071 0
M  V30 5479 N 501.076 1.04316 1.18135 0
M  V30 5480 C 502.324 0.746542 1.87806 0
M  V30 5481 C 502.645 -0.728082 1.80898 0
M  V30 5482 O 501.915 -1.52554 1.22899 0
M  V30 5483 H 500.495 0.273157 0.695265 0
M  V30 5484 H 503.157 1.32044 1.43354 0
M  V30 5485 H 502.253 1.05362 2.93778 0
M  V30 5486 N 502.554 -1.34406 0.822964 0
M  V30 5487 C 503.8 -1.98999 0.420847 0
M  V30 5488 C 504.155 -1.64067 -1.00498 0
M  V30 5489 O 503.448 -0.902071 -1.69036 0
M  V30 5490 C 503.642 -3.52981 0.560268 0
M  V30 5491 C 503.471 -4.02873 1.99809 0
M  V30 5492 C 502.241 -4.31463 2.62998 0
M  V30 5493 C 504.439 -4.20241 2.96483 0
M  V30 5494 N 502.421 -4.6739 3.9802 0
M  V30 5495 C 503.792 -4.59348 4.16413 0
M  V30 5496 C 505.847 -4.02489 2.93098 0
M  V30 5497 C 504.55 -4.82559 5.33413 0
M  V30 5498 C 506.576 -4.26866 4.09315 0
M  V30 5499 C 505.938 -4.6626 5.27997 0
M  V30 5500 H 502.037 -0.755432 0.202104 0
M  V30 5501 H 504.621 -1.62815 1.06767 0
M  V30 5502 H 502.792 -3.88359 -0.0566596 0
M  V30 5503 H 504.524 -4.04487 0.131146 0
M  V30 5504 H 501.279 -4.22373 2.14238 0
M  V30 5505 H 501.703 -4.89588 4.67582 0
M  V30 5506 H 506.345 -3.71161 2.02483 0
M  V30 5507 H 504.063 -5.12754 6.24587 0
M  V30 5508 H 507.649 -4.14667 4.08096 0
M  V30 5509 H 506.529 -4.84752 6.16429 0
M  V30 5510 N 504.032 -0.577932 -1.46621 0
M  V30 5511 C 505.272 -0.0643097 -2.04299 0
M  V30 5512 C 505.636 1.26967 -1.44026 0
M  V30 5513 O 506.837 1.87224 -1.92875 0
M  V30 5514 C 505.108 0.00547588 -3.574 0
M  V30 5515 S 506.667 0.462216 -4.36359 0
M  V30 5516 H 503.485 -0.0351573 -0.71013 0
M  V30 5517 H 506.087 -0.76935 -1.79725 0
M  V30 5518 H 504.791 -0.969423 -3.98786 0
M  V30 5519 H 504.322 0.733435 -3.86503 0
M  V30 5520 H 506.337 1.71791 -4.65513 0
M  V30 5521 N 505.51 1.54411 -0.315457 0
M  V30 5522 C 506.926 1.59556 0.037464 0
M  V30 5523 C 507.126 1.33217 1.5118 0
M  V30 5524 O 506.182 1.11264 2.26664 0
M  V30 5525 C 507.495 2.98372 -0.373477 0
M  V30 5526 C 509.043 3.11324 -0.323452 0
M  V30 5527 C 509.518 4.52472 -0.709433 0
M  V30 5528 N 511.009 4.58437 -0.662524 0
M  V30 5529 C 511.744 5.65751 -0.933474 0
M  V30 5530 N 511.24 6.81039 -1.27114 0
M  V30 5531 N 513.033 5.55489 -0.859573 0
M  V30 5532 H 505.184 1.6979 -1.27614 0
M  V30 5533 H 507.447 0.793732 -0.518356 0
M  V30 5534 H 507.153 3.22618 -1.40037 0
M  V30 5535 H 507.027 3.76264 0.265615 0
M  V30 5536 H 509.414 2.86818 0.694223 0
M  V30 5537 H 509.495 2.35555 -0.997367 0
M  V30 5538 H 509.139 4.7771 -1.72498 0
M  V30 5539 H 509.069 5.26598 -0.0132923 0
M  V30 5540 H 511.56 3.75636 -0.413065 0
M  V30 5541 H 511.873 7.58816 -1.46348 0
M  V30 5542 H 510.218 6.82555 -1.30932 0
M  V30 5543 H 513.409 4.64299 -0.595324 0
M  V30 5544 H 513.582 6.39036 -1.0741 0
M  V30 5545 N 506.988 0.0434614 1.5754 0
M  V30 5546 C 508.265 -0.671479 1.83713 0
M  V30 5547 C 508.645 -1.89495 0.930315 0
M  V30 5548 O 507.993 -2.28498 -0.0105639 0
M  V30 5549 C 508.203 -1.0361 3.33266 0
M  V30 5550 C 509.551 -1.42167 4.00092 0
M  V30 5551 O 510.575 -1.12866 3.37846 0
M  V30 5552 O 509.434 -1.96817 5.09829 0
M  V30 5553 H 506.528 -0.330726 0.75799 0
M  V30 5554 H 509.074 0.0722373 1.69546 0
M  V30 5555 H 507.846 -0.165938 3.90948 0
M  V30 5556 H 507.469 -1.83751 3.52592 0
M  V30 5557 N 508.466 -1.55915 -0.229846 0
M  V30 5558 C 509.691 -1.8296 -0.976743 0
M  V30 5559 C 510.116 -0.622735 -1.77493 0
M  V30 5560 O 509.474 0.428431 -1.76165 0
M  V30 5561 C 509.522 -3.07916 -1.8767 0
M  V30 5562 O 508.626 -2.86028 -2.97088 0
M  V30 5563 H 507.967 -0.603453 -0.277021 0
M  V30 5564 H 510.497 -2.0312 -0.245669 0
M  V30 5565 H 510.507 -3.37802 -2.2881 0
M  V30 5566 H 509.182 -3.95389 -1.28996 0
M  V30 5567 H 507.759 -2.67355 -2.59954 0
M  V30 5568 N 509.944 0.496216 -1.49584 0
M  V30 5569 C 511.172 1.27394 -1.63029 0
M  V30 5570 C 511.587 1.86344 -0.303569 0
M  V30 5571 O 510.944 1.68057 0.711547 0
M  V30 5572 C 510.995 2.40077 -2.70269 0
M  V30 5573 O 510.716 1.83549 -3.97796 0
M  V30 5574 C 512.217 3.31372 -2.94462 0
M  V30 5575 H 509.437 0.386211 -0.54871 0
M  V30 5576 H 511.981 0.595163 -1.95648 0
M  V30 5577 H 510.136 3.03775 -2.40415 0
M  V30 5578 H 510.55 2.57561 -4.56905 0
M  V30 5579 H 512.024 4.06707 -3.73221 0
M  V30 5580 H 512.501 3.88654 -2.0456 0
M  V30 5581 H 513.107 2.73435 -3.25751 0
M  V30 5582 N 511.423 1.38739 0.74761 0
M  V30 5583 C 512.651 1.38521 1.53686 0
M  V30 5584 C 513.066 -0.0235129 1.88785 0
M  V30 5585 O 512.423 -0.991662 1.53207 0
M  V30 5586 C 512.474 2.24641 2.83229 0
M  V30 5587 O 512.195 3.60026 2.49625 0
M  V30 5588 C 513.696 2.32669 3.77333 0
M  V30 5589 H 510.916 0.473589 0.475347 0
M  V30 5590 H 513.46 1.82395 0.924786 0
M  V30 5591 H 511.615 1.84213 3.40799 0
M  V30 5592 H 512.029 4.05435 3.3275 0
M  V30 5593 H 513.503 2.97201 4.65162 0
M  V30 5594 H 513.98 1.3421 4.18192 0
M  V30 5595 H 514.586 2.73512 3.25685 0
M  V30 5596 N 512.901 -0.976442 1.23707 0
M  V30 5597 C 514.178 -1.69296 0.979699 0
M  V30 5598 C 514.558 -2.0508 -0.500555 0
M  V30 5599 O 513.906 -1.74708 -1.47273 0
M  V30 5600 C 514.116 -2.93143 1.89389 0
M  V30 5601 C 515.464 -3.65572 2.15968 0
M  V30 5602 O 516.488 -3.03184 1.86971 0
M  V30 5603 O 515.347 -4.77859 2.65167 0
M  V30 5604 H 512.441 -0.739708 0.369812 0
M  V30 5605 H 514.987 -1.03131 1.34767 0
M  V30 5606 H 513.759 -2.63327 2.89439 0
M  V30 5607 H 513.382 -3.67044 1.52854 0
M  V30 5608 N 514.379 -1.04941 -1.1758 0
M  V30 5609 C 515.289 -0.658826 -2.25159 0
M  V30 5610 C 516.305 0.318941 -1.71052 0
M  V30 5611 O 517.481 0.171669 -2.00667 0
M  V30 5612 C 514.546 -0.0369522 -3.4668 0
M  V30 5613 C 513.607 -1.06484 -4.15884 0
M  V30 5614 C 512.84 -0.472551 -5.31604 0
M  V30 5615 O 513.063 0.718736 -5.65854 0
M  V30 5616 O 511.997 -1.20557 -5.89703 0
M  V30 5617 H 515.823 -1.55533 -2.60851 0
M  V30 5618 H 513.408 -0.820819 -1.24832 0
M  V30 5619 H 515.29 0.308784 -4.20267 0
M  V30 5620 H 513.965 0.833238 -3.12792 0
M  V30 5621 H 512.872 -1.46253 -3.44327 0
M  V30 5622 H 514.205 -1.9061 -4.53794 0
M  V30 5623 N 515.857 1.33968 -0.830081 0
M  V30 5624 C 516.789 2.28194 -0.21448 0
M  V30 5625 C 517.802 1.5135 0.599752 0
M  V30 5626 O 518.991 1.73286 0.42826 0
M  V30 5627 C 516.091 3.31221 0.717356 0
M  V30 5628 C 515.264 4.37365 -0.055613 0
M  V30 5629 C 514.323 5.2011 0.798231 0
M  V30 5630 O 513.349 5.68691 0.240616 0
M  V30 5631 N 514.551 5.40523 2.11695 0
M  V30 5632 H 517.316 2.81662 -1.02405 0
M  V30 5633 H 514.877 1.46568 -0.687713 0
M  V30 5634 H 516.869 3.83477 1.29334 0
M  V30 5635 H 515.439 2.78095 1.42765 0
M  V30 5636 H 514.659 3.85727 -0.812936 0
M  V30 5637 H 515.947 5.05397 -0.587444 0
M  V30 5638 H 515.345 5.0274 2.59363 0
M  V30 5639 H 513.902 5.95871 2.64162 0
M  V30 5640 N 517.335 0.585699 1.46312 0
M  V30 5641 C 518.265 -0.133556 2.33118 0
M  V30 5642 C 519.246 -0.880707 1.45525 0
M  V30 5643 O 520.431 -0.855579 1.74337 0
M  V30 5644 C 517.561 -1.14585 3.27853 0
M  V30 5645 C 516.515 -0.513341 4.2491 0
M  V30 5646 C 515.841 -1.63231 5.09175 0
M  V30 5647 C 517.141 0.551413 5.19381 0
M  V30 5648 H 518.835 0.59121 2.93505 0
M  V30 5649 H 516.381 0.285761 1.41136 0
M  V30 5650 H 518.334 -1.65741 3.87438 0
M  V30 5651 H 517.058 -1.90093 2.65579 0
M  V30 5652 H 515.717 -0.0228349 3.66593 0
M  V30 5653 H 515.365 -2.37713 4.43285 0
M  V30 5654 H 515.065 -1.21473 5.74907 0
M  V30 5655 H 516.589 -2.14658 5.71624 0
M  V30 5656 H 518.003 0.124804 5.73164 0
M  V30 5657 H 516.4 0.889486 5.93471 0
M  V30 5658 H 517.47 1.43655 4.63132 0
M  V30 5659 N 518.813 -1.54241 0.323641 0
M  V30 5660 C 520.06 -2.0057 -0.27891 0
M  V30 5661 C 520.388 -1.21181 -1.52136 0
M  V30 5662 O 519.643 -0.282043 -1.93657 0
M  V30 5663 C 519.942 -3.5129 -0.658031 0
M  V30 5664 C 519.608 -4.48281 0.485252 0
M  V30 5665 C 518.27 -4.74519 0.799055 0
M  V30 5666 C 520.622 -5.05909 1.25322 0
M  V30 5667 C 517.95 -5.55643 1.88354 0
M  V30 5668 C 520.302 -5.88215 2.32779 0
M  V30 5669 C 518.966 -6.12755 2.64741 0
M  V30 5670 H 518.236 -0.733938 -0.10206 0
M  V30 5671 H 520.883 -1.862 0.447435 0
M  V30 5672 H 519.188 -3.63388 -1.4648 0
M  V30 5673 H 520.885 -3.84578 -1.1358 0
M  V30 5674 H 517.475 -4.27979 0.230593 0
M  V30 5675 H 521.659 -4.8562 1.02404 0
M  V30 5676 H 516.915 -5.72888 2.13564 0
M  V30 5677 H 521.089 -6.31888 2.92729 0
M  V30 5678 H 518.716 -6.75404 3.48904 0
M  V30 5679 N 520.291 -0.0518155 -1.57515 0
M  V30 5680 C 521.707 0.304735 -1.56664 0
M  V30 5681 C 521.907 1.71395 -1.05953 0
M  V30 5682 O 520.963 2.42123 -0.716414 0
M  V30 5683 C 522.276 0.132614 -3.00407 0
M  V30 5684 C 523.824 0.20367 -3.12337 0
M  V30 5685 C 524.299 0.0600706 -4.57961 0
M  V30 5686 N 525.79 0.116326 -4.63054 0
M  V30 5687 C 526.525 0.0293363 -5.73392 0
M  V30 5688 N 526.021 -0.110038 -6.92713 0
M  V30 5689 N 527.814 0.0849651 -5.62036 0
M  V30 5690 H 519.965 -0.973056 -1.888 0
M  V30 5691 H 522.228 -0.377781 -0.869474 0
M  V30 5692 H 521.934 -0.839019 -3.41546 0
M  V30 5693 H 521.808 0.893376 -3.66468 0
M  V30 5694 H 524.195 1.16578 -2.71097 0
M  V30 5695 H 524.276 -0.587857 -2.48954 0
M  V30 5696 H 523.92 -0.898715 -4.99886 0
M  V30 5697 H 523.85 0.87075 -5.19351 0
M  V30 5698 H 526.341 0.22327 -3.7724 0
M  V30 5699 H 526.654 -0.169104 -7.72615 0
M  V30 5700 H 524.999 -0.145132 -6.94848 0
M  V30 5701 H 528.19 0.192411 -4.67704 0
M  V30 5702 H 528.363 0.0137131 -6.47999 0
M  V30 5703 N 521.769 1.56035 0.221574 0
M  V30 5704 C 523.009 1.80822 0.953038 0
M  V30 5705 C 523.373 0.625316 1.81532 0
M  V30 5706 O 524.574 0.752491 2.58052 0
M  V30 5707 C 522.845 3.10503 1.76983 0
M  V30 5708 S 524.404 3.56604 2.55693 0
M  V30 5709 H 521.222 0.634849 0.320137 0
M  V30 5710 H 523.824 1.94274 0.218619 0
M  V30 5711 H 522.528 3.94636 1.12651 0
M  V30 5712 H 522.059 2.99858 2.54655 0
M  V30 5713 H 524.074 3.1994 3.79279 0
M  V30 5714 N 523.247 -0.488276 1.49845 0
M  V30 5715 C 524.157 -1.61451 1.70207 0
M  V30 5716 C 525.173 -1.63877 0.584846 0
M  V30 5717 O 526.349 -1.82063 0.861107 0
M  V30 5718 C 523.414 -2.9776 1.77594 0
M  V30 5719 C 522.475 -3.05861 3.01243 0
M  V30 5720 C 521.708 -4.35668 3.08268 0
M  V30 5721 O 521.931 -5.25197 2.22541 0
M  V30 5722 O 520.865 -4.49005 4.00847 0
M  V30 5723 H 524.691 -1.47199 2.65643 0
M  V30 5724 H 522.276 -0.665939 1.33737 0
M  V30 5725 H 524.158 -3.7875 1.84732 0
M  V30 5726 H 522.833 -3.12248 0.8534 0
M  V30 5727 H 521.74 -2.24012 2.99616 0
M  V30 5728 H 523.073 -2.96304 3.9302 0
M  V30 5729 N 524.725 -1.39134 -0.740242 0
M  V30 5730 C 525.655 -1.40165 -1.86751 0
M  V30 5731 C 526.636 -0.265708 -1.68012 0
M  V30 5732 O 527.821 -0.47076 -1.88408 0
M  V30 5733 C 524.951 -1.2392 -3.2444 0
M  V30 5734 C 523.905 -2.34858 -3.57807 0
M  V30 5735 C 523.231 -2.03707 -4.94376 0
M  V30 5736 C 524.531 -3.77159 -3.61315 0
M  V30 5737 H 526.225 -2.345 -1.86145 0
M  V30 5738 H 523.771 -1.12875 -0.89416 0
M  V30 5739 H 525.724 -1.23263 -4.02969 0
M  V30 5740 H 524.448 -0.26051 -3.25559 0
M  V30 5741 H 523.107 -2.34723 -2.81604 0
M  V30 5742 H 522.755 -1.04289 -4.9207 0
M  V30 5743 H 522.455 -2.78016 -5.17669 0
M  V30 5744 H 523.979 -2.04691 -5.75268 0
M  V30 5745 H 525.393 -3.79252 -4.29931 0
M  V30 5746 H 523.79 -4.50784 -3.96124 0
M  V30 5747 H 524.86 -4.08513 -2.61238 0
M  V30 5748 N 526.204 0.969867 -1.24223 0
M  V30 5749 C 527.429 1.75289 -1.10853 0
M  V30 5750 C 527.854 1.85091 0.335079 0
M  V30 5751 O 527.212 1.32024 1.24255 0
M  V30 5752 C 527.26 3.15255 -1.75062 0
M  V30 5753 O 526.364 3.99589 -1.01992 0
M  V30 5754 H 525.705 0.538904 -0.387915 0
M  V30 5755 H 528.235 1.21675 -1.64488 0
M  V30 5756 H 528.245 3.65787 -1.80731 0
M  V30 5757 H 526.92 3.07436 -2.801 0
M  V30 5758 H 525.497 3.58077 -1.04094 0
M  V30 5759 N 527.682 1.05563 1.17022 0
M  V30 5760 C 528.928 0.769074 1.87652 0
M  V30 5761 C 529.261 -0.702326 1.81055 0
M  V30 5762 O 528.536 -1.5139 1.22112 0
M  V30 5763 C 528.819 1.25492 3.37526 0
M  V30 5764 C 528.672 2.78953 3.52853 0
M  V30 5765 C 529.991 0.856919 4.31677 0
M  V30 5766 H 527.11 0.280854 0.681388 0
M  V30 5767 H 529.752 1.31027 1.37593 0
M  V30 5768 H 527.902 0.794516 3.80289 0
M  V30 5769 H 529.574 3.33146 3.19079 0
M  V30 5770 H 527.817 3.18046 2.95007 0
M  V30 5771 H 528.488 3.08011 4.58076 0
M  V30 5772 H 530.964 1.25334 3.96775 0
M  V30 5773 H 529.84 1.22443 5.35069 0
M  V30 5774 H 530.101 -0.238787 4.41455 0
M  V30 5775 N 529.16 -1.33526 0.837174 0
M  V30 5776 C 530.07 -2.33023 0.271568 0
M  V30 5777 C 531.086 -1.63272 -0.601514 0
M  V30 5778 O 532.262 -1.94939 -0.506038 0
M  V30 5779 C 529.327 -3.42382 -0.545448 0
M  V30 5780 C 528.388 -4.27857 0.351709 0
M  V30 5781 C 527.621 -5.31994 -0.426409 0
M  V30 5782 O 527.844 -5.45763 -1.65828 0
M  V30 5783 O 526.778 -6.01572 0.1987 0
M  V30 5784 H 530.604 -2.83256 1.09545 0
M  V30 5785 H 528.189 -1.36837 0.599655 0
M  V30 5786 H 530.071 -4.09122 -1.00979 0
M  V30 5787 H 528.746 -2.94369 -1.34641 0
M  V30 5788 H 527.653 -3.6399 0.863853 0
M  V30 5789 H 528.986 -4.79349 1.1174 0
M  V30 5790 N 530.638 -0.59345 -1.46 0
M  V30 5791 C 531.585 0.133618 -2.30413 0
M  V30 5792 C 532.555 0.873736 -1.41262 0
M  V30 5793 O 533.74 0.862279 -1.70204 0
M  V30 5794 C 530.88 1.13434 -3.25924 0
M  V30 5795 C 529.993 0.39656 -4.30176 0
M  V30 5796 C 529.128 1.38575 -5.12806 0
M  V30 5797 C 528.167 0.634984 -6.08797 0
M  V30 5798 N 527.304 1.57276 -6.84258 0
M  V30 5799 H 532.144 -0.592252 -2.92055 0
M  V30 5800 H 529.681 -0.303874 -1.43927 0
M  V30 5801 H 531.639 1.72752 -3.79753 0
M  V30 5802 H 530.269 1.82779 -2.66067 0
M  V30 5803 H 529.321 -0.311861 -3.79119 0
M  V30 5804 H 530.633 -0.189869 -4.98438 0
M  V30 5805 H 529.787 2.05141 -5.70966 0
M  V30 5806 H 528.526 2.00611 -4.44529 0
M  V30 5807 H 527.531 -0.0443925 -5.49782 0
M  V30 5808 H 528.756 0.0198678 -6.79097 0
M  V30 5809 H 526.702 2.18103 -6.18682 0
M  V30 5810 H 526.619 1.03941 -7.48821 0
M  V30 5811 H 527.887 2.22844 -7.46968 0
M  V30 5812 N 532.116 1.54067 -0.331816 0
M  V30 5813 C 533.341 2.05599 0.272705 0
M  V30 5814 C 533.766 1.2059 1.44359 0
M  V30 5815 O 533.124 0.216907 1.79998 0
M  V30 5816 C 533.172 3.54188 0.677021 0
M  V30 5817 O 532.276 3.72082 1.77844 0
M  V30 5818 H 531.617 0.662286 0.0476801 0
M  V30 5819 H 534.147 1.98826 -0.482624 0
M  V30 5820 H 534.157 3.96608 0.957415 0
M  V30 5821 H 532.832 4.15513 -0.179325 0
M  V30 5822 H 531.409 3.41566 1.49622 0
M  V30 5823 N 533.594 0.0601682 1.57485 0
M  V30 5824 C 534.822 -0.620937 1.97363 0
M  V30 5825 C 535.237 -1.63846 0.938082 0
M  V30 5826 O 534.594 -1.82339 -0.0766578 0
M  V30 5827 C 534.645 -1.29987 3.37321 0
M  V30 5828 O 534.366 -0.323081 4.36907 0
M  V30 5829 C 535.867 -2.06989 3.92008 0
M  V30 5830 H 533.087 -0.169135 0.649334 0
M  V30 5831 H 535.631 0.129132 2.04092 0
M  V30 5832 H 533.786 -2.0011 3.31715 0
M  V30 5833 H 534.2 -0.808754 5.18227 0
M  V30 5834 H 535.674 -2.49901 4.92192 0
M  V30 5835 H 536.151 -2.92173 3.2792 0
M  V30 5836 H 536.757 -1.41757 4.0098 0
M  V30 5837 N 535.072 -1.5615 -0.213296 0
M  V30 5838 C 536.318 -1.79812 -0.937849 0
M  V30 5839 C 536.651 -0.631201 -1.83656 0
M  V30 5840 O 535.926 0.369165 -1.90964 0
M  V30 5841 C 536.209 -3.13613 -1.76972 0
M  V30 5842 C 536.062 -4.40766 -0.89695 0
M  V30 5843 C 537.381 -3.43931 -2.7459 0
M  V30 5844 H 534.5 -0.654138 -0.339518 0
M  V30 5845 H 537.142 -1.88877 -0.20623 0
M  V30 5846 H 535.292 -3.06015 -2.39347 0
M  V30 5847 H 536.964 -4.60392 -0.289306 0
M  V30 5848 H 535.207 -4.33326 -0.202756 0
M  V30 5849 H 535.878 -5.30843 -1.51358 0
M  V30 5850 H 538.354 -3.5171 -2.22349 0
M  V30 5851 H 537.23 -4.38706 -3.29891 0
M  V30 5852 H 537.491 -2.6651 -3.52739 0
M  V30 5853 N 536.55 0.480323 -1.50102 0
M  V30 5854 C 537.48 1.58769 -1.71215 0
M  V30 5855 C 538.461 1.60583 -0.560997 0
M  V30 5856 O 539.646 1.76996 -0.799127 0
M  V30 5857 C 536.776 2.97148 -1.79778 0
M  V30 5858 C 535.73 3.10201 -2.94888 0
M  V30 5859 C 535.056 4.50137 -2.88584 0
M  V30 5860 C 536.356 2.88283 -4.35534 0
M  V30 5861 H 538.05 1.41354 -2.6393 0
M  V30 5862 H 535.596 0.678591 -1.27008 0
M  V30 5863 H 537.549 3.74536 -1.93133 0
M  V30 5864 H 536.273 3.15699 -0.836772 0
M  V30 5865 H 534.932 2.35244 -2.81169 0
M  V30 5866 H 534.58 4.65593 -1.90349 0
M  V30 5867 H 534.28 4.59808 -3.65856 0
M  V30 5868 H 535.804 5.29558 -3.03976 0
M  V30 5869 H 537.218 3.55427 -4.49827 0
M  V30 5870 H 535.615 3.09408 -5.14186 0
M  V30 5871 H 536.685 1.84219 -4.48544 0
M  V30 5872 N 538.028 1.39524 0.732853 0
M  V30 5873 C 538.96 1.34318 1.85718 0
M  V30 5874 C 539.973 0.251576 1.60844 0
M  V30 5875 O 541.162 0.510685 1.71039 0
M  V30 5876 C 538.262 1.06334 3.21786 0
M  V30 5877 C 537.435 2.26813 3.73998 0
M  V30 5878 C 536.494 1.95253 4.88634 0
M  V30 5879 O 535.52 2.67957 5.02183 0
M  V30 5880 N 536.722 0.919984 5.73164 0
M  V30 5881 H 539.487 2.3121 1.90688 0
M  V30 5882 H 537.048 1.33654 0.91368 0
M  V30 5883 H 539.04 0.832363 3.96048 0
M  V30 5884 H 537.61 0.181682 3.12072 0
M  V30 5885 H 536.83 2.65849 2.91064 0
M  V30 5886 H 538.118 3.0717 4.05616 0
M  V30 5887 H 537.516 0.317487 5.64808 0
M  V30 5888 H 536.073 0.748905 6.47483 0
M  V30 5889 N 539.506 -0.963266 1.24736 0
M  V30 5890 C 540.731 -1.74699 1.11781 0
M  V30 5891 C 541.156 -1.85267 -0.325258 0
M  V30 5892 O 540.514 -1.32681 -1.23553 0
M  V30 5893 C 540.562 -3.14322 1.76731 0
M  V30 5894 O 539.666 -3.99043 1.04109 0
M  V30 5895 H 539.007 -0.53684 0.390767 0
M  V30 5896 H 541.537 -1.20801 1.65131 0
M  V30 5897 H 541.547 -3.64824 1.82668 0
M  V30 5898 H 540.222 -3.05946 2.81726 0
M  V30 5899 H 538.799 -3.5752 1.05991 0
M  V30 5900 N 540.985 -1.06182 -1.16461 0
M  V30 5901 C 541.895 -0.682671 -2.24448 0
M  V30 5902 C 542.911 0.30078 -1.71381 0
M  V30 5903 O 544.087 0.150376 -2.00838 0
M  V30 5904 C 541.152 -0.0737202 -3.46622 0
M  V30 5905 C 540.213 -1.10889 -4.14731 0
M  V30 5906 C 539.446 -0.528908 -5.31073 0
M  V30 5907 O 539.669 0.65868 -5.66584 0
M  V30 5908 O 538.603 -1.26805 -5.88391 0
M  V30 5909 H 542.429 -1.58291 -2.59187 0
M  V30 5910 H 540.014 -0.834013 -1.23954 0
M  V30 5911 H 541.896 0.264192 -4.20571 0
M  V30 5912 H 540.571 0.800015 -3.13658 0
M  V30 5913 H 539.478 -1.49896 -3.42756 0
M  V30 5914 H 540.811 -1.95412 -4.51747 0
M  V30 5915 N 542.463 1.3308 -0.844243 0
M  V30 5916 C 543.393 2.3161 -0.296493 0
M  V30 5917 C 544.374 1.59215 0.598707 0
M  V30 5918 O 545.559 1.87077 0.521134 0
M  V30 5919 C 542.689 3.43313 0.524762 0
M  V30 5920 C 541.643 4.27115 -0.275106 0
M  V30 5921 C 540.969 5.30483 0.670236 0
M  V30 5922 C 542.269 5.00443 -1.49514 0
M  V30 5923 H 543.963 2.77672 -1.11976 0
M  V30 5924 H 541.509 1.33496 -0.539899 0
M  V30 5925 H 543.462 4.11273 0.918298 0
M  V30 5926 H 542.186 2.95952 1.3813 0
M  V30 5927 H 540.845 3.60787 -0.650267 0
M  V30 5928 H 540.493 4.79379 1.52332 0
M  V30 5929 H 540.193 5.87435 0.139123 0
M  V30 5930 H 541.717 6.01308 1.06117 0
M  V30 5931 H 543.131 5.61141 -1.17447 0
M  V30 5932 H 541.528 5.67071 -1.96343 0
M  V30 5933 H 542.598 4.28906 -2.26202 0
M  V30 5934 N 543.941 0.601185 1.45683 0
M  V30 5935 C 544.851 -0.123395 2.34275 0
M  V30 5936 C 545.867 -0.86702 1.5086 0
M  V30 5937 O 547.043 -0.826049 1.8368 0
M  V30 5938 C 544.108 -1.11237 3.2837 0
M  V30 5939 C 543.169 -0.371405 4.2769 0
M  V30 5940 C 542.402 -1.31327 5.1729 0
M  V30 5941 O 542.625 -2.55078 5.10188 0
M  V30 5942 O 541.559 -0.813811 5.96373 0
M  V30 5943 H 545.385 0.604483 2.97623 0
M  V30 5944 H 542.97 0.361477 1.44961 0
M  V30 5945 H 544.852 -1.68214 3.8637 0
M  V30 5946 H 543.527 -1.82139 2.67595 0
M  V30 5947 H 542.434 0.24067 3.73325 0
M  V30 5948 H 543.767 0.296998 4.91303 0
M  V30 5949 N 545.419 -1.53889 0.339982 0
M  V30 5950 C 546.644 -2.05741 -0.261798 0
M  V30 5951 C 547.069 -1.21354 -1.43718 0
M  V30 5952 O 546.427 -0.22645 -1.7988 0
M  V30 5953 C 546.475 -3.54542 -0.658228 0
M  V30 5954 O 545.579 -3.7302 -1.75869 0
M  V30 5955 H 544.92 -0.662529 -0.0441672 0
M  V30 5956 H 547.45 -1.98568 0.493161 0
M  V30 5957 H 547.46 -3.9711 -0.936368 0
M  V30 5958 H 546.135 -4.15412 0.201358 0
M  V30 5959 H 544.712 -3.42355 -1.47809 0
M  V30 5960 N 546.897 -0.0685191 -1.57451 0
M  V30 5961 C 548.137 0.605038 -1.9524 0
M  V30 5962 C 548.501 1.66974 -0.947816 0
M  V30 5963 O 549.702 2.39862 -1.21325 0
M  V30 5964 C 547.973 1.16999 -3.37707 0
M  V30 5965 S 549.532 1.85913 -3.97469 0
M  V30 5966 H 546.35 0.198203 -0.682815 0
M  V30 5967 H 548.952 -0.141594 -1.94987 0
M  V30 5968 H 547.656 0.383205 -4.08607 0
M  V30 5969 H 547.187 1.95305 -3.41496 0
M  V30 5970 H 549.202 3.14128 -3.84107 0
M  V30 5971 N 548.375 1.56261 0.205012 0
M  V30 5972 C 549.322 1.93754 1.25411 0
M  V30 5973 C 550.292 0.796826 1.45739 0
M  V30 5974 O 551.477 1.05414 1.59036 0
M  V30 5975 C 548.617 2.27383 2.59598 0
M  V30 5976 C 547.73 3.5447 2.46931 0
M  V30 5977 C 546.865 3.77468 3.73753 0
M  V30 5978 C 545.904 4.98014 3.55877 0
M  V30 5979 N 545.041 5.17316 4.74688 0
M  V30 5980 H 549.881 2.83203 0.92737 0
M  V30 5981 H 547.418 1.40158 0.446574 0
M  V30 5982 H 549.376 2.44895 3.37761 0
M  V30 5983 H 548.006 1.41088 2.90335 0
M  V30 5984 H 547.058 3.45061 1.60116 0
M  V30 5985 H 548.37 4.42789 2.29651 0
M  V30 5986 H 547.524 3.95165 4.60358 0
M  V30 5987 H 546.263 2.87461 3.93976 0
M  V30 5988 H 545.268 4.80249 2.67657 0
M  V30 5989 H 546.493 5.8952 3.37109 0
M  V30 5990 H 544.439 4.30255 4.95194 0
M  V30 5991 H 544.356 5.99796 4.60197 0
M  V30 5992 H 545.624 5.39463 5.62672 0
M  V30 5993 N 549.853 -0.472356 1.50355 0
M  V30 5994 C 550.763 -1.59637 1.7191 0
M  V30 5995 C 551.779 -1.63247 0.602195 0
M  V30 5996 O 552.955 -1.81139 0.880369 0
M  V30 5997 C 550.02 -2.9586 1.80742 0
M  V30 5998 C 549.081 -3.02649 3.04471 0
M  V30 5999 C 548.314 -4.32374 3.12872 0
M  V30 6000 O 548.537 -5.22807 2.28099 0
M  V30 6001 O 547.471 -4.44728 4.05587 0
M  V30 6002 H 551.297 -1.44373 2.67189 0
M  V30 6003 H 548.882 -0.651717 1.34436 0
M  V30 6004 H 550.764 -3.7677 1.88739 0
M  V30 6005 H 549.439 -3.11325 0.88647 0
M  V30 6006 H 548.346 -2.20821 3.01975 0
M  V30 6007 H 549.679 -2.92119 3.9614 0
M  V30 6008 N 551.331 -1.39911 -0.725443 0
M  V30 6009 C 552.261 -1.42138 -1.85254 0
M  V30 6010 C 553.242 -0.283513 -1.67721 0
M  V30 6011 O 554.427 -0.490717 -1.87898 0
M  V30 6012 C 551.557 -1.27354 -3.23107 0
M  V30 6013 C 550.511 -2.3864 -3.55296 0
M  V30 6014 C 549.837 -2.08939 -4.92188 0
M  V30 6015 C 551.137 -3.8097 -3.57295 0
M  V30 6016 H 552.831 -2.36461 -1.83648 0
M  V30 6017 H 550.377 -1.13817 -0.882138 0
M  V30 6018 H 552.33 -1.2753 -4.01639 0
M  V30 6019 H 551.054 -0.295025 -3.25265 0
M  V30 6020 H 549.713 -2.37696 -2.79099 0
M  V30 6021 H 549.361 -1.09502 -4.90936 0
M  V30 6022 H 549.061 -2.83491 -5.14691 0
M  V30 6023 H 550.585 -2.10781 -5.73065 0
M  V30 6024 H 551.999 -3.8379 -4.25885 0
M  V30 6025 H 550.396 -4.5496 -3.9132 0
M  V30 6026 H 551.466 -4.11261 -2.5689 0
M  V30 6027 N 552.809 0.956637 -1.25245 0
M  V30 6028 C 553.741 2.05628 -1.01242 0
M  V30 6029 C 554.754 1.62785 0.0219579 0
M  V30 6030 O 555.943 1.77184 -0.216365 0
M  V30 6031 C 553.043 3.35069 -0.508161 0
M  V30 6032 C 552.216 4.06761 -1.60823 0
M  V30 6033 C 551.275 5.14473 -1.1047 0
M  V30 6034 O 550.301 5.40033 -1.79868 0
M  V30 6035 N 551.503 5.80474 0.0550773 0
M  V30 6036 H 554.268 2.2679 -1.95925 0
M  V30 6037 H 551.829 1.12505 -1.16423 0
M  V30 6038 H 553.821 4.044 -0.155819 0
M  V30 6039 H 552.391 3.10694 0.344683 0
M  V30 6040 H 551.611 3.31555 -2.13224 0
M  V30 6041 H 552.899 4.51418 -2.34733 0
M  V30 6042 H 552.297 5.62125 0.635004 0
M  V30 6043 H 550.854 6.50868 0.348469 0
M  V30 6044 N 554.287 1.06798 1.15896 0
M  V30 6045 C 555.197 0.694564 2.24083 0
M  V30 6046 C 556.213 -0.291687 1.71538 0
M  V30 6047 O 557.389 -0.139723 2.00915 0
M  V30 6048 C 554.454 0.0921014 3.46578 0
M  V30 6049 C 553.515 1.13087 4.14137 0
M  V30 6050 C 552.748 0.557064 5.30785 0
M  V30 6051 O 552.971 -0.628623 5.66925 0
M  V30 6052 O 551.905 1.29924 5.8771 0
M  V30 6053 H 555.731 1.59663 2.58344 0
M  V30 6054 H 553.316 0.840575 1.2351 0
M  V30 6055 H 555.198 -0.241884 4.20705 0
M  V30 6056 H 553.873 -0.78337 3.14078 0
M  V30 6057 H 552.78 1.51712 3.41957 0
M  V30 6058 H 554.113 1.97805 4.50704 0
M  V30 6059 N 555.766 -1.3263 0.851289 0
M  V30 6060 C 556.696 -2.31449 0.308771 0
M  V30 6061 C 557.677 -1.59531 -0.590255 0
M  V30 6062 O 558.862 -1.87351 -0.511205 0
M  V30 6063 C 555.992 -3.43586 -0.506548 0
M  V30 6064 C 554.946 -4.26963 0.297753 0
M  V30 6065 C 554.272 -5.30831 -0.642094 0
M  V30 6066 C 555.572 -4.99643 1.52166 0
M  V30 6067 H 557.266 -2.77074 1.13447 0
M  V30 6068 H 554.812 -1.33207 0.546971 0
M  V30 6069 H 556.765 -4.11754 -0.896474 0
M  V30 6070 H 555.489 -2.96681 -1.36558 0
M  V30 6071 H 554.148 -3.60437 0.669391 0
M  V30 6072 H 553.796 -4.8018 -1.49788 0
M  V30 6073 H 553.496 -5.87501 -0.107968 0
M  V30 6074 H 555.02 -6.01862 -1.02927 0
M  V30 6075 H 556.434 -5.6051 1.20421 0
M  V30 6076 H 554.831 -5.66022 1.99347 0
M  V30 6077 H 555.901 -4.27701 2.28474 0
M  V30 6078 N 557.244 -0.608902 -1.45362 0
M  V30 6079 C 558.154 0.110969 -2.34337 0
M  V30 6080 C 559.17 0.859007 -1.51318 0
M  V30 6081 O 560.346 0.816296 -1.84116 0
M  V30 6082 C 557.411 1.09494 -3.28956 0
M  V30 6083 C 556.472 0.348718 -4.27881 0
M  V30 6084 C 555.705 1.28582 -5.17979 0
M  V30 6085 O 555.928 2.52369 -5.11533 0
M  V30 6086 O 554.862 0.782172 -5.96796 0
M  V30 6087 H 558.688 -0.620258 -2.97299 0
M  V30 6088 H 556.273 -0.36916 -1.44767 0
M  V30 6089 H 558.155 1.66163 -3.87257 0
M  V30 6090 H 556.83 1.80717 -2.68557 0
M  V30 6091 H 555.737 -0.260465 -3.73192 0
M  V30 6092 H 557.07 -0.323049 -4.91139 0
M  V30 6093 N 558.722 1.53707 -0.348139 0
M  V30 6094 C 560.133 1.86213 0.134797 0
M  V30 6095 C 560.484 1.26925 1.49614 0
M  V30 6096 O 559.609 0.584573 2.08355 0
M  V30 6097 C 560.204 3.37866 0.251371 0
M  V30 6098 C 558.763 3.70233 0.678543 0
M  V30 6099 C 557.91 2.76683 -0.184925 0
M  V30 6100 H 560.861 1.48204 -0.567571 0
M  V30 6101 H 560.882 3.64908 1.07806 0
M  V30 6102 H 560.394 3.80988 -0.739581 0
M  V30 6103 H 558.495 3.32659 1.67835 0
M  V30 6104 H 558.608 4.76836 0.465251 0
M  V30 6105 H 556.972 2.52374 0.343465 0
M  V30 6106 H 557.755 3.22635 -1.1731 0
M  V30 6107 N 560.2 0.0768682 1.57412 0
M  V30 6108 C 561.11 -0.903207 2.16516 0
M  V30 6109 C 562.126 -1.32341 1.12968 0
M  V30 6110 O 563.302 -1.39507 1.45258 0
M  V30 6111 C 560.367 -2.1508 2.71922 0
M  V30 6112 C 559.428 -1.78653 3.90361 0
M  V30 6113 C 558.661 -2.97465 4.43114 0
M  V30 6114 O 558.884 -4.11638 3.94854 0
M  V30 6115 O 557.818 -2.76987 5.3438 0
M  V30 6116 H 561.644 -0.430427 3.00634 0
M  V30 6117 H 559.229 -0.146485 1.4868 0
M  V30 6118 H 561.111 -2.8823 3.07411 0
M  V30 6119 H 559.786 -2.61446 1.9086 0
M  V30 6120 H 558.693 -1.0274 3.59716 0
M  V30 6121 H 560.026 -1.37066 4.7273 0
M  V30 6122 N 561.678 -1.56367 -0.196722 0
M  V30 6123 C 562.626 -1.95304 -1.2633 0
M  V30 6124 C 563.62 -0.838252 -1.47206 0
M  V30 6125 O 564.826 -1.02325 -1.48087 0
M  V30 6126 H 561.201 -0.621013 -0.424083 0
M  V30 6127 H 563.172 -2.84254 -0.907879 0
M  V30 6128 C 561.921 -2.3074 -2.60104 0
M  V30 6129 H 561.244 -3.16047 -2.44856 0
M  V30 6130 H 562.684 -2.61849 -3.33484 0
M  V30 6131 C 561.143 -1.14143 -3.16975 0
M  V30 6132 O 561.673 -0.415602 -3.99544 0
M  V30 6133 N 559.879 -0.91867 -2.75697 0
M  V30 6134 H 559.426 -1.51065 -2.08656 0
M  V30 6135 H 559.384 -0.140321 -3.14087 0
M  V30 6136 N 563.156 0.464375 -1.50603 0
M  V30 6137 C 564.103 1.56152 -1.69956 0
M  V30 6138 C 565.073 1.57046 -0.54091 0
M  V30 6139 O 566.258 1.74473 -0.772258 0
M  V30 6140 C 563.398 2.94079 -1.80586 0
M  V30 6141 C 562.511 3.02923 -3.07996 0
M  V30 6142 C 561.646 4.31806 -3.09382 0
M  V30 6143 C 560.685 4.34417 -4.31218 0
M  V30 6144 N 559.822 5.54782 -4.30304 0
M  V30 6145 H 564.662 1.38955 -2.6362 0
M  V30 6146 H 562.199 0.675482 -1.30674 0
M  V30 6147 H 564.157 3.74073 -1.8473 0
M  V30 6148 H 562.787 3.09896 -0.903556 0
M  V30 6149 H 561.839 2.1576 -3.13292 0
M  V30 6150 H 563.151 3.00712 -3.97962 0
M  V30 6151 H 562.305 5.20153 -3.12292 0
M  V30 6152 H 561.044 4.36636 -2.17257 0
M  V30 6153 H 560.049 3.44467 -4.28512 0
M  V30 6154 H 561.274 4.31273 -5.24576 0
M  V30 6155 H 559.22 5.60384 -3.41037 0
M  V30 6156 H 559.137 5.54339 -5.14047 0
M  V30 6157 H 560.405 6.45235 -4.3737 0
M  V30 6158 N 564.634 1.40294 0.718013 0
M  V30 6159 C 565.88 1.39648 1.47885 0
M  V30 6160 C 566.235 -0.0023879 1.924 0
M  V30 6161 O 565.528 -0.972304 1.65096 0
M  V30 6162 C 565.722 2.31814 2.72024 0
M  V30 6163 C 565.551 3.80523 2.3965 0
M  V30 6164 C 564.321 4.49351 2.3111 0
M  V30 6165 C 566.519 4.72077 2.04079 0
M  V30 6166 N 564.501 5.83305 1.91385 0
M  V30 6167 C 565.872 5.94809 1.74935 0
M  V30 6168 C 567.927 4.59935 1.90694 0
M  V30 6169 C 566.63 7.06755 1.33753 0
M  V30 6170 C 568.656 5.7182 1.50915 0
M  V30 6171 C 568.018 6.93637 1.22668 0
M  V30 6172 H 564.117 0.566263 0.539324 0
M  V30 6173 H 566.701 1.75986 0.832891 0
M  V30 6174 H 564.872 1.97607 3.34374 0
M  V30 6175 H 566.604 2.22042 3.38348 0
M  V30 6176 H 563.359 4.03002 2.4877 0
M  V30 6177 H 563.783 6.54239 1.74068 0
M  V30 6178 H 568.425 3.66274 2.11194 0
M  V30 6179 H 566.143 8.00302 1.11995 0
M  V30 6180 H 569.729 5.64421 1.4114 0
M  V30 6181 H 568.609 7.78743 0.923502 0
M  V30 6182 N 566.112 -0.949982 1.2575 0
M  V30 6183 C 567.352 -1.70994 1.11984 0
M  V30 6184 C 567.716 -1.89095 -0.332746 0
M  V30 6185 O 568.917 -2.62192 -0.592331 0
M  V30 6186 C 567.188 -3.05286 1.85837 0
M  V30 6187 S 568.747 -3.96477 1.88019 0
M  V30 6188 H 565.565 -0.587689 0.400178 0
M  V30 6189 H 568.167 -1.13271 1.59342 0
M  V30 6190 H 566.871 -2.89785 2.90608 0
M  V30 6191 H 566.402 -3.68069 1.38885 0
M  V30 6192 H 568.417 -4.86814 0.96057 0
M  V30 6193 N 567.59 -1.07411 -1.15328 0
M  V30 6194 C 568.52 -0.716472 -2.22236 0
M  V30 6195 C 569.501 0.296373 -1.67498 0
M  V30 6196 O 570.686 0.168989 -1.93463 0
M  V30 6197 C 567.816 -0.114142 -3.47112 0
M  V30 6198 C 566.77 -1.05421 -4.14814 0
M  V30 6199 C 566.096 -0.314604 -5.33774 0
M  V30 6200 C 567.396 -2.38808 -4.64508 0
M  V30 6201 H 569.09 -1.61029 -2.52408 0
M  V30 6202 H 566.636 -0.775702 -1.21321 0
M  V30 6203 H 568.589 0.148001 -4.2114 0
M  V30 6204 H 567.313 0.814755 -3.16274 0
M  V30 6205 H 565.972 -1.30128 -3.42728 0
M  V30 6206 H 565.62 0.617772 -4.99192 0
M  V30 6207 H 565.32 -0.941209 -5.80013 0
M  V30 6208 H 566.844 -0.0602747 -6.1057 0
M  V30 6209 H 568.258 -2.18424 -5.3006 0
M  V30 6210 H 566.655 -2.97069 -5.21412 0
M  V30 6211 H 567.725 -3.01067 -3.80114 0
M  V30 6212 N 569.068 1.32177 -0.85831 0
M  V30 6213 C 569.998 2.31282 -0.321041 0
M  V30 6214 C 570.979 1.59841 0.581786 0
M  V30 6215 O 572.164 1.87619 0.501262 0
M  V30 6216 C 569.294 3.4385 0.48832 0
M  V30 6217 C 568.248 4.26799 -0.320391 0
M  V30 6218 C 567.574 5.31164 0.613934 0
M  V30 6219 C 568.874 4.98829 -1.54813 0
M  V30 6220 H 570.568 2.76469 -1.14915 0
M  V30 6221 H 568.114 1.32916 -0.554028 0
M  V30 6222 H 570.067 4.12224 0.874626 0
M  V30 6223 H 568.791 2.97401 1.34983 0
M  V30 6224 H 567.45 3.60077 -0.688497 0
M  V30 6225 H 567.098 4.80967 1.47239 0
M  V30 6226 H 566.798 5.8755 0.0768097 0
M  V30 6227 H 568.322 6.024 0.997336 0
M  V30 6228 H 569.736 5.59864 -1.23392 0
M  V30 6229 H 568.133 5.64957 -2.02346 0
M  V30 6230 H 569.203 4.26483 -2.30739 0
M  V30 6231 N 570.547 0.616602 1.45037 0
M  V30 6232 C 571.775 0.121968 2.0654 0
M  V30 6233 C 572.19 -1.19743 1.45969 0
M  V30 6234 O 571.547 -1.73133 0.577168 0
M  V30 6235 C 571.598 -0.0145171 3.61497 0
M  V30 6236 O 571.319 1.25269 4.19809 0
M  V30 6237 C 572.82 -0.539555 4.40004 0
M  V30 6238 H 570.04 0.0729837 0.667019 0
M  V30 6239 H 572.584 0.846891 1.8614 0
M  V30 6240 H 570.739 -0.689809 3.81209 0
M  V30 6241 H 571.153 1.08816 5.13088 0
M  V30 6242 H 572.627 -0.584112 5.48901 0
M  V30 6243 H 573.104 -1.56368 4.10421 0
M  V30 6244 H 573.71 0.101995 4.25178 0
M  V30 6245 N 572.025 -1.5352 0.356285 0
M  V30 6246 C 573.274 -2.00298 -0.237373 0
M  V30 6247 C 573.587 -1.24784 -1.50627 0
M  V30 6248 O 574.793 -1.62103 -2.17795 0
M  V30 6249 C 573.249 -3.56771 -0.473545 0
M  V30 6250 C 572.857 -4.41154 0.780183 0
M  V30 6251 C 574.601 -4.1193 -1.02537 0
M  V30 6252 C 572.508 -5.89161 0.514108 0
M  V30 6253 H 571.438 -0.748307 -0.092478 0
M  V30 6254 H 574.089 -1.77283 0.473588 0
M  V30 6255 H 572.471 -3.75902 -1.24553 0
M  V30 6256 H 573.645 -4.33797 1.55425 0
M  V30 6257 H 571.96 -3.97052 1.25455 0
M  V30 6258 H 574.557 -5.20133 -1.2396 0
M  V30 6259 H 574.9 -3.65943 -1.98473 0
M  V30 6260 H 575.433 -3.96561 -0.313775 0
M  V30 6261 H 572.172 -6.39408 1.44355 0
M  V30 6262 H 571.692 -5.9939 -0.221632 0
M  V30 6263 H 573.371 -6.46857 0.136122 0
M  V30 6264 N 573.503 -0.0852151 -1.57369 0
M  V30 6265 C 574.752 0.580443 -1.93168 0
M  V30 6266 C 575.065 1.6995 -0.968319 0
M  V30 6267 O 576.271 2.42564 -1.21963 0
M  V30 6268 C 574.727 1.08386 -3.43192 0
M  V30 6269 C 574.335 -0.00491388 -4.48 0
M  V30 6270 C 576.079 1.72281 -3.87968 0
M  V30 6271 C 573.986 0.513299 -5.89168 0
M  V30 6272 H 572.916 0.22059 -0.72101 0
M  V30 6273 H 575.567 -0.159621 -1.82804 0
M  V30 6274 H 573.949 1.8773 -3.48674 0
M  V30 6275 H 575.123 -0.780032 -4.5415 0
M  V30 6276 H 573.438 -0.548453 -4.12772 0
M  V30 6277 H 576.035 2.12108 -4.9083 0
M  V30 6278 H 576.378 2.58811 -3.26071 0
M  V30 6279 H 576.911 0.995359 -3.85146 0
M  V30 6280 H 573.65 -0.315153 -6.54742 0
M  V30 6281 H 573.17 1.25564 -5.8651 0
M  V30 6282 H 574.849 0.985433 -6.39451 0
M  V30 6283 N 574.981 1.5647 0.188427 0
M  V30 6284 C 575.911 1.98101 1.23606 0
M  V30 6285 C 576.892 0.853961 1.47111 0
M  V30 6286 O 578.077 1.11879 1.58735 0
M  V30 6287 C 575.207 2.32624 2.57882 0
M  V30 6288 C 574.161 3.48129 2.48978 0
M  V30 6289 C 573.487 3.68347 3.87588 0
M  V30 6290 C 574.787 4.82112 2.00911 0
M  V30 6291 H 576.481 2.85864 0.890068 0
M  V30 6292 H 574.027 1.37532 0.426714 0
M  V30 6293 H 575.98 2.60343 3.3136 0
M  V30 6294 H 574.704 1.41751 2.94235 0
M  V30 6295 H 573.363 3.20511 1.77956 0
M  V30 6296 H 573.011 2.74793 4.21305 0
M  V30 6297 H 572.711 4.46055 3.82503 0
M  V30 6298 H 574.235 3.98449 4.62678 0
M  V30 6299 H 575.649 5.08819 2.64151 0
M  V30 6300 H 574.046 5.63337 2.06814 0
M  V30 6301 H 575.116 4.75249 0.96262 0
M  V30 6302 N 576.459 -0.456382 1.50847 0
M  V30 6303 C 577.389 -1.56025 1.73719 0
M  V30 6304 C 578.37 -1.5967 0.586473 0
M  V30 6305 O 579.555 -1.75702 0.827185 0
M  V30 6306 C 576.685 -2.94251 1.84483 0
M  V30 6307 C 575.639 -3.05471 2.99786 0
M  V30 6308 C 574.965 -4.45489 2.95709 0
M  V30 6309 C 576.265 -2.81318 4.40065 0
M  V30 6310 H 577.959 -1.37138 2.66146 0
M  V30 6311 H 575.505 -0.658299 1.28072 0
M  V30 6312 H 577.458 -3.71417 1.99067 0
M  V30 6313 H 576.182 -3.14328 0.886891 0
M  V30 6314 H 574.841 -2.30741 2.84876 0
M  V30 6315 H 574.489 -4.62505 1.97732 0
M  V30 6316 H 574.189 -4.53929 3.73125 0
M  V30 6317 H 575.713 -5.24655 3.12362 0
M  V30 6318 H 577.127 -3.48226 4.55425 0
M  V30 6319 H 575.524 -3.01188 5.19043 0
M  V30 6320 H 576.594 -1.7706 4.51418 0
M  V30 6321 N 577.937 -1.40673 -0.710563 0
M  V30 6322 C 578.87 -1.35742 -1.83438 0
M  V30 6323 C 579.848 -0.226997 -1.61008 0
M  V30 6324 O 581.032 -0.411477 -1.83954 0
M  V30 6325 C 578.159 -1.11374 -3.19865 0
M  V30 6326 C 577.205 -2.26935 -3.61113 0
M  V30 6327 S 578.038 -3.89352 -3.67648 0
M  V30 6328 C 579.194 -3.67258 -5.06826 0
M  V30 6329 H 579.427 -2.30848 -1.87341 0
M  V30 6330 H 576.96 -1.27018 -0.877831 0
M  V30 6331 H 578.918 -0.980004 -3.9863 0
M  V30 6332 H 577.579 -0.179135 -3.13589 0
M  V30 6333 H 576.772 -2.0554 -4.60184 0
M  V30 6334 H 576.374 -2.36638 -2.89618 0
M  V30 6335 H 578.666 -3.26036 -5.93891 0
M  V30 6336 H 579.609 -4.65878 -5.33257 0
M  V30 6337 H 580.017 -3.0084 -4.77656 0
M  V30 6338 N 579.415 0.9433 -1.26252 0
M  V30 6339 C 580.831 1.21644 -1.03319 0
M  V30 6340 C 581.031 2.0003 0.242983 0
M  V30 6341 O 580.087 2.33838 0.952688 0
M  V30 6342 C 581.4 1.97978 -2.2633 0
M  V30 6343 C 582.948 2.10978 -2.31209 0
M  V30 6344 C 583.423 2.90713 -3.53907 0
M  V30 6345 N 584.914 2.98287 -3.54371 0
M  V30 6346 C 585.649 3.60406 -4.45976 0
M  V30 6347 N 585.145 4.24043 -5.47868 0
M  V30 6348 N 586.938 3.57658 -4.33633 0
M  V30 6349 H 579.089 0.419221 -2.08222 0
M  V30 6350 H 581.352 0.247995 -0.914988 0
M  V30 6351 H 581.058 1.47788 -3.19142 0
M  V30 6352 H 580.932 2.9865 -2.30408 0
M  V30 6353 H 583.319 2.6036 -1.38913 0
M  V30 6354 H 583.4 1.09575 -2.31143 0
M  V30 6355 H 583.044 2.42018 -4.46531 0
M  V30 6356 H 582.974 3.92367 -3.5122 0
M  V30 6357 H 585.465 2.53044 -2.80673 0
M  V30 6358 H 585.778 4.69334 -6.13959 0
M  V30 6359 H 584.123 4.22637 -5.51728 0
M  V30 6360 H 587.314 3.07134 -3.53251 0
M  V30 6361 H 587.487 4.05782 -5.05218 0
M  V30 6362 N 580.893 1.08022 1.14757 0
M  V30 6363 C 581.856 0.71048 2.1791 0
M  V30 6364 C 582.856 -0.252731 1.58801 0
M  V30 6365 O 584.046 -0.0327915 1.74169 0
M  V30 6366 C 581.178 0.0483203 3.40866 0
M  V30 6367 H 582.371 1.62384 2.52134 0
M  V30 6368 H 579.924 0.877595 1.29337 0
M  V30 6369 H 580.659 -0.876959 3.12218 0
M  V30 6370 H 580.444 0.741189 3.85031 0
M  V30 6371 H 581.934 -0.195471 4.17142 0
M  V30 6372 N 582.371 -1.3172 0.865308 0
M  V30 6373 C 583.301 -2.31109 0.333302 0
M  V30 6374 C 584.282 -1.60148 -0.573301 0
M  V30 6375 O 585.467 -1.87882 -0.491305 0
M  V30 6376 C 582.597 -3.44104 -0.470078 0
M  V30 6377 C 581.551 -4.26623 0.343021 0
M  V30 6378 C 580.877 -5.31482 -0.585756 0
M  V30 6379 C 582.177 -4.98001 1.57456 0
M  V30 6380 H 583.871 -2.75855 1.1638 0
M  V30 6381 H 581.417 -1.3262 0.561069 0
M  V30 6382 H 583.37 -4.12682 -0.852752 0
M  V30 6383 H 582.094 -2.98112 -1.33404 0
M  V30 6384 H 580.753 -3.59707 0.707583 0
M  V30 6385 H 580.401 -4.81741 -1.44686 0
M  V30 6386 H 580.101 -5.87582 -0.0456494 0
M  V30 6387 H 581.625 -6.0292 -0.965375 0
M  V30 6388 H 583.039 -5.59201 1.26359 0
M  V30 6389 H 581.436 -5.63876 2.05339 0
M  V30 6390 H 582.506 -4.25253 2.32997 0
M  V30 6391 N 583.85 -0.624285 -1.44708 0
M  V30 6392 C 585.127 -0.0572781 -1.95516 0
M  V30 6393 C 585.507 1.41516 -1.56641 0
M  V30 6394 O 584.855 2.12614 -0.837111 0
M  V30 6395 C 585.065 -0.272944 -3.47931 0
M  V30 6396 C 586.413 -0.162529 -4.24289 0
M  V30 6397 O 587.437 -0.203946 -3.55616 0
M  V30 6398 O 586.296 -0.0616847 -5.46465 0
M  V30 6399 H 583.389 0.0262219 -0.826584 0
M  V30 6400 H 585.936 -0.695512 -1.54793 0
M  V30 6401 H 584.707 -1.29492 -3.69253 0
M  V30 6402 H 584.331 0.399756 -3.95585 0
M  V30 6403 N 585.328 1.53329 -0.364422 0
M  V30 6404 C 586.739 1.86345 0.115039 0
M  V30 6405 C 587.09 1.28505 1.4826 0
M  V30 6406 O 586.215 0.606639 2.07723 0
M  V30 6407 C 586.81 3.38114 0.215522 0
M  V30 6408 C 585.369 3.70932 0.639237 0
M  V30 6409 C 584.516 2.76471 -0.214261 0
M  V30 6410 H 587.467 1.47593 -0.583258 0
M  V30 6411 H 587.488 3.66031 1.0393 0
M  V30 6412 H 587 3.80182 -0.779948 0
M  V30 6413 H 585.101 3.3442 1.64298 0
M  V30 6414 H 585.214 4.77302 0.41465 0
M  V30 6415 H 583.578 2.52724 0.316678 0
M  V30 6416 H 584.361 3.21373 -1.20725 0
M  V30 6417 N 586.806 0.0935595 1.57322 0
M  V30 6418 C 587.736 -0.863062 2.16964 0
M  V30 6419 C 588.717 -1.29528 1.10256 0
M  V30 6420 O 589.902 -1.36245 1.38387 0
M  V30 6421 C 587.032 -2.12276 2.74875 0
M  V30 6422 C 585.986 -1.82921 3.86942 0
M  V30 6423 C 585.312 -3.15707 4.31548 0
M  V30 6424 C 586.612 -1.11737 5.10208 0
M  V30 6425 H 588.306 -0.366145 2.97153 0
M  V30 6426 H 585.852 -0.174673 1.42937 0
M  V30 6427 H 587.805 -2.79634 3.1525 0
M  V30 6428 H 586.529 -2.64248 1.91938 0
M  V30 6429 H 585.188 -1.17961 3.47103 0
M  V30 6430 H 584.836 -3.65563 3.45504 0
M  V30 6431 H 584.536 -2.96849 5.07104 0
M  V30 6432 H 586.06 -3.84226 4.74555 0
M  V30 6433 H 587.474 -1.69203 5.47762 0
M  V30 6434 H 585.871 -1.03064 5.91183 0
M  V30 6435 H 586.941 -0.0998818 4.84797 0
M  V30 6436 N 588.284 -1.56567 -0.180126 0
M  V30 6437 C 589.214 -1.98753 -1.22553 0
M  V30 6438 C 590.195 -0.86175 -1.46656 0
M  V30 6439 O 591.38 -1.12719 -1.58139 0
M  V30 6440 C 588.51 -2.33988 -2.56645 0
M  V30 6441 C 587.464 -3.49445 -2.47128 0
M  V30 6442 C 586.79 -3.70397 -3.8563 0
M  V30 6443 C 588.09 -4.83171 -1.98352 0
M  V30 6444 H 589.784 -2.86332 -0.874896 0
M  V30 6445 H 587.33 -1.37757 -0.419414 0
M  V30 6446 H 589.283 -2.62097 -3.29974 0
M  V30 6447 H 588.007 -1.43309 -2.93479 0
M  V30 6448 H 586.666 -3.2145 -1.76254 0
M  V30 6449 H 586.314 -2.77023 -4.19842 0
M  V30 6450 H 586.014 -4.48077 -3.80132 0
M  V30 6451 H 587.538 -4.00897 -4.60558 0
M  V30 6452 H 588.952 -5.10213 -2.61449 0
M  V30 6453 H 587.349 -5.64425 -2.03823 0
M  V30 6454 H 588.419 -4.75753 -0.937402 0
M  V30 6455 N 589.762 0.448376 -1.51087 0
M  V30 6456 C 590.992 1.21965 -1.66757 0
M  V30 6457 C 591.4 1.85748 -0.359753 0
M  V30 6458 O 590.743 1.71022 0.670604 0
M  V30 6459 C 590.805 2.35284 -2.71812 0
M  V30 6460 C 590.469 1.91957 -4.1473 0
M  V30 6461 C 591.466 1.42921 -4.9987 0
M  V30 6462 C 589.151 1.99985 -4.60772 0
M  V30 6463 C 591.145 1.02485 -6.29107 0
M  V30 6464 C 588.832 1.5916 -5.90009 0
M  V30 6465 C 589.83 1.10491 -6.74004 0
M  V30 6466 O 589.518 0.702413 -8.00825 0
M  V30 6467 H 589.25 0.374125 -0.563034 0
M  V30 6468 H 591.804 0.538927 -1.98204 0
M  V30 6469 H 590.034 3.06599 -2.35657 0
M  V30 6470 H 591.723 2.97184 -2.76472 0
M  V30 6471 H 592.489 1.36123 -4.65506 0
M  V30 6472 H 588.368 2.36814 -3.95525 0
M  V30 6473 H 591.912 0.644271 -6.94619 0
M  V30 6474 H 587.809 1.65626 -6.2389 0
M  V30 6475 H 588.577 0.829248 -8.14288 0
M  V30 6476 N 591.24 1.41047 0.703093 0
M  V30 6477 C 592.15 1.44645 1.84703 0
M  V30 6478 C 593.166 0.337778 1.7069 0
M  V30 6479 O 594.342 0.584327 1.92737 0
M  V30 6480 C 591.407 1.31928 3.20618 0
M  V30 6481 C 590.468 2.53047 3.46794 0
M  V30 6482 C 589.701 2.40927 4.76224 0
M  V30 6483 O 589.924 1.42978 5.5219 0
M  V30 6484 O 588.858 3.30543 5.03016 0
M  V30 6485 H 592.684 2.41139 1.84624 0
M  V30 6486 H 590.269 1.22504 0.855167 0
M  V30 6487 H 592.151 1.27092 4.01778 0
M  V30 6488 H 590.826 0.385469 3.21397 0
M  V30 6489 H 589.733 2.6346 2.65593 0
M  V30 6490 H 591.066 3.45231 3.50822 0
M  V30 6491 N 592.718 -0.936591 1.26751 0
M  V30 6492 C 593.665 -2.03597 1.08706 0
M  V30 6493 C 594.635 -1.66097 -0.00926542 0
M  V30 6494 O 595.82 -1.90199 0.151377 0
M  V30 6495 C 592.96 -3.3727 0.73094 0
M  V30 6496 C 592.073 -3.87778 1.90399 0
M  V30 6497 C 591.208 -5.09859 1.49056 0
M  V30 6498 C 590.247 -5.5264 2.63164 0
M  V30 6499 N 589.384 -6.65921 2.22471 0
M  V30 6500 H 594.224 -2.18364 2.02784 0
M  V30 6501 H 591.761 -1.06985 1.00958 0
M  V30 6502 H 593.719 -4.14128 0.505328 0
M  V30 6503 H 592.349 -3.22337 -0.172868 0
M  V30 6504 H 591.401 -3.07279 2.2424 0
M  V30 6505 H 592.713 -4.15464 2.76028 0
M  V30 6506 H 591.867 -5.9419 1.22567 0
M  V30 6507 H 590.606 -4.8393 0.60524 0
M  V30 6508 H 589.611 -4.66863 2.90377 0
M  V30 6509 H 590.836 -5.80568 3.52303 0
M  V30 6510 H 588.782 -6.41667 1.36379 0
M  V30 6511 H 588.699 -6.93216 3.01641 0
M  V30 6512 H 589.967 -7.53616 1.99205 0
M  V30 6513 N 594.196 -1.08629 -1.14182 0
M  V30 6514 C 595.106 -0.730126 -2.22949 0
M  V30 6515 C 596.122 0.26436 -1.7198 0
M  V30 6516 O 597.298 0.107742 -2.01112 0
M  V30 6517 C 594.363 -0.147227 -3.46387 0
M  V30 6518 C 593.424 -1.19662 -4.12286 0
M  V30 6519 C 592.657 -0.641437 -5.29831 0
M  V30 6520 O 592.88 0.538351 -5.67854 0
M  V30 6521 O 591.814 -1.39257 -5.85569 0
M  V30 6522 H 595.64 -1.63753 -2.55771 0
M  V30 6523 H 593.225 -0.860118 -1.22157 0
M  V30 6524 H 595.107 0.174923 -4.21037 0
M  V30 6525 H 593.782 0.733304 -3.15285 0
M  V30 6526 H 592.689 -1.57133 -3.395 0
M  V30 6527 H 594.022 -2.0495 -4.475 0
M  V30 6528 N 595.674 1.31259 -0.872281 0
M  V30 6529 C 596.902 2.00795 -0.498907 0
M  V30 6530 C 597.317 1.65464 0.909238 0
M  V30 6531 O 596.674 0.885073 1.59602 0
M  V30 6532 C 596.725 3.55625 -0.649092 0
M  V30 6533 O 596.446 3.89692 -2.00179 0
M  V30 6534 C 597.947 4.42434 -0.277034 0
M  V30 6535 H 595.167 0.642299 -0.194145 0
M  V30 6536 H 597.711 1.67438 -1.17408 0
M  V30 6537 H 595.866 3.87394 -0.0214402 0
M  V30 6538 H 596.28 4.84407 -2.01122 0
M  V30 6539 H 597.754 5.50299 -0.433064 0
M  V30 6540 H 598.231 4.32146 0.783989 0
M  V30 6541 H 598.837 4.16086 -0.880483 0
M  V30 6542 N 597.152 0.631951 1.44375 0
M  V30 6543 C 598.082 -0.0593243 2.33425 0
M  V30 6544 C 599.063 -0.833964 1.48253 0
M  V30 6545 O 600.248 -0.799682 1.76971 0
M  V30 6546 C 597.378 -1.04096 3.31333 0
M  V30 6547 C 596.332 -0.377899 4.26328 0
M  V30 6548 C 595.658 -1.4695 5.14111 0
M  V30 6549 C 596.958 0.716371 5.17364 0
M  V30 6550 H 598.652 0.684287 2.91475 0
M  V30 6551 H 596.198 0.330518 1.40156 0
M  V30 6552 H 598.151 -1.53331 3.92514 0
M  V30 6553 H 596.875 -1.81547 2.71493 0
M  V30 6554 H 595.534 0.0938054 3.6648 0
M  V30 6555 H 595.182 -2.2349 4.50623 0
M  V30 6556 H 594.882 -1.03121 5.78481 0
M  V30 6557 H 596.406 -1.96363 5.78164 0
M  V30 6558 H 597.82 0.307089 5.72477 0
M  V30 6559 H 596.217 1.07784 5.90341 0
M  V30 6560 H 597.287 1.58316 4.58327 0
M  V30 6561 N 598.631 -1.53133 0.372548 0
M  V30 6562 C 599.563 -2.23557 -0.505444 0
M  V30 6563 C 600.576 -1.25211 -1.04049 0
M  V30 6564 O 601.765 -1.51391 -0.945675 0
M  V30 6565 C 598.865 -2.92516 -1.71136 0
M  V30 6566 C 598.038 -4.17428 -1.30661 0
M  V30 6567 C 597.097 -4.69535 -2.37536 0
M  V30 6568 O 596.123 -5.33042 -1.99637 0
M  V30 6569 N 597.325 -4.47947 -3.6922 0
M  V30 6570 H 600.09 -2.9954 0.0978259 0
M  V30 6571 H 597.651 -1.60684 0.198068 0
M  V30 6572 H 599.643 -3.24281 -2.42124 0
M  V30 6573 H 598.213 -2.19944 -2.22134 0
M  V30 6574 H 597.433 -3.91888 -0.426292 0
M  V30 6575 H 598.721 -4.98622 -1.01259 0
M  V30 6576 H 598.119 -3.97219 -4.02783 0
M  V30 6577 H 596.676 -4.84245 -4.36292 0
M  V30 6578 N 600.109 -0.101901 -1.5727 0
M  V30 6579 C 601.339 0.567568 -1.98651 0
M  V30 6580 C 601.747 1.61839 -0.980037 0
M  V30 6581 O 601.09 1.83661 0.0376564 0
M  V30 6582 C 601.152 1.26742 -3.36417 0
M  V30 6583 C 600.816 0.366561 -4.55528 0
M  V30 6584 C 601.813 -0.388022 -5.1845 0
M  V30 6585 C 599.498 0.282629 -5.01504 0
M  V30 6586 C 601.492 -1.21445 -6.25724 0
M  V30 6587 C 599.179 -0.547443 -6.08643 0
M  V30 6588 C 600.177 -1.29462 -6.70618 0
M  V30 6589 O 599.865 -2.11095 -7.7569 0
M  V30 6590 H 599.597 0.156282 -0.657687 0
M  V30 6591 H 602.151 -0.179912 -2.04611 0
M  V30 6592 H 600.381 2.06162 -3.27161 0
M  V30 6593 H 602.07 1.8321 -3.622 0
M  V30 6594 H 602.836 -0.332949 -4.83856 0
M  V30 6595 H 598.715 0.853868 -4.53023 0
M  V30 6596 H 602.259 -1.79814 -6.74027 0
M  V30 6597 H 598.156 -0.603971 -6.42668 0
M  V30 6598 H 598.924 -2.03851 -7.92709 0
M  V30 6599 N 601.587 1.56661 0.17182 0
M  V30 6600 C 602.834 1.81965 0.888529 0
M  V30 6601 C 603.162 0.6789 1.82267 0
M  V30 6602 O 602.417 -0.333875 1.92831 0
M  V30 6603 C 602.716 3.13435 1.71736 0
M  V30 6604 C 602.382 4.41159 0.932184 0
M  V30 6605 C 601.044 4.75851 0.715481 0
M  V30 6606 C 603.396 5.19803 0.381387 0
M  V30 6607 C 600.724 5.86666 -0.063126 0
M  V30 6608 C 603.076 6.31433 -0.384129 0
M  V30 6609 C 601.74 6.64692 -0.611637 0
M  V30 6610 H 601.01 0.665859 0.325136 0
M  V30 6611 H 603.657 1.90884 0.153495 0
M  V30 6612 H 601.962 2.99857 2.52177 0
M  V30 6613 H 603.659 3.30224 2.27493 0
M  V30 6614 H 600.249 4.13947 1.11112 0
M  V30 6615 H 604.433 4.93396 0.536148 0
M  V30 6616 H 599.689 6.10892 -0.249136 0
M  V30 6617 H 603.863 6.91577 -0.818185 0
M  V30 6618 H 601.49 7.50398 -1.21684 0
M  V30 6619 N 603.065 -0.440357 1.51323 0
M  V30 6620 C 603.997 -1.55254 1.68609 0
M  V30 6621 C 605.01 -1.52614 0.566812 0
M  V30 6622 O 606.199 -1.57445 0.841032 0
M  V30 6623 C 603.299 -2.94169 1.68279 0
M  V30 6624 C 602.472 -3.21346 2.96742 0
M  V30 6625 C 601.531 -4.3997 2.8864 0
M  V30 6626 O 600.557 -4.38771 3.62586 0
M  V30 6627 N 601.759 -5.43367 2.04285 0
M  V30 6628 H 604.524 -1.40831 2.6455 0
M  V30 6629 H 602.085 -0.629251 1.49171 0
M  V30 6630 H 604.077 -3.71543 1.60431 0
M  V30 6631 H 602.647 -3.02205 0.799441 0
M  V30 6632 H 601.867 -2.32299 3.18482 0
M  V30 6633 H 603.155 -3.3633 3.81785 0
M  V30 6634 H 602.553 -5.47176 1.43578 0
M  V30 6635 H 601.11 -6.19605 2.02318 0
M  V30 6636 N 604.543 -1.41418 -0.695603 0
M  V30 6637 C 605.771 -1.4413 -1.48439 0
M  V30 6638 C 606.186 -0.0465698 -1.88743 0
M  V30 6639 O 605.543 0.934117 -1.56782 0
M  V30 6640 C 605.594 -2.34998 -2.74696 0
M  V30 6641 O 605.315 -3.69043 -2.36091 0
M  V30 6642 C 606.816 -2.46513 -3.68438 0
M  V30 6643 H 604.036 -0.490905 -0.457442 0
M  V30 6644 H 606.58 -1.85702 -0.856454 0
M  V30 6645 H 604.735 -1.96735 -3.33728 0
M  V30 6646 H 605.149 -4.17505 -3.17474 0
M  V30 6647 H 606.623 -3.1426 -4.53811 0
M  V30 6648 H 607.1 -1.49638 -4.12922 0
M  V30 6649 H 607.706 -2.85412 -3.1531 0
M  V30 6650 N 606.021 0.929856 -1.27246 0
M  V30 6651 C 606.951 2.04722 -1.12299 0
M  V30 6652 C 607.932 1.70082 -0.0250464 0
M  V30 6653 O 609.117 1.93176 -0.199141 0
M  V30 6654 C 606.247 3.38721 -0.767145 0
M  V30 6655 C 605.201 3.87466 -1.81808 0
M  V30 6656 C 604.527 5.18246 -1.31626 0
M  V30 6657 C 605.827 4.11095 -3.22177 0
M  V30 6658 H 607.521 2.17485 -2.05769 0
M  V30 6659 H 605.067 1.04503 -0.990715 0
M  V30 6660 H 607.02 4.16366 -0.649413 0
M  V30 6661 H 605.744 3.25967 0.203259 0
M  V30 6662 H 604.403 3.12012 -1.92468 0
M  V30 6663 H 604.051 5.01881 -0.335378 0
M  V30 6664 H 603.751 5.51829 -2.01887 0
M  V30 6665 H 605.275 5.98462 -1.21143 0
M  V30 6666 H 606.689 4.79316 -3.1453 0
M  V30 6667 H 605.086 4.55982 -3.90129 0
M  V30 6668 H 606.156 3.16468 -3.67391 0
M  V30 6669 N 607.499 1.09233 1.13605 0
M  V30 6670 C 608.446 0.729921 2.18954 0
M  V30 6671 C 609.416 -0.287916 1.63586 0
M  V30 6672 O 610.601 -0.170003 1.90041 0
M  V30 6673 C 607.741 0.154489 3.44754 0
M  V30 6674 C 606.854 1.22613 4.14234 0
M  V30 6675 C 605.989 0.613657 5.27644 0
M  V30 6676 C 605.028 1.66674 5.8897 0
M  V30 6677 N 604.165 1.07545 6.93814 0
M  V30 6678 H 609.005 1.63257 2.49302 0
M  V30 6679 H 606.542 0.815693 1.22413 0
M  V30 6680 H 608.5 -0.196923 4.16735 0
M  V30 6681 H 607.13 -0.711433 3.14863 0
M  V30 6682 H 606.182 1.69485 3.40557 0
M  V30 6683 H 607.494 2.0238 4.55899 0
M  V30 6684 H 606.648 0.210976 6.06333 0
M  V30 6685 H 605.387 -0.215584 4.87223 0
M  V30 6686 H 604.392 2.07899 5.08978 0
M  V30 6687 H 605.617 2.49861 6.31464 0
M  V30 6688 H 603.563 0.267451 6.55455 0
M  V30 6689 H 603.48 1.81011 7.3401 0
M  V30 6690 H 604.748 0.698906 7.7636 0
M  V30 6691 N 608.977 -1.30795 0.87923 0
M  V30 6692 C 609.94 -2.26563 0.346676 0
M  V30 6693 C 610.94 -1.52578 -0.507597 0
M  V30 6694 O 612.13 -1.71318 -0.315575 0
M  V30 6695 C 609.262 -3.37115 -0.506611 0
M  V30 6696 H 610.455 -2.75183 1.19223 0
M  V30 6697 H 608.008 -1.41886 0.655598 0
M  V30 6698 H 608.743 -2.93802 -1.37299 0
M  V30 6699 H 608.528 -3.91959 0.105218 0
M  V30 6700 H 610.018 -4.08412 -0.871192 0
M  V30 6701 N 610.455 -0.639598 -1.44038 0
M  V30 6702 C 611.701 -0.147698 -2.02261 0
M  V30 6703 C 612.034 1.23031 -1.50256 0
M  V30 6704 O 611.309 1.81847 -0.690068 0
M  V30 6705 C 611.592 -0.14362 -3.59813 0
M  V30 6706 C 611.445 -1.55458 -4.22082 0
M  V30 6707 C 612.764 0.527317 -4.36929 0
M  V30 6708 H 609.883 -0.0551453 -0.734934 0
M  V30 6709 H 612.525 -0.817688 -1.71505 0
M  V30 6710 H 610.675 0.426898 -3.86147 0
M  V30 6711 H 612.347 -2.17464 -4.06826 0
M  V30 6712 H 610.59 -2.10594 -3.79253 0
M  V30 6713 H 611.261 -1.50369 -5.31124 0
M  V30 6714 H 613.737 0.0420504 -4.16079 0
M  V30 6715 H 612.613 0.499389 -5.46624 0
M  V30 6716 H 612.874 1.59914 -4.12165 0
M  V30 6717 N 611.933 1.52934 -0.380664 0
M  V30 6718 C 613.21 1.93845 0.261417 0
M  V30 6719 C 613.59 1.31544 1.65104 0
M  V30 6720 O 612.938 0.480234 2.23397 0
M  V30 6721 C 613.148 3.47739 0.296466 0
M  V30 6722 C 614.496 4.21284 0.529578 0
M  V30 6723 O 615.52 3.54199 0.377041 0
M  V30 6724 O 614.379 5.40195 0.827753 0
M  V30 6725 H 611.473 0.811318 0.160285 0
M  V30 6726 H 614.019 1.64042 -0.434544 0
M  V30 6727 H 612.791 3.85395 -0.67724 0
M  V30 6728 H 612.414 3.8382 1.0377 0
M  V30 6729 N 613.412 0.11024 1.57214 0
M  V30 6730 C 614.823 -0.416527 1.81994 0
M  V30 6731 C 615.174 -1.67183 1.02686 0
M  V30 6732 O 614.299 -2.14823 0.260782 0
M  V30 6733 C 614.894 -0.762466 3.30109 0
M  V30 6734 C 613.453 -1.23391 3.556 0
M  V30 6735 C 612.6 -0.238166 2.76275 0
M  V30 6736 H 615.551 0.335491 1.55113 0
M  V30 6737 H 615.572 -1.62068 3.44259 0
M  V30 6738 H 615.084 0.151346 3.87805 0
M  V30 6739 H 613.185 -2.16492 3.03253 0
M  V30 6740 H 613.298 -1.18528 4.64207 0
M  V30 6741 H 611.662 -0.723421 2.4421 0
M  V30 6742 H 612.445 0.668591 3.36727 0
M  V30 6743 N 614.89 -1.56749 -0.16351 0
M  V30 6744 C 615.823 -1.9213 -1.23132 0
M  V30 6745 C 616.801 -0.785047 -1.42393 0
M  V30 6746 O 617.985 -1.0391 -1.57273 0
M  V30 6747 C 615.112 -2.17901 -2.59301 0
M  V30 6748 C 614.158 -3.40576 -2.5673 0
M  V30 6749 S 614.991 -4.94689 -2.05045 0
M  V30 6750 C 616.147 -5.23564 -3.42975 0
M  V30 6751 H 616.38 -2.824 -0.929383 0
M  V30 6752 H 613.913 -1.4994 -0.368418 0
M  V30 6753 H 615.871 -2.33429 -3.3767 0
M  V30 6754 H 614.532 -1.28324 -2.86691 0
M  V30 6755 H 613.725 -3.55833 -3.5693 0
M  V30 6756 H 613.327 -3.24204 -1.86462 0
M  V30 6757 H 615.619 -5.16019 -4.3901 0
M  V30 6758 H 616.562 -6.25134 -3.32586 0
M  V30 6759 H 616.97 -4.51113 -3.39348 0
M  V30 6760 N 616.368 0.432326 -1.51554 0
M  V30 6761 C 617.784 0.769195 -1.39841 0
M  V30 6762 C 617.984 1.95584 -0.484675 0
M  V30 6763 O 617.04 2.52433 0.0582829 0
M  V30 6764 C 618.353 1.04487 -2.81963 0
M  V30 6765 C 619.901 1.149 -2.91148 0
M  V30 6766 C 620.376 1.45758 -4.34187 0
M  V30 6767 N 621.867 1.52671 -4.37317 0
M  V30 6768 C 622.602 1.78129 -5.4503 0
M  V30 6769 N 622.098 2.01345 -6.62897 0
M  V30 6770 N 623.891 1.79953 -5.32516 0
M  V30 6771 H 616.042 -0.349122 -2.09511 0
M  V30 6772 H 618.305 -0.0938113 -0.943347 0
M  V30 6773 H 618.011 0.24557 -3.50842 0
M  V30 6774 H 617.885 1.97119 -3.21596 0
M  V30 6775 H 620.272 1.93891 -2.22464 0
M  V30 6776 H 620.353 0.201568 -2.55005 0
M  V30 6777 H 619.997 0.672917 -5.03423 0
M  V30 6778 H 619.927 2.41715 -4.67848 0
M  V30 6779 H 622.418 1.36612 -3.52343 0
M  V30 6780 H 622.731 2.20155 -7.40778 0
M  V30 6781 H 621.076 1.98657 -6.66003 0
M  V30 6782 H 624.267 1.61337 -4.39418 0
M  V30 6783 H 624.44 1.99455 -6.1654 0
M  V30 6784 N 617.846 1.41785 0.688094 0
M  V30 6785 C 618.809 1.43936 1.78368 0
M  V30 6786 C 619.809 0.328866 1.57401 0
M  V30 6787 O 620.999 0.589093 1.63937 0
M  V30 6788 C 618.131 1.25804 3.16838 0
M  V30 6789 H 619.324 2.41472 1.77852 0
M  V30 6790 H 616.877 1.28037 0.896448 0
M  V30 6791 H 617.612 0.291386 3.22988 0
M  V30 6792 H 617.397 2.06272 3.33458 0
M  V30 6793 H 618.887 1.30162 3.96797 0
M  V30 6794 N 619.324 -0.923095 1.27737 0
M  V30 6795 C 620.552 -1.70525 1.17171 0
M  V30 6796 C 620.967 -1.86847 -0.270881 0
M  V30 6797 O 620.324 -1.38879 -1.18401 0
M  V30 6798 C 620.375 -3.10242 1.85559 0
M  V30 6799 O 620.096 -2.94683 3.24182 0
M  V30 6800 C 621.597 -4.04586 1.81176 0
M  V30 6801 H 618.817 -0.533347 0.407163 0
M  V30 6802 H 621.361 -1.15599 1.68692 0
M  V30 6803 H 619.516 -3.62014 1.3793 0
M  V30 6804 H 619.93 -3.83045 3.58297 0
M  V30 6805 H 621.404 -5.00119 2.33633 0
M  V30 6806 H 621.881 -4.3218 0.782099 0
M  V30 6807 H 622.487 -3.58741 2.2844 0
M  V30 6808 N 620.802 -1.09834 -1.13024 0
M  V30 6809 C 622.032 -0.857657 -1.87957 0
M  V30 6810 C 622.44 0.595008 -1.796 0
M  V30 6811 O 621.783 1.42158 -1.16347 0
M  V30 6812 C 621.845 -1.21949 -3.38185 0
M  V30 6813 C 621.509 -2.67791 -3.7032 0
M  V30 6814 C 622.506 -3.66036 -3.69207 0
M  V30 6815 C 620.191 -3.04019 -3.99847 0
M  V30 6816 C 622.185 -4.98533 -3.9717 0
M  V30 6817 C 619.872 -4.36706 -4.27471 0
M  V30 6818 C 620.87 -5.33772 -4.26118 0
M  V30 6819 O 620.558 -6.64072 -4.53061 0
M  V30 6820 H 620.29 -0.308009 -0.601753 0
M  V30 6821 H 622.844 -1.46496 -1.43973 0
M  V30 6822 H 621.074 -0.555249 -3.82693 0
M  V30 6823 H 622.763 -0.957281 -3.9445 0
M  V30 6824 H 623.529 -3.39392 -3.46465 0
M  V30 6825 H 619.408 -2.29096 -4.00045 0
M  V30 6826 H 622.952 -5.74288 -3.96029 0
M  V30 6827 H 618.849 -4.63091 -4.49685 0
M  V30 6828 H 619.617 -6.69608 -4.7071 0
M  V30 6829 N 622.28 1.30327 -0.886154 0
M  V30 6830 C 623.21 2.30549 -0.370028 0
M  V30 6831 C 624.191 1.61039 0.547751 0
M  V30 6832 O 625.376 1.8864 0.461353 0
M  V30 6833 C 622.506 3.44808 0.415275 0
M  V30 6834 C 621.46 4.26024 -0.41085 0
M  V30 6835 C 620.786 5.32347 0.501128 0
M  V30 6836 C 622.086 4.95433 -1.65359 0
M  V30 6837 H 623.78 2.73969 -1.20754 0
M  V30 6838 H 621.326 1.3171 -0.582097 0
M  V30 6839 H 623.279 4.13986 0.78699 0
M  V30 6840 H 622.003 3.00197 1.28644 0
M  V30 6841 H 620.662 3.58535 -0.764719 0
M  V30 6842 H 620.31 4.83982 1.37004 0
M  V30 6843 H 620.01 5.87581 -0.0478356 0
M  V30 6844 H 621.534 6.0438 0.869333 0
M  V30 6845 H 622.948 5.5712 -1.35239 0
M  V30 6846 H 621.345 5.60537 -2.14284 0
M  V30 6847 H 622.415 4.21493 -2.39733 0
M  V30 6848 N 623.758 0.647228 1.43697 0
M  V30 6849 C 625.035 0.0883758 1.954 0
M  V30 6850 C 625.415 -1.39006 1.58873 0
M  V30 6851 O 624.763 -2.11255 0.87083 0
M  V30 6852 C 624.973 0.328263 3.47453 0
M  V30 6853 C 626.321 0.230009 4.23977 0
M  V30 6854 O 627.345 0.260496 3.55246 0
M  V30 6855 O 626.204 0.148615 5.46298 0
M  V30 6856 H 623.298 -0.0130683 0.826897 0
M  V30 6857 H 625.844 0.72005 1.53666 0
M  V30 6858 H 624.616 1.3535 3.67146 0
M  V30 6859 H 624.239 -0.336772 3.96171 0
M  V30 6860 N 625.236 -1.5273 0.388769 0
M  V30 6861 C 626.513 -1.93981 -0.251133 0
M  V30 6862 C 626.893 -1.32418 -1.64404 0
M  V30 6863 O 626.241 -0.492074 -2.23139 0
M  V30 6864 C 626.451 -3.47891 -0.27802 0
M  V30 6865 C 627.799 -4.21559 -0.507229 0
M  V30 6866 O 628.823 -3.54394 -0.358252 0
M  V30 6867 O 627.682 -5.40626 -0.799094 0
M  V30 6868 H 624.776 -0.812157 -0.15598 0
M  V30 6869 H 627.322 -1.63809 0.443237 0
M  V30 6870 H 626.094 -3.8503 0.697669 0
M  V30 6871 H 625.717 -3.84364 -1.01733 0
M  V30 6872 N 626.714 -0.118576 -1.57153 0
M  V30 6873 C 627.644 0.828436 -2.1831 0
M  V30 6874 C 628.625 1.27758 -1.12303 0
M  V30 6875 O 629.81 1.34026 -1.40537 0
M  V30 6876 C 626.94 2.07876 -2.78217 0
M  V30 6877 C 625.894 1.76742 -3.89803 0
M  V30 6878 C 625.22 3.08801 -4.36516 0
M  V30 6879 C 626.52 1.03606 -5.11921 0
M  V30 6880 H 628.214 0.318824 -2.97698 0
M  V30 6881 H 625.76 0.151911 -1.43196 0
M  V30 6882 H 627.713 2.74584 -3.19659 0
M  V30 6883 H 626.437 2.61161 -1.96118 0
M  V30 6884 H 625.096 1.12424 -3.48936 0
M  V30 6885 H 624.744 3.6002 -3.51276 0
M  V30 6886 H 624.444 2.88743 -5.11763 0
M  V30 6887 H 625.968 3.76627 -4.80608 0
M  V30 6888 H 627.382 1.60467 -5.50385 0
M  V30 6889 H 625.779 0.936454 -5.92748 0
M  V30 6890 H 626.849 0.0227421 -4.84895 0
M  V30 6891 N 628.193 1.56834 0.155195 0
M  V30 6892 C 629.609 1.51315 0.50755 0
M  V30 6893 C 629.809 0.825614 1.83809 0
M  V30 6894 O 628.865 0.39271 2.49427 0
M  V30 6895 C 630.178 2.96074 0.52542 0
M  V30 6896 C 631.726 3.06968 0.611505 0
M  V30 6897 C 632.201 4.53218 0.660115 0
M  V30 6898 N 633.692 4.5753 0.722564 0
M  V30 6899 C 634.427 5.68056 0.781023 0
M  V30 6900 N 633.923 6.88173 0.799327 0
M  V30 6901 N 635.716 5.56068 0.821278 0
M  V30 6902 H 627.867 1.9993 -0.717063 0
M  V30 6903 H 630.13 0.911507 -0.260496 0
M  V30 6904 H 629.836 3.49599 -0.383875 0
M  V30 6905 H 629.71 3.51587 1.36624 0
M  V30 6906 H 632.097 2.53468 1.51122 0
M  V30 6907 H 632.178 2.54513 -0.256306 0
M  V30 6908 H 631.822 5.07354 -0.23541 0
M  V30 6909 H 631.752 5.03447 1.5443 0
M  V30 6910 H 634.243 3.71054 0.716049 0
M  V30 6911 H 634.556 7.6816 0.845553 0
M  V30 6912 H 632.901 6.90751 0.767337 0
M  V30 6913 H 636.092 4.61142 0.804091 0
M  V30 6914 H 636.265 6.42223 0.863372 0
M  V30 6915 N 629.671 -0.424282 1.51781 0
M  V30 6916 C 630.896 -1.19928 1.6921 0
M  V30 6917 C 631.321 -1.8392 0.394355 0
M  V30 6918 O 630.679 -1.69371 -0.646778 0
M  V30 6919 C 630.727 -2.24937 2.81843 0
M  V30 6920 O 629.831 -3.3073 2.46356 0
M  V30 6921 H 629.172 -0.35078 0.563781 0
M  V30 6922 H 631.702 -0.499401 1.98412 0
M  V30 6923 H 631.712 -2.69512 3.06312 0
M  V30 6924 H 630.387 -1.77742 3.76006 0
M  V30 6925 H 628.964 -2.9154 2.32505 0
M  V30 6926 N 631.149 -1.42148 -0.680565 0
M  V30 6927 C 632.096 -1.45175 -1.79424 0
M  V30 6928 C 633.066 -0.304352 -1.63288 0
M  V30 6929 O 634.251 -0.507591 -1.83924 0
M  V30 6930 C 631.391 -1.35429 -3.17416 0
M  V30 6931 C 630.504 -2.60158 -3.4488 0
M  V30 6932 C 629.639 -2.42596 -4.72568 0
M  V30 6933 C 628.678 -3.62727 -4.93047 0
M  V30 6934 N 627.815 -3.44143 -6.11973 0
M  V30 6935 H 632.655 -2.40349 -1.76172 0
M  V30 6936 H 630.192 -1.19334 -0.860107 0
M  V30 6937 H 632.15 -1.27777 -3.97151 0
M  V30 6938 H 630.78 -0.438536 -3.19807 0
M  V30 6939 H 629.832 -2.78199 -2.5944 0
M  V30 6940 H 631.144 -3.49473 -3.55908 0
M  V30 6941 H 630.298 -2.32497 -5.60384 0
M  V30 6942 H 629.037 -1.50761 -4.63813 0
M  V30 6943 H 628.042 -3.73264 -4.03676 0
M  V30 6944 H 629.267 -4.55534 -5.03652 0
M  V30 6945 H 627.213 -2.5502 -6.04401 0
M  V30 6946 H 627.13 -4.27041 -6.23836 0
M  V30 6947 H 628.398 -3.37845 -7.02482 0
M  V30 6948 N 632.627 0.916307 -1.28225 0
M  V30 6949 C 633.874 1.66518 -1.1523 0
M  V30 6950 C 634.202 1.92178 0.299632 0
M  V30 6951 O 633.457 1.51842 1.2346 0
M  V30 6952 C 633.756 3.03125 -1.8934 0
M  V30 6953 C 633.422 2.97135 -3.39148 0
M  V30 6954 C 632.084 2.95208 -3.80007 0
M  V30 6955 C 634.436 2.87574 -4.34685 0
M  V30 6956 C 631.764 2.81518 -5.14747 0
M  V30 6957 C 634.116 2.75424 -5.69495 0
M  V30 6958 C 632.78 2.71854 -6.09632 0
M  V30 6959 H 632.05 0.609334 -0.421655 0
M  V30 6960 H 634.697 1.06776 -1.58969 0
M  V30 6961 H 633.002 3.66639 -1.38143 0
M  V30 6962 H 634.699 3.59968 -1.76704 0
M  V30 6963 H 631.289 2.99428 -3.06661 0
M  V30 6964 H 635.473 2.88152 -4.04082 0
M  V30 6965 H 630.729 2.77148 -5.44976 0
M  V30 6966 H 634.903 2.66993 -6.43185 0
M  V30 6967 H 632.53 2.61003 -7.1399 0
M  V30 6968 N 634.105 1.10431 1.1244 0
M  V30 6969 C 635.035 0.775143 2.20258 0
M  V30 6970 C 636.016 -0.25186 1.68225 0
M  V30 6971 O 637.201 -0.117637 1.93843 0
M  V30 6972 C 634.331 0.206133 3.46688 0
M  V30 6973 C 633.285 1.16382 4.11873 0
M  V30 6974 C 632.611 0.456014 5.32752 0
M  V30 6975 C 633.911 2.5104 4.58013 0
M  V30 6976 H 635.605 1.67665 2.4805 0
M  V30 6977 H 633.151 0.807595 1.19222 0
M  V30 6978 H 635.104 -0.036291 4.21384 0
M  V30 6979 H 633.828 -0.730614 3.18323 0
M  V30 6980 H 632.487 1.39169 3.39157 0
M  V30 6981 H 632.135 -0.485203 5.00654 0
M  V30 6982 H 631.835 1.09466 5.77314 0
M  V30 6983 H 633.359 0.222135 6.10196 0
M  V30 6984 H 634.773 2.32401 5.24083 0
M  V30 6985 H 633.17 3.10789 5.13352 0
M  V30 6986 H 634.24 3.11039 3.71998 0
M  V30 6987 N 635.583 -1.29855 0.893053 0
M  V30 6988 C 636.513 -2.3035 0.382249 0
M  V30 6989 C 637.494 -1.61328 -0.539203 0
M  V30 6990 O 638.679 -1.88882 -0.451342 0
M  V30 6991 C 635.809 -3.45024 -0.396983 0
M  V30 6992 C 634.763 -4.258 0.433437 0
M  V30 6993 C 634.089 -5.32605 -0.472889 0
M  V30 6994 C 635.389 -4.94549 1.67984 0
M  V30 6995 H 637.083 -2.73325 1.22205 0
M  V30 6996 H 634.629 -1.314 0.589073 0
M  V30 6997 H 636.582 -4.14398 -0.765024 0
M  V30 6998 H 635.306 -3.00875 -1.2705 0
M  V30 6999 H 633.965 -3.58125 0.783723 0
M  V30 7000 H 633.613 -4.84702 -1.34435 0
M  V30 7001 H 633.313 -5.87547 0.0789958 0
M  V30 7002 H 634.837 -6.04832 -0.837269 0
M  V30 7003 H 636.251 -5.56395 1.38192 0
M  V30 7004 H 634.648 -5.59393 2.17254 0
M  V30 7005 H 635.718 -4.20215 2.41965 0
M  V30 7006 N 637.061 -0.65484 -1.43351 0
M  V30 7007 C 637.971 0.0363603 -2.34572 0
M  V30 7008 C 638.987 0.810432 -1.53974 0
M  V30 7009 O 640.163 0.757308 -1.86619 0
M  V30 7010 C 637.228 0.989733 -3.32273 0
M  V30 7011 C 636.289 0.212414 -4.28774 0
M  V30 7012 C 635.522 1.12038 -5.21808 0
M  V30 7013 O 635.745 2.35967 -5.19303 0
M  V30 7014 O 634.679 0.59191 -5.98982 0
M  V30 7015 H 638.505 -0.714527 -2.95175 0
M  V30 7016 H 636.09 -0.415029 -1.4352 0
M  V30 7017 H 637.972 1.53759 -3.92347 0
M  V30 7018 H 636.647 1.72082 -2.74171 0
M  V30 7019 H 635.554 -0.379062 -3.72175 0
M  V30 7020 H 636.887 -0.479138 -4.89862 0
M  V30 7021 N 638.539 1.52521 -0.396863 0
M  V30 7022 C 639.487 2.28217 0.44943 0
M  V30 7023 C 640.481 1.32416 1.05652 0
M  V30 7024 O 641.687 1.49925 0.996124 0
M  V30 7025 H 638.062 0.733966 0.1637 0
M  V30 7026 H 640.033 2.97658 -0.210367 0
M  V30 7027 C 638.782 3.10713 1.56054 0
M  V30 7028 H 638.105 3.84291 1.10273 0
M  V30 7029 H 639.545 3.66803 2.12677 0
M  V30 7030 C 638.004 2.23499 2.52091 0
M  V30 7031 O 638.534 1.8669 3.55682 0
M  V30 7032 N 636.74 1.8751 2.2201 0
M  V30 7033 H 636.287 2.17643 1.37802 0
M  V30 7034 H 636.245 1.29448 2.86514 0
M  V30 7035 N 640.017 0.126909 1.57088 0
M  V30 7036 C 641.242 -0.53997 2.00248 0
M  V30 7037 C 641.667 -1.58927 1.00618 0
M  V30 7038 O 641.025 -1.81288 -0.0210131 0
M  V30 7039 C 641.073 -1.13565 3.4225 0
M  V30 7040 O 640.177 -2.25103 3.45547 0
M  V30 7041 H 639.518 -0.13412 0.650314 0
M  V30 7042 H 642.048 0.217718 2.03438 0
M  V30 7043 H 642.058 -1.46925 3.80627 0
M  V30 7044 H 640.733 -0.367122 4.14277 0
M  V30 7045 H 639.31 -1.93123 3.18995 0
M  V30 7046 N 641.495 -1.56914 -0.146875 0
M  V30 7047 C 642.741 -1.83628 -0.860741 0
M  V30 7048 C 643.074 -0.708528 -1.80813 0
M  V30 7049 O 642.349 0.287838 -1.92358 0
M  V30 7050 C 642.632 -3.20836 -1.63511 0
M  V30 7051 C 642.485 -4.44174 -0.709199 0
M  V30 7052 C 643.804 -3.55268 -2.59756 0
M  V30 7053 H 640.923 -0.667949 -0.311468 0
M  V30 7054 H 643.565 -1.89582 -0.125936 0
M  V30 7055 H 641.715 -3.15891 -2.26153 0
M  V30 7056 H 643.387 -4.61205 -0.0937781 0
M  V30 7057 H 641.63 -4.33796 -0.0187856 0
M  V30 7058 H 642.301 -5.36785 -1.28707 0
M  V30 7059 H 644.777 -3.60824 -2.07232 0
M  V30 7060 H 643.653 -4.52303 -3.10987 0
M  V30 7061 H 643.914 -2.81231 -3.41118 0
M  V30 7062 N 642.974 0.416227 -1.52004 0
M  V30 7063 C 643.904 1.51365 -1.77795 0
M  V30 7064 C 644.885 1.58059 -0.628601 0
M  V30 7065 O 646.07 1.73447 -0.873478 0
M  V30 7066 C 643.2 2.89256 -1.92219 0
M  V30 7067 C 642.154 2.97415 -3.0778 0
M  V30 7068 C 641.48 4.37492 -3.07417 0
M  V30 7069 C 642.78 2.69551 -4.47369 0
M  V30 7070 H 644.474 1.30033 -2.69688 0
M  V30 7071 H 642.02 0.624112 -1.29772 0
M  V30 7072 H 643.973 3.66008 -2.08845 0
M  V30 7073 H 642.697 3.11866 -0.969917 0
M  V30 7074 H 641.356 2.23107 -2.90893 0
M  V30 7075 H 641.004 4.571 -2.09925 0
M  V30 7076 H 640.704 4.43877 -3.85029 0
M  V30 7077 H 642.228 5.16188 -3.26162 0
M  V30 7078 H 643.642 3.36028 -4.64497 0
M  V30 7079 H 642.039 2.87321 -5.26846 0
M  V30 7080 H 643.109 1.65029 -4.55953 0
M  V30 7081 N 644.452 1.42507 0.673017 0
M  V30 7082 C 645.399 1.46124 1.78651 0
M  V30 7083 C 646.369 0.313007 1.63124 0
M  V30 7084 O 647.554 0.517337 1.83653 0
M  V30 7085 C 644.694 1.3711 3.16694 0
M  V30 7086 C 643.807 2.61983 3.43495 0
M  V30 7087 C 642.942 2.45098 4.71275 0
M  V30 7088 C 641.981 3.65336 4.91117 0
M  V30 7089 N 641.118 3.47383 6.10139 0
M  V30 7090 H 645.958 2.4128 1.74895 0
M  V30 7091 H 643.495 1.19788 0.853766 0
M  V30 7092 H 645.453 1.29881 3.96468 0
M  V30 7093 H 644.083 0.45549 3.1957 0
M  V30 7094 H 643.135 2.79571 2.57961 0
M  V30 7095 H 644.447 3.51355 3.5405 0
M  V30 7096 H 643.601 2.35466 5.59143 0
M  V30 7097 H 642.34 1.53219 4.63007 0
M  V30 7098 H 641.345 3.754 4.0169 0
M  V30 7099 H 642.57 4.58199 5.01229 0
M  V30 7100 H 640.516 2.58222 6.0304 0
M  V30 7101 H 640.433 4.30344 6.21563 0
M  V30 7102 H 641.701 3.41565 7.00681 0
M  V30 7103 N 645.93 -0.909495 1.28709 0
M  V30 7104 C 646.863 -2.01388 1.07323 0
M  V30 7105 C 647.841 -1.62596 -0.0119757 0
M  V30 7106 O 649.025 -1.88003 0.136796 0
M  V30 7107 C 646.152 -3.32755 0.631797 0
M  V30 7108 C 645.198 -3.90532 1.71428 0
M  V30 7109 S 646.031 -4.20853 3.31124 0
M  V30 7110 C 647.187 -5.55276 2.88825 0
M  V30 7111 H 647.42 -2.19219 2.00824 0
M  V30 7112 H 644.953 -1.05489 1.12745 0
M  V30 7113 H 646.911 -4.08702 0.38381 0
M  V30 7114 H 645.572 -3.12818 -0.283451 0
M  V30 7115 H 644.765 -4.85385 1.35712 0
M  V30 7116 H 644.367 -3.21237 1.91528 0
M  V30 7117 H 646.659 -6.35341 2.3526 0
M  V30 7118 H 647.602 -5.95907 3.82492 0
M  V30 7119 H 648.01 -5.16666 2.27412 0
M  V30 7120 N 647.408 -1.11026 -1.11852 0
M  V30 7121 C 648.318 -0.777252 -2.2135 0
M  V30 7122 C 649.334 0.227821 -1.72502 0
M  V30 7123 O 650.51 0.0650587 -2.01295 0
M  V30 7124 C 647.575 -0.220668 -3.45997 0
M  V30 7125 C 646.636 -1.2838 -4.09655 0
M  V30 7126 C 645.869 -0.753678 -5.28352 0
M  V30 7127 O 646.092 0.417779 -5.68868 0
M  V30 7128 O 645.026 -1.51647 -5.82483 0
M  V30 7129 H 648.852 -1.69141 -2.5224 0
M  V30 7130 H 646.437 -0.885836 -1.20305 0
M  V30 7131 H 648.319 0.0855756 -4.21313 0
M  V30 7132 H 646.994 0.666262 -3.16769 0
M  V30 7133 H 645.901 -1.64299 -3.3609 0
M  V30 7134 H 647.234 -2.14396 -4.43052 0
M  V30 7135 N 648.886 1.2938 -0.899927 0
M  V30 7136 C 650.116 1.99402 -0.540601 0
M  V30 7137 C 650.524 1.67534 0.87914 0
M  V30 7138 O 649.867 0.916821 1.59186 0
M  V30 7139 C 649.929 3.53514 -0.653326 0
M  V30 7140 C 649.593 4.08937 -2.04009 0
M  V30 7141 C 650.59 4.23815 -3.01126 0
M  V30 7142 C 648.275 4.43962 -2.34953 0
M  V30 7143 C 650.269 4.72951 -4.27313 0
M  V30 7144 C 647.956 4.92795 -3.61382 0
M  V30 7145 C 648.954 5.07244 -4.57376 0
M  V30 7146 O 648.642 5.55017 -5.8156 0
M  V30 7147 H 648.374 0.64383 -0.206057 0
M  V30 7148 H 650.928 1.65878 -1.21134 0
M  V30 7149 H 649.158 3.86628 0.0744449 0
M  V30 7150 H 650.847 4.04767 -0.303118 0
M  V30 7151 H 651.613 3.97043 -2.78535 0
M  V30 7152 H 647.492 4.31974 -1.60994 0
M  V30 7153 H 651.036 4.84144 -5.02245 0
M  V30 7154 H 646.933 5.19004 -3.83804 0
M  V30 7155 H 647.701 5.73331 -5.84153 0
M  V30 7156 N 650.364 0.662433 1.43002 0
M  V30 7157 C 651.327 -0.0142016 2.29196 0
M  V30 7158 C 652.327 -0.741394 1.42688 0
M  V30 7159 O 653.517 -0.581257 1.64216 0
M  V30 7160 C 650.649 -1.03084 3.24941 0
M  V30 7161 H 651.842 0.7443 2.90517 0
M  V30 7162 H 649.395 0.424133 1.50435 0
M  V30 7163 H 650.13 -1.81826 2.68533 0
M  V30 7164 H 649.915 -0.512946 3.8873 0
M  V30 7165 H 651.405 -1.50308 3.89612 0
M  V30 7166 N 651.842 -1.52309 0.404946 0
M  V30 7167 C 652.752 -2.30634 -0.429555 0
M  V30 7168 C 653.768 -1.38187 -1.05737 0
M  V30 7169 O 654.944 -1.71261 -1.05979 0
M  V30 7170 C 652.009 -3.10947 -1.53339 0
M  V30 7171 C 651.07 -4.19126 -0.929065 0
M  V30 7172 C 650.303 -4.95601 -1.9803 0
M  V30 7173 O 650.526 -4.72331 -3.1978 0
M  V30 7174 O 649.46 -5.80551 -1.58886 0
M  V30 7175 H 653.286 -3.0298 0.208963 0
M  V30 7176 H 650.871 -1.4845 0.168255 0
M  V30 7177 H 652.753 -3.60974 -2.1743 0
M  V30 7178 H 651.428 -2.41399 -2.15658 0
M  V30 7179 H 650.335 -3.73257 -0.250982 0
M  V30 7180 H 651.668 -4.90955 -0.349855 0
M  V30 7181 N 653.32 -0.135238 -1.57019 0
M  V30 7182 C 654.566 0.519563 -1.96032 0
M  V30 7183 C 654.899 1.65284 -1.01955 0
M  V30 7184 O 654.174 1.94408 -0.059727 0
M  V30 7185 C 654.457 1.0369 -3.44848 0
M  V30 7186 C 654.31 -0.0940754 -4.49702 0
M  V30 7187 C 655.629 1.92254 -3.95887 0
M  V30 7188 H 652.748 0.18739 -0.712779 0
M  V30 7189 H 655.39 -0.214086 -1.8879 0
M  V30 7190 H 653.54 1.66209 -3.5115 0
M  V30 7191 H 655.212 -0.73 -4.55487 0
M  V30 7192 H 653.455 -0.754924 -4.27181 0
M  V30 7193 H 654.126 0.309419 -5.51132 0
M  V30 7194 H 656.602 1.39581 -3.9199 0
M  V30 7195 H 655.478 2.25364 -5.00502 0
M  V30 7196 H 655.739 2.85513 -3.37543 0
M  V30 7197 N 654.798 1.5699 0.138552 0
M  V30 7198 C 656.214 1.51844 0.491472 0
M  V30 7199 C 656.414 0.845063 1.82923 0
M  V30 7200 O 655.47 0.419143 2.48997 0
M  V30 7201 C 656.783 2.96615 0.493987 0
M  V30 7202 C 658.331 3.076 0.578913 0
M  V30 7203 C 658.806 4.53893 0.612009 0
M  V30 7204 N 660.297 4.5827 0.673997 0
M  V30 7205 C 661.032 5.68852 0.720729 0
M  V30 7206 N 660.528 6.88982 0.726292 0
M  V30 7207 N 662.321 5.56908 0.762253 0
M  V30 7208 H 654.472 1.99158 -0.738228 0
M  V30 7209 H 656.735 0.908693 -0.270149 0
M  V30 7210 H 656.441 3.49172 -0.420933 0
M  V30 7211 H 656.315 3.53017 1.32887 0
M  V30 7212 H 658.702 2.55057 1.48425 0
M  V30 7213 H 658.783 2.54227 -0.283286 0
M  V30 7214 H 658.427 5.07076 -0.289208 0
M  V30 7215 H 658.357 5.05057 1.49082 0
M  V30 7216 H 660.848 3.71793 0.676654 0
M  V30 7217 H 661.161 7.69014 0.764032 0
M  V30 7218 H 659.506 6.91526 0.69403 0
M  V30 7219 H 662.697 4.61969 0.755135 0
M  V30 7220 H 662.87 6.43102 0.795207 0
M  V30 7221 N 656.276 -0.40816 1.52223 0
M  V30 7222 C 657.522 -1.15673 1.66576 0
M  V30 7223 C 657.855 -1.90141 0.394996 0
M  V30 7224 O 657.13 -1.84798 -0.606613 0
M  V30 7225 C 657.413 -2.15042 2.88841 0
M  V30 7226 C 657.266 -1.44465 4.25969 0
M  V30 7227 C 658.585 -3.15699 3.0663 0
M  V30 7228 H 655.704 -0.41916 0.606196 0
M  V30 7229 H 658.346 -0.442348 1.84779 0
M  V30 7230 H 656.496 -2.75964 2.73452 0
M  V30 7231 H 658.168 -0.866544 4.53088 0
M  V30 7232 H 656.411 -0.746612 4.27327 0
M  V30 7233 H 657.082 -2.16976 5.07568 0
M  V30 7234 H 659.558 -2.64854 3.20923 0
M  V30 7235 H 658.434 -3.82491 3.9369 0
M  V30 7236 H 658.695 -3.83481 2.19987 0
M  V30 7237 N 657.755 -1.42862 -0.66545 0
M  V30 7238 C 658.685 -1.49867 -1.79059 0
M  V30 7239 C 659.666 -0.354394 -1.66367 0
M  V30 7240 O 660.851 -0.569969 -1.85647 0
M  V30 7241 C 657.981 -1.40943 -3.17415 0
M  V30 7242 C 656.935 -2.53495 -3.44854 0
M  V30 7243 C 656.261 -2.29626 -4.82883 0
M  V30 7244 C 657.561 -3.95781 -3.40815 0
M  V30 7245 H 659.255 -2.44037 -1.73453 0
M  V30 7246 H 656.801 -1.17456 -0.833071 0
M  V30 7247 H 658.754 -1.4445 -3.95869 0
M  V30 7248 H 657.478 -0.432716 -3.23721 0
M  V30 7249 H 656.137 -2.4932 -2.68766 0
M  V30 7250 H 655.785 -1.30226 -4.8585 0
M  V30 7251 H 655.485 -3.05065 -5.02204 0
M  V30 7252 H 657.009 -2.34897 -5.63609 0
M  V30 7253 H 658.423 -4.01508 -4.09224 0
M  V30 7254 H 656.82 -4.71148 -3.71672 0
M  V30 7255 H 657.89 -4.21786 -2.39216 0
M  V30 7256 N 659.233 0.902656 -1.29189 0
M  V30 7257 C 660.183 1.99326 -1.10695 0
M  V30 7258 C 661.167 1.60877 -0.0272521 0
M  V30 7259 O 662.359 1.75245 -0.248635 0
M  V30 7260 C 659.488 3.34265 -0.78244 0
M  V30 7261 C 658.574 3.79081 -1.90153 0
M  V30 7262 N 658.965 3.96162 -3.14466 0
M  V30 7263 C 657.263 4.08333 -1.79389 0
M  V30 7264 C 657.964 4.3388 -3.87458 0
M  V30 7265 N 656.94 4.42759 -3.15381 0
M  V30 7266 H 660.742 2.10597 -2.05003 0
M  V30 7267 H 658.256 1.09127 -1.20271 0
M  V30 7268 H 660.253 4.12097 -0.630996 0
M  V30 7269 H 658.913 3.2434 0.152754 0
M  V30 7270 H 659.924 3.81775 -3.49954 0
M  V30 7271 H 656.601 4.06982 -0.931217 0
M  V30 7272 H 657.991 4.54965 -4.94425 0
M  V30 7273 N 660.711 1.11618 1.11262 0
M  V30 7274 C 661.641 0.79846 2.19424 0
M  V30 7275 C 662.622 -0.234003 1.68483 0
M  V30 7276 O 663.807 -0.0970704 1.93957 0
M  V30 7277 C 660.937 0.242892 3.4645 0
M  V30 7278 C 659.891 1.20744 4.10615 0
M  V30 7279 C 659.217 0.512494 5.32238 0
M  V30 7280 C 660.517 2.55884 4.55325 0
M  V30 7281 H 662.211 1.70286 2.46258 0
M  V30 7282 H 659.757 0.820195 1.18359 0
M  V30 7283 H 661.71 0.00840447 4.21399 0
M  V30 7284 H 660.434 -0.696811 3.1908 0
M  V30 7285 H 659.093 1.42759 3.37662 0
M  V30 7286 H 658.741 -0.432075 5.01141 0
M  V30 7287 H 658.441 1.15583 5.7612 0
M  V30 7288 H 659.965 0.286842 6.09926 0
M  V30 7289 H 661.379 2.37946 5.21588 0
M  V30 7290 H 659.776 3.16216 5.10027 0
M  V30 7291 H 660.846 3.14968 3.68678 0
M  V30 7292 N 662.189 -1.289 0.906776 0
M  V30 7293 C 663.152 -2.25777 0.394656 0
M  V30 7294 C 664.152 -1.53621 -0.475119 0
M  V30 7295 O 665.342 -1.71949 -0.279165 0
M  V30 7296 C 662.474 -3.38113 -0.43499 0
M  V30 7297 H 663.667 -2.72592 1.25033 0
M  V30 7298 H 661.22 -1.40463 0.685547 0
M  V30 7299 H 661.955 -2.96648 -1.31036 0
M  V30 7300 H 661.74 -3.91647 0.188334 0
M  V30 7301 H 663.23 -4.10168 -0.784365 0
M  V30 7302 N 663.667 -0.670007 -1.42649 0
M  V30 7303 C 664.617 0.0339546 -2.27975 0
M  V30 7304 C 665.601 0.778295 -1.40824 0
M  V30 7305 O 666.793 0.657997 -1.64315 0
M  V30 7306 C 663.922 0.987899 -3.28779 0
M  V30 7307 C 663.008 0.241153 -4.23414 0
M  V30 7308 N 663.399 -0.751392 -5.00188 0
M  V30 7309 C 661.697 0.480269 -4.43407 0
M  V30 7310 C 662.398 -1.19615 -5.69269 0
M  V30 7311 N 661.374 -0.527045 -5.41039 0
M  V30 7312 H 665.176 -0.727425 -2.84756 0
M  V30 7313 H 662.69 -0.498673 -1.54554 0
M  V30 7314 H 664.687 1.50716 -3.88703 0
M  V30 7315 H 663.347 1.74916 -2.73559 0
M  V30 7316 H 664.358 -1.13075 -5.05405 0
M  V30 7317 H 661.035 1.2214 -3.99234 0
M  V30 7318 H 662.425 -2.01836 -6.40868 0
M  V30 7319 N 665.145 1.52092 -0.413018 0
M  V30 7320 C 666.092 2.27119 0.410558 0
M  V30 7321 C 667.062 1.29692 1.03774 0
M  V30 7322 O 668.247 1.58561 1.06128 0
M  V30 7323 C 665.387 3.09863 1.51918 0
M  V30 7324 C 664.5 4.22252 0.912528 0
M  V30 7325 C 663.635 4.92348 1.99417 0
M  V30 7326 C 662.674 5.96694 1.36466 0
M  V30 7327 N 661.811 6.60292 2.38661 0
M  V30 7328 H 666.651 2.97067 -0.235661 0
M  V30 7329 H 664.188 1.46542 -0.128055 0
M  V30 7330 H 666.146 3.56144 2.17295 0
M  V30 7331 H 664.776 2.42078 2.13537 0
M  V30 7332 H 663.828 3.80113 0.147697 0
M  V30 7333 H 665.14 4.9709 0.412717 0
M  V30 7334 H 664.294 5.42054 2.72512 0
M  V30 7335 H 663.033 4.17087 2.52764 0
M  V30 7336 H 662.038 5.46304 0.61906 0
M  V30 7337 H 663.263 6.73899 0.838827 0
M  V30 7338 H 661.209 5.87858 2.91134 0
M  V30 7339 H 661.126 7.30816 1.93503 0
M  V30 7340 H 662.394 7.14635 3.11314 0
M  V30 7341 N 666.623 0.143563 1.56945 0
M  V30 7342 C 667.9 -0.553285 1.87612 0
M  V30 7343 C 668.28 -1.83195 1.04894 0
M  V30 7344 O 667.628 -2.28102 0.134773 0
M  V30 7345 C 667.838 -0.822055 3.3918 0
M  V30 7346 C 669.186 -1.16435 4.08324 0
M  V30 7347 O 670.21 -0.911522 3.4434 0
M  V30 7348 O 669.069 -1.63996 5.21313 0
M  V30 7349 H 666.163 -0.281851 0.777489 0
M  V30 7350 H 668.709 0.179916 1.68744 0
M  V30 7351 H 667.481 0.0830265 3.91212 0
M  V30 7352 H 667.104 -1.60956 3.63564 0
M  V30 7353 N 668.101 -1.57061 -0.130224 0
M  V30 7354 C 669.031 -2.02552 -1.16168 0
M  V30 7355 C 670.012 -0.907971 -1.4384 0
M  V30 7356 O 671.197 -1.17693 -1.54473 0
M  V30 7357 C 668.327 -2.42035 -2.49071 0
M  V30 7358 C 667.281 -3.5713 -2.35886 0
M  V30 7359 C 666.607 -3.82478 -3.7365 0
M  V30 7360 C 667.907 -4.89236 -1.8288 0
M  V30 7361 H 669.601 -2.8897 -0.783359 0
M  V30 7362 H 667.147 -1.39021 -0.375376 0
M  V30 7363 H 669.1 -2.72462 -3.21469 0
M  V30 7364 H 667.824 -1.52573 -2.88771 0
M  V30 7365 H 666.483 -3.26895 -1.65938 0
M  V30 7366 H 666.131 -2.9024 -4.10816 0
M  V30 7367 H 665.831 -4.59944 -3.65685 0
M  V30 7368 H 667.355 -4.15347 -4.47571 0
M  V30 7369 H 668.769 -5.18272 -2.45085 0
M  V30 7370 H 667.166 -5.70624 -1.85763 0
M  V30 7371 H 668.236 -4.78494 -0.785571 0
M  V30 7372 N 669.579 0.400081 -1.52437 0
M  V30 7373 C 670.807 1.16768 -1.70801 0
M  V30 7374 C 671.222 1.84036 -0.421462 0
M  V30 7375 O 670.579 1.72242 0.603228 0
M  V30 7376 C 670.63 2.22403 -2.8499 0
M  V30 7377 O 670.351 1.57879 -4.08663 0
M  V30 7378 C 671.852 3.11974 -3.1494 0
M  V30 7379 H 669.072 0.350533 -0.57216 0
M  V30 7380 H 671.616 0.469534 -1.99037 0
M  V30 7381 H 669.771 2.87871 -2.59247 0
M  V30 7382 H 670.185 2.27982 -4.7236 0
M  V30 7383 H 671.659 3.82148 -3.9833 0
M  V30 7384 H 672.136 3.74858 -2.28863 0
M  V30 7385 H 672.742 2.52165 -3.42481 0
M  V30 7386 N 671.057 1.43213 0.657864 0
M  V30 7387 C 672.303 1.44798 1.41991 0
M  V30 7388 C 672.636 0.070256 1.94073 0
M  V30 7389 O 671.911 -0.908177 1.71995 0
M  V30 7390 C 672.194 2.4865 2.60471 0
M  V30 7391 C 672.047 3.95679 2.13911 0
M  V30 7392 C 673.366 2.49292 3.62686 0
M  V30 7393 H 670.485 0.527244 0.514959 0
M  V30 7394 H 673.127 1.74733 0.74621 0
M  V30 7395 H 671.277 2.23254 3.17946 0
M  V30 7396 H 672.949 4.32116 1.61472 0
M  V30 7397 H 671.192 4.08733 1.45325 0
M  V30 7398 H 671.863 4.6395 2.99089 0
M  V30 7399 H 674.339 2.71917 3.14961 0
M  V30 7400 H 673.215 3.23907 4.43143 0
M  V30 7401 H 673.476 1.52502 4.14964 0
M  V30 7402 N 672.536 -0.895792 1.29666 0
M  V30 7403 C 673.466 -2.01673 1.17688 0
M  V30 7404 C 674.447 -1.69955 0.0701317 0
M  V30 7405 O 675.632 -1.9258 0.250289 0
M  V30 7406 C 672.762 -3.36568 0.856681 0
M  V30 7407 C 671.716 -3.82509 1.92017 0
M  V30 7408 C 671.042 -5.14574 1.4532 0
M  V30 7409 C 672.342 -4.02409 3.32963 0
M  V30 7410 H 674.036 -2.11953 2.11463 0
M  V30 7411 H 671.582 -1.01839 1.01807 0
M  V30 7412 H 673.535 -4.14498 0.759577 0
M  V30 7413 H 672.259 -3.26391 -0.116763 0
M  V30 7414 H 670.918 -3.068 2.00673 0
M  V30 7415 H 670.566 -5.00815 0.468325 0
M  V30 7416 H 670.266 -5.46283 2.16447 0
M  V30 7417 H 671.79 -5.9504 1.36968 0
M  V30 7418 H 673.204 -4.70808 3.27127 0
M  V30 7419 H 671.601 -4.45478 4.02082 0
M  V30 7420 H 672.671 -3.06616 3.75652 0
M  V30 7421 N 674.014 -1.12206 -1.10668 0
M  V30 7422 C 675.254 -0.885935 -1.84202 0
M  V30 7423 C 675.618 0.577849 -1.83098 0
M  V30 7424 O 676.819 0.931051 -2.5216 0
M  V30 7425 C 675.09 -1.44197 -3.2702 0
M  V30 7426 S 676.649 -1.34402 -4.1771 0
M  V30 7427 H 673.467 -0.319653 -0.635093 0
M  V30 7428 H 676.069 -1.43112 -1.33189 0
M  V30 7429 H 674.773 -2.50096 -3.25392 0
M  V30 7430 H 674.304 -0.894173 -3.83103 0
M  V30 7431 H 676.319 -0.313873 -4.95206 0
M  V30 7432 N 675.492 1.28418 -0.913599 0
M  V30 7433 C 676.442 2.24928 -0.373042 0
M  V30 7434 C 677.426 1.52444 0.514753 0
M  V30 7435 O 678.618 1.73414 0.3545 0
M  V30 7436 C 675.747 3.41124 0.385896 0
M  V30 7437 C 674.833 4.20929 -0.51761 0
M  V30 7438 N 675.224 4.78777 -1.63113 0
M  V30 7439 C 673.522 4.44865 -0.317969 0
M  V30 7440 C 674.223 5.38822 -2.19193 0
M  V30 7441 N 673.199 5.22974 -1.48321 0
M  V30 7442 H 677.001 2.67224 -1.22346 0
M  V30 7443 H 674.515 1.43187 -0.766236 0
M  V30 7444 H 676.512 4.09347 0.789997 0
M  V30 7445 H 675.172 3.00362 1.23341 0
M  V30 7446 H 676.183 4.77148 -2.01372 0
M  V30 7447 H 672.86 4.14614 0.49004 0
M  V30 7448 H 674.25 5.94615 -3.12861 0
M  V30 7449 N 676.97 0.677563 1.42291 0
M  V30 7450 C 677.9 0.014968 2.33495 0
M  V30 7451 C 678.881 -0.786376 1.50831 0
M  V30 7452 O 680.066 -0.742975 1.79426 0
M  V30 7453 C 677.196 -0.935023 3.34477 0
M  V30 7454 C 676.15 -0.242074 4.27315 0
M  V30 7455 C 675.476 -1.30519 5.18526 0
M  V30 7456 C 676.776 0.880604 5.14823 0
M  V30 7457 H 678.47 0.776671 2.89151 0
M  V30 7458 H 676.016 0.37494 1.39033 0
M  V30 7459 H 677.969 -1.40766 3.97194 0
M  V30 7460 H 676.693 -1.72818 2.77131 0
M  V30 7461 H 675.352 0.210351 3.65996 0
M  V30 7462 H 675 -2.09041 4.57505 0
M  V30 7463 H 674.7 -0.846652 5.81468 0
M  V30 7464 H 676.224 -1.7787 5.84119 0
M  V30 7465 H 677.638 0.489062 5.7121 0
M  V30 7466 H 676.035 1.26511 5.86613 0
M  V30 7467 H 677.105 1.72818 4.53059 0
M  V30 7468 N 678.448 -1.51871 0.421078 0
M  V30 7469 C 679.358 -2.31077 -0.405069 0
M  V30 7470 C 680.374 -1.39301 -1.04265 0
M  V30 7471 O 681.55 -1.72376 -1.04157 0
M  V30 7472 C 678.615 -3.12556 -1.50032 0
M  V30 7473 C 677.676 -4.20088 -0.884559 0
M  V30 7474 C 676.909 -4.97673 -1.92762 0
M  V30 7475 O 677.132 -4.75696 -3.14753 0
M  V30 7476 O 676.066 -5.82203 -1.52719 0
M  V30 7477 H 679.892 -3.02742 0.241086 0
M  V30 7478 H 677.477 -1.48263 0.183991 0
M  V30 7479 H 679.359 -3.6326 -2.13589 0
M  V30 7480 H 678.034 -2.43672 -2.13086 0
M  V30 7481 H 676.941 -3.73502 -0.211379 0
M  V30 7482 H 678.274 -4.91298 -0.297763 0
M  V30 7483 N 679.926 -0.151884 -1.56866 0
M  V30 7484 C 680.858 0.817008 -2.14144 0
M  V30 7485 C 681.871 1.20735 -1.0921 0
M  V30 7486 O 683.06 1.15058 -1.36469 0
M  V30 7487 C 680.16 2.10844 -2.65326 0
M  V30 7488 C 679.333 1.88471 -3.94712 0
M  V30 7489 C 678.392 3.01649 -4.31155 0
M  V30 7490 O 677.418 2.73127 -4.9939 0
M  V30 7491 N 678.62 4.28947 -3.91132 0
M  V30 7492 H 681.385 0.327448 -2.97906 0
M  V30 7493 H 678.946 0.0315313 -1.61869 0
M  V30 7494 H 680.938 2.85616 -2.86715 0
M  V30 7495 H 679.508 2.51049 -1.86262 0
M  V30 7496 H 678.728 0.977088 -3.81899 0
M  V30 7497 H 680.016 1.70866 -4.79252 0
M  V30 7498 H 679.414 4.54986 -3.36161 0
M  V30 7499 H 677.971 5.00484 -4.17563 0
M  V30 7500 N 681.404 1.57128 0.121893 0
M  V30 7501 C 682.334 2.03165 1.15092 0
M  V30 7502 C 683.315 0.915587 1.43356 0
M  V30 7503 O 684.5 1.1851 1.53847 0
M  V30 7504 C 681.63 2.43352 2.47784 0
M  V30 7505 C 680.584 3.58376 2.33989 0
M  V30 7506 C 679.91 3.84454 3.71617 0
M  V30 7507 C 681.21 4.90199 1.80283 0
M  V30 7508 H 682.904 2.89382 0.768023 0
M  V30 7509 H 680.45 1.39218 0.367998 0
M  V30 7510 H 682.403 2.74163 3.20019 0
M  V30 7511 H 681.127 1.54103 2.87958 0
M  V30 7512 H 679.786 3.2777 1.64202 0
M  V30 7513 H 679.434 2.92414 4.09271 0
M  V30 7514 H 679.134 4.61877 3.6324 0
M  V30 7515 H 680.658 4.17714 4.45362 0
M  V30 7516 H 682.072 5.19565 2.42333 0
M  V30 7517 H 680.469 5.71601 1.82735 0
M  V30 7518 H 681.539 4.78904 0.760184 0
M  V30 7519 N 682.882 -0.391992 1.52647 0
M  V30 7520 C 683.812 -1.48517 1.8018 0
M  V30 7521 C 684.793 -1.57039 0.653667 0
M  V30 7522 O 685.978 -1.72036 0.900962 0
M  V30 7523 C 683.108 -2.86161 1.96797 0
M  V30 7524 C 682.062 -2.92481 3.12472 0
M  V30 7525 C 681.388 -4.32546 3.14338 0
M  V30 7526 C 682.688 -2.624 4.51601 0
M  V30 7527 H 684.382 -1.25726 2.71723 0
M  V30 7528 H 681.928 -0.603387 1.30749 0
M  V30 7529 H 683.881 -3.62639 2.14641 0
M  V30 7530 H 682.605 -3.10283 1.01941 0
M  V30 7531 H 681.264 -2.18451 2.94406 0
M  V30 7532 H 680.912 -4.53703 2.1717 0
M  V30 7533 H 680.612 -4.37695 3.92042 0
M  V30 7534 H 682.136 -5.10934 3.34333 0
M  V30 7535 H 683.55 -3.28596 4.69785 0
M  V30 7536 H 681.947 -2.78903 5.3135 0
M  V30 7537 H 683.017 -1.57754 4.58521 0
M  V30 7538 N 684.36 -1.4356 -0.65026 0
M  V30 7539 C 685.29 -1.51758 -1.77459 0
M  V30 7540 C 686.271 -0.372019 -1.65982 0
M  V30 7541 O 687.456 -0.589627 -1.85033 0
M  V30 7542 C 684.586 -1.44302 -3.15902 0
M  V30 7543 C 683.54 -2.57138 -3.42146 0
M  V30 7544 C 682.866 -2.34735 -4.8042 0
M  V30 7545 C 684.166 -3.99373 -3.36598 0
M  V30 7546 H 685.86 -2.45863 -1.70855 0
M  V30 7547 H 683.406 -1.18333 -0.820566 0
M  V30 7548 H 685.359 -1.48641 -3.94314 0
M  V30 7549 H 684.083 -0.467026 -3.23244 0
M  V30 7550 H 682.742 -2.52157 -2.66106 0
M  V30 7551 H 682.39 -1.35372 -4.84441 0
M  V30 7552 H 682.09 -3.10375 -4.9894 0
M  V30 7553 H 683.614 -2.40862 -5.61086 0
M  V30 7554 H 685.028 -4.05826 -4.04942 0
M  V30 7555 H 683.425 -4.75063 -3.66654 0
M  V30 7556 H 684.495 -4.243 -2.34729 0
M  V30 7557 N 685.838 0.888903 -1.30139 0
M  V30 7558 C 687.084 1.6428 -1.18912 0
M  V30 7559 C 687.417 1.92499 0.256477 0
M  V30 7560 O 686.692 1.54312 1.18397 0
M  V30 7561 C 686.975 2.9851 -2.01405 0
M  V30 7562 C 686.828 2.77288 -3.54163 0
M  V30 7563 C 688.147 3.99383 -1.84882 0
M  V30 7564 H 685.266 0.596148 -0.433333 0
M  V30 7565 H 687.908 1.0289 -1.5973 0
M  V30 7566 H 686.058 3.50907 -1.66722 0
M  V30 7567 H 687.73 2.31709 -3.98884 0
M  V30 7568 H 685.973 2.11867 -3.78543 0
M  V30 7569 H 686.644 3.72717 -4.07168 0
M  V30 7570 H 689.12 3.56132 -2.15196 0
M  V30 7571 H 687.996 4.91222 -2.44934 0
M  V30 7572 H 688.257 4.34674 -0.806902 0
M  V30 7573 N 687.317 1.12792 1.10072 0
M  V30 7574 C 688.545 0.908506 1.85886 0
M  V30 7575 C 688.96 -0.542408 1.80841 0
M  V30 7576 O 688.317 -1.37517 1.1998 0
M  V30 7577 C 688.368 1.37973 3.34134 0
M  V30 7578 O 688.089 2.77378 3.39106 0
M  V30 7579 C 689.59 1.1978 4.26811 0
M  V30 7580 H 686.81 0.3244 0.587372 0
M  V30 7581 H 689.354 1.49882 1.39125 0
M  V30 7582 H 687.509 0.832566 3.78348 0
M  V30 7583 H 687.923 2.98144 4.31521 0
M  V30 7584 H 689.397 1.57635 5.29014 0
M  V30 7585 H 689.874 0.138768 4.38981 0
M  V30 7586 H 690.48 1.73266 3.88406 0
M  V30 7587 N 688.795 -1.27931 0.920396 0
M  V30 7588 C 689.745 -2.24727 0.384966 0
M  V30 7589 C 690.729 -1.52715 -0.506661 0
M  V30 7590 O 691.921 -1.73599 -0.345298 0
M  V30 7591 C 689.05 -3.41324 -0.3678 0
M  V30 7592 C 688.136 -4.20649 0.539925 0
M  V30 7593 N 688.527 -4.77906 1.6565 0
M  V30 7594 C 686.825 -4.4469 0.341557 0
M  V30 7595 C 687.526 -5.37652 2.22047 0
M  V30 7596 N 686.502 -5.2218 1.51093 0
M  V30 7597 H 690.304 -2.66572 1.23761 0
M  V30 7598 H 687.818 -1.42779 0.773819 0
M  V30 7599 H 689.815 -4.0976 -0.768277 0
M  V30 7600 H 688.475 -3.01012 -1.21746 0
M  V30 7601 H 689.486 -4.76073 2.03899 0
M  V30 7602 H 686.163 -4.14868 -0.468045 0
M  V30 7603 H 687.553 -5.92948 3.1601 0
M  V30 7604 N 690.273 -0.685099 -1.4193 0
M  V30 7605 C 691.203 -0.0273506 -2.33484 0
M  V30 7606 C 692.184 0.778366 -1.51246 0
M  V30 7607 O 693.369 0.733449 -1.79817 0
M  V30 7608 C 690.499 0.917272 -3.34968 0
M  V30 7609 C 689.453 0.21941 -4.27437 0
M  V30 7610 C 688.779 1.27768 -5.1921 0
M  V30 7611 C 690.079 -0.907894 -5.14349 0
M  V30 7612 H 691.773 -0.791994 -2.88735 0
M  V30 7613 H 689.319 -0.382308 -1.38832 0
M  V30 7614 H 691.272 1.38657 -3.97935 0
M  V30 7615 H 689.996 1.71346 -2.78043 0
M  V30 7616 H 688.655 -0.229757 -3.65879 0
M  V30 7617 H 688.303 2.06612 -4.58607 0
M  V30 7618 H 688.003 0.815803 -5.81909 0
M  V30 7619 H 689.527 1.7477 -5.85054 0
M  V30 7620 H 690.941 -0.519348 -5.70943 0
M  V30 7621 H 689.338 -1.2962 -5.85934 0
M  V30 7622 H 690.408 -1.75218 -4.52136 0
M  V30 7623 N 691.751 1.51645 -0.429126 0
M  V30 7624 C 693.028 1.94579 0.199614 0
M  V30 7625 C 693.408 1.3673 1.60836 0
M  V30 7626 O 692.756 0.551062 2.21756 0
M  V30 7627 C 692.966 3.48506 0.185685 0
M  V30 7628 C 694.314 4.22756 0.395282 0
M  V30 7629 O 695.338 3.55219 0.264165 0
M  V30 7630 O 694.197 5.42555 0.655475 0
M  V30 7631 H 691.291 0.816007 0.134393 0
M  V30 7632 H 693.837 1.62577 -0.486513 0
M  V30 7633 H 692.609 3.83045 -0.799508 0
M  V30 7634 H 692.232 3.86927 0.91507 0
M  V30 7635 N 693.229 0.160201 1.56784 0
M  V30 7636 C 694.159 -0.770264 2.2043 0
M  V30 7637 C 695.14 -1.24736 1.15651 0
M  V30 7638 O 696.325 -1.30253 1.44041 0
M  V30 7639 C 693.455 -2.00427 2.83631 0
M  V30 7640 C 692.409 -1.66345 3.94352 0
M  V30 7641 C 691.735 -2.97119 4.4455 0
M  V30 7642 C 693.035 -0.899972 5.14488 0
M  V30 7643 H 694.729 -0.239783 2.98438 0
M  V30 7644 H 692.275 -0.113891 1.43549 0
M  V30 7645 H 694.228 -2.66012 3.26827 0
M  V30 7646 H 692.952 -2.5587 2.02973 0
M  V30 7647 H 691.611 -1.03133 3.51794 0
M  V30 7648 H 691.259 -3.5058 3.60698 0
M  V30 7649 H 690.959 -2.75073 5.19238 0
M  V30 7650 H 692.483 -3.63753 4.90425 0
M  V30 7651 H 693.897 -1.45818 5.54446 0
M  V30 7652 H 692.294 -0.778968 5.95023 0
M  V30 7653 H 693.364 0.105827 4.84785 0
M  V30 7654 N 694.707 -1.5719 -0.113559 0
M  V30 7655 C 695.932 -1.89702 -0.838336 0
M  V30 7656 C 696.357 -0.752679 -1.72384 0
M  V30 7657 O 695.715 0.296575 -1.78858 0
M  V30 7658 C 695.763 -3.20989 -1.64312 0
M  V30 7659 O 694.867 -3.07278 -2.75053 0
M  V30 7660 H 694.208 -0.622339 -0.231496 0
M  V30 7661 H 696.738 -2.04382 -0.0943228 0
M  V30 7662 H 696.748 -3.53843 -2.03123 0
M  V30 7663 H 695.423 -4.03869 -0.993119 0
M  V30 7664 H 694 -2.85901 -2.39406 0
M  V30 7665 N 696.185 0.383891 -1.52853 0
M  V30 7666 C 697.135 1.46892 -1.74375 0
M  V30 7667 C 698.119 1.49378 -0.597909 0
M  V30 7668 O 699.311 1.54929 -0.855929 0
M  V30 7669 C 696.44 2.84547 -1.92063 0
M  V30 7670 C 695.526 2.8661 -3.12594 0
M  V30 7671 N 695.917 2.58339 -4.3485 0
M  V30 7672 C 694.215 3.17777 -3.12944 0
M  V30 7673 C 694.916 2.67616 -5.16485 0
M  V30 7674 N 693.892 3.01561 -4.52285 0
M  V30 7675 H 697.694 1.23869 -2.66522 0
M  V30 7676 H 695.208 0.591895 -1.51229 0
M  V30 7677 H 697.205 3.62674 -2.05604 0
M  V30 7678 H 695.865 3.08549 -1.01133 0
M  V30 7679 H 696.876 2.32266 -4.62896 0
M  V30 7680 H 693.553 3.47211 -2.31842 0
M  V30 7681 H 694.943 2.4926 -6.23955 0
M  V30 7682 N 697.663 1.43903 0.642637 0
M  V30 7683 C 698.611 1.50164 1.77634 0
M  V30 7684 C 699.605 0.374294 1.65213 0
M  V30 7685 O 700.811 0.548748 1.71431 0
M  V30 7686 H 697.186 0.470974 0.586249 0
M  V30 7687 H 699.157 2.45603 1.69474 0
M  V30 7688 C 697.906 1.45196 3.15933 0
M  V30 7689 H 697.229 2.31253 3.26132 0
M  V30 7690 H 698.669 1.53638 3.95185 0
M  V30 7691 C 697.128 0.171043 3.36466 0
M  V30 7692 O 697.658 -0.763413 3.94379 0
M  V30 7693 N 695.864 0.077847 2.90496 0
M  V30 7694 H 695.411 0.8391 2.43551 0
M  V30 7695 H 695.369 -0.778473 3.0461 0
M  V30 7696 N 699.141 -0.881989 1.30609 0
M  V30 7697 C 700.557 -1.16576 1.09005 0
M  V30 7698 C 700.757 -2.00961 -0.14727 0
M  V30 7699 O 699.813 -2.38117 -0.840036 0
M  V30 7700 C 701.126 -1.86954 2.35518 0
M  V30 7701 C 702.674 -1.99706 2.41011 0
M  V30 7702 C 703.149 -2.73497 3.67374 0
M  V30 7703 N 704.64 -2.8104 3.68199 0
M  V30 7704 C 705.375 -3.38718 4.62664 0
M  V30 7705 N 704.871 -3.97421 5.67475 0
M  V30 7706 N 706.664 -3.36561 4.50203 0
M  V30 7707 H 698.815 -0.319398 2.09985 0
M  V30 7708 H 701.078 -0.204058 0.925778 0
M  V30 7709 H 700.784 -1.32393 3.2583 0
M  V30 7710 H 700.658 -2.87317 2.44395 0
M  V30 7711 H 703.045 -2.53436 1.51176 0
M  V30 7712 H 703.126 -0.984218 2.36108 0
M  V30 7713 H 702.77 -2.20438 4.57569 0
M  V30 7714 H 702.7 -3.75163 3.6954 0
M  V30 7715 H 705.191 -2.39365 2.92426 0
M  V30 7716 H 705.504 -4.39507 6.35652 0
M  V30 7717 H 703.849 -3.95832 5.71264 0
M  V30 7718 H 707.04 -2.8993 3.67503 0
M  V30 7719 H 707.213 -3.81215 5.24003 0
M  V30 7720 N 700.619 -1.13374 -1.09472 0
M  V30 7721 C 701.549 -0.833268 -2.18126 0
M  V30 7722 C 702.53 0.207169 -1.68834 0
M  V30 7723 O 703.715 0.0662012 -1.94087 0
M  V30 7724 C 700.845 -0.297979 -3.46019 0
M  V30 7725 C 699.799 -1.27261 -4.08642 0
M  V30 7726 C 699.125 -0.597104 -5.31356 0
M  V30 7727 C 700.425 -2.63095 -4.51197 0
M  V30 7728 H 702.119 -1.74182 -2.43518 0
M  V30 7729 H 699.665 -0.838921 -1.17039 0
M  V30 7730 H 701.618 -0.0754444 -4.21332 0
M  V30 7731 H 700.342 0.645959 -3.20148 0
M  V30 7732 H 699.001 -1.48113 -3.35348 0
M  V30 7733 H 698.649 0.352293 -5.01765 0
M  V30 7734 H 698.349 -1.24734 -5.74208 0
M  V30 7735 H 699.873 -0.38384 -6.09392 0
M  V30 7736 H 701.287 -2.46214 -5.17737 0
M  V30 7737 H 699.684 -3.2429 -5.04932 0
M  V30 7738 H 700.754 -3.20793 -3.6362 0
M  V30 7739 N 702.098 1.27442 -0.927168 0
M  V30 7740 C 703.514 1.46754 -0.627329 0
M  V30 7741 C 703.714 1.83902 0.823549 0
M  V30 7742 O 702.77 1.95215 1.60148 0
M  V30 7743 C 704.083 2.56045 -1.57674 0
M  V30 7744 C 705.631 2.69906 -1.58491 0
M  V30 7745 C 706.106 3.82355 -2.52128 0
M  V30 7746 N 707.597 3.89728 -2.50332 0
M  V30 7747 C 708.332 4.76155 -3.19475 0
M  V30 7748 N 707.828 5.67073 -3.97995 0
M  V30 7749 N 709.621 4.6988 -3.08496 0
M  V30 7750 H 701.772 1.01613 -1.86517 0
M  V30 7751 H 704.035 0.507443 -0.800753 0
M  V30 7752 H 703.741 2.35542 -2.61176 0
M  V30 7753 H 703.615 3.53423 -1.31804 0
M  V30 7754 H 706.002 2.89792 -0.557208 0
M  V30 7755 H 706.083 1.73018 -1.8841 0
M  V30 7756 H 705.727 3.63224 -3.55008 0
M  V30 7757 H 705.657 4.7867 -2.19505 0
M  V30 7758 H 708.148 3.24717 -1.93306 0
M  V30 7759 H 708.461 6.2988 -4.4774 0
M  V30 7760 H 706.806 5.6687 -4.02098 0
M  V30 7761 H 709.997 3.97848 -2.46646 0
M  V30 7762 H 710.17 5.37017 -3.62652 0
M  V30 7763 N 703.576 0.692616 1.41565 0
M  V30 7764 C 704.804 0.231279 2.05603 0
M  V30 7765 C 705.219 -1.11837 1.52111 0
M  V30 7766 O 704.576 -1.6983 0.66813 0
M  V30 7767 C 704.627 0.177125 3.61066 0
M  V30 7768 O 704.348 1.47346 4.12578 0
M  V30 7769 C 705.849 -0.30556 4.42246 0
M  V30 7770 H 703.069 0.108238 0.662213 0
M  V30 7771 H 705.613 0.944369 1.81389 0
M  V30 7772 H 703.768 -0.486769 3.8433 0
M  V30 7773 H 704.182 1.35861 5.06599 0
M  V30 7774 H 705.656 -0.29233 5.51225 0
M  V30 7775 H 706.133 -1.34393 4.18133 0
M  V30 7776 H 706.739 0.327229 4.24039 0
M  V30 7777 N 705.054 -1.51416 0.437162 0
M  V30 7778 C 705.984 -2.30631 -0.364922 0
M  V30 7779 C 706.965 -1.36037 -1.02118 0
M  V30 7780 O 708.15 -1.64956 -1.02485 0
M  V30 7781 C 705.28 -3.1482 -1.46648 0
M  V30 7782 C 704.234 -4.17691 -0.933717 0
M  V30 7783 C 703.56 -4.904 -2.13101 0
M  V30 7784 C 704.86 -5.2229 0.0317201 0
M  V30 7785 H 706.554 -2.97932 0.29614 0
M  V30 7786 H 704.1 -1.4328 0.143865 0
M  V30 7787 H 706.053 -3.69017 -2.03481 0
M  V30 7788 H 704.777 -2.4534 -2.15583 0
M  V30 7789 H 703.436 -3.64545 -0.387602 0
M  V30 7790 H 703.084 -4.17423 -2.80654 0
M  V30 7791 H 702.784 -5.59962 -1.78092 0
M  V30 7792 H 704.308 -5.4742 -2.70487 0
M  V30 7793 H 705.722 -5.7156 -0.446302 0
M  V30 7794 H 704.119 -5.99378 0.29437 0
M  V30 7795 H 705.189 -4.75131 0.968447 0
M  V30 7796 N 706.532 -0.168513 -1.56696 0
M  V30 7797 C 707.943 0.348694 -1.83415 0
M  V30 7798 C 708.294 1.63257 -1.0882 0
M  V30 7799 O 707.419 2.13707 -0.340333 0
M  V30 7800 C 708.014 0.639423 -3.32711 0
M  V30 7801 C 706.573 1.10108 -3.59935 0
M  V30 7802 C 705.72 0.135464 -2.76969 0
M  V30 7803 H 708.671 -0.392829 -1.53761 0
M  V30 7804 H 708.692 1.49179 -3.50037 0
M  V30 7805 H 708.204 -0.295173 -3.86976 0
M  V30 7806 H 706.305 2.05088 -3.11079 0
M  V30 7807 H 706.418 1.01218 -4.68286 0
M  V30 7808 H 704.782 0.632286 -2.46727 0
M  V30 7809 H 705.565 -0.793104 -3.34013 0
M  V30 7810 N 708.01 1.57248 0.105221 0
M  V30 7811 C 709.421 1.74612 0.660865 0
M  V30 7812 C 709.772 0.789231 1.79626 0
M  V30 7813 O 708.897 -0.0346611 2.16372 0
M  V30 7814 C 709.492 3.16624 1.20559 0
M  V30 7815 C 708.051 3.35447 1.7074 0
M  V30 7816 C 707.198 2.70445 0.612764 0
M  V30 7817 H 710.149 1.5824 -0.12079 0
M  V30 7818 H 710.17 3.18937 2.07508 0
M  V30 7819 H 709.682 3.86245 0.379012 0
M  V30 7820 H 707.783 2.7089 2.5583 0
M  V30 7821 H 707.896 4.43702 1.80736 0
M  V30 7822 H 706.26 2.32061 1.04975 0
M  V30 7823 H 707.043 3.42699 -0.203066 0
M  V30 7824 N 709.488 -0.375779 1.53054 0
M  V30 7825 C 710.451 -1.44254 1.7811 0
M  V30 7826 C 711.451 -1.47018 0.651328 0
M  V30 7827 O 712.641 -1.47957 0.919472 0
M  V30 7828 C 709.773 -2.8345 1.89391 0
M  V30 7829 H 710.966 -1.23316 2.73374 0
M  V30 7830 H 708.519 -0.608312 1.43977 0
M  V30 7831 H 709.254 -3.09716 0.961589 0
M  V30 7832 H 709.039 -2.82844 2.71555 0
M  V30 7833 H 710.529 -3.60722 2.10404 0
M  V30 7834 N 710.966 -1.44241 -0.634997 0
M  V30 7835 C 711.896 -1.53632 -1.7584 0
M  V30 7836 C 712.877 -0.389603 -1.65578 0
M  V30 7837 O 714.062 -0.609219 -1.84397 0
M  V30 7838 C 711.192 -1.47644 -3.14354 0
M  V30 7839 C 710.146 -2.60752 -3.394 0
M  V30 7840 C 709.472 -2.39817 -4.77904 0
M  V30 7841 C 710.772 -4.02921 -3.32343 0
M  V30 7842 H 712.466 -2.47662 -1.68238 0
M  V30 7843 H 710.012 -1.19197 -0.807969 0
M  V30 7844 H 711.965 -1.52815 -3.92716 0
M  V30 7845 H 710.689 -0.501284 -3.2273 0
M  V30 7846 H 709.348 -2.54965 -2.63417 0
M  V30 7847 H 708.996 -1.40502 -4.82978 0
M  V30 7848 H 708.696 -3.15649 -4.9562 0
M  V30 7849 H 710.22 -2.46799 -5.585 0
M  V30 7850 H 711.634 -4.10098 -4.00615 0
M  V30 7851 H 710.031 -4.78925 -3.61595 0
M  V30 7852 H 711.101 -4.26766 -2.30215 0
M  V30 7853 N 712.444 0.87505 -1.31075 0
M  V30 7854 C 713.407 1.96333 -1.18263 0
M  V30 7855 C 714.407 1.60416 -0.111106 0
M  V30 7856 O 715.597 1.7044 -0.359987 0
M  V30 7857 C 712.729 3.31036 -0.81414 0
M  V30 7858 H 713.922 2.09125 -2.14958 0
M  V30 7859 H 711.475 1.06271 -1.14614 0
M  V30 7860 H 712.21 3.23944 0.151875 0
M  V30 7861 H 711.995 3.58476 -1.58862 0
M  V30 7862 H 713.485 4.10842 -0.748249 0
M  V30 7863 N 713.922 1.13953 1.08869 0
M  V30 7864 C 714.885 0.824991 2.13838 0
M  V30 7865 C 715.885 -0.168198 1.59918 0
M  V30 7866 O 717.075 0.0595778 1.74098 0
M  V30 7867 C 714.207 0.228938 3.4013 0
M  V30 7868 H 715.4 1.75521 2.43171 0
M  V30 7869 H 712.953 0.94492 1.24503 0
M  V30 7870 H 713.688 -0.710227 3.16427 0
M  V30 7871 H 713.473 0.944243 3.80561 0
M  V30 7872 H 714.963 0.0259223 4.17592 0
M  V30 7873 N 715.4 -1.26948 0.933913 0
M  V30 7874 C 716.33 -2.29017 0.45534 0
M  V30 7875 C 717.311 -1.62961 -0.487605 0
M  V30 7876 O 718.496 -1.90223 -0.391022 0
M  V30 7877 C 715.626 -3.46112 -0.287015 0
M  V30 7878 C 714.58 -4.24205 0.568682 0
M  V30 7879 C 713.906 -5.3384 -0.303206 0
M  V30 7880 C 715.206 -4.88954 1.83633 0
M  V30 7881 H 716.9 -2.69298 1.30839 0
M  V30 7882 H 714.446 -1.29459 0.630579 0
M  V30 7883 H 716.399 -4.16622 -0.6328 0
M  V30 7884 H 715.123 -3.04765 -1.17414 0
M  V30 7885 H 713.782 -3.5545 0.897261 0
M  V30 7886 H 713.43 -4.88734 -1.18947 0
M  V30 7887 H 713.13 -5.86998 0.265879 0
M  V30 7888 H 714.654 -6.0719 -0.644423 0
M  V30 7889 H 716.068 -5.51717 1.55823 0
M  V30 7890 H 714.465 -5.52198 2.34941 0
M  V30 7891 H 715.535 -4.12305 2.55211 0
M  V30 7892 N 716.879 -0.700114 -1.41195 0
M  V30 7893 C 718.295 -0.372114 -1.55201 0
M  V30 7894 C 718.495 1.12053 -1.6747 0
M  V30 7895 O 717.551 1.90642 -1.65566 0
M  V30 7896 C 718.864 -1.12462 -2.78878 0
M  V30 7897 C 720.412 -1.10941 -2.92679 0
M  V30 7898 C 720.887 -1.84376 -4.19249 0
M  V30 7899 N 722.378 -1.81368 -4.26216 0
M  V30 7900 C 723.113 -2.35024 -5.23021 0
M  V30 7901 N 722.609 -2.9717 -6.25829 0
M  V30 7902 N 724.402 -2.25254 -5.14992 0
M  V30 7903 H 716.553 -1.66816 -1.31477 0
M  V30 7904 H 718.816 -0.704223 -0.634644 0
M  V30 7905 H 718.522 -2.17937 -2.76037 0
M  V30 7906 H 718.396 -0.706152 -3.70531 0
M  V30 7907 H 720.783 -0.062911 -2.95033 0
M  V30 7908 H 720.864 -1.56698 -2.02187 0
M  V30 7909 H 720.508 -2.89008 -4.17656 0
M  V30 7910 H 720.438 -1.3605 -5.08722 0
M  V30 7911 H 722.929 -1.36062 -3.52556 0
M  V30 7912 H 723.242 -3.35668 -6.96094 0
M  V30 7913 H 721.587 -3.01249 -6.26318 0
M  V30 7914 H 724.778 -1.76372 -4.33602 0
M  V30 7915 H 724.951 -2.67373 -5.90268 0
M  V30 7916 N 718.357 1.51182 -0.445186 0
M  V30 7917 C 719.597 2.04061 0.117717 0
M  V30 7918 C 719.961 1.32158 1.39278 0
M  V30 7919 O 721.162 1.75452 2.03642 0
M  V30 7920 C 719.433 3.55933 0.323445 0
M  V30 7921 S 720.992 4.30516 0.848627 0
M  V30 7922 H 717.81 0.710442 0.028165 0
M  V30 7923 H 720.412 1.85858 -0.606391 0
M  V30 7924 H 719.116 4.0583 -0.610764 0
M  V30 7925 H 718.647 3.78444 1.07441 0
M  V30 7926 H 720.662 4.48382 2.12528 0
M  V30 7927 N 719.835 0.176821 1.56605 0
M  V30 7928 C 720.765 -0.746841 2.21234 0
M  V30 7929 C 721.746 -1.23502 1.16967 0
M  V30 7930 O 722.931 -1.28718 1.45414 0
M  V30 7931 C 720.061 -1.97407 2.8574 0
M  V30 7932 C 719.015 -1.62153 3.96094 0
M  V30 7933 C 718.341 -2.92387 4.47676 0
M  V30 7934 C 719.641 -0.845353 5.15413 0
M  V30 7935 H 721.335 -0.208116 2.98676 0
M  V30 7936 H 718.881 -0.0986594 1.43662 0
M  V30 7937 H 720.834 -2.62531 3.2963 0
M  V30 7938 H 719.558 -2.53703 2.05676 0
M  V30 7939 H 718.217 -0.993964 3.52868 0
M  V30 7940 H 717.865 -3.46734 3.64396 0
M  V30 7941 H 717.565 -2.69551 5.22127 0
M  V30 7942 H 719.089 -3.5853 4.94255 0
M  V30 7943 H 720.503 -1.39929 5.55961 0
M  V30 7944 H 718.9 -0.715814 5.95815 0
M  V30 7945 H 719.97 0.157239 4.84645 0
M  V30 7946 N 721.313 -1.57302 -0.09688 0
M  V30 7947 C 722.223 -2.05258 -1.13606 0
M  V30 7948 C 723.239 -0.977137 -1.43972 0
M  V30 7949 O 724.415 -1.29018 -1.54649 0
M  V30 7950 C 721.48 -2.46593 -2.43706 0
M  V30 7951 C 720.541 -3.68322 -2.20538 0
M  V30 7952 C 719.774 -4.07676 -3.44435 0
M  V30 7953 O 719.997 -3.47141 -4.52603 0
M  V30 7954 O 718.931 -5.00641 -3.34129 0
M  V30 7955 H 722.757 -2.94069 -0.758752 0
M  V30 7956 H 720.342 -1.46164 -0.309263 0
M  V30 7957 H 722.224 -2.73814 -3.20318 0
M  V30 7958 H 720.899 -1.6092 -2.80867 0
M  V30 7959 H 719.806 -3.4622 -1.41713 0
M  V30 7960 H 721.139 -4.54769 -1.88271 0
M  V30 7961 N 722.791 0.367657 -1.53252 0
M  V30 7962 C 724.037 1.11216 -1.69584 0
M  V30 7963 C 724.37 1.89026 -0.445269 0
M  V30 7964 O 723.645 1.86342 0.557404 0
M  V30 7965 C 723.928 2.07308 -2.94441 0
M  V30 7966 C 723.781 1.3312 -4.2965 0
M  V30 7967 C 725.1 3.07459 -3.14892 0
M  V30 7968 H 722.219 0.40294 -0.617096 0
M  V30 7969 H 724.861 0.393201 -1.85887 0
M  V30 7970 H 723.011 2.68617 -2.80673 0
M  V30 7971 H 724.683 0.746111 -4.55226 0
M  V30 7972 H 722.926 0.633051 -4.29156 0
M  V30 7973 H 723.597 2.03443 -5.13142 0
M  V30 7974 H 726.073 2.56252 -3.27832 0
M  V30 7975 H 724.949 3.71919 -4.03693 0
M  V30 7976 H 725.21 3.77514 -2.30077 0
M  V30 7977 N 724.269 1.44576 0.627338 0
M  V30 7978 C 725.199 1.54562 1.75022 0
M  V30 7979 C 726.18 0.398378 1.65369 0
M  V30 7980 O 727.365 0.61899 1.84071 0
M  V30 7981 C 724.495 1.49309 3.13567 0
M  V30 7982 C 723.449 2.62549 3.38012 0
M  V30 7983 C 722.775 2.42348 4.76625 0
M  V30 7984 C 724.075 4.04678 3.30202 0
M  V30 7985 H 725.769 2.4855 1.66922 0
M  V30 7986 H 723.315 1.19624 0.801636 0
M  V30 7987 H 725.268 1.54895 3.919 0
M  V30 7988 H 723.992 0.518392 3.2246 0
M  V30 7989 H 722.651 2.56358 2.62061 0
M  V30 7990 H 722.299 1.43062 4.82226 0
M  V30 7991 H 721.999 3.18273 4.93939 0
M  V30 7992 H 723.523 2.49758 5.57183 0
M  V30 7993 H 724.937 4.12217 3.98435 0
M  V30 7994 H 723.334 4.80836 3.5905 0
M  V30 7995 H 724.404 4.2798 2.27949 0
M  V30 7996 N 725.747 -0.868086 1.31537 0
M  V30 7997 C 726.679 -1.98165 1.15166 0
M  V30 7998 C 727.692 -1.6255 0.0902335 0
M  V30 7999 O 728.881 -1.75272 0.33791 0
M  V30 8000 C 725.981 -3.30772 0.737776 0
M  V30 8001 C 725.154 -3.94716 1.88462 0
M  V30 8002 C 724.213 -5.05641 1.45648 0
M  V30 8003 O 723.239 -5.2636 2.16642 0
M  V30 8004 N 724.441 -5.79474 0.34493 0
M  V30 8005 H 727.206 -2.12754 2.11083 0
M  V30 8006 H 724.767 -1.04217 1.23897 0
M  V30 8007 H 726.759 -4.02366 0.434032 0
M  V30 8008 H 725.329 -3.1233 -0.129834 0
M  V30 8009 H 724.549 -3.16079 2.35558 0
M  V30 8010 H 725.837 -4.34175 2.65273 0
M  V30 8011 H 725.235 -5.65164 -0.246259 0
M  V30 8012 H 723.792 -6.51722 0.100728 0
M  V30 8013 N 727.225 -1.14528 -1.08264 0
M  V30 8014 C 728.188 -0.83632 -2.13397 0
M  V30 8015 C 729.188 0.159715 -1.60005 0
M  V30 8016 O 730.378 -0.0688098 -1.74064 0
M  V30 8017 C 727.51 -0.246973 -3.40004 0
M  V30 8018 H 728.703 -1.76808 -2.42237 0
M  V30 8019 H 726.256 -0.951509 -1.24 0
M  V30 8020 H 726.991 0.693436 -3.168 0
M  V30 8021 H 726.776 -0.964412 -3.80055 0
M  V30 8022 H 728.266 -0.0480679 -4.17572 0
M  V30 8023 N 728.703 1.26451 -0.940633 0
M  V30 8024 C 729.928 1.98407 -0.60412 0
M  V30 8025 C 730.353 1.69584 0.81382 0
M  V30 8026 O 729.711 0.943553 1.54812 0
M  V30 8027 C 729.759 3.50387 -0.852136 0
M  V30 8028 O 728.863 4.1233 0.076013 0
M  V30 8029 H 728.204 0.622466 -0.231153 0
M  V30 8030 H 730.734 1.60932 -1.26342 0
M  V30 8031 H 730.744 4.00614 -0.772816 0
M  V30 8032 H 729.419 3.70696 -1.88566 0
M  V30 8033 H 727.996 3.7286 -0.0543187 0
M  V30 8034 N 730.181 0.707592 1.40822 0
M  V30 8035 C 731.458 0.171172 1.9485 0
M  V30 8036 C 731.838 -1.32143 1.64625 0
M  V30 8037 O 731.186 -2.07372 0.959647 0
M  V30 8038 C 731.396 0.475334 3.45748 0
M  V30 8039 C 732.744 0.409625 4.22619 0
M  V30 8040 O 733.768 0.410934 3.53822 0
M  V30 8041 O 732.627 0.380185 5.45176 0
M  V30 8042 H 729.721 0.022015 0.826707 0
M  V30 8043 H 732.267 0.784577 1.50474 0
M  V30 8044 H 731.039 1.50801 3.61075 0
M  V30 8045 H 730.662 -0.168439 3.97243 0
M  V30 8046 N 731.66 -1.50943 0.453197 0
M  V30 8047 C 732.608 -2.29728 -0.364419 0
M  V30 8048 C 733.602 -1.36246 -1.00664 0
M  V30 8049 O 734.808 -1.53518 -0.939794 0
M  V30 8050 H 731.183 -0.739536 -0.136347 0
M  V30 8051 H 733.154 -2.96672 0.320696 0
M  V30 8052 C 731.903 -3.1629 -1.44415 0
M  V30 8053 H 731.226 -3.88119 -0.959343 0
M  V30 8054 H 732.666 -3.74444 -1.98917 0
M  V30 8055 C 731.125 -2.32702 -2.43622 0
M  V30 8056 O 731.655 -1.99763 -3.48508 0
M  V30 8057 N 729.861 -1.95621 -2.14897 0
M  V30 8058 H 729.408 -2.22607 -1.29629 0
M  V30 8059 H 729.366 -1.39993 -2.81513 0
M  V30 8060 N 733.138 -0.185124 -1.56509 0
M  V30 8061 C 734.101 0.72591 -2.17401 0
M  V30 8062 C 735.101 1.14819 -1.12575 0
M  V30 8063 O 736.291 1.0629 -1.38015 0
M  V30 8064 C 733.423 1.98979 -2.76803 0
M  V30 8065 H 734.616 0.195588 -2.99262 0
M  V30 8066 H 732.169 0.0644772 -1.56167 0
M  V30 8067 H 732.904 2.56287 -1.98714 0
M  V30 8068 H 732.689 1.69583 -3.53531 0
M  V30 8069 H 734.179 2.63966 -3.23592 0
M  V30 8070 N 734.616 1.57351 0.0885366 0
M  V30 8071 C 735.865 1.85604 0.789556 0
M  V30 8072 C 736.178 0.775352 1.79576 0
M  V30 8073 O 737.384 0.945206 2.54515 0
M  V30 8074 C 735.84 3.29175 1.45506 0
M  V30 8075 C 735.448 4.45331 0.488278 0
M  V30 8076 C 737.192 3.66646 2.13942 0
M  V30 8077 C 735.099 5.79937 1.15874 0
M  V30 8078 H 734.029 0.692346 0.298619 0
M  V30 8079 H 736.68 1.83451 0.0425821 0
M  V30 8080 H 735.062 3.25889 2.24972 0
M  V30 8081 H 736.236 4.59977 -0.275359 0
M  V30 8082 H 734.551 4.16301 -0.0907363 0
M  V30 8083 H 737.148 4.64498 2.6485 0
M  V30 8084 H 737.491 2.956 2.93132 0
M  V30 8085 H 738.024 3.71848 1.41328 0
M  V30 8086 H 734.763 6.54232 0.407508 0
M  V30 8087 H 734.283 5.69123 1.89364 0
M  V30 8088 H 735.962 6.24718 1.68336 0
M  V30 8089 N 736.094 -0.359525 1.53444 0
M  V30 8090 C 737.004 -1.46445 1.83278 0
M  V30 8091 C 738.02 -1.5833 0.721629 0
M  V30 8092 O 739.196 -1.7411 1.01231 0
M  V30 8093 C 736.261 -2.81638 2.02191 0
M  V30 8094 C 735.322 -2.7923 3.26082 0
M  V30 8095 C 734.555 -4.07974 3.44082 0
M  V30 8096 O 734.778 -5.04447 2.66251 0
M  V30 8097 O 733.712 -4.13417 4.37458 0
M  V30 8098 H 737.538 -1.24156 2.77162 0
M  V30 8099 H 735.123 -0.550201 1.389 0
M  V30 8100 H 737.005 -3.61732 2.16167 0
M  V30 8101 H 735.68 -3.03892 1.11496 0
M  V30 8102 H 734.587 -1.97813 3.17523 0
M  V30 8103 H 735.92 -2.6193 4.16718 0
M  V30 8104 N 737.572 -1.44907 -0.619662 0
M  V30 8105 C 738.797 -1.52021 -1.41083 0
M  V30 8106 C 739.222 -0.14976 -1.87503 0
M  V30 8107 O 738.58 0.863303 -1.59426 0
M  V30 8108 C 738.628 -2.49911 -2.59955 0
M  V30 8109 O 737.732 -2.00857 -3.60181 0
M  V30 8110 H 737.073 -0.512912 -0.421684 0
M  V30 8111 H 739.603 -1.90149 -0.755282 0
M  V30 8112 H 739.613 -2.68323 -3.07354 0
M  V30 8113 H 738.288 -3.4945 -2.25516 0
M  V30 8114 H 736.865 -1.92265 -3.19513 0
M  V30 8115 N 739.05 0.861098 -1.31996 0
M  V30 8116 C 739.98 1.98482 -1.22993 0
M  V30 8117 C 740.961 1.6971 -0.115168 0
M  V30 8118 O 742.146 1.91849 -0.30126 0
M  V30 8119 C 739.276 3.34179 -0.945615 0
M  V30 8120 C 738.23 3.77284 -2.02091 0
M  V30 8121 C 737.556 5.1054 -1.58912 0
M  V30 8122 C 738.856 3.93439 -3.43515 0
M  V30 8123 H 740.55 2.06271 -2.17008 0
M  V30 8124 H 738.096 0.991043 -1.04472 0
M  V30 8125 H 740.049 4.12338 -0.869206 0
M  V30 8126 H 738.773 3.26586 0.0301849 0
M  V30 8127 H 737.432 3.01371 -2.08737 0
M  V30 8128 H 737.08 4.99397 -0.600942 0
M  V30 8129 H 736.78 5.40352 -2.30854 0
M  V30 8130 H 738.304 5.91199 -1.52696 0
M  V30 8131 H 739.718 4.6197 -3.39495 0
M  V30 8132 H 738.115 4.34661 -4.13751 0
M  V30 8133 H 739.185 2.96548 -3.8365 0
M  V30 8134 N 740.528 1.15101 1.07655 0
M  V30 8135 C 741.805 0.834578 1.76902 0
M  V30 8136 C 742.185 -0.670431 2.00171 0
M  V30 8137 O 741.533 -1.61378 1.6177 0
M  V30 8138 C 741.743 1.64191 3.07965 0
M  V30 8139 C 743.091 1.84615 3.82364 0
M  V30 8140 O 744.115 1.60941 3.17768 0
M  V30 8141 O 742.974 2.24244 4.98374 0
M  V30 8142 H 740.068 0.306608 0.768063 0
M  V30 8143 H 742.614 1.25663 1.14048 0
M  V30 8144 H 741.386 2.66386 2.86626 0
M  V30 8145 H 741.009 1.216 3.78549 0
M  V30 8146 N 742.006 -1.2595 0.947325 0
M  V30 8147 C 743.254 -1.93081 0.596996 0
M  V30 8148 C 743.575 -1.74632 -0.867672 0
M  V30 8149 O 742.845 -1.1056 -1.6172 0
M  V30 8150 H 741.425 -0.714542 0.217805 0
M  V30 8151 H 744.087 -1.53265 1.20398 0
M  V30 8152 H 743.183 -3.01134 0.82004 0
M  V30 8153 N 743.484 -0.715051 -1.40445 0
M  V30 8154 C 744.73 -0.254705 -2.01194 0
M  V30 8155 C 745.063 1.14894 -1.56567 0
M  V30 8156 O 744.338 1.77933 -0.785491 0
M  V30 8157 C 744.621 -0.334148 -3.58546 0
M  V30 8158 C 744.474 -1.77613 -4.13248 0
M  V30 8159 C 745.793 0.294968 -4.3911 0
M  V30 8160 H 742.912 -0.094025 -0.730978 0
M  V30 8161 H 745.554 -0.907449 -1.66929 0
M  V30 8162 H 743.704 0.221609 -3.87867 0
M  V30 8163 H 745.376 -2.38723 -3.94727 0
M  V30 8164 H 743.619 -2.30402 -3.67556 0
M  V30 8165 H 744.29 -1.78311 -5.22407 0
M  V30 8166 H 746.766 -0.178563 -4.15717 0
M  V30 8167 H 745.642 0.208934 -5.48502 0
M  V30 8168 H 745.903 1.37841 -4.20062 0
M  V30 8169 N 744.962 1.50701 -0.461195 0
M  V30 8170 C 746.19 2.06681 0.0951756 0
M  V30 8171 C 746.605 1.32615 1.34382 0
M  V30 8172 O 745.962 0.392531 1.78229 0
M  V30 8173 C 746.013 3.59354 0.393316 0
M  V30 8174 O 745.734 4.30626 -0.805797 0
M  V30 8175 C 747.235 4.31926 0.997744 0
M  V30 8176 H 744.455 0.670995 -0.00267259 0
M  V30 8177 H 746.999 1.93991 -0.647137 0
M  V30 8178 H 745.154 3.7188 1.08555 0
M  V30 8179 H 745.568 5.21667 -0.544409 0
M  V30 8180 H 747.042 5.39756 1.15619 0
M  V30 8181 H 747.519 3.91772 1.98523 0
M  V30 8182 H 748.125 4.23905 0.344188 0
M  V30 8183 N 746.441 0.193421 1.56409 0
M  V30 8184 C 747.389 -0.744829 2.20352 0
M  V30 8185 C 748.383 -1.22104 1.17418 0
M  V30 8186 O 749.589 -1.18413 1.35567 0
M  V30 8187 H 745.964 -0.258538 0.70616 0
M  V30 8188 H 747.935 -0.181794 2.97846 0
M  V30 8189 C 746.684 -1.95453 2.87565 0
M  V30 8190 H 746.007 -1.59716 3.66512 0
M  V30 8191 H 747.447 -2.58942 3.35745 0
M  V30 8192 C 745.906 -2.79223 1.8851 0
M  V30 8193 O 746.436 -3.77093 1.38434 0
M  V30 8194 N 744.642 -2.44682 1.56777 0
M  V30 8195 H 744.189 -1.65153 1.97692 0
M  V30 8196 H 744.147 -3.01016 0.907573 0
M  V30 8197 N 747.919 -1.57396 -0.0801906 0
M  V30 8198 C 748.849 -2.06145 -1.09665 0
M  V30 8199 C 749.83 -0.953273 -1.40878 0
M  V30 8200 O 751.015 -1.22548 -1.50651 0
M  V30 8201 C 748.145 -2.49836 -2.41245 0
M  V30 8202 C 747.099 -3.64454 -2.24405 0
M  V30 8203 C 746.425 -3.94172 -3.61293 0
M  V30 8204 C 747.725 -4.94807 -1.67223 0
M  V30 8205 H 749.419 -2.91316 -0.691028 0
M  V30 8206 H 746.965 -1.40145 -0.330957 0
M  V30 8207 H 748.918 -2.82552 -3.12638 0
M  V30 8208 H 747.642 -1.61683 -2.83771 0
M  V30 8209 H 746.301 -3.32008 -1.55454 0
M  V30 8210 H 745.949 -3.03163 -4.01374 0
M  V30 8211 H 745.649 -4.71345 -3.50867 0
M  V30 8212 H 747.173 -4.29376 -4.3413 0
M  V30 8213 H 748.587 -5.25807 -2.28472 0
M  V30 8214 H 746.984 -5.76245 -1.67515 0
M  V30 8215 H 748.054 -4.80751 -0.632944 0
M  V30 8216 N 749.397 0.351382 -1.53633 0
M  V30 8217 C 750.808 0.927429 -1.62036 0
M  V30 8218 C 751.159 1.89809 -0.496706 0
M  V30 8219 O 750.284 2.1313 0.374749 0
M  V30 8220 C 750.879 1.68886 -2.93706 0
M  V30 8221 C 749.438 2.21404 -3.04397 0
M  V30 8222 C 748.585 1.03075 -2.57431 0
M  V30 8223 H 751.536 0.129748 -1.58169 0
M  V30 8224 H 751.557 2.55116 -2.82305 0
M  V30 8225 H 751.069 0.982149 -3.75467 0
M  V30 8226 H 749.17 2.95274 -2.27253 0
M  V30 8227 H 749.283 2.48312 -4.09729 0
M  V30 8228 H 747.647 1.40188 -2.12649 0
M  V30 8229 H 748.43 0.338793 -3.41624 0
M  V30 8230 N 750.875 1.45233 0.611969 0
M  V30 8231 C 752.291 1.29542 0.932251 0
M  V30 8232 C 752.491 0.24523 2.00002 0
M  V30 8233 O 751.547 -0.362333 2.49887 0
M  V30 8234 C 752.86 2.67301 1.37733 0
M  V30 8235 C 754.408 2.75163 1.49178 0
M  V30 8236 C 754.883 4.13437 1.97064 0
M  V30 8237 N 756.374 4.15709 2.04304 0
M  V30 8238 C 757.109 5.19566 2.42568 0
M  V30 8239 N 756.605 6.33771 2.79832 0
M  V30 8240 N 758.398 5.06923 2.42869 0
M  V30 8241 H 750.549 2.12192 -0.0938679 0
M  V30 8242 H 752.812 0.947775 0.0206569 0
M  V30 8243 H 752.518 3.45318 0.666951 0
M  V30 8244 H 752.392 2.95472 2.3447 0
M  V30 8245 H 754.779 1.97453 2.19309 0
M  V30 8246 H 754.86 2.50712 0.507674 0
M  V30 8247 H 754.504 4.91631 1.27521 0
M  V30 8248 H 754.434 4.35277 2.9638 0
M  V30 8249 H 756.925 3.33293 1.78113 0
M  V30 8250 H 757.238 7.08815 3.07898 0
M  V30 8251 H 755.583 6.37179 2.77538 0
M  V30 8252 H 758.774 4.1675 2.1316 0
M  V30 8253 H 758.947 5.87981 2.72364 0
M  V30 8254 N 752.353 -0.854086 1.3245 0
M  V30 8255 C 753.283 -1.97827 1.24044 0
M  V30 8256 C 754.264 -1.69646 0.124166 0
M  V30 8257 O 755.449 -1.91687 0.31143 0
M  V30 8258 C 752.579 -3.33673 0.963324 0
M  V30 8259 C 751.533 -3.76207 2.04089 0
M  V30 8260 C 750.859 -5.0969 1.61618 0
M  V30 8261 C 752.159 -3.91612 3.45597 0
M  V30 8262 H 753.853 -2.05118 2.18099 0
M  V30 8263 H 751.399 -0.985489 1.04996 0
M  V30 8264 H 753.352 -4.11871 0.891061 0
M  V30 8265 H 752.076 -3.26597 -0.0128649 0
M  V30 8266 H 750.735 -3.0026 2.10332 0
M  V30 8267 H 750.383 -4.99072 0.627418 0
M  V30 8268 H 750.083 -5.3912 2.33717 0
M  V30 8269 H 751.607 -5.90381 1.55829 0
M  V30 8270 H 753.021 -4.60163 3.4194 0
M  V30 8271 H 751.418 -4.3246 4.16051 0
M  V30 8272 H 752.488 -2.9451 3.85217 0
M  V30 8273 N 753.831 -1.1567 -1.07043 0
M  V30 8274 C 754.763 -0.814095 -2.14255 0
M  V30 8275 C 755.776 0.175293 -1.61854 0
M  V30 8276 O 756.965 -0.0483984 -1.78434 0
M  V30 8277 C 754.065 -0.190082 -3.38367 0
M  V30 8278 C 753.238 -1.21768 -4.20109 0
M  V30 8279 C 752.297 -0.614863 -5.22595 0
M  V30 8280 O 751.323 -1.28167 -5.54583 0
M  V30 8281 N 752.525 0.601955 -5.77371 0
M  V30 8282 H 755.29 -1.73677 -2.44247 0
M  V30 8283 H 752.851 -1.05301 -1.22977 0
M  V30 8284 H 754.843 0.22604 -4.04068 0
M  V30 8285 H 753.413 0.635992 -3.06062 0
M  V30 8286 H 752.633 -1.81025 -3.50177 0
M  V30 8287 H 753.921 -1.9114 -4.71533 0
M  V30 8288 H 753.319 1.162 -5.53637 0
M  V30 8289 H 751.876 0.96039 -6.44686 0
M  V30 8290 N 755.309 1.25446 -0.953992 0
M  V30 8291 C 756.219 2.29632 -0.480264 0
M  V30 8292 C 757.235 1.68025 0.452071 0
M  V30 8293 O 758.411 1.98703 0.328472 0
M  V30 8294 C 755.476 3.45903 0.234974 0
M  V30 8295 C 754.537 4.22953 -0.735495 0
M  V30 8296 C 753.77 5.33672 -0.0542957 0
M  V30 8297 O 753.993 5.58477 1.16018 0
M  V30 8298 O 752.927 5.9734 -0.739509 0
M  V30 8299 H 756.753 2.72242 -1.34602 0
M  V30 8300 H 754.338 1.30883 -0.720419 0
M  V30 8301 H 756.22 4.16552 0.637341 0
M  V30 8302 H 754.895 3.05296 1.07592 0
M  V30 8303 H 753.802 3.54734 -1.18806 0
M  V30 8304 H 755.135 4.67341 -1.54444 0
M  V30 8305 N 756.787 0.722489 1.40064 0
M  V30 8306 C 757.717 0.0892452 2.33329 0
M  V30 8307 C 758.698 -0.737992 1.53257 0
M  V30 8308 O 759.883 -0.685516 1.81698 0
M  V30 8309 C 757.013 -0.828139 3.37282 0
M  V30 8310 C 755.967 -0.106005 4.27869 0
M  V30 8311 C 755.293 -1.13957 5.22415 0
M  V30 8312 C 756.593 1.04395 5.11761 0
M  V30 8313 H 758.287 0.868269 2.86534 0
M  V30 8314 H 755.833 0.418982 1.3777 0
M  V30 8315 H 757.786 -1.28058 4.01471 0
M  V30 8316 H 756.51 -1.63914 2.82489 0
M  V30 8317 H 755.169 0.326683 3.65142 0
M  V30 8318 H 754.817 -1.9438 4.63924 0
M  V30 8319 H 754.517 -0.661233 5.83868 0
M  V30 8320 H 756.041 -1.59197 5.89482 0
M  V30 8321 H 757.455 0.670541 5.69365 0
M  V30 8322 H 755.852 1.4511 5.82291 0
M  V30 8323 H 756.922 1.87144 4.47331 0
M  V30 8324 N 758.265 -1.50454 0.469181 0
M  V30 8325 C 759.195 -2.31353 -0.31592 0
M  V30 8326 C 760.176 -1.38172 -0.992094 0
M  V30 8327 O 761.361 -1.67093 -0.989633 0
M  V30 8328 C 758.491 -3.1786 -1.39937 0
M  V30 8329 C 757.445 -4.19578 -0.844909 0
M  V30 8330 C 756.771 -4.9481 -2.0265 0
M  V30 8331 C 758.071 -5.22106 0.142499 0
M  V30 8332 H 759.765 -2.97237 0.359269 0
M  V30 8333 H 757.311 -1.42942 0.174224 0
M  V30 8334 H 759.264 -3.7325 -1.95607 0
M  V30 8335 H 757.988 -2.49858 -2.1033 0
M  V30 8336 H 756.647 -3.65285 -0.310189 0
M  V30 8337 H 756.295 -4.23282 -2.71737 0
M  V30 8338 H 755.995 -5.63613 -1.66174 0
M  V30 8339 H 757.519 -5.53035 -2.58815 0
M  V30 8340 H 758.933 -5.72378 -0.324966 0
M  V30 8341 H 757.33 -5.98618 0.421441 0
M  V30 8342 H 758.4 -4.7297 1.06901 0
M  V30 8343 N 759.743 -0.201713 -1.56304 0
M  V30 8344 C 760.673 0.71155 -2.22394 0
M  V30 8345 C 761.654 1.21625 -1.18917 0
M  V30 8346 O 762.839 1.26388 -1.47444 0
M  V30 8347 C 759.969 1.92837 -2.88845 0
M  V30 8348 C 758.923 1.55831 -3.98623 0
M  V30 8349 C 758.249 2.85228 -4.52271 0
M  V30 8350 C 759.549 0.763249 -5.16693 0
M  V30 8351 H 761.243 0.160573 -2.98969 0
M  V30 8352 H 758.789 0.0757916 -1.438 0
M  V30 8353 H 760.742 2.57253 -3.33764 0
M  V30 8354 H 759.466 2.50398 -2.09686 0
M  V30 8355 H 758.125 0.9377 -3.54405 0
M  V30 8356 H 757.773 3.40893 -3.69866 0
M  V30 8357 H 757.473 2.6121 -5.26349 0
M  V30 8358 H 758.997 3.50622 -4.99897 0
M  V30 8359 H 760.411 1.31066 -5.58117 0
M  V30 8360 H 758.808 0.620935 -5.96879 0
M  V30 8361 H 759.878 -0.234322 -4.84334 0
M  V30 8362 N 761.222 1.57436 0.0718424 0
M  V30 8363 C 762.462 1.89082 0.776351 0
M  V30 8364 C 762.826 0.795494 1.74745 0
M  V30 8365 O 764.027 0.995025 2.49705 0
M  V30 8366 C 762.298 3.25958 1.46582 0
M  V30 8367 S 763.857 3.79352 2.2054 0
M  V30 8368 H 760.675 0.662472 0.25817 0
M  V30 8369 H 763.277 1.95473 0.0324536 0
M  V30 8370 H 761.981 4.03577 0.745237 0
M  V30 8371 H 761.512 3.22764 2.24915 0
M  V30 8372 H 763.527 3.54634 3.47058 0
M  V30 8373 N 762.7 -0.34323 1.53817 0
M  V30 8374 C 763.648 -1.44176 1.82527 0
M  V30 8375 C 764.642 -1.54452 0.695772 0
M  V30 8376 O 765.848 -1.57072 0.879114 0
M  V30 8377 H 762.223 -0.480729 0.578277 0
M  V30 8378 H 764.194 -1.17176 2.74431 0
M  V30 8379 C 762.943 -2.80695 2.05197 0
M  V30 8380 H 762.266 -2.73554 2.91561 0
M  V30 8381 H 763.706 -3.56679 2.29251 0
M  V30 8382 C 762.165 -3.26322 0.837589 0
M  V30 8383 O 762.695 -4.01683 0.0371631 0
M  V30 8384 N 760.901 -2.83128 0.654724 0
M  V30 8385 H 760.448 -2.21965 1.30725 0
M  V30 8386 H 760.406 -3.14011 -0.156345 0
M  V30 8387 N 764.178 -1.45556 -0.604258 0
M  V30 8388 C 765.126 -1.5482 -1.7359 0
M  V30 8389 C 766.12 -0.417966 -1.64163 0
M  V30 8390 O 767.326 -0.594007 -1.69916 0
M  V30 8391 H 763.701 -0.486352 -0.573556 0
M  V30 8392 H 765.672 -2.5001 -1.62903 0
M  V30 8393 C 764.421 -1.53521 -3.11972 0
M  V30 8394 H 763.744 -2.39818 -3.19886 0
M  V30 8395 H 765.184 -1.64061 -3.90973 0
M  V30 8396 C 763.643 -0.260191 -3.35894 0
M  V30 8397 O 764.173 0.658582 -3.96265 0
M  V30 8398 N 762.379 -0.154839 -2.90187 0
M  V30 8399 H 761.926 -0.903378 -2.4124 0
M  V30 8400 H 761.884 0.697437 -3.06567 0
M  V30 8401 N 765.656 0.84705 -1.32902 0
M  V30 8402 C 767.072 1.13645 -1.12058 0
M  V30 8403 C 767.272 2.01281 0.093937 0
M  V30 8404 O 766.328 2.4026 0.776608 0
M  V30 8405 C 767.641 1.80644 -2.40392 0
M  V30 8406 C 769.189 1.93246 -2.46221 0
M  V30 8407 C 769.664 2.6366 -3.74496 0
M  V30 8408 N 771.155 2.71179 -3.75521 0
M  V30 8409 C 771.89 3.26332 -4.71482 0
M  V30 8410 N 771.386 3.82236 -5.77813 0
M  V30 8411 N 773.179 3.24507 -4.58968 0
M  V30 8412 H 765.33 0.263612 -2.10758 0
M  V30 8413 H 767.593 0.17944 -0.930863 0
M  V30 8414 H 767.299 1.23708 -3.29225 0
M  V30 8415 H 767.173 2.80736 -2.51926 0
M  V30 8416 H 769.56 2.49338 -1.57843 0
M  V30 8417 H 769.641 0.921272 -2.38634 0
M  V30 8418 H 769.285 2.08229 -4.63253 0
M  V30 8419 H 769.215 3.65234 -3.79357 0
M  V30 8420 H 771.706 2.31527 -2.9867 0
M  V30 8421 H 772.019 4.22499 -6.47082 0
M  V30 8422 H 770.364 3.80546 -5.81558 0
M  V30 8423 H 773.555 2.80085 -3.7506 0
M  V30 8424 H 773.728 3.67188 -5.33926 0
M  V30 8425 N 767.134 1.16236 1.06428 0
M  V30 8426 C 768.064 0.890807 2.1584 0
M  V30 8427 C 769.045 -0.162333 1.69324 0
M  V30 8428 O 770.23 -0.0147191 1.94194 0
M  V30 8429 C 767.36 0.389615 3.45108 0
M  V30 8430 C 766.314 1.38051 4.05125 0
M  V30 8431 C 765.64 0.737773 5.29586 0
M  V30 8432 C 766.94 2.74965 4.44062 0
M  V30 8433 H 768.634 1.80577 2.38814 0
M  V30 8434 H 766.18 0.869657 1.14774 0
M  V30 8435 H 768.133 0.187127 4.20984 0
M  V30 8436 H 766.857 -0.560851 3.21748 0
M  V30 8437 H 765.516 1.56952 3.31303 0
M  V30 8438 H 765.164 -0.219135 5.02522 0
M  V30 8439 H 764.864 1.39914 5.70699 0
M  V30 8440 H 766.388 0.545275 6.0816 0
M  V30 8441 H 767.802 2.59855 5.11027 0
M  V30 8442 H 766.199 3.37563 4.96156 0
M  V30 8443 H 767.269 3.30321 3.54987 0
M  V30 8444 N 768.612 -1.24939 0.960631 0
M  V30 8445 C 769.544 -2.24879 0.442937 0
M  V30 8446 C 770.557 -1.56615 -0.444464 0
M  V30 8447 O 771.746 -1.76715 -0.251776 0
M  V30 8448 C 768.846 -3.36757 -0.380537 0
M  V30 8449 C 768.019 -4.34587 0.495283 0
M  V30 8450 C 767.078 -5.25502 -0.270995 0
M  V30 8451 O 766.104 -5.68227 0.332661 0
M  V30 8452 N 767.306 -5.59077 -1.56249 0
M  V30 8453 H 770.071 -2.69932 1.30218 0
M  V30 8454 H 767.632 -1.38907 0.83166 0
M  V30 8455 H 769.624 -3.94542 -0.90103 0
M  V30 8456 H 768.194 -2.91045 -1.14067 0
M  V30 8457 H 767.414 -3.75593 1.19682 0
M  V30 8458 H 768.702 -4.96925 1.09285 0
M  V30 8459 H 768.1 -5.2628 -2.07476 0
M  V30 8460 H 766.657 -6.19421 -2.02882 0
M  V30 8461 N 770.09 -0.729906 -1.39679 0
M  V30 8462 C 771.022 -0.0470588 -2.29152 0
M  V30 8463 C 772.035 0.708808 -1.4656 0
M  V30 8464 O 773.224 0.553815 -1.69691 0
M  V30 8465 C 770.324 0.957612 -3.25089 0
M  V30 8466 C 769.497 0.264321 -4.36601 0
M  V30 8467 C 768.556 1.17638 -5.12882 0
M  V30 8468 O 767.582 0.655777 -5.6541 0
M  V30 8469 N 768.784 2.50649 -5.23598 0
M  V30 8470 H 771.549 -0.815364 -2.88395 0
M  V30 8471 H 769.11 -0.578707 -1.51204 0
M  V30 8472 H 771.102 1.57026 -3.72995 0
M  V30 8473 H 769.672 1.62716 -2.66912 0
M  V30 8474 H 768.892 -0.528732 -3.90638 0
M  V30 8475 H 770.18 -0.216344 -5.0834 0
M  V30 8476 H 769.578 2.95427 -4.82431 0
M  V30 8477 H 768.135 3.07022 -5.74961 0
M  V30 8478 N 771.568 1.50203 -0.477153 0
M  V30 8479 C 772.979 1.86685 -0.0235041 0
M  V30 8480 C 773.33 1.39148 1.38319 0
M  V30 8481 O 772.455 0.759051 2.02651 0
M  V30 8482 C 773.05 3.38781 -0.0358767 0
M  V30 8483 C 771.609 3.74652 0.362327 0
M  V30 8484 C 770.756 2.7412 -0.41875 0
M  V30 8485 H 773.707 1.4286 -0.691133 0
M  V30 8486 H 773.728 3.72732 0.764924 0
M  V30 8487 H 773.24 3.73349 -1.05981 0
M  V30 8488 H 771.341 3.45686 1.39039 0
M  V30 8489 H 771.454 4.79063 0.059457 0
M  V30 8490 H 769.818 2.54376 0.128341 0
M  V30 8491 H 770.601 3.11532 -1.44231 0
M  V30 8492 N 773.046 0.209999 1.56195 0
M  V30 8493 C 774.009 -0.691232 2.18528 0
M  V30 8494 C 775.009 -1.13013 1.14388 0
M  V30 8495 O 776.199 -1.04081 1.39688 0
M  V30 8496 C 773.331 -1.94551 2.79934 0
M  V30 8497 H 774.524 -0.147953 2.99535 0
M  V30 8498 H 772.077 -0.0396243 1.5625 0
M  V30 8499 H 772.812 -2.53094 2.02766 0
M  V30 8500 H 772.597 -1.63938 3.56184 0
M  V30 8501 H 774.087 -2.58785 3.2775 0
M  V30 8502 N 774.524 -1.57472 -0.0634922 0
M  V30 8503 C 775.77 -1.87932 -0.762194 0
M  V30 8504 C 776.103 -0.803377 -1.76804 0
M  V30 8505 O 775.378 0.185468 -1.93614 0
M  V30 8506 C 775.661 -3.29053 -1.46275 0
M  V30 8507 C 775.514 -4.47309 -0.472755 0
M  V30 8508 C 776.833 -3.68537 -2.40558 0
M  V30 8509 H 773.952 -0.683521 -0.275624 0
M  V30 8510 H 776.594 -1.89983 -0.0252651 0
M  V30 8511 H 774.744 -3.27435 -2.0909 0
M  V30 8512 H 776.416 -4.61053 0.150828 0
M  V30 8513 H 774.659 -4.33286 0.211187 0
M  V30 8514 H 775.33 -5.42853 -1.00072 0
M  V30 8515 H 777.806 -3.71302 -1.87814 0
M  V30 8516 H 776.682 -4.68152 -2.86574 0
M  V30 8517 H 776.943 -2.98917 -3.25731 0
M  V30 8518 N 776.003 0.335068 -1.53997 0
M  V30 8519 C 776.933 1.41727 -1.85568 0
M  V30 8520 C 777.914 1.54505 -0.7115 0
M  V30 8521 O 779.099 1.68573 -0.964191 0
M  V30 8522 C 776.229 2.7866 -2.07282 0
M  V30 8523 C 775.183 2.80682 -3.23112 0
M  V30 8524 C 774.509 4.20581 -3.30175 0
M  V30 8525 C 775.809 2.45458 -4.61029 0
M  V30 8526 H 777.503 1.15555 -2.76202 0
M  V30 8527 H 775.049 0.554445 -1.32898 0
M  V30 8528 H 777.002 3.54423 -2.27952 0
M  V30 8529 H 775.726 3.06286 -1.13387 0
M  V30 8530 H 774.385 2.07373 -3.02311 0
M  V30 8531 H 774.033 4.4533 -2.33859 0
M  V30 8532 H 773.733 4.22843 -4.08016 0
M  V30 8533 H 775.257 4.98174 -3.53066 0
M  V30 8534 H 776.671 3.10934 -4.81656 0
M  V30 8535 H 775.068 2.5899 -5.41336 0
M  V30 8536 H 776.138 1.40628 -4.6406 0
M  V30 8537 N 777.481 1.45874 0.596531 0
M  V30 8538 C 778.413 1.51408 1.7207 0
M  V30 8539 C 779.426 0.403738 1.57714 0
M  V30 8540 O 780.615 0.671384 1.65393 0
M  V30 8541 C 777.715 1.3652 3.10186 0
M  V30 8542 C 776.888 2.61428 3.50677 0
M  V30 8543 C 775.947 2.40937 4.67799 0
M  V30 8544 O 774.973 3.14602 4.74357 0
M  V30 8545 N 776.175 1.4621 5.61785 0
M  V30 8546 H 778.94 2.48333 1.67782 0
M  V30 8547 H 776.501 1.41755 0.782129 0
M  V30 8548 H 778.493 1.20606 3.86311 0
M  V30 8549 H 777.063 0.478302 3.08919 0
M  V30 8550 H 776.283 2.92381 2.644 0
M  V30 8551 H 777.571 3.44432 3.74491 0
M  V30 8552 H 776.969 0.854382 5.59211 0
M  V30 8553 H 775.526 1.36264 6.37397 0
M  V30 8554 N 778.959 -0.83999 1.33349 0
M  V30 8555 C 780.37 -1.41139 1.22216 0
M  V30 8556 C 780.721 -1.95551 -0.159398 0
M  V30 8557 O 779.846 -1.88721 -1.05893 0
M  V30 8558 C 780.441 -2.56564 2.21269 0
M  V30 8559 C 779 -3.09661 2.13979 0
M  V30 8560 C 778.147 -1.82457 2.08818 0
M  V30 8561 H 781.098 -0.645853 1.44964 0
M  V30 8562 H 781.119 -3.34163 1.81976 0
M  V30 8563 H 780.631 -2.16932 3.21811 0
M  V30 8564 H 778.732 -3.53841 1.16736 0
M  V30 8565 H 778.845 -3.6991 3.04472 0
M  V30 8566 H 777.209 -2.0266 1.54276 0
M  V30 8567 H 777.992 -1.45022 3.11165 0
M  V30 8568 N 780.437 -1.16799 -1.0581 0
M  V30 8569 C 781.367 -0.902241 -2.15364 0
M  V30 8570 C 782.348 0.153351 -1.69407 0
M  V30 8571 O 783.533 0.00442032 -1.94199 0
M  V30 8572 C 780.663 -0.407911 -3.44896 0
M  V30 8573 C 779.617 -1.40197 -4.04387 0
M  V30 8574 C 778.943 -0.765848 -5.29187 0
M  V30 8575 C 780.243 -2.77316 -4.42598 0
M  V30 8576 H 781.937 -1.81841 -2.37853 0
M  V30 8577 H 779.483 -0.875731 -1.14311 0
M  V30 8578 H 781.436 -0.20945 -4.20879 0
M  V30 8579 H 780.16 0.54378 -3.22041 0
M  V30 8580 H 778.819 -1.58707 -3.30466 0
M  V30 8581 H 778.467 0.192482 -5.02632 0
M  V30 8582 H 778.167 -1.42939 -5.69949 0
M  V30 8583 H 779.691 -0.577519 -6.07863 0
M  V30 8584 H 781.105 -2.62561 -5.09642 0
M  V30 8585 H 779.502 -3.4019 -4.94359 0
M  V30 8586 H 780.572 -3.32199 -3.53231 0
M  V30 8587 N 781.915 1.24427 -0.967243 0
M  V30 8588 C 782.878 2.23637 -0.501927 0
M  V30 8589 C 783.878 1.55712 0.401283 0
M  V30 8590 O 785.068 1.73085 0.196808 0
M  V30 8591 C 782.2 3.39804 0.273176 0
M  V30 8592 H 783.393 2.66317 -1.37897 0
M  V30 8593 H 780.946 1.37033 -0.751783 0
M  V30 8594 H 781.681 3.02562 1.16733 0
M  V30 8595 H 781.466 3.90303 -0.37498 0
M  V30 8596 H 782.956 4.13443 0.587776 0
M  V30 8597 N 783.393 0.737304 1.3929 0
M  V30 8598 C 784.618 0.295237 2.05288 0
M  V30 8599 C 785.043 -1.06235 1.55228 0
M  V30 8600 O 784.401 -1.67365 0.697043 0
M  V30 8601 C 784.449 0.309146 3.59272 0
M  V30 8602 O 783.553 -0.702437 4.06374 0
M  V30 8603 H 782.894 0.133762 0.650387 0
M  V30 8604 H 785.424 1.00387 1.78279 0
M  V30 8605 H 785.434 0.154336 4.07708 0
M  V30 8606 H 784.109 1.29974 3.95069 0
M  V30 8607 H 782.686 -0.513574 3.69346 0
M  V30 8608 N 784.871 -1.49948 0.485112 0
M  V30 8609 C 786.111 -2.04301 -0.0635728 0
M  V30 8610 C 786.475 -1.35804 -1.35725 0
M  V30 8611 O 787.676 -1.80789 -1.98919 0
M  V30 8612 C 785.947 -3.56666 -0.228962 0
M  V30 8613 S 787.506 -4.32614 -0.734185 0
M  V30 8614 H 784.324 -0.710939 -0.00931895 0
M  V30 8615 H 786.926 -1.84185 0.655455 0
M  V30 8616 H 785.63 -4.04068 0.718148 0
M  V30 8617 H 785.161 -3.8116 -0.973696 0
M  V30 8618 H 787.176 -4.53859 -2.00565 0
M  V30 8619 N 786.349 -0.21828 -1.56081 0
M  V30 8620 C 787.76 0.290166 -1.84431 0
M  V30 8621 C 788.111 1.59712 -1.13958 0
M  V30 8622 O 787.236 2.12516 -0.40815 0
M  V30 8623 C 787.831 0.53325 -3.34577 0
M  V30 8624 C 786.39 0.986011 -3.63256 0
M  V30 8625 C 785.537 0.0472798 -2.7726 0
M  V30 8626 H 788.488 -0.441548 -1.52434 0
M  V30 8627 H 788.509 1.37967 -3.54606 0
M  V30 8628 H 788.021 -0.418137 -3.85841 0
M  V30 8629 H 786.122 1.95087 -3.17446 0
M  V30 8630 H 786.235 0.862684 -4.71269 0
M  V30 8631 H 784.599 0.553471 -2.48614 0
M  V30 8632 H 785.382 -0.898966 -3.31321 0
M  V30 8633 N 787.827 1.57504 0.0551401 0
M  V30 8634 C 789.243 1.54236 0.410292 0
M  V30 8635 C 789.443 0.940839 1.78187 0
M  V30 8636 O 788.499 0.550541 2.46425 0
M  V30 8637 C 789.812 2.98816 0.336064 0
M  V30 8638 C 791.36 3.10236 0.415047 0
M  V30 8639 C 791.835 4.56499 0.37055 0
M  V30 8640 N 793.326 4.61199 0.43013 0
M  V30 8641 C 794.061 5.71873 0.418179 0
M  V30 8642 N 793.557 6.91864 0.360056 0
M  V30 8643 N 795.35 5.60165 0.465977 0
M  V30 8644 H 787.501 1.94965 -0.842759 0
M  V30 8645 H 789.764 0.893096 -0.317937 0
M  V30 8646 H 789.47 3.4645 -0.605429 0
M  V30 8647 H 789.344 3.59564 1.13988 0
M  V30 8648 H 791.731 2.62566 1.34697 0
M  V30 8649 H 791.812 2.52367 -0.417648 0
M  V30 8650 H 791.456 5.0483 -0.557592 0
M  V30 8651 H 791.386 5.12249 1.221 0
M  V30 8652 H 793.877 3.74857 0.478623 0
M  V30 8653 H 794.19 7.71983 0.35532 0
M  V30 8654 H 792.535 6.94233 0.326492 0
M  V30 8655 H 795.726 4.65322 0.509194 0
M  V30 8656 H 795.899 6.46413 0.453194 0
M  V30 8657 N 789.305 -0.326896 1.54172 0
M  V30 8658 C 790.235 -1.40741 1.86317 0
M  V30 8659 C 791.216 -1.54125 0.719684 0
M  V30 8660 O 792.401 -1.6806 0.973117 0
M  V30 8661 C 789.531 -2.77557 2.08757 0
M  V30 8662 C 788.485 -2.78965 3.24596 0
M  V30 8663 C 787.811 -4.18824 3.32401 0
M  V30 8664 C 789.111 -2.4301 4.62324 0
M  V30 8665 H 790.805 -1.14088 2.76811 0
M  V30 8666 H 788.351 -0.547389 1.3319 0
M  V30 8667 H 790.304 -3.53209 2.29829 0
M  V30 8668 H 789.028 -3.0568 1.15009 0
M  V30 8669 H 787.687 -2.05767 3.03406 0
M  V30 8670 H 787.335 -4.44083 2.36218 0
M  V30 8671 H 787.035 -4.20673 4.10253 0
M  V30 8672 H 788.559 -4.96294 3.55703 0
M  V30 8673 H 789.973 -3.08375 4.83299 0
M  V30 8674 H 788.37 -2.56116 5.42701 0
M  V30 8675 H 789.44 -1.38165 4.64799 0
M  V30 8676 N 790.784 -1.46188 -0.588786 0
M  V30 8677 C 792.03 -1.51407 -1.34921 0
M  V30 8678 C 792.363 -0.162771 -1.93517 0
M  V30 8679 O 791.638 0.825082 -1.76132 0
M  V30 8680 C 791.921 -2.60795 -2.48311 0
M  V30 8681 C 791.774 -4.05435 -1.94789 0
M  V30 8682 C 793.093 -2.66313 -3.50379 0
M  V30 8683 H 790.212 -0.551213 -0.489217 0
M  V30 8684 H 792.854 -1.78095 -0.661993 0
M  V30 8685 H 791.004 -2.3817 -3.06932 0
M  V30 8686 H 792.676 -4.39328 -1.40672 0
M  V30 8687 H 790.919 -4.15202 -1.25659 0
M  V30 8688 H 791.59 -4.77691 -2.76613 0
M  V30 8689 H 794.066 -2.86634 -3.01629 0
M  V30 8690 H 792.942 -3.44681 -4.27184 0
M  V30 8691 H 793.203 -1.72127 -4.07216 0
M  V30 8692 N 792.262 0.832906 -1.33792 0
M  V30 8693 C 793.192 1.95828 -1.27176 0
M  V30 8694 C 794.173 1.69427 -0.15114 0
M  V30 8695 O 795.358 1.91167 -0.341886 0
M  V30 8696 C 792.488 3.32098 -1.01629 0
M  V30 8697 C 791.442 3.72912 -2.10049 0
M  V30 8698 C 790.768 5.07054 -1.69706 0
M  V30 8699 C 792.068 3.86064 -3.51783 0
M  V30 8700 H 793.762 2.01622 -2.21334 0
M  V30 8701 H 791.308 0.96866 -1.0655 0
M  V30 8702 H 793.261 4.10402 -0.956474 0
M  V30 8703 H 791.985 3.26577 -0.0390956 0
M  V30 8704 H 790.644 2.96876 -2.15082 0
M  V30 8705 H 790.292 4.9801 -0.706737 0
M  V30 8706 H 789.992 5.35333 -2.42264 0
M  V30 8707 H 791.516 5.87827 -1.65202 0
M  V30 8708 H 792.93 4.54665 -3.49218 0
M  V30 8709 H 791.327 4.25787 -4.22878 0
M  V30 8710 H 792.397 2.88344 -3.89854 0
M  V30 8711 N 793.74 1.17359 1.05189 0
M  V30 8712 C 794.67 0.91365 2.14883 0
M  V30 8713 C 795.651 -0.144365 1.69486 0
M  V30 8714 O 796.836 0.00587861 1.94199 0
M  V30 8715 C 793.966 0.426196 3.44675 0
M  V30 8716 C 792.92 1.4234 4.03638 0
M  V30 8717 C 792.246 0.793902 5.28773 0
M  V30 8718 C 793.546 2.7966 4.41121 0
M  V30 8719 H 795.24 1.831 2.36885 0
M  V30 8720 H 792.786 0.881781 1.13845 0
M  V30 8721 H 794.739 0.231767 4.20762 0
M  V30 8722 H 793.463 -0.526693 3.22325 0
M  V30 8723 H 792.122 1.60457 3.2962 0
M  V30 8724 H 791.77 -0.165824 5.02727 0
M  V30 8725 H 791.47 1.45959 5.69183 0
M  V30 8726 H 792.994 0.609747 6.07548 0
M  V30 8727 H 794.408 2.6526 5.08242 0
M  V30 8728 H 792.805 3.42807 4.92548 0
M  V30 8729 H 793.875 3.34068 3.51464 0
M  V30 8730 N 795.218 -1.23913 0.973828 0
M  V30 8731 C 796.166 -2.27141 0.50098 0
M  V30 8732 C 797.16 -1.63623 -0.438631 0
M  V30 8733 O 798.366 -1.77253 -0.313247 0
M  V30 8734 H 794.741 -0.73817 0.14356 0
M  V30 8735 H 796.712 -2.64392 1.38346 0
M  V30 8736 C 795.461 -3.47195 -0.187377 0
M  V30 8737 H 794.784 -3.96318 0.526535 0
M  V30 8738 H 796.224 -4.21252 -0.481962 0
M  V30 8739 C 794.683 -3.05678 -1.41642 0
M  V30 8740 O 795.213 -3.1338 -2.51309 0
M  V30 8741 N 793.419 -2.60661 -1.28469 0
M  V30 8742 H 792.966 -2.54594 -0.39238 0
M  V30 8743 H 792.924 -2.33249 -2.10813 0
M  V30 8744 N 796.696 -0.74468 -1.38897 0
M  V30 8745 C 797.626 -0.126355 -2.33158 0
M  V30 8746 C 798.607 0.713517 -1.54412 0
M  V30 8747 O 799.792 0.656523 -1.82766 0
M  V30 8748 C 796.922 0.774375 -3.38557 0
M  V30 8749 C 795.876 0.0379214 -4.27983 0
M  V30 8750 C 795.202 1.05631 -5.24162 0
M  V30 8751 C 796.502 -1.12523 -5.10035 0
M  V30 8752 H 798.196 -0.913744 -2.85116 0
M  V30 8753 H 795.742 -0.440847 -1.37086 0
M  V30 8754 H 797.695 1.21655 -4.03458 0
M  V30 8755 H 796.419 1.59399 -2.85061 0
M  V30 8756 H 795.078 -0.384733 -3.64576 0
M  V30 8757 H 794.726 1.86975 -4.66958 0
M  V30 8758 H 794.426 0.568261 -5.84846 0
M  V30 8759 H 795.95 1.49799 -5.9194 0
M  V30 8760 H 797.364 -0.761037 -5.68226 0
M  V30 8761 H 795.761 -1.54355 -5.79909 0
M  V30 8762 H 796.831 -1.94237 -4.44297 0
M  V30 8763 N 798.174 1.49689 -0.493057 0
M  V30 8764 C 799.106 2.26867 0.326195 0
M  V30 8765 C 800.119 1.33083 0.937697 0
M  V30 8766 O 801.308 1.58427 0.822382 0
M  V30 8767 C 798.408 3.0519 1.4735 0
M  V30 8768 C 797.581 4.26491 0.970767 0
M  V30 8769 C 796.64 4.86926 1.99473 0
M  V30 8770 O 795.666 5.47221 1.56647 0
M  V30 8771 N 796.868 4.75871 3.32456 0
M  V30 8772 H 799.633 2.97816 -0.335547 0
M  V30 8773 H 797.194 1.58602 -0.325129 0
M  V30 8774 H 799.186 3.42496 2.15589 0
M  V30 8775 H 797.756 2.369 2.03954 0
M  V30 8776 H 796.976 3.94036 0.113529 0
M  V30 8777 H 798.264 5.05092 0.613156 0
M  V30 8778 H 797.662 4.2797 3.69944 0
M  V30 8779 H 796.219 5.17383 3.96431 0
M  V30 8780 N 799.652 0.226554 1.55963 0
M  V30 8781 C 800.9 -0.402991 1.98041 0
M  V30 8782 C 801.221 -1.59938 1.11557 0
M  V30 8783 O 800.491 -1.9494 0.193719 0
M  V30 8784 H 799.071 -0.15188 0.731397 0
M  V30 8785 H 801.733 0.320613 1.92245 0
M  V30 8786 H 800.829 -0.725937 3.0354 0
M  V30 8787 N 801.13 -1.57531 -0.0467866 0
M  V30 8788 C 802.078 -2.06455 -1.0714 0
M  V30 8789 C 803.072 -0.974744 -1.38546 0
M  V30 8790 O 804.278 -1.15974 -1.37659 0
M  V30 8791 H 800.653 -0.658607 -0.362962 0
M  V30 8792 H 802.624 -2.91613 -0.632813 0
M  V30 8793 C 801.373 -2.54481 -2.36927 0
M  V30 8794 H 800.696 -3.37946 -2.13617 0
M  V30 8795 H 802.136 -2.92442 -3.07007 0
M  V30 8796 C 800.595 -1.43836 -3.04652 0
M  V30 8797 O 801.125 -0.794531 -3.93764 0
M  V30 8798 N 799.331 -1.17727 -2.65686 0
M  V30 8799 H 798.878 -1.70265 -1.93307 0
M  V30 8800 H 798.836 -0.439051 -3.11319 0
M  V30 8801 N 802.608 0.318715 -1.54344 0
M  V30 8802 C 804.019 0.89285 -1.63967 0
M  V30 8803 C 804.37 1.88712 -0.536855 0
M  V30 8804 O 803.495 2.13877 0.329457 0
M  V30 8805 C 804.09 1.62618 -2.97222 0
M  V30 8806 C 802.649 2.14897 -3.09025 0
M  V30 8807 C 801.796 0.975909 -2.5956 0
M  V30 8808 H 804.747 0.0961687 -1.58408 0
M  V30 8809 H 804.768 2.4907 -2.87653 0
M  V30 8810 H 804.28 0.902286 -3.77466 0
M  V30 8811 H 802.381 2.90387 -2.33465 0
M  V30 8812 H 802.494 2.39565 -4.14904 0
M  V30 8813 H 800.858 1.35646 -2.15574 0
M  V30 8814 H 801.641 0.266253 -3.42266 0
M  V30 8815 N 804.086 1.46499 0.581025 0
M  V30 8816 C 805.016 1.60052 1.70017 0
M  V30 8817 C 805.997 0.450788 1.64018 0
M  V30 8818 O 807.182 0.677237 1.82009 0
M  V30 8819 C 804.312 1.5921 3.08658 0
M  V30 8820 C 803.266 2.73169 3.29488 0
M  V30 8821 C 802.592 2.57389 4.68674 0
M  V30 8822 C 803.892 4.14978 3.1716 0
M  V30 8823 H 805.586 2.53735 1.5893 0
M  V30 8824 H 803.132 1.22113 0.763173 0
M  V30 8825 H 805.085 1.67285 3.86773 0
M  V30 8826 H 803.809 0.620718 3.20647 0
M  V30 8827 H 802.468 2.64566 2.53773 0
M  V30 8828 H 802.116 1.58331 4.77431 0
M  V30 8829 H 801.816 3.33826 4.83564 0
M  V30 8830 H 803.34 2.67358 5.48956 0
M  V30 8831 H 804.754 4.24684 3.85119 0
M  V30 8832 H 803.151 4.92016 3.4357 0
M  V30 8833 H 804.221 4.35016 2.14218 0
M  V30 8834 N 805.565 -0.825799 1.34232 0
M  V30 8835 C 806.805 -1.59541 1.27773 0
M  V30 8836 C 807.169 -1.91405 -0.150998 0
M  V30 8837 O 808.37 -2.66644 -0.339728 0
M  V30 8838 C 806.641 -2.86183 2.14089 0
M  V30 8839 S 808.2 -3.76751 2.24953 0
M  V30 8840 H 805.018 -0.546871 0.454371 0
M  V30 8841 H 807.62 -0.975677 1.69413 0
M  V30 8842 H 806.324 -2.60767 3.16905 0
M  V30 8843 H 805.855 -3.53155 1.73335 0
M  V30 8844 H 807.87 -4.75442 1.4202 0
M  V30 8845 N 807.043 -1.17915 -1.04565 0
M  V30 8846 C 807.975 -0.859359 -2.1248 0
M  V30 8847 C 808.988 0.140922 -1.62189 0
M  V30 8848 O 810.177 -0.0862361 -1.78292 0
M  V30 8849 C 807.277 -0.261811 -3.37887 0
M  V30 8850 C 806.45 -1.30651 -4.17431 0
M  V30 8851 C 805.509 -0.725575 -5.21174 0
M  V30 8852 O 804.535 -1.39901 -5.51739 0
M  V30 8853 N 805.737 0.479351 -5.78517 0
M  V30 8854 H 808.502 -1.78818 -2.40508 0
M  V30 8855 H 806.063 -1.07885 -1.20716 0
M  V30 8856 H 808.055 0.14028 -4.04457 0
M  V30 8857 H 806.625 0.570929 -3.07342 0
M  V30 8858 H 805.845 -1.88412 -3.46258 0
M  V30 8859 H 807.133 -2.01099 -4.67372 0
M  V30 8860 H 806.531 1.04431 -5.55977 0
M  V30 8861 H 805.088 0.823427 -6.46578 0
M  V30 8862 N 808.521 1.23394 -0.980386 0
M  V30 8863 C 809.484 2.23092 -0.525619 0
M  V30 8864 C 810.484 1.56129 0.384745 0
M  V30 8865 O 811.674 1.73284 0.178439 0
M  V30 8866 C 808.806 3.40074 0.23712 0
M  V30 8867 H 809.999 2.64839 -1.40714 0
M  V30 8868 H 807.552 1.36227 -0.766275 0
M  V30 8869 H 808.287 3.03783 1.13518 0
M  V30 8870 H 808.072 3.89883 -0.416356 0
M  V30 8871 H 809.562 4.14043 0.543892 0
M  V30 8872 N 809.999 0.752036 1.385 0
M  V30 8873 C 811.245 0.307958 2.00448 0
M  V30 8874 C 811.578 -1.10702 1.59558 0
M  V30 8875 O 810.853 -1.75788 0.832391 0
M  V30 8876 C 811.136 0.429092 3.57534 0
M  V30 8877 C 810.989 1.88507 4.08393 0
M  V30 8878 C 812.308 -0.178442 4.39738 0
M  V30 8879 H 809.427 0.113373 0.728228 0
M  V30 8880 H 812.069 0.951389 1.64465 0
M  V30 8881 H 810.219 -0.118695 3.88319 0
M  V30 8882 H 811.891 2.49104 3.88259 0
M  V30 8883 H 810.134 2.40066 3.61318 0
M  V30 8884 H 810.805 1.92099 5.17496 0
M  V30 8885 H 813.281 0.28872 4.15097 0
M  V30 8886 H 812.157 -0.0634349 5.48863 0
M  V30 8887 H 812.418 -1.26655 4.23569 0
M  V30 8888 N 811.477 -1.49425 0.500989 0
M  V30 8889 C 812.725 -2.02053 -0.0434495 0
M  V30 8890 C 813.046 -1.38285 -1.37486 0
M  V30 8891 O 812.316 -0.538171 -1.88363 0
M  V30 8892 H 810.896 -0.746757 -0.0190469 0
M  V30 8893 H 813.558 -1.83449 0.658227 0
M  V30 8894 H 812.654 -3.11619 -0.173129 0
M  V30 8895 N 812.955 -0.234822 -1.55841 0
M  V30 8896 C 814.204 0.393685 -1.97821 0
M  V30 8897 C 814.517 1.59947 -1.1259 0
M  V30 8898 O 815.723 2.29835 -1.44528 0
M  V30 8899 C 814.179 0.751811 -3.5196 0
M  V30 8900 C 813.787 -0.431898 -4.45913 0
M  V30 8901 C 815.531 1.34518 -4.02623 0
M  V30 8902 C 813.438 -0.0505976 -5.91378 0
M  V30 8903 H 812.368 0.150864 -0.738753 0
M  V30 8904 H 815.019 -0.333132 -1.80451 0
M  V30 8905 H 813.401 1.53642 -3.6498 0
M  V30 8906 H 814.575 -1.20935 -4.44647 0
M  V30 8907 H 812.89 -0.939385 -4.05666 0
M  V30 8908 H 815.487 1.64359 -5.08813 0
M  V30 8909 H 815.83 2.26554 -3.49255 0
M  V30 8910 H 816.363 0.623729 -3.9288 0
M  V30 8911 H 813.102 -0.937779 -6.48757 0
M  V30 8912 H 812.622 0.690898 -5.95808 0
M  V30 8913 H 814.301 0.37146 -6.45933 0
M  V30 8914 N 814.433 1.57553 0.0384317 0
M  V30 8915 C 815.363 2.0898 1.04161 0
M  V30 8916 C 816.344 0.99029 1.38301 0
M  V30 8917 O 817.529 1.26499 1.47349 0
M  V30 8918 C 814.659 2.56145 2.34536 0
M  V30 8919 C 813.613 3.70275 2.14663 0
M  V30 8920 C 812.939 4.03612 3.50715 0
M  V30 8921 C 814.239 4.99067 1.54045 0
M  V30 8922 H 815.933 2.93046 0.613548 0
M  V30 8923 H 813.479 1.40973 0.293684 0
M  V30 8924 H 815.432 2.90741 3.05037 0
M  V30 8925 H 814.156 1.6915 2.79385 0
M  V30 8926 H 812.815 3.36013 1.46597 0
M  V30 8927 H 812.463 3.13698 3.93195 0
M  V30 8928 H 812.163 4.80482 3.38247 0
M  V30 8929 H 813.687 4.40735 4.22593 0
M  V30 8930 H 815.101 5.3168 2.14451 0
M  V30 8931 H 813.498 5.80484 1.52178 0
M  V30 8932 H 814.568 4.8226 0.505259 0
M  V30 8933 N 815.911 -0.310526 1.54511 0
M  V30 8934 C 816.821 -1.4054 1.87844 0
M  V30 8935 C 817.837 -1.55954 0.771635 0
M  V30 8936 O 819.013 -1.70801 1.06719 0
M  V30 8937 C 816.078 -2.75063 2.11048 0
M  V30 8938 C 815.139 -2.68715 3.348 0
M  V30 8939 C 814.372 -3.96821 3.56887 0
M  V30 8940 O 814.595 -4.95721 2.82165 0
M  V30 8941 O 813.529 -3.99291 4.50389 0
M  V30 8942 H 817.355 -1.15275 2.80972 0
M  V30 8943 H 814.94 -0.505732 1.4058 0
M  V30 8944 H 816.822 -3.54671 2.27566 0
M  V30 8945 H 815.497 -3.00191 1.21108 0
M  V30 8946 H 814.404 -1.87611 3.23655 0
M  V30 8947 H 815.737 -2.4854 4.2484 0
M  V30 8948 N 817.389 -1.46805 -0.573248 0
M  V30 8949 C 818.321 -1.54127 -1.6964 0
M  V30 8950 C 819.334 -0.428778 -1.57052 0
M  V30 8951 O 820.523 -0.697612 -1.64303 0
M  V30 8952 C 817.623 -1.41438 -3.07975 0
M  V30 8953 C 816.796 -2.66974 -3.46474 0
M  V30 8954 C 815.855 -2.48349 -4.63906 0
M  V30 8955 O 814.881 -3.22109 -4.69292 0
M  V30 8956 N 816.083 -1.55129 -5.59388 0
M  V30 8957 H 818.848 -2.50971 -1.6381 0
M  V30 8958 H 816.409 -1.42981 -0.759479 0
M  V30 8959 H 818.401 -1.26737 -3.84343 0
M  V30 8960 H 816.971 -0.527388 -3.08119 0
M  V30 8961 H 816.191 -2.9655 -2.59715 0
M  V30 8962 H 817.479 -3.50347 -3.68964 0
M  V30 8963 H 816.877 -0.94324 -5.57781 0
M  V30 8964 H 815.434 -1.46387 -6.35149 0
M  V30 8965 N 818.867 0.818669 -1.34668 0
M  V30 8966 C 819.797 1.94468 -1.29245 0
M  V30 8967 C 820.778 1.69257 -0.169101 0
M  V30 8968 O 821.963 1.90794 -0.362143 0
M  V30 8969 C 819.093 3.31001 -1.05145 0
M  V30 8970 C 818.047 3.70663 -2.13992 0
M  V30 8971 C 817.373 5.05226 -1.75074 0
M  V30 8972 C 818.673 3.82312 -3.55858 0
M  V30 8973 H 820.367 1.99263 -2.2346 0
M  V30 8974 H 817.913 0.957304 -1.07572 0
M  V30 8975 H 819.866 4.09364 -0.999949 0
M  V30 8976 H 818.59 3.26517 -0.0737312 0
M  V30 8977 H 817.249 2.94578 -2.18219 0
M  V30 8978 H 816.897 4.97233 -0.759518 0
M  V30 8979 H 816.597 5.32734 -2.47928 0
M  V30 8980 H 818.121 5.86042 -1.71427 0
M  V30 8981 H 819.535 4.50935 -3.5402 0
M  V30 8982 H 817.932 4.21278 -4.2737 0
M  V30 8983 H 819.002 2.84193 -3.9289 0
M  V30 8984 N 820.346 1.18468 1.03938 0
M  V30 8985 C 821.309 0.914944 2.10146 0
M  V30 8986 C 822.309 -0.10022 1.60487 0
M  V30 8987 O 823.499 0.133365 1.73689 0
M  V30 8988 C 820.631 0.372993 3.38853 0
M  V30 8989 H 821.824 1.85677 2.35508 0
M  V30 8990 H 819.377 0.996876 1.20383 0
M  V30 8991 H 820.112 -0.57538 3.19155 0
M  V30 8992 H 819.897 1.1048 3.76213 0
M  V30 8993 H 821.387 0.203014 4.17106 0
M  V30 8994 N 821.824 -1.22873 0.986916 0
M  V30 8995 C 822.734 -2.28277 0.540978 0
M  V30 8996 C 823.75 -1.69164 -0.407363 0
M  V30 8997 O 824.926 -1.99504 -0.275674 0
M  V30 8998 C 821.991 -3.46404 -0.143181 0
M  V30 8999 C 821.052 -4.20854 0.847375 0
M  V30 9000 C 820.285 -5.33341 0.19577 0
M  V30 9001 O 820.508 -5.61356 -1.0117 0
M  V30 9002 O 819.442 -5.95169 0.897623 0
M  V30 9003 H 823.268 -2.68578 1.41773 0
M  V30 9004 H 820.853 -1.28927 0.754867 0
M  V30 9005 H 822.735 -4.18096 -0.526676 0
M  V30 9006 H 821.41 -3.08041 -0.994593 0
M  V30 9007 H 820.317 -3.51459 1.28169 0
M  V30 9008 H 821.65 -4.63082 1.6678 0
M  V30 9009 N 823.302 -0.75937 -1.38099 0
M  V30 9010 C 824.232 -0.151077 -2.33011 0
M  V30 9011 C 825.213 0.697099 -1.5516 0
M  V30 9012 O 826.398 0.637101 -1.83452 0
M  V30 9013 C 823.528 0.738423 -3.39359 0
M  V30 9014 C 822.482 -0.0074741 -4.27999 0
M  V30 9015 C 821.808 1.00066 -5.25253 0
M  V30 9016 C 823.108 -1.17926 -5.08813 0
M  V30 9017 H 824.802 -0.943933 -2.84131 0
M  V30 9018 H 822.348 -0.455362 -1.36611 0
M  V30 9019 H 824.301 1.17369 -4.04725 0
M  V30 9020 H 823.025 1.56366 -2.86735 0
M  V30 9021 H 821.684 -0.423379 -3.64147 0
M  V30 9022 H 821.332 1.82012 -4.68914 0
M  V30 9023 H 821.032 0.506199 -5.85416 0
M  V30 9024 H 822.556 1.43512 -5.93495 0
M  V30 9025 H 823.97 -0.821262 -5.67387 0
M  V30 9026 H 822.367 -1.60497 -5.78239 0
M  V30 9027 H 823.437 -1.98938 -4.42212 0
M  V30 9028 N 824.78 1.49157 -0.508906 0
M  V30 9029 C 825.71 2.32109 0.254469 0
M  V30 9030 C 826.691 1.40754 0.955111 0
M  V30 9031 O 827.876 1.69658 0.944983 0
M  V30 9032 C 825.006 3.21458 1.3146 0
M  V30 9033 C 823.96 4.2167 0.733368 0
M  V30 9034 C 823.286 5.00009 1.8946 0
M  V30 9035 C 824.586 5.21544 -0.280875 0
M  V30 9036 H 826.28 2.9618 -0.43795 0
M  V30 9037 H 823.826 1.4243 -0.212062 0
M  V30 9038 H 825.779 3.78305 1.85643 0
M  V30 9039 H 824.503 2.55346 2.03632 0
M  V30 9040 H 823.162 3.65979 0.213231 0
M  V30 9041 H 822.81 4.30338 2.60419 0
M  V30 9042 H 822.51 5.67821 1.51173 0
M  V30 9043 H 824.034 5.59702 2.44061 0
M  V30 9044 H 825.448 5.73039 0.173095 0
M  V30 9045 H 823.845 5.97291 -0.580006 0
M  V30 9046 H 824.915 4.69969 -1.19404 0
M  V30 9047 N 826.258 0.243083 1.55714 0
M  V30 9048 C 827.669 -0.260788 1.8487 0
M  V30 9049 C 828.02 -1.57879 1.16485 0
M  V30 9050 O 827.145 -2.1184 0.441908 0
M  V30 9051 C 827.74 -0.479954 3.35383 0
M  V30 9052 C 826.299 -0.928096 3.64778 0
M  V30 9053 C 825.446 -0.00316416 2.773 0
M  V30 9054 H 828.397 0.465743 1.51712 0
M  V30 9055 H 828.418 -1.32308 3.56756 0
M  V30 9056 H 827.93 0.479468 3.85127 0
M  V30 9057 H 826.031 -1.90012 3.20509 0
M  V30 9058 H 826.144 -0.7876 4.72582 0
M  V30 9059 H 824.508 -0.513849 2.49463 0
M  V30 9060 H 825.291 0.951562 3.29849 0
M  V30 9061 N 827.736 -1.57571 -0.0300757 0
M  V30 9062 C 828.961 -1.93879 -0.736601 0
M  V30 9063 C 829.386 -0.842998 -1.68152 0
M  V30 9064 O 828.744 0.20135 -1.80178 0
M  V30 9065 C 828.792 -3.29247 -1.47066 0
M  V30 9066 O 827.896 -3.21426 -2.58378 0
M  V30 9067 H 827.237 -0.633735 -0.198181 0
M  V30 9068 H 829.767 -2.04595 0.0141485 0
M  V30 9069 H 829.777 -3.64113 -1.84081 0
M  V30 9070 H 828.452 -4.08565 -0.77764 0
M  V30 9071 H 827.029 -2.98189 -2.23914 0
M  V30 9072 N 829.214 0.302327 -1.54673 0
M  V30 9073 C 830.46 1.03924 -1.74149 0
M  V30 9074 C 830.793 1.86968 -0.525041 0
M  V30 9075 O 830.068 1.88538 0.477868 0
M  V30 9076 C 830.351 1.94633 -3.02969 0
M  V30 9077 C 830.204 1.14778 -4.34909 0
M  V30 9078 C 831.523 2.93826 -3.27649 0
M  V30 9079 H 828.642 0.376405 -0.633631 0
M  V30 9080 H 831.284 0.314007 -1.87387 0
M  V30 9081 H 829.434 2.56471 -2.91813 0
M  V30 9082 H 831.106 0.552363 -4.57981 0
M  V30 9083 H 829.349 0.450462 -4.31455 0
M  V30 9084 H 830.02 1.81495 -5.21309 0
M  V30 9085 H 832.496 2.42117 -3.38406 0
M  V30 9086 H 831.372 3.54462 -4.19104 0
M  V30 9087 H 831.633 3.67416 -2.45882 0
M  V30 9088 N 830.692 1.47107 0.565454 0
M  V30 9089 C 831.917 1.57153 1.35343 0
M  V30 9090 C 832.342 0.219247 1.86818 0
M  V30 9091 O 831.7 -0.803539 1.62521 0
M  V30 9092 C 831.748 2.59387 2.50501 0
M  V30 9093 O 830.852 2.14086 3.52478 0
M  V30 9094 H 830.193 0.528209 0.402357 0
M  V30 9095 H 832.723 1.92821 0.684189 0
M  V30 9096 H 832.733 2.79546 2.97184 0
M  V30 9097 H 831.408 3.57579 2.12391 0
M  V30 9098 H 829.985 2.03991 3.12157 0
M  V30 9099 N 832.17 -0.811516 1.35101 0
M  V30 9100 C 833.395 -1.60499 1.31358 0
M  V30 9101 C 833.82 -1.87793 -0.107383 0
M  V30 9102 O 833.178 -1.46161 -1.07268 0
M  V30 9103 C 833.226 -2.91612 2.12119 0
M  V30 9104 O 832.33 -3.84211 1.49853 0
M  V30 9105 H 831.671 -0.487702 0.450603 0
M  V30 9106 H 834.201 -1.00758 1.7807 0
M  V30 9107 H 834.211 -3.4108 2.23894 0
M  V30 9108 H 832.886 -2.71071 3.15426 0
M  V30 9109 H 831.463 -3.42751 1.46889 0
M  V30 9110 N 833.648 -1.19017 -1.03309 0
M  V30 9111 C 834.894 -0.991681 -1.769 0
M  V30 9112 C 835.227 0.476813 -1.88255 0
M  V30 9113 O 834.502 1.35407 -1.39625 0
M  V30 9114 C 834.785 -1.65627 -3.19749 0
M  V30 9115 C 834.638 -3.19813 -3.1629 0
M  V30 9116 C 835.957 -1.37579 -4.18043 0
M  V30 9117 H 833.076 -0.361674 -0.642153 0
M  V30 9118 H 835.718 -1.46795 -1.20628 0
M  V30 9119 H 833.868 -1.25132 -3.67796 0
M  V30 9120 H 835.54 -3.69494 -2.76174 0
M  V30 9121 H 833.783 -3.51578 -2.54117 0
M  V30 9122 H 834.454 -3.61457 -4.17196 0
M  V30 9123 H 836.93 -1.72679 -3.78578 0
M  V30 9124 H 835.806 -1.86636 -5.16196 0
M  V30 9125 H 836.067 -0.300118 -4.4108 0
M  V30 9126 N 835.127 1.22348 -0.993418 0
M  V30 9127 C 836.057 2.26584 -0.564088 0
M  V30 9128 C 837.038 1.65102 0.409298 0
M  V30 9129 O 838.223 1.91872 0.299819 0
M  V30 9130 C 835.353 3.47087 0.121554 0
M  V30 9131 C 834.307 4.21009 -0.770429 0
M  V30 9132 C 833.633 5.34678 0.0481586 0
M  V30 9133 C 834.933 4.79636 -2.06752 0
M  V30 9134 H 836.627 2.62749 -1.43538 0
M  V30 9135 H 834.173 1.26303 -0.691628 0
M  V30 9136 H 836.126 4.19166 0.433303 0
M  V30 9137 H 834.85 3.1002 1.0274 0
M  V30 9138 H 833.509 3.50764 -1.06583 0
M  V30 9139 H 833.157 4.93852 0.954933 0
M  V30 9140 H 832.857 5.85061 -0.545641 0
M  V30 9141 H 834.381 6.09573 0.353991 0
M  V30 9142 H 835.795 5.43654 -1.81969 0
M  V30 9143 H 834.192 5.4036 -2.61019 0
M  V30 9144 H 835.262 3.99659 -2.74592 0
M  V30 9145 N 836.605 0.766683 1.37694 0
M  V30 9146 C 837.833 0.339939 2.04088 0
M  V30 9147 C 838.248 -1.03617 1.57826 0
M  V30 9148 O 837.605 -1.6605 0.757214 0
M  V30 9149 C 837.656 0.368269 3.59619 0
M  V30 9150 O 837.377 1.69009 4.04188 0
M  V30 9151 C 838.878 -0.0707053 4.43244 0
M  V30 9152 H 836.098 0.143189 0.655544 0
M  V30 9153 H 838.642 1.03919 1.76128 0
M  V30 9154 H 836.797 -0.282359 3.8637 0
M  V30 9155 H 837.211 1.62523 4.98685 0
M  V30 9156 H 838.685 0.000273538 5.52 0
M  V30 9157 H 839.162 -1.1204 4.24669 0
M  V30 9158 H 839.768 0.551543 4.21709 0
M  V30 9159 O 838.122 -1.47474 0.658306 0
M  V30 9160 H 838.813 -1.92811 0.185369 0
M  V30 END ATOM
M  V30 BEGIN BOND
M  V30 END BOND
M  V30 END CTAB
M  END
$$$$
