drugbank_target|P83849 1-pyrroline-5-carboxylate dehydrogenase (DB03564)
 OpenBabel12092120283D

  0  0  0     0  0            999 V3000
M  V30 BEGIN CTAB
M  V30 COUNTS 8063 8159 0 0 0
M  V30 BEGIN ATOM
M  V30 1 H -0.908 1.98254 -0.117106 0
M  V30 2 N 0 1.576 0 0
M  V30 3 C 0.933 2.03868 1.02534 0
M  V30 4 C 1.911 0.928543 1.3348 0
M  V30 5 O 3.095 1.19667 1.45644 0
M  V30 6 C 0.222 2.43627 2.35294 0
M  V30 7 C -0.732 3.65373 2.2001 0
M  V30 8 S 0.101 5.13292 1.52614 0
M  V30 9 C 1.257 5.56322 2.86805 0
M  V30 10 H 1.49 2.90518 0.631377 0
M  V30 11 H -0.977 1.52953 0.210867 0
M  V30 12 H 0.981 2.67203 3.11629 0
M  V30 13 H -0.358 1.57376 2.7183 0
M  V30 14 H -1.165 3.90944 3.18086 0
M  V30 15 H -1.563 3.418 1.51819 0
M  V30 16 H 0.729 5.58782 3.83104 0
M  V30 17 H 1.672 6.56266 2.65933 0
M  V30 18 H 2.08 4.83886 2.90714 0
M  V30 19 N 1.4781 -0.272755 1.55222 0
M  V30 20 C 2.7061 -1.02255 1.79865 0
M  V30 21 C 3.1211 -1.79924 0.572088 0
M  V30 22 O 2.4781 -1.76638 -0.458842 0
M  V30 23 C 2.5291 -1.98094 3.02392 0
M  V30 24 O 2.2501 -1.23572 4.20311 0
M  V30 25 C 3.7511 -2.84884 3.39641 0
M  V30 26 H 0.9711 -0.302057 0.599168 0
M  V30 27 H 3.5151 -0.303465 2.02236 0
M  V30 28 H 1.6701 -2.65465 2.82147 0
M  V30 29 H 2.0841 -1.88172 4.89583 0
M  V30 30 H 3.5581 -3.47927 4.28545 0
M  V30 31 H 4.0351 -3.54665 2.59055 0
M  V30 32 H 4.6411 -2.23003 3.62146 0
M  V30 33 N 2.9562 -1.48159 -0.537278 0
M  V30 34 C 4.2022 -1.56035 -1.29541 0
M  V30 35 C 4.5352 -0.230377 -1.92829 0
M  V30 36 O 3.8102 0.762952 -1.78911 0
M  V30 37 C 4.0932 -2.69323 -2.39034 0
M  V30 38 C 3.9462 -4.12002 -1.80485 0
M  V30 39 C 5.2652 -2.78408 -3.40847 0
M  V30 40 H 2.3842 -0.567992 -0.469632 0
M  V30 41 H 5.0262 -1.80302 -0.599277 0
M  V30 42 H 3.1762 -2.48763 -2.98412 0
M  V30 43 H 4.8482 -4.43981 -1.25215 0
M  V30 44 H 3.0912 -4.19344 -1.11055 0
M  V30 45 H 3.7622 -4.87077 -2.59731 0
M  V30 46 H 6.2382 -2.97012 -2.91416 0
M  V30 47 H 5.1142 -3.59416 -4.14863 0
M  V30 48 H 5.3752 -1.86269 -4.00944 0
M  V30 49 N 4.4343 0.785586 -1.36625 0
M  V30 50 C 5.3443 1.92964 -1.33425 0
M  V30 51 C 6.3603 1.72394 -0.235851 0
M  V30 52 O 7.5363 1.95866 -0.468878 0
M  V30 53 C 4.6013 3.27884 -1.12662 0
M  V30 54 C 3.6623 3.61204 -2.32013 0
M  V30 55 C 2.8953 4.89687 -2.12231 0
M  V30 56 O 3.1183 5.59704 -1.09945 0
M  V30 57 O 2.0523 5.21752 -3.00098 0
M  V30 58 H 5.8783 1.98613 -2.29753 0
M  V30 59 H 3.4633 0.926384 -1.17211 0
M  V30 60 H 5.3453 4.08614 -1.03016 0
M  V30 61 H 4.0203 3.23118 -0.193991 0
M  V30 62 H 2.9273 2.80765 -2.47228 0
M  V30 63 H 4.2603 3.70698 -3.23796 0
M  V30 64 N 5.9124 1.20967 1.01018 0
M  V30 65 C 7.3234 1.02319 1.56165 0
M  V30 66 C 7.6744 -0.418546 1.91684 0
M  V30 67 O 6.7994 -1.30096 1.72928 0
M  V30 68 C 7.3944 1.85109 2.8376 0
M  V30 69 C 5.9534 1.70809 3.35412 0
M  V30 70 C 5.1004 1.82643 2.08655 0
M  V30 71 H 8.0514 1.35065 0.833255 0
M  V30 72 H 8.0724 1.35827 3.55431 0
M  V30 73 H 7.5844 2.90035 2.57878 0
M  V30 74 H 5.6854 0.685464 3.66241 0
M  V30 75 H 5.7984 2.52467 4.07182 0
M  V30 76 H 4.1624 1.25896 2.21409 0
M  V30 77 H 4.9454 2.89066 1.85191 0
M  V30 78 N 7.3905 -1.2043 1.01659 0
M  V30 79 C 8.6375 -1.89797 0.705917 0
M  V30 80 C 8.9655 -1.78848 -0.764439 0
M  V30 81 O 8.2205 -1.16694 -1.57102 0
M  V30 82 C 8.5195 -3.40464 1.08714 0
M  V30 83 C 8.1855 -3.71614 2.5537 0
M  V30 84 C 6.8475 -3.79826 2.95441 0
M  V30 85 C 9.1995 -3.85915 3.50313 0
M  V30 86 C 6.5275 -3.99797 4.29394 0
M  V30 87 C 8.8795 -4.07396 4.83954 0
M  V30 88 C 7.5435 -4.13837 5.23732 0
M  V30 89 H 6.8135 -0.694518 0.258313 0
M  V30 90 H 9.4605 -1.42691 1.27717 0
M  V30 91 H 7.7655 -3.89385 0.434309 0
M  V30 92 H 9.4625 -3.92433 0.824461 0
M  V30 93 H 6.0525 -3.65822 2.23321 0
M  V30 94 H 10.2365 -3.78926 3.20513 0
M  V30 95 H 5.4925 -4.03018 4.59768 0
M  V30 96 H 9.6665 -4.17404 5.57447 0
M  V30 97 H 7.2935 -4.29064 6.27541 0
M  V30 98 N 8.8686 -0.792821 -1.36206 0
M  V30 99 C 10.2846 -0.474903 -1.52371 0
M  V30 100 C 10.4846 1.00622 -1.74578 0
M  V30 101 O 9.5406 1.79162 -1.77924 0
M  V30 102 C 10.8536 -1.3083 -2.70747 0
M  V30 103 C 12.4016 -1.30234 -2.84619 0
M  V30 104 C 12.8766 -2.11956 -4.06004 0
M  V30 105 N 14.3676 -2.09419 -4.13156 0
M  V30 106 C 15.1026 -2.69419 -5.06163 0
M  V30 107 N 14.5986 -3.3829 -6.04592 0
M  V30 108 N 16.3916 -2.59134 -4.98804 0
M  V30 109 H 8.5426 -1.75222 -1.20046 0
M  V30 110 H 10.8056 -0.745024 -0.586211 0
M  V30 111 H 10.5116 -2.35881 -2.6087 0
M  V30 112 H 10.3856 -0.95196 -3.6499 0
M  V30 113 H 12.7726 -0.259748 -2.93955 0
M  V30 114 H 12.8536 -1.69847 -1.91274 0
M  V30 115 H 12.4976 -3.16248 -3.97429 0
M  V30 116 H 12.4276 -1.69711 -4.98503 0
M  V30 117 H 14.9186 -1.59297 -3.42685 0
M  V30 118 H 15.2316 -3.81394 -6.7213 0
M  V30 119 H 13.5766 -3.42393 -6.04807 0
M  V30 120 H 16.7676 -2.04927 -4.20859 0
M  V30 121 H 16.9406 -3.06185 -5.711 0
M  V30 122 N 10.3467 1.47872 -0.545128 0
M  V30 123 C 11.2947 2.31533 0.222512 0
M  V30 124 C 12.2887 1.42177 0.920985 0
M  V30 125 O 13.4947 1.59005 0.843645 0
M  V30 126 H 9.8697 0.746519 0.0906278 0
M  V30 127 H 11.8407 2.94139 -0.50246 0
M  V30 128 C 10.5897 3.2457 1.24699 0
M  V30 129 H 9.9127 3.93283 0.718944 0
M  V30 130 H 11.3527 3.85963 1.75523 0
M  V30 131 C 9.8117 2.47237 2.28856 0
M  V30 132 O 10.3417 2.20808 3.35569 0
M  V30 133 N 8.5477 2.08461 2.02466 0
M  V30 134 H 8.0947 2.30155 1.157 0
M  V30 135 H 8.0527 1.57033 2.72375 0
M  V30 136 N 11.8248 0.280983 1.55075 0
M  V30 137 C 12.7348 -0.61388 2.26426 0
M  V30 138 C 13.7508 -1.16521 1.29224 0
M  V30 139 O 14.9268 -1.19426 1.62171 0
M  V30 140 C 11.9918 -1.7788 2.9759 0
M  V30 141 C 11.0528 -1.26355 4.10284 0
M  V30 142 C 10.2858 -2.37295 4.78045 0
M  V30 143 O 10.5088 -3.56777 4.45047 0
M  V30 144 O 9.4428 -2.05119 5.65871 0
M  V30 145 H 13.2688 -0.0356932 3.03679 0
M  V30 146 H 10.8538 0.0481686 1.49322 0
M  V30 147 H 12.7358 -2.45791 3.42293 0
M  V30 148 H 11.4108 -2.34397 2.23249 0
M  V30 149 H 10.3178 -0.550735 3.70024 0
M  V30 150 H 11.6508 -0.744065 4.86543 0
M  V30 151 N 13.3029 -1.57598 0.00835791 0
M  V30 152 C 14.7139 -1.7892 -0.53333 0
M  V30 153 C 15.0649 -0.916609 -1.73473 0
M  V30 154 O 14.1899 -0.121336 -2.1606 0
M  V30 155 C 14.7849 -3.24488 -0.974313 0
M  V30 156 C 13.3439 -3.46878 -1.46125 0
M  V30 157 C 12.4909 -2.74157 -0.416302 0
M  V30 158 H 15.4419 -1.56958 0.234495 0
M  V30 159 H 15.4629 -3.3306 -1.83988 0
M  V30 160 H 14.9749 -3.87972 -0.099718 0
M  V30 161 H 13.0759 -2.8862 -2.35646 0
M  V30 162 H 13.1889 -4.55572 -1.48295 0
M  V30 163 H 11.5529 -2.39022 -0.87981 0
M  V30 164 H 12.3359 -3.40345 0.44947 0
M  V30 165 N 14.781 0.264519 -1.55364 0
M  V30 166 C 16.03 0.992812 -1.75574 0
M  V30 167 C 16.343 1.87142 -0.568979 0
M  V30 168 O 17.549 2.63513 -0.653682 0
M  V30 169 C 16.005 1.81519 -3.10771 0
M  V30 170 C 15.613 0.984839 -4.37041 0
M  V30 171 C 17.357 2.53727 -3.40327 0
M  V30 172 C 15.264 1.80209 -5.63275 0
M  V30 173 H 14.194 0.374412 -0.65447 0
M  V30 174 H 16.845 0.248138 -1.81815 0
M  V30 175 H 15.227 2.60115 -2.98591 0
M  V30 176 H 16.401 0.242455 -4.60162 0
M  V30 177 H 14.716 0.37691 -4.14691 0
M  V30 178 H 17.313 3.15292 -4.3185 0
M  V30 179 H 17.656 3.24447 -2.60845 0
M  V30 180 H 18.189 1.82156 -3.53644 0
M  V30 181 H 14.928 1.13896 -6.45529 0
M  V30 182 H 14.448 2.52022 -5.44284 0
M  V30 183 H 16.127 2.37364 -6.01887 0
M  V30 184 N 16.2591 1.48442 0.529413 0
M  V30 185 C 17.1691 1.6569 1.66084 0
M  V30 186 C 18.1851 0.539432 1.65427 0
M  V30 187 O 19.3611 0.810572 1.84368 0
M  V30 188 C 16.4261 1.69315 3.02545 0
M  V30 189 C 15.4871 2.92694 3.14052 0
M  V30 190 C 14.7201 2.96137 4.44003 0
M  V30 191 O 14.9431 2.07973 5.31134 0
M  V30 192 O 13.8771 3.88312 4.59888 0
M  V30 193 H 17.7031 2.61483 1.54469 0
M  V30 194 H 15.2881 1.3185 0.702567 0
M  V30 195 H 17.1701 1.74217 3.83701 0
M  V30 196 H 15.8451 0.766966 3.14483 0
M  V30 197 H 14.7521 2.93324 2.32189 0
M  V30 198 H 16.0851 3.84699 3.0703 0
M  V30 199 N 17.7372 -0.778329 1.37039 0
M  V30 200 C 18.9652 -1.56734 1.35063 0
M  V30 201 C 19.3802 -1.88686 -0.0655597 0
M  V30 202 O 18.7372 -1.5096 -1.02554 0
M  V30 203 C 18.7882 -2.88163 2.18276 0
M  V30 204 O 18.5092 -2.57583 3.54376 0
M  V30 205 C 20.0102 -3.82422 2.24206 0
M  V30 206 H 17.2302 -0.485778 0.462883 0
M  V30 207 H 19.7742 -0.965185 1.8029 0
M  V30 208 H 17.9292 -3.44818 1.76576 0
M  V30 209 H 18.3432 -3.41699 3.97922 0
M  V30 210 H 19.8172 -4.71667 2.86765 0
M  V30 211 H 20.2942 -4.21078 1.24861 0
M  V30 212 H 20.9002 -3.31697 2.6619 0
M  V30 213 N 19.2153 -1.21501 -1.00376 0
M  V30 214 C 20.4623 -1.03299 -1.74171 0
M  V30 215 C 20.7903 0.433326 -1.89612 0
M  V30 216 O 20.0453 1.33779 -1.42834 0
M  V30 217 C 20.3443 -1.67673 -3.15627 0
M  V30 218 C 20.0103 -3.17533 -3.2013 0
M  V30 219 C 18.6723 -3.58427 -3.21067 0
M  V30 220 C 21.0243 -4.13504 -3.17275 0
M  V30 221 C 18.3523 -4.93794 -3.16835 0
M  V30 222 C 20.7043 -5.48834 -3.14585 0
M  V30 223 C 19.3683 -5.89123 -3.13831 0
M  V30 224 H 18.6383 -0.377999 -0.637336 0
M  V30 225 H 21.2853 -1.51111 -1.17634 0
M  V30 226 H 19.5903 -1.12158 -3.75404 0
M  V30 227 H 21.2873 -1.51091 -3.71446 0
M  V30 228 H 17.8773 -2.84965 -3.20145 0
M  V30 229 H 22.0613 -3.82936 -3.15711 0
M  V30 230 H 17.3173 -5.24255 -3.1459 0
M  V30 231 H 21.4913 -6.22934 -3.1133 0
M  V30 232 H 19.1183 -6.93984 -3.10307 0
M  V30 233 N 20.6934 1.19889 -1.02296 0
M  V30 234 C 21.6254 2.22334 -0.556787 0
M  V30 235 C 22.6384 1.58674 0.364199 0
M  V30 236 O 23.8274 1.77768 0.161533 0
M  V30 237 C 20.9274 3.38257 0.208694 0
M  V30 238 C 20.1004 4.31504 -0.71577 0
M  V30 239 C 19.1594 5.262 0.00325597 0
M  V30 240 O 18.1854 5.65798 -0.621357 0
M  V30 241 N 19.3874 5.66303 1.27599 0
M  V30 242 H 22.1524 2.62957 -1.43784 0
M  V30 243 H 19.7134 1.34495 -0.901261 0
M  V30 244 H 21.7054 3.98616 0.699111 0
M  V30 245 H 20.2754 2.96472 0.991102 0
M  V30 246 H 19.4954 3.69016 -1.38638 0
M  V30 247 H 20.7834 4.9072 -1.34428 0
M  V30 248 H 20.1814 5.36155 1.80429 0
M  V30 249 H 18.7384 6.28942 1.71102 0
M  V30 250 N 22.1715 0.800033 1.35784 0
M  V30 251 C 23.3995 0.389606 2.03199 0
M  V30 252 C 23.8145 -0.997375 1.60306 0
M  V30 253 O 23.1715 -1.64154 0.797481 0
M  V30 254 C 23.2225 0.455855 3.58614 0
M  V30 255 O 22.9435 1.78815 3.99946 0
M  V30 256 C 24.4445 0.0374032 4.43284 0
M  V30 257 H 21.6645 0.159132 0.651857 0
M  V30 258 H 24.2085 1.08183 1.73541 0
M  V30 259 H 22.3635 -0.188057 3.86943 0
M  V30 260 H 22.7775 1.74636 4.94573 0
M  V30 261 H 24.2515 0.134882 5.51835 0
M  V30 262 H 24.7285 -1.01651 4.27275 0
M  V30 263 H 25.3345 0.654215 4.20238 0
M  V30 264 N 23.6496 -1.47581 0.552962 0
M  V30 265 C 24.5596 -2.33743 -0.200353 0
M  V30 266 C 25.5756 -1.47928 -0.916151 0
M  V30 267 O 26.7516 -1.80865 -0.885993 0
M  V30 268 C 23.8166 -3.24536 -1.21973 0
M  V30 269 C 22.8776 -4.26238 -0.511819 0
M  V30 270 C 22.1106 -5.12693 -1.48263 0
M  V30 271 O 22.3336 -5.01525 -2.71714 0
M  V30 272 O 21.2676 -5.93375 -1.00945 0
M  V30 273 H 25.0936 -2.9945 0.506304 0
M  V30 274 H 22.6786 -1.46071 0.313622 0
M  V30 275 H 24.5606 -3.80631 -1.80827 0
M  V30 276 H 23.2356 -2.61462 -1.90839 0
M  V30 277 H 22.1426 -3.73914 0.117799 0
M  V30 278 H 23.4756 -4.92014 0.135308 0
M  V30 279 N 25.1277 -0.289203 -1.54924 0
M  V30 280 C 26.0377 0.601863 -2.26748 0
M  V30 281 C 27.0537 1.15834 -1.2984 0
M  V30 282 O 28.2297 1.18564 -1.62802 0
M  V30 283 C 25.2947 1.76299 -2.98529 0
M  V30 284 C 24.3557 1.24178 -4.10948 0
M  V30 285 C 23.5887 2.34757 -4.79296 0
M  V30 286 O 23.8117 3.54411 -4.46933 0
M  V30 287 O 22.7457 2.02115 -5.66951 0
M  V30 288 H 26.5717 0.0195879 -3.03694 0
M  V30 289 H 24.1567 -0.0560868 -1.49295 0
M  V30 290 H 26.0387 2.43973 -3.43592 0
M  V30 291 H 24.7137 2.33209 -2.24488 0
M  V30 292 H 23.6207 0.531104 -3.70311 0
M  V30 293 H 24.9537 0.718252 -4.86931 0
M  V30 294 N 26.6058 1.57591 -0.0167156 0
M  V30 295 C 27.5688 2.08393 0.954204 0
M  V30 296 C 28.5688 0.996531 1.26198 0
M  V30 297 O 29.7588 1.25858 1.20438 0
M  V30 298 C 26.8908 2.5394 2.27436 0
M  V30 299 H 28.0838 2.95455 0.514451 0
M  V30 300 H 25.6368 1.54582 0.231089 0
M  V30 301 H 26.3718 1.70171 2.76066 0
M  V30 302 H 26.1568 3.33371 2.06412 0
M  V30 303 H 27.6468 2.93512 2.97053 0
M  V30 304 N 28.0839 -0.256276 1.55502 0
M  V30 305 C 29.4999 -0.604325 1.47716 0
M  V30 306 C 29.6999 -1.88763 0.705039 0
M  V30 307 O 28.7559 -2.51445 0.230613 0
M  V30 308 C 30.0689 -0.715756 2.92057 0
M  V30 309 C 31.6169 -0.808706 3.02372 0
M  V30 310 C 32.0919 -0.951777 4.48001 0
M  V30 311 N 33.5829 -1.01688 4.519 0
M  V30 312 C 34.3179 -1.14668 5.61817 0
M  V30 313 N 33.8139 -1.24261 6.81565 0
M  V30 314 N 35.6069 -1.1791 5.49594 0
M  V30 315 H 27.7579 0.586291 2.04148 0
M  V30 316 H 30.0209 0.201015 0.926443 0
M  V30 317 H 29.7269 0.157027 3.51349 0
M  V30 318 H 29.6009 -1.59071 3.42018 0
M  V30 319 H 31.9879 -1.67195 2.43166 0
M  V30 320 H 32.0689 0.0912063 2.55637 0
M  V30 321 H 31.7129 -0.0931291 5.07815 0
M  V30 322 H 31.6429 -1.86659 4.92408 0
M  V30 323 H 34.1339 -0.954468 3.65648 0
M  V30 324 H 34.4469 -1.34046 7.61086 0
M  V30 325 H 32.7919 -1.21236 6.84344 0
M  V30 326 H 35.9829 -1.10057 4.54978 0
M  V30 327 H 36.1559 -1.27681 6.35296 0
M  V30 328 N 29.562 -1.4872 -0.521534 0
M  V30 329 C 30.978 -1.35028 -0.850855 0
M  V30 330 C 31.178 -0.367712 -1.98116 0
M  V30 331 O 30.234 0.208037 -2.51642 0
M  V30 332 C 31.547 -2.75263 -1.21041 0
M  V30 333 C 33.095 -2.83813 -1.31981 0
M  V30 334 C 33.57 -4.24769 -1.71276 0
M  V30 335 N 35.061 -4.27482 -1.78363 0
M  V30 336 C 35.796 -5.33494 -2.1017 0
M  V30 337 N 35.292 -6.49775 -2.40343 0
M  V30 338 N 37.085 -5.20894 -2.11248 0
M  V30 339 H 29.236 -2.11214 0.22413 0
M  V30 340 H 31.499 -0.947252 0.0376439 0
M  V30 341 H 31.205 -3.48765 -0.453415 0
M  V30 342 H 31.079 -3.09327 -2.15863 0
M  V30 343 H 33.466 -2.10561 -2.06756 0
M  V30 344 H 33.547 -2.53358 -0.352596 0
M  V30 345 H 33.191 -4.9854 -0.970588 0
M  V30 346 H 33.121 -4.52673 -2.69062 0
M  V30 347 H 35.612 -3.43611 -1.57288 0
M  V30 348 H 35.925 -7.26402 -2.63743 0
M  V30 349 H 34.27 -6.53035 -2.37844 0
M  V30 350 H 37.461 -4.29065 -1.87139 0
M  V30 351 H 37.634 -6.03612 -2.35704 0
M  V30 352 N 31.0401 0.771051 -1.3745 0
M  V30 353 C 32.0031 1.86598 -1.33093 0
M  V30 354 C 33.0031 1.59076 -0.234845 0
M  V30 355 O 34.1931 1.67145 -0.490732 0
M  V30 356 C 31.3251 3.23747 -1.06773 0
M  V30 357 H 32.5181 1.91873 -2.30488 0
M  V30 358 H 30.0711 0.970876 -1.2249 0
M  V30 359 H 30.8061 3.24148 -0.099129 0
M  V30 360 H 30.5911 3.45115 -1.86112 0
M  V30 361 H 32.0811 4.03824 -1.06377 0
M  V30 362 N 32.5182 1.22032 0.997298 0
M  V30 363 C 33.4512 0.929735 2.08401 0
M  V30 364 C 34.4292 -0.125681 1.62114 0
M  V30 365 O 35.6132 0.00495409 1.88499 0
M  V30 366 C 32.7402 0.397488 3.3636 0
M  V30 367 C 31.7862 1.4369 4.01566 0
M  V30 368 S 32.6192 3.00874 4.42984 0
M  V30 369 C 33.7752 2.49276 5.74119 0
M  V30 370 H 34.0082 1.84998 2.32729 0
M  V30 371 H 31.5412 1.0509 1.13117 0
M  V30 372 H 33.4992 0.0969846 4.10385 0
M  V30 373 H 32.1602 -0.501571 3.10069 0
M  V30 374 H 31.3532 1.01427 4.93689 0
M  V30 375 H 30.9552 1.68588 3.33847 0
M  V30 376 H 33.2472 1.90242 6.50242 0
M  V30 377 H 34.1902 3.39872 6.21203 0
M  V30 378 H 34.5982 1.90714 5.31308 0
M  V30 379 N 33.9963 -1.19345 1.0293 0
M  V30 380 C 35.4123 -1.41069 0.746446 0
M  V30 381 C 35.6123 -1.90078 -0.668776 0
M  V30 382 O 34.6683 -2.0778 -1.4347 0
M  V30 383 C 35.9813 -2.42141 1.78292 0
M  V30 384 C 37.5293 -2.55887 1.80252 0
M  V30 385 C 38.0043 -3.60214 2.8286 0
M  V30 386 N 39.4953 -3.67711 2.81679 0
M  V30 387 C 40.2303 -4.48128 3.57727 0
M  V30 388 N 39.7263 -5.32248 4.43491 0
M  V30 389 N 41.5193 -4.42782 3.46267 0
M  V30 390 H 33.6703 -0.858536 1.94275 0
M  V30 391 H 35.9333 -0.439541 0.839945 0
M  V30 392 H 35.6393 -2.13155 2.79746 0
M  V30 393 H 35.5133 -3.41323 1.60557 0
M  V30 394 H 37.9003 -2.84196 0.794757 0
M  V30 395 H 37.9813 -1.56858 2.02062 0
M  V30 396 H 37.6253 -3.32647 3.83807 0
M  V30 397 H 37.5553 -4.58895 2.58307 0
M  V30 398 H 40.0463 -3.07634 2.19476 0
M  V30 399 H 40.3593 -5.90729 4.98256 0
M  V30 400 H 38.7043 -5.31707 4.47564 0
M  V30 401 H 41.8953 -3.76107 2.78677 0
M  V30 402 H 42.0683 -5.05215 4.05785 0
M  V30 403 N 35.4744 -0.807222 -1.35358 0
M  V30 404 C 36.3844 -0.219594 -2.3357 0
M  V30 405 C 37.4004 0.637734 -1.61892 0
M  V30 406 O 38.5764 0.549336 -1.93763 0
M  V30 407 C 35.6414 0.62158 -3.41083 0
M  V30 408 C 34.7024 -0.256315 -4.28534 0
M  V30 409 C 33.9354 0.544807 -5.30912 0
M  V30 410 O 34.1584 1.77944 -5.41934 0
M  V30 411 O 33.0924 -0.0646478 -6.01865 0
M  V30 412 H 36.9184 -1.03208 -2.85625 0
M  V30 413 H 34.5034 -0.569025 -1.38139 0
M  V30 414 H 36.3854 1.10067 -4.06772 0
M  V30 415 H 35.0604 1.41165 -2.91297 0
M  V30 416 H 33.9674 -0.782559 -3.65823 0
M  V30 417 H 35.3004 -1.01034 -4.81719 0
M  V30 418 N 36.9525 1.47285 -0.560781 0
M  V30 419 C 37.9155 2.28535 0.174488 0
M  V30 420 C 38.9155 1.37153 0.839388 0
M  V30 421 O 40.1055 1.59748 0.694702 0
M  V30 422 C 37.2375 3.16934 1.25561 0
M  V30 423 H 38.4305 2.95012 -0.539262 0
M  V30 424 H 35.9835 1.53034 -0.317865 0
M  V30 425 H 36.7185 2.55157 2.00164 0
M  V30 426 H 36.5035 3.8419 0.783604 0
M  V30 427 H 37.9935 3.78143 1.77193 0
M  V30 428 N 38.4306 0.297415 1.54768 0
M  V30 429 C 39.3606 -0.573494 2.26348 0
M  V30 430 C 40.3416 -1.14085 1.26169 0
M  V30 431 O 41.5266 -1.17086 1.54934 0
M  V30 432 C 38.6566 -1.74716 3.00153 0
M  V30 433 C 37.6106 -1.31032 4.07449 0
M  V30 434 C 36.9366 -2.56887 4.68949 0
M  V30 435 C 38.2366 -0.444183 5.20408 0
M  V30 436 H 39.9306 0.0235131 2.99391 0
M  V30 437 H 37.4766 0.0127488 1.43994 0
M  V30 438 H 39.4296 -2.3625 3.48947 0
M  V30 439 H 38.1536 -2.37035 2.24682 0
M  V30 440 H 36.8126 -0.718066 3.59499 0
M  V30 441 H 36.4606 -3.17512 3.90122 0
M  V30 442 H 36.1606 -2.2836 5.41411 0
M  V30 443 H 37.6846 -3.19229 5.20505 0
M  V30 444 H 39.0986 -0.9651 5.65118 0
M  V30 445 H 37.4956 -0.252846 5.99567 0
M  V30 446 H 38.5656 0.531609 4.81977 0
M  V30 447 N 39.9087 -1.5758 0.0250728 0
M  V30 448 C 41.3247 -1.56124 -0.331282 0
M  V30 449 C 41.5247 -1.03029 -1.73169 0
M  V30 450 O 40.5807 -0.675215 -2.43305 0
M  V30 451 C 41.8937 -3.00139 -0.183584 0
M  V30 452 C 43.4417 -3.11946 -0.256654 0
M  V30 453 C 43.9167 -4.57793 -0.137792 0
M  V30 454 N 45.4077 -4.6279 -0.194904 0
M  V30 455 C 46.1427 -5.7326 -0.126655 0
M  V30 456 N 45.6387 -6.928 -0.00755288 0
M  V30 457 N 47.4317 -5.61811 -0.180348 0
M  V30 458 H 39.5827 -1.90424 0.94087 0
M  V30 459 H 41.8457 -0.875761 0.362968 0
M  V30 460 H 41.5517 -3.4292 0.780927 0
M  V30 461 H 41.4257 -3.64899 -0.955448 0
M  V30 462 H 43.8127 -2.69079 -1.21162 0
M  V30 463 H 43.8937 -2.49915 0.545517 0
M  V30 464 H 43.5377 -5.01339 0.813739 0
M  V30 465 H 43.4677 -5.17798 -0.958775 0
M  V30 466 H 45.9587 -3.76807 -0.287267 0
M  V30 467 H 46.2717 -7.72791 0.0379428 0
M  V30 468 H 44.6167 -6.94995 0.0271731 0
M  V30 469 H 47.8077 -4.6731 -0.271767 0
M  V30 470 H 47.9807 -6.47882 -0.123697 0
M  V30 471 N 41.3868 0.248026 -1.55636 0
M  V30 472 C 42.8028 0.596483 -1.48035 0
M  V30 473 C 43.0028 1.88386 -0.715039 0
M  V30 474 O 42.0588 2.51319 -0.243944 0
M  V30 475 C 43.3718 0.700258 -2.92433 0
M  V30 476 C 44.9198 0.792659 -3.02797 0
M  V30 477 C 45.3948 0.928005 -4.485 0
M  V30 478 N 46.8858 0.992903 -4.52433 0
M  V30 479 C 47.6208 1.11687 -5.62418 0
M  V30 480 N 47.1168 1.20645 -6.82214 0
M  V30 481 N 48.9098 1.14994 -5.50212 0
M  V30 482 H 41.0608 -0.597109 -2.03834 0
M  V30 483 H 43.3238 -0.205925 -0.925364 0
M  V30 484 H 43.0298 -0.175658 -3.51261 0
M  V30 485 H 42.9038 1.57255 -3.42857 0
M  V30 486 H 45.2908 1.65903 -2.4405 0
M  V30 487 H 45.3718 -0.104762 -2.55585 0
M  V30 488 H 45.0158 0.0661971 -5.07857 0
M  V30 489 H 44.9458 1.84045 -4.93391 0
M  V30 490 H 47.4368 0.935064 -3.66149 0
M  V30 491 H 47.7498 1.30008 -7.61786 0
M  V30 492 H 46.0948 1.17605 -6.84977 0
M  V30 493 H 49.2858 1.07643 -4.55555 0
M  V30 494 H 49.4588 1.24311 -6.35965 0
M  V30 495 N 42.8649 1.48995 0.513639 0
M  V30 496 C 44.1109 1.58076 1.27042 0
M  V30 497 C 44.4439 0.261026 1.92438 0
M  V30 498 O 43.7189 -0.734393 1.80103 0
M  V30 499 C 44.0019 2.73091 2.34719 0
M  V30 500 C 43.8549 4.14821 1.73907 0
M  V30 501 C 45.1739 2.83796 3.36375 0
M  V30 502 H 42.2929 0.575391 0.460536 0
M  V30 503 H 44.9349 1.81232 0.570516 0
M  V30 504 H 43.0849 2.53479 2.94416 0
M  V30 505 H 44.7569 4.45917 1.18135 0
M  V30 506 H 42.9999 4.21058 1.0437 0
M  V30 507 H 43.6709 4.91147 2.51949 0
M  V30 508 H 46.1469 3.01611 2.86653 0
M  V30 509 H 45.0229 3.65971 4.09093 0
M  V30 510 H 45.2839 1.92624 3.9793 0
M  V30 511 N 44.343 -0.763751 1.37857 0
M  V30 512 C 45.759 -1.06542 1.18832 0
M  V30 513 C 45.959 -2.01478 0.0299722 0
M  V30 514 O 45.015 -2.4458 -0.627447 0
M  V30 515 C 46.328 -1.65525 2.51042 0
M  V30 516 C 47.876 -1.77745 2.57635 0
M  V30 517 C 48.351 -2.4014 3.89996 0
M  V30 518 N 49.842 -2.47582 3.91481 0
M  V30 519 C 50.577 -2.96732 4.9065 0
M  V30 520 N 50.073 -3.45993 6.00217 0
M  V30 521 N 51.866 -2.95679 4.78048 0
M  V30 522 H 44.017 -0.133556 2.1198 0
M  V30 523 H 46.28 -0.121879 0.940133 0
M  V30 524 H 45.986 -1.03236 3.36207 0
M  V30 525 H 45.86 -2.64719 2.68707 0
M  V30 526 H 48.247 -2.39164 1.72872 0
M  V30 527 H 48.328 -0.772836 2.43846 0
M  V30 528 H 47.972 -1.79358 4.75177 0
M  V30 529 H 47.902 -3.41223 4.01092 0
M  V30 530 H 50.393 -2.1273 3.12337 0
M  V30 531 H 50.706 -3.81922 6.7183 0
M  V30 532 H 49.051 -3.44077 6.03851 0
M  V30 533 H 52.242 -2.56499 3.91568 0
M  V30 534 H 52.415 -3.33672 5.55488 0
M  V30 535 N 45.8211 -1.22559 -0.990812 0
M  V30 536 C 46.7311 -1.01394 -2.11557 0
M  V30 537 C 47.7471 0.0383962 -1.73958 0
M  V30 538 O 48.9231 -0.154787 -2.00804 0
M  V30 539 C 45.9881 -0.596569 -3.41529 0
M  V30 540 C 45.0491 -1.72276 -3.93217 0
M  V30 541 C 44.2821 -1.32521 -5.16985 0
M  V30 542 O 44.5051 -0.204909 -5.70032 0
M  V30 543 O 43.4391 -2.14247 -5.62478 0
M  V30 544 H 47.2651 -1.95633 -2.32296 0
M  V30 545 H 44.8501 -1.01172 -1.0993 0
M  V30 546 H 46.7321 -0.374263 -4.19735 0
M  V30 547 H 45.4071 0.316939 -3.22145 0
M  V30 548 H 44.3141 -1.99961 -3.16174 0
M  V30 549 H 45.6471 -2.61421 -4.17037 0
M  V30 550 N 47.2992 1.18797 -1.03562 0
M  V30 551 C 48.2092 2.25913 -0.632505 0
M  V30 552 C 49.2252 1.70668 0.338882 0
M  V30 553 O 50.4012 2.00453 0.195076 0
M  V30 554 C 47.4662 3.467 0.00350942 0
M  V30 555 C 46.5272 4.17098 -1.01624 0
M  V30 556 C 45.7602 5.32119 -0.410478 0
M  V30 557 O 45.9832 5.64976 0.784725 0
M  V30 558 O 44.9172 5.9107 -1.13667 0
M  V30 559 H 48.7432 2.62648 -1.52478 0
M  V30 560 H 46.3282 1.25781 -0.806195 0
M  V30 561 H 48.2102 4.19878 0.35781 0
M  V30 562 H 46.8852 3.11798 0.869686 0
M  V30 563 H 45.7922 3.4601 -1.42224 0
M  V30 564 H 47.1252 4.55987 -1.85301 0
M  V30 565 N 48.7773 0.814389 1.34928 0
M  V30 566 C 50.0243 0.398423 1.98542 0
M  V30 567 C 50.3523 -1.03638 1.64589 0
M  V30 568 O 49.6073 -1.73509 0.90516 0
M  V30 569 C 49.9063 0.537781 3.53331 0
M  V30 570 C 49.5723 1.93704 4.07172 0
M  V30 571 C 48.2343 2.31984 4.21589 0
M  V30 572 C 50.5863 2.85213 4.36237 0
M  V30 573 C 47.9143 3.61125 4.62391 0
M  V30 574 C 50.2663 4.13809 4.78482 0
M  V30 575 C 48.9303 4.52077 4.91104 0
M  V30 576 H 48.2003 0.145793 0.726516 0
M  V30 577 H 50.8473 1.03669 1.61012 0
M  V30 578 H 49.1523 -0.183906 3.91368 0
M  V30 579 H 50.8493 0.196588 4.00518 0
M  V30 580 H 47.4393 1.62966 3.96409 0
M  V30 581 H 51.6233 2.56885 4.24645 0
M  V30 582 H 46.8793 3.90612 4.70353 0
M  V30 583 H 51.0533 4.84811 4.99932 0
M  V30 584 H 48.6803 5.52196 5.22478 0
M  V30 585 N 50.2554 -1.46986 0.568584 0
M  V30 586 C 51.5034 -2.02041 0.0487022 0
M  V30 587 C 51.8244 -1.44408 -1.31039 0
M  V30 588 O 51.0944 -0.623477 -1.85714 0
M  V30 589 H 49.6744 -0.746849 0.015014 0
M  V30 590 H 52.3364 -1.80257 0.741168 0
M  V30 591 H 51.4324 -3.12085 -0.0308961 0
M  V30 592 N 51.7335 -0.305618 -1.54608 0
M  V30 593 C 53.1495 0.0476228 -1.59529 0
M  V30 594 C 53.3495 1.52025 -1.32252 0
M  V30 595 O 52.4055 2.27368 -1.09818 0
M  V30 596 C 53.7185 -0.354471 -2.98603 0
M  V30 597 C 55.2665 -0.303622 -3.11524 0
M  V30 598 C 55.7415 -0.680608 -4.52915 0
M  V30 599 N 57.2325 -0.63332 -4.5885 0
M  V30 600 C 57.9675 -0.897432 -5.66334 0
M  V30 601 N 57.4635 -1.22775 -6.81834 0
M  V30 602 N 59.2565 -0.824186 -5.56025 0
M  V30 603 H 51.4075 -1.2653 -1.70599 0
M  V30 604 H 53.6705 -0.513291 -0.797017 0
M  V30 605 H 53.3765 -1.3798 -3.23503 0
M  V30 606 H 53.2505 0.289568 -3.76087 0
M  V30 607 H 55.6375 0.712472 -2.8637 0
M  V30 608 H 55.7185 -0.982348 -2.36185 0
M  V30 609 H 55.3625 -1.69453 -4.78799 0
M  V30 610 H 55.2925 0.0202385 -5.26596 0
M  V30 611 H 57.7835 -0.389138 -3.75891 0
M  V30 612 H 58.0965 -1.41513 -7.59733 0
M  V30 613 H 56.4415 -1.26583 -6.83375 0
M  V30 614 H 59.6325 -0.565748 -4.64669 0
M  V30 615 H 59.8055 -1.03338 -6.39707 0
M  V30 616 N 53.2116 1.57565 -0.0334293 0
M  V30 617 C 54.1616 2.06978 0.956237 0
M  V30 618 C 55.1456 0.971193 1.28283 0
M  V30 619 O 56.3376 1.23471 1.26822 0
M  V30 620 C 53.4666 2.60393 2.23719 0
M  V30 621 C 52.5526 3.7719 1.93877 0
M  V30 622 N 52.9436 4.87639 1.34321 0
M  V30 623 C 51.2416 3.85758 2.23845 0
M  V30 624 C 51.9426 5.68825 1.21709 0
M  V30 625 N 50.9186 5.1587 1.71404 0
M  V30 626 H 54.7206 2.89773 0.490815 0
M  V30 627 H 52.2346 1.61492 0.171478 0
M  V30 628 H 54.2316 2.94088 2.95496 0
M  V30 629 H 52.8916 1.79031 2.70884 0
M  V30 630 H 53.9026 5.07803 1.01767 0
M  V30 631 H 50.5796 3.1531 2.73653 0
M  V30 632 H 51.9696 6.67631 0.75621 0
M  V30 633 N 54.6897 -0.239769 1.55765 0
M  V30 634 C 55.9197 -0.982743 1.8173 0
M  V30 635 C 56.3277 -1.7917 0.607835 0
M  V30 636 O 55.6707 -1.78525 -0.432973 0
M  V30 637 C 55.7327 -1.96332 3.01155 0
M  V30 638 C 55.3967 -1.34062 4.36894 0
M  V30 639 C 56.3937 -0.739539 5.14613 0
M  V30 640 C 54.0787 -1.35784 4.83599 0
M  V30 641 C 56.0727 -0.163989 6.37189 0
M  V30 642 C 53.7597 -0.778441 6.06122 0
M  V30 643 C 54.7577 -0.182548 6.82756 0
M  V30 644 O 54.4457 0.387887 8.02964 0
M  V30 645 H 54.1777 -0.294481 0.608487 0
M  V30 646 H 56.7317 -0.26572 2.03674 0
M  V30 647 H 54.9617 -2.71884 2.74984 0
M  V30 648 H 56.6507 -2.57032 3.14149 0
M  V30 649 H 57.4167 -0.718687 4.79646 0
M  V30 650 H 53.2957 -1.81105 4.23936 0
M  V30 651 H 56.8397 0.301753 6.96947 0
M  V30 652 H 52.7367 -0.796645 6.40565 0
M  V30 653 H 53.5047 0.28044 8.18019 0
M  V30 654 N 56.1678 -1.49265 -0.50573 0
M  V30 655 C 57.5788 -1.51769 -1.08734 0
M  V30 656 C 57.9298 -0.301192 -1.93874 0
M  V30 657 O 57.0548 0.589456 -2.08217 0
M  V30 658 C 57.6498 -2.75017 -1.97867 0
M  V30 659 C 56.2088 -2.80314 -2.51199 0
M  V30 660 C 55.3558 -2.4562 -1.28709 0
M  V30 661 H 58.3068 -1.56031 -0.289855 0
M  V30 662 H 58.3278 -2.5491 -2.82491 0
M  V30 663 H 57.8398 -3.63539 -1.35873 0
M  V30 664 H 55.9408 -1.96061 -3.16845 0
M  V30 665 H 56.0538 -3.82366 -2.88675 0
M  V30 666 H 54.4178 -1.97297 -1.61078 0
M  V30 667 H 55.2008 -3.36411 -0.6843 0
M  V30 668 N 57.6459 0.756429 -1.3826 0
M  V30 669 C 58.5759 1.88374 -1.37976 0
M  V30 670 C 59.5569 1.68311 -0.246082 0
M  V30 671 O 60.7419 1.88944 -0.44874 0
M  V30 672 C 57.8719 3.25864 -1.20125 0
M  V30 673 C 56.8259 3.60523 -2.30666 0
M  V30 674 C 56.1519 4.9672 -1.97923 0
M  V30 675 C 57.4519 3.65692 -3.72916 0
M  V30 676 H 59.1459 1.88869 -2.32312 0
M  V30 677 H 56.6919 0.907272 -1.11824 0
M  V30 678 H 58.6449 4.0438 -1.18552 0
M  V30 679 H 57.3689 3.25841 -0.222498 0
M  V30 680 H 56.0279 2.84324 -2.3142 0
M  V30 681 H 55.6759 4.93253 -0.985393 0
M  V30 682 H 55.3759 5.20878 -2.71955 0
M  V30 683 H 56.8999 5.77618 -1.97964 0
M  V30 684 H 58.3139 4.34328 -3.74208 0
M  V30 685 H 56.7109 4.01358 -4.4613 0
M  V30 686 H 57.7809 2.65987 -4.05436 0
M  V30 687 N 59.124 1.23083 0.984299 0
M  V30 688 C 60.354 1.08556 1.75781 0
M  V30 689 C 60.762 -0.366171 1.85623 0
M  V30 690 O 60.105 -1.26524 1.33182 0
M  V30 691 C 60.167 1.63208 3.20318 0
M  V30 692 C 59.831 3.11922 3.33997 0
M  V30 693 C 60.828 4.09259 3.2063 0
M  V30 694 C 58.513 3.51552 3.58771 0
M  V30 695 C 60.507 5.4421 3.31835 0
M  V30 696 C 58.194 4.86649 3.69616 0
M  V30 697 C 59.192 5.82787 3.56157 0
M  V30 698 O 58.88 7.15431 3.66626 0
M  V30 699 H 58.612 0.380713 0.5586 0
M  V30 700 H 61.166 1.63321 1.2456 0
M  V30 701 H 59.396 1.0286 3.72769 0
M  V30 702 H 61.085 1.44216 3.79416 0
M  V30 703 H 61.851 3.79984 3.01392 0
M  V30 704 H 57.73 2.77239 3.6832 0
M  V30 705 H 61.274 6.1923 3.21247 0
M  V30 706 H 57.171 5.15601 3.88363 0
M  V30 707 H 57.939 7.23127 3.83445 0
M  V30 708 N 60.6021 -1.18246 1.0419 0
M  V30 709 C 61.8511 -1.87588 0.741194 0
M  V30 710 C 62.1641 -1.81303 -0.734066 0
M  V30 711 O 63.3701 -2.46019 -1.14834 0
M  V30 712 C 61.8261 -3.36538 1.27555 0
M  V30 713 C 61.4341 -3.51349 2.77953 0
M  V30 714 C 63.1781 -4.11273 1.05143 0
M  V30 715 C 61.0851 -4.94265 3.2474 0
M  V30 716 H 60.0151 -0.702622 0.273565 0
M  V30 717 H 62.6661 -1.33601 1.25789 0
M  V30 718 H 61.0481 -3.9 0.686703 0
M  V30 719 H 62.2221 -3.08153 3.42605 0
M  V30 720 H 60.5371 -2.90022 2.98791 0
M  V30 721 H 63.1341 -5.16689 1.37611 0
M  V30 722 H 63.4771 -4.16298 -0.0112774 0
M  V30 723 H 64.0101 -3.63987 1.60495 0
M  V30 724 H 60.7491 -4.94408 4.30396 0
M  V30 725 H 60.2691 -5.38172 2.64823 0
M  V30 726 H 61.9481 -5.62987 3.18834 0
M  V30 727 N 62.0802 -0.821533 -1.34494 0
M  V30 728 C 63.3282 -0.408139 -1.97936 0
M  V30 729 C 63.6492 1.03193 -1.65457 0
M  V30 730 O 62.9192 1.71622 -0.944595 0
M  V30 731 H 61.4992 -0.147928 -0.732206 0
M  V30 732 H 64.1612 -1.05067 -1.64155 0
M  V30 733 H 63.2572 -0.52601 -3.07635 0
M  V30 734 N 63.5583 1.46682 -0.576371 0
M  V30 735 C 64.8063 2.02013 -0.0594163 0
M  V30 736 C 65.1273 1.45101 1.30271 0
M  V30 737 O 64.3973 0.633317 1.8538 0
M  V30 738 H 62.9773 0.746759 -0.0189745 0
M  V30 739 H 65.6393 1.79862 -0.750717 0
M  V30 740 H 64.7353 3.12097 0.014345 0
M  V30 741 N 65.0364 0.313813 1.54444 0
M  V30 742 C 65.9464 -0.565714 2.27677 0
M  V30 743 C 66.9624 -1.13754 1.31666 0
M  V30 744 O 68.1384 -1.15959 1.64668 0
M  V30 745 C 65.2034 -1.71528 3.01296 0
M  V30 746 C 64.2644 -1.17624 4.12872 0
M  V30 747 C 63.4974 -2.27102 4.8297 0
M  V30 748 O 63.7204 -3.47256 4.52514 0
M  V30 749 O 62.6544 -1.9307 5.70094 0
M  V30 750 H 66.4804 0.0287296 3.03686 0
M  V30 751 H 64.0654 0.0798312 1.49187 0
M  V30 752 H 65.9474 -2.38476 3.4743 0
M  V30 753 H 64.6224 -2.29608 2.2817 0
M  V30 754 H 63.5294 -0.472124 3.71109 0
M  V30 755 H 64.8624 -0.640695 4.88012 0
M  V30 756 N 66.5145 -1.57545 0.0417849 0
M  V30 757 C 67.7605 -1.93424 -0.629168 0
M  V30 758 C 68.1155 -0.919564 -1.69002 0
M  V30 759 O 67.4085 0.0626178 -1.91498 0
M  V30 760 C 67.6025 -3.33794 -1.27735 0
M  V30 761 C 67.4315 -4.48822 -0.280806 0
M  V30 762 C 66.2015 -5.05148 0.123869 0
M  V30 763 C 68.3995 -5.12148 0.470012 0
M  V30 764 N 66.3815 -6.03703 1.11426 0
M  V30 765 C 67.7525 -6.05921 1.31377 0
M  V30 766 C 69.8075 -4.95078 0.529343 0
M  V30 767 C 68.5105 -6.84459 2.21152 0
M  V30 768 C 70.5365 -5.74235 1.41448 0
M  V30 769 C 69.8985 -6.67634 2.24598 0
M  V30 770 H 65.9975 -0.755418 -0.202158 0
M  V30 771 H 68.5815 -1.94378 0.111923 0
M  V30 772 H 66.7525 -3.33635 -1.98852 0
M  V30 773 H 68.4845 -3.56988 -1.90635 0
M  V30 774 H 65.2395 -4.72923 -0.253178 0
M  V30 775 H 65.6635 -6.57674 1.60607 0
M  V30 776 H 70.3055 -4.22683 -0.0992798 0
M  V30 777 H 68.0235 -7.56151 2.85063 0
M  V30 778 H 71.6095 -5.63057 1.46484 0
M  V30 779 H 70.4895 -7.27817 2.9198 0
M  V30 780 N 67.9926 0.231505 -1.5589 0
M  V30 781 C 69.2386 0.95877 -1.78705 0
M  V30 782 C 69.5716 1.8438 -0.609725 0
M  V30 783 O 68.8466 1.90521 0.391426 0
M  V30 784 C 69.1296 1.8062 -3.11526 0
M  V30 785 C 68.9826 0.948328 -4.39689 0
M  V30 786 C 70.3016 2.78585 -3.40703 0
M  V30 787 H 67.4206 0.347129 -0.650131 0
M  V30 788 H 70.0626 0.228259 -1.88624 0
M  V30 789 H 68.2126 2.42902 -3.03201 0
M  V30 790 H 69.8846 0.343016 -4.60023 0
M  V30 791 H 68.1276 0.253314 -4.3306 0
M  V30 792 H 68.7986 1.57543 -5.29041 0
M  V30 793 H 71.2746 2.26439 -3.49091 0
M  V30 794 H 70.1506 3.34988 -4.34826 0
M  V30 795 H 70.4116 3.55825 -2.62375 0
M  V30 796 N 69.4707 1.49531 0.497807 0
M  V30 797 C 70.7477 1.49682 1.25915 0
M  V30 798 C 71.1277 0.226339 2.09883 0
M  V30 799 O 70.4757 -0.791189 2.14365 0
M  V30 800 C 70.6857 2.77755 2.11313 0
M  V30 801 C 72.0337 3.27371 2.70395 0
M  V30 802 O 73.0577 2.78894 2.21578 0
M  V30 803 O 71.9167 4.11808 3.59272 0
M  V30 804 H 69.0107 0.599228 0.56996 0
M  V30 805 H 71.5567 1.61798 0.511816 0
M  V30 806 H 70.3287 3.61713 1.49264 0
M  V30 807 H 69.9517 2.68515 2.93233 0
M  V30 808 N 70.9488 -0.749086 1.3866 0
M  V30 809 C 72.1768 -1.53834 1.38358 0
M  V30 810 C 72.5918 -1.88783 -0.0255219 0
M  V30 811 O 71.9488 -1.53101 -0.993292 0
M  V30 812 C 71.9998 -2.83468 2.2434 0
M  V30 813 O 71.7208 -2.50008 3.5976 0
M  V30 814 C 73.2218 -3.7758 2.32267 0
M  V30 815 H 70.4418 -0.47585 0.473083 0
M  V30 816 H 72.9858 -0.926726 1.82297 0
M  V30 817 H 71.1408 -3.40995 1.83851 0
M  V30 818 H 71.5548 -3.33182 4.05081 0
M  V30 819 H 73.0288 -4.65478 2.96706 0
M  V30 820 H 73.5058 -4.18334 1.33765 0
M  V30 821 H 74.1118 -3.25976 2.73166 0
M  V30 822 N 72.4269 -1.23603 -0.977757 0
M  V30 823 C 73.3739 -1.01954 -2.07061 0
M  V30 824 C 74.3439 0.0638697 -1.65977 0
M  V30 825 O 75.5289 -0.0887624 -1.90593 0
M  V30 826 C 72.6689 -0.619658 -3.39491 0
M  V30 827 C 71.7819 -1.77547 -3.93829 0
M  V30 828 C 70.9169 -1.32212 -5.14484 0
M  V30 829 C 69.9559 -2.44852 -5.60994 0
M  V30 830 N 69.0929 -2.00456 -6.72876 0
M  V30 831 H 73.9329 -1.95495 -2.24913 0
M  V30 832 H 71.4699 -0.973861 -1.10247 0
M  V30 833 H 73.4279 -0.368898 -4.15566 0
M  V30 834 H 72.0579 0.278752 -3.21594 0
M  V30 835 H 71.1099 -2.14016 -3.14486 0
M  V30 836 H 72.4219 -2.62219 -4.24314 0
M  V30 837 H 71.5759 -1.02965 -5.97899 0
M  V30 838 H 70.3149 -0.445808 -4.85658 0
M  V30 839 H 69.3199 -2.74871 -4.76157 0
M  V30 840 H 70.5449 -3.33024 -5.91837 0
M  V30 841 H 68.4909 -1.15208 -6.45804 0
M  V30 842 H 68.4079 -2.78687 -7.02759 0
M  V30 843 H 69.6759 -1.7432 -7.59758 0
M  V30 844 N 73.905 1.17692 -1.04816 0
M  V30 845 C 74.815 2.25229 -0.65643 0
M  V30 846 C 75.831 1.71018 0.320761 0
M  V30 847 O 77.007 2.00649 0.173805 0
M  V30 848 C 74.072 3.46684 -0.0332629 0
M  V30 849 C 73.133 4.15997 -1.06042 0
M  V30 850 C 72.366 5.31654 -0.466893 0
M  V30 851 O 72.589 5.65777 0.724758 0
M  V30 852 O 71.523 5.89831 -1.1993 0
M  V30 853 H 75.349 2.61016 -1.55255 0
M  V30 854 H 72.934 1.24919 -0.81949 0
M  V30 855 H 74.816 4.20234 0.313256 0
M  V30 856 H 73.491 3.12703 0.836566 0
M  V30 857 H 72.398 3.44482 -1.45886 0
M  V30 858 H 73.731 4.53996 -1.90127 0
M  V30 859 N 75.3831 0.828654 1.34056 0
M  V30 860 C 76.7991 0.515135 1.51058 0
M  V30 861 C 76.9991 -0.959581 1.77184 0
M  V30 862 O 76.0551 -1.74382 1.82612 0
M  V30 863 C 77.3681 1.37963 2.67183 0
M  V30 864 C 78.9161 1.37735 2.81066 0
M  V30 865 C 79.3911 2.22645 4.00241 0
M  V30 866 N 80.8821 2.203 4.07458 0
M  V30 867 C 81.6171 2.82744 4.98842 0
M  V30 868 N 81.1131 3.54201 5.9541 0
M  V30 869 N 82.9061 2.72268 4.91759 0
M  V30 870 H 75.0571 1.78343 1.15358 0
M  V30 871 H 77.3201 0.760304 0.566252 0
M  V30 872 H 77.0261 2.42714 2.54525 0
M  V30 873 H 76.9001 1.0484 3.62338 0
M  V30 874 H 79.2871 0.337593 2.93163 0
M  V30 875 H 79.3681 1.74859 1.86703 0
M  V30 876 H 79.0121 3.26674 3.88905 0
M  V30 877 H 78.9421 1.82869 4.93829 0
M  V30 878 H 81.4331 1.68327 3.38341 0
M  V30 879 H 81.7461 3.9908 6.61782 0
M  V30 880 H 80.0911 3.58308 5.95517 0
M  V30 881 H 83.2821 2.16014 4.15278 0
M  V30 882 H 83.4551 3.21219 5.62781 0
M  V30 883 N 76.8612 -1.46375 0.584142 0
M  V30 884 C 77.7942 -2.27351 -0.196676 0
M  V30 885 C 78.7722 -1.35715 -0.895561 0
M  V30 886 O 79.9562 -1.65126 -0.90916 0
M  V30 887 C 77.0832 -3.13486 -1.28235 0
M  V30 888 C 76.1292 -4.20896 -0.689145 0
M  V30 889 S 76.9622 -5.33299 0.48507 0
M  V30 890 C 78.1182 -6.23 -0.601767 0
M  V30 891 H 78.3512 -2.93228 0.490395 0
M  V30 892 H 75.8842 -1.49875 0.371071 0
M  V30 893 H 77.8422 -3.63676 -1.90395 0
M  V30 894 H 76.5032 -2.4692 -1.94138 0
M  V30 895 H 75.6962 -4.80997 -1.50527 0
M  V30 896 H 75.2982 -3.73726 -0.143181 0
M  V30 897 H 77.5902 -6.60979 -1.48705 0
M  V30 898 H 78.5332 -7.0809 -0.0374799 0
M  V30 899 H 78.9412 -5.57173 -0.906557 0
M  V30 900 N 78.3393 -0.321999 -1.54275 0
M  V30 901 C 79.5853 0.281461 -2.00837 0
M  V30 902 C 79.9183 1.51909 -1.20985 0
M  V30 903 O 79.1933 1.923 -0.291733 0
M  V30 904 C 79.4763 0.617162 -3.54772 0
M  V30 905 C 79.3293 -0.631064 -4.45351 0
M  V30 906 C 80.6483 1.43542 -4.16033 0
M  V30 907 H 77.7673 0.100826 -0.730071 0
M  V30 908 H 80.4093 -0.438268 -1.84876 0
M  V30 909 H 78.5593 1.23034 -3.68504 0
M  V30 910 H 80.2313 -1.26934 -4.43492 0
M  V30 911 H 78.4743 -1.26025 -4.15091 0
M  V30 912 H 79.1453 -0.351735 -5.50878 0
M  V30 913 H 81.6213 0.917134 -4.05867 0
M  V30 914 H 80.4973 1.63907 -5.23856 0
M  V30 915 H 80.7583 2.43108 -3.69257 0
M  V30 916 N 79.8174 1.5752 -0.0501392 0
M  V30 917 C 81.0424 1.97376 0.636997 0
M  V30 918 C 81.4674 0.927466 1.63645 0
M  V30 919 O 80.8254 -0.10941 1.8097 0
M  V30 920 C 80.8734 3.36304 1.30123 0
M  V30 921 O 79.9774 3.34156 2.41689 0
M  V30 922 H 79.3184 0.642998 0.165679 0
M  V30 923 H 81.8484 2.04258 -0.118233 0
M  V30 924 H 81.8584 3.73008 1.65315 0
M  V30 925 H 80.5334 4.11993 0.568746 0
M  V30 926 H 79.1104 3.09196 2.08451 0
M  V30 927 N 81.2955 -0.223234 1.56011 0
M  V30 928 C 82.2255 -1.27988 1.95298 0
M  V30 929 C 83.2065 -1.48976 0.820979 0
M  V30 930 O 84.3915 -1.61188 1.08315 0
M  V30 931 C 81.5215 -2.63 2.26822 0
M  V30 932 C 80.4755 -2.56671 3.42497 0
M  V30 933 C 79.8015 -3.95697 3.59622 0
M  V30 934 C 81.1015 -2.11601 4.77517 0
M  V30 935 H 82.7955 -0.953525 2.8381 0
M  V30 936 H 80.3415 -0.457244 1.36548 0
M  V30 937 H 82.2945 -3.37077 2.52898 0
M  V30 938 H 81.0185 -2.9732 1.35161 0
M  V30 939 H 79.6775 -1.85051 3.16467 0
M  V30 940 H 79.3255 -4.27322 2.6534 0
M  V30 941 H 79.0255 -3.92345 4.37424 0
M  V30 942 H 80.5495 -4.71438 3.88044 0
M  V30 943 H 81.9635 -2.7542 5.02809 0
M  V30 944 H 80.3605 -2.19311 5.5859 0
M  V30 945 H 81.4305 -1.06824 4.72987 0
M  V30 946 N 82.7736 -1.49793 -0.48987 0
M  V30 947 C 83.7216 -1.67783 -1.61095 0
M  V30 948 C 84.7156 -0.543683 -1.60438 0
M  V30 949 O 85.9216 -0.723647 -1.64813 0
M  V30 950 H 82.2966 -0.529255 -0.534222 0
M  V30 951 H 84.2676 -2.61861 -1.43078 0
M  V30 952 C 83.0166 -1.77191 -2.99164 0
M  V30 953 H 82.3396 -2.63841 -3.0038 0
M  V30 954 H 83.7796 -1.93809 -3.77113 0
M  V30 955 C 82.2386 -0.519203 -3.32875 0
M  V30 956 O 82.7686 0.350124 -4.00171 0
M  V30 957 N 80.9746 -0.378816 -2.8812 0
M  V30 958 H 80.5216 -1.08725 -2.33531 0
M  V30 959 H 80.4796 0.458239 -3.11043 0
M  V30 960 N 84.2517 0.741722 -1.39055 0
M  V30 961 C 85.6627 1.31966 -1.32068 0
M  V30 962 C 86.0137 1.96192 0.0180797 0
M  V30 963 O 85.1387 1.95861 0.920196 0
M  V30 964 C 85.7337 2.39954 -2.39181 0
M  V30 965 C 84.2927 2.93438 -2.35735 0
M  V30 966 C 83.4397 1.66936 -2.21422 0
M  V30 967 H 86.3907 0.539721 -1.4924 0
M  V30 968 H 86.4117 3.20182 -2.05581 0
M  V30 969 H 85.9237 1.9318 -3.36605 0
M  V30 970 H 84.0247 3.4451 -1.41929 0
M  V30 971 H 84.1377 3.4701 -3.30335 0
M  V30 972 H 82.5017 1.91016 -1.68478 0
M  V30 973 H 83.2847 1.22224 -3.20806 0
M  V30 974 N 85.7298 1.2412 0.971189 0
M  V30 975 C 86.9548 1.10667 1.75407 0
M  V30 976 C 87.3798 -0.337048 1.85056 0
M  V30 977 O 86.7378 -1.24396 1.31892 0
M  V30 978 C 86.7858 1.74726 3.15441 0
M  V30 979 O 85.8898 1.01566 3.99697 0
M  V30 980 H 85.2308 0.387341 0.539317 0
M  V30 981 H 87.7608 1.64358 1.2185 0
M  V30 982 H 87.7708 1.80341 3.6598 0
M  V30 983 H 86.4458 2.79773 3.07734 0
M  V30 984 H 85.0228 1.03713 3.58187 0
M  V30 985 N 87.2079 -1.17134 1.05439 0
M  V30 986 C 88.1709 -2.19439 0.661764 0
M  V30 987 C 89.1709 -1.58199 -0.288042 0
M  V30 988 O 90.3609 -1.74053 -0.0715803 0
M  V30 989 C 87.4929 -3.40889 -0.0276209 0
M  V30 990 H 88.6859 -2.55688 1.56728 0
M  V30 991 H 86.2389 -1.31259 0.848567 0
M  V30 992 H 86.9739 -3.10187 -0.94629 0
M  V30 993 H 86.7589 -3.86586 0.655238 0
M  V30 994 H 88.2489 -4.16603 -0.288342 0
M  V30 995 N 88.686 -0.835752 -1.33615 0
M  V30 996 C 90.097 -0.487099 -1.80234 0
M  V30 997 C 90.448 0.993627 -1.69179 0
M  V30 998 O 89.573 1.77403 -1.23924 0
M  V30 999 C 90.168 -0.877385 -3.27242 0
M  V30 1000 C 88.727 -0.580915 -3.7189 0
M  V30 1001 C 87.874 -1.0874 -2.5509 0
M  V30 1002 H 90.825 -1.02474 -1.2118 0
M  V30 1003 H 90.846 -0.186195 -3.80044 0
M  V30 1004 H 90.358 -1.95512 -3.35256 0
M  V30 1005 H 88.459 0.486881 -3.69405 0
M  V30 1006 H 88.572 -1.13396 -4.65487 0
M  V30 1007 H 86.936 -0.508392 -2.49575 0
M  V30 1008 H 87.719 -2.17184 -2.65868 0
M  V30 1009 N 90.1641 1.46063 -0.591896 0
M  V30 1010 C 91.3891 2.07226 -0.0850314 0
M  V30 1011 C 91.8141 1.43625 1.21463 0
M  V30 1012 O 91.1721 0.523305 1.73583 0
M  V30 1013 C 91.2201 3.60554 0.0576567 0
M  V30 1014 O 90.3241 3.97128 1.11188 0
M  V30 1015 H 89.6651 0.660615 -0.0669568 0
M  V30 1016 H 92.1951 1.8756 -0.81745 0
M  V30 1017 H 92.2051 4.07165 0.2609 0
M  V30 1018 H 90.8801 4.06235 -0.891416 0
M  V30 1019 H 89.4571 3.62213 0.886356 0
M  V30 1020 N 91.6422 0.330177 1.54103 0
M  V30 1021 C 92.5522 -0.541534 2.28264 0
M  V30 1022 C 93.5682 -1.12351 1.32866 0
M  V30 1023 O 94.7442 -1.14206 1.65888 0
M  V30 1024 C 91.8092 -1.68322 3.03098 0
M  V30 1025 C 90.8702 -1.13238 4.14096 0
M  V30 1026 C 90.1032 -2.21966 4.85352 0
M  V30 1027 O 90.3262 -3.42437 4.56172 0
M  V30 1028 O 89.2602 -1.87013 5.7211 0
M  V30 1029 H 93.0862 0.060938 3.03639 0
M  V30 1030 H 90.6712 0.09565 1.49093 0
M  V30 1031 H 92.5532 -2.34777 3.49939 0
M  V30 1032 H 91.2282 -2.27176 2.30593 0
M  V30 1033 H 90.1352 -0.432736 3.71589 0
M  V30 1034 H 91.4682 -0.588898 4.88664 0
M  V30 1035 N 93.1203 -1.57491 0.0584922 0
M  V30 1036 C 94.3663 -1.93264 -0.614558 0
M  V30 1037 C 94.6993 -0.937717 -1.7006 0
M  V30 1038 O 93.9743 0.0351652 -1.94468 0
M  V30 1039 C 94.2573 -3.3938 -1.20386 0
M  V30 1040 C 94.1103 -4.49625 -0.125375 0
M  V30 1041 C 95.4293 -3.86039 -2.11334 0
M  V30 1042 H 92.5483 -0.702791 -0.221933 0
M  V30 1043 H 95.1903 -1.8961 0.12175 0
M  V30 1044 H 93.3403 -3.42626 -1.83139 0
M  V30 1045 H 95.0123 -4.58506 0.506971 0
M  V30 1046 H 93.2553 -4.30354 0.545672 0
M  V30 1047 H 93.9263 -5.48967 -0.577861 0
M  V30 1048 H 96.4023 -3.84716 -1.58534 0
M  V30 1049 H 95.2783 -4.88914 -2.49507 0
M  V30 1050 H 95.5393 -3.23215 -3.01636 0
M  V30 1051 N 94.5984 0.214957 -1.56127 0
M  V30 1052 C 95.8444 0.939762 -1.79712 0
M  V30 1053 C 96.1774 1.83723 -0.629247 0
M  V30 1054 O 95.4524 1.90925 0.371197 0
M  V30 1055 C 95.7354 1.77306 -3.13424 0
M  V30 1056 C 95.5884 0.90164 -4.40671 0
M  V30 1057 C 96.9074 2.74956 -3.43638 0
M  V30 1058 H 94.0264 0.340214 -0.653776 0
M  V30 1059 H 96.6684 0.20824 -1.88855 0
M  V30 1060 H 94.8184 2.39673 -3.0576 0
M  V30 1061 H 96.4904 0.294206 -4.60361 0
M  V30 1062 H 94.7334 0.207368 -4.33304 0
M  V30 1063 H 95.4044 1.51923 -5.30682 0
M  V30 1064 H 97.8804 2.22724 -3.51473 0
M  V30 1065 H 96.7564 3.30358 -4.38355 0
M  V30 1066 H 97.0174 3.53023 -2.66134 0
M  V30 1067 N 96.0765 1.50051 0.48192 0
M  V30 1068 C 97.3245 1.60181 1.23234 0
M  V30 1069 C 97.6455 0.299176 1.92691 0
M  V30 1070 O 96.9155 -0.682708 1.83619 0
M  V30 1071 H 95.4955 0.590232 0.457859 0
M  V30 1072 H 98.1575 1.86775 0.556881 0
M  V30 1073 H 97.2535 2.40753 1.98607 0
M  V30 1074 N 97.5546 -0.734337 1.39446 0
M  V30 1075 C 98.7826 -1.52358 1.39981 0
M  V30 1076 C 99.1976 -1.88799 -0.0054975 0
M  V30 1077 O 98.5546 -1.54146 -0.976998 0
M  V30 1078 C 98.6056 -2.81072 2.27333 0
M  V30 1079 O 98.3266 -2.46178 3.62392 0
M  V30 1080 C 99.8276 -3.75096 2.36259 0
M  V30 1081 H 97.0476 -0.470806 0.478103 0
M  V30 1082 H 99.5916 -0.907339 1.83269 0
M  V30 1083 H 97.7466 -3.39026 1.87457 0
M  V30 1084 H 98.1606 -3.28866 4.08592 0
M  V30 1085 H 99.6346 -4.62305 3.01626 0
M  V30 1086 H 100.112 -4.16892 1.38194 0
M  V30 1087 H 100.718 -3.23061 2.76608 0
M  V30 1088 N 99.0327 -1.24633 -0.964593 0
M  V30 1089 C 100.261 -1.11501 -1.74285 0
M  V30 1090 C 100.676 0.332165 -1.85855 0
M  V30 1091 O 100.033 1.22903 -1.34911 0
M  V30 1092 C 100.084 -1.75258 -3.16175 0
M  V30 1093 O 99.8047 -3.14318 -3.05182 0
M  V30 1094 C 101.306 -1.67776 -4.10324 0
M  V30 1095 H 98.5257 -0.389407 -0.546446 0
M  V30 1096 H 101.07 -1.64801 -1.21083 0
M  V30 1097 H 99.2247 -1.25954 -3.66353 0
M  V30 1098 H 99.6387 -3.4551 -3.94618 0
M  V30 1099 H 101.113 -2.17064 -5.0753 0
M  V30 1100 H 101.59 -0.639584 -4.34518 0
M  V30 1101 H 102.196 -2.16522 -3.66058 0
M  V30 1102 N 100.511 1.16574 -1.06058 0
M  V30 1103 C 101.474 2.19085 -0.673392 0
M  V30 1104 C 102.474 1.5835 0.279648 0
M  V30 1105 O 103.664 1.74088 0.0623488 0
M  V30 1106 C 100.796 3.40899 0.00954234 0
M  V30 1107 H 101.989 2.54853 -1.58081 0
M  V30 1108 H 99.5418 1.30808 -0.855516 0
M  V30 1109 H 100.277 3.10684 0.929826 0
M  V30 1110 H 100.062 3.86233 -0.67573 0
M  V30 1111 H 101.552 4.1675 0.266245 0
M  V30 1112 N 101.989 0.842826 1.3317 0
M  V30 1113 C 102.936 0.276885 2.29133 0
M  V30 1114 C 103.906 -0.609527 1.54512 0
M  V30 1115 O 105.091 -0.546955 1.82792 0
M  V30 1116 C 102.231 -0.538707 3.40869 0
M  V30 1117 C 101.344 0.372169 4.30394 0
M  V30 1118 C 100.479 -0.454908 5.29249 0
M  V30 1119 C 99.5179 0.45411 6.10413 0
M  V30 1120 N 98.6549 -0.335075 7.013 0
M  V30 1121 H 103.495 1.10052 2.76934 0
M  V30 1122 H 101.032 0.554161 1.36262 0
M  V30 1123 H 102.99 -1.02709 4.0436 0
M  V30 1124 H 101.62 -1.32727 2.9425 0
M  V30 1125 H 100.672 0.97888 3.6759 0
M  V30 1126 H 101.984 1.0703 4.87182 0
M  V30 1127 H 101.138 -1.00695 5.98285 0
M  V30 1128 H 99.8769 -1.18646 4.73048 0
M  V30 1129 H 98.8819 1.01813 5.40291 0
M  V30 1130 H 100.107 1.18409 6.68697 0
M  V30 1131 H 98.0529 -1.04994 6.47543 0
M  V30 1132 H 97.9699 0.304262 7.55387 0
M  V30 1133 H 99.2379 -0.869224 7.74638 0
M  V30 1134 N 103.467 -1.45747 0.599634 0
M  V30 1135 C 104.43 -2.28917 -0.113835 0
M  V30 1136 C 105.43 -1.3933 -0.802729 0
M  V30 1137 O 106.62 -1.61534 -0.652103 0
M  V30 1138 C 103.752 -3.20152 -1.17114 0
M  V30 1139 H 104.945 -2.93478 0.617289 0
M  V30 1140 H 102.498 -1.52137 0.358327 0
M  V30 1141 H 103.233 -2.60374 -1.93329 0
M  V30 1142 H 103.018 -3.86133 -0.681468 0
M  V30 1143 H 104.508 -3.82708 -1.67105 0
M  V30 1144 N 104.945 -0.338344 -1.53925 0
M  V30 1145 C 106.193 0.259245 -2.0043 0
M  V30 1146 C 106.514 1.51484 -1.22791 0
M  V30 1147 O 105.784 1.93037 -0.33368 0
M  V30 1148 H 104.364 0.0987845 -0.740439 0
M  V30 1149 H 107.026 -0.458302 -1.89435 0
M  V30 1150 H 106.122 0.505334 -3.07982 0
M  V30 1151 N 106.423 1.57458 -0.0668435 0
M  V30 1152 C 107.37 2.12439 0.902122 0
M  V30 1153 C 108.34 1.03565 1.2986 0
M  V30 1154 O 109.525 1.312 1.38532 0
M  V30 1155 C 106.665 2.6865 2.16614 0
M  V30 1156 C 105.778 3.91663 1.82274 0
M  V30 1157 C 104.913 4.36134 3.0325 0
M  V30 1158 C 103.952 5.51808 2.64904 0
M  V30 1159 N 103.089 5.9126 3.78624 0
M  V30 1160 H 107.929 2.94934 0.426382 0
M  V30 1161 H 105.466 1.4575 0.198819 0
M  V30 1162 H 107.424 2.99346 2.90599 0
M  V30 1163 H 106.054 1.88928 2.61737 0
M  V30 1164 H 105.106 3.6746 0.983719 0
M  V30 1165 H 106.418 4.75693 1.50059 0
M  V30 1166 H 105.572 4.68465 3.85519 0
M  V30 1167 H 104.311 3.50948 3.38655 0
M  V30 1168 H 103.316 5.19133 1.81055 0
M  V30 1169 H 104.541 6.38722 2.30675 0
M  V30 1170 H 102.487 5.09024 4.138 0
M  V30 1171 H 102.404 6.70018 3.5016 0
M  V30 1172 H 103.672 6.28212 4.61486 0
M  V30 1173 N 107.901 -0.206675 1.56239 0
M  V30 1174 C 108.864 -1.23976 1.92776 0
M  V30 1175 C 109.864 -1.39041 0.807729 0
M  V30 1176 O 111.054 -1.37051 1.0753 0
M  V30 1177 C 108.186 -2.61112 2.19165 0
M  V30 1178 H 109.379 -0.927764 2.85189 0
M  V30 1179 H 106.932 -0.447718 1.4975 0
M  V30 1180 H 107.667 -2.97386 1.29352 0
M  V30 1181 H 107.452 -2.51552 3.00772 0
M  V30 1182 H 108.942 -3.35633 2.48476 0
M  V30 1183 N 109.379 -1.50304 -0.473955 0
M  V30 1184 C 110.289 -1.7174 -1.5982 0
M  V30 1185 C 111.305 -0.600457 -1.63311 0
M  V30 1186 O 112.481 -0.878441 -1.81233 0
M  V30 1187 C 109.546 -1.80427 -2.96052 0
M  V30 1188 C 108.607 -3.04148 -3.02972 0
M  V30 1189 C 107.84 -3.12411 -4.32706 0
M  V30 1190 O 108.063 -2.27542 -5.23049 0
M  V30 1191 O 106.997 -4.05113 -4.45159 0
M  V30 1192 H 110.823 -2.67035 -1.44657 0
M  V30 1193 H 108.408 -1.34366 -0.653148 0
M  V30 1194 H 110.29 -1.88338 -3.7697 0
M  V30 1195 H 108.965 -0.883156 -3.11419 0
M  V30 1196 H 107.872 -3.0174 -2.21142 0
M  V30 1197 H 109.205 -3.95829 -2.92541 0
M  V30 1198 N 110.857 0.726932 -1.39834 0
M  V30 1199 C 111.82 1.82269 -1.38962 0
M  V30 1200 C 112.82 1.58248 -0.285334 0
M  V30 1201 O 114.01 1.65499 -0.54366 0
M  V30 1202 C 111.142 3.20186 -1.17019 0
M  V30 1203 H 112.335 1.84443 -2.36476 0
M  V30 1204 H 109.888 0.931416 -1.25516 0
M  V30 1205 H 110.623 3.23669 -0.202204 0
M  V30 1206 H 110.408 3.3902 -1.96998 0
M  V30 1207 H 111.898 4.00235 -1.1917 0
M  V30 1208 N 112.336 1.25143 0.95797 0
M  V30 1209 C 113.246 1.06968 2.08794 0
M  V30 1210 C 114.262 0.00773911 1.73998 0
M  V30 1211 O 115.438 0.207972 2.00323 0
M  V30 1212 C 112.503 0.68691 3.39827 0
M  V30 1213 C 111.564 1.82641 3.88511 0
M  V30 1214 C 110.797 1.46181 5.1329 0
M  V30 1215 O 111.02 0.355971 5.69288 0
M  V30 1216 O 109.954 2.29085 5.566 0
M  V30 1217 H 113.78 2.01723 2.27027 0
M  V30 1218 H 111.365 1.04051 1.07209 0
M  V30 1219 H 113.247 0.485417 4.18595 0
M  V30 1220 H 111.922 -0.231417 3.22872 0
M  V30 1221 H 110.829 2.08274 3.10762 0
M  V30 1222 H 112.162 2.72386 4.09959 0
M  V30 1223 N 113.814 -1.1601 1.06675 0
M  V30 1224 C 114.777 -2.18724 0.685001 0
M  V30 1225 C 115.777 -1.58496 -0.271246 0
M  V30 1226 O 116.967 -1.74119 -0.0531156 0
M  V30 1227 C 114.099 -3.40899 0.00853648 0
M  V30 1228 H 115.292 -2.54011 1.59431 0
M  V30 1229 H 112.845 -1.30352 0.862441 0
M  V30 1230 H 113.58 -3.11173 -0.913337 0
M  V30 1231 H 113.365 -3.8587 0.696204 0
M  V30 1232 H 114.855 -4.16886 -0.24414 0
M  V30 1233 N 115.292 -0.849877 -1.32721 0
M  V30 1234 C 116.255 -0.296122 -2.27279 0
M  V30 1235 C 117.255 0.541458 -1.5141 0
M  V30 1236 O 118.445 0.353658 -1.70572 0
M  V30 1237 C 115.577 0.581579 -3.35902 0
M  V30 1238 H 116.77 -1.13064 -2.77771 0
M  V30 1239 H 114.323 -0.62383 -1.43311 0
M  V30 1240 H 115.058 1.43809 -2.9067 0
M  V30 1241 H 114.843 -0.0178814 -3.92096 0
M  V30 1242 H 116.333 0.961951 -4.0637 0
M  V30 1243 N 116.77 1.45427 -0.607355 0
M  V30 1244 C 117.7 2.3329 0.0989352 0
M  V30 1245 C 118.681 1.46816 0.859007 0
M  V30 1246 O 119.866 1.75588 0.829604 0
M  V30 1247 C 116.996 3.29518 1.09705 0
M  V30 1248 C 115.95 4.25626 0.450206 0
M  V30 1249 C 115.276 5.11542 1.55655 0
M  V30 1250 C 116.576 5.18505 -0.628455 0
M  V30 1251 H 118.27 2.92595 -0.634716 0
M  V30 1252 H 115.816 1.40696 -0.306681 0
M  V30 1253 H 117.769 3.89855 1.59971 0
M  V30 1254 H 116.493 2.68372 1.86129 0
M  V30 1255 H 115.152 3.66586 -0.0315886 0
M  V30 1256 H 114.8 4.46765 2.31107 0
M  V30 1257 H 114.5 5.76647 1.12925 0
M  V30 1258 H 116.024 5.74748 2.06148 0
M  V30 1259 H 117.438 5.72916 -0.209877 0
M  V30 1260 H 115.835 5.92085 -0.977489 0
M  V30 1261 H 116.905 4.60948 -1.50514 0
M  V30 1262 N 118.248 0.346503 1.53744 0
M  V30 1263 C 119.158 -0.517293 2.28826 0
M  V30 1264 C 120.174 -1.10935 1.3405 0
M  V30 1265 O 121.35 -1.1244 1.6709 0
M  V30 1266 C 118.415 -1.65098 3.04866 0
M  V30 1267 C 117.476 -1.0884 4.15274 0
M  V30 1268 C 116.709 -2.16806 4.87679 0
M  V30 1269 O 116.932 -3.3758 4.59778 0
M  V30 1270 O 115.866 -1.80934 5.74061 0
M  V30 1271 H 119.692 0.0931396 3.03557 0
M  V30 1272 H 117.277 0.111458 1.48984 0
M  V30 1273 H 119.159 -2.31053 3.5241 0
M  V30 1274 H 117.834 -2.24717 2.32989 0
M  V30 1275 H 116.741 -0.3933 3.72027 0
M  V30 1276 H 118.074 -0.537036 4.89261 0
M  V30 1277 N 119.726 -1.57421 0.075193 0
M  V30 1278 C 120.689 -2.11791 -0.876203 0
M  V30 1279 C 121.689 -1.04268 -1.22412 0
M  V30 1280 O 122.879 -1.30242 -1.15684 0
M  V30 1281 C 120.011 -2.62207 -2.17854 0
M  V30 1282 H 121.204 -2.9716 -0.40444 0
M  V30 1283 H 118.757 -1.55333 -0.173557 0
M  V30 1284 H 119.492 -1.803 -2.6956 0
M  V30 1285 H 119.277 -3.40802 -1.93897 0
M  V30 1286 H 120.767 -3.04335 -2.85955 0
M  V30 1287 N 121.204 0.198386 -1.56346 0
M  V30 1288 C 122.167 1.22952 -1.93431 0
M  V30 1289 C 123.167 1.38611 -0.815092 0
M  V30 1290 O 124.357 1.36479 -1.08255 0
M  V30 1291 C 121.489 2.59946 -2.20546 0
M  V30 1292 H 122.682 0.912626 -2.85677 0
M  V30 1293 H 120.235 0.43977 -1.49986 0
M  V30 1294 H 120.97 2.96696 -1.30927 0
M  V30 1295 H 120.755 2.49953 -3.02102 0
M  V30 1296 H 122.245 3.3431 -2.50253 0
M  V30 1297 N 122.682 1.50554 0.465978 0
M  V30 1298 C 123.928 1.63006 1.21658 0
M  V30 1299 C 124.283 0.328613 1.89573 0
M  V30 1300 O 123.576 -0.673813 1.79361 0
M  V30 1301 C 123.77 2.75152 2.28093 0
M  V30 1302 C 123.599 4.16075 1.7062 0
M  V30 1303 C 122.369 4.82408 1.50368 0
M  V30 1304 C 124.567 5.00145 1.1983 0
M  V30 1305 N 122.549 6.07532 0.881924 0
M  V30 1306 C 123.92 6.16035 0.700083 0
M  V30 1307 C 125.975 4.85882 1.08733 0
M  V30 1308 C 124.678 7.19228 0.101835 0
M  V30 1309 C 126.704 5.89257 0.503016 0
M  V30 1310 C 126.066 7.04398 0.0152005 0
M  V30 1311 H 122.165 0.650596 0.433877 0
M  V30 1312 H 124.749 1.8769 0.517746 0
M  V30 1313 H 122.92 2.52181 2.95397 0
M  V30 1314 H 124.652 2.76935 2.95109 0
M  V30 1315 H 121.407 4.39788 1.75737 0
M  V30 1316 H 121.831 6.7443 0.589312 0
M  V30 1317 H 126.473 3.97144 1.4504 0
M  V30 1318 H 124.191 8.07637 -0.273426 0
M  V30 1319 H 127.777 5.80286 0.419451 0
M  V30 1320 H 126.657 7.83021 -0.429856 0
M  V30 1321 N 124.16 -0.719506 1.40217 0
M  V30 1322 C 125.107 -1.83359 1.40172 0
M  V30 1323 C 126.077 -1.64065 0.259206 0
M  V30 1324 O 127.262 -1.85254 0.456677 0
M  V30 1325 C 124.402 -3.2103 1.26624 0
M  V30 1326 C 123.515 -3.51923 2.50548 0
M  V30 1327 C 122.65 -4.79079 2.29471 0
M  V30 1328 C 121.689 -5.02863 3.48992 0
M  V30 1329 N 120.826 -6.2123 3.27135 0
M  V30 1330 H 125.666 -1.82733 2.35399 0
M  V30 1331 H 123.203 -0.892688 1.16917 0
M  V30 1332 H 125.161 -4.00524 1.16776 0
M  V30 1333 H 123.791 -3.20895 0.350176 0
M  V30 1334 H 122.843 -2.67014 2.70939 0
M  V30 1335 H 124.155 -3.6541 3.39525 0
M  V30 1336 H 123.309 -5.66582 2.16955 0
M  V30 1337 H 122.048 -4.67794 1.37913 0
M  V30 1338 H 121.053 -4.13816 3.6199 0
M  V30 1339 H 122.278 -5.16023 4.41472 0
M  V30 1340 H 120.224 -6.11204 2.38256 0
M  V30 1341 H 120.141 -6.35375 4.09675 0
M  V30 1342 H 121.409 -7.11532 3.18344 0
M  V30 1343 N 125.638 -1.25649 -0.95132 0
M  V30 1344 C 126.601 -1.06399 -2.03007 0
M  V30 1345 C 127.601 -0.0156794 -1.60792 0
M  V30 1346 O 128.791 -0.25817 -1.72276 0
M  V30 1347 C 125.923 -0.616184 -3.35285 0
M  V30 1348 H 127.116 -2.02164 -2.21517 0
M  V30 1349 H 124.669 -1.08103 -1.12887 0
M  V30 1350 H 125.404 0.343917 -3.22471 0
M  V30 1351 H 125.189 -1.37301 -3.67275 0
M  V30 1352 H 126.679 -0.503032 -4.14559 0
M  V30 1353 N 127.117 1.15442 -1.07289 0
M  V30 1354 C 128.364 1.86213 -0.795668 0
M  V30 1355 C 128.692 1.82291 0.678238 0
M  V30 1356 O 127.947 1.24057 1.51355 0
M  V30 1357 C 128.246 3.3489 -1.24834 0
M  V30 1358 C 127.912 3.59007 -2.72809 0
M  V30 1359 C 126.574 3.65298 -3.13227 0
M  V30 1360 C 128.926 3.68762 -3.68326 0
M  V30 1361 C 126.254 3.78854 -4.4798 0
M  V30 1362 C 128.606 3.83842 -5.0284 0
M  V30 1363 C 127.27 3.88378 -5.4288 0
M  V30 1364 H 126.54 0.681403 -0.291155 0
M  V30 1365 H 129.187 1.36435 -1.34379 0
M  V30 1366 H 127.492 3.8687 -0.619595 0
M  V30 1367 H 129.189 3.88052 -1.01076 0
M  V30 1368 H 125.779 3.5475 -2.40521 0
M  V30 1369 H 129.963 3.63202 -3.38227 0
M  V30 1370 H 125.219 3.80623 -4.78472 0
M  V30 1371 H 129.393 3.90332 -5.76727 0
M  V30 1372 H 127.02 3.98635 -6.47298 0
M  V30 1373 N 128.595 0.856903 1.32268 0
M  V30 1374 C 129.542 0.301172 2.28827 0
M  V30 1375 C 130.512 -0.593104 1.5515 0
M  V30 1376 O 131.697 -0.527537 1.83362 0
M  V30 1377 C 128.837 -0.502523 3.41422 0
M  V30 1378 C 127.95 0.417797 4.29975 0
M  V30 1379 C 127.085 -0.398749 5.29701 0
M  V30 1380 C 126.124 0.518827 6.09897 0
M  V30 1381 N 125.261 -0.260674 7.01616 0
M  V30 1382 H 130.101 1.12983 2.75751 0
M  V30 1383 H 127.638 0.568582 1.35667 0
M  V30 1384 H 129.596 -0.984141 4.05426 0
M  V30 1385 H 128.226 -1.29599 2.95642 0
M  V30 1386 H 127.278 1.01781 3.66531 0
M  V30 1387 H 128.59 1.12191 4.86019 0
M  V30 1388 H 127.744 -0.943435 5.9932 0
M  V30 1389 H 126.483 -1.13622 4.7428 0
M  V30 1390 H 125.488 1.07538 5.39181 0
M  V30 1391 H 126.713 1.25495 6.67404 0
M  V30 1392 H 124.659 -0.981198 6.4862 0
M  V30 1393 H 124.576 0.384364 7.55022 0
M  V30 1394 H 125.844 -0.787014 7.75517 0
M  V30 1395 N 130.073 -1.45103 0.615059 0
M  V30 1396 C 131.301 -2.06553 0.11977 0
M  V30 1397 C 131.716 -1.45842 -1.19898 0
M  V30 1398 O 131.073 -0.575325 -1.73194 0
M  V30 1399 C 131.124 -3.61495 -0.018364 0
M  V30 1400 O 130.845 -4.19942 1.24822 0
M  V30 1401 C 132.346 -4.39947 -0.544237 0
M  V30 1402 H 129.566 -0.667096 0.0722739 0
M  V30 1403 H 132.11 -1.8623 0.84491 0
M  V30 1404 H 130.265 -3.81135 -0.693865 0
M  V30 1405 H 130.679 -5.13204 1.0827 0
M  V30 1406 H 132.153 -5.48838 -0.589953 0
M  V30 1407 H 132.63 -4.10255 -1.56805 0
M  V30 1408 H 133.236 -4.25188 0.0974703 0
M  V30 1409 N 131.551 -0.354651 -1.53558 0
M  V30 1410 C 132.797 0.231422 -2.02079 0
M  V30 1411 C 133.152 1.47308 -1.23767 0
M  V30 1412 O 132.445 1.8891 -0.319947 0
M  V30 1413 C 132.639 0.587121 -3.52545 0
M  V30 1414 C 132.468 -0.618513 -4.45426 0
M  V30 1415 C 131.238 -1.12724 -4.92566 0
M  V30 1416 C 133.436 -1.48039 -4.92533 0
M  V30 1417 N 131.418 -2.29404 -5.69427 0
M  V30 1418 C 132.789 -2.49397 -5.67628 0
M  V30 1419 C 134.844 -1.50454 -4.74624 0
M  V30 1420 C 133.547 -3.53013 -6.26717 0
M  V30 1421 C 135.573 -2.52958 -5.34571 0
M  V30 1422 C 134.935 -3.5304 -6.09543 0
M  V30 1423 H 131.034 0.0476909 -0.780544 0
M  V30 1424 H 133.618 -0.496727 -1.88257 0
M  V30 1425 H 131.789 1.28436 -3.6655 0
M  V30 1426 H 133.521 1.15734 -3.87799 0
M  V30 1427 H 130.276 -0.693577 -4.68494 0
M  V30 1428 H 130.7 -2.88347 -6.12524 0
M  V30 1429 H 135.342 -0.744356 -4.16196 0
M  V30 1430 H 133.06 -4.2992 -6.84247 0
M  V30 1431 H 136.646 -2.55667 -5.22614 0
M  V30 1432 H 135.526 -4.31056 -6.55103 0
M  V30 1433 N 133.029 1.57378 -0.0835403 0
M  V30 1434 C 133.976 2.13384 0.879539 0
M  V30 1435 C 134.946 1.04936 1.28754 0
M  V30 1436 O 136.131 1.32662 1.37133 0
M  V30 1437 C 133.271 2.70932 2.13752 0
M  V30 1438 C 132.384 3.93575 1.7811 0
M  V30 1439 C 131.519 4.39326 2.98607 0
M  V30 1440 C 130.558 5.54587 2.59037 0
M  V30 1441 N 129.695 5.95243 3.72331 0
M  V30 1442 H 134.535 2.9537 0.395076 0
M  V30 1443 H 132.072 1.45953 0.183349 0
M  V30 1444 H 134.03 3.02411 2.87408 0
M  V30 1445 H 132.66 1.91693 2.59718 0
M  V30 1446 H 131.712 3.68483 0.94469 0
M  V30 1447 H 133.024 4.77258 1.45005 0
M  V30 1448 H 132.178 4.72528 3.80529 0
M  V30 1449 H 130.917 3.5452 3.34913 0
M  V30 1450 H 129.922 5.21024 1.75539 0
M  V30 1451 H 131.147 6.41133 2.23887 0
M  V30 1452 H 129.093 5.13385 4.08378 0
M  V30 1453 H 129.01 6.73694 3.43034 0
M  V30 1454 H 130.278 6.33072 4.54797 0
M  V30 1455 N 134.507 -0.190092 1.56449 0
M  V30 1456 C 135.784 -0.935886 1.71757 0
M  V30 1457 C 136.164 -2.01173 0.639726 0
M  V30 1458 O 135.512 -2.25827 -0.348502 0
M  V30 1459 C 135.722 -1.51775 3.1427 0
M  V30 1460 C 137.07 -1.99794 3.74656 0
M  V30 1461 O 138.094 -1.61607 3.1743 0
M  V30 1462 O 136.953 -2.70079 4.751 0
M  V30 1463 H 134.047 -0.439229 0.700719 0
M  V30 1464 H 136.593 -0.179395 1.68749 0
M  V30 1465 H 135.365 -0.742505 3.84191 0
M  V30 1466 H 134.988 -2.33894 3.21527 0
M  V30 1467 N 135.985 -1.50799 -0.457987 0
M  V30 1468 C 137.231 -1.63648 -1.20792 0
M  V30 1469 C 137.586 -0.338662 -1.89396 0
M  V30 1470 O 136.879 0.664291 -1.79716 0
M  V30 1471 C 137.073 -2.76358 -2.2663 0
M  V30 1472 C 136.902 -4.16974 -1.68411 0
M  V30 1473 C 135.672 -4.83199 -1.47807 0
M  V30 1474 C 137.87 -5.00774 -1.17176 0
M  V30 1475 N 135.852 -6.07991 -0.849692 0
M  V30 1476 C 137.223 -6.16397 -0.667403 0
M  V30 1477 C 139.278 -4.86452 -1.06155 0
M  V30 1478 C 137.981 -7.19272 -0.0636908 0
M  V30 1479 C 140.007 -5.89515 -0.471759 0
M  V30 1480 C 139.369 -7.04397 0.0221557 0
M  V30 1481 H 135.468 -0.652888 -0.43042 0
M  V30 1482 H 138.052 -1.87962 -0.507785 0
M  V30 1483 H 136.223 -2.53744 -2.94056 0
M  V30 1484 H 137.955 -2.78496 -2.93636 0
M  V30 1485 H 134.71 -4.40714 -1.73403 0
M  V30 1486 H 135.134 -6.74733 -0.553537 0
M  V30 1487 H 139.776 -3.97907 -1.42932 0
M  V30 1488 H 137.494 -8.07481 0.316253 0
M  V30 1489 H 141.08 -5.805 -0.388671 0
M  V30 1490 H 139.96 -7.82782 0.471375 0
M  V30 1491 N 137.463 0.71206 -1.40597 0
M  V30 1492 C 138.874 1.29135 -1.34837 0
M  V30 1493 C 139.225 1.96186 -0.0235395 0
M  V30 1494 O 138.35 1.97768 0.878444 0
M  V30 1495 C 138.945 2.34827 -2.44217 0
M  V30 1496 C 137.504 2.88371 -2.41907 0
M  V30 1497 C 136.651 1.62202 -2.24913 0
M  V30 1498 H 139.602 0.507944 -1.50352 0
M  V30 1499 H 139.623 3.15749 -2.12327 0
M  V30 1500 H 139.135 1.85996 -3.40627 0
M  V30 1501 H 137.236 3.41422 -1.49204 0
M  V30 1502 H 137.349 3.39925 -3.37621 0
M  V30 1503 H 135.713 1.874 -1.72492 0
M  V30 1504 H 136.496 1.15391 -3.23326 0
M  V30 1505 N 138.941 1.26152 0.944643 0
M  V30 1506 C 139.873 1.03199 2.04652 0
M  V30 1507 C 140.886 -0.00642356 1.62799 0
M  V30 1508 O 142.075 0.233263 1.76969 0
M  V30 1509 C 139.175 0.540111 3.34568 0
M  V30 1510 C 138.348 1.64697 4.05208 0
M  V30 1511 C 137.407 1.15374 5.13396 0
M  V30 1512 O 136.433 1.85013 5.38293 0
M  V30 1513 N 137.635 0.00031529 5.805 0
M  V30 1514 H 140.4 1.9808 2.2491 0
M  V30 1515 H 137.961 1.17491 1.11389 0
M  V30 1516 H 139.953 0.194401 4.04233 0
M  V30 1517 H 138.523 -0.315021 3.11009 0
M  V30 1518 H 137.743 2.16379 3.29506 0
M  V30 1519 H 139.031 2.3903 4.49157 0
M  V30 1520 H 138.429 -0.581336 5.62705 0
M  V30 1521 H 136.986 -0.286346 6.51171 0
M  V30 1522 N 140.419 -1.14872 1.07899 0
M  V30 1523 C 141.329 -2.2341 0.715915 0
M  V30 1524 C 142.345 -1.71808 -0.275306 0
M  V30 1525 O 143.521 -2.01039 -0.120545 0
M  V30 1526 C 140.586 -3.46474 0.125168 0
M  V30 1527 C 139.647 -4.13039 1.17034 0
M  V30 1528 C 138.88 -5.30229 0.607688 0
M  V30 1529 O 139.103 -5.675 -0.574497 0
M  V30 1530 O 138.037 -5.86444 1.35526 0
M  V30 1531 H 141.863 -2.56808 1.62121 0
M  V30 1532 H 139.448 -1.22702 0.852322 0
M  V30 1533 H 141.33 -4.20917 -0.201729 0
M  V30 1534 H 140.005 -3.14811 -0.753364 0
M  V30 1535 H 138.912 -3.40493 1.54968 0
M  V30 1536 H 140.245 -4.48796 2.02097 0
M  V30 1537 N 141.898 -0.863906 -1.31812 0
M  V30 1538 C 143.175 -0.39275 -1.91616 0
M  V30 1539 C 143.555 1.12461 -1.7865 0
M  V30 1540 O 142.903 1.95045 -1.19037 0
M  V30 1541 C 143.113 -0.867385 -3.38049 0
M  V30 1542 C 144.461 -0.889966 -4.15168 0
M  V30 1543 O 145.485 -0.812635 -3.46806 0
M  V30 1544 O 144.344 -1.00079 -5.37258 0
M  V30 1545 H 141.438 -0.116358 -0.818773 0
M  V30 1546 H 143.984 -0.951418 -1.40521 0
M  V30 1547 H 142.756 -1.91081 -3.41473 0
M  V30 1548 H 142.379 -0.286687 -3.96565 0
M  V30 1549 N 143.376 1.44774 -0.622745 0
M  V30 1550 C 144.792 1.56986 -0.287652 0
M  V30 1551 C 144.992 1.61167 1.20944 0
M  V30 1552 O 144.048 1.55015 1.99315 0
M  V30 1553 C 145.361 2.84551 -0.972188 0
M  V30 1554 C 146.909 2.9825 -0.949536 0
M  V30 1555 C 147.384 4.28605 -1.61437 0
M  V30 1556 N 148.875 4.35399 -1.58057 0
M  V30 1557 C 149.61 5.34964 -2.064 0
M  V30 1558 N 149.106 6.40981 -2.62897 0
M  V30 1559 N 150.899 5.26419 -1.97078 0
M  V30 1560 H 143.05 1.40304 -1.59463 0
M  V30 1561 H 145.313 0.671794 -0.668878 0
M  V30 1562 H 145.019 2.87417 -2.02693 0
M  V30 1563 H 144.893 3.73807 -0.504771 0
M  V30 1564 H 147.28 2.94941 0.0967067 0
M  V30 1565 H 147.361 2.10364 -1.45536 0
M  V30 1566 H 147.005 4.32672 -2.66002 0
M  V30 1567 H 146.935 5.15334 -1.08344 0
M  V30 1568 H 149.426 3.59397 -1.16801 0
M  V30 1569 H 149.739 7.13225 -2.97539 0
M  V30 1570 H 148.084 6.4169 -2.66943 0
M  V30 1571 H 151.275 4.42504 -1.52669 0
M  V30 1572 H 151.448 6.03861 -2.35066 0
M  V30 1573 N 144.854 0.36279 1.53368 0
M  V30 1574 C 146.079 -0.231226 2.06107 0
M  V30 1575 C 146.504 -1.419 1.23474 0
M  V30 1576 O 145.862 -1.79524 0.253128 0
M  V30 1577 C 145.91 -0.605523 3.5548 0
M  V30 1578 O 145.014 -1.70312 3.7559 0
M  V30 1579 H 144.355 -0.034327 0.663112 0
M  V30 1580 H 146.885 0.522584 1.97814 0
M  V30 1581 H 146.895 -0.877314 3.98456 0
M  V30 1582 H 145.57 0.263004 4.15068 0
M  V30 1583 H 144.147 -1.4271 3.44512 0
M  V30 1584 N 146.332 -1.57332 0.0918853 0
M  V30 1585 C 147.748 -1.57389 -0.264766 0
M  V30 1586 C 147.948 -1.10281 -1.68643 0
M  V30 1587 O 147.004 -0.777801 -2.40222 0
M  V30 1588 C 148.317 -3.00648 -0.0561195 0
M  V30 1589 C 149.865 -3.12754 -0.124116 0
M  V30 1590 C 150.34 -4.57965 0.0564972 0
M  V30 1591 N 151.831 -4.632 0.00155611 0
M  V30 1592 C 152.566 -5.73281 0.116598 0
M  V30 1593 N 152.062 -6.92208 0.286294 0
M  V30 1594 N 153.855 -5.6207 0.0580973 0
M  V30 1595 H 146.006 -1.86262 1.02079 0
M  V30 1596 H 148.269 -0.859579 0.399786 0
M  V30 1597 H 147.975 -3.393 0.925669 0
M  V30 1598 H 147.849 -3.68623 -0.799823 0
M  V30 1599 H 150.236 -2.73976 -1.09641 0
M  V30 1600 H 150.317 -2.47377 0.651024 0
M  V30 1601 H 149.961 -4.97436 1.02564 0
M  V30 1602 H 149.891 -5.21399 -0.738297 0
M  V30 1603 H 152.382 -3.77686 -0.127192 0
M  V30 1604 H 152.695 -7.71934 0.365676 0
M  V30 1605 H 151.04 -6.94254 0.32192 0
M  V30 1606 H 154.231 -4.68043 -0.0733204 0
M  V30 1607 H 154.404 -6.47824 0.151203 0
M  V30 1608 N 147.81 0.181792 -1.56548 0
M  V30 1609 C 148.74 1.22765 -1.98623 0
M  V30 1610 C 149.721 1.46747 -0.860189 0
M  V30 1611 O 150.906 1.58259 -1.12551 0
M  V30 1612 C 148.036 2.56894 -2.33715 0
M  V30 1613 C 146.99 2.475 -3.49182 0
M  V30 1614 C 146.316 3.86023 -3.69986 0
M  V30 1615 C 147.616 1.98866 -4.82959 0
M  V30 1616 H 149.31 0.877942 -2.86239 0
M  V30 1617 H 146.856 0.42088 -1.37712 0
M  V30 1618 H 148.809 3.30253 -2.61746 0
M  V30 1619 H 147.533 2.93632 -1.42997 0
M  V30 1620 H 146.192 1.76596 -3.21262 0
M  V30 1621 H 145.84 4.20136 -2.76576 0
M  V30 1622 H 145.54 3.80609 -4.47672 0
M  V30 1623 H 147.064 4.60984 -4.00407 0
M  V30 1624 H 148.478 2.61992 -5.09934 0
M  V30 1625 H 146.875 2.04424 -5.64208 0
M  V30 1626 H 147.945 0.942465 -4.75653 0
M  V30 1627 N 149.288 1.51039 0.449983 0
M  V30 1628 C 150.218 1.74379 1.55288 0
M  V30 1629 C 151.199 0.593236 1.5942 0
M  V30 1630 O 152.384 0.834625 1.7535 0
M  V30 1631 C 149.514 1.85728 2.93466 0
M  V30 1632 C 148.468 3.01078 3.04197 0
M  V30 1633 C 147.794 2.97595 4.44231 0
M  V30 1634 C 149.094 4.41254 2.7945 0
M  V30 1635 H 150.788 2.66725 1.36008 0
M  V30 1636 H 148.334 1.2835 0.652864 0
M  V30 1637 H 150.287 2.0064 3.70569 0
M  V30 1638 H 149.011 0.900207 3.13949 0
M  V30 1639 H 147.67 2.85851 2.29531 0
M  V30 1640 H 147.318 1.99691 4.61663 0
M  V30 1641 H 147.018 3.75046 4.52343 0
M  V30 1642 H 148.542 3.14583 5.23326 0
M  V30 1643 H 149.956 4.56897 3.46292 0
M  V30 1644 H 148.353 5.20315 2.98985 0
M  V30 1645 H 149.423 4.52164 1.75144 0
M  V30 1646 N 150.766 -0.704594 1.40972 0
M  V30 1647 C 151.696 -1.83124 1.44872 0
M  V30 1648 C 152.677 -1.67281 0.30838 0
M  V30 1649 O 153.862 -1.87149 0.518556 0
M  V30 1650 C 150.992 -3.21181 1.32136 0
M  V30 1651 C 149.946 -3.51714 2.43888 0
M  V30 1652 C 149.272 -4.89032 2.16222 0
M  V30 1653 C 150.572 -3.516 3.86232 0
M  V30 1654 H 152.266 -1.80117 2.39161 0
M  V30 1655 H 149.812 -0.865145 1.15114 0
M  V30 1656 H 151.765 -3.99702 1.33479 0
M  V30 1657 H 150.489 -3.24791 0.343279 0
M  V30 1658 H 149.148 -2.75539 2.41813 0
M  V30 1659 H 148.796 -4.89256 1.16778 0
M  V30 1660 H 148.496 -5.10426 2.911 0
M  V30 1661 H 150.02 -5.69873 2.19265 0
M  V30 1662 H 151.434 -4.2014 3.9007 0
M  V30 1663 H 149.831 -3.84523 4.60719 0
M  V30 1664 H 150.901 -2.50757 4.15029 0
M  V30 1665 N 152.244 -1.26651 -0.937939 0
M  V30 1666 C 153.191 -1.0849 -2.03712 0
M  V30 1667 C 154.161 0.011033 -1.66096 0
M  V30 1668 O 155.346 -0.149353 -1.90215 0
M  V30 1669 C 152.486 -0.72735 -3.37348 0
M  V30 1670 C 151.599 -1.89986 -3.87981 0
M  V30 1671 C 150.734 -1.48513 -5.10017 0
M  V30 1672 C 149.773 -2.62575 -5.5292 0
M  V30 1673 N 148.91 -2.21762 -6.66158 0
M  V30 1674 H 153.75 -2.02551 -2.18579 0
M  V30 1675 H 151.287 -1.00844 -1.07093 0
M  V30 1676 H 153.245 -0.50092 -4.14182 0
M  V30 1677 H 151.875 0.176298 -3.22318 0
M  V30 1678 H 150.927 -2.23913 -3.07518 0
M  V30 1679 H 152.239 -2.75586 -4.15757 0
M  V30 1680 H 151.393 -1.21934 -5.94321 0
M  V30 1681 H 150.132 -0.60009 -4.83994 0
M  V30 1682 H 149.137 -2.8988 -4.67172 0
M  V30 1683 H 150.362 -3.51685 -5.80943 0
M  V30 1684 H 148.308 -1.35696 -6.41812 0
M  V30 1685 H 148.225 -3.00903 -6.93537 0
M  V30 1686 H 149.493 -1.98403 -7.53828 0
M  V30 1687 N 153.722 1.14298 -1.08507 0
M  V30 1688 C 154.685 2.17607 -0.719711 0
M  V30 1689 C 155.685 1.58907 0.245997 0
M  V30 1690 O 156.875 1.74181 0.0254081 0
M  V30 1691 C 154.007 3.40842 -0.0627695 0
M  V30 1692 H 155.2 2.51443 -1.63452 0
M  V30 1693 H 152.753 1.28963 -0.88307 0
M  V30 1694 H 153.488 3.12587 0.863716 0
M  V30 1695 H 153.273 3.84713 -0.757504 0
M  V30 1696 H 154.763 4.17221 0.177786 0
M  V30 1697 N 155.201 0.870884 1.31352 0
M  V30 1698 C 156.164 0.332243 2.26779 0
M  V30 1699 C 157.164 -0.517302 1.52252 0
M  V30 1700 O 158.354 -0.326477 1.71113 0
M  V30 1701 C 155.486 -0.528066 3.36785 0
M  V30 1702 H 156.679 1.17469 2.75937 0
M  V30 1703 H 154.232 0.64655 1.423 0
M  V30 1704 H 154.967 -1.39167 2.92922 0
M  V30 1705 H 154.752 0.0802582 3.92018 0
M  V30 1706 H 156.242 -0.897179 4.07849 0
M  V30 1707 N 156.679 -1.44442 0.630414 0
M  V30 1708 C 157.642 -2.29107 -0.0652523 0
M  V30 1709 C 158.642 -1.41002 -0.772995 0
M  V30 1710 O 159.832 -1.62881 -0.617692 0
M  V30 1711 C 156.964 -3.22564 -1.10296 0
M  V30 1712 H 158.157 -2.92103 0.679401 0
M  V30 1713 H 155.71 -1.51343 0.390517 0
M  V30 1714 H 156.445 -2.64416 -1.87762 0
M  V30 1715 H 156.23 -3.87491 -0.59941 0
M  V30 1716 H 157.72 -3.86167 -1.5895 0
M  V30 1717 N 158.157 -0.370918 -1.53173 0
M  V30 1718 C 159.087 0.464847 -2.28826 0
M  V30 1719 C 160.068 1.07936 -1.31468 0
M  V30 1720 O 161.253 1.0956 -1.60344 0
M  V30 1721 C 158.383 1.60196 -3.08147 0
M  V30 1722 C 157.337 1.11443 -4.13237 0
M  V30 1723 C 156.663 2.3422 -4.80672 0
M  V30 1724 C 157.963 0.195384 -5.21934 0
M  V30 1725 H 159.657 -0.166329 -2.98938 0
M  V30 1726 H 157.203 -0.0814359 -1.4377 0
M  V30 1727 H 159.156 2.19332 -3.59822 0
M  V30 1728 H 157.88 2.26045 -2.35735 0
M  V30 1729 H 156.539 0.545727 -3.62515 0
M  V30 1730 H 156.187 2.98537 -4.04827 0
M  V30 1731 H 155.887 2.02269 -5.51689 0
M  V30 1732 H 157.411 2.94032 -5.35143 0
M  V30 1733 H 158.825 0.694375 -5.69079 0
M  V30 1734 H 157.222 -0.0335027 -6.00091 0
M  V30 1735 H 158.292 -0.760961 -4.78892 0
M  V30 1736 N 159.635 1.57281 -0.100228 0
M  V30 1737 C 160.568 2.09976 0.893612 0
M  V30 1738 C 161.546 1.01155 1.27304 0
M  V30 1739 O 162.73 1.28687 1.37739 0
M  V30 1740 C 159.857 2.58098 2.19324 0
M  V30 1741 C 158.903 3.78626 1.96328 0
M  V30 1742 S 159.736 5.21959 1.19662 0
M  V30 1743 C 160.892 5.73435 2.50844 0
M  V30 1744 H 161.125 2.93946 0.44534 0
M  V30 1745 H 158.658 1.53985 0.113167 0
M  V30 1746 H 160.616 2.8648 2.94005 0
M  V30 1747 H 159.277 1.74344 2.61272 0
M  V30 1748 H 158.47 4.10382 2.92579 0
M  V30 1749 H 158.072 3.50763 1.29775 0
M  V30 1750 H 160.364 5.82015 3.46792 0
M  V30 1751 H 161.307 6.7185 2.23659 0
M  V30 1752 H 161.715 5.01395 2.59352 0
M  V30 1753 N 161.113 -0.173488 1.56642 0
M  V30 1754 C 162.529 -0.525174 1.50712 0
M  V30 1755 C 162.729 -1.8476 0.804107 0
M  V30 1756 O 161.785 -2.49869 0.363574 0
M  V30 1757 C 163.098 -0.559937 2.95441 0
M  V30 1758 C 164.646 -0.647288 3.06234 0
M  V30 1759 C 165.121 -0.712963 4.52417 0
M  V30 1760 N 166.612 -0.775911 4.56655 0
M  V30 1761 C 167.347 -0.847264 5.67106 0
M  V30 1762 N 166.843 -0.879585 6.87194 0
M  V30 1763 N 168.636 -0.886117 5.55071 0
M  V30 1764 H 160.787 0.693681 2.00753 0
M  V30 1765 H 163.05 0.249841 0.914485 0
M  V30 1766 H 162.756 0.343049 3.50023 0
M  V30 1767 H 162.63 -1.40718 3.49969 0
M  V30 1768 H 165.017 -1.5407 2.51687 0
M  V30 1769 H 165.098 0.226586 2.54794 0
M  V30 1770 H 164.742 0.176183 5.07594 0
M  V30 1771 H 164.672 -1.60295 5.0161 0
M  V30 1772 H 167.163 -0.759304 3.70193 0
M  V30 1773 H 167.476 -0.935144 7.67121 0
M  V30 1774 H 165.821 -0.847898 6.89808 0
M  V30 1775 H 169.012 -0.857853 4.60172 0
M  V30 1776 H 169.185 -0.938263 6.41171 0
M  V30 1777 N 162.591 -1.51276 -0.441967 0
M  V30 1778 C 164.007 -1.39349 -0.778083 0
M  V30 1779 C 164.207 -0.472212 -1.95889 0
M  V30 1780 O 163.263 0.0743551 -2.5239 0
M  V30 1781 C 164.576 -2.81292 -1.0628 0
M  V30 1782 C 166.124 -2.9041 -1.16751 0
M  V30 1783 C 166.599 -4.33251 -1.48519 0
M  V30 1784 N 168.09 -4.36336 -1.55453 0
M  V30 1785 C 168.825 -5.43885 -1.81596 0
M  V30 1786 N 168.321 -6.61601 -2.05562 0
M  V30 1787 N 170.114 -5.3136 -1.8334 0
M  V30 1788 H 162.265 -2.09729 0.335774 0
M  V30 1789 H 164.528 -0.943925 0.0878028 0
M  V30 1790 H 164.234 -3.50678 -0.267905 0
M  V30 1791 H 164.108 -3.20334 -1.99163 0
M  V30 1792 H 166.495 -2.21225 -1.95304 0
M  V30 1793 H 166.576 -2.54871 -0.217801 0
M  V30 1794 H 166.22 -5.02984 -0.704958 0
M  V30 1795 H 166.15 -4.66299 -2.44689 0
M  V30 1796 H 168.641 -3.51466 -1.38853 0
M  V30 1797 H 168.954 -7.39361 -2.24867 0
M  V30 1798 H 167.299 -6.64725 -2.02894 0
M  V30 1799 H 170.49 -4.38382 -1.64132 0
M  V30 1800 H 170.663 -6.15258 -2.03377 0
M  V30 1801 N 164.069 0.697108 -1.41344 0
M  V30 1802 C 165.485 1.00751 -1.2378 0
M  V30 1803 C 165.685 2.01105 -0.126066 0
M  V30 1804 O 164.741 2.47295 0.51004 0
M  V30 1805 C 166.054 1.53359 -2.58653 0
M  V30 1806 C 167.602 1.6525 -2.65822 0
M  V30 1807 C 168.077 2.2126 -4.01009 0
M  V30 1808 N 169.568 2.28622 -4.02847 0
M  V30 1809 C 170.303 2.72984 -5.04249 0
M  V30 1810 N 169.799 3.16962 -6.16041 0
M  V30 1811 N 171.592 2.72534 -4.91611 0
M  V30 1812 H 163.743 0.0322662 -2.12375 0
M  V30 1813 H 166.006 0.0768853 -0.944877 0
M  V30 1814 H 165.712 0.870773 -3.4075 0
M  V30 1815 H 165.586 2.51597 -2.81032 0
M  V30 1816 H 167.973 2.30644 -1.84086 0
M  V30 1817 H 168.054 0.655614 -2.47256 0
M  V30 1818 H 167.698 1.56482 -4.83193 0
M  V30 1819 H 167.628 3.21698 -4.16915 0
M  V30 1820 H 170.119 1.97585 -3.22131 0
M  V30 1821 H 170.432 3.49434 -6.89287 0
M  V30 1822 H 168.777 3.14875 -6.1958 0
M  V30 1823 H 171.968 2.37525 -4.0336 0
M  V30 1824 H 172.141 3.06789 -5.70775 0
M  V30 1825 N 165.547 1.27147 0.931209 0
M  V30 1826 C 166.494 1.09568 2.03134 0
M  V30 1827 C 167.464 -0.00222433 1.661 0
M  V30 1828 O 168.649 0.159439 1.90133 0
M  V30 1829 C 165.789 0.745231 3.36957 0
M  V30 1830 C 164.902 1.92041 3.86968 0
M  V30 1831 C 164.037 1.51216 5.09222 0
M  V30 1832 C 163.076 2.65504 5.5152 0
M  V30 1833 N 162.213 2.25291 6.64972 0
M  V30 1834 H 167.053 2.03708 2.17502 0
M  V30 1835 H 164.59 1.01411 1.06556 0
M  V30 1836 H 166.548 0.522878 4.1391 0
M  V30 1837 H 165.178 -0.159202 3.22407 0
M  V30 1838 H 164.23 2.25541 3.06326 0
M  V30 1839 H 165.542 2.77787 4.1429 0
M  V30 1840 H 164.696 1.25084 5.93666 0
M  V30 1841 H 163.435 0.625749 4.83669 0
M  V30 1842 H 162.44 2.92354 4.65628 0
M  V30 1843 H 163.665 3.54761 5.7907 0
M  V30 1844 H 161.611 1.39098 6.41083 0
M  V30 1845 H 161.528 3.04577 6.91931 0
M  V30 1846 H 162.796 2.02398 7.52765 0
M  V30 1847 N 167.025 -1.13721 1.09112 0
M  V30 1848 C 168.441 -1.36914 0.820174 0
M  V30 1849 C 168.641 -1.93356 -0.567079 0
M  V30 1850 O 167.697 -2.15093 -1.32255 0
M  V30 1851 C 169.01 -2.3235 1.90877 0
M  V30 1852 C 170.558 -2.45973 1.93562 0
M  V30 1853 C 171.033 -3.44714 3.01556 0
M  V30 1854 N 172.524 -3.52263 3.00775 0
M  V30 1855 C 173.259 -4.28536 3.80978 0
M  V30 1856 N 172.755 -5.07991 4.71081 0
M  V30 1857 N 174.548 -4.23804 3.69251 0
M  V30 1858 H 166.699 -0.754348 1.98553 0
M  V30 1859 H 168.962 -0.3944 0.862063 0
M  V30 1860 H 168.668 -1.98027 2.90651 0
M  V30 1861 H 168.542 -3.32332 1.78424 0
M  V30 1862 H 170.929 -2.79584 0.944286 0
M  V30 1863 H 171.01 -1.45926 2.10093 0
M  V30 1864 H 170.654 -3.11835 4.00901 0
M  V30 1865 H 170.584 -4.44558 2.82269 0
M  V30 1866 H 173.075 -2.95567 2.35475 0
M  V30 1867 H 173.388 -5.63487 5.28869 0
M  V30 1868 H 171.733 -5.07235 4.75119 0
M  V30 1869 H 174.924 -3.60806 2.98222 0
M  V30 1870 H 175.097 -4.82995 4.31995 0
M  V30 1871 N 168.503 -0.877838 -1.30888 0
M  V30 1872 C 169.413 -0.343096 -2.32078 0
M  V30 1873 C 170.429 0.551022 -1.65045 0
M  V30 1874 O 171.605 0.445854 -1.96403 0
M  V30 1875 C 168.67 0.439905 -3.43898 0
M  V30 1876 C 167.731 -0.483111 -4.26573 0
M  V30 1877 C 166.964 0.262616 -5.33053 0
M  V30 1878 O 167.187 1.48967 -5.50604 0
M  V30 1879 O 166.121 -0.383593 -6.00676 0
M  V30 1880 H 169.947 -1.18203 -2.79753 0
M  V30 1881 H 167.532 -0.64145 -1.34929 0
M  V30 1882 H 169.414 0.883504 -4.12034 0
M  V30 1883 H 168.089 1.25526 -2.98371 0
M  V30 1884 H 166.996 -0.975374 -3.61161 0
M  V30 1885 H 168.329 -1.26427 -4.75686 0
M  V30 1886 N 169.982 1.44106 -0.638065 0
M  V30 1887 C 170.912 2.33448 0.0494287 0
M  V30 1888 C 171.893 1.48606 0.827672 0
M  V30 1889 O 173.078 1.77308 0.792173 0
M  V30 1890 C 170.208 3.31771 1.02691 0
M  V30 1891 C 169.162 4.26485 0.359823 0
M  V30 1892 C 168.488 5.14729 1.44769 0
M  V30 1893 C 169.788 5.17056 -0.738296 0
M  V30 1894 H 171.482 2.91183 -0.696636 0
M  V30 1895 H 169.028 1.40014 -0.336456 0
M  V30 1896 H 170.981 3.93161 1.51666 0
M  V30 1897 H 169.705 2.7226 1.80395 0
M  V30 1898 H 168.364 3.66437 -0.10934 0
M  V30 1899 H 168.012 4.51566 2.21578 0
M  V30 1900 H 167.712 5.78913 1.00668 0
M  V30 1901 H 169.236 5.78991 1.93911 0
M  V30 1902 H 170.65 5.72342 -0.331354 0
M  V30 1903 H 169.047 5.89879 -1.10286 0
M  V30 1904 H 170.117 4.57652 -1.60258 0
M  V30 1905 N 171.46 0.379036 1.52974 0
M  V30 1906 C 172.37 -0.468639 2.29872 0
M  V30 1907 C 173.386 -1.08067 1.36373 0
M  V30 1908 O 174.562 -1.08871 1.69438 0
M  V30 1909 C 171.627 -1.58594 3.083 0
M  V30 1910 C 170.688 -1.00007 4.17489 0
M  V30 1911 C 169.921 -2.06413 4.92168 0
M  V30 1912 O 170.144 -3.27751 4.66835 0
M  V30 1913 O 169.078 -1.68717 5.7777 0
M  V30 1914 H 172.904 0.157508 3.03291 0
M  V30 1915 H 170.489 0.143035 1.48714 0
M  V30 1916 H 172.371 -2.23525 3.57232 0
M  V30 1917 H 171.046 -2.19724 2.37703 0
M  V30 1918 H 169.953 -0.314299 3.72777 0
M  V30 1919 H 171.286 -0.433135 4.90291 0
M  V30 1920 N 172.938 -1.57226 0.108567 0
M  V30 1921 C 173.901 -2.13602 -0.831082 0
M  V30 1922 C 174.901 -1.06841 -1.20173 0
M  V30 1923 O 176.091 -1.32666 -1.12895 0
M  V30 1924 C 173.223 -2.66769 -2.12243 0
M  V30 1925 H 174.416 -2.97951 -0.341317 0
M  V30 1926 H 171.969 -1.55667 -0.14057 0
M  V30 1927 H 172.704 -1.85977 -2.65675 0
M  V30 1928 H 172.489 -3.44839 -1.86625 0
M  V30 1929 H 173.979 -3.10332 -2.79435 0
M  V30 1930 N 174.416 0.165178 -1.56732 0
M  V30 1931 C 175.644 0.896218 -1.86482 0
M  V30 1932 C 176.059 1.75555 -0.694675 0
M  V30 1933 O 175.416 1.79379 0.33607 0
M  V30 1934 C 175.467 1.76792 -3.1532 0
M  V30 1935 O 175.188 0.943239 -4.27825 0
M  V30 1936 C 176.689 2.6081 -3.58459 0
M  V30 1937 H 173.909 0.260064 -0.618553 0
M  V30 1938 H 176.453 0.163428 -2.03846 0
M  V30 1939 H 174.608 2.45398 -2.99764 0
M  V30 1940 H 175.022 1.53998 -5.01383 0
M  V30 1941 H 176.496 3.17579 -4.51495 0
M  V30 1942 H 176.973 3.35977 -2.82872 0
M  V30 1943 H 177.579 1.97526 -3.76648 0
M  V30 1944 N 175.894 1.51508 0.433938 0
M  V30 1945 C 176.824 1.76016 1.53429 0
M  V30 1946 C 177.805 0.610112 1.58782 0
M  V30 1947 O 178.99 0.853177 1.74455 0
M  V30 1948 C 176.12 1.88831 2.9148 0
M  V30 1949 C 175.074 3.04288 3.00987 0
M  V30 1950 C 174.4 3.0229 4.4105 0
M  V30 1951 C 175.7 4.44193 2.74754 0
M  V30 1952 H 177.394 2.68152 1.33171 0
M  V30 1953 H 174.94 1.29035 0.639214 0
M  V30 1954 H 176.893 2.04559 3.6842 0
M  V30 1955 H 175.617 0.933455 3.12976 0
M  V30 1956 H 174.276 2.8827 2.26486 0
M  V30 1957 H 173.924 2.04576 4.59519 0
M  V30 1958 H 173.624 3.79822 4.4834 0
M  V30 1959 H 175.148 3.20116 5.1996 0
M  V30 1960 H 176.562 4.60544 3.41426 0
M  V30 1961 H 174.959 5.23457 2.9345 0
M  V30 1962 H 176.029 4.53996 1.70339 0
M  V30 1963 N 177.372 -0.689602 1.41712 0
M  V30 1964 C 178.618 -1.45181 1.41599 0
M  V30 1965 C 178.951 -1.94181 0.0270081 0
M  V30 1966 O 178.226 -1.6993 -0.946265 0
M  V30 1967 C 178.509 -2.65945 2.42787 0
M  V30 1968 C 178.362 -2.22672 3.90816 0
M  V30 1969 C 179.681 -3.68149 2.41151 0
M  V30 1970 H 176.8 -0.526576 0.515642 0
M  V30 1971 H 179.442 -0.784947 1.73028 0
M  V30 1972 H 177.592 -3.2284 2.16116 0
M  V30 1973 H 179.264 -1.71058 4.28412 0
M  V30 1974 H 177.507 -1.54394 4.05395 0
M  V30 1975 H 178.178 -3.0935 4.57172 0
M  V30 1976 H 180.654 -3.2094 2.64834 0
M  V30 1977 H 179.53 -4.50248 3.13955 0
M  V30 1978 H 179.791 -4.18259 1.43221 0
M  V30 1979 N 178.85 -1.27639 -0.924453 0
M  V30 1980 C 180.08 -1.16819 -1.70402 0
M  V30 1981 C 180.488 0.277191 -1.87158 0
M  V30 1982 O 179.831 1.20025 -1.39067 0
M  V30 1983 C 179.893 -1.78305 -3.12166 0
M  V30 1984 C 179.557 -3.27502 -3.18734 0
M  V30 1985 C 180.554 -4.2409 -3.00738 0
M  V30 1986 C 178.239 -3.68269 -3.4159 0
M  V30 1987 C 180.233 -5.59422 -3.05492 0
M  V30 1988 C 177.92 -5.0373 -3.45977 0
M  V30 1989 C 178.918 -5.99116 -3.27946 0
M  V30 1990 O 178.606 -7.32108 -3.32074 0
M  V30 1991 H 178.338 -0.406931 -0.539799 0
M  V30 1992 H 180.892 -1.69078 -1.16626 0
M  V30 1993 H 179.122 -1.20528 -3.67437 0
M  V30 1994 H 180.811 -1.62154 -3.72103 0
M  V30 1995 H 181.577 -3.93931 -2.82919 0
M  V30 1996 H 177.456 -2.94496 -3.54673 0
M  V30 1997 H 181 -6.33852 -2.91337 0
M  V30 1998 H 176.897 -5.33543 -3.63321 0
M  V30 1999 H 177.665 -7.40598 -3.48507 0
M  V30 2000 N 180.328 1.1314 -1.09713 0
M  V30 2001 C 181.238 2.22242 -0.751367 0
M  V30 2002 C 182.254 1.72224 0.247938 0
M  V30 2003 O 183.43 2.01205 0.0885463 0
M  V30 2004 C 180.495 3.46231 -0.180274 0
M  V30 2005 C 179.556 4.11125 -1.2359 0
M  V30 2006 C 178.789 5.29195 -0.691966 0
M  V30 2007 O 179.012 5.68342 0.48414 0
M  V30 2008 O 177.946 5.84214 -1.44838 0
M  V30 2009 H 181.772 2.54197 -1.66186 0
M  V30 2010 H 179.357 1.21331 -0.871735 0
M  V30 2011 H 181.239 4.21185 0.134739 0
M  V30 2012 H 179.914 3.1597 0.703185 0
M  V30 2013 H 178.821 3.37985 -1.60366 0
M  V30 2014 H 180.154 4.45524 -2.09211 0
M  V30 2015 N 181.806 0.884767 1.30421 0
M  V30 2016 C 183.052 0.503851 1.96441 0
M  V30 2017 C 183.385 -0.944518 1.69684 0
M  V30 2018 O 182.66 -1.66737 1.00145 0
M  V30 2019 C 182.943 0.779085 3.51571 0
M  V30 2020 C 182.796 2.27807 3.87846 0
M  V30 2021 C 184.115 0.255452 4.39358 0
M  V30 2022 H 181.234 0.184533 0.713524 0
M  V30 2023 H 183.876 1.10872 1.54297 0
M  V30 2024 H 182.026 0.264274 3.876 0
M  V30 2025 H 183.698 2.86127 3.61841 0
M  V30 2026 H 181.941 2.74479 3.35922 0
M  V30 2027 H 182.612 2.42125 4.96064 0
M  V30 2028 H 185.088 0.696079 4.10236 0
M  V30 2029 H 183.964 0.477361 5.4682 0
M  V30 2030 H 184.225 -0.843293 4.33983 0
M  V30 2031 N 183.284 -1.43765 0.645699 0
M  V30 2032 C 184.532 -2.01499 0.155731 0
M  V30 2033 C 184.853 -1.51151 -1.232 0
M  V30 2034 O 184.123 -0.721044 -1.82148 0
M  V30 2035 H 182.703 -0.745003 0.0545817 0
M  V30 2036 H 185.365 -1.76075 0.835677 0
M  V30 2037 H 184.461 -3.1181 0.134577 0
M  V30 2038 N 184.763 -0.387143 -1.52771 0
M  V30 2039 C 185.71 0.449048 -2.26389 0
M  V30 2040 C 186.68 1.05961 -1.27912 0
M  V30 2041 O 187.865 1.08804 -1.56737 0
M  V30 2042 C 185.005 1.57155 -3.0724 0
M  V30 2043 C 184.118 0.984066 -4.20643 0
M  V30 2044 C 183.253 2.07745 -4.88892 0
M  V30 2045 C 182.292 1.46574 -5.94292 0
M  V30 2046 N 181.429 2.49834 -6.56146 0
M  V30 2047 H 186.269 -0.185205 -2.97424 0
M  V30 2048 H 183.806 -0.103164 -1.46738 0
M  V30 2049 H 185.764 2.23309 -3.52405 0
M  V30 2050 H 184.394 2.17615 -2.38419 0
M  V30 2051 H 183.446 0.212193 -3.79808 0
M  V30 2052 H 184.758 0.497029 -4.96318 0
M  V30 2053 H 183.912 2.81673 -5.3735 0
M  V30 2054 H 182.651 2.59807 -4.12737 0
M  V30 2055 H 181.656 0.711696 -5.45174 0
M  V30 2056 H 182.881 0.953088 -6.72379 0
M  V30 2057 H 180.827 3.0107 -5.82832 0
M  V30 2058 H 180.744 2.05879 -7.27427 0
M  V30 2059 H 182.012 3.23399 -7.09249 0
M  V30 2060 N 186.241 1.57166 -0.116904 0
M  V30 2061 C 187.189 2.16457 0.851418 0
M  V30 2062 C 188.183 1.11323 1.27686 0
M  V30 2063 O 189.389 1.2963 1.24884 0
M  V30 2064 H 185.764 0.69271 0.292672 0
M  V30 2065 H 187.735 2.96605 0.32685 0
M  V30 2066 C 186.484 2.77689 2.09246 0
M  V30 2067 H 185.807 3.58285 1.77402 0
M  V30 2068 H 187.247 3.22716 2.7501 0
M  V30 2069 C 185.706 1.74667 2.88085 0
M  V30 2070 O 186.236 1.19877 3.83396 0
M  V30 2071 N 184.442 1.44656 2.52038 0
M  V30 2072 H 183.989 1.89402 1.74599 0
M  V30 2073 H 183.947 0.759675 3.05084 0
M  V30 2074 N 187.719 -0.156864 1.56817 0
M  V30 2075 C 188.965 -0.867645 1.83966 0
M  V30 2076 C 189.32 -1.79233 0.699511 0
M  V30 2077 O 188.613 -1.89186 -0.303176 0
M  V30 2078 C 188.807 -1.68737 3.1506 0
M  V30 2079 C 188.636 -0.843548 4.41718 0
M  V30 2080 C 187.406 -0.512994 5.02689 0
M  V30 2081 C 189.604 -0.178416 5.1399 0
M  V30 2082 N 187.586 0.345456 6.12927 0
M  V30 2083 C 188.957 0.540586 6.17639 0
M  V30 2084 C 191.012 -0.0980696 4.97803 0
M  V30 2085 C 189.715 1.33233 7.06853 0
M  V30 2086 C 191.741 0.680387 5.87473 0
M  V30 2087 C 191.103 1.3877 6.90596 0
M  V30 2088 H 187.202 -0.295642 0.723961 0
M  V30 2089 H 189.786 -0.13365 1.94241 0
M  V30 2090 H 187.957 -2.39268 3.0595 0
M  V30 2091 H 189.689 -2.34056 3.30151 0
M  V30 2092 H 186.444 -0.846476 4.65974 0
M  V30 2093 H 186.868 0.765415 6.72659 0
M  V30 2094 H 191.51 -0.630562 4.18071 0
M  V30 2095 H 189.228 1.87612 7.8602 0
M  V30 2096 H 192.814 0.744415 5.77018 0
M  V30 2097 H 191.694 1.9804 7.58782 0
M  V30 2098 N 189.197 -1.51736 -0.425897 0
M  V30 2099 C 190.443 -1.65214 -1.1761 0
M  V30 2100 C 190.776 -0.372778 -1.90589 0
M  V30 2101 O 190.051 0.628139 -1.84078 0
M  V30 2102 C 190.334 -2.86312 -2.18398 0
M  V30 2103 C 190.187 -4.24254 -1.49426 0
M  V30 2104 C 191.506 -3.02925 -3.19256 0
M  V30 2105 H 188.625 -0.601263 -0.426206 0
M  V30 2106 H 191.267 -1.8425 -0.463882 0
M  V30 2107 H 189.417 -2.70213 -2.79137 0
M  V30 2108 H 191.089 -4.52046 -0.919362 0
M  V30 2109 H 189.332 -4.26426 -0.796432 0
M  V30 2110 H 190.003 -5.05001 -2.22885 0
M  V30 2111 H 192.479 -3.1781 -2.68581 0
M  V30 2112 H 191.355 -3.89199 -3.8706 0
M  V30 2113 H 191.616 -2.15497 -3.86023 0
M  V30 2114 N 190.675 0.682077 -1.42076 0
M  V30 2115 C 191.585 1.82535 -1.47371 0
M  V30 2116 C 192.601 1.7017 -0.363079 0
M  V30 2117 O 193.777 1.91848 -0.612875 0
M  V30 2118 C 190.842 3.18624 -1.36674 0
M  V30 2119 C 189.903 3.42999 -2.58167 0
M  V30 2120 C 189.136 4.72595 -2.4797 0
M  V30 2121 O 189.359 5.50006 -1.5116 0
M  V30 2122 O 188.293 4.98054 -3.37974 0
M  V30 2123 H 192.119 1.81023 -2.43853 0
M  V30 2124 H 189.704 0.836887 -1.2376 0
M  V30 2125 H 191.586 3.99847 -1.33043 0
M  V30 2126 H 190.261 3.20789 -0.433138 0
M  V30 2127 H 189.168 2.61653 -2.67373 0
M  V30 2128 H 190.501 3.45659 -3.50401 0
M  V30 2129 N 192.153 1.28127 0.917671 0
M  V30 2130 C 193.116 1.11744 2.00115 0
M  V30 2131 C 194.116 0.0583052 1.60694 0
M  V30 2132 O 195.306 0.303755 1.71531 0
M  V30 2133 C 192.438 0.704862 3.33533 0
M  V30 2134 H 193.631 2.07966 2.16079 0
M  V30 2135 H 191.184 1.11058 1.09981 0
M  V30 2136 H 191.919 -0.258299 3.2327 0
M  V30 2137 H 191.704 1.4699 3.63505 0
M  V30 2138 H 193.194 0.612768 4.1308 0
M  V30 2139 N 193.631 -1.12557 1.10312 0
M  V30 2140 C 194.856 -1.88405 0.867085 0
M  V30 2141 C 195.281 -1.79038 -0.576817 0
M  V30 2142 O 194.639 -1.14439 -1.40618 0
M  V30 2143 C 194.687 -3.3563 1.31851 0
M  V30 2144 O 193.791 -4.09565 0.482734 0
M  V30 2145 H 193.132 -0.585455 0.313271 0
M  V30 2146 H 195.662 -1.42352 1.4696 0
M  V30 2147 H 195.672 -3.86469 1.3079 0
M  V30 2148 H 194.347 -3.41765 2.37001 0
M  V30 2149 H 192.924 -3.68695 0.558448 0
M  V30 2150 N 195.109 -0.891671 -1.2995 0
M  V30 2151 C 196.072 -0.36828 -2.26222 0
M  V30 2152 C 197.072 0.493014 -1.53056 0
M  V30 2153 O 198.262 0.299213 -1.71611 0
M  V30 2154 C 195.394 0.47442 -3.37583 0
M  V30 2155 H 196.587 -1.21844 -2.74033 0
M  V30 2156 H 194.14 -0.669107 -1.41254 0
M  V30 2157 H 194.875 1.34489 -2.95099 0
M  V30 2158 H 194.66 -0.142615 -3.91841 0
M  V30 2159 H 196.15 0.83218 -4.09224 0
M  V30 2160 N 196.587 1.43421 -0.653314 0
M  V30 2161 C 197.864 1.95361 -0.0966581 0
M  V30 2162 C 198.244 1.59461 1.38331 0
M  V30 2163 O 197.592 0.879777 2.10884 0
M  V30 2164 C 197.802 3.47311 -0.342988 0
M  V30 2165 C 199.15 4.23875 -0.24798 0
M  V30 2166 O 200.174 3.55133 -0.275553 0
M  V30 2167 O 199.033 5.4623 -0.171771 0
M  V30 2168 H 196.127 0.826945 0.00956291 0
M  V30 2169 H 198.673 1.5336 -0.726558 0
M  V30 2170 H 197.445 3.66569 -1.36906 0
M  V30 2171 H 197.068 3.9631 0.319975 0
M  V30 2172 N 198.065 0.39524 1.52563 0
M  V30 2173 C 199.311 -0.185318 2.01952 0
M  V30 2174 C 199.644 -1.45964 1.28095 0
M  V30 2175 O 198.919 -1.90689 0.38315 0
M  V30 2176 C 199.202 -0.447193 3.57312 0
M  V30 2177 C 199.055 0.842828 4.41833 0
M  V30 2178 C 200.374 -1.23529 4.22408 0
M  V30 2179 H 197.493 -0.0658788 0.73405 0
M  V30 2180 H 200.135 0.525975 1.82575 0
M  V30 2181 H 198.285 -1.05312 3.73954 0
M  V30 2182 H 199.957 1.4795 4.36931 0
M  V30 2183 H 198.2 1.45686 4.08605 0
M  V30 2184 H 198.871 0.614165 5.48573 0
M  V30 2185 H 201.347 -0.722445 4.0978 0
M  V30 2186 H 200.223 -1.38727 5.3108 0
M  V30 2187 H 200.484 -2.25213 3.80436 0
M  V30 2188 N 199.544 -1.57102 0.125237 0
M  V30 2189 C 200.507 -2.14471 -0.80838 0
M  V30 2190 C 201.507 -1.0811 -1.19033 0
M  V30 2191 O 202.697 -1.33856 -1.11482 0
M  V30 2192 C 199.829 -2.69005 -2.09402 0
M  V30 2193 H 201.022 -2.98297 -0.309696 0
M  V30 2194 H 198.575 -1.55807 -0.124051 0
M  V30 2195 H 199.31 -1.88785 -2.63687 0
M  V30 2196 H 199.095 -3.46799 -1.82957 0
M  V30 2197 H 200.585 -3.13278 -2.76128 0
M  V30 2198 N 201.022 0.148545 -1.56898 0
M  V30 2199 C 201.932 1.20293 -2.01412 0
M  V30 2200 C 202.948 1.47107 -0.929273 0
M  V30 2201 O 204.124 1.58807 -1.23863 0
M  V30 2202 C 201.189 2.51682 -2.38447 0
M  V30 2203 C 200.25 2.32529 -3.60872 0
M  V30 2204 C 199.483 3.57653 -3.96132 0
M  V30 2205 O 199.706 4.63771 -3.32073 0
M  V30 2206 O 198.64 3.50408 -4.89385 0
M  V30 2207 H 202.466 0.855025 -2.91416 0
M  V30 2208 H 200.051 0.357151 -1.45068 0
M  V30 2209 H 201.933 3.29147 -2.63135 0
M  V30 2210 H 200.608 2.86006 -1.51599 0
M  V30 2211 H 199.515 1.53019 -3.41373 0
M  V30 2212 H 200.848 2.03121 -4.48333 0
M  V30 2213 N 202.5 1.5196 0.417844 0
M  V30 2214 C 203.463 1.74065 1.49111 0
M  V30 2215 C 204.463 0.610537 1.48758 0
M  V30 2216 O 205.653 0.87832 1.50437 0
M  V30 2217 C 202.785 1.81502 2.88565 0
M  V30 2218 H 203.978 2.69869 1.30807 0
M  V30 2219 H 201.531 1.42244 0.647785 0
M  V30 2220 H 202.266 0.875813 3.1225 0
M  V30 2221 H 202.051 2.63651 2.90225 0
M  V30 2222 H 203.541 2.00376 3.66387 0
M  V30 2223 N 203.978 -0.674533 1.42435 0
M  V30 2224 C 205.227 -1.43034 1.42212 0
M  V30 2225 C 205.54 -1.95555 0.0420788 0
M  V30 2226 O 206.746 -2.71374 -0.0827558 0
M  V30 2227 C 205.202 -2.58748 2.50155 0
M  V30 2228 C 204.81 -2.12925 3.94166 0
M  V30 2229 C 206.554 -3.36257 2.59098 0
M  V30 2230 C 204.461 -3.25723 4.93618 0
M  V30 2231 H 203.391 -0.537345 0.528939 0
M  V30 2232 H 206.042 -0.73024 1.68344 0
M  V30 2233 H 204.424 -3.31128 2.17188 0
M  V30 2234 H 205.598 -1.47697 4.36488 0
M  V30 2235 H 203.913 -1.48354 3.89076 0
M  V30 2236 H 206.51 -4.20264 3.30578 0
M  V30 2237 H 206.853 -3.82866 1.63461 0
M  V30 2238 H 207.386 -2.70947 2.9126 0
M  V30 2239 H 204.125 -2.84105 5.90732 0
M  V30 2240 H 203.645 -3.89732 4.55926 0
M  V30 2241 H 205.324 -3.91186 5.15347 0
M  V30 2242 N 205.456 -1.28612 -0.910864 0
M  V30 2243 C 206.733 -1.06632 -1.63979 0
M  V30 2244 C 207.113 0.393351 -2.07403 0
M  V30 2245 O 206.461 1.37999 -1.82122 0
M  V30 2246 C 206.671 -2.0436 -2.8291 0
M  V30 2247 C 208.019 -2.34666 -3.5386 0
M  V30 2248 O 209.043 -2.02467 -2.93062 0
M  V30 2249 O 207.902 -2.89631 -4.63439 0
M  V30 2250 H 204.996 -0.407737 -0.7195 0
M  V30 2251 H 207.542 -1.39942 -0.959914 0
M  V30 2252 H 206.314 -3.02727 -2.47936 0
M  V30 2253 H 205.937 -1.71714 -3.58609 0
M  V30 2254 N 206.934 1.1197 -1.10907 0
M  V30 2255 C 208.181 1.83588 -0.854507 0
M  V30 2256 C 208.509 1.84357 0.6199 0
M  V30 2257 O 207.764 1.28809 1.47332 0
M  V30 2258 C 208.063 3.30749 -1.35425 0
M  V30 2259 C 207.729 3.50146 -2.84093 0
M  V30 2260 C 206.391 3.55148 -3.2469 0
M  V30 2261 C 208.743 3.56857 -3.79872 0
M  V30 2262 C 206.071 3.6441 -4.59806 0
M  V30 2263 C 208.423 3.6765 -5.14797 0
M  V30 2264 C 207.087 3.7091 -5.54961 0
M  V30 2265 H 206.357 0.671795 -0.312686 0
M  V30 2266 H 209.004 1.32091 -1.38652 0
M  V30 2267 H 207.309 3.84703 -0.742361 0
M  V30 2268 H 209.006 3.8464 -1.1337 0
M  V30 2269 H 205.596 3.46919 -2.51685 0
M  V30 2270 H 209.78 3.52258 -3.49611 0
M  V30 2271 H 205.036 3.65208 -4.9034 0
M  V30 2272 H 209.21 3.71786 -5.88853 0
M  V30 2273 H 206.837 3.7784 -6.59652 0
M  V30 2274 N 208.412 0.89855 1.29475 0
M  V30 2275 C 209.661 0.519863 1.94885 0
M  V30 2276 C 209.974 -0.9383 1.71625 0
M  V30 2277 O 211.18 -1.42445 2.31131 0
M  V30 2278 C 209.636 0.878836 3.49005 0
M  V30 2279 C 209.244 2.35569 3.81066 0
M  V30 2280 C 210.988 0.570004 4.20656 0
M  V30 2281 C 208.895 2.65558 5.28425 0
M  V30 2282 H 207.825 0.190692 0.729488 0
M  V30 2283 H 210.476 1.09539 1.47219 0
M  V30 2284 H 208.858 0.232253 3.95318 0
M  V30 2285 H 210.032 3.04773 3.45616 0
M  V30 2286 H 208.347 2.63343 3.22552 0
M  V30 2287 H 210.944 0.770925 5.29113 0
M  V30 2288 H 211.287 -0.491404 4.1339 0
M  V30 2289 H 211.82 1.17438 3.8007 0
M  V30 2290 H 208.559 3.70493 5.40754 0
M  V30 2291 H 208.079 2.00977 5.65127 0
M  V30 2292 H 209.758 2.51765 5.96006 0
M  V30 2293 N 209.89 -1.43072 0.660911 0
M  V30 2294 C 210.8 -2.34585 -0.0264163 0
M  V30 2295 C 211.816 -1.54316 -0.803898 0
M  V30 2296 O 212.992 -1.86939 -0.749391 0
M  V30 2297 C 210.057 -3.32689 -0.975639 0
M  V30 2298 C 209.118 -4.2886 -0.194236 0
M  V30 2299 C 208.351 -5.22278 -1.09825 0
M  V30 2300 O 208.574 -5.20299 -2.33763 0
M  V30 2301 O 207.508 -5.99228 -0.566513 0
M  V30 2302 H 211.334 -2.94869 0.727034 0
M  V30 2303 H 208.919 -1.43342 0.42111 0
M  V30 2304 H 210.801 -3.92995 -1.52094 0
M  V30 2305 H 209.476 -2.74898 -1.70918 0
M  V30 2306 H 208.383 -3.72011 0.394835 0
M  V30 2307 H 209.716 -4.89655 0.499899 0
M  V30 2308 N 211.368 -0.403325 -1.52352 0
M  V30 2309 C 212.598 0.17376 -2.05868 0
M  V30 2310 C 213.006 1.39898 -1.27378 0
M  V30 2311 O 212.349 1.80939 -0.31729 0
M  V30 2312 C 212.411 0.594756 -3.54546 0
M  V30 2313 C 212.075 -0.518926 -4.54044 0
M  V30 2314 C 213.072 -1.3807 -5.01231 0
M  V30 2315 C 210.757 -0.689961 -4.97539 0
M  V30 2316 C 212.751 -2.39852 -5.90551 0
M  V30 2317 C 210.438 -1.71109 -5.86656 0
M  V30 2318 C 211.436 -2.56378 -6.33056 0
M  V30 2319 O 211.124 -3.56743 -7.20409 0
M  V30 2320 H 210.856 0.0264951 -0.675481 0
M  V30 2321 H 213.41 -0.571179 -1.97299 0
M  V30 2322 H 211.64 1.39189 -3.60782 0
M  V30 2323 H 213.329 1.0991 -3.90736 0
M  V30 2324 H 214.095 -1.25994 -4.68349 0
M  V30 2325 H 209.974 -0.035939 -4.60986 0
M  V30 2326 H 213.518 -3.06441 -6.26689 0
M  V30 2327 H 209.415 -1.83218 -6.18952 0
M  V30 2328 H 210.183 -3.52918 -7.38506 0
M  V30 2329 N 212.846 1.57033 -0.133567 0
M  V30 2330 C 214.076 1.99754 0.527429 0
M  V30 2331 C 214.484 1.01245 1.59832 0
M  V30 2332 O 213.827 -0.000645496 1.837 0
M  V30 2333 C 213.889 3.38903 1.19939 0
M  V30 2334 C 213.553 4.56174 0.274709 0
M  V30 2335 C 214.55 5.17563 -0.492398 0
M  V30 2336 C 212.235 5.01972 0.18153 0
M  V30 2337 C 214.229 6.2315 -1.34027 0
M  V30 2338 C 211.916 6.07416 -0.669958 0
M  V30 2339 C 212.914 6.67874 -1.42947 0
M  V30 2340 O 212.602 7.71279 -2.2668 0
M  V30 2341 H 212.334 0.660702 0.142999 0
M  V30 2342 H 214.888 2.04207 -0.221099 0
M  V30 2343 H 213.118 3.31248 1.99528 0
M  V30 2344 H 214.807 3.65818 1.75875 0
M  V30 2345 H 215.573 4.83087 -0.430367 0
M  V30 2346 H 211.452 4.54652 0.762422 0
M  V30 2347 H 214.996 6.70268 -1.93357 0
M  V30 2348 H 210.893 6.41321 -0.73333 0
M  V30 2349 H 211.661 7.88441 -2.1978 0
M  V30 2350 N 214.325 -0.140222 1.56975 0
M  V30 2351 C 215.288 -1.15689 1.97861 0
M  V30 2352 C 216.288 -1.3549 0.865974 0
M  V30 2353 O 217.478 -1.32367 1.13246 0
M  V30 2354 C 214.61 -2.51582 2.30042 0
M  V30 2355 H 215.803 -0.805971 2.88867 0
M  V30 2356 H 213.356 -0.383801 1.51515 0
M  V30 2357 H 214.091 -2.91632 1.41849 0
M  V30 2358 H 213.876 -2.38569 3.11171 0
M  V30 2359 H 215.366 -3.24792 2.62488 0
M  V30 2360 N 215.803 -1.52179 -0.40978 0
M  V30 2361 C 217.219 -1.40968 -0.74835 0
M  V30 2362 C 217.419 -0.513657 -1.94843 0
M  V30 2363 O 216.475 0.0208026 -2.52491 0
M  V30 2364 C 217.788 -2.83483 -1.0029 0
M  V30 2365 C 219.336 -2.92821 -1.10565 0
M  V30 2366 C 219.811 -4.36303 -1.39296 0
M  V30 2367 N 221.302 -4.39535 -1.46162 0
M  V30 2368 C 222.037 -5.47614 -1.70018 0
M  V30 2369 N 221.533 -6.65812 -1.91483 0
M  V30 2370 N 223.326 -5.35129 -1.72027 0
M  V30 2371 H 215.477 -2.0897 0.380186 0
M  V30 2372 H 217.74 -0.94185 0.107805 0
M  V30 2373 H 217.446 -3.51168 -0.193461 0
M  V30 2374 H 217.32 -3.24487 -1.92323 0
M  V30 2375 H 219.707 -2.25318 -1.90568 0
M  V30 2376 H 219.788 -2.55276 -0.16369 0
M  V30 2377 H 219.432 -5.04366 -0.598109 0
M  V30 2378 H 219.362 -4.71385 -2.34743 0
M  V30 2379 H 221.853 -3.54332 -1.31367 0
M  V30 2380 H 222.166 -7.43964 -2.09134 0
M  V30 2381 H 220.511 -6.68879 -1.88749 0
M  V30 2382 H 223.702 -4.41764 -1.54796 0
M  V30 2383 H 223.875 -6.19433 -1.9028 0
M  V30 2384 N 217.281 0.66697 -1.42791 0
M  V30 2385 C 218.244 1.76211 -1.46568 0
M  V30 2386 C 219.244 1.56896 -0.352196 0
M  V30 2387 O 220.434 1.63044 -0.613364 0
M  V30 2388 C 217.566 3.14935 -1.30494 0
M  V30 2389 H 218.759 1.74247 -2.44086 0
M  V30 2390 H 216.312 0.877342 -1.29354 0
M  V30 2391 H 217.047 3.2252 -0.339301 0
M  V30 2392 H 216.832 3.30359 -2.11199 0
M  V30 2393 H 218.322 3.94821 -1.36038 0
M  V30 2394 N 218.759 1.29093 0.90403 0
M  V30 2395 C 219.722 1.1386 1.98919 0
M  V30 2396 C 220.722 0.0753457 1.60623 0
M  V30 2397 O 221.912 0.321931 1.71199 0
M  V30 2398 C 219.044 0.740198 3.32767 0
M  V30 2399 H 220.237 2.10246 2.13861 0
M  V30 2400 H 217.79 1.12218 1.08797 0
M  V30 2401 H 218.525 -0.223997 3.23525 0
M  V30 2402 H 218.31 1.50838 3.61926 0
M  V30 2403 H 219.8 0.656546 4.12407 0
M  V30 2404 N 220.237 -1.11381 1.11499 0
M  V30 2405 C 221.167 -2.19509 0.796125 0
M  V30 2406 C 222.148 -1.68458 -0.235796 0
M  V30 2407 O 223.333 -1.93947 -0.0991344 0
M  V30 2408 C 220.463 -3.46475 0.239205 0
M  V30 2409 C 219.417 -4.10744 1.20307 0
M  V30 2410 C 218.743 -5.32293 0.50683 0
M  V30 2411 C 220.043 -4.55597 2.55399 0
M  V30 2412 H 221.737 -2.46439 1.70024 0
M  V30 2413 H 219.283 -1.18446 0.818935 0
M  V30 2414 H 221.236 -4.214 0.00392006 0
M  V30 2415 H 219.96 -3.19006 -0.700206 0
M  V30 2416 H 218.619 -3.37813 1.42399 0
M  V30 2417 H 218.267 -5.01095 -0.437408 0
M  V30 2418 H 217.967 -5.76243 1.1497 0
M  V30 2419 H 219.491 -6.09956 0.280351 0
M  V30 2420 H 220.905 -5.21841 2.37391 0
M  V30 2421 H 219.302 -5.10363 3.15673 0
M  V30 2422 H 220.372 -3.69013 3.14575 0
M  V30 2423 N 221.715 -0.905404 -1.28997 0
M  V30 2424 C 223.131 -0.60233 -1.47798 0
M  V30 2425 C 223.331 0.854645 -1.82478 0
M  V30 2426 O 222.387 1.63439 -1.92468 0
M  V30 2427 C 223.7 -1.53306 -2.58685 0
M  V30 2428 C 225.248 -1.53887 -2.72558 0
M  V30 2429 C 225.723 -2.45602 -3.86579 0
M  V30 2430 N 227.214 -2.43681 -3.93921 0
M  V30 2431 C 227.949 -3.11347 -4.81509 0
M  V30 2432 N 227.445 -3.88313 -5.73746 0
M  V30 2433 N 229.238 -3.00476 -4.75048 0
M  V30 2434 H 221.389 -1.84765 -1.04764 0
M  V30 2435 H 223.652 -0.792025 -0.520961 0
M  V30 2436 H 223.358 -2.57141 -2.39941 0
M  V30 2437 H 223.232 -1.25787 -3.55609 0
M  V30 2438 H 225.619 -0.507941 -2.90696 0
M  V30 2439 H 225.7 -1.85447 -1.76191 0
M  V30 2440 H 225.344 -3.48792 -3.69197 0
M  V30 2441 H 225.274 -2.11349 -4.82327 0
M  V30 2442 H 227.765 -1.87767 -3.27951 0
M  V30 2443 H 228.078 -4.36985 -6.37389 0
M  V30 2444 H 226.423 -3.92419 -5.73614 0
M  V30 2445 H 229.614 -2.39858 -4.01977 0
M  V30 2446 H 229.787 -3.53485 -5.43095 0
M  V30 2447 N 223.193 1.4272 -0.668489 0
M  V30 2448 C 224.423 2.05668 -0.196063 0
M  V30 2449 C 224.831 1.5028 1.14946 0
M  V30 2450 O 224.174 0.6348 1.72383 0
M  V30 2451 C 224.236 3.59469 -0.0468879 0
M  V30 2452 C 223.9 4.37518 -1.32012 0
M  V30 2453 C 224.897 4.68584 -2.25222 0
M  V30 2454 C 222.582 4.77266 -1.56596 0
M  V30 2455 C 224.576 5.38326 -3.41297 0
M  V30 2456 C 222.263 5.4675 -2.72962 0
M  V30 2457 C 223.261 5.77204 -3.65137 0
M  V30 2458 O 222.949 6.45264 -4.79468 0
M  V30 2459 H 222.681 0.669382 -0.0943599 0
M  V30 2460 H 225.235 1.83954 -0.913788 0
M  V30 2461 H 223.465 3.79817 0.726357 0
M  V30 2462 H 225.154 4.04071 0.384852 0
M  V30 2463 H 225.92 4.38382 -2.07477 0
M  V30 2464 H 221.799 4.52959 -0.857249 0
M  V30 2465 H 225.343 5.62014 -4.13263 0
M  V30 2466 H 221.24 5.76369 -2.90635 0
M  V30 2467 H 222.008 6.63753 -4.78931 0
M  V30 2468 N 224.671 0.411399 1.52136 0
M  V30 2469 C 226.087 0.0623865 1.59478 0
M  V30 2470 C 226.287 -1.42554 1.4241 0
M  V30 2471 O 225.343 -2.19263 1.2522 0
M  V30 2472 C 226.656 0.559331 2.95452 0
M  V30 2473 C 228.204 0.517503 3.08692 0
M  V30 2474 C 228.679 0.990994 4.4715 0
M  V30 2475 N 230.17 0.947908 4.53397 0
M  V30 2476 C 230.905 1.28544 5.58806 0
M  V30 2477 N 230.401 1.69454 6.71757 0
M  V30 2478 N 232.194 1.20526 5.49026 0
M  V30 2479 H 224.345 1.37982 1.61477 0
M  V30 2480 H 226.608 0.566977 0.759764 0
M  V30 2481 H 226.314 1.59938 3.1323 0
M  V30 2482 H 226.188 -0.0298014 3.77188 0
M  V30 2483 H 228.575 -0.513505 2.90598 0
M  V30 2484 H 228.656 1.14272 2.28857 0
M  V30 2485 H 228.3 2.02034 4.65988 0
M  V30 2486 H 228.23 0.34257 5.25485 0
M  V30 2487 H 230.721 0.647157 3.72317 0
M  V30 2488 H 231.034 1.93513 7.48179 0
M  V30 2489 H 229.379 1.73359 6.73032 0
M  V30 2490 H 232.57 0.884505 4.59667 0
M  V30 2491 H 232.743 1.47161 6.31069 0
M  V30 2492 N 226.149 -1.5696 0.141893 0
M  V30 2493 C 227.379 -2.00031 -0.516828 0
M  V30 2494 C 227.787 -1.02091 -1.59293 0
M  V30 2495 O 227.13 -0.00909657 -1.83698 0
M  V30 2496 C 227.192 -3.39534 -1.1814 0
M  V30 2497 C 226.856 -4.56313 -0.250513 0
M  V30 2498 C 227.853 -5.17295 0.519839 0
M  V30 2499 C 225.538 -5.02061 -0.154907 0
M  V30 2500 C 227.532 -6.2243 1.3733 0
M  V30 2501 C 225.219 -6.07053 0.702161 0
M  V30 2502 C 226.217 -6.67106 1.46487 0
M  V30 2503 O 225.905 -7.70066 2.30767 0
M  V30 2504 H 225.637 -0.661451 -0.139493 0
M  V30 2505 H 228.191 -2.04086 0.231926 0
M  V30 2506 H 226.421 -3.32302 -1.97769 0
M  V30 2507 H 228.11 -3.66745 -1.73933 0
M  V30 2508 H 228.876 -4.82852 0.45598 0
M  V30 2509 H 224.755 -4.5505 -0.7383 0
M  V30 2510 H 228.299 -6.69233 1.96909 0
M  V30 2511 H 224.196 -6.40923 0.76733 0
M  V30 2512 H 224.964 -7.87264 2.23959 0
M  V30 2513 N 227.627 0.131896 -1.57047 0
M  V30 2514 C 229.038 0.690407 -1.73465 0
M  V30 2515 C 229.389 1.8094 -0.758629 0
M  V30 2516 O 228.514 2.16282 0.0713813 0
M  V30 2517 C 229.109 1.25916 -3.14532 0
M  V30 2518 C 227.668 1.76409 -3.32501 0
M  V30 2519 C 226.815 0.658579 -2.69366 0
M  V30 2520 H 229.766 -0.0939144 -1.58422 0
M  V30 2521 H 229.787 2.12892 -3.15369 0
M  V30 2522 H 229.299 0.444515 -3.85546 0
M  V30 2523 H 227.4 2.60391 -2.66509 0
M  V30 2524 H 227.513 1.88241 -4.4057 0
M  V30 2525 H 225.877 1.08899 -2.30246 0
M  V30 2526 H 226.66 -0.14487 -3.42994 0
M  V30 2527 N 229.106 1.52395 0.401703 0
M  V30 2528 C 230.069 1.75636 1.47257 0
M  V30 2529 C 231.069 0.62628 1.48103 0
M  V30 2530 O 232.259 0.894227 1.49497 0
M  V30 2531 C 229.391 1.84553 2.86624 0
M  V30 2532 H 230.584 2.71241 1.27938 0
M  V30 2533 H 228.137 1.42923 0.632662 0
M  V30 2534 H 228.872 0.908882 3.11303 0
M  V30 2535 H 228.657 2.66715 2.87412 0
M  V30 2536 H 230.147 2.04251 3.64241 0
M  V30 2537 N 230.584 -0.659388 1.43143 0
M  V30 2538 C 231.83 -1.42145 1.44647 0
M  V30 2539 C 232.163 -1.9408 0.0681907 0
M  V30 2540 O 231.438 -1.71899 -0.910007 0
M  V30 2541 C 231.721 -2.60735 2.48373 0
M  V30 2542 C 231.574 -2.14332 3.95451 0
M  V30 2543 C 232.893 -3.62951 2.48906 0
M  V30 2544 H 230.012 -0.51552 0.526696 0
M  V30 2545 H 232.654 -0.748069 1.74654 0
M  V30 2546 H 230.804 -3.18184 2.22916 0
M  V30 2547 H 232.476 -1.61932 4.31944 0
M  V30 2548 H 230.719 -1.4576 4.08578 0
M  V30 2549 H 231.39 -2.99583 4.63631 0
M  V30 2550 H 233.866 -3.1525 2.71582 0
M  V30 2551 H 232.742 -4.43487 3.23435 0
M  V30 2552 H 233.003 -4.15126 1.52061 0
M  V30 2553 N 232.062 -1.29571 -0.897171 0
M  V30 2554 C 232.972 -1.16808 -2.03453 0
M  V30 2555 C 233.988 -0.0907471 -1.73763 0
M  V30 2556 O 235.164 -0.303312 -1.99103 0
M  V30 2557 C 232.229 -0.848264 -3.36163 0
M  V30 2558 C 231.29 -2.0097 -3.79354 0
M  V30 2559 C 230.523 -1.70505 -5.05731 0
M  V30 2560 O 230.746 -0.62718 -5.66941 0
M  V30 2561 O 229.68 -2.5538 -5.45036 0
M  V30 2562 H 233.506 -2.12325 -2.17144 0
M  V30 2563 H 231.091 -1.09047 -1.02123 0
M  V30 2564 H 232.973 -0.684581 -4.15802 0
M  V30 2565 H 231.648 0.0771071 -3.23608 0
M  V30 2566 H 230.555 -2.22863 -3.00471 0
M  V30 2567 H 231.888 -2.91636 -3.96496 0
M  V30 2568 N 233.54 1.10788 -1.12088 0
M  V30 2569 C 234.786 1.82942 -0.875226 0
M  V30 2570 C 235.119 1.84779 0.597538 0
M  V30 2571 O 234.394 1.30578 1.44152 0
M  V30 2572 C 234.677 3.29789 -1.44606 0
M  V30 2573 C 234.53 3.36307 -2.98693 0
M  V30 2574 C 235.849 4.26064 -1.10261 0
M  V30 2575 H 232.968 0.664195 -0.319397 0
M  V30 2576 H 235.61 1.29867 -1.38689 0
M  V30 2577 H 233.76 3.75118 -1.01089 0
M  V30 2578 H 235.432 2.99487 -3.50864 0
M  V30 2579 H 233.675 2.76318 -3.34411 0
M  V30 2580 H 234.346 4.39694 -3.33726 0
M  V30 2581 H 236.822 3.88951 -1.4784 0
M  V30 2582 H 235.698 5.27183 -1.52869 0
M  V30 2583 H 235.959 4.42098 -0.0142953 0
M  V30 2584 N 235.018 0.912232 1.28515 0
M  V30 2585 C 236.264 0.545405 1.95328 0
M  V30 2586 C 236.597 -0.908313 1.71649 0
M  V30 2587 O 235.872 -1.64575 1.03659 0
M  V30 2588 C 236.155 0.853483 3.4984 0
M  V30 2589 C 236.008 2.35982 3.82926 0
M  V30 2590 C 237.327 0.348589 4.38717 0
M  V30 2591 H 234.446 0.199626 0.709449 0
M  V30 2592 H 237.088 1.1412 1.5191 0
M  V30 2593 H 235.238 0.34643 3.86952 0
M  V30 2594 H 236.91 2.93738 3.55691 0
M  V30 2595 H 235.153 2.81543 3.30024 0
M  V30 2596 H 235.824 2.52593 4.90816 0
M  V30 2597 H 238.3 0.78294 4.08668 0
M  V30 2598 H 237.176 0.593242 5.45685 0
M  V30 2599 H 237.437 -0.751049 4.35674 0
M  V30 2600 N 236.496 -1.42363 0.676048 0
M  V30 2601 C 237.907 -1.84649 0.275948 0
M  V30 2602 C 238.258 -1.56588 -1.18214 0
M  V30 2603 O 237.383 -1.02634 -1.90513 0
M  V30 2604 C 237.978 -3.35178 0.494053 0
M  V30 2605 C 236.537 -3.76109 0.148061 0
M  V30 2606 C 235.684 -2.65931 0.785891 0
M  V30 2607 H 238.635 -1.32192 0.878121 0
M  V30 2608 H 238.656 -3.79655 -0.25343 0
M  V30 2609 H 238.168 -3.55571 1.55535 0
M  V30 2610 H 236.269 -3.61323 -0.909742 0
M  V30 2611 H 236.382 -4.7546 0.589454 0
M  V30 2612 H 234.746 -2.53773 0.217113 0
M  V30 2613 H 235.529 -2.89146 1.85067 0
M  V30 2614 N 237.974 -0.419461 -1.51915 0
M  V30 2615 C 239.204 0.151915 -2.06041 0
M  V30 2616 C 239.612 1.38539 -1.28855 0
M  V30 2617 O 238.955 1.80592 -0.336463 0
M  V30 2618 C 239.017 0.557119 -3.55157 0
M  V30 2619 C 238.681 -0.567054 -4.53468 0
M  V30 2620 C 239.678 -1.43379 -4.99738 0
M  V30 2621 C 237.363 -0.742693 -4.96779 0
M  V30 2622 C 239.357 -2.46102 -5.87973 0
M  V30 2623 C 237.044 -1.77322 -5.84808 0
M  V30 2624 C 238.042 -2.63078 -6.30301 0
M  V30 2625 O 237.73 -3.64364 -7.16585 0
M  V30 2626 H 237.462 0.0193293 -0.675724 0
M  V30 2627 H 240.016 -0.592073 -1.96682 0
M  V30 2628 H 238.246 1.35355 -3.62238 0
M  V30 2629 H 239.935 1.05759 -3.9188 0
M  V30 2630 H 240.701 -1.30954 -4.66986 0
M  V30 2631 H 236.58 -0.0848307 -4.60922 0
M  V30 2632 H 240.124 -3.13071 -6.23404 0
M  V30 2633 H 236.021 -1.89773 -6.16974 0
M  V30 2634 H 236.789 -3.60731 -7.34721 0
M  V30 2635 N 239.452 1.56882 -0.150215 0
M  V30 2636 C 240.863 1.82995 0.370076 0
M  V30 2637 C 241.214 1.06907 1.64515 0
M  V30 2638 O 240.339 0.315369 2.1409 0
M  V30 2639 C 240.934 3.31942 0.678208 0
M  V30 2640 C 239.493 3.58625 1.14301 0
M  V30 2641 C 238.64 2.76792 0.167778 0
M  V30 2642 H 241.591 1.54209 -0.374858 0
M  V30 2643 H 241.612 3.48272 1.53254 0
M  V30 2644 H 241.124 3.87294 -0.249991 0
M  V30 2645 H 239.225 3.08664 2.08704 0
M  V30 2646 H 239.338 4.67073 1.06676 0
M  V30 2647 H 237.702 2.45972 0.661037 0
M  V30 2648 H 238.485 3.34916 -0.754069 0
M  V30 2649 N 240.93 -0.123565 1.57115 0
M  V30 2650 C 242.178 -0.83051 1.84247 0
M  V30 2651 C 242.499 -1.80629 0.73471 0
M  V30 2652 O 241.769 -1.94403 -0.241688 0
M  V30 2653 H 240.349 -0.309694 0.679778 0
M  V30 2654 H 243.011 -0.111976 1.94578 0
M  V30 2655 H 242.107 -1.37852 2.80006 0
M  V30 2656 N 242.408 -1.52605 -0.393616 0
M  V30 2657 C 243.318 -1.79971 -1.50492 0
M  V30 2658 C 244.334 -0.686181 -1.59899 0
M  V30 2659 O 245.51 -0.973274 -1.76322 0
M  V30 2660 C 242.575 -1.95867 -2.86072 0
M  V30 2661 C 241.636 -3.19781 -2.86424 0
M  V30 2662 C 240.869 -3.34909 -4.15538 0
M  V30 2663 O 241.092 -2.54948 -5.10253 0
M  V30 2664 O 240.026 -4.28141 -4.23059 0
M  V30 2665 H 243.852 -2.74328 -1.30299 0
M  V30 2666 H 241.437 -1.3764 -0.581005 0
M  V30 2667 H 243.319 -2.08056 -3.66457 0
M  V30 2668 H 241.994 -1.04699 -3.063 0
M  V30 2669 H 240.901 -3.13038 -2.04837 0
M  V30 2670 H 242.234 -4.1078 -2.71147 0
M  V30 2671 N 243.887 0.651787 -1.4349 0
M  V30 2672 C 245.164 1.40909 -1.35661 0
M  V30 2673 C 245.544 2.11099 -0.00511733 0
M  V30 2674 O 244.892 2.04892 1.0115 0
M  V30 2675 C 245.102 2.3926 -2.54078 0
M  V30 2676 C 246.45 3.03217 -2.97228 0
M  V30 2677 O 247.474 2.49588 -2.54135 0
M  V30 2678 O 246.333 4.00455 -3.71885 0
M  V30 2679 H 243.427 0.629625 -0.536191 0
M  V30 2680 H 245.973 0.678575 -1.55542 0
M  V30 2681 H 244.745 1.86352 -3.44076 0
M  V30 2682 H 244.368 3.1976 -2.36303 0
M  V30 2683 N 245.365 1.30045 0.890287 0
M  V30 2684 C 246.313 1.15873 2.01683 0
M  V30 2685 C 247.307 0.0719403 1.69247 0
M  V30 2686 O 248.513 0.232414 1.78493 0
M  V30 2687 H 244.888 0.358203 0.661207 0
M  V30 2688 H 246.859 2.11229 2.10772 0
M  V30 2689 C 245.608 0.861842 3.36849 0
M  V30 2690 H 244.931 1.69016 3.62317 0
M  V30 2691 H 246.371 0.802762 4.16331 0
M  V30 2692 C 244.83 -0.435132 3.34078 0
M  V30 2693 O 245.36 -1.4583 3.74295 0
M  V30 2694 N 243.566 -0.444377 2.87182 0
M  V30 2695 H 243.113 0.388723 2.5465 0
M  V30 2696 H 243.071 -1.31213 2.85711 0
M  V30 2697 N 246.843 -1.10192 1.12674 0
M  V30 2698 C 247.753 -2.20172 0.810026 0
M  V30 2699 C 248.769 -1.72821 -0.202188 0
M  V30 2700 O 249.945 -2.01369 -0.0351691 0
M  V30 2701 C 247.01 -3.45631 0.272007 0
M  V30 2702 C 246.071 -4.07704 1.34447 0
M  V30 2703 C 245.304 -5.27175 0.832029 0
M  V30 2704 O 245.527 -5.69425 -0.333284 0
M  V30 2705 O 244.461 -5.80168 1.60277 0
M  V30 2706 H 248.287 -2.49701 1.72867 0
M  V30 2707 H 245.872 -1.18977 0.903597 0
M  V30 2708 H 247.754 -4.21394 -0.0230219 0
M  V30 2709 H 246.429 -3.17723 -0.619164 0
M  V30 2710 H 245.336 -3.33614 1.6927 0
M  V30 2711 H 246.669 -4.3982 2.2095 0
M  V30 2712 N 248.321 -0.919034 -1.28029 0
M  V30 2713 C 249.546 -0.570357 -1.99403 0
M  V30 2714 C 249.971 0.842486 -1.68178 0
M  V30 2715 O 249.329 1.56391 -0.917141 0
M  V30 2716 C 249.377 -0.792541 -3.51783 0
M  V30 2717 O 248.481 0.145988 -4.12142 0
M  V30 2718 H 247.822 -0.220555 -0.6263 0
M  V30 2719 H 250.352 -1.23592 -1.63053 0
M  V30 2720 H 250.362 -0.704708 -4.01868 0
M  V30 2721 H 249.037 -1.82247 -3.73844 0
M  V30 2722 H 247.614 0.00897528 -3.72899 0
M  V30 2723 N 249.799 1.42003 -0.683588 0
M  V30 2724 C 251.046 2.01413 -0.209514 0
M  V30 2725 C 251.374 1.54088 1.1869 0
M  V30 2726 O 250.629 0.737591 1.81268 0
M  V30 2727 C 250.928 3.56827 -0.202357 0
M  V30 2728 C 250.594 4.23617 -1.54464 0
M  V30 2729 C 249.256 4.41577 -1.91215 0
M  V30 2730 C 251.608 4.61178 -2.42826 0
M  V30 2731 C 248.936 4.9437 -3.15935 0
M  V30 2732 C 251.288 5.15355 -3.66867 0
M  V30 2733 C 249.952 5.31528 -4.03776 0
M  V30 2734 H 249.222 0.737023 -0.0766668 0
M  V30 2735 H 251.869 1.70067 -0.880312 0
M  V30 2736 H 250.174 3.87892 0.551969 0
M  V30 2737 H 251.871 4.00588 0.181793 0
M  V30 2738 H 248.461 4.10004 -1.24877 0
M  V30 2739 H 252.645 4.46968 -2.15717 0
M  V30 2740 H 247.901 5.05076 -3.44541 0
M  V30 2741 H 252.075 5.43402 -4.35531 0
M  V30 2742 H 249.702 5.72199 -5.00492 0
M  V30 2743 N 251.277 0.427512 1.51691 0
M  V30 2744 C 252.507 -0.140986 2.06118 0
M  V30 2745 C 252.915 -1.37854 1.29588 0
M  V30 2746 O 252.258 -1.80411 0.346036 0
M  V30 2747 C 252.32 -0.538276 3.55447 0
M  V30 2748 C 251.984 0.591095 4.53161 0
M  V30 2749 C 252.981 1.46027 4.98971 0
M  V30 2750 C 250.666 0.769028 4.96378 0
M  V30 2751 C 252.66 2.49216 5.8666 0
M  V30 2752 C 250.347 1.80421 5.83859 0
M  V30 2753 C 251.345 2.66417 6.28897 0
M  V30 2754 O 251.033 3.68159 7.14643 0
M  V30 2755 H 250.765 -0.0157455 0.675817 0
M  V30 2756 H 253.319 0.602495 1.96365 0
M  V30 2757 H 251.549 -1.33432 3.6295 0
M  V30 2758 H 253.238 -1.0368 3.92435 0
M  V30 2759 H 254.004 1.33429 4.66285 0
M  V30 2760 H 249.883 0.109273 4.6087 0
M  V30 2761 H 253.427 3.16372 6.21735 0
M  V30 2762 H 249.324 1.93042 6.15959 0
M  V30 2763 H 250.092 3.64622 7.32798 0
M  V30 2764 N 252.755 -1.56801 0.158532 0
M  V30 2765 C 254.001 -1.96781 -0.490405 0
M  V30 2766 C 254.334 -1.04397 -1.63753 0
M  V30 2767 O 253.609 -0.0885805 -1.94298 0
M  V30 2768 C 253.892 -3.4635 -0.985594 0
M  V30 2769 C 253.745 -4.49512 0.160824 0
M  V30 2770 C 255.064 -3.98697 -1.86355 0
M  V30 2771 H 252.183 -0.715482 -0.176788 0
M  V30 2772 H 254.825 -1.88451 0.242088 0
M  V30 2773 H 252.975 -3.53579 -1.60978 0
M  V30 2774 H 254.647 -4.54353 0.797537 0
M  V30 2775 H 252.89 -4.26013 0.818256 0
M  V30 2776 H 253.561 -5.51531 -0.227569 0
M  V30 2777 H 256.037 -3.94019 -1.33746 0
M  V30 2778 H 254.913 -5.03792 -2.17909 0
M  V30 2779 H 255.174 -3.41744 -2.8047 0
M  V30 2780 N 254.233 0.115231 -1.57178 0
M  V30 2781 C 255.644 0.67197 -1.74188 0
M  V30 2782 C 255.995 1.80125 -0.777777 0
M  V30 2783 O 255.12 2.16346 0.0484376 0
M  V30 2784 C 255.715 1.22573 -3.1585 0
M  V30 2785 C 254.274 1.72872 -3.34353 0
M  V30 2786 C 253.421 0.629972 -2.70049 0
M  V30 2787 H 256.372 -0.110712 -1.58313 0
M  V30 2788 H 256.393 2.09535 -3.17609 0
M  V30 2789 H 255.905 0.403598 -3.85996 0
M  V30 2790 H 254.006 2.5755 -2.69256 0
M  V30 2791 H 254.119 1.83557 -4.42542 0
M  V30 2792 H 252.483 1.0645 -2.31388 0
M  V30 2793 H 253.266 -0.181241 -3.42821 0
M  V30 2794 N 255.711 1.52812 0.385517 0
M  V30 2795 C 256.641 1.80808 1.47752 0
M  V30 2796 C 257.622 0.660318 1.5676 0
M  V30 2797 O 258.807 0.908246 1.71652 0
M  V30 2798 C 255.937 1.98008 2.85324 0
M  V30 2799 C 254.891 3.13709 2.91154 0
M  V30 2800 C 254.217 3.16169 4.31209 0
M  V30 2801 C 255.517 4.52709 2.60483 0
M  V30 2802 H 257.211 2.72253 1.24573 0
M  V30 2803 H 254.757 1.31003 0.597839 0
M  V30 2804 H 256.71 2.16176 3.61726 0
M  V30 2805 H 255.434 1.03255 3.09848 0
M  V30 2806 H 254.093 2.95329 2.17201 0
M  V30 2807 H 253.741 2.19092 4.52778 0
M  V30 2808 H 253.441 3.93894 4.36029 0
M  V30 2809 H 254.965 3.36496 5.09512 0
M  V30 2810 H 256.379 4.71173 3.26602 0
M  V30 2811 H 254.776 5.32528 2.76648 0
M  V30 2812 H 255.846 4.59186 1.55809 0
M  V30 2813 N 257.189 -0.644168 1.43834 0
M  V30 2814 C 258.437 -1.40117 1.45642 0
M  V30 2815 C 258.758 -1.94814 0.0852413 0
M  V30 2816 O 258.028 -1.74988 -0.880688 0
M  V30 2817 H 256.608 -0.52005 0.536243 0
M  V30 2818 H 259.27 -0.7591 1.7951 0
M  V30 2819 H 258.366 -2.23902 2.17427 0
M  V30 2820 N 258.668 -1.30515 -0.883378 0
M  V30 2821 C 259.631 -1.1701 -1.97082 0
M  V30 2822 C 260.631 -0.10089 -1.60483 0
M  V30 2823 O 261.821 -0.349127 -1.70666 0
M  V30 2824 C 258.953 -0.793045 -3.31547 0
M  V30 2825 H 260.146 -2.13622 -2.10489 0
M  V30 2826 H 257.699 -1.13935 -1.06998 0
M  V30 2827 H 258.434 0.172499 -3.23841 0
M  V30 2828 H 258.219 -1.56576 -3.5948 0
M  V30 2829 H 259.709 -0.722073 -4.1131 0
M  V30 2830 N 260.146 1.09593 -1.13257 0
M  V30 2831 C 261.394 1.81375 -0.891492 0
M  V30 2832 C 261.715 1.86049 0.584009 0
M  V30 2833 O 260.985 1.34481 1.42449 0
M  V30 2834 H 259.565 0.671708 -0.326828 0
M  V30 2835 H 262.227 1.3256 -1.42877 0
M  V30 2836 H 261.323 2.84612 -1.28071 0
M  V30 2837 N 261.624 0.925811 1.2754 0
M  V30 2838 C 262.87 0.566092 1.94739 0
M  V30 2839 C 263.203 -0.890057 1.72603 0
M  V30 2840 O 262.478 -1.63467 1.05399 0
M  V30 2841 C 262.761 0.89054 3.48915 0
M  V30 2842 C 262.614 2.4003 3.80402 0
M  V30 2843 C 263.933 0.395101 4.38323 0
M  V30 2844 H 261.052 0.20714 0.707292 0
M  V30 2845 H 263.694 1.15725 1.50691 0
M  V30 2846 H 261.844 0.387452 3.86563 0
M  V30 2847 H 263.516 2.97494 3.52555 0
M  V30 2848 H 261.759 2.85028 3.2702 0
M  V30 2849 H 262.43 2.57785 4.8811 0
M  V30 2850 H 264.906 0.826241 4.07814 0
M  V30 2851 H 263.782 0.651086 5.45025 0
M  V30 2852 H 264.043 -0.704798 4.36446 0
M  V30 2853 N 263.102 -1.41638 0.69111 0
M  V30 2854 C 264.348 -2.01598 0.220519 0
M  V30 2855 C 264.681 -1.54594 -1.17535 0
M  V30 2856 O 263.956 -0.755177 -1.79241 0
M  V30 2857 C 264.239 -3.59062 0.273243 0
M  V30 2858 C 264.092 -4.16203 1.70573 0
M  V30 2859 C 265.411 -4.38546 -0.369457 0
M  V30 2860 H 262.53 -0.732468 0.0816045 0
M  V30 2861 H 265.172 -1.68445 0.878986 0
M  V30 2862 H 263.322 -3.87435 -0.287411 0
M  V30 2863 H 264.994 -3.98722 2.31989 0
M  V30 2864 H 263.237 -3.71414 2.2413 0
M  V30 2865 H 263.908 -5.25358 1.69419 0
M  V30 2866 H 266.384 -4.1596 0.107977 0
M  V30 2867 H 265.26 -5.48069 -0.302002 0
M  V30 2868 H 265.521 -4.17662 -1.44951 0
M  V30 2869 N 264.58 -0.43555 -1.51462 0
M  V30 2870 C 265.829 0.133007 -2.01261 0
M  V30 2871 C 266.142 1.43942 -1.32439 0
M  V30 2872 O 267.348 2.09081 -1.73198 0
M  V30 2873 C 265.804 0.287581 -3.58749 0
M  V30 2874 C 265.412 -1.00829 -4.36506 0
M  V30 2875 C 267.156 0.810004 -4.167 0
M  V30 2876 C 265.063 -0.819454 -5.85695 0
M  V30 2877 H 263.993 0.0534822 -0.752101 0
M  V30 2878 H 266.644 -0.565038 -1.74584 0
M  V30 2879 H 265.026 1.04859 -3.81865 0
M  V30 2880 H 266.2 -1.77749 -4.25138 0
M  V30 2881 H 264.515 -1.45911 -3.89999 0
M  V30 2882 H 267.112 0.967743 -5.2587 0
M  V30 2883 H 267.455 1.79196 -3.75758 0
M  V30 2884 H 267.988 0.107357 -3.97655 0
M  V30 2885 H 264.727 -1.77374 -6.31046 0
M  V30 2886 H 264.247 -0.0900208 -5.99732 0
M  V30 2887 H 265.926 -0.471949 -6.45276 0
M  V30 2888 N 266.058 1.56714 -0.166846 0
M  V30 2889 C 267.021 2.16539 0.751232 0
M  V30 2890 C 268.021 1.11228 1.16125 0
M  V30 2891 O 269.211 1.36765 1.07894 0
M  V30 2892 C 266.343 2.74462 2.02196 0
M  V30 2893 H 267.536 2.99013 0.230499 0
M  V30 2894 H 265.089 1.56081 0.0826982 0
M  V30 2895 H 265.824 1.95709 2.58589 0
M  V30 2896 H 265.609 3.51527 1.73698 0
M  V30 2897 H 267.099 3.20489 2.67725 0
M  V30 2898 N 267.536 -0.106894 1.57237 0
M  V30 2899 C 268.947 -0.662723 1.74542 0
M  V30 2900 C 269.298 -1.7971 0.787319 0
M  V30 2901 O 268.423 -2.16368 -0.0369636 0
M  V30 2902 C 269.018 -1.20896 3.16496 0
M  V30 2903 C 267.577 -1.71096 3.35266 0
M  V30 2904 C 266.724 -0.615642 2.7038 0
M  V30 2905 H 269.675 0.119106 1.58252 0
M  V30 2906 H 269.696 -2.07847 3.18716 0
M  V30 2907 H 269.208 -0.383122 3.86204 0
M  V30 2908 H 267.309 -2.56119 2.70618 0
M  V30 2909 H 267.422 -1.81208 4.43509 0
M  V30 2910 H 265.786 -1.05222 2.31949 0
M  V30 2911 H 266.569 0.199419 3.4272 0
M  V30 2912 N 269.014 -1.53014 -0.377408 0
M  V30 2913 C 270.26 -1.69821 -1.11948 0
M  V30 2914 C 270.615 -0.438581 -1.87335 0
M  V30 2915 O 269.908 0.568094 -1.82984 0
M  V30 2916 C 270.102 -2.87982 -2.11663 0
M  V30 2917 C 269.931 -4.25315 -1.46072 0
M  V30 2918 C 268.701 -4.90354 -1.21986 0
M  V30 2919 C 270.899 -5.06281 -0.904664 0
M  V30 2920 N 268.881 -6.11641 -0.526215 0
M  V30 2921 C 270.252 -6.19069 -0.339726 0
M  V30 2922 C 272.307 -4.91395 -0.8022 0
M  V30 2923 C 271.01 -7.18598 0.317669 0
M  V30 2924 C 273.036 -5.91187 -0.158606 0
M  V30 2925 C 272.398 -7.03289 0.39551 0
M  V30 2926 H 268.497 -0.674785 -0.395207 0
M  V30 2927 H 271.081 -1.90389 -0.407437 0
M  V30 2928 H 269.252 -2.68974 -2.80192 0
M  V30 2929 H 270.984 -2.93669 -2.78461 0
M  V30 2930 H 267.739 -4.49286 -1.49798 0
M  V30 2931 H 268.163 -6.76719 -0.195098 0
M  V30 2932 H 272.805 -4.04925 -1.21639 0
M  V30 2933 H 270.523 -8.04669 0.743836 0
M  V30 2934 H 274.109 -5.81744 -0.0804138 0
M  V30 2935 H 272.989 -7.79183 0.885648 0
M  V30 2936 N 270.492 0.636531 -1.44174 0
M  V30 2937 C 271.44 1.76995 -1.50915 0
M  V30 2938 C 272.434 1.65053 -0.381295 0
M  V30 2939 O 273.64 1.71197 -0.55601 0
M  V30 2940 H 270.015 0.584247 -0.473455 0
M  V30 2941 H 271.986 1.68432 -2.4632 0
M  V30 2942 C 270.735 3.15314 -1.46534 0
M  V30 2943 H 270.058 3.25149 -2.32633 0
M  V30 2944 H 271.498 3.9453 -1.55312 0
M  V30 2945 C 269.957 3.3639 -0.185305 0
M  V30 2946 O 270.487 3.94699 0.746688 0
M  V30 2947 N 268.693 2.9046 -0.0901606 0
M  V30 2948 H 268.24 2.43193 -0.849416 0
M  V30 2949 H 268.198 3.04937 0.765553 0
M  V30 2950 N 271.97 1.30982 0.876444 0
M  V30 2951 C 273.217 1.20296 1.62896 0
M  V30 2952 C 273.545 -0.240395 1.93009 0
M  V30 2953 O 272.8 -1.18733 1.55567 0
M  V30 2954 C 273.099 1.98572 2.9716 0
M  V30 2955 C 272.765 3.48125 2.86566 0
M  V30 2956 C 271.427 3.88905 2.83383 0
M  V30 2957 C 273.779 4.43322 2.74071 0
M  V30 2958 C 271.107 5.2316 2.65556 0
M  V30 2959 C 273.459 5.77695 2.57781 0
M  V30 2960 C 272.123 6.17704 2.52979 0
M  V30 2961 H 271.393 0.440193 0.59608 0
M  V30 2962 H 274.04 1.62177 1.01837 0
M  V30 2963 H 272.345 1.49352 3.62217 0
M  V30 2964 H 274.042 1.8769 3.54364 0
M  V30 2965 H 270.632 3.15723 2.89856 0
M  V30 2966 H 274.816 4.12752 2.75589 0
M  V30 2967 H 270.072 5.53241 2.60259 0
M  V30 2968 H 274.246 6.51091 2.47089 0
M  V30 2969 H 271.873 7.21678 2.38924 0
M  V30 2970 N 273.449 -1.08991 1.13837 0
M  V30 2971 C 274.86 -1.62746 0.914917 0
M  V30 2972 C 275.211 -1.88403 -0.547594 0
M  V30 2973 O 274.336 -1.63706 -1.41525 0
M  V30 2974 C 274.931 -2.95662 1.65437 0
M  V30 2975 C 273.49 -3.46225 1.47666 0
M  V30 2976 C 272.637 -2.20562 1.6807 0
M  V30 2977 H 275.588 -0.922946 1.29102 0
M  V30 2978 H 275.609 -3.63825 1.11407 0
M  V30 2979 H 275.121 -2.76956 2.71877 0
M  V30 2980 H 273.222 -3.70046 0.435478 0
M  V30 2981 H 273.335 -4.23368 2.24268 0
M  V30 2982 H 271.699 -2.29439 1.10589 0
M  V30 2983 H 272.482 -2.0437 2.7584 0
M  V30 2984 N 274.927 -0.932562 -1.27047 0
M  V30 2985 C 276.173 -0.576412 -1.94436 0
M  V30 2986 C 276.506 0.880891 -1.73072 0
M  V30 2987 O 275.781 1.62905 -1.06264 0
M  V30 2988 C 276.064 -0.909031 -3.48437 0
M  V30 2989 C 275.917 -2.42044 -3.79123 0
M  V30 2990 C 277.236 -0.418341 -4.38107 0
M  V30 2991 H 274.355 -0.210888 -0.706184 0
M  V30 2992 H 276.997 -1.16522 -1.50075 0
M  V30 2993 H 275.147 -0.407947 -3.86352 0
M  V30 2994 H 276.819 -2.99359 -3.50973 0
M  V30 2995 H 275.062 -2.86758 -3.25503 0
M  V30 2996 H 275.733 -2.6037 -4.86736 0
M  V30 2997 H 278.209 -0.847856 -4.0737 0
M  V30 2998 H 277.085 -0.679981 -5.44672 0
M  V30 2999 H 277.346 0.681642 -4.36814 0
M  V30 3000 N 276.405 1.4127 -0.698611 0
M  V30 3001 C 277.368 2.29158 -0.044132 0
M  V30 3002 C 278.368 1.44529 0.704841 0
M  V30 3003 O 279.558 1.65643 0.539276 0
M  V30 3004 C 276.69 3.27459 0.947809 0
M  V30 3005 H 277.883 2.88529 -0.817994 0
M  V30 3006 H 275.436 1.49307 -0.46228 0
M  V30 3007 H 276.171 2.73073 1.74933 0
M  V30 3008 H 275.956 3.8991 0.41385 0
M  V30 3009 H 277.446 3.93311 1.40344 0
M  V30 3010 N 277.883 0.443576 1.51229 0
M  V30 3011 C 279.132 -0.122332 2.01329 0
M  V30 3012 C 279.445 -1.43237 1.33201 0
M  V30 3013 O 280.651 -2.0816 1.74304 0
M  V30 3014 C 279.107 -0.268551 3.58897 0
M  V30 3015 C 278.715 1.03142 4.35965 0
M  V30 3016 C 280.459 -0.787894 4.17124 0
M  V30 3017 C 278.366 0.850504 5.85252 0
M  V30 3018 H 277.296 -0.0494929 0.752374 0
M  V30 3019 H 279.947 0.574289 1.74282 0
M  V30 3020 H 278.329 -1.02832 3.82415 0
M  V30 3021 H 279.503 1.80001 4.24189 0
M  V30 3022 H 277.818 1.47977 3.89219 0
M  V30 3023 H 280.415 -0.939841 5.26375 0
M  V30 3024 H 280.758 -1.77201 3.76703 0
M  V30 3025 H 281.291 -0.0862669 3.97706 0
M  V30 3026 H 278.03 1.80718 6.30096 0
M  V30 3027 H 277.55 0.121825 5.99676 0
M  V30 3028 H 279.229 0.506163 6.45017 0
M  V30 3029 N 279.361 -1.56624 0.175154 0
M  V30 3030 C 280.608 -1.96999 -0.468811 0
M  V30 3031 C 280.936 -1.06129 -1.62994 0
M  V30 3032 O 280.191 -0.0961771 -1.95464 0
M  V30 3033 C 280.49 -3.43419 -0.989864 0
M  V30 3034 C 280.156 -4.50866 0.0557687 0
M  V30 3035 C 278.818 -4.79975 0.343134 0
M  V30 3036 C 281.17 -5.15551 0.765308 0
M  V30 3037 C 278.498 -5.71066 1.34536 0
M  V30 3038 C 280.85 -6.07724 1.75654 0
M  V30 3039 C 279.514 -6.35199 2.05132 0
M  V30 3040 H 278.784 -0.720869 -0.17155 0
M  V30 3041 H 281.431 -1.89616 0.267924 0
M  V30 3042 H 279.736 -3.47772 -1.80449 0
M  V30 3043 H 281.433 -3.72002 -1.49719 0
M  V30 3044 H 278.023 -4.28229 -0.178381 0
M  V30 3045 H 282.207 -4.9317 0.556513 0
M  V30 3046 H 277.463 -5.90635 1.57988 0
M  V30 3047 H 281.637 -6.56912 2.31169 0
M  V30 3048 H 279.264 -7.05584 2.8294 0
M  V30 3049 N 280.839 0.0985539 -1.57292 0
M  V30 3050 C 282.067 0.816318 -1.90115 0
M  V30 3051 C 282.482 1.72451 -0.768509 0
M  V30 3052 O 281.839 1.80643 0.259687 0
M  V30 3053 C 281.89 1.63259 -3.22535 0
M  V30 3054 O 281.611 0.760934 -4.31441 0
M  V30 3055 C 283.112 2.45372 -3.69199 0
M  V30 3056 H 280.332 0.233595 -0.629027 0
M  V30 3057 H 282.876 0.0768229 -2.04356 0
M  V30 3058 H 281.031 2.32463 -3.09903 0
M  V30 3059 H 281.445 1.32595 -5.07463 0
M  V30 3060 H 282.919 2.98144 -4.64558 0
M  V30 3061 H 283.396 3.23677 -2.96867 0
M  V30 3062 H 284.002 1.81373 -3.84687 0
M  V30 3063 N 282.317 1.53212 0.369288 0
M  V30 3064 C 283.565 1.68881 1.11012 0
M  V30 3065 C 283.886 0.441285 1.89941 0
M  V30 3066 O 283.156 -0.544623 1.88177 0
M  V30 3067 H 281.736 0.622569 0.412816 0
M  V30 3068 H 284.398 1.90391 0.416802 0
M  V30 3069 H 283.494 2.54822 1.80201 0
M  V30 3070 N 283.795 -0.628877 1.44509 0
M  V30 3071 C 284.728 -1.75367 1.46019 0
M  V30 3072 C 285.706 -1.59444 0.318787 0
M  V30 3073 O 286.89 -1.81297 0.516099 0
M  V30 3074 C 284.017 -3.12965 1.29501 0
M  V30 3075 C 283.063 -3.47532 2.47233 0
M  V30 3076 S 283.896 -3.44758 4.09758 0
M  V30 3077 C 285.052 -4.84973 3.95667 0
M  V30 3078 H 285.285 -1.7382 2.41193 0
M  V30 3079 H 282.818 -0.803686 1.31834 0
M  V30 3080 H 284.776 -3.92367 1.20658 0
M  V30 3081 H 283.437 -3.12049 0.358341 0
M  V30 3082 H 282.63 -4.47664 2.31544 0
M  V30 3083 H 282.232 -2.75598 2.52828 0
M  V30 3084 H 284.524 -5.74255 3.59496 0
M  V30 3085 H 285.467 -5.05716 4.95638 0
M  V30 3086 H 285.875 -4.59653 3.27688 0
M  V30 3087 N 285.273 -1.31445 -0.869486 0
M  V30 3088 C 286.522 -1.20517 -1.61736 0
M  V30 3089 C 286.835 0.235341 -1.94179 0
M  V30 3090 O 288.041 0.466312 -2.67465 0
M  V30 3091 C 286.497 -2.10982 -2.91573 0
M  V30 3092 C 286.105 -3.60032 -2.66611 0
M  V30 3093 C 287.849 -2.08856 -3.69567 0
M  V30 3094 C 285.756 -4.42503 -3.92358 0
M  V30 3095 H 284.686 -0.447493 -0.606849 0
M  V30 3096 H 287.337 -1.56303 -0.96133 0
M  V30 3097 H 285.719 -1.68095 -3.58553 0
M  V30 3098 H 286.893 -4.11167 -2.08035 0
M  V30 3099 H 285.208 -3.64139 -2.0197 0
M  V30 3100 H 287.805 -2.67716 -4.62852 0
M  V30 3101 H 288.148 -1.07582 -4.02159 0
M  V30 3102 H 288.681 -2.49945 -3.09471 0
M  V30 3103 H 285.42 -5.44533 -3.64916 0
M  V30 3104 H 284.94 -3.96125 -4.50383 0
M  V30 3105 H 286.619 -4.54741 -4.60238 0
M  V30 3106 N 286.751 1.08385 -1.14413 0
M  V30 3107 C 287.997 1.81044 -0.913834 0
M  V30 3108 C 288.33 1.86004 0.558209 0
M  V30 3109 O 287.605 1.33606 1.4135 0
M  V30 3110 C 287.888 3.26648 -1.51569 0
M  V30 3111 C 287.741 3.29895 -3.0576 0
M  V30 3112 C 289.06 4.23629 -1.19273 0
M  V30 3113 H 286.179 0.65727 -0.333414 0
M  V30 3114 H 288.821 1.26896 -1.41412 0
M  V30 3115 H 286.971 3.72889 -1.09023 0
M  V30 3116 H 288.643 2.91977 -3.57137 0
M  V30 3117 H 286.886 2.69163 -3.40197 0
M  V30 3118 H 287.557 4.32516 -3.42977 0
M  V30 3119 H 290.033 3.85727 -1.56057 0
M  V30 3120 H 288.909 5.23822 -1.64017 0
M  V30 3121 H 289.17 4.41968 -0.108068 0
M  V30 3122 N 288.23 0.939286 1.26551 0
M  V30 3123 C 289.478 0.58469 1.93457 0
M  V30 3124 C 289.799 -0.878774 1.74076 0
M  V30 3125 O 289.069 -1.62421 1.09528 0
M  V30 3126 H 287.649 0.21325 0.715914 0
M  V30 3127 H 290.311 1.1942 1.54029 0
M  V30 3128 H 289.407 0.800849 3.0165 0
M  V30 3129 N 289.708 -1.40897 0.706093 0
M  V30 3130 C 291.119 -1.84023 0.315052 0
M  V30 3131 C 291.47 -1.5906 -1.14866 0
M  V30 3132 O 290.595 -1.06651 -1.88293 0
M  V30 3133 C 291.19 -3.34055 0.565038 0
M  V30 3134 C 289.749 -3.7571 0.227806 0
M  V30 3135 C 288.896 -2.64204 0.842122 0
M  V30 3136 H 291.847 -1.303 0.905963 0
M  V30 3137 H 291.868 -3.80107 -0.172843 0
M  V30 3138 H 291.38 -3.52192 1.63042 0
M  V30 3139 H 289.481 -3.63172 -0.832895 0
M  V30 3140 H 289.594 -4.74103 0.690174 0
M  V30 3141 H 287.958 -2.53255 0.270893 0
M  V30 3142 H 288.741 -2.85155 1.91158 0
M  V30 3143 N 291.186 -0.45159 -1.50991 0
M  V30 3144 C 292.432 0.110237 -2.025 0
M  V30 3145 C 292.765 1.41109 -1.33424 0
M  V30 3146 O 292.04 1.89135 -0.453659 0
M  V30 3147 C 292.323 0.314271 -3.58726 0
M  V30 3148 C 292.176 -1.00623 -4.38401 0
M  V30 3149 C 293.495 1.07767 -4.26702 0
M  V30 3150 H 290.614 0.0385897 -0.735989 0
M  V30 3151 H 293.256 -0.593374 -1.80497 0
M  V30 3152 H 291.406 0.913601 -3.77605 0
M  V30 3153 H 293.078 -1.64064 -4.31139 0
M  V30 3154 H 291.321 -1.6075 -4.02917 0
M  V30 3155 H 291.992 -0.817341 -5.45915 0
M  V30 3156 H 294.468 0.56986 -4.12179 0
M  V30 3157 H 293.344 1.18921 -5.35863 0
M  V30 3158 H 293.605 2.10939 -3.88532 0
M  V30 3159 N 292.664 1.56529 -0.183458 0
M  V30 3160 C 293.627 2.17324 0.728223 0
M  V30 3161 C 294.627 1.12453 1.14939 0
M  V30 3162 O 295.817 1.37902 1.06437 0
M  V30 3163 C 292.949 2.76591 1.99274 0
M  V30 3164 H 294.142 2.99241 0.198772 0
M  V30 3165 H 291.695 1.5616 0.0661391 0
M  V30 3166 H 292.43 1.98441 2.56499 0
M  V30 3167 H 292.215 3.5335 1.69959 0
M  V30 3168 H 293.705 3.23311 2.6431 0
M  V30 3169 N 294.142 -0.090211 1.57342 0
M  V30 3170 C 295.388 -0.793982 1.86611 0
M  V30 3171 C 295.721 -1.78142 0.773252 0
M  V30 3172 O 294.996 -1.93271 -0.218304 0
M  V30 3173 C 295.279 -1.51839 3.26523 0
M  V30 3174 C 295.132 -0.548609 4.46442 0
M  V30 3175 C 296.451 -2.46779 3.64401 0
M  V30 3176 H 293.57 -0.287186 0.678744 0
M  V30 3177 H 296.212 -0.0575076 1.89913 0
M  V30 3178 H 294.362 -2.14617 3.23839 0
M  V30 3179 H 296.034 0.0725513 4.61243 0
M  V30 3180 H 294.277 0.137614 4.33582 0
M  V30 3181 H 294.948 -1.09271 5.41076 0
M  V30 3182 H 297.424 -1.94089 3.68061 0
M  V30 3183 H 296.3 -2.94479 4.63221 0
M  V30 3184 H 296.561 -3.30758 2.93346 0
M  V30 3185 N 295.62 -1.53406 -0.361157 0
M  V30 3186 C 296.868 -1.69467 -1.10115 0
M  V30 3187 C 297.189 -0.451352 -1.89705 0
M  V30 3188 O 296.459 0.534636 -1.88463 0
M  V30 3189 H 295.039 -0.624749 -0.409508 0
M  V30 3190 H 297.701 -1.90609 -0.406699 0
M  V30 3191 H 296.797 -2.55774 -1.78847 0
M  V30 3192 N 297.098 0.621204 -1.44841 0
M  V30 3193 C 298.046 1.75385 -1.52784 0
M  V30 3194 C 299.04 1.64639 -0.398779 0
M  V30 3195 O 300.246 1.70598 -0.574137 0
M  V30 3196 H 296.621 0.579193 -0.479625 0
M  V30 3197 H 298.592 1.6581 -2.48092 0
M  V30 3198 C 297.341 3.13742 -1.4987 0
M  V30 3199 H 296.664 3.22663 -2.36069 0
M  V30 3200 H 298.104 3.92861 -1.59487 0
M  V30 3201 C 296.563 3.36175 -0.220973 0
M  V30 3202 O 297.093 3.95469 0.704782 0
M  V30 3203 N 295.299 2.90348 -0.120963 0
M  V30 3204 H 294.846 2.42278 -0.875162 0
M  V30 3205 H 294.804 3.05732 0.733168 0
M  V30 3206 N 298.576 1.31904 0.862503 0
M  V30 3207 C 299.804 1.24998 1.64873 0
M  V30 3208 C 300.219 -0.183425 1.87907 0
M  V30 3209 O 299.576 -1.11794 1.44251 0
M  V30 3210 C 299.627 1.99829 3.01248 0
M  V30 3211 O 299.348 3.37575 2.79239 0
M  V30 3212 C 300.849 1.99852 3.95694 0
M  V30 3213 H 298.069 0.431599 0.513773 0
M  V30 3214 H 300.613 1.73901 1.07604 0
M  V30 3215 H 298.768 1.54668 3.55185 0
M  V30 3216 H 299.182 3.75776 3.65914 0
M  V30 3217 H 300.656 2.56709 4.88676 0
M  V30 3218 H 301.133 0.982852 4.28062 0
M  V30 3219 H 301.739 2.44926 3.47694 0
M  V30 3220 N 300.054 -1.07777 1.14986 0
M  V30 3221 C 301.3 -1.80557 0.923422 0
M  V30 3222 C 301.633 -1.86298 -0.548337 0
M  V30 3223 O 300.908 -1.34354 -1.40639 0
M  V30 3224 C 301.191 -3.25839 1.53299 0
M  V30 3225 C 301.044 -3.28269 3.07505 0
M  V30 3226 C 302.363 -4.22991 1.21518 0
M  V30 3227 H 299.482 -0.655493 0.336894 0
M  V30 3228 H 302.124 -1.26144 1.42083 0
M  V30 3229 H 300.274 -3.72306 1.10999 0
M  V30 3230 H 301.946 -2.90079 3.58681 0
M  V30 3231 H 300.189 -2.67355 3.4162 0
M  V30 3232 H 300.86 -4.30691 3.45266 0
M  V30 3233 H 303.336 -3.84894 1.581 0
M  V30 3234 H 302.212 -5.22945 1.66793 0
M  V30 3235 H 302.473 -4.41904 0.131505 0
M  V30 3236 N 301.532 -0.945985 -1.26051 0
M  V30 3237 C 302.781 -0.591836 -1.92822 0
M  V30 3238 C 303.094 0.873956 -1.7499 0
M  V30 3239 O 304.3 1.33769 -2.36259 0
M  V30 3240 C 302.756 -1.00776 -3.45503 0
M  V30 3241 C 302.364 -2.4955 -3.7206 0
M  V30 3242 C 304.108 -0.725735 -4.1825 0
M  V30 3243 C 302.015 -2.84988 -5.18205 0
M  V30 3244 H 300.945 -0.217635 -0.721908 0
M  V30 3245 H 303.596 -1.14927 -1.43052 0
M  V30 3246 H 301.978 -0.378812 -3.94184 0
M  V30 3247 H 303.152 -3.1739 -3.34066 0
M  V30 3248 H 301.467 -2.75133 -3.12555 0
M  V30 3249 H 304.064 -0.966771 -5.25887 0
M  V30 3250 H 304.407 0.337639 -4.14929 0
M  V30 3251 H 304.94 -1.31463 -3.7545 0
M  V30 3252 H 301.679 -3.90307 -5.26631 0
M  V30 3253 H 301.199 -2.21813 -5.57278 0
M  V30 3254 H 302.878 -2.73712 -5.86252 0
M  V30 3255 N 303.011 1.40521 -0.713556 0
M  V30 3256 C 303.974 2.29098 -0.0684347 0
M  V30 3257 C 304.974 1.45268 0.689472 0
M  V30 3258 O 306.164 1.66205 0.521677 0
M  V30 3259 C 303.296 3.28446 0.913024 0
M  V30 3260 H 304.489 2.87645 -0.84855 0
M  V30 3261 H 302.042 1.48809 -0.47809 0
M  V30 3262 H 302.777 2.74913 1.72027 0
M  V30 3263 H 302.562 3.90327 0.372472 0
M  V30 3264 H 304.052 3.94777 1.36165 0
M  V30 3265 N 304.489 0.459591 1.5075 0
M  V30 3266 C 305.436 -0.340524 2.28274 0
M  V30 3267 C 306.406 -0.997371 1.32822 0
M  V30 3268 O 307.591 -1.01202 1.61749 0
M  V30 3269 C 304.731 -1.42317 3.14388 0
M  V30 3270 C 303.844 -0.782251 4.24859 0
M  V30 3271 C 302.979 -1.84182 4.98247 0
M  V30 3272 C 302.018 -1.18053 6.00608 0
M  V30 3273 N 301.155 -2.18244 6.67319 0
M  V30 3274 H 305.995 0.326899 2.96202 0
M  V30 3275 H 303.532 0.173057 1.46078 0
M  V30 3276 H 305.49 -2.06241 3.62658 0
M  V30 3277 H 304.12 -2.05992 2.4853 0
M  V30 3278 H 303.172 -0.0307404 3.80388 0
M  V30 3279 H 304.484 -0.259663 4.98124 0
M  V30 3280 H 303.638 -2.55714 5.50177 0
M  V30 3281 H 302.377 -2.39819 4.24662 0
M  V30 3282 H 301.382 -0.450776 5.47949 0
M  V30 3283 H 302.607 -0.631202 6.7616 0
M  V30 3284 H 300.553 -2.72919 5.96533 0
M  V30 3285 H 300.47 -1.70938 7.36421 0
M  V30 3286 H 301.738 -2.89191 7.23871 0
M  V30 3287 N 305.967 -1.56429 0.191757 0
M  V30 3288 C 307.378 -1.83912 -0.321428 0
M  V30 3289 C 307.729 -1.11231 -1.61623 0
M  V30 3290 O 306.854 -0.37202 -2.13178 0
M  V30 3291 C 307.449 -3.33624 -0.589961 0
M  V30 3292 C 306.008 -3.6153 -1.04753 0
M  V30 3293 C 305.155 -2.7714 -0.0943327 0
M  V30 3294 H 308.106 -1.53161 0.415612 0
M  V30 3295 H 308.127 -3.52213 -1.43966 0
M  V30 3296 H 307.639 -3.86495 0.352588 0
M  V30 3297 H 305.74 -3.14089 -2.00447 0
M  V30 3298 H 305.853 -4.69737 -0.942549 0
M  V30 3299 H 304.217 -2.47638 -0.595589 0
M  V30 3300 H 305 -3.32799 0.842601 0
M  V30 3301 N 307.445 0.0818655 -1.57387 0
M  V30 3302 C 308.408 1.08265 -2.02018 0
M  V30 3303 C 309.408 1.32183 -0.915664 0
M  V30 3304 O 310.598 1.28073 -1.18081 0
M  V30 3305 C 307.73 2.42871 -2.39221 0
M  V30 3306 H 308.923 0.698204 -2.91659 0
M  V30 3307 H 306.476 0.327303 -1.52835 0
M  V30 3308 H 307.211 2.86167 -1.52575 0
M  V30 3309 H 306.996 2.26855 -3.19811 0
M  V30 3310 H 308.486 3.14826 -2.74362 0
M  V30 3311 N 308.923 1.53595 0.353017 0
M  V30 3312 C 309.833 1.83897 1.45667 0
M  V30 3313 C 310.849 0.728334 1.58023 0
M  V30 3314 O 312.025 1.01968 1.73679 0
M  V30 3315 C 309.09 2.03383 2.80778 0
M  V30 3316 C 308.151 3.27262 2.77845 0
M  V30 3317 C 307.384 3.45809 4.06512 0
M  V30 3318 O 307.607 2.68387 5.03314 0
M  V30 3319 O 306.541 4.39207 4.11559 0
M  V30 3320 H 310.367 2.77686 1.2298 0
M  V30 3321 H 307.952 1.39132 0.544308 0
M  V30 3322 H 309.834 2.17698 3.60812 0
M  V30 3323 H 308.509 1.12783 3.03417 0
M  V30 3324 H 307.416 3.18359 1.96465 0
M  V30 3325 H 308.749 4.17824 2.60161 0
M  V30 3326 N 310.401 -0.613514 1.45168 0
M  V30 3327 C 311.678 -1.37263 1.39349 0
M  V30 3328 C 312.058 -2.11012 0.0610848 0
M  V30 3329 O 311.406 -2.07502 -0.956825 0
M  V30 3330 C 311.616 -2.3244 2.60332 0
M  V30 3331 C 312.964 -2.9523 3.05163 0
M  V30 3332 O 313.988 -2.42762 2.60663 0
M  V30 3333 O 312.847 -3.90454 3.82372 0
M  V30 3334 H 309.941 -0.615188 0.552696 0
M  V30 3335 H 312.487 -0.637097 1.57287 0
M  V30 3336 H 311.259 -1.77164 3.48896 0
M  V30 3337 H 310.882 -3.13383 2.44698 0
M  V30 3338 N 311.879 -1.3236 -0.855495 0
M  V30 3339 C 312.842 -1.21164 -1.94556 0
M  V30 3340 C 313.842 -0.134908 -1.60233 0
M  V30 3341 O 315.032 -0.385249 -1.69887 0
M  V30 3342 C 312.164 -0.863192 -3.29791 0
M  V30 3343 H 313.357 -2.18038 -2.05911 0
M  V30 3344 H 310.91 -1.16179 -1.04557 0
M  V30 3345 H 311.645 0.103769 -3.24134 0
M  V30 3346 H 311.43 -1.64166 -3.56078 0
M  V30 3347 H 312.92 -0.809156 -4.09686 0
M  V30 3348 N 313.357 1.07166 -1.15556 0
M  V30 3349 C 314.603 1.80065 -0.932984 0
M  V30 3350 C 314.936 1.86586 0.53845 0
M  V30 3351 O 314.211 1.35098 1.39924 0
M  V30 3352 C 314.494 3.25022 -1.55025 0
M  V30 3353 C 314.347 3.26634 -3.09242 0
M  V30 3354 C 315.666 4.22341 -1.2376 0
M  V30 3355 H 312.785 0.653697 -0.340366 0
M  V30 3356 H 315.427 1.25389 -1.4275 0
M  V30 3357 H 313.577 3.71712 -1.12972 0
M  V30 3358 H 315.249 2.88173 -3.60214 0
M  V30 3359 H 313.492 2.65539 -3.43033 0
M  V30 3360 H 314.163 4.28854 -3.47546 0
M  V30 3361 H 316.639 3.8405 -1.60139 0
M  V30 3362 H 315.515 5.22053 -1.69564 0
M  V30 3363 H 315.776 4.41828 -0.154938 0
M  V30 3364 N 314.835 0.952656 1.25548 0
M  V30 3365 C 316.081 0.607272 1.93494 0
M  V30 3366 C 316.414 -0.853245 1.74452 0
M  V30 3367 O 315.689 -1.61194 1.08843 0
M  V30 3368 C 315.972 0.96435 3.46947 0
M  V30 3369 C 315.825 2.48045 3.75225 0
M  V30 3370 C 317.144 0.487987 4.37386 0
M  V30 3371 H 314.263 0.222096 0.702739 0
M  V30 3372 H 316.905 1.18895 1.48203 0
M  V30 3373 H 315.055 0.469361 3.85654 0
M  V30 3374 H 316.727 3.04905 3.46166 0
M  V30 3375 H 314.97 2.919 3.209 0
M  V30 3376 H 315.641 2.6808 4.82532 0
M  V30 3377 H 318.117 0.912558 4.0597 0
M  V30 3378 H 316.993 0.766547 5.43521 0
M  V30 3379 H 317.254 -0.612063 4.37843 0
M  V30 3380 N 316.313 -1.40141 0.720998 0
M  V30 3381 C 317.559 -2.01084 0.263231 0
M  V30 3382 C 317.892 -1.57052 -1.14229 0
M  V30 3383 O 317.167 -0.793027 -1.77599 0
M  V30 3384 C 317.45 -3.58401 0.349344 0
M  V30 3385 C 317.303 -4.12491 1.79363 0
M  V30 3386 C 318.622 -4.39231 -0.276351 0
M  V30 3387 H 315.741 -0.730572 0.0971228 0
M  V30 3388 H 318.383 -1.66543 0.914518 0
M  V30 3389 H 316.533 -3.87958 -0.205165 0
M  V30 3390 H 318.205 -3.93711 2.40394 0
M  V30 3391 H 316.448 -3.66576 2.31958 0
M  V30 3392 H 317.119 -5.21646 1.80524 0
M  V30 3393 H 319.595 -4.15637 0.196184 0
M  V30 3394 H 318.471 -5.48586 -0.185681 0
M  V30 3395 H 318.732 -4.20643 -1.36059 0
M  V30 3396 N 317.792 -0.46758 -1.50504 0
M  V30 3397 C 319.04 0.0884469 -2.01906 0
M  V30 3398 C 319.361 1.40532 -1.35188 0
M  V30 3399 O 318.631 1.89515 -0.496079 0
M  V30 3400 H 317.211 0.0356765 -0.746148 0
M  V30 3401 H 319.873 -0.6172 -1.84869 0
M  V30 3402 H 318.969 0.2425 -3.11156 0
M  V30 3403 N 319.27 1.56325 -0.20005 0
M  V30 3404 C 320.233 2.18084 0.705132 0
M  V30 3405 C 321.233 1.13666 1.1374 0
M  V30 3406 O 322.423 1.39023 1.04968 0
M  V30 3407 C 319.555 2.78689 1.96329 0
M  V30 3408 H 320.748 2.99435 0.167023 0
M  V30 3409 H 318.301 1.56221 0.0495725 0
M  V30 3410 H 319.036 2.0115 2.5438 0
M  V30 3411 H 318.821 3.55133 1.66202 0
M  V30 3412 H 320.311 3.26096 2.60866 0
M  V30 3413 N 320.748 -0.0735177 1.57428 0
M  V30 3414 C 321.695 -1.08756 2.0357 0
M  V30 3415 C 322.665 -1.38559 0.916 0
M  V30 3416 O 323.85 -1.49656 1.18354 0
M  V30 3417 C 320.99 -2.39657 2.48311 0
M  V30 3418 C 320.103 -2.16399 3.73892 0
M  V30 3419 C 319.238 -3.40852 4.07423 0
M  V30 3420 C 318.277 -3.1295 5.2605 0
M  V30 3421 N 317.414 -4.29729 5.55228 0
M  V30 3422 H 322.254 -0.687104 2.8997 0
M  V30 3423 H 319.791 -0.327709 1.43403 0
M  V30 3424 H 321.749 -3.16081 2.72303 0
M  V30 3425 H 320.379 -2.77508 1.64891 0
M  V30 3426 H 319.431 -1.30676 3.57251 0
M  V30 3427 H 320.743 -1.91788 4.60455 0
M  V30 3428 H 319.897 -4.25671 4.32306 0
M  V30 3429 H 318.636 -3.68537 3.19425 0
M  V30 3430 H 317.641 -2.26526 5.00965 0
M  V30 3431 H 318.866 -2.86589 6.15665 0
M  V30 3432 H 316.812 -4.57448 4.70188 0
M  V30 3433 H 316.729 -4.08385 6.36206 0
M  V30 3434 H 317.997 -5.1555 5.84661 0
M  V30 3435 N 322.226 -1.5378 -0.344866 0
M  V30 3436 C 323.472 -1.71216 -1.08687 0
M  V30 3437 C 323.805 -0.473281 -1.88345 0
M  V30 3438 O 323.08 0.52968 -1.87149 0
M  V30 3439 C 323.363 -2.97486 -2.02914 0
M  V30 3440 C 323.216 -4.31579 -1.26727 0
M  V30 3441 C 324.535 -3.19422 -3.0275 0
M  V30 3442 H 321.654 -0.62301 -0.393735 0
M  V30 3443 H 324.296 -1.8645 -0.365563 0
M  V30 3444 H 322.446 -2.84629 -2.64421 0
M  V30 3445 H 324.118 -4.56284 -0.67845 0
M  V30 3446 H 322.361 -4.30049 -0.569273 0
M  V30 3447 H 323.032 -5.16106 -1.95803 0
M  V30 3448 H 325.508 -3.316 -2.51357 0
M  V30 3449 H 324.384 -4.09169 -3.65885 0
M  V30 3450 H 324.645 -2.35656 -3.74057 0
M  V30 3451 N 323.704 0.605807 -1.45491 0
M  V30 3452 C 324.951 1.36476 -1.49601 0
M  V30 3453 C 325.279 1.94007 -0.138452 0
M  V30 3454 O 324.534 1.75638 0.863114 0
M  V30 3455 C 324.833 2.53012 -2.52428 0
M  V30 3456 C 324.499 2.13617 -3.97087 0
M  V30 3457 C 323.161 2.02587 -4.36477 0
M  V30 3458 C 325.513 1.82899 -4.88055 0
M  V30 3459 C 322.841 1.59064 -5.64726 0
M  V30 3460 C 325.193 1.40861 -6.16718 0
M  V30 3461 C 323.857 1.28391 -6.55036 0
M  V30 3462 H 323.127 0.499402 -0.547429 0
M  V30 3463 H 325.774 0.684546 -1.78847 0
M  V30 3464 H 324.079 3.26379 -2.16758 0
M  V30 3465 H 325.776 3.1124 -2.52845 0
M  V30 3466 H 322.366 2.23129 -3.65939 0
M  V30 3467 H 326.55 1.90317 -4.58359 0
M  V30 3468 H 321.806 1.48034 -5.93208 0
M  V30 3469 H 325.98 1.16138 -6.86648 0
M  V30 3470 H 323.607 0.944403 -7.54311 0
M  V30 3471 N 325.182 1.32811 0.848464 0
M  V30 3472 C 326.092 1.24278 1.98978 0
M  V30 3473 C 327.108 0.155176 1.73307 0
M  V30 3474 O 328.284 0.376999 1.9784 0
M  V30 3475 C 325.349 0.972444 3.32783 0
M  V30 3476 C 324.41 2.14911 3.71634 0
M  V30 3477 C 323.643 1.89157 4.99054 0
M  V30 3478 O 323.866 0.837165 5.64223 0
M  V30 3479 O 322.8 2.75433 5.35183 0
M  V30 3480 H 326.626 2.20238 2.09115 0
M  V30 3481 H 324.211 1.12762 0.980052 0
M  V30 3482 H 326.093 0.838432 4.12975 0
M  V30 3483 H 324.768 0.043051 3.23671 0
M  V30 3484 H 323.675 2.33862 2.91992 0
M  V30 3485 H 325.008 3.06151 3.85399 0
M  V30 3486 N 326.66 -1.06551 1.16123 0
M  V30 3487 C 327.909 -1.78687 0.935622 0
M  V30 3488 C 328.222 -1.88056 -0.538001 0
M  V30 3489 O 329.428 -2.56794 -0.88143 0
M  V30 3490 C 327.884 -3.21143 1.62466 0
M  V30 3491 C 327.492 -3.19949 3.13587 0
M  V30 3492 C 329.236 -3.9783 1.48092 0
M  V30 3493 C 327.143 -4.57108 3.75241 0
M  V30 3494 H 326.073 -0.669712 0.346412 0
M  V30 3495 H 328.724 -1.19534 1.39226 0
M  V30 3496 H 327.106 -3.80539 1.09572 0
M  V30 3497 H 328.28 -2.70151 3.73303 0
M  V30 3498 H 326.595 -2.5676 3.27816 0
M  V30 3499 H 329.192 -4.99217 1.91538 0
M  V30 3500 H 329.535 -4.14078 0.429507 0
M  V30 3501 H 330.068 -3.4495 1.98127 0
M  V30 3502 H 326.807 -4.46065 4.80319 0
M  V30 3503 H 326.327 -5.07111 3.20309 0
M  V30 3504 H 328.006 -5.26069 3.76644 0
M  V30 3505 N 328.138 -0.959301 -1.25041 0
M  V30 3506 C 329.385 -0.616611 -1.92884 0
M  V30 3507 C 329.713 0.847036 -1.75087 0
M  V30 3508 O 328.968 1.62374 -1.09239 0
M  V30 3509 C 329.267 -0.927136 -3.45165 0
M  V30 3510 C 328.933 -2.37757 -3.83122 0
M  V30 3511 C 327.595 -2.77402 -3.93194 0
M  V30 3512 C 329.947 -3.31929 -4.01836 0
M  V30 3513 C 327.275 -4.10277 -4.19392 0
M  V30 3514 C 329.627 -4.64423 -4.29528 0
M  V30 3515 C 328.291 -5.03857 -4.37818 0
M  V30 3516 H 327.561 -0.225634 -0.705812 0
M  V30 3517 H 330.208 -1.20921 -1.48493 0
M  V30 3518 H 328.513 -0.252195 -3.90987 0
M  V30 3519 H 330.21 -0.6405 -3.95852 0
M  V30 3520 H 326.8 -2.06013 -3.75841 0
M  V30 3521 H 330.984 -3.02488 -3.93465 0
M  V30 3522 H 326.24 -4.40467 -4.24027 0
M  V30 3523 H 330.414 -5.37369 -4.42953 0
M  V30 3524 H 328.041 -6.06843 -4.57871 0
M  V30 3525 N 329.616 1.39756 -0.72842 0
M  V30 3526 C 330.566 2.2792 -0.0603424 0
M  V30 3527 C 331.55 1.43922 0.719399 0
M  V30 3528 O 332.742 1.66895 0.589489 0
M  V30 3529 C 329.871 3.32582 0.851104 0
M  V30 3530 C 328.957 4.24049 0.0658641 0
M  V30 3531 N 329.348 4.96653 -0.957578 0
M  V30 3532 C 327.646 4.45013 0.296509 0
M  V30 3533 C 328.347 5.63836 -1.43052 0
M  V30 3534 N 327.323 5.38397 -0.750315 0
M  V30 3535 H 331.125 2.81504 -0.84455 0
M  V30 3536 H 328.639 1.5236 -0.562155 0
M  V30 3537 H 330.636 3.94603 1.34514 0
M  V30 3538 H 329.296 2.80558 1.63454 0
M  V30 3539 H 330.307 5.00297 -1.33877 0
M  V30 3540 H 326.984 4.03943 1.05527 0
M  V30 3541 H 328.374 6.31974 -2.28163 0
M  V30 3542 N 331.094 0.475555 1.50254 0
M  V30 3543 C 332.004 -0.321501 2.32387 0
M  V30 3544 C 333.02 -0.991755 1.42969 0
M  V30 3545 O 334.196 -0.978747 1.76018 0
M  V30 3546 C 331.261 -1.38667 3.17762 0
M  V30 3547 C 330.322 -0.732538 4.23004 0
M  V30 3548 C 329.555 -1.74695 5.04299 0
M  V30 3549 O 329.778 -2.97399 4.86734 0
M  V30 3550 O 328.712 -1.31631 5.8733 0
M  V30 3551 H 332.538 0.350071 3.01676 0
M  V30 3552 H 330.123 0.237321 1.47503 0
M  V30 3553 H 332.005 -2.00354 3.70724 0
M  V30 3554 H 330.68 -2.04163 2.51196 0
M  V30 3555 H 329.587 -0.0765902 3.74022 0
M  V30 3556 H 330.92 -0.120452 4.92053 0
M  V30 3557 N 332.573 -1.56217 0.208337 0
M  V30 3558 C 333.536 -2.18455 -0.693557 0
M  V30 3559 C 334.536 -1.14268 -1.13135 0
M  V30 3560 O 335.726 -1.39577 -1.0423 0
M  V30 3561 C 332.858 -2.79727 -1.94848 0
M  V30 3562 H 334.051 -2.99519 -0.15114 0
M  V30 3563 H 331.604 -1.56245 -0.041287 0
M  V30 3564 H 332.339 -2.02497 -2.53309 0
M  V30 3565 H 332.124 -3.56009 -1.64316 0
M  V30 3566 H 333.614 -3.27475 -2.59133 0
M  V30 3567 N 334.051 0.0651679 -1.57465 0
M  V30 3568 C 335.299 0.761555 -1.87202 0
M  V30 3569 C 335.62 1.77778 -0.801243 0
M  V30 3570 O 334.89 1.95166 0.16937 0
M  V30 3571 H 333.47 0.284251 -0.690804 0
M  V30 3572 H 336.132 0.0396827 -1.9486 0
M  V30 3573 H 335.228 1.27365 -2.84929 0
M  V30 3574 N 335.529 1.53961 0.336706 0
M  V30 3575 C 336.776 1.71536 1.07618 0
M  V30 3576 C 337.104 0.482125 1.8843 0
M  V30 3577 O 336.359 -0.536142 1.88213 0
M  V30 3578 C 336.658 2.93493 2.03953 0
M  V30 3579 C 336.324 4.28811 1.39399 0
M  V30 3580 C 334.986 4.65602 1.21523 0
M  V30 3581 C 337.338 5.12844 0.929541 0
M  V30 3582 C 334.666 5.84037 0.558312 0
M  V30 3583 C 337.018 6.31951 0.286505 0
M  V30 3584 C 335.682 6.67432 0.0954869 0
M  V30 3585 H 334.952 0.627696 0.393801 0
M  V30 3586 H 337.599 1.88186 0.354715 0
M  V30 3587 H 335.904 2.71475 2.82504 0
M  V30 3588 H 337.601 3.04285 2.61174 0
M  V30 3589 H 334.191 3.99858 1.54311 0
M  V30 3590 H 338.375 4.84947 1.05548 0
M  V30 3591 H 333.631 6.10097 0.398995 0
M  V30 3592 H 337.805 6.96352 -0.0814376 0
M  V30 3593 H 335.432 7.59063 -0.415579 0
M  V30 3594 N 337.007 -0.598083 1.45811 0
M  V30 3595 C 338.418 -1.18011 1.44673 0
M  V30 3596 C 338.769 -1.95378 0.179364 0
M  V30 3597 O 337.894 -2.04124 -0.718509 0
M  V30 3598 C 338.489 -2.14677 2.62105 0
M  V30 3599 C 337.048 -2.68236 2.64057 0
M  V30 3600 C 336.195 -1.43816 2.37091 0
M  V30 3601 H 339.146 -0.38686 1.53913 0
M  V30 3602 H 339.167 -2.97878 2.36746 0
M  V30 3603 H 338.679 -1.5834 3.5433 0
M  V30 3604 H 336.78 -3.28486 1.75864 0
M  V30 3605 H 336.893 -3.12021 3.63566 0
M  V30 3606 H 335.257 -1.731 1.86838 0
M  V30 3607 H 336.04 -0.893333 3.31473 0
M  V30 3608 N 338.485 -1.33259 -0.841409 0
M  V30 3609 C 339.896 -1.22066 -1.41269 0
M  V30 3610 C 340.247 0.161479 -1.95534 0
M  V30 3611 O 339.372 1.06094 -1.88608 0
M  V30 3612 C 339.967 -2.20996 -2.568 0
M  V30 3613 C 338.526 -2.13649 -3.09888 0
M  V30 3614 C 337.673 -2.08623 -1.82679 0
M  V30 3615 H 340.624 -1.44895 -0.647395 0
M  V30 3616 H 340.645 -1.81621 -3.34356 0
M  V30 3617 H 340.157 -3.2158 -2.17274 0
M  V30 3618 H 338.258 -1.16359 -3.53965 0
M  V30 3619 H 338.371 -3.04079 -3.70234 0
M  V30 3620 H 336.735 -1.54061 -2.02824 0
M  V30 3621 H 337.518 -3.1101 -1.45353 0
M  V30 3622 N 339.963 1.05934 -1.16686 0
M  V30 3623 C 341.211 1.78447 -0.948744 0
M  V30 3624 C 341.532 1.87813 0.524523 0
M  V30 3625 O 340.802 1.38945 1.38098 0
M  V30 3626 H 339.382 0.660971 -0.348033 0
M  V30 3627 H 342.044 1.27947 -1.47022 0
M  V30 3628 H 341.14 2.80394 -1.37061 0
M  V30 3629 N 341.441 0.965919 1.2453 0
M  V30 3630 C 342.687 0.62776 1.92839 0
M  V30 3631 C 343.02 -0.834694 1.75347 0
M  V30 3632 O 342.295 -1.60031 1.10546 0
M  V30 3633 C 342.578 1.00109 3.45905 0
M  V30 3634 C 342.431 2.52011 3.72573 0
M  V30 3635 C 343.75 0.53435 4.36844 0
M  V30 3636 H 340.869 0.229537 0.700344 0
M  V30 3637 H 343.511 1.2046 1.46933 0
M  V30 3638 H 341.661 0.510238 3.85135 0
M  V30 3639 H 343.333 3.08559 3.42912 0
M  V30 3640 H 341.576 2.95287 3.17786 0
M  V30 3641 H 342.247 2.73183 4.79661 0
M  V30 3642 H 344.723 0.955565 4.04979 0
M  V30 3643 H 343.599 0.824152 5.42678 0
M  V30 3644 H 343.86 -0.565589 4.38467 0
M  V30 3645 N 342.919 -1.39368 0.735821 0
M  V30 3646 C 344.165 -2.00794 0.284544 0
M  V30 3647 C 344.498 -1.58255 -1.12557 0
M  V30 3648 O 343.773 -0.811819 -1.76748 0
M  V30 3649 C 344.056 -3.58011 0.387337 0
M  V30 3650 C 343.909 -4.10566 1.83728 0
M  V30 3651 C 345.228 -4.395 -0.22975 0
M  V30 3652 H 342.347 -0.729501 0.104866 0
M  V30 3653 H 344.989 -1.65564 0.93213 0
M  V30 3654 H 343.139 -3.88154 -0.164006 0
M  V30 3655 H 344.811 -3.91139 2.44556 0
M  V30 3656 H 343.054 -3.64095 2.35833 0
M  V30 3657 H 343.725 -5.19702 1.86047 0
M  V30 3658 H 346.201 -4.15406 0.240257 0
M  V30 3659 H 345.077 -5.48752 -0.127485 0
M  V30 3660 H 345.338 -4.22062 -1.3159 0
M  V30 3661 N 344.397 -0.483516 -1.5 0
M  V30 3662 C 345.345 0.318061 -2.30415 0
M  V30 3663 C 346.339 0.978988 -1.38247 0
M  V30 3664 O 347.545 0.908673 -1.55381 0
M  V30 3665 H 343.92 0.121419 -0.742133 0
M  V30 3666 H 345.891 -0.380403 -2.95965 0
M  V30 3667 C 344.64 1.38013 -3.19136 0
M  V30 3668 H 343.963 0.880952 -3.89973 0
M  V30 3669 H 345.403 1.91332 -3.78375 0
M  V30 3670 C 343.862 2.38884 -2.37563 0
M  V30 3671 O 344.392 3.44412 -2.06744 0
M  V30 3672 N 342.598 2.10912 -1.99911 0
M  V30 3673 H 342.145 1.25118 -2.25174 0
M  V30 3674 H 342.103 2.78635 -1.45636 0
M  V30 3675 N 345.875 1.56104 -0.216619 0
M  V30 3676 C 347.122 1.98172 0.416416 0
M  V30 3677 C 347.45 1.10413 1.60122 0
M  V30 3678 O 346.705 0.147967 1.9514 0
M  V30 3679 C 347.004 3.45923 0.898464 0
M  V30 3680 C 346.67 4.50559 -0.175288 0
M  V30 3681 C 345.332 4.78897 -0.470271 0
M  V30 3682 C 347.684 5.1334 -0.901728 0
M  V30 3683 C 345.012 5.67299 -1.4963 0
M  V30 3684 C 347.364 6.02853 -1.91705 0
M  V30 3685 C 346.028 6.29537 -2.21901 0
M  V30 3686 H 345.298 0.725164 0.152377 0
M  V30 3687 H 347.945 1.88839 -0.318103 0
M  V30 3688 H 346.25 3.52434 1.71165 0
M  V30 3689 H 347.947 3.75841 1.39803 0
M  V30 3690 H 344.537 4.28551 0.0647806 0
M  V30 3691 H 348.721 4.91521 -0.687072 0
M  V30 3692 H 343.977 5.86239 -1.73592 0
M  V30 3693 H 348.151 6.50552 -2.48505 0
M  V30 3694 H 345.778 6.97835 -3.01548 0
M  V30 3695 N 347.353 -0.0568162 1.57498 0
M  V30 3696 C 348.283 -1.06593 2.0775 0
M  V30 3697 C 349.264 -1.39448 0.974082 0
M  V30 3698 O 350.449 -1.48815 1.24771 0
M  V30 3699 C 347.579 -2.37509 2.5339 0
M  V30 3700 C 346.533 -2.1897 3.67745 0
M  V30 3701 C 345.859 -3.55402 3.99492 0
M  V30 3702 C 347.159 -1.59859 4.97235 0
M  V30 3703 H 348.853 -0.647706 2.9231 0
M  V30 3704 H 346.399 -0.310116 1.40621 0
M  V30 3705 H 348.352 -3.08409 2.87162 0
M  V30 3706 H 347.076 -2.8134 1.65878 0
M  V30 3707 H 345.735 -1.50508 3.3428 0
M  V30 3708 H 345.383 -3.9683 3.09088 0
M  V30 3709 H 345.083 -3.43831 4.76502 0
M  V30 3710 H 346.607 -4.27708 4.35773 0
M  V30 3711 H 348.021 -2.20642 5.29141 0
M  V30 3712 H 346.418 -1.58942 5.78669 0
M  V30 3713 H 347.488 -0.561506 4.81638 0
M  V30 3714 N 348.832 -1.54138 -0.328536 0
M  V30 3715 C 350.243 -1.63395 -0.903272 0
M  V30 3716 C 350.594 -0.524828 -1.8905 0
M  V30 3717 O 349.719 0.343068 -2.13663 0
M  V30 3718 C 350.314 -2.9618 -1.64507 0
M  V30 3719 C 348.873 -3.0765 -2.1686 0
M  V30 3720 C 348.02 -2.58933 -0.992416 0
M  V30 3721 H 350.971 -1.58344 -0.106253 0
M  V30 3722 H 350.992 -2.86061 -2.50897 0
M  V30 3723 H 350.504 -3.76884 -0.926302 0
M  V30 3724 H 348.605 -2.31611 -2.91868 0
M  V30 3725 H 348.718 -4.1337 -2.42202 0
M  V30 3726 H 347.082 -2.14706 -1.37016 0
M  V30 3727 H 347.865 -3.42089 -0.288041 0
M  V30 3728 N 350.31 0.590341 -1.46126 0
M  V30 3729 C 351.558 1.34616 -1.50742 0
M  V30 3730 C 351.879 1.94363 -0.157486 0
M  V30 3731 O 351.149 1.78136 0.815136 0
M  V30 3732 H 349.729 0.499789 -0.555175 0
M  V30 3733 H 352.391 0.691953 -1.82203 0
M  V30 3734 H 351.487 2.15678 -2.25587 0
M  V30 3735 N 351.788 1.33704 0.83433 0
M  V30 3736 C 353.034 1.25603 1.59222 0
M  V30 3737 C 353.367 -0.176659 1.93395 0
M  V30 3738 O 352.642 -1.11915 1.59076 0
M  V30 3739 C 352.925 2.13576 2.89926 0
M  V30 3740 C 352.778 3.65326 2.62406 0
M  V30 3741 C 354.097 2.01238 3.91397 0
M  V30 3742 H 351.216 0.457613 0.577719 0
M  V30 3743 H 353.858 1.63848 0.961972 0
M  V30 3744 H 352.008 1.8109 3.43713 0
M  V30 3745 H 353.68 4.08124 2.15017 0
M  V30 3746 H 351.923 3.8698 1.96033 0
M  V30 3747 H 352.594 4.22232 3.55562 0
M  V30 3748 H 355.07 2.29738 3.46929 0
M  V30 3749 H 353.946 2.65036 4.80673 0
M  V30 3750 H 354.207 0.985951 4.30966 0
M  V30 3751 N 353.266 -1.05314 1.17247 0
M  V30 3752 C 354.514 -1.77941 0.958194 0
M  V30 3753 C 354.835 -1.88089 -0.514556 0
M  V30 3754 O 354.105 -1.39676 -1.37359 0
M  V30 3755 H 352.685 -0.659116 0.351533 0
M  V30 3756 H 355.347 -1.27166 1.47699 0
M  V30 3757 H 354.443 -2.79663 1.38546 0
M  V30 3758 N 354.744 -0.972509 -1.24016 0
M  V30 3759 C 355.654 -0.5143 -2.28893 0
M  V30 3760 C 356.67 0.427078 -1.68677 0
M  V30 3761 O 357.846 0.298939 -1.99169 0
M  V30 3762 C 354.911 0.183598 -3.46214 0
M  V30 3763 C 353.972 -0.798202 -4.21814 0
M  V30 3764 C 353.205 -0.133514 -5.33533 0
M  V30 3765 O 353.428 1.07714 -5.60137 0
M  V30 3766 O 352.362 -0.828103 -5.96176 0
M  V30 3767 H 356.188 -1.38629 -2.70214 0
M  V30 3768 H 353.773 -0.739769 -1.29799 0
M  V30 3769 H 355.655 0.575433 -4.17453 0
M  V30 3770 H 354.33 1.03048 -3.0686 0
M  V30 3771 H 353.237 -1.24059 -3.52931 0
M  V30 3772 H 354.57 -1.61364 -4.64997 0
M  V30 3773 N 356.222 1.38976 -0.743202 0
M  V30 3774 C 357.132 2.3434 -0.110399 0
M  V30 3775 C 358.148 1.58741 0.712559 0
M  V30 3776 O 359.324 1.9099 0.639125 0
M  V30 3777 C 356.389 3.37812 0.780012 0
M  V30 3778 C 355.45 4.29263 -0.0561319 0
M  V30 3779 C 354.683 5.27793 0.791875 0
M  V30 3780 O 354.906 5.33043 2.03031 0
M  V30 3781 O 353.84 6.01512 0.216183 0
M  V30 3782 H 357.666 2.90129 -0.897714 0
M  V30 3783 H 355.251 1.40643 -0.503966 0
M  V30 3784 H 357.133 4.01194 1.28923 0
M  V30 3785 H 355.808 2.84395 1.546 0
M  V30 3786 H 354.715 3.69076 -0.611056 0
M  V30 3787 H 356.048 4.85907 -0.784531 0
M  V30 3788 N 357.7 0.491464 1.49741 0
M  V30 3789 C 358.946 -0.0565092 2.02721 0
M  V30 3790 C 359.279 -1.37522 1.37118 0
M  V30 3791 O 358.554 -1.87866 0.503645 0
M  V30 3792 C 358.837 -0.219051 3.59433 0
M  V30 3793 C 358.69 1.12211 4.35579 0
M  V30 3794 C 360.009 -0.964157 4.29409 0
M  V30 3795 H 357.128 -0.0190627 0.736753 0
M  V30 3796 H 359.77 0.641021 1.7886 0
M  V30 3797 H 357.92 -0.813165 3.79895 0
M  V30 3798 H 359.592 1.75437 4.26637 0
M  V30 3799 H 357.835 1.71377 3.98513 0
M  V30 3800 H 358.506 0.961794 5.43556 0
M  V30 3801 H 360.982 -0.460378 4.13545 0
M  V30 3802 H 359.858 -1.04671 5.38828 0
M  V30 3803 H 360.119 -2.00563 3.93988 0
M  V30 3804 N 359.178 -1.55987 0.224894 0
M  V30 3805 C 360.426 -1.97998 -0.405099 0
M  V30 3806 C 360.747 -1.11387 -1.60056 0
M  V30 3807 O 360.017 -0.191645 -1.9496 0
M  V30 3808 H 358.597 -0.731235 -0.152658 0
M  V30 3809 H 361.259 -1.92279 0.318567 0
M  V30 3810 H 360.355 -3.03463 -0.729167 0
M  V30 3811 N 360.656 0.0484629 -1.57525 0
M  V30 3812 C 361.619 1.03956 -2.04269 0
M  V30 3813 C 362.619 1.30211 -0.943496 0
M  V30 3814 O 363.809 1.25539 -1.20771 0
M  V30 3815 C 360.941 2.37742 -2.44319 0
M  V30 3816 H 362.134 0.636182 -2.93075 0
M  V30 3817 H 359.687 0.294811 -1.53494 0
M  V30 3818 H 360.422 2.82866 -1.5861 0
M  V30 3819 H 360.207 2.20021 -3.24551 0
M  V30 3820 H 361.697 3.08936 -2.80978 0
M  V30 3821 N 362.134 1.5431 0.320358 0
M  V30 3822 C 363.364 1.7638 1.07582 0
M  V30 3823 C 363.772 0.513944 1.82086 0
M  V30 3824 O 363.115 -0.525123 1.76035 0
M  V30 3825 C 363.177 2.9055 2.1171 0
M  V30 3826 C 362.841 4.2934 1.56575 0
M  V30 3827 C 363.838 5.10077 1.00586 0
M  V30 3828 C 361.523 4.75893 1.60722 0
M  V30 3829 C 363.517 6.35477 0.494756 0
M  V30 3830 C 361.204 6.0126 1.09224 0
M  V30 3831 C 362.202 6.80886 0.53696 0
M  V30 3832 O 361.89 8.03894 0.0297371 0
M  V30 3833 H 361.622 0.592369 0.325692 0
M  V30 3834 H 364.176 2.02019 0.37116 0
M  V30 3835 H 362.406 2.60489 2.85801 0
M  V30 3836 H 364.095 3.00373 2.73003 0
M  V30 3837 H 364.861 4.75265 0.966869 0
M  V30 3838 H 360.74 4.13957 2.02882 0
M  V30 3839 H 364.284 6.97574 0.0606842 0
M  V30 3840 H 360.181 6.35562 1.12831 0
M  V30 3841 H 360.949 8.18372 0.14486 0
M  V30 3842 N 363.613 -0.582584 1.46437 0
M  V30 3843 C 364.543 -1.70187 1.59871 0
M  V30 3844 C 365.524 -1.64066 0.449042 0
M  V30 3845 O 366.709 -1.82081 0.6753 0
M  V30 3846 C 363.839 -3.08827 1.58881 0
M  V30 3847 C 362.793 -3.29779 2.72819 0
M  V30 3848 C 362.119 -4.68947 2.5689 0
M  V30 3849 C 363.419 -3.17601 4.1464 0
M  V30 3850 H 365.113 -1.592 2.53566 0
M  V30 3851 H 362.659 -0.764472 1.22032 0
M  V30 3852 H 364.612 -3.86951 1.66873 0
M  V30 3853 H 363.336 -3.20713 0.617306 0
M  V30 3854 H 361.995 -2.54054 2.64296 0
M  V30 3855 H 361.643 -4.77599 1.57823 0
M  V30 3856 H 361.343 -4.83919 3.33312 0
M  V30 3857 H 362.867 -5.4924 2.66773 0
M  V30 3858 H 364.281 -3.8557 4.24274 0
M  V30 3859 H 362.678 -3.44094 4.9165 0
M  V30 3860 H 363.748 -2.14681 4.34788 0
M  V30 3861 N 365.091 -1.34144 -0.827227 0
M  V30 3862 C 366.337 -1.26446 -1.58554 0
M  V30 3863 C 366.67 0.1664 -1.93486 0
M  V30 3864 O 365.945 1.1107 -1.59667 0
M  V30 3865 C 366.228 -2.15111 -2.8879 0
M  V30 3866 C 366.081 -3.66712 -2.60465 0
M  V30 3867 C 367.4 -2.03311 -3.90324 0
M  V30 3868 H 364.519 -0.46067 -0.575284 0
M  V30 3869 H 367.161 -1.64356 -0.953269 0
M  V30 3870 H 365.311 -1.8291 -3.42748 0
M  V30 3871 H 366.983 -4.09259 -2.1285 0
M  V30 3872 H 365.226 -3.88014 -1.93978 0
M  V30 3873 H 365.897 -4.24112 -3.53317 0
M  V30 3874 H 368.373 -2.31574 -3.45706 0
M  V30 3875 H 367.249 -2.67582 -4.79261 0
M  V30 3876 H 367.51 -1.00879 -4.30437 0
M  V30 3877 N 366.569 1.04691 -1.17803 0
M  V30 3878 C 367.479 2.16057 -0.914151 0
M  V30 3879 C 368.495 1.73589 0.119503 0
M  V30 3880 O 369.671 2.01308 -0.0609468 0
M  V30 3881 C 366.736 3.4394 -0.436603 0
M  V30 3882 C 365.797 4.00825 -1.53746 0
M  V30 3883 C 365.03 5.22604 -1.0826 0
M  V30 3884 O 365.253 5.70367 0.0612244 0
M  V30 3885 O 364.187 5.7186 -1.87775 0
M  V30 3886 H 368.013 2.41169 -1.84584 0
M  V30 3887 H 365.598 1.1453 -0.959334 0
M  V30 3888 H 367.48 4.21024 -0.178057 0
M  V30 3889 H 366.155 3.20316 0.466869 0
M  V30 3890 H 365.062 3.25158 -1.84995 0
M  V30 3891 H 366.395 4.28778 -2.41683 0
M  V30 3892 N 368.047 0.979072 1.23499 0
M  V30 3893 C 368.997 0.489378 2.22686 0
M  V30 3894 C 369.981 -0.434871 1.54912 0
M  V30 3895 O 371.173 -0.263941 1.75021 0
M  V30 3896 C 368.302 -0.208178 3.42668 0
M  V30 3897 C 367.388 0.735563 4.17672 0
M  V30 3898 N 367.779 1.87763 4.69658 0
M  V30 3899 C 366.077 0.548625 4.42613 0
M  V30 3900 C 366.778 2.46886 5.26709 0
M  V30 3901 N 365.754 1.75287 5.14563 0
M  V30 3902 H 369.556 1.36062 2.60508 0
M  V30 3903 H 367.07 0.83958 1.39014 0
M  V30 3904 H 369.067 -0.576295 4.12898 0
M  V30 3905 H 367.727 -1.07572 3.06363 0
M  V30 3906 H 368.738 2.25885 4.66043 0
M  V30 3907 H 365.415 -0.274006 4.166 0
M  V30 3908 H 366.805 3.43326 5.77561 0
M  V30 3909 N 369.525 -1.3858 0.750561 0
M  V30 3910 C 370.936 -1.82927 0.373438 0
M  V30 3911 C 371.287 -1.62634 -1.09748 0
M  V30 3912 O 370.412 -1.12588 -1.84805 0
M  V30 3913 C 371.007 -3.32088 0.671029 0
M  V30 3914 C 369.566 -3.74795 0.34722 0
M  V30 3915 C 368.713 -2.61391 0.92575 0
M  V30 3916 H 371.664 -1.27351 0.946958 0
M  V30 3917 H 371.685 -3.80465 -0.0518269 0
M  V30 3918 H 371.197 -3.46826 1.74164 0
M  V30 3919 H 369.298 -3.65638 -0.716933 0
M  V30 3920 H 369.411 -4.71667 0.840656 0
M  V30 3921 H 367.775 -2.52265 0.351327 0
M  V30 3922 H 368.558 -2.78929 2.00133 0
M  V30 3923 N 371.003 -0.499398 -1.49478 0
M  V30 3924 C 372.419 -0.155261 -1.58843 0
M  V30 3925 C 372.619 1.34008 -1.50479 0
M  V30 3926 O 371.675 2.11589 -1.37791 0
M  V30 3927 C 372.988 -0.730636 -2.91689 0
M  V30 3928 C 374.536 -0.696599 -3.0515 0
M  V30 3929 C 375.011 -1.25001 -4.40612 0
M  V30 3930 N 376.502 -1.21064 -4.47099 0
M  V30 3931 C 377.237 -1.60905 -5.50361 0
M  V30 3932 N 376.733 -2.08331 -6.60735 0
M  V30 3933 N 378.526 -1.52331 -5.41065 0
M  V30 3934 H 370.677 -1.47162 -1.53158 0
M  V30 3935 H 372.94 -0.610309 -0.725415 0
M  V30 3936 H 372.646 -1.77928 -3.03372 0
M  V30 3937 H 372.52 -0.190161 -3.7672 0
M  V30 3938 H 374.907 0.343204 -2.93097 0
M  V30 3939 H 374.988 -1.2742 -2.21806 0
M  V30 3940 H 374.632 -2.28859 -4.53416 0
M  V30 3941 H 374.562 -0.64836 -5.22593 0
M  V30 3942 H 377.053 -0.863128 -3.67911 0
M  V30 3943 H 377.366 -2.36805 -7.35624 0
M  V30 3944 H 375.711 -2.12304 -6.6178 0
M  V30 3945 H 378.902 -1.151 -4.53729 0
M  V30 3946 H 379.075 -1.83704 -6.21415 0
M  V30 3947 N 372.481 1.55866 -0.233164 0
M  V30 3948 C 373.73 1.97779 0.39579 0
M  V30 3949 C 374.043 1.12419 1.60066 0
M  V30 3950 O 375.249 1.44283 2.29988 0
M  V30 3951 C 373.705 3.5188 0.755556 0
M  V30 3952 C 373.313 4.45959 -0.427152 0
M  V30 3953 C 375.057 4.02479 1.34946 0
M  V30 3954 C 372.964 5.91383 -0.0443043 0
M  V30 3955 H 371.894 0.738592 0.15165 0
M  V30 3956 H 374.545 1.80486 -0.331212 0
M  V30 3957 H 372.927 3.64816 1.5403 0
M  V30 3958 H 374.101 4.44776 -1.20462 0
M  V30 3959 H 372.416 4.05765 -0.935068 0
M  V30 3960 H 375.013 5.08637 1.649 0
M  V30 3961 H 375.356 3.49014 2.26925 0
M  V30 3962 H 375.889 3.92813 0.62791 0
M  V30 3963 H 372.628 6.48857 -0.930874 0
M  V30 3964 H 372.148 5.95734 0.697238 0
M  V30 3965 H 373.827 6.45893 0.378334 0
M  V30 3966 N 373.959 -0.0401083 1.57549 0
M  V30 3967 C 375.375 -0.395556 1.54621 0
M  V30 3968 C 375.575 -1.77281 0.957799 0
M  V30 3969 O 374.631 -2.45888 0.574031 0
M  V30 3970 C 375.944 -0.307535 2.99123 0
M  V30 3971 C 377.492 -0.385425 3.10618 0
M  V30 3972 C 377.967 -0.326973 4.56831 0
M  V30 3973 N 379.458 -0.386102 4.61588 0
M  V30 3974 C 380.193 -0.363591 5.72246 0
M  V30 3975 N 379.689 -0.29402 6.92176 0
M  V30 3976 N 381.482 -0.412503 5.60584 0
M  V30 3977 H 373.633 0.861325 1.94152 0
M  V30 3978 H 375.896 0.326445 0.890021 0
M  V30 3979 H 375.602 0.638461 3.45856 0
M  V30 3980 H 375.476 -1.10552 3.60636 0
M  V30 3981 H 377.863 -1.32185 2.63839 0
M  V30 3982 H 377.944 0.44171 2.51957 0
M  V30 3983 H 377.588 0.605738 5.04275 0
M  V30 3984 H 377.518 -1.17207 5.13391 0
M  V30 3985 H 380.009 -0.442832 3.75296 0
M  V30 3986 H 380.322 -0.28164 7.72287 0
M  V30 3987 H 378.667 -0.260232 6.94513 0
M  V30 3988 H 381.858 -0.464769 4.65787 0
M  V30 3989 H 382.031 -0.391492 6.46816 0
M  V30 3990 N 375.437 -1.54477 -0.31217 0
M  V30 3991 C 376.684 -1.73227 -1.04875 0
M  V30 3992 C 377.012 -0.512042 -1.87639 0
M  V30 3993 O 376.267 0.506131 -1.89042 0
M  V30 3994 C 376.566 -2.967 -1.99258 0
M  V30 3995 C 376.232 -4.30974 -1.32559 0
M  V30 3996 C 374.894 -4.67477 -1.141 0
M  V30 3997 C 377.246 -5.14258 -0.847835 0
M  V30 3998 C 374.574 -5.84852 -0.465326 0
M  V30 3999 C 376.926 -6.32327 -0.185931 0
M  V30 4000 C 375.59 -6.67499 0.0107077 0
M  V30 4001 H 374.86 -0.633881 -0.383765 0
M  V30 4002 H 377.507 -1.88727 -0.324731 0
M  V30 4003 H 375.812 -2.75935 -2.7815 0
M  V30 4004 H 377.509 -3.08401 -2.563 0
M  V30 4005 H 374.099 -4.02262 -1.4793 0
M  V30 4006 H 378.283 -4.86565 -0.978192 0
M  V30 4007 H 373.539 -6.10654 -0.301883 0
M  V30 4008 H 377.713 -6.96135 0.192211 0
M  V30 4009 H 375.34 -7.58306 0.536287 0
M  V30 4010 N 376.915 0.57481 -1.46744 0
M  V30 4011 C 378.164 1.32898 -1.51727 0
M  V30 4012 C 378.477 1.948 -0.176692 0
M  V30 4013 O 379.683 2.71299 -0.104385 0
M  V30 4014 C 378.139 2.40901 -2.67385 0
M  V30 4015 C 377.747 1.85266 -4.07898 0
M  V30 4016 C 379.491 3.17609 -2.81646 0
M  V30 4017 C 377.398 2.90945 -5.14883 0
M  V30 4018 H 376.328 0.499631 -0.564699 0
M  V30 4019 H 378.979 0.612536 -1.72975 0
M  V30 4020 H 377.361 3.15379 -2.39483 0
M  V30 4021 H 378.535 1.17278 -4.45626 0
M  V30 4022 H 376.85 1.21199 -3.98371 0
M  V30 4023 H 379.447 3.96493 -3.58744 0
M  V30 4024 H 379.79 3.70696 -1.89448 0
M  V30 4025 H 380.323 2.50239 -3.09233 0
M  V30 4026 H 377.062 2.42736 -6.089 0
M  V30 4027 H 376.582 3.57398 -4.81691 0
M  V30 4028 H 378.261 3.54755 -5.41071 0
M  V30 4029 N 378.394 1.34581 0.820102 0
M  V30 4030 C 379.342 1.26401 1.95258 0
M  V30 4031 C 380.336 0.161553 1.68628 0
M  V30 4032 O 381.542 0.326703 1.7701 0
M  V30 4033 H 377.917 0.392749 0.64129 0
M  V30 4034 H 379.888 2.22105 1.99279 0
M  V30 4035 C 378.637 1.03919 3.31807 0
M  V30 4036 H 377.96 1.87984 3.52848 0
M  V30 4037 H 379.4 1.02232 4.11491 0
M  V30 4038 C 377.859 -0.257433 3.35915 0
M  V30 4039 O 378.389 -1.25784 3.81499 0
M  V30 4040 N 376.595 -0.291524 2.89134 0
M  V30 4041 H 376.142 0.523161 2.52232 0
M  V30 4042 H 376.1 -1.15883 2.92264 0
M  V30 4043 N 379.872 -1.04064 1.18357 0
M  V30 4044 C 381.119 -1.77265 0.978947 0
M  V30 4045 C 381.447 -1.88189 -0.491428 0
M  V30 4046 O 380.702 -1.38653 -1.38108 0
M  V30 4047 C 381.001 -3.20634 1.57888 0
M  V30 4048 C 380.667 -3.29743 3.07539 0
M  V30 4049 C 379.329 -3.31937 3.48384 0
M  V30 4050 C 381.681 -3.29841 4.03552 0
M  V30 4051 C 379.009 -3.3187 4.83818 0
M  V30 4052 C 381.361 -3.31313 5.38901 0
M  V30 4053 C 380.025 -3.31799 5.79194 0
M  V30 4054 H 379.295 -0.648659 0.358222 0
M  V30 4055 H 381.942 -1.22225 1.47422 0
M  V30 4056 H 380.247 -3.78675 1.00561 0
M  V30 4057 H 381.944 -3.75917 1.39598 0
M  V30 4058 H 378.534 -3.28757 2.74986 0
M  V30 4059 H 382.718 -3.27337 3.73047 0
M  V30 4060 H 377.974 -3.30562 5.14333 0
M  V30 4061 H 382.148 -3.30338 6.13066 0
M  V30 4062 H 379.775 -3.315 6.84114 0
M  V30 4063 N 381.35 -0.985608 -1.22978 0
M  V30 4064 C 382.578 -0.675582 -1.95559 0
M  V30 4065 C 382.993 0.758413 -1.72897 0
M  V30 4066 O 382.35 1.51094 -1.02357 0
M  V30 4067 C 382.401 -0.96293 -3.48439 0
M  V30 4068 O 382.122 -2.34057 -3.70336 0
M  V30 4069 C 383.623 -0.669585 -4.38214 0
M  V30 4070 H 380.843 -0.250523 -0.622478 0
M  V30 4071 H 383.387 -1.3184 -1.56328 0
M  V30 4072 H 381.542 -0.366033 -3.85667 0
M  V30 4073 H 381.956 -2.43424 -4.64591 0
M  V30 4074 H 383.43 -0.920967 -5.44263 0
M  V30 4075 H 383.907 0.396383 -4.37408 0
M  V30 4076 H 384.513 -1.2472 -4.06602 0
M  V30 4077 N 382.828 1.3818 -0.7579 0
M  V30 4078 C 384.076 1.99624 -0.315361 0
M  V30 4079 C 384.397 1.60464 1.10799 0
M  V30 4080 O 383.667 0.863507 1.75842 0
M  V30 4081 H 382.247 0.73831 -0.113611 0
M  V30 4082 H 384.909 1.68878 -0.972952 0
M  V30 4083 H 384.005 3.09754 -0.381931 0
M  V30 4084 N 384.306 0.507319 1.49211 0
M  V30 4085 C 385.531 -0.033725 2.07373 0
M  V30 4086 C 385.956 -1.29485 1.36437 0
M  V30 4087 O 385.314 -1.76294 0.423087 0
M  V30 4088 C 385.362 -0.263945 3.59633 0
M  V30 4089 O 384.466 -1.33737 3.90113 0
M  V30 4090 H 383.807 0.0290331 0.663365 0
M  V30 4091 H 386.337 0.708749 1.91932 0
M  V30 4092 H 386.347 -0.493536 4.05004 0
M  V30 4093 H 385.022 0.657424 4.10671 0
M  V30 4094 H 383.599 -1.09224 3.56545 0
M  V30 4095 N 385.784 -1.5574 0.241426 0
M  V30 4096 C 386.714 -2.24133 -0.654722 0
M  V30 4097 C 387.695 -1.21974 -1.1856 0
M  V30 4098 O 388.88 -1.50612 -1.22595 0
M  V30 4099 C 386.01 -2.93659 -1.85423 0
M  V30 4100 C 384.964 -4.0246 -1.45636 0
M  V30 4101 C 384.29 -4.59383 -2.73626 0
M  V30 4102 C 385.59 -5.18468 -0.631506 0
M  V30 4103 H 387.284 -2.99281 -0.0844353 0
M  V30 4104 H 384.83 -1.43947 -0.0391707 0
M  V30 4105 H 386.783 -3.40203 -2.48676 0
M  V30 4106 H 385.507 -2.15991 -2.44981 0
M  V30 4107 H 384.166 -3.56676 -0.847202 0
M  V30 4108 H 383.814 -3.78422 -3.3137 0
M  V30 4109 H 383.514 -5.32826 -2.4773 0
M  V30 4110 H 385.038 -5.08658 -3.37786 0
M  V30 4111 H 386.452 -5.61272 -1.1682 0
M  V30 4112 H 384.849 -5.98266 -0.468831 0
M  V30 4113 H 385.919 -4.8358 0.357506 0
M  V30 4114 N 387.262 0.0317525 -1.57568 0
M  V30 4115 C 388.172 1.05021 -2.0978 0
M  V30 4116 C 389.188 1.39809 -1.03583 0
M  V30 4117 O 390.364 1.49182 -1.35302 0
M  V30 4118 C 387.429 2.33301 -2.56459 0
M  V30 4119 C 386.49 2.0512 -3.77127 0
M  V30 4120 C 385.723 3.27283 -4.2157 0
M  V30 4121 O 385.946 4.37861 -3.65559 0
M  V30 4122 O 384.88 3.13141 -5.14029 0
M  V30 4123 H 388.706 0.636505 -2.96955 0
M  V30 4124 H 386.291 0.248559 -1.47318 0
M  V30 4125 H 388.173 3.08722 -2.86825 0
M  V30 4126 H 386.848 2.73973 -1.72397 0
M  V30 4127 H 385.755 1.27276 -3.51784 0
M  V30 4128 H 387.088 1.69305 -4.62165 0
M  V30 4129 N 388.74 1.54641 0.303973 0
M  V30 4130 C 389.986 1.74038 1.04109 0
M  V30 4131 C 390.319 0.523051 1.87024 0
M  V30 4132 O 389.594 -0.479874 1.88487 0
M  V30 4133 C 389.877 3.02761 1.94955 0
M  V30 4134 C 389.73 4.34787 1.1524 0
M  V30 4135 C 391.049 3.27336 2.94175 0
M  V30 4136 H 388.168 0.63323 0.377079 0
M  V30 4137 H 390.81 1.87354 0.316001 0
M  V30 4138 H 388.96 2.9154 2.56782 0
M  V30 4139 H 390.632 4.57922 0.557236 0
M  V30 4140 H 388.875 4.31407 0.455053 0
M  V30 4141 H 389.546 5.21116 1.8205 0
M  V30 4142 H 392.022 3.38148 2.42477 0
M  V30 4143 H 390.898 4.18726 3.54908 0
M  V30 4144 H 391.159 2.45491 3.67677 0
M  V30 4145 N 390.218 -0.567019 1.47046 0
M  V30 4146 C 391.466 -1.322 1.52864 0
M  V30 4147 C 391.787 -1.94088 0.188388 0
M  V30 4148 O 391.057 -1.7941 -0.786693 0
M  V30 4149 H 389.637 -0.490894 0.563056 0
M  V30 4150 H 392.299 -0.662879 1.83281 0
M  V30 4151 H 391.395 -2.12062 2.2899 0
M  V30 4152 N 391.696 -1.35014 -0.812953 0
M  V30 4153 C 392.626 -1.30069 -1.93919 0
M  V30 4154 C 393.607 -0.176275 -1.69184 0
M  V30 4155 O 394.792 -0.370227 -1.90638 0
M  V30 4156 C 391.922 -1.06547 -3.30552 0
M  V30 4157 C 390.876 -2.15561 -3.69753 0
M  V30 4158 C 390.202 -1.77214 -5.04479 0
M  V30 4159 C 391.502 -3.57476 -3.808 0
M  V30 4160 H 393.196 -2.24303 -1.98314 0
M  V30 4161 H 390.742 -1.07977 -0.952736 0
M  V30 4162 H 392.695 -1.01729 -4.08937 0
M  V30 4163 H 391.419 -0.0875719 -3.26483 0
M  V30 4164 H 390.078 -2.19466 -2.9365 0
M  V30 4165 H 389.726 -0.780589 -4.96906 0
M  V30 4166 H 389.426 -2.50184 -5.31678 0
M  V30 4167 H 390.95 -1.7391 -5.8531 0
M  V30 4168 H 392.364 -3.55929 -4.4943 0
M  V30 4169 H 390.761 -4.29152 -4.19462 0
M  V30 4170 H 391.831 -3.94091 -2.82525 0
M  V30 4171 N 393.175 1.03435 -1.18907 0
M  V30 4172 C 394.122 2.11591 -0.921837 0
M  V30 4173 C 395.092 1.65499 0.141226 0
M  V30 4174 O 396.277 1.908 0.000242829 0
M  V30 4175 C 393.417 3.42012 -0.460616 0
M  V30 4176 C 392.53 4.01682 -1.58982 0
M  V30 4177 C 391.665 5.20091 -1.08069 0
M  V30 4178 C 390.704 5.71805 -2.18416 0
M  V30 4179 N 389.841 6.81494 -1.68849 0
M  V30 4180 H 394.681 2.33787 -1.8479 0
M  V30 4181 H 392.218 1.1467 -0.921373 0
M  V30 4182 H 394.176 4.16834 -0.174642 0
M  V30 4183 H 392.806 3.19944 0.428467 0
M  V30 4184 H 391.858 3.24127 -1.99113 0
M  V30 4185 H 393.17 4.36084 -2.4214 0
M  V30 4186 H 392.324 6.02051 -0.749615 0
M  V30 4187 H 391.063 4.87209 -0.218771 0
M  V30 4188 H 390.068 4.88461 -2.5236 0
M  V30 4189 H 391.293 6.06728 -3.05054 0
M  V30 4190 H 389.239 6.50475 -0.849572 0
M  V30 4191 H 389.156 7.14994 -2.45601 0
M  V30 4192 H 390.424 7.67063 -1.38689 0
M  V30 4193 N 394.653 0.992116 1.22453 0
M  V30 4194 C 395.902 0.662992 1.90492 0
M  V30 4195 C 396.215 -0.808407 1.78113 0
M  V30 4196 O 397.421 -1.24908 2.41061 0
M  V30 4197 C 395.877 1.1353 3.41524 0
M  V30 4198 C 395.485 2.63187 3.62542 0
M  V30 4199 C 397.229 0.880465 4.15269 0
M  V30 4200 C 395.136 3.04024 5.0727 0
M  V30 4201 H 394.066 0.244278 0.713333 0
M  V30 4202 H 396.717 1.20157 1.38688 0
M  V30 4203 H 395.099 0.52485 3.92506 0
M  V30 4204 H 396.273 3.2957 3.22056 0
M  V30 4205 H 394.588 2.86543 3.02129 0
M  V30 4206 H 397.185 1.16128 5.21937 0
M  V30 4207 H 397.528 -0.183408 4.15896 0
M  V30 4208 H 398.061 1.45307 3.70312 0
M  V30 4209 H 394.8 4.09584 5.11782 0
M  V30 4210 H 394.32 2.42343 5.48662 0
M  V30 4211 H 395.999 2.95282 5.75689 0
M  V30 4212 N 396.131 -1.37776 0.765217 0
M  V30 4213 C 397.361 -2.03828 0.337277 0
M  V30 4214 C 397.769 -1.57841 -1.04321 0
M  V30 4215 O 397.112 -0.752043 -1.67601 0
M  V30 4216 C 397.174 -3.58292 0.294407 0
M  V30 4217 C 396.838 -4.27384 1.61838 0
M  V30 4218 C 397.835 -4.51956 2.56967 0
M  V30 4219 C 395.52 -4.65345 1.89102 0
M  V30 4220 C 397.514 -5.13536 3.77571 0
M  V30 4221 C 395.201 -5.26647 3.09978 0
M  V30 4222 C 396.199 -5.50679 4.04032 0
M  V30 4223 O 395.887 -6.10702 5.2278 0
M  V30 4224 H 395.619 -0.661292 0.140248 0
M  V30 4225 H 398.173 -1.77222 1.03834 0
M  V30 4226 H 396.403 -3.83918 -0.462983 0
M  V30 4227 H 398.092 -4.05763 -0.105581 0
M  V30 4228 H 398.858 -4.23048 2.37183 0
M  V30 4229 H 394.737 -4.45978 1.16725 0
M  V30 4230 H 398.281 -5.3221 4.50997 0
M  V30 4231 H 394.178 -5.54979 3.29649 0
M  V30 4232 H 394.946 -6.29183 5.23517 0
M  V30 4233 N 397.609 -0.515225 -1.4894 0
M  V30 4234 C 398.519 0.259774 -2.33157 0
M  V30 4235 C 399.535 0.953501 -1.45548 0
M  V30 4236 O 400.711 0.931735 -1.78552 0
M  V30 4237 C 397.776 1.30193 -3.21326 0
M  V30 4238 C 396.837 0.620129 -4.24797 0
M  V30 4239 C 396.07 1.61263 -5.08753 0
M  V30 4240 O 396.293 2.84389 -4.94448 0
M  V30 4241 O 395.227 1.16013 -5.90614 0
M  V30 4242 H 399.053 -0.429932 -3.00641 0
M  V30 4243 H 396.638 -0.276346 -1.46822 0
M  V30 4244 H 398.52 1.90455 -3.75905 0
M  V30 4245 H 397.195 1.97431 -2.56521 0
M  V30 4246 H 396.102 -0.0226019 -3.74093 0
M  V30 4247 H 397.435 -0.0100493 -4.92199 0
M  V30 4248 N 399.087 1.5561 -0.249682 0
M  V30 4249 C 400.05 2.20217 0.635394 0
M  V30 4250 C 401.05 1.17227 1.10066 0
M  V30 4251 O 402.24 1.42292 1.00492 0
M  V30 4252 C 399.372 2.84794 1.87363 0
M  V30 4253 H 400.565 2.99814 0.0716752 0
M  V30 4254 H 398.118 1.563 -0.000153234 0
M  V30 4255 H 398.853 2.09142 2.47851 0
M  V30 4256 H 398.638 3.60241 1.5482 0
M  V30 4257 H 400.128 3.3423 2.5036 0
M  V30 4258 N 400.565 -0.0233959 1.57583 0
M  V30 4259 C 401.528 -1.00693 2.05897 0
M  V30 4260 C 402.528 -1.28693 0.964092 0
M  V30 4261 O 403.718 -1.23602 1.22753 0
M  V30 4262 C 400.85 -2.33825 2.4807 0
M  V30 4263 H 402.043 -0.589476 2.9405 0
M  V30 4264 H 399.596 -0.270354 1.53944 0
M  V30 4265 H 400.331 -2.80307 1.6309 0
M  V30 4266 H 400.116 -2.1483 3.2801 0
M  V30 4267 H 401.606 -3.04426 2.85857 0
M  V30 4268 N 402.043 -1.548 -0.295768 0
M  V30 4269 C 403.291 -1.73985 -1.02828 0
M  V30 4270 C 403.612 -0.531406 -1.87619 0
M  V30 4271 O 402.882 0.454221 -1.90561 0
M  V30 4272 H 401.462 -0.641556 -0.382642 0
M  V30 4273 H 404.124 -1.92163 -0.325489 0
M  V30 4274 H 403.22 -2.63129 -1.67838 0
M  V30 4275 N 403.521 0.559213 -1.47345 0
M  V30 4276 C 404.937 0.884943 -1.32819 0
M  V30 4277 C 405.137 1.98988 -0.317173 0
M  V30 4278 O 404.193 2.51031 0.272011 0
M  V30 4279 C 405.506 1.28007 -2.72093 0
M  V30 4280 C 407.054 1.39161 -2.80363 0
M  V30 4281 C 407.529 1.82031 -4.20272 0
M  V30 4282 N 409.02 1.89185 -4.22804 0
M  V30 4283 C 409.755 2.2368 -5.27973 0
M  V30 4284 N 409.251 2.56802 -6.43447 0
M  V30 4285 N 411.044 2.24436 -5.15349 0
M  V30 4286 H 403.195 -0.170304 -2.11716 0
M  V30 4287 H 405.458 -0.0135247 -0.947904 0
M  V30 4288 H 405.164 0.542027 -3.47498 0
M  V30 4289 H 405.038 2.23665 -3.03733 0
M  V30 4290 H 407.425 2.12048 -2.05231 0
M  V30 4291 H 407.506 0.41696 -2.52379 0
M  V30 4292 H 407.15 1.09715 -4.95908 0
M  V30 4293 H 407.08 2.80495 -4.45679 0
M  V30 4294 H 409.571 1.65982 -3.39497 0
M  V30 4295 H 409.884 2.82144 -7.19454 0
M  V30 4296 H 408.229 2.54387 -6.46771 0
M  V30 4297 H 411.42 1.97998 -4.24163 0
M  V30 4298 H 411.593 2.50989 -5.97418 0
M  V30 4299 N 404.999 1.35443 0.805782 0
M  V30 4300 C 405.929 1.31095 1.93226 0
M  V30 4301 C 406.91 0.185244 1.69088 0
M  V30 4302 O 408.095 0.380332 1.90439 0
M  V30 4303 C 405.225 1.08299 3.29983 0
M  V30 4304 C 404.179 2.17519 3.68605 0
M  V30 4305 C 403.505 1.79887 5.03532 0
M  V30 4306 C 404.805 3.5949 3.78898 0
M  V30 4307 H 406.499 2.25352 1.97122 0
M  V30 4308 H 404.045 1.0848 0.946996 0
M  V30 4309 H 405.998 1.03897 4.08391 0
M  V30 4310 H 404.722 0.104885 3.26432 0
M  V30 4311 H 403.381 2.2102 2.92482 0
M  V30 4312 H 403.029 0.80693 4.96485 0
M  V30 4313 H 402.729 2.53001 5.30344 0
M  V30 4314 H 404.253 1.77011 5.84379 0
M  V30 4315 H 405.667 3.58307 4.47536 0
M  V30 4316 H 404.064 4.31371 4.1718 0
M  V30 4317 H 405.134 3.95584 2.80431 0
M  V30 4318 N 406.477 -1.02803 1.19454 0
M  V30 4319 C 407.44 -2.09264 0.934955 0
M  V30 4320 C 408.44 -1.60576 -0.0849015 0
M  V30 4321 O 409.63 -1.73554 0.149933 0
M  V30 4322 C 406.762 -3.38482 0.40531 0
M  V30 4323 H 407.955 -2.33726 1.87916 0
M  V30 4324 H 405.508 -1.19426 1.00832 0
M  V30 4325 H 406.243 -3.19689 -0.544899 0
M  V30 4326 H 406.028 -3.75142 1.14065 0
M  V30 4327 H 407.518 -4.16894 0.242806 0
M  V30 4328 N 407.956 -0.998596 -1.21925 0
M  V30 4329 C 409.367 -0.711939 -1.72593 0
M  V30 4330 C 409.718 0.770842 -1.80423 0
M  V30 4331 O 408.843 1.60237 -1.4544 0
M  V30 4332 C 409.438 -1.28567 -3.13458 0
M  V30 4333 C 407.997 -1.04828 -3.61508 0
M  V30 4334 C 407.144 -1.4024 -2.39224 0
M  V30 4335 H 410.095 -1.17027 -1.07193 0
M  V30 4336 H 410.116 -0.667098 -3.74607 0
M  V30 4337 H 409.628 -2.36486 -3.07727 0
M  V30 4338 H 407.729 0.0140383 -3.72597 0
M  V30 4339 H 407.842 -1.71566 -4.47328 0
M  V30 4340 H 406.206 -0.821077 -2.41103 0
M  V30 4341 H 406.989 -2.49176 -2.36149 0
M  V30 4342 N 409.434 1.37368 -0.772513 0
M  V30 4343 C 410.682 1.99279 -0.336516 0
M  V30 4344 C 411.003 1.6163 1.09091 0
M  V30 4345 O 410.273 0.882109 1.74916 0
M  V30 4346 H 408.853 0.737063 -0.121435 0
M  V30 4347 H 411.515 1.67836 -0.990809 0
M  V30 4348 H 410.611 3.09332 -0.414763 0
M  V30 4349 N 410.912 0.523116 1.48665 0
M  V30 4350 C 411.844 -0.280421 2.27478 0
M  V30 4351 C 412.857 -0.910694 1.34945 0
M  V30 4352 O 414.046 -0.790295 1.60052 0
M  V30 4353 C 411.146 -1.41171 3.08097 0
M  V30 4354 C 410.319 -0.884642 4.28361 0
M  V30 4355 C 409.378 -1.89622 4.90846 0
M  V30 4356 O 408.404 -1.4559 5.50265 0
M  V30 4357 N 409.606 -3.22801 4.82472 0
M  V30 4358 H 412.371 0.395481 2.97079 0
M  V30 4359 H 409.932 0.357018 1.57915 0
M  V30 4360 H 411.924 -2.08645 3.4677 0
M  V30 4361 H 410.494 -1.99139 2.40961 0
M  V30 4362 H 409.714 -0.0341177 3.94185 0
M  V30 4363 H 411.002 -0.511268 5.06225 0
M  V30 4364 H 410.4 -3.61246 4.35336 0
M  V30 4365 H 408.957 -3.85927 5.25265 0
M  V30 4366 N 412.39 -1.55475 0.257931 0
M  V30 4367 C 413.618 -2.03609 -0.367559 0
M  V30 4368 C 414.033 -1.13687 -1.50734 0
M  V30 4369 O 413.39 -0.153479 -1.81853 0
M  V30 4370 C 413.441 -3.51001 -0.864908 0
M  V30 4371 O 413.162 -4.37499 0.229465 0
M  V30 4372 C 414.663 -4.14946 -1.55997 0
M  V30 4373 H 411.883 -0.665459 -0.0860521 0
M  V30 4374 H 414.427 -2.00843 0.385014 0
M  V30 4375 H 412.582 -3.54266 -1.56762 0
M  V30 4376 H 412.996 -5.24286 -0.14998 0
M  V30 4377 H 414.47 -5.19735 -1.85956 0
M  V30 4378 H 414.947 -3.6209 -2.4857 0
M  V30 4379 H 415.553 -4.15635 -0.901543 0
M  V30 4380 N 413.868 0.0150385 -1.57593 0
M  V30 4381 C 415.114 0.69849 -1.91031 0
M  V30 4382 C 415.469 1.72208 -0.85804 0
M  V30 4383 O 414.762 1.91147 0.131614 0
M  V30 4384 C 414.956 1.39686 -3.28972 0
M  V30 4385 C 414.785 0.442428 -4.47518 0
M  V30 4386 C 413.555 0.0583223 -5.05266 0
M  V30 4387 C 415.753 -0.285072 -5.13509 0
M  V30 4388 N 413.735 -0.895893 -6.07328 0
M  V30 4389 C 415.106 -1.09447 -6.10263 0
M  V30 4390 C 417.161 -0.350518 -4.96665 0
M  V30 4391 C 415.864 -1.96333 -6.91987 0
M  V30 4392 C 417.89 -1.20655 -5.78962 0
M  V30 4393 C 417.252 -2.00383 -6.75297 0
M  V30 4394 H 413.351 0.22926 -0.747639 0
M  V30 4395 H 415.935 -0.0417748 -1.94655 0
M  V30 4396 H 414.106 2.1075 -3.2625 0
M  V30 4397 H 415.838 2.03381 -3.49883 0
M  V30 4398 H 412.593 0.423506 -4.71703 0
M  V30 4399 H 413.017 -1.36792 -6.63036 0
M  V30 4400 H 417.659 0.251596 -4.22051 0
M  V30 4401 H 415.377 -2.57618 -7.65936 0
M  V30 4402 H 418.963 -1.2609 -5.67972 0
M  V30 4403 H 417.843 -2.65552 -7.3787 0
M  V30 4404 N 415.346 1.54954 0.287554 0
M  V30 4405 C 416.593 1.74873 1.02106 0
M  V30 4406 C 416.921 0.541829 1.86801 0
M  V30 4407 O 416.176 -0.475992 1.89823 0
M  V30 4408 C 416.475 2.99833 1.94512 0
M  V30 4409 C 416.141 4.33029 1.25686 0
M  V30 4410 C 414.803 4.69233 1.06649 0
M  V30 4411 C 417.155 5.15542 0.765913 0
M  V30 4412 C 414.483 5.85518 0.372222 0
M  V30 4413 C 416.835 6.32542 0.0853101 0
M  V30 4414 C 415.499 6.67398 -0.1169 0
M  V30 4415 H 414.769 0.639906 0.373632 0
M  V30 4416 H 417.416 1.89219 0.294665 0
M  V30 4417 H 415.721 2.80325 2.73725 0
M  V30 4418 H 417.418 3.1244 2.51361 0
M  V30 4419 H 414.008 4.04564 1.41512 0
M  V30 4420 H 418.192 4.88059 0.90066 0
M  V30 4421 H 413.448 6.11057 0.204695 0
M  V30 4422 H 417.622 6.95741 -0.302936 0
M  V30 4423 H 415.249 7.57357 -0.656859 0
M  V30 4424 N 416.824 -0.551391 1.4764 0
M  V30 4425 C 417.771 -1.65796 1.60563 0
M  V30 4426 C 418.741 -1.59932 0.448428 0
M  V30 4427 O 419.926 -1.78679 0.669222 0
M  V30 4428 C 417.066 -3.04108 1.63133 0
M  V30 4429 C 416.179 -3.20365 2.89811 0
M  V30 4430 C 415.314 -4.49109 2.8368 0
M  V30 4431 C 414.353 -4.58819 4.05156 0
M  V30 4432 N 413.49 -5.78926 3.97227 0
M  V30 4433 H 418.33 -1.54088 2.5507 0
M  V30 4434 H 415.867 -0.75052 1.26513 0
M  V30 4435 H 417.825 -3.84207 1.62606 0
M  V30 4436 H 416.455 -3.14637 0.721341 0
M  V30 4437 H 415.507 -2.33659 3.00179 0
M  V30 4438 H 416.819 -3.23402 3.79753 0
M  V30 4439 H 415.973 -5.37475 2.81434 0
M  V30 4440 H 414.712 -4.4856 1.91431 0
M  V30 4441 H 413.717 -3.68864 4.077 0
M  V30 4442 H 414.942 -4.61124 4.98539 0
M  V30 4443 H 412.888 -5.79314 3.07785 0
M  V30 4444 H 412.805 -5.83367 4.80853 0
M  V30 4445 H 414.073 -6.69637 3.99007 0
M  V30 4446 N 418.302 -1.35869 -0.798587 0
M  V30 4447 C 419.718 -1.16082 -1.09532 0
M  V30 4448 C 419.918 0.0213124 -2.01489 0
M  V30 4449 O 418.974 0.689488 -2.42904 0
M  V30 4450 C 420.287 -2.46748 -1.7186 0
M  V30 4451 C 421.835 -2.53028 -1.84244 0
M  V30 4452 C 422.31 -3.83758 -2.49988 0
M  V30 4453 N 423.801 -3.85053 -2.57465 0
M  V30 4454 C 424.536 -4.8294 -3.09122 0
M  V30 4455 N 424.032 -5.91217 -3.61157 0
M  V30 4456 N 425.825 -4.70369 -3.0775 0
M  V30 4457 H 417.976 -2.11571 -0.187461 0
M  V30 4458 H 420.239 -0.936726 -0.145765 0
M  V30 4459 H 419.945 -3.33471 -1.11759 0
M  V30 4460 H 419.819 -2.61883 -2.71472 0
M  V30 4461 H 422.206 -1.66729 -2.43486 0
M  V30 4462 H 422.287 -2.418 -0.834643 0
M  V30 4463 H 421.931 -4.70459 -1.91393 0
M  V30 4464 H 421.861 -3.92278 -3.5132 0
M  V30 4465 H 424.352 -3.06822 -2.20609 0
M  V30 4466 H 424.665 -6.61892 -3.98896 0
M  V30 4467 H 423.01 -5.94899 -3.59333 0
M  V30 4468 H 426.201 -3.84914 -2.66381 0
M  V30 4469 H 426.374 -5.46816 -3.47701 0
M  V30 4470 N 419.78 1.02168 -1.19998 0
M  V30 4471 C 420.743 2.08765 -0.94604 0
M  V30 4472 C 421.743 1.60618 0.0763846 0
M  V30 4473 O 422.933 1.73472 -0.159135 0
M  V30 4474 C 420.065 3.38262 -0.423255 0
M  V30 4475 H 421.258 2.32726 -1.89153 0
M  V30 4476 H 418.811 1.1889 -1.01464 0
M  V30 4477 H 419.546 3.19974 0.527938 0
M  V30 4478 H 419.331 3.74532 -1.16053 0
M  V30 4479 H 420.821 4.16759 -0.264911 0
M  V30 4480 N 421.258 1.00505 1.21394 0
M  V30 4481 C 422.488 0.705584 1.94178 0
M  V30 4482 C 422.896 -0.735846 1.74304 0
M  V30 4483 O 422.239 -1.50954 1.04683 0
M  V30 4484 C 422.301 0.94689 3.46806 0
M  V30 4485 C 421.965 2.37517 3.90429 0
M  V30 4486 C 422.962 3.35539 3.97127 0
M  V30 4487 C 420.647 2.71284 4.22742 0
M  V30 4488 C 422.641 4.65395 4.3553 0
M  V30 4489 C 420.328 4.01356 4.60822 0
M  V30 4490 C 421.326 4.98223 4.67186 0
M  V30 4491 O 421.014 6.25969 5.04399 0
M  V30 4492 H 420.746 0.259216 0.624326 0
M  V30 4493 H 423.3 1.34592 1.55159 0
M  V30 4494 H 421.53 0.249386 3.85895 0
M  V30 4495 H 423.219 0.640804 4.0081 0
M  V30 4496 H 423.985 3.10786 3.7234 0
M  V30 4497 H 419.864 1.96581 4.16985 0
M  V30 4498 H 423.408 5.41002 4.40412 0
M  V30 4499 H 419.305 4.25893 4.85063 0
M  V30 4500 H 420.073 6.30085 5.22431 0
M  V30 4501 N 422.737 -1.36956 0.779787 0
M  V30 4502 C 423.983 -1.99787 0.348281 0
M  V30 4503 C 424.316 -1.61756 -1.07465 0
M  V30 4504 O 423.591 -0.867639 -1.74075 0
M  V30 4505 C 423.874 -3.56597 0.50104 0
M  V30 4506 C 423.727 -4.04513 1.96697 0
M  V30 4507 C 425.046 -4.40008 -0.0898097 0
M  V30 4508 H 422.165 -0.725796 0.128022 0
M  V30 4509 H 424.807 -1.62514 0.984331 0
M  V30 4510 H 422.957 -3.88479 -0.0404347 0
M  V30 4511 H 424.629 -3.83161 2.56876 0
M  V30 4512 H 422.872 -3.56408 2.47297 0
M  V30 4513 H 423.543 -5.1352 2.02486 0
M  V30 4514 H 426.019 -4.14431 0.372293 0
M  V30 4515 H 424.895 -5.4888 0.0471605 0
M  V30 4516 H 425.156 -4.26035 -1.18096 0
M  V30 4517 N 424.215 -0.530993 -1.48385 0
M  V30 4518 C 425.125 0.23503 -2.3342 0
M  V30 4519 C 426.141 0.93801 -1.46552 0
M  V30 4520 O 427.317 0.912745 -1.7953 0
M  V30 4521 C 424.382 1.26778 -3.22689 0
M  V30 4522 C 423.443 0.575038 -4.25431 0
M  V30 4523 C 422.676 1.55858 -5.10435 0
M  V30 4524 O 422.899 2.79129 -4.97437 0
M  V30 4525 O 421.833 1.09742 -5.91811 0
M  V30 4526 H 425.659 -0.461794 -3.00169 0
M  V30 4527 H 423.244 -0.291903 -1.46521 0
M  V30 4528 H 425.126 1.86457 -3.77904 0
M  V30 4529 H 423.801 1.94699 -2.586 0
M  V30 4530 H 422.708 -0.0622782 -3.74048 0
M  V30 4531 H 424.041 -0.062253 -4.92161 0
M  V30 4532 N 425.693 1.55336 -0.266172 0
M  V30 4533 C 426.921 2.03801 0.356756 0
M  V30 4534 C 427.336 1.14485 1.50129 0
M  V30 4535 O 426.693 0.163121 1.8177 0
M  V30 4536 C 426.744 3.51455 0.846281 0
M  V30 4537 O 426.465 4.37371 -0.252663 0
M  V30 4538 C 427.966 4.15767 1.53794 0
M  V30 4539 H 425.186 0.665906 0.0825218 0
M  V30 4540 H 427.73 2.00636 -0.39566 0
M  V30 4541 H 425.885 3.55092 1.54881 0
M  V30 4542 H 426.299 5.24358 0.122173 0
M  V30 4543 H 427.773 5.20714 1.83198 0
M  V30 4544 H 428.25 3.63404 2.46646 0
M  V30 4545 H 428.856 4.16107 0.879488 0
M  V30 4546 N 427.171 -0.0066808 1.57599 0
M  V30 4547 C 428.419 -0.691552 1.899 0
M  V30 4548 C 428.74 -1.74682 0.866672 0
M  V30 4549 O 428.01 -1.95661 -0.0968189 0
M  V30 4550 H 426.59 -0.258416 0.700878 0
M  V30 4551 H 429.252 0.0326655 1.94873 0
M  V30 4552 H 428.348 -1.16702 2.8946 0
M  V30 4553 N 428.649 -1.55105 -0.279332 0
M  V30 4554 C 429.897 -1.75066 -1.00977 0
M  V30 4555 C 430.218 -0.551276 -1.87045 0
M  V30 4556 O 429.488 0.433984 -1.91032 0
M  V30 4557 H 428.068 -0.645578 -0.375816 0
M  V30 4558 H 430.73 -1.92497 -0.305089 0
M  V30 4559 H 429.826 -2.64894 -1.65038 0
M  V30 4560 N 430.127 0.543554 -1.4793 0
M  V30 4561 C 431.074 1.64942 -1.6144 0
M  V30 4562 C 432.044 1.59692 -0.456903 0
M  V30 4563 O 433.229 1.78321 -0.678688 0
M  V30 4564 C 430.369 3.03238 -1.64744 0
M  V30 4565 C 429.482 3.18823 -2.91506 0
M  V30 4566 C 428.617 4.47599 -2.86057 0
M  V30 4567 C 427.656 4.56664 -4.07584 0
M  V30 4568 N 426.793 5.76811 -4.00292 0
M  V30 4569 H 431.633 1.52733 -2.55884 0
M  V30 4570 H 429.17 0.7438 -1.2691 0
M  V30 4571 H 431.128 3.83339 -1.64641 0
M  V30 4572 H 429.758 3.1425 -0.738017 0
M  V30 4573 H 428.81 2.32064 -3.01414 0
M  V30 4574 H 430.122 3.21384 -3.81463 0
M  V30 4575 H 429.276 5.35975 -2.84281 0
M  V30 4576 H 428.015 4.47538 -1.93807 0
M  V30 4577 H 427.02 3.66697 -4.09651 0
M  V30 4578 H 428.245 4.58474 -5.00978 0
M  V30 4579 H 426.191 5.77673 -3.10853 0
M  V30 4580 H 426.108 5.80808 -4.8394 0
M  V30 4581 H 427.376 6.67512 -4.02553 0
M  V30 4582 N 431.605 1.3629 0.791371 0
M  V30 4583 C 432.553 1.30514 1.92533 0
M  V30 4584 C 433.547 0.197285 1.68247 0
M  V30 4585 O 434.753 0.364176 1.76278 0
M  V30 4586 H 431.128 0.406263 0.632815 0
M  V30 4587 H 433.099 2.26282 1.94523 0
M  V30 4588 C 431.848 1.10933 3.29529 0
M  V30 4589 H 431.171 1.95427 3.48781 0
M  V30 4590 H 432.611 1.10937 4.0923 0
M  V30 4591 C 431.07 -0.186123 3.36385 0
M  V30 4592 O 431.6 -1.17664 3.84081 0
M  V30 4593 N 429.806 -0.230128 2.89687 0
M  V30 4594 H 429.353 0.576545 2.51065 0
M  V30 4595 H 429.311 -1.09658 2.94657 0
M  V30 4596 N 433.083 -1.0153 1.20538 0
M  V30 4597 C 434.046 -2.0826 0.957098 0
M  V30 4598 C 435.046 -1.60657 -0.0678655 0
M  V30 4599 O 436.236 -1.73385 0.168332 0
M  V30 4600 C 433.368 -3.38033 0.441188 0
M  V30 4601 H 434.561 -2.31719 1.90384 0
M  V30 4602 H 432.114 -1.1835 1.02093 0
M  V30 4603 H 432.849 -3.20249 -0.510961 0
M  V30 4604 H 432.634 -3.73911 1.18038 0
M  V30 4605 H 434.124 -4.16613 0.287009 0
M  V30 4606 N 434.561 -1.01147 -1.20859 0
M  V30 4607 C 435.81 -0.693214 -1.89413 0
M  V30 4608 C 436.123 0.779969 -1.79376 0
M  V30 4609 O 437.329 1.21057 -2.43017 0
M  V30 4610 C 435.785 -1.18949 -3.39675 0
M  V30 4611 C 435.393 -2.68921 -3.58309 0
M  V30 4612 C 437.137 -0.94642 -4.13815 0
M  V30 4613 C 435.044 -3.12056 -5.0237 0
M  V30 4614 H 433.974 -0.255595 -0.709357 0
M  V30 4615 H 436.625 -1.22349 -1.36759 0
M  V30 4616 H 435.007 -0.587228 -3.91622 0
M  V30 4617 H 436.181 -3.34652 -3.16772 0
M  V30 4618 H 434.496 -2.91314 -2.97532 0
M  V30 4619 H 437.093 -1.24417 -5.20023 0
M  V30 4620 H 437.436 0.117219 -4.16135 0
M  V30 4621 H 437.969 -1.5118 -3.67953 0
M  V30 4622 H 434.708 -4.17674 -5.05202 0
M  V30 4623 H 434.228 -2.51041 -5.44737 0
M  V30 4624 H 435.907 -3.04403 -5.70918 0
M  V30 4625 N 436.039 1.36541 -0.78704 0
M  V30 4626 C 437.288 1.98552 -0.35494 0
M  V30 4627 C 437.601 1.63171 1.07864 0
M  V30 4628 O 438.807 2.18399 1.61289 0
M  V30 4629 C 437.263 3.55136 -0.583671 0
M  V30 4630 C 436.871 3.99444 -2.02851 0
M  V30 4631 C 438.615 4.2395 -0.215957 0
M  V30 4632 C 436.522 5.48796 -2.20403 0
M  V30 4633 H 435.452 0.742888 -0.128972 0
M  V30 4634 H 438.103 1.5587 -0.968337 0
M  V30 4635 H 436.485 3.95875 0.0994046 0
M  V30 4636 H 437.659 3.6991 -2.74779 0
M  V30 4637 H 435.974 3.43459 -2.35425 0
M  V30 4638 H 438.571 5.33709 -0.325405 0
M  V30 4639 H 438.914 4.07827 0.835646 0
M  V30 4640 H 439.447 3.88565 -0.852175 0
M  V30 4641 H 436.186 5.69864 -3.23937 0
M  V30 4642 H 435.706 5.79964 -1.52977 0
M  V30 4643 H 437.385 6.14986 -2.01002 0
M  V30 4644 N 437.518 0.538854 1.48102 0
M  V30 4645 C 438.764 0.00801365 2.02798 0
M  V30 4646 C 439.097 -1.3309 1.41424 0
M  V30 4647 O 438.372 -1.86169 0.563158 0
M  V30 4648 C 438.655 -0.104589 3.59948 0
M  V30 4649 C 438.508 1.26012 4.31788 0
M  V30 4650 C 439.827 -0.827055 4.32259 0
M  V30 4651 H 436.946 0.00438624 0.736987 0
M  V30 4652 H 439.588 0.6976 1.7673 0
M  V30 4653 H 437.738 -0.691893 3.82289 0
M  V30 4654 H 439.41 1.88922 4.2084 0
M  V30 4655 H 437.653 1.83968 3.92859 0
M  V30 4656 H 438.324 1.13424 5.40221 0
M  V30 4657 H 440.8 -0.328578 4.14801 0
M  V30 4658 H 439.676 -0.87476 5.41885 0
M  V30 4659 H 439.937 -1.87927 4.0017 0
M  V30 4660 N 438.996 -1.55193 0.274407 0
M  V30 4661 C 440.273 -1.91584 -0.394331 0
M  V30 4662 C 440.653 -1.19858 -1.73774 0
M  V30 4663 O 440.001 -0.3252 -2.26174 0
M  V30 4664 C 440.211 -3.4487 -0.535311 0
M  V30 4665 C 441.559 -4.16636 -0.818534 0
M  V30 4666 O 442.583 -3.5076 -0.620146 0
M  V30 4667 O 441.442 -5.33209 -1.19792 0
M  V30 4668 H 438.536 -0.798349 -0.215794 0
M  V30 4669 H 441.082 -1.66646 0.320507 0
M  V30 4670 H 439.854 -3.89145 0.410141 0
M  V30 4671 H 439.477 -3.75759 -1.29964 0
M  V30 4672 N 440.474 -0.00167713 -1.576 0
M  V30 4673 C 441.384 1.00548 -2.1196 0
M  V30 4674 C 442.4 1.3758 -1.06526 0
M  V30 4675 O 443.576 1.46278 -1.38436 0
M  V30 4676 C 440.641 2.27809 -2.6135 0
M  V30 4677 C 439.702 1.97074 -3.81393 0
M  V30 4678 C 438.935 3.18267 -4.28417 0
M  V30 4679 O 439.158 4.30009 -3.74765 0
M  V30 4680 O 438.092 3.02167 -5.20556 0
M  V30 4681 H 441.918 0.573373 -2.98238 0
M  V30 4682 H 439.503 0.217255 -1.47812 0
M  V30 4683 H 441.385 3.02568 -2.93309 0
M  V30 4684 H 440.06 2.70254 -1.78169 0
M  V30 4685 H 438.967 1.19785 -3.54404 0
M  V30 4686 H 440.3 1.59464 -4.65652 0
M  V30 4687 N 441.952 1.55251 0.271103 0
M  V30 4688 C 443.18 1.79974 1.02064 0
M  V30 4689 C 443.595 0.574003 1.79863 0
M  V30 4690 O 442.952 -0.456962 1.76686 0
M  V30 4691 C 443.003 3.02603 1.97772 0
M  V30 4692 O 442.724 4.20443 1.23124 0
M  V30 4693 C 444.225 3.39944 2.84522 0
M  V30 4694 H 441.445 0.599489 0.301419 0
M  V30 4695 H 443.989 2.02268 0.301313 0
M  V30 4696 H 442.144 2.8243 2.65165 0
M  V30 4697 H 442.558 4.89783 1.87651 0
M  V30 4698 H 444.032 4.28915 3.47471 0
M  V30 4699 H 444.509 2.59432 3.54389 0
M  V30 4700 H 445.115 3.62383 2.22618 0
M  V30 4701 N 443.43 -0.535701 1.48216 0
M  V30 4702 C 444.393 -1.623 1.61838 0
M  V30 4703 C 445.393 -1.53087 0.492024 0
M  V30 4704 O 446.583 -1.5686 0.757668 0
M  V30 4705 C 443.715 -3.01907 1.58319 0
M  V30 4706 H 444.908 -1.51564 2.58783 0
M  V30 4707 H 442.461 -0.757317 1.36727 0
M  V30 4708 H 443.196 -3.18155 0.628299 0
M  V30 4709 H 442.981 -3.10003 2.40085 0
M  V30 4710 H 444.471 -3.80969 1.71033 0
M  V30 4711 N 444.908 -1.36708 -0.784132 0
M  V30 4712 C 446.185 -1.21776 -1.53069 0
M  V30 4713 C 446.565 0.193876 -2.10208 0
M  V30 4714 O 445.913 1.20012 -1.94446 0
M  V30 4715 C 446.123 -2.30395 -2.62143 0
M  V30 4716 C 447.471 -2.67325 -3.29882 0
M  V30 4717 O 448.495 -2.29478 -2.7243 0
M  V30 4718 O 447.354 -3.32485 -4.33724 0
M  V30 4719 H 444.448 -0.474459 -0.677361 0
M  V30 4720 H 446.994 -1.48454 -0.82216 0
M  V30 4721 H 445.766 -3.2498 -2.17953 0
M  V30 4722 H 445.389 -2.05112 -3.40609 0
M  V30 4723 N 446.386 1.0089 -1.21074 0
M  V30 4724 C 447.633 1.74607 -1.0256 0
M  V30 4725 C 447.961 1.89426 0.44136 0
M  V30 4726 O 447.216 1.42266 1.34384 0
M  V30 4727 C 447.515 3.16335 -1.66334 0
M  V30 4728 C 447.181 3.21474 -3.16173 0
M  V30 4729 C 445.843 3.22583 -3.57062 0
M  V30 4730 C 448.195 3.19025 -4.12156 0
M  V30 4731 C 445.523 3.18925 -4.92446 0
M  V30 4732 C 447.875 3.16909 -5.47496 0
M  V30 4733 C 446.539 3.16326 -5.87787 0
M  V30 4734 H 445.809 0.638933 -0.375294 0
M  V30 4735 H 448.456 1.18274 -1.50611 0
M  V30 4736 H 446.761 3.75876 -1.10566 0
M  V30 4737 H 448.458 3.72083 -1.49516 0
M  V30 4738 H 445.048 3.2135 -2.83605 0
M  V30 4739 H 449.232 3.17332 -3.81595 0
M  V30 4740 H 444.488 3.16809 -5.22917 0
M  V30 4741 H 448.662 3.13968 -6.21609 0
M  V30 4742 H 446.289 3.13246 -6.92662 0
M  V30 4743 N 447.864 1.01787 1.20321 0
M  V30 4744 C 449.141 0.622978 1.85414 0
M  V30 4745 C 449.521 -0.898887 1.91006 0
M  V30 4746 O 448.869 -1.79112 1.41884 0
M  V30 4747 C 449.079 1.27226 3.24984 0
M  V30 4748 C 450.427 1.3885 4.01255 0
M  V30 4749 O 451.451 1.22857 3.34342 0
M  V30 4750 O 450.31 1.64705 5.2109 0
M  V30 4751 H 447.404 0.215116 0.798533 0
M  V30 4752 H 449.95 1.11533 1.27901 0
M  V30 4753 H 448.722 2.31209 3.15687 0
M  V30 4754 H 448.345 0.767069 3.90131 0
M  V30 4755 N 449.342 -1.36122 0.79427 0
M  V30 4756 C 450.272 -2.32551 0.210328 0
M  V30 4757 C 451.253 -1.56884 -0.657386 0
M  V30 4758 O 452.438 -1.85014 -0.590207 0
M  V30 4759 C 449.568 -3.41128 -0.651819 0
M  V30 4760 C 448.522 -4.27842 0.116395 0
M  V30 4761 C 447.848 -5.2763 -0.86666 0
M  V30 4762 C 449.148 -5.05647 1.30837 0
M  V30 4763 H 450.842 -2.81636 1.01594 0
M  V30 4764 H 448.388 -1.35407 0.489981 0
M  V30 4765 H 450.341 -4.07581 -1.07031 0
M  V30 4766 H 449.065 -2.90622 -1.49019 0
M  V30 4767 H 447.724 -3.62952 0.515915 0
M  V30 4768 H 447.372 -4.73395 -1.70019 0
M  V30 4769 H 447.072 -5.86514 -0.35705 0
M  V30 4770 H 448.596 -5.96955 -1.28361 0
M  V30 4771 H 450.01 -5.65113 0.965393 0
M  V30 4772 H 448.407 -5.73967 1.75161 0
M  V30 4773 H 449.477 -4.37006 2.10128 0
M  V30 4774 N 450.82 -0.546701 -1.47814 0
M  V30 4775 C 451.783 0.196287 -2.28358 0
M  V30 4776 C 452.783 0.852437 -1.36346 0
M  V30 4777 O 453.973 0.709913 -1.59078 0
M  V30 4778 C 451.105 1.28579 -3.15722 0
M  V30 4779 H 452.298 -0.511086 -2.95513 0
M  V30 4780 H 449.851 -0.303248 -1.5333 0
M  V30 4781 H 450.586 2.0259 -2.53235 0
M  V30 4782 H 450.371 0.820229 -3.83425 0
M  V30 4783 H 451.861 1.80793 -3.76435 0
M  V30 4784 N 452.299 1.55045 -0.282633 0
M  V30 4785 C 453.262 2.21515 0.588539 0
M  V30 4786 C 454.262 1.19535 1.07554 0
M  V30 4787 O 455.452 1.44391 0.974514 0
M  V30 4788 C 452.584 2.88704 1.8128 0
M  V30 4789 H 453.777 2.99899 0.00806397 0
M  V30 4790 H 451.33 1.56265 -0.0333067 0
M  V30 4791 H 452.065 2.14352 2.43359 0
M  V30 4792 H 451.85 3.63443 1.47144 0
M  V30 4793 H 453.34 3.39465 2.43214 0
M  V30 4794 N 453.777 0.010035 1.57597 0
M  V30 4795 C 454.687 -0.994226 2.12491 0
M  V30 4796 C 455.703 -1.37013 1.07254 0
M  V30 4797 O 456.879 -1.45542 1.3921 0
M  V30 4798 C 453.944 -2.2642 2.62555 0
M  V30 4799 C 453.005 -1.95049 3.82432 0
M  V30 4800 C 452.238 -3.15991 4.30099 0
M  V30 4801 O 452.461 -4.28015 3.7704 0
M  V30 4802 O 451.395 -2.99403 5.22151 0
M  V30 4803 H 455.221 -0.557549 2.98538 0
M  V30 4804 H 452.806 -0.209413 1.47925 0
M  V30 4805 H 454.688 -3.01009 2.9491 0
M  V30 4806 H 453.363 -2.69306 1.796 0
M  V30 4807 H 452.27 -1.17904 3.55034 0
M  V30 4808 H 453.603 -1.56992 4.66491 0
M  V30 4809 N 455.255 -1.55392 -0.262866 0
M  V30 4810 C 456.503 -1.76127 -0.991147 0
M  V30 4811 C 456.824 -0.571083 -1.8645 0
M  V30 4812 O 456.094 0.413698 -1.91482 0
M  V30 4813 H 454.674 -0.649528 -0.368948 0
M  V30 4814 H 457.336 -1.9281 -0.284655 0
M  V30 4815 H 456.432 -2.6663 -1.62219 0
M  V30 4816 N 456.733 0.527833 -1.48498 0
M  V30 4817 C 457.979 1.28545 -1.56857 0
M  V30 4818 C 458.312 1.92678 -0.242651 0
M  V30 4819 O 457.587 1.79394 0.751545 0
M  V30 4820 C 457.87 2.37314 -2.70839 0
M  V30 4821 C 457.723 1.77858 -4.13142 0
M  V30 4822 C 459.042 3.39068 -2.80573 0
M  V30 4823 H 456.161 0.466006 -0.570971 0
M  V30 4824 H 458.803 0.587784 -1.8068 0
M  V30 4825 H 456.953 2.96821 -2.50658 0
M  V30 4826 H 458.625 1.22385 -4.44769 0
M  V30 4827 H 456.868 1.08383 -4.20042 0
M  V30 4828 H 457.539 2.56624 -4.88721 0
M  V30 4829 H 460.015 2.89518 -2.98862 0
M  V30 4830 H 458.891 4.12566 -3.6205 0
M  V30 4831 H 459.152 3.9975 -1.88818 0
M  V30 4832 N 458.211 1.37122 0.776871 0
M  V30 4833 C 459.457 1.32243 1.53752 0
M  V30 4834 C 459.79 -0.0944745 1.9397 0
M  V30 4835 O 459.065 -1.05068 1.6368 0
M  V30 4836 C 459.348 2.25681 2.80607 0
M  V30 4837 C 459.201 3.76127 2.46676 0
M  V30 4838 C 460.52 2.17657 3.82509 0
M  V30 4839 H 457.639 0.481704 0.557791 0
M  V30 4840 H 460.281 1.6778 0.891612 0
M  V30 4841 H 458.431 1.95505 3.35723 0
M  V30 4842 H 460.103 4.16877 1.97513 0
M  V30 4843 H 458.346 3.94946 1.79443 0
M  V30 4844 H 459.017 4.36933 3.37333 0
M  V30 4845 H 461.493 2.44245 3.36873 0
M  V30 4846 H 460.369 2.85185 4.69 0
M  V30 4847 H 460.63 1.16785 4.26396 0
M  V30 4848 N 459.689 -1.00246 1.21608 0
M  V30 4849 C 460.935 -1.74319 1.03638 0
M  V30 4850 C 461.268 -1.89408 -0.428749 0
M  V30 4851 O 460.543 -1.43026 -1.3181 0
M  V30 4852 C 460.826 -3.15431 1.73711 0
M  V30 4853 C 460.679 -3.08049 3.27759 0
M  V30 4854 C 461.998 -4.14407 1.48173 0
M  V30 4855 H 459.117 -0.632741 0.377899 0
M  V30 4856 H 461.759 -1.16853 1.49818 0
M  V30 4857 H 459.909 -3.64493 1.34452 0
M  V30 4858 H 461.581 -2.66681 3.76403 0
M  V30 4859 H 459.824 -2.45088 3.57931 0
M  V30 4860 H 460.495 -4.07862 3.71958 0
M  V30 4861 H 462.971 -3.74061 1.82258 0
M  V30 4862 H 461.847 -5.11279 1.99713 0
M  V30 4863 H 462.108 -4.40174 0.412273 0
M  V30 4864 N 461.167 -1.02423 -1.1978 0
M  V30 4865 C 462.392 -0.7373 -1.93852 0
M  V30 4866 C 462.817 0.696923 -1.74713 0
M  V30 4867 O 462.175 1.48056 -1.04638 0
M  V30 4868 C 462.223 -1.08783 -3.438 0
M  V30 4869 O 461.327 -0.20383 -4.11896 0
M  V30 4870 H 460.668 -0.27284 -0.605355 0
M  V30 4871 H 463.198 -1.36966 -1.51992 0
M  V30 4872 H 463.208 -1.04276 -3.9445 0
M  V30 4873 H 461.883 -2.13274 -3.57053 0
M  V30 4874 H 460.46 -0.307091 -3.71633 0
M  V30 4875 N 462.645 1.35699 -0.801477 0
M  V30 4876 C 463.608 2.28199 -0.213994 0
M  V30 4877 C 464.608 1.49359 0.595691 0
M  V30 4878 O 465.798 1.69186 0.414921 0
M  V30 4879 C 462.93 3.33587 0.702297 0
M  V30 4880 H 464.123 2.81666 -1.02976 0
M  V30 4881 H 461.676 1.45467 -0.571759 0
M  V30 4882 H 462.411 2.85297 1.54195 0
M  V30 4883 H 462.196 3.91906 0.123484 0
M  V30 4884 H 463.686 4.02638 1.10783 0
M  V30 4885 N 464.123 0.554532 1.47522 0
M  V30 4886 C 465.353 0.0342074 2.06572 0
M  V30 4887 C 465.761 -1.26375 1.40805 0
M  V30 4888 O 465.104 -1.7683 0.49769 0
M  V30 4889 C 465.166 -0.235096 3.5873 0
M  V30 4890 C 464.83 0.973024 4.46521 0
M  V30 4891 C 465.827 1.8779 4.848 0
M  V30 4892 C 463.512 1.18694 4.88075 0
M  V30 4893 C 465.506 2.98039 5.63428 0
M  V30 4894 C 463.193 2.29254 5.66468 0
M  V30 4895 C 464.191 3.18757 6.04055 0
M  V30 4896 O 463.879 4.27401 6.8087 0
M  V30 4897 H 463.611 0.041587 0.67472 0
M  V30 4898 H 466.165 0.766748 1.90552 0
M  V30 4899 H 464.395 -1.02191 3.72953 0
M  V30 4900 H 466.084 -0.700477 3.9981 0
M  V30 4901 H 466.85 1.72467 4.53299 0
M  V30 4902 H 462.729 0.49947 4.58286 0
M  V30 4903 H 466.273 3.67926 5.92685 0
M  V30 4904 H 462.17 2.4455 5.97382 0
M  V30 4905 H 462.938 4.25415 6.9926 0
M  V30 4906 N 465.601 -1.54893 0.290851 0
M  V30 4907 C 466.849 -1.99538 -0.320756 0
M  V30 4908 C 467.17 -1.18075 -1.55188 0
M  V30 4909 O 466.44 -0.274162 -1.93972 0
M  V30 4910 H 465.02 -0.737052 -0.121507 0
M  V30 4911 H 467.682 -1.90755 0.399832 0
M  V30 4912 H 466.778 -3.06282 -0.599802 0
M  V30 4913 N 467.08 -0.0183926 -1.57589 0
M  V30 4914 C 468.327 0.662562 -1.91354 0
M  V30 4915 C 468.655 1.72747 -0.893788 0
M  V30 4916 O 467.91 1.9545 0.0988509 0
M  V30 4917 C 468.209 1.32676 -3.31861 0
M  V30 4918 C 467.875 0.393267 -4.49182 0
M  V30 4919 C 466.537 0.136302 -4.81007 0
M  V30 4920 C 468.889 -0.248366 -5.20608 0
M  V30 4921 C 466.217 -0.770282 -5.81621 0
M  V30 4922 C 468.569 -1.14294 -6.22189 0
M  V30 4923 C 467.233 -1.4089 -6.52462 0
M  V30 4924 H 466.503 0.242448 -0.700214 0
M  V30 4925 H 469.15 -0.0778629 -1.91342 0
M  V30 4926 H 467.455 2.14168 -3.28084 0
M  V30 4927 H 469.152 1.86001 -3.55253 0
M  V30 4928 H 465.742 0.603723 -4.24327 0
M  V30 4929 H 469.926 -0.062883 -4.9626 0
M  V30 4930 H 465.182 -0.984154 -6.03427 0
M  V30 4931 H 469.356 -1.64637 -6.76659 0
M  V30 4932 H 466.983 -2.11306 -7.30242 0
M  V30 4933 N 468.558 1.5553 0.254621 0
M  V30 4934 C 469.49 1.86104 1.33783 0
M  V30 4935 C 470.503 0.746752 1.44663 0
M  V30 4936 O 471.692 1.0248 1.46151 0
M  V30 4937 C 468.792 2.02532 2.71724 0
M  V30 4938 C 467.965 3.33335 2.83208 0
M  V30 4939 C 467.024 3.396 4.01943 0
M  V30 4940 O 466.05 4.12862 3.91834 0
M  V30 4941 N 467.252 2.68332 5.1476 0
M  V30 4942 H 470.017 2.79605 1.07893 0
M  V30 4943 H 467.578 1.55672 0.444732 0
M  V30 4944 H 469.57 2.04074 3.4948 0
M  V30 4945 H 468.14 1.15811 2.90356 0
M  V30 4946 H 467.36 3.44176 1.92189 0
M  V30 4947 H 468.648 4.19565 2.87824 0
M  V30 4948 H 468.046 2.08528 5.25864 0
M  V30 4949 H 466.603 2.75575 5.90679 0
M  V30 4950 N 470.036 -0.519951 1.48776 0
M  V30 4951 C 471.284 -1.2727 1.56993 0
M  V30 4952 C 471.605 -1.9339 0.25004 0
M  V30 4953 O 470.875 -1.81822 -0.729216 0
M  V30 4954 H 469.455 -0.472732 0.578389 0
M  V30 4955 H 472.117 -0.604234 1.85297 0
M  V30 4956 H 471.213 -2.04669 2.3562 0
M  V30 4957 N 471.514 -1.37532 -0.769588 0
M  V30 4958 C 472.446 -1.29347 -1.89214 0
M  V30 4959 C 473.459 -0.208842 -1.61455 0
M  V30 4960 O 474.648 -0.465158 -1.72333 0
M  V30 4961 C 471.748 -0.977649 -3.24492 0
M  V30 4962 C 470.921 -2.16817 -3.7988 0
M  V30 4963 C 469.98 -1.82229 -4.93639 0
M  V30 4964 O 469.006 -2.54548 -5.09111 0
M  V30 4965 N 470.208 -0.767696 -5.75401 0
M  V30 4966 H 472.973 -2.26073 -1.96751 0
M  V30 4967 H 470.534 -1.31185 -0.948795 0
M  V30 4968 H 472.526 -0.727065 -3.98115 0
M  V30 4969 H 471.096 -0.0988777 -3.12444 0
M  V30 4970 H 470.316 -2.58038 -2.9801 0
M  V30 4971 H 471.604 -2.96308 -4.13617 0
M  V30 4972 H 471.002 -0.167626 -5.65452 0
M  V30 4973 H 469.559 -0.576973 -6.49241 0
M  V30 4974 N 472.992 0.995999 -1.22138 0
M  V30 4975 C 473.939 2.08551 -0.988687 0
M  V30 4976 C 474.909 1.65864 0.0885021 0
M  V30 4977 O 476.094 1.90704 -0.0604589 0
M  V30 4978 C 473.234 3.40374 -0.569191 0
M  V30 4979 C 472.347 3.96421 -1.71681 0
M  V30 4980 C 471.482 5.1639 -1.2456 0
M  V30 4981 C 470.521 5.64567 -2.36497 0
M  V30 4982 N 469.658 6.75777 -1.90445 0
M  V30 4983 H 474.498 2.2779 -1.92135 0
M  V30 4984 H 472.035 1.1168 -0.957388 0
M  V30 4985 H 473.993 4.16068 -0.307166 0
M  V30 4986 H 472.623 3.21145 0.326462 0
M  V30 4987 H 471.675 3.17628 -2.09324 0
M  V30 4988 H 472.987 4.2816 -2.55891 0
M  V30 4989 H 472.141 5.99362 -0.940774 0
M  V30 4990 H 470.88 4.86266 -0.373662 0
M  V30 4991 H 469.885 4.80185 -2.67772 0
M  V30 4992 H 471.11 5.96716 -3.24202 0
M  V30 4993 H 469.056 6.47443 -1.05609 0
M  V30 4994 H 468.973 7.06818 -2.68223 0
M  V30 4995 H 470.241 7.62262 -1.63022 0
M  V30 4996 N 474.47 1.03057 1.19235 0
M  V30 4997 C 475.71 0.736757 1.9066 0
M  V30 4998 C 476.074 -0.721521 1.77927 0
M  V30 4999 O 477.275 -1.12849 2.43964 0
M  V30 5000 C 475.546 1.17755 3.37444 0
M  V30 5001 S 477.105 1.00783 4.27069 0
M  V30 5002 H 473.923 0.268174 0.658486 0
M  V30 5003 H 476.525 1.32076 1.4414 0
M  V30 5004 H 475.229 2.23448 3.44237 0
M  V30 5005 H 474.76 0.586912 3.88997 0
M  V30 5006 H 476.775 -0.0806356 4.96134 0
M  V30 5007 N 475.948 -1.35272 0.808662 0
M  V30 5008 C 477.173 -2.03477 0.401475 0
M  V30 5009 C 477.598 -1.60537 -0.980279 0
M  V30 5010 O 476.956 -0.78304 -1.63518 0
M  V30 5011 C 477.004 -3.57181 0.495354 0
M  V30 5012 O 476.108 -4.09474 -0.490397 0
M  V30 5013 H 475.449 -0.642561 0.167366 0
M  V30 5014 H 477.979 -1.72824 1.09512 0
M  V30 5015 H 477.989 -4.06356 0.365912 0
M  V30 5016 H 476.664 -3.87784 1.5032 0
M  V30 5017 H 475.241 -3.71516 -0.321023 0
M  V30 5018 N 477.426 -0.562348 -1.47226 0
M  V30 5019 C 478.389 0.172056 -2.28553 0
M  V30 5020 C 479.389 0.837928 -1.37242 0
M  V30 5021 O 480.579 0.693001 -1.59822 0
M  V30 5022 C 477.711 1.25223 -3.17068 0
M  V30 5023 H 478.904 -0.542401 -2.94954 0
M  V30 5024 H 476.457 -0.319493 -1.53 0
M  V30 5025 H 477.192 1.99892 -2.55369 0
M  V30 5026 H 476.977 0.779515 -3.84273 0
M  V30 5027 H 478.467 1.76791 -3.78332 0
M  V30 5028 N 478.904 1.54736 -0.299062 0
M  V30 5029 C 479.867 2.22127 0.565012 0
M  V30 5030 C 480.867 1.20669 1.06281 0
M  V30 5031 O 482.057 1.45417 0.959145 0
M  V30 5032 C 479.189 2.90611 1.78208 0
M  V30 5033 H 480.382 2.99891 -0.0237448 0
M  V30 5034 H 477.935 1.5622 -0.0498788 0
M  V30 5035 H 478.67 2.16921 2.41072 0
M  V30 5036 H 478.455 3.64984 1.43281 0
M  V30 5037 H 479.945 3.42026 2.396 0
M  V30 5038 N 480.382 0.0267497 1.57577 0
M  V30 5039 C 481.607 -0.666227 1.96408 0
M  V30 5040 C 482.032 -1.65004 0.903071 0
M  V30 5041 O 481.39 -1.80787 -0.136263 0
M  V30 5042 C 481.438 -1.35101 3.34335 0
M  V30 5043 O 480.542 -2.46623 3.30531 0
M  V30 5044 H 479.883 -0.175206 0.640468 0
M  V30 5045 H 482.413 0.0878977 2.04411 0
M  V30 5046 H 482.423 -1.70834 3.70513 0
M  V30 5047 H 481.098 -0.629844 4.11103 0
M  V30 5048 H 479.675 -2.13019 3.06068 0
M  V30 5049 N 481.861 -1.55662 -0.24637 0
M  V30 5050 C 483.277 -1.48098 -0.594907 0
M  V30 5051 C 483.477 -0.717044 -1.8831 0
M  V30 5052 O 482.533 -0.246618 -2.51293 0
M  V30 5053 C 483.846 -2.92507 -0.697146 0
M  V30 5054 C 485.394 -3.02881 -0.789436 0
M  V30 5055 C 485.869 -4.48598 -0.923232 0
M  V30 5056 N 487.36 -4.52538 -0.988088 0
M  V30 5057 C 488.095 -5.62536 -1.11089 0
M  V30 5058 N 487.591 -6.82342 -1.19919 0
M  V30 5059 N 489.384 -5.50334 -1.14408 0
M  V30 5060 H 481.535 -2.0377 0.599278 0
M  V30 5061 H 483.798 -0.925145 0.20691 0
M  V30 5062 H 483.504 -3.51242 0.179396 0
M  V30 5063 H 483.378 -3.43024 -1.5689 0
M  V30 5064 H 485.765 -2.44226 -1.65643 0
M  V30 5065 H 485.846 -2.55574 0.107482 0
M  V30 5066 H 485.49 -5.07864 -0.0607927 0
M  V30 5067 H 485.42 -4.93587 -1.8352 0
M  V30 5068 H 487.911 -3.66248 -0.931167 0
M  V30 5069 H 488.224 -7.61924 -1.29197 0
M  V30 5070 H 486.569 -6.85102 -1.16876 0
M  V30 5071 H 489.76 -4.5567 -1.07158 0
M  V30 5072 H 489.933 -6.36096 -1.23634 0
M  V30 5073 N 483.339 0.512053 -1.4905 0
M  V30 5074 C 484.269 1.62365 -1.67809 0
M  V30 5075 C 485.25 1.61737 -0.526809 0
M  V30 5076 O 486.435 1.78651 -0.761404 0
M  V30 5077 C 483.565 3.00895 -1.73435 0
M  V30 5078 C 482.519 3.16387 -2.88242 0
M  V30 5079 C 481.845 4.56157 -2.78971 0
M  V30 5080 C 483.145 2.97457 -4.29321 0
M  V30 5081 H 484.839 1.46921 -2.60873 0
M  V30 5082 H 482.385 0.705379 -1.2554 0
M  V30 5083 H 484.338 3.78549 -1.85145 0
M  V30 5084 H 483.062 3.17403 -0.769619 0
M  V30 5085 H 481.721 2.41155 -2.76116 0
M  V30 5086 H 481.369 4.69525 -1.8043 0
M  V30 5087 H 481.069 4.67465 -3.5602 0
M  V30 5088 H 482.593 5.35886 -2.92675 0
M  V30 5089 H 484.007 3.64888 -4.42187 0
M  V30 5090 H 482.404 3.20245 -5.07507 0
M  V30 5091 H 483.474 1.93692 -4.44535 0
M  V30 5092 N 484.817 1.37938 0.762283 0
M  V30 5093 C 486.066 1.32989 1.51647 0
M  V30 5094 C 486.379 -0.0802922 1.95435 0
M  V30 5095 O 487.585 -0.252295 2.70325 0
M  V30 5096 C 486.041 2.33485 2.73885 0
M  V30 5097 C 485.649 3.80079 2.37157 0
M  V30 5098 C 487.393 2.37563 3.51801 0
M  V30 5099 C 485.3 4.72283 3.55954 0
M  V30 5100 H 484.23 0.494301 0.56937 0
M  V30 5101 H 486.881 1.63448 0.834083 0
M  V30 5102 H 485.263 1.96056 3.44061 0
M  V30 5103 H 486.437 4.26398 1.74704 0
M  V30 5104 H 484.752 3.79037 1.72395 0
M  V30 5105 H 487.349 3.0365 4.40114 0
M  V30 5106 H 487.692 1.39199 3.92338 0
M  V30 5107 H 488.225 2.73747 2.8863 0
M  V30 5108 H 484.964 5.7181 3.2049 0
M  V30 5109 H 484.484 4.30663 4.1748 0
M  V30 5110 H 486.163 4.89876 4.22647 0
M  V30 5111 N 486.295 -0.989507 1.22664 0
M  V30 5112 C 487.225 -2.09847 1.02404 0
M  V30 5113 C 488.206 -1.70007 -0.0561303 0
M  V30 5114 O 489.391 -1.93906 0.106748 0
M  V30 5115 C 486.521 -3.41996 0.604663 0
M  V30 5116 C 485.475 -3.95699 1.63115 0
M  V30 5117 C 484.801 -5.23936 1.0675 0
M  V30 5118 C 486.101 -4.25999 3.02196 0
M  V30 5119 H 487.795 -2.27054 1.95158 0
M  V30 5120 H 485.341 -1.09111 0.939727 0
M  V30 5121 H 487.294 -4.1899 0.45002 0
M  V30 5122 H 486.018 -3.24626 -0.35855 0
M  V30 5123 H 484.677 -3.2084 1.77362 0
M  V30 5124 H 484.325 -5.02909 0.0955422 0
M  V30 5125 H 484.025 -5.60833 1.75328 0
M  V30 5126 H 485.549 -6.0356 0.924516 0
M  V30 5127 H 486.963 -4.93777 2.91303 0
M  V30 5128 H 485.36 -4.74076 3.67929 0
M  V30 5129 H 486.43 -3.33636 3.51873 0
M  V30 5130 N 487.773 -1.03688 -1.18687 0
M  V30 5131 C 489.001 -0.757918 -1.92518 0
M  V30 5132 C 489.416 0.684398 -1.75959 0
M  V30 5133 O 488.773 1.46617 -1.08673 0
M  V30 5134 C 488.824 -1.10985 -3.44042 0
M  V30 5135 O 488.545 -2.49554 -3.60076 0
M  V30 5136 C 490.046 -0.854844 -4.3498 0
M  V30 5137 H 487.266 -0.276699 -0.611293 0
M  V30 5138 H 489.81 -1.38352 -1.50595 0
M  V30 5139 H 487.965 -0.529279 -3.83767 0
M  V30 5140 H 488.379 -2.6291 -4.53849 0
M  V30 5141 H 489.853 -1.15098 -5.39867 0
M  V30 5142 H 490.33 0.210507 -4.38695 0
M  V30 5143 H 490.936 -1.41853 -4.00946 0
M  V30 5144 N 489.251 1.34841 -0.815825 0
M  V30 5145 C 490.183 2.28409 -0.190265 0
M  V30 5146 C 491.196 1.50705 0.615771 0
M  V30 5147 O 492.385 1.72822 0.446616 0
M  V30 5148 C 489.485 3.30441 0.752446 0
M  V30 5149 C 488.658 4.37399 -0.00922152 0
M  V30 5150 C 487.717 5.19234 0.853351 0
M  V30 5151 O 486.743 5.68404 0.300919 0
M  V30 5152 N 487.945 5.38248 2.17416 0
M  V30 5153 H 490.71 2.82732 -0.994114 0
M  V30 5154 H 488.271 1.47289 -0.672129 0
M  V30 5155 H 490.263 3.82084 1.33394 0
M  V30 5156 H 488.833 2.76565 1.45707 0
M  V30 5157 H 488.053 3.86567 -0.771979 0
M  V30 5158 H 489.341 5.05992 -0.533807 0
M  V30 5159 H 488.739 4.99961 2.6468 0
M  V30 5160 H 487.296 5.93035 2.70467 0
M  V30 5161 N 490.729 0.570148 1.46925 0
M  V30 5162 C 491.977 0.0508523 2.02036 0
M  V30 5163 C 492.298 -1.30885 1.44548 0
M  V30 5164 O 491.568 -1.85647 0.625453 0
M  V30 5165 H 490.148 0.0158088 0.746833 0
M  V30 5166 H 492.81 0.743086 1.80178 0
M  V30 5167 H 491.906 -0.027575 3.12088 0
M  V30 5168 N 492.207 -1.54576 0.307264 0
M  V30 5169 C 493.17 -2.22423 -0.553224 0
M  V30 5170 C 494.17 -1.21231 -1.05639 0
M  V30 5171 O 495.36 -1.45923 -0.951419 0
M  V30 5172 C 492.492 -2.91552 -1.76664 0
M  V30 5173 H 493.685 -2.99874 0.0396484 0
M  V30 5174 H 491.238 -1.56192 0.0581629 0
M  V30 5175 H 491.973 -2.18196 -2.39918 0
M  V30 5176 H 491.758 -3.65738 -1.41343 0
M  V30 5177 H 493.248 -3.43292 -2.37783 0
M  V30 5178 N 493.685 -0.035106 -1.57561 0
M  V30 5179 C 494.915 0.651312 -1.96065 0
M  V30 5180 C 495.323 1.6585 -0.910514 0
M  V30 5181 O 494.666 1.83336 0.11552 0
M  V30 5182 C 494.728 1.40897 -3.30739 0
M  V30 5183 C 494.392 0.559436 -4.53563 0
M  V30 5184 C 495.389 -0.16778 -5.19629 0
M  V30 5185 C 493.074 0.495079 -4.99854 0
M  V30 5186 C 495.068 -0.947963 -6.30311 0
M  V30 5187 C 492.755 -0.288804 -6.10417 0
M  V30 5188 C 493.753 -1.00903 -6.75505 0
M  V30 5189 O 493.441 -1.78005 -7.83945 0
M  V30 5190 H 493.173 0.184036 -0.650467 0
M  V30 5191 H 495.727 -0.0929677 -2.05189 0
M  V30 5192 H 493.957 2.19852 -3.18123 0
M  V30 5193 H 495.646 1.98407 -3.54104 0
M  V30 5194 H 496.412 -0.12743 -4.84833 0
M  V30 5195 H 492.291 1.04524 -4.48994 0
M  V30 5196 H 495.835 -1.51064 -6.81047 0
M  V30 5197 H 491.732 -0.33085 -6.44652 0
M  V30 5198 H 492.5 -1.70046 -8.00641 0
M  V30 5199 N 495.163 1.55791 0.238111 0
M  V30 5200 C 496.073 1.94196 1.31625 0
M  V30 5201 C 497.089 0.843545 1.52185 0
M  V30 5202 O 498.265 1.1457 1.65637 0
M  V30 5203 C 495.33 2.2365 2.64918 0
M  V30 5204 C 494.391 3.46971 2.52804 0
M  V30 5205 C 493.624 3.7501 3.79741 0
M  V30 5206 O 493.847 3.04982 4.82019 0
M  V30 5207 O 492.781 4.68525 3.77846 0
M  V30 5208 H 496.607 2.86044 1.02043 0
M  V30 5209 H 494.192 1.42786 0.439603 0
M  V30 5210 H 496.074 2.43863 3.4367 0
M  V30 5211 H 494.749 1.34979 2.94215 0
M  V30 5212 H 493.656 3.32055 1.72309 0
M  V30 5213 H 494.989 4.35971 2.28451 0
M  V30 5214 N 496.642 -0.504142 1.49319 0
M  V30 5215 C 498.053 -1.08572 1.51885 0
M  V30 5216 C 498.404 -1.93842 0.303255 0
M  V30 5217 O 497.529 -2.0828 -0.58724 0
M  V30 5218 C 498.124 -1.97574 2.75227 0
M  V30 5219 C 496.683 -2.509 2.80581 0
M  V30 5220 C 495.83 -1.28447 2.45757 0
M  V30 5221 H 498.781 -0.288194 1.56061 0
M  V30 5222 H 498.802 -2.82219 2.55211 0
M  V30 5223 H 498.314 -1.35486 3.63683 0
M  V30 5224 H 496.415 -3.16636 1.96398 0
M  V30 5225 H 496.528 -2.88268 3.82673 0
M  V30 5226 H 494.892 -1.60868 1.97468 0
M  V30 5227 H 495.675 -0.68072 3.36483 0
M  V30 5228 N 498.12 -1.38341 -0.754957 0
M  V30 5229 C 499.366 -1.34672 -1.51628 0
M  V30 5230 C 499.699 0.0636036 -1.94096 0
M  V30 5231 O 498.974 1.0245 -1.6533 0
M  V30 5232 C 499.257 -2.30116 -2.76981 0
M  V30 5233 C 499.11 -3.80003 -2.4066 0
M  V30 5234 C 500.429 -2.23715 -3.78998 0
M  V30 5235 H 497.548 -0.490517 -0.550056 0
M  V30 5236 H 500.19 -1.69178 -0.864807 0
M  V30 5237 H 498.34 -2.00821 -3.3257 0
M  V30 5238 H 500.012 -4.19966 -1.90856 0
M  V30 5239 H 498.255 -3.97751 -1.73137 0
M  V30 5240 H 498.926 -4.42244 -3.30339 0
M  V30 5241 H 501.402 -2.49574 -3.32945 0
M  V30 5242 H 500.278 -2.9261 -4.64403 0
M  V30 5243 H 500.539 -1.23554 -4.24484 0
M  V30 5244 N 499.598 0.982988 -1.23187 0
M  V30 5245 C 500.528 2.09301 -1.03515 0
M  V30 5246 C 501.509 1.70035 0.0471136 0
M  V30 5247 O 502.694 1.93847 -0.117029 0
M  V30 5248 C 499.824 3.4167 -0.622791 0
M  V30 5249 C 498.778 3.94828 -1.65211 0
M  V30 5250 C 498.104 5.23362 -1.09527 0
M  V30 5251 C 499.404 4.2439 -3.04451 0
M  V30 5252 H 501.098 2.26016 -1.96359 0
M  V30 5253 H 498.644 1.08611 -0.945501 0
M  V30 5254 H 500.597 4.18746 -0.472233 0
M  V30 5255 H 499.321 3.24811 0.341329 0
M  V30 5256 H 497.98 3.19895 -1.79061 0
M  V30 5257 H 497.628 5.02852 -0.122211 0
M  V30 5258 H 497.328 5.59895 -1.783 0
M  V30 5259 H 498.852 6.03062 -0.956511 0
M  V30 5260 H 500.266 4.92225 -2.93917 0
M  V30 5261 H 498.663 4.72118 -3.70438 0
M  V30 5262 H 499.733 3.31765 -3.53638 0
M  V30 5263 N 501.076 1.04316 1.18135 0
M  V30 5264 C 501.986 0.646876 2.25505 0
M  V30 5265 C 503.002 -0.328008 1.7088 0
M  V30 5266 O 504.178 -0.182309 2.00573 0
M  V30 5267 C 501.243 0.0185664 3.46695 0
M  V30 5268 C 500.304 1.04277 4.16443 0
M  V30 5269 C 499.537 0.444352 5.31847 0
M  V30 5270 O 499.76 -0.748735 5.65465 0
M  V30 5271 O 498.694 1.17428 5.90334 0
M  V30 5272 H 502.52 1.54147 2.61672 0
M  V30 5273 H 500.105 0.814188 1.25265 0
M  V30 5274 H 501.987 -0.331068 4.20097 0
M  V30 5275 H 500.662 -0.849814 3.12346 0
M  V30 5276 H 499.569 1.44425 3.45098 0
M  V30 5277 H 500.902 1.882 4.54798 0
M  V30 5278 N 502.554 -1.34406 0.822964 0
M  V30 5279 C 503.97 -1.51275 0.508727 0
M  V30 5280 C 504.17 -1.76776 -0.967083 0
M  V30 5281 O 503.226 -1.81871 -1.75155 0
M  V30 5282 C 504.539 -2.67765 1.36829 0
M  V30 5283 C 506.087 -2.81647 1.36542 0
M  V30 5284 C 506.562 -4.01181 2.20947 0
M  V30 5285 N 508.053 -4.08388 2.18571 0
M  V30 5286 C 508.788 -5.00036 2.80627 0
M  V30 5287 N 508.284 -5.96906 3.51674 0
M  V30 5288 N 510.077 -4.92908 2.70181 0
M  V30 5289 H 502.228 -1.16113 1.77852 0
M  V30 5290 H 504.491 -0.56947 0.757897 0
M  V30 5291 H 504.197 -2.55551 2.41633 0
M  V30 5292 H 504.071 -3.62779 1.03303 0
M  V30 5293 H 506.458 -2.93303 0.325163 0
M  V30 5294 H 506.539 -1.87443 1.74066 0
M  V30 5295 H 506.183 -3.90286 3.25022 0
M  V30 5296 H 506.113 -4.94599 1.80774 0
M  V30 5297 H 508.604 -3.39051 1.66891 0
M  V30 5298 H 508.917 -6.63468 3.96271 0
M  V30 5299 H 507.262 -5.9703 3.5578 0
M  V30 5300 H 510.453 -4.1619 2.14251 0
M  V30 5301 H 510.626 -5.64137 3.18831 0
M  V30 5302 N 504.032 -0.577932 -1.46621 0
M  V30 5303 C 505.278 -0.0617793 -2.02706 0
M  V30 5304 C 505.611 1.29294 -1.44903 0
M  V30 5305 O 504.886 1.8461 -0.61232 0
M  V30 5306 C 505.169 0.00911824 -3.60099 0
M  V30 5307 C 505.022 -1.37416 -4.28295 0
M  V30 5308 C 506.341 0.712159 -4.343 0
M  V30 5309 H 503.46 -0.0239246 -0.736612 0
M  V30 5310 H 506.102 -0.744211 -1.74818 0
M  V30 5311 H 504.252 0.590292 -3.83989 0
M  V30 5312 H 505.924 -2.00013 -4.15683 0
M  V30 5313 H 504.167 -1.94319 -3.87843 0
M  V30 5314 H 504.838 -1.27707 -5.37024 0
M  V30 5315 H 507.314 0.218486 -4.15526 0
M  V30 5316 H 506.19 0.730782 -5.44014 0
M  V30 5317 H 506.451 1.77251 -4.05012 0
M  V30 5318 N 505.51 1.54411 -0.315457 0
M  V30 5319 C 506.44 2.27002 0.547039 0
M  V30 5320 C 507.421 1.27492 1.12605 0
M  V30 5321 O 508.606 1.5629 1.15269 0
M  V30 5322 C 505.736 3.02171 1.71201 0
M  V30 5323 C 504.69 4.0895 1.26268 0
M  V30 5324 C 504.016 4.71915 2.51396 0
M  V30 5325 C 505.316 5.20891 0.383419 0
M  V30 5326 H 507.01 2.99343 -0.0584517 0
M  V30 5327 H 504.556 1.4397 -0.0295527 0
M  V30 5328 H 506.509 3.51681 2.32161 0
M  V30 5329 H 505.233 2.27433 2.34397 0
M  V30 5330 H 503.892 3.60312 0.676062 0
M  V30 5331 H 503.54 3.93801 3.12937 0
M  V30 5332 H 503.24 5.44039 2.22026 0
M  V30 5333 H 504.764 5.24195 3.13133 0
M  V30 5334 H 506.178 5.66206 0.899082 0
M  V30 5335 H 504.575 5.99821 0.182857 0
M  V30 5336 H 505.645 4.81324 -0.587821 0
M  V30 5337 N 506.988 0.0434614 1.5754 0
M  V30 5338 C 507.935 -0.93356 2.11077 0
M  V30 5339 C 508.905 -1.31383 1.01626 0
M  V30 5340 O 510.09 -1.40465 1.29129 0
M  V30 5341 C 507.23 -2.20578 2.65404 0
M  V30 5342 C 506.343 -1.88068 3.88914 0
M  V30 5343 C 505.478 -3.09691 4.31584 0
M  V30 5344 C 504.517 -2.73067 5.47815 0
M  V30 5345 N 503.654 -3.87359 5.85574 0
M  V30 5346 H 508.494 -0.470118 2.94268 0
M  V30 5347 H 506.031 -0.220434 1.45439 0
M  V30 5348 H 507.989 -2.95011 2.94999 0
M  V30 5349 H 506.619 -2.64513 1.85021 0
M  V30 5350 H 505.671 -1.03816 3.6596 0
M  V30 5351 H 506.983 -1.57104 4.73413 0
M  V30 5352 H 506.137 -3.92431 4.62691 0
M  V30 5353 H 504.876 -3.43827 3.45882 0
M  V30 5354 H 503.881 -1.88742 5.16388 0
M  V30 5355 H 505.106 -2.40131 6.35227 0
M  V30 5356 H 503.052 -4.21311 5.02825 0
M  V30 5357 H 502.969 -3.60068 6.64746 0
M  V30 5358 H 504.237 -4.70761 6.21292 0
M  V30 5359 N 508.466 -1.55915 -0.229846 0
M  V30 5360 C 509.882 -1.48721 -0.579166 0
M  V30 5361 C 510.082 -0.736976 -1.87539 0
M  V30 5362 O 509.138 -0.273258 -2.51017 0
M  V30 5363 C 510.451 -2.9323 -0.666082 0
M  V30 5364 C 511.999 -3.03701 -0.757267 0
M  V30 5365 C 512.474 -4.49552 -0.8756 0
M  V30 5366 N 513.965 -4.53561 -0.940035 0
M  V30 5367 C 514.7 -5.63683 -1.05116 0
M  V30 5368 N 514.196 -6.83576 -1.12675 0
M  V30 5369 N 515.989 -5.51516 -1.08565 0
M  V30 5370 H 508.14 -2.03123 0.620857 0
M  V30 5371 H 510.403 -0.922898 0.21671 0
M  V30 5372 H 510.109 -3.51032 0.21664 0
M  V30 5373 H 509.983 -3.44668 -1.53243 0
M  V30 5374 H 512.37 -2.45969 -1.63043 0
M  V30 5375 H 512.451 -2.55446 0.134583 0
M  V30 5376 H 512.095 -5.079 -0.00692351 0
M  V30 5377 H 512.025 -4.95506 -1.78274 0
M  V30 5378 H 514.516 -3.67215 -0.892269 0
M  V30 5379 H 514.829 -7.63251 -1.21109 0
M  V30 5380 H 513.174 -6.86303 -1.09603 0
M  V30 5381 H 516.365 -4.5678 -1.02319 0
M  V30 5382 H 516.538 -6.37372 -1.1688 0
M  V30 5383 N 509.944 0.496216 -1.49584 0
M  V30 5384 C 510.907 1.57952 -1.66084 0
M  V30 5385 C 511.907 1.51729 -0.53244 0
M  V30 5386 O 513.097 1.54796 -0.79899 0
M  V30 5387 C 510.229 2.97604 -1.66268 0
M  V30 5388 H 511.422 1.44649 -2.6271 0
M  V30 5389 H 508.975 0.7208 -1.38687 0
M  V30 5390 H 509.71 3.16378 -0.712432 0
M  V30 5391 H 509.495 3.03528 -2.4822 0
M  V30 5392 H 510.985 3.76301 -1.81073 0
M  V30 5393 N 511.423 1.38739 0.74761 0
M  V30 5394 C 512.333 1.38696 1.89211 0
M  V30 5395 C 513.349 0.283303 1.71678 0
M  V30 5396 O 514.525 0.522713 1.94498 0
M  V30 5397 C 511.59 1.21662 3.24653 0
M  V30 5398 C 510.651 2.41886 3.54669 0
M  V30 5399 C 509.884 2.25655 4.83648 0
M  V30 5400 O 510.107 1.25339 5.56459 0
M  V30 5401 O 509.041 3.14372 5.13277 0
M  V30 5402 H 512.867 2.35143 1.92202 0
M  V30 5403 H 510.452 1.19721 0.893708 0
M  V30 5404 H 512.334 1.14246 4.05618 0
M  V30 5405 H 511.009 0.283024 3.2246 0
M  V30 5406 H 509.916 2.54877 2.73841 0
M  V30 5407 H 511.249 3.33895 3.61628 0
M  V30 5408 N 512.901 -0.976442 1.23707 0
M  V30 5409 C 514.317 -1.24341 1.00058 0
M  V30 5410 C 514.517 -1.99315 -0.295932 0
M  V30 5411 O 513.573 -2.3123 -1.01435 0
M  V30 5412 C 514.886 -2.03909 2.21001 0
M  V30 5413 C 516.434 -2.17034 2.25534 0
M  V30 5414 C 516.909 -2.99994 3.46075 0
M  V30 5415 N 518.4 -3.07578 3.46338 0
M  V30 5416 C 519.135 -3.72104 4.36264 0
M  V30 5417 N 518.631 -4.3842 5.36432 0
M  V30 5418 N 520.424 -3.69029 4.23998 0
M  V30 5419 H 512.575 -0.47428 2.07037 0
M  V30 5420 H 514.838 -0.272167 0.908091 0
M  V30 5421 H 514.544 -1.56198 3.15111 0
M  V30 5422 H 514.418 -3.04654 2.22409 0
M  V30 5423 H 516.805 -2.63951 1.31961 0
M  V30 5424 H 516.886 -1.15664 2.28156 0
M  V30 5425 H 516.53 -2.53772 4.39957 0
M  V30 5426 H 516.46 -4.01541 3.40694 0
M  V30 5427 H 518.951 -2.60397 2.73865 0
M  V30 5428 H 519.264 -4.85447 6.013 0
M  V30 5429 H 517.609 -4.37116 5.40328 0
M  V30 5430 H 520.8 -3.16392 3.44984 0
M  V30 5431 H 520.973 -4.19034 4.94282 0
M  V30 5432 N 514.379 -1.04941 -1.1758 0
M  V30 5433 C 515.309 -0.669172 -2.23706 0
M  V30 5434 C 516.29 0.331835 -1.66832 0
M  V30 5435 O 517.475 0.209988 -1.93061 0
M  V30 5436 C 514.605 -0.0404889 -3.47276 0
M  V30 5437 C 513.559 -0.965983 -4.16957 0
M  V30 5438 C 512.885 -0.201312 -5.34321 0
M  V30 5439 C 514.185 -2.28902 -4.69469 0
M  V30 5440 H 515.879 -1.55639 -2.55767 0
M  V30 5441 H 513.425 -0.749793 -1.22939 0
M  V30 5442 H 515.378 0.237298 -4.20731 0
M  V30 5443 H 514.102 0.881658 -3.14475 0
M  V30 5444 H 512.761 -1.22829 -3.45411 0
M  V30 5445 H 512.409 0.723519 -4.97769 0
M  V30 5446 H 512.109 -0.817968 -5.81879 0
M  V30 5447 H 513.633 0.0692499 -6.10561 0
M  V30 5448 H 515.047 -2.07132 -5.34574 0
M  V30 5449 H 513.444 -2.85942 -5.27596 0
M  V30 5450 H 514.514 -2.92937 -3.86414 0
M  V30 5451 N 515.857 1.33968 -0.830081 0
M  V30 5452 C 517.082 2.02813 -0.433796 0
M  V30 5453 C 517.507 1.62076 0.954614 0
M  V30 5454 O 516.865 0.808955 1.62252 0
M  V30 5455 C 516.913 3.56348 -0.552115 0
M  V30 5456 O 516.017 4.10202 0.425191 0
M  V30 5457 H 515.358 0.639817 -0.177567 0
M  V30 5458 H 517.888 1.7106 -1.12248 0
M  V30 5459 H 517.898 4.05722 -0.430513 0
M  V30 5460 H 516.573 3.85344 -1.56471 0
M  V30 5461 H 515.15 3.71979 0.261878 0
M  V30 5462 N 517.335 0.585699 1.46312 0
M  V30 5463 C 518.581 0.0725284 2.0267 0
M  V30 5464 C 518.914 -1.28523 1.45586 0
M  V30 5465 O 518.189 -1.84283 0.622101 0
M  V30 5466 C 518.472 0.0099788 3.60099 0
M  V30 5467 C 518.325 1.39685 4.27561 0
M  V30 5468 C 519.644 -0.689117 4.34671 0
M  V30 5469 H 516.763 0.0278307 0.736474 0
M  V30 5470 H 519.405 0.753472 1.74421 0
M  V30 5471 H 517.555 -0.56992 3.84297 0
M  V30 5472 H 519.227 2.02215 4.14617 0
M  V30 5473 H 517.47 1.96374 3.86807 0
M  V30 5474 H 518.141 1.30553 5.36339 0
M  V30 5475 H 520.617 -0.196446 4.15636 0
M  V30 5476 H 519.493 -0.701921 5.44393 0
M  V30 5477 H 519.754 -1.75101 4.05946 0
M  V30 5478 N 518.813 -1.54241 0.323641 0
M  V30 5479 C 520.061 -2.00174 -0.278359 0
M  V30 5480 C 520.382 -1.2134 -1.52648 0
M  V30 5481 O 519.652 -0.315244 -1.93347 0
M  V30 5482 H 518.232 -0.739463 -0.105845 0
M  V30 5483 H 520.894 -1.89864 0.440204 0
M  V30 5484 H 519.99 -3.07486 -0.5347 0
M  V30 5485 N 520.291 -0.0518155 -1.57515 0
M  V30 5486 C 521.702 0.483787 -1.80323 0
M  V30 5487 C 522.053 1.70879 -0.964099 0
M  V30 5488 O 521.178 2.15643 -0.180872 0
M  V30 5489 C 521.773 0.884459 -3.27052 0
M  V30 5490 C 520.332 1.36504 -3.50776 0
M  V30 5491 C 519.479 0.340539 -2.75201 0
M  V30 5492 H 522.43 -0.277691 -1.56252 0
M  V30 5493 H 522.451 1.74733 -3.38007 0
M  V30 5494 H 521.963 -0.00731093 -3.88099 0
M  V30 5495 H 520.064 2.27598 -2.95009 0
M  V30 5496 H 520.177 1.35675 -4.59488 0
M  V30 5497 H 518.541 0.81356 -2.41357 0
M  V30 5498 H 519.324 -0.543156 -3.38976 0
M  V30 5499 N 521.769 1.56035 0.221574 0
M  V30 5500 C 522.732 1.91584 1.2581 0
M  V30 5501 C 523.732 0.794425 1.39805 0
M  V30 5502 O 524.922 1.06217 1.38071 0
M  V30 5503 C 522.054 2.16663 2.63192 0
M  V30 5504 H 523.247 2.8429 0.954935 0
M  V30 5505 H 520.8 1.49316 0.461988 0
M  V30 5506 H 521.535 1.26508 2.98607 0
M  V30 5507 H 521.32 2.98358 2.5441 0
M  V30 5508 H 522.81 2.45262 3.37988 0
M  V30 5509 N 523.247 -0.488276 1.49845 0
M  V30 5510 C 524.157 -1.61451 1.70207 0
M  V30 5511 C 525.173 -1.63877 0.584846 0
M  V30 5512 O 526.349 -1.82063 0.861107 0
M  V30 5513 C 523.414 -2.9776 1.77594 0
M  V30 5514 C 522.475 -3.05861 3.01243 0
M  V30 5515 C 521.708 -4.35668 3.08268 0
M  V30 5516 O 521.931 -5.25197 2.22541 0
M  V30 5517 O 520.865 -4.49005 4.00847 0
M  V30 5518 H 524.691 -1.47199 2.65643 0
M  V30 5519 H 522.276 -0.665939 1.33737 0
M  V30 5520 H 524.158 -3.7875 1.84732 0
M  V30 5521 H 522.833 -3.12248 0.8534 0
M  V30 5522 H 521.74 -2.24012 2.99616 0
M  V30 5523 H 523.073 -2.96304 3.9302 0
M  V30 5524 N 524.725 -1.39134 -0.740242 0
M  V30 5525 C 525.635 -1.39697 -1.88473 0
M  V30 5526 C 526.651 -0.292403 -1.71526 0
M  V30 5527 O 527.827 -0.533021 -1.94219 0
M  V30 5528 C 524.892 -1.23382 -3.24003 0
M  V30 5529 C 523.953 -2.43763 -3.53381 0
M  V30 5530 C 523.186 -2.28216 -4.82445 0
M  V30 5531 O 523.409 -1.28288 -5.55786 0
M  V30 5532 O 522.343 -3.1709 -5.11603 0
M  V30 5533 H 526.169 -2.36159 -1.90952 0
M  V30 5534 H 523.754 -1.20194 -0.887346 0
M  V30 5535 H 525.636 -1.16395 -4.05006 0
M  V30 5536 H 524.311 -0.300121 -3.22306 0
M  V30 5537 H 523.218 -2.56325 -2.72485 0
M  V30 5538 H 524.551 -3.35808 -3.59852 0
M  V30 5539 N 526.204 0.969867 -1.24223 0
M  V30 5540 C 527.152 2.08535 -1.03034 0
M  V30 5541 C 528.146 1.69366 0.0340379 0
M  V30 5542 O 529.352 1.79597 -0.12034 0
M  V30 5543 H 525.727 0.682313 -0.316154 0
M  V30 5544 H 527.698 2.23569 -1.97635 0
M  V30 5545 C 526.447 3.4158 -0.649509 0
M  V30 5546 H 525.77 3.72177 -1.46028 0
M  V30 5547 H 527.21 4.20536 -0.540841 0
M  V30 5548 C 525.669 3.30703 0.643194 0
M  V30 5549 O 526.199 3.64443 1.68951 0
M  V30 5550 N 524.405 2.83841 0.623095 0
M  V30 5551 H 523.952 2.56583 -0.228719 0
M  V30 5552 H 523.91 2.76946 1.48823 0
M  V30 5553 N 527.682 1.05563 1.17022 0
M  V30 5554 C 529.093 0.793475 1.69 0
M  V30 5555 C 529.444 -0.683882 1.83895 0
M  V30 5556 O 528.569 -1.53116 1.5292 0
M  V30 5557 C 529.164 1.43376 3.06967 0
M  V30 5558 C 527.723 1.21956 3.56095 0
M  V30 5559 C 526.87 1.51494 2.3226 0
M  V30 5560 H 529.821 1.22008 1.01487 0
M  V30 5561 H 529.842 0.845068 3.70997 0
M  V30 5562 H 529.354 2.50899 2.96093 0
M  V30 5563 H 527.455 0.163749 3.7224 0
M  V30 5564 H 527.568 1.92713 4.38633 0
M  V30 5565 H 525.932 0.935175 2.3691 0
M  V30 5566 H 526.715 2.60159 2.23992 0
M  V30 5567 N 529.16 -1.33526 0.837174 0
M  V30 5568 C 530.437 -1.92369 0.354065 0
M  V30 5569 C 530.817 -1.76348 -1.16038 0
M  V30 5570 O 530.165 -1.15083 -1.97403 0
M  V30 5571 C 530.375 -3.39728 0.799101 0
M  V30 5572 C 531.723 -4.16877 0.806139 0
M  V30 5573 O 532.747 -3.48373 0.742597 0
M  V30 5574 O 531.606 -5.39166 0.892345 0
M  V30 5575 H 528.7 -0.820952 0.0998378 0
M  V30 5576 H 531.246 -1.42409 0.922913 0
M  V30 5577 H 530.018 -3.45254 1.84162 0
M  V30 5578 H 529.641 -3.97062 0.206731 0
M  V30 5579 N 530.638 -0.59345 -1.46 0
M  V30 5580 C 531.568 0.121192 -2.33185 0
M  V30 5581 C 532.549 0.872977 -1.4599 0
M  V30 5582 O 533.734 0.846321 -1.74789 0
M  V30 5583 C 530.864 1.12844 -3.28456 0
M  V30 5584 C 529.818 0.4908 -4.25177 0
M  V30 5585 C 529.144 1.60529 -5.10034 0
M  V30 5586 C 530.444 -0.578949 -5.19081 0
M  V30 5587 H 532.138 -0.606767 -2.93187 0
M  V30 5588 H 529.684 -0.293242 -1.40983 0
M  V30 5589 H 531.637 1.63684 -3.88311 0
M  V30 5590 H 530.361 1.88681 -2.66584 0
M  V30 5591 H 529.02 0.00339328 -3.666 0
M  V30 5592 H 528.668 2.35359 -4.44539 0
M  V30 5593 H 528.368 1.18422 -5.75543 0
M  V30 5594 H 529.892 2.11623 -5.72755 0
M  V30 5595 H 531.306 -0.155199 -5.7309 0
M  V30 5596 H 529.703 -0.920947 -5.92991 0
M  V30 5597 H 530.773 -1.46109 -4.62364 0
M  V30 5598 N 532.116 1.54067 -0.331816 0
M  V30 5599 C 533.364 2.00319 0.267739 0
M  V30 5600 C 533.685 1.22148 1.52003 0
M  V30 5601 O 532.955 0.325494 1.93177 0
M  V30 5602 H 531.535 0.740014 0.101922 0
M  V30 5603 H 534.197 1.89628 -0.450267 0
M  V30 5604 H 533.293 3.07765 0.518385 0
M  V30 5605 N 533.594 0.0601682 1.57485 0
M  V30 5606 C 535.005 -0.474217 1.80577 0
M  V30 5607 C 535.356 -1.70365 0.973147 0
M  V30 5608 O 534.481 -2.15544 0.192306 0
M  V30 5609 C 535.076 -0.867102 3.27516 0
M  V30 5610 C 533.635 -1.34642 3.51495 0
M  V30 5611 C 532.782 -0.32594 2.75378 0
M  V30 5612 H 535.733 0.285973 1.56102 0
M  V30 5613 H 535.754 -1.72938 3.38929 0
M  V30 5614 H 535.266 0.0278927 3.8809 0
M  V30 5615 H 533.367 -2.2603 2.96212 0
M  V30 5616 H 533.48 -1.33237 4.60201 0
M  V30 5617 H 531.844 -0.800749 2.41785 0
M  V30 5618 H 532.627 0.561125 3.38683 0
M  V30 5619 N 535.072 -1.5615 -0.213296 0
M  V30 5620 C 536.318 -1.79812 -0.937849 0
M  V30 5621 C 536.651 -0.631201 -1.83656 0
M  V30 5622 O 535.926 0.369165 -1.90964 0
M  V30 5623 C 536.209 -3.13613 -1.76972 0
M  V30 5624 C 536.062 -4.40766 -0.89695 0
M  V30 5625 C 537.381 -3.43931 -2.7459 0
M  V30 5626 H 534.5 -0.654138 -0.339518 0
M  V30 5627 H 537.142 -1.88877 -0.20623 0
M  V30 5628 H 535.292 -3.06015 -2.39347 0
M  V30 5629 H 536.964 -4.60392 -0.289306 0
M  V30 5630 H 535.207 -4.33326 -0.202756 0
M  V30 5631 H 535.878 -5.30843 -1.51358 0
M  V30 5632 H 538.354 -3.5171 -2.22349 0
M  V30 5633 H 537.23 -4.38706 -3.29891 0
M  V30 5634 H 537.491 -2.6651 -3.52739 0
M  V30 5635 N 536.55 0.480323 -1.50102 0
M  V30 5636 C 537.796 1.23489 -1.60867 0
M  V30 5637 C 538.129 1.91809 -0.303827 0
M  V30 5638 O 537.404 1.81694 0.694092 0
M  V30 5639 C 537.687 2.28578 -2.78252 0
M  V30 5640 C 537.54 1.64624 -4.18592 0
M  V30 5641 C 538.859 3.2997 -2.91218 0
M  V30 5642 H 535.978 0.447605 -0.585507 0
M  V30 5643 H 538.62 0.530005 -1.82458 0
M  V30 5644 H 536.77 2.88697 -2.59974 0
M  V30 5645 H 538.442 1.08173 -4.48438 0
M  V30 5646 H 536.685 0.949645 -4.23278 0
M  V30 5647 H 537.356 2.40946 -4.96638 0
M  V30 5648 H 539.832 2.79864 -3.07921 0
M  V30 5649 H 538.708 4.00839 -3.74993 0
M  V30 5650 H 538.969 3.93541 -2.0144 0
M  V30 5651 N 538.028 1.39524 0.732853 0
M  V30 5652 C 539.253 1.40329 1.52717 0
M  V30 5653 C 539.678 0.000286574 1.881 0
M  V30 5654 O 539.036 -0.987262 1.52062 0
M  V30 5655 C 539.084 2.28464 2.78992 0
M  V30 5656 O 538.188 1.716 3.75003 0
M  V30 5657 H 537.529 0.47778 0.461109 0
M  V30 5658 H 540.059 1.83546 0.903996 0
M  V30 5659 H 540.069 2.43051 3.27705 0
M  V30 5660 H 538.744 3.30425 2.52572 0
M  V30 5661 H 537.321 1.66267 3.33781 0
M  V30 5662 N 539.506 -0.963266 1.24736 0
M  V30 5663 C 540.469 -2.04013 1.04457 0
M  V30 5664 C 541.469 -1.608 0.000335555 0
M  V30 5665 O 542.659 -1.72515 0.241719 0
M  V30 5666 C 539.791 -3.35858 0.584162 0
M  V30 5667 H 540.984 -2.23436 2.00041 0
M  V30 5668 H 538.537 -1.13914 1.07021 0
M  V30 5669 H 539.272 -3.22128 -0.374673 0
M  V30 5670 H 539.057 -3.68568 1.3379 0
M  V30 5671 H 540.547 -4.1502 0.463451 0
M  V30 5672 N 540.985 -1.06182 -1.16461 0
M  V30 5673 C 541.895 -0.682671 -2.24448 0
M  V30 5674 C 542.911 0.30078 -1.71381 0
M  V30 5675 O 544.087 0.150376 -2.00838 0
M  V30 5676 C 541.152 -0.0737202 -3.46622 0
M  V30 5677 C 540.213 -1.10889 -4.14731 0
M  V30 5678 C 539.446 -0.528908 -5.31073 0
M  V30 5679 O 539.669 0.65868 -5.66584 0
M  V30 5680 O 538.603 -1.26805 -5.88391 0
M  V30 5681 H 542.429 -1.58291 -2.59187 0
M  V30 5682 H 540.014 -0.834013 -1.23954 0
M  V30 5683 H 541.896 0.264192 -4.20571 0
M  V30 5684 H 540.571 0.800015 -3.13658 0
M  V30 5685 H 539.478 -1.49896 -3.42756 0
M  V30 5686 H 540.811 -1.95412 -4.51747 0
M  V30 5687 N 542.463 1.3308 -0.844243 0
M  V30 5688 C 543.395 2.27954 -0.238671 0
M  V30 5689 C 544.408 1.51978 0.583665 0
M  V30 5690 O 545.597 1.73731 0.409857 0
M  V30 5691 C 542.697 3.31963 0.682185 0
M  V30 5692 C 541.87 4.37281 -0.101998 0
M  V30 5693 C 540.929 5.20928 0.743022 0
M  V30 5694 O 539.955 5.68914 0.180285 0
M  V30 5695 N 541.157 5.42738 2.0595 0
M  V30 5696 H 543.922 2.8056 -1.05386 0
M  V30 5697 H 541.483 1.4583 -0.70322 0
M  V30 5698 H 543.475 3.84828 1.25259 0
M  V30 5699 H 542.045 2.79594 1.39808 0
M  V30 5700 H 541.265 3.84843 -0.853802 0
M  V30 5701 H 542.553 5.04746 -0.641015 0
M  V30 5702 H 541.951 5.05463 2.54016 0
M  V30 5703 H 540.508 5.98639 2.57827 0
M  V30 5704 N 543.941 0.601185 1.45683 0
M  V30 5705 C 544.851 -0.123395 2.34275 0
M  V30 5706 C 545.867 -0.86702 1.5086 0
M  V30 5707 O 547.043 -0.826049 1.8368 0
M  V30 5708 C 544.108 -1.11237 3.2837 0
M  V30 5709 C 543.169 -0.371405 4.2769 0
M  V30 5710 C 542.402 -1.31327 5.1729 0
M  V30 5711 O 542.625 -2.55078 5.10188 0
M  V30 5712 O 541.559 -0.813811 5.96373 0
M  V30 5713 H 545.385 0.604483 2.97623 0
M  V30 5714 H 542.97 0.361477 1.44961 0
M  V30 5715 H 544.852 -1.68214 3.8637 0
M  V30 5716 H 543.527 -1.82139 2.67595 0
M  V30 5717 H 542.434 0.24067 3.73325 0
M  V30 5718 H 543.767 0.296998 4.91303 0
M  V30 5719 N 545.419 -1.53889 0.339982 0
M  V30 5720 C 546.835 -1.59595 -0.0120752 0
M  V30 5721 C 547.035 -1.35605 -1.49042 0
M  V30 5722 O 546.091 -1.14856 -2.24865 0
M  V30 5723 C 547.404 -2.9774 0.420898 0
M  V30 5724 C 548.952 -3.1077 0.37294 0
M  V30 5725 C 549.427 -4.51286 0.781327 0
M  V30 5726 N 550.918 -4.57325 0.735374 0
M  V30 5727 C 551.653 -5.64194 1.02336 0
M  V30 5728 N 551.149 -6.7893 1.37933 0
M  V30 5729 N 552.942 -5.54051 0.947838 0
M  V30 5730 H 545.093 -1.67738 1.30299 0
M  V30 5731 H 547.356 -0.785385 0.530918 0
M  V30 5732 H 547.062 -3.20349 1.45152 0
M  V30 5733 H 546.936 -3.76639 -0.205721 0
M  V30 5734 H 549.323 -2.87886 -0.648505 0
M  V30 5735 H 549.404 -2.33939 1.03472 0
M  V30 5736 H 549.048 -4.74905 1.80077 0
M  V30 5737 H 548.978 -5.26511 0.0970679 0
M  V30 5738 H 551.469 -3.74931 0.472773 0
M  V30 5739 H 551.782 -7.56392 1.58402 0
M  V30 5740 H 550.127 -6.80386 1.41774 0
M  V30 5741 H 553.318 -4.63293 0.669115 0
M  V30 5742 H 553.491 -6.37246 1.17563 0
M  V30 5743 N 546.897 -0.0685191 -1.57451 0
M  V30 5744 C 547.844 0.899861 -2.12535 0
M  V30 5745 C 548.814 1.29749 -1.03703 0
M  V30 5746 O 549.999 1.38392 -1.31348 0
M  V30 5747 C 547.139 2.16328 -2.6888 0
M  V30 5748 C 546.252 1.81857 -3.91857 0
M  V30 5749 C 545.387 3.02786 -4.36457 0
M  V30 5750 C 544.426 2.64317 -5.5209 0
M  V30 5751 N 543.563 3.77994 -5.91663 0
M  V30 5752 H 548.403 0.423243 -2.94979 0
M  V30 5753 H 545.94 0.197268 -1.45771 0
M  V30 5754 H 547.898 2.90281 -2.99655 0
M  V30 5755 H 546.528 2.61536 -1.89206 0
M  V30 5756 H 545.58 0.979808 -3.67565 0
M  V30 5757 H 546.892 1.49553 -4.75852 0
M  V30 5758 H 546.046 3.85021 -4.68875 0
M  V30 5759 H 544.785 3.38281 -3.51308 0
M  V30 5760 H 543.79 1.80503 -5.19325 0
M  V30 5761 H 545.015 2.29995 -6.38967 0
M  V30 5762 H 542.961 4.13258 -5.09464 0
M  V30 5763 H 542.878 3.49447 -6.7039 0
M  V30 5764 H 544.146 4.60818 -6.28703 0
M  V30 5765 N 548.375 1.56261 0.205012 0
M  V30 5766 C 549.621 1.80306 0.9283 0
M  V30 5767 C 549.954 0.640932 1.83319 0
M  V30 5768 O 549.229 -0.359032 1.91158 0
M  V30 5769 C 549.512 3.14547 1.75306 0
M  V30 5770 C 549.365 4.41236 0.873562 0
M  V30 5771 C 550.684 3.45382 2.72762 0
M  V30 5772 H 547.803 0.655929 0.336044 0
M  V30 5773 H 550.445 1.88984 0.196211 0
M  V30 5774 H 548.595 3.0728 2.37721 0
M  V30 5775 H 550.267 4.60539 0.264887 0
M  V30 5776 H 548.51 4.33427 0.179773 0
M  V30 5777 H 549.181 5.31639 1.48541 0
M  V30 5778 H 551.657 3.52884 2.20481 0
M  V30 5779 H 550.533 4.40449 3.2756 0
M  V30 5780 H 550.794 2.68377 3.51321 0
M  V30 5781 N 549.853 -0.472356 1.50355 0
M  V30 5782 C 550.783 -1.57859 1.72055 0
M  V30 5783 C 551.764 -1.60283 0.569505 0
M  V30 5784 O 552.949 -1.7657 0.808503 0
M  V30 5785 C 550.079 -2.96191 1.81351 0
M  V30 5786 C 549.033 -3.08633 2.96529 0
M  V30 5787 C 548.359 -4.486 2.90968 0
M  V30 5788 C 549.659 -2.85969 4.37057 0
M  V30 5789 H 551.353 -1.39953 2.64676 0
M  V30 5790 H 548.899 -0.671846 1.27367 0
M  V30 5791 H 550.852 -3.73507 1.95117 0
M  V30 5792 H 549.576 -3.15251 0.853502 0
M  V30 5793 H 548.235 -2.33749 2.82413 0
M  V30 5794 H 547.883 -4.64577 1.92815 0
M  V30 5795 H 547.583 -4.57861 3.68289 0
M  V30 5796 H 549.107 -5.27938 3.0678 0
M  V30 5797 H 550.521 -3.53036 4.51706 0
M  V30 5798 H 548.918 -3.06677 5.15819 0
M  V30 5799 H 549.988 -1.81838 4.49514 0
M  V30 5800 N 551.331 -1.39911 -0.725443 0
M  V30 5801 C 552.556 -1.41137 -1.5197 0
M  V30 5802 C 552.981 -0.010262 -1.88097 0
M  V30 5803 O 552.339 0.979184 -1.52583 0
M  V30 5804 C 552.387 -2.2994 -2.77777 0
M  V30 5805 O 551.491 -1.73586 -3.74088 0
M  V30 5806 H 550.832 -0.480219 -0.458569 0
M  V30 5807 H 553.362 -1.84023 -0.894249 0
M  V30 5808 H 553.372 -2.44785 -3.26411 0
M  V30 5809 H 552.047 -3.31759 -2.50816 0
M  V30 5810 H 550.624 -1.68035 -3.32894 0
M  V30 5811 N 552.809 0.956637 -1.25245 0
M  V30 5812 C 554.039 1.7332 -1.12445 0
M  V30 5813 C 554.447 1.86392 0.324732 0
M  V30 5814 O 553.79 1.35967 1.23526 0
M  V30 5815 C 553.852 3.16603 -1.70303 0
M  V30 5816 C 553.516 3.26966 -3.19284 0
M  V30 5817 C 554.513 3.11434 -4.16299 0
M  V30 5818 C 552.198 3.50851 -3.59456 0
M  V30 5819 C 554.192 3.1963 -5.51467 0
M  V30 5820 C 551.879 3.58684 -4.94761 0
M  V30 5821 C 552.877 3.43087 -5.90576 0
M  V30 5822 O 552.565 3.50598 -7.2342 0
M  V30 5823 H 552.297 0.549981 -0.393061 0
M  V30 5824 H 554.851 1.20892 -1.66055 0
M  V30 5825 H 553.081 3.70385 -1.11138 0
M  V30 5826 H 554.77 3.76109 -1.52632 0
M  V30 5827 H 555.536 2.92853 -3.86604 0
M  V30 5828 H 551.415 3.62053 -2.85375 0
M  V30 5829 H 554.959 3.07373 -6.26233 0
M  V30 5830 H 550.856 3.76782 -5.24124 0
M  V30 5831 H 551.624 3.67242 -7.31489 0
M  V30 5832 N 554.287 1.06798 1.15896 0
M  V30 5833 C 555.536 0.782796 1.8589 0
M  V30 5834 C 555.849 -0.693498 1.82893 0
M  V30 5835 O 557.055 -1.09325 2.48516 0
M  V30 5836 C 555.511 1.3502 3.33613 0
M  V30 5837 C 555.119 2.8571 3.45071 0
M  V30 5838 C 556.863 1.14278 4.08829 0
M  V30 5839 C 554.77 3.35669 4.86909 0
M  V30 5840 H 553.7 0.289149 0.696354 0
M  V30 5841 H 556.351 1.28734 1.30766 0
M  V30 5842 H 554.733 0.773407 3.88374 0
M  V30 5843 H 555.907 3.49385 3.00445 0
M  V30 5844 H 554.222 3.05178 2.83294 0
M  V30 5845 H 556.819 1.49087 5.13495 0
M  V30 5846 H 557.162 0.0814575 4.1622 0
M  V30 5847 H 557.695 1.68563 3.60321 0
M  V30 5848 H 554.434 4.41302 4.84698 0
M  V30 5849 H 553.954 2.76745 5.32139 0
M  V30 5850 H 555.633 3.31296 5.55745 0
M  V30 5851 N 555.766 -1.3263 0.851289 0
M  V30 5852 C 556.676 -2.32722 0.296268 0
M  V30 5853 C 557.692 -1.63901 -0.584162 0
M  V30 5854 O 558.868 -1.95465 -0.485334 0
M  V30 5855 C 555.933 -3.42942 -0.509103 0
M  V30 5856 C 554.994 -4.2746 0.397069 0
M  V30 5857 C 554.227 -5.32416 -0.36996 0
M  V30 5858 O 554.45 -5.47491 -1.6003 0
M  V30 5859 O 553.384 -6.01327 0.262493 0
M  V30 5860 H 557.21 -2.82078 1.12543 0
M  V30 5861 H 554.795 -1.36194 0.614135 0
M  V30 5862 H 556.677 -4.1017 -0.96634 0
M  V30 5863 H 555.352 -2.95781 -1.31512 0
M  V30 5864 H 554.259 -3.63053 0.902411 0
M  V30 5865 H 555.592 -4.78136 1.16818 0
M  V30 5866 N 557.244 -0.608902 -1.45362 0
M  V30 5867 C 558.493 -0.10218 -2.01441 0
M  V30 5868 C 558.806 1.27546 -1.48295 0
M  V30 5869 O 560.012 1.87498 -1.96359 0
M  V30 5870 C 558.468 -0.131985 -3.59658 0
M  V30 5871 C 558.076 -1.50956 -4.21801 0
M  V30 5872 C 559.82 0.319427 -4.23296 0
M  V30 5873 C 557.727 -1.49568 -5.72174 0
M  V30 5874 H 556.657 -0.0344314 -0.753213 0
M  V30 5875 H 559.308 -0.764426 -1.6682 0
M  V30 5876 H 557.69 0.596939 -3.91475 0
M  V30 5877 H 558.864 -2.26029 -4.01556 0
M  V30 5878 H 557.179 -1.90318 -3.70362 0
M  V30 5879 H 559.776 0.349013 -5.3356 0
M  V30 5880 H 560.119 1.34237 -3.94064 0
M  V30 5881 H 560.652 -0.356273 -3.96201 0
M  V30 5882 H 557.391 -2.49626 -6.06108 0
M  V30 5883 H 556.911 -0.787542 -5.94607 0
M  V30 5884 H 558.59 -1.21989 -6.35396 0
M  V30 5885 N 558.722 1.53707 -0.348139 0
M  V30 5886 C 559.97 2.00591 0.246478 0
M  V30 5887 C 560.291 1.23753 1.50699 0
M  V30 5888 O 559.561 0.345964 1.92821 0
M  V30 5889 H 558.141 0.741053 0.0940679 0
M  V30 5890 H 560.803 1.89139 -0.470354 0
M  V30 5891 H 559.899 3.08297 0.485714 0
M  V30 5892 N 560.2 0.0768682 1.57412 0
M  V30 5893 C 561.147 -0.888577 2.13009 0
M  V30 5894 C 562.117 -1.29198 1.0439 0
M  V30 5895 O 563.302 -1.37694 1.3208 0
M  V30 5896 C 560.442 -2.14899 2.70023 0
M  V30 5897 C 559.555 -1.79777 3.92816 0
M  V30 5898 C 558.69 -3.00467 4.38056 0
M  V30 5899 C 557.729 -2.61385 5.53484 0
M  V30 5900 N 556.866 -3.74851 5.93659 0
M  V30 5901 H 561.706 -0.407593 2.95199 0
M  V30 5902 H 559.243 -0.189534 1.45874 0
M  V30 5903 H 561.201 -2.88688 3.0119 0
M  V30 5904 H 559.831 -2.60529 1.9059 0
M  V30 5905 H 558.883 -0.960301 3.68079 0
M  V30 5906 H 560.195 -1.47027 4.76639 0
M  V30 5907 H 559.349 -3.82529 4.7091 0
M  V30 5908 H 558.088 -3.36413 3.53097 0
M  V30 5909 H 557.093 -1.77746 5.20275 0
M  V30 5910 H 558.318 -2.26603 6.40178 0
M  V30 5911 H 556.264 -4.1055 5.11649 0
M  V30 5912 H 556.181 -3.45887 6.72234 0
M  V30 5913 H 557.449 -4.57477 6.31138 0
M  V30 5914 N 561.678 -1.56367 -0.196722 0
M  V30 5915 C 562.626 -1.95304 -1.2633 0
M  V30 5916 C 563.62 -0.838252 -1.47206 0
M  V30 5917 O 564.826 -1.02325 -1.48087 0
M  V30 5918 H 561.201 -0.621013 -0.424083 0
M  V30 5919 H 563.172 -2.84254 -0.907879 0
M  V30 5920 C 561.921 -2.3074 -2.60104 0
M  V30 5921 H 561.244 -3.16047 -2.44856 0
M  V30 5922 H 562.684 -2.61849 -3.33484 0
M  V30 5923 C 561.143 -1.14143 -3.16975 0
M  V30 5924 O 561.673 -0.415602 -3.99544 0
M  V30 5925 N 559.879 -0.91867 -2.75697 0
M  V30 5926 H 559.426 -1.51065 -2.08656 0
M  V30 5927 H 559.384 -0.140321 -3.14087 0
M  V30 5928 N 563.156 0.464375 -1.50603 0
M  V30 5929 C 564.066 1.58723 -1.72754 0
M  V30 5930 C 565.082 1.62925 -0.610844 0
M  V30 5931 O 566.258 1.8067 -0.889963 0
M  V30 5932 C 563.323 2.94897 -1.82309 0
M  V30 5933 C 562.384 3.0103 -3.06071 0
M  V30 5934 C 561.617 4.30708 -3.1516 0
M  V30 5935 O 561.84 5.2159 -2.30868 0
M  V30 5936 O 560.774 4.42571 -4.0794 0
M  V30 5937 H 564.6 1.42954 -2.67951 0
M  V30 5938 H 562.185 0.644579 -1.3478 0
M  V30 5939 H 564.067 3.75764 -1.90735 0
M  V30 5940 H 562.742 3.10851 -0.902967 0
M  V30 5941 H 561.649 2.19217 -3.03142 0
M  V30 5942 H 562.982 2.90014 -3.97684 0
M  V30 5943 N 564.634 1.40294 0.718013 0
M  V30 5944 C 565.882 1.38167 1.47494 0
M  V30 5945 C 566.203 -0.01607 1.94993 0
M  V30 5946 O 565.473 -0.970396 1.70177 0
M  V30 5947 H 564.053 0.508505 0.547203 0
M  V30 5948 H 566.715 1.75324 0.851322 0
M  V30 5949 H 565.811 2.05503 2.34894 0
M  V30 5950 N 566.112 -0.949982 1.2575 0
M  V30 5951 C 567.044 -2.05088 1.02331 0
M  V30 5952 C 568.057 -1.62795 -0.0133247 0
M  V30 5953 O 569.246 -1.77067 0.225759 0
M  V30 5954 C 566.346 -3.34794 0.525924 0
M  V30 5955 C 565.519 -4.05903 1.62978 0
M  V30 5956 C 564.578 -5.1388 1.13196 0
M  V30 5957 O 563.604 -5.39072 1.82729 0
M  V30 5958 N 564.806 -5.80495 -0.0242926 0
M  V30 5959 H 567.571 -2.25747 1.97125 0
M  V30 5960 H 565.132 -1.11886 1.17018 0
M  V30 5961 H 567.124 -4.04312 0.177263 0
M  V30 5962 H 565.694 -3.10872 -0.328202 0
M  V30 5963 H 564.914 -3.3042 2.1498 0
M  V30 5964 H 566.202 -4.50166 2.37124 0
M  V30 5965 H 565.6 -5.62454 -0.605184 0
M  V30 5966 H 564.157 -6.51043 -0.313947 0
M  V30 5967 N 567.59 -1.07411 -1.15328 0
M  V30 5968 C 568.52 -0.716472 -2.22236 0
M  V30 5969 C 569.501 0.296373 -1.67498 0
M  V30 5970 O 570.686 0.168989 -1.93463 0
M  V30 5971 C 567.816 -0.114142 -3.47112 0
M  V30 5972 C 566.77 -1.05421 -4.14814 0
M  V30 5973 C 566.096 -0.314604 -5.33774 0
M  V30 5974 C 567.396 -2.38808 -4.64508 0
M  V30 5975 H 569.09 -1.61029 -2.52408 0
M  V30 5976 H 566.636 -0.775702 -1.21321 0
M  V30 5977 H 568.589 0.148001 -4.2114 0
M  V30 5978 H 567.313 0.814755 -3.16274 0
M  V30 5979 H 565.972 -1.30128 -3.42728 0
M  V30 5980 H 565.62 0.617772 -4.99192 0
M  V30 5981 H 565.32 -0.941209 -5.80013 0
M  V30 5982 H 566.844 -0.0602747 -6.1057 0
M  V30 5983 H 568.258 -2.18424 -5.3006 0
M  V30 5984 H 566.655 -2.97069 -5.21412 0
M  V30 5985 H 567.725 -3.01067 -3.80114 0
M  V30 5986 N 569.068 1.32177 -0.85831 0
M  V30 5987 C 570.314 1.97417 -0.46417 0
M  V30 5988 C 570.647 1.67746 0.978514 0
M  V30 5989 O 569.922 0.967654 1.68721 0
M  V30 5990 C 570.205 3.53069 -0.708094 0
M  V30 5991 C 570.058 3.92357 -2.19946 0
M  V30 5992 C 571.377 4.39783 -0.166881 0
M  V30 5993 H 568.496 0.717097 -0.17012 0
M  V30 5994 H 571.138 1.56499 -1.07741 0
M  V30 5995 H 569.288 3.88054 -0.186128 0
M  V30 5996 H 570.96 3.67533 -2.78779 0
M  V30 5997 H 569.203 3.41384 -2.67656 0
M  V30 5998 H 569.874 5.00841 -2.32082 0
M  V30 5999 H 572.35 4.11556 -0.613285 0
M  V30 6000 H 571.226 5.47671 -0.367093 0
M  V30 6001 H 571.487 4.32196 0.930559 0
M  V30 6002 N 570.547 0.616602 1.45037 0
M  V30 6003 C 571.477 -0.0840787 2.33349 0
M  V30 6004 C 572.458 -0.849641 1.4736 0
M  V30 6005 O 573.643 -0.818407 1.76113 0
M  V30 6006 C 570.773 -1.07604 3.3021 0
M  V30 6007 C 569.727 -0.423096 4.25904 0
M  V30 6008 C 569.053 -1.52394 5.12523 0
M  V30 6009 C 570.353 0.661457 5.18095 0
M  V30 6010 H 572.047 0.653333 2.92185 0
M  V30 6011 H 569.593 0.315634 1.40498 0
M  V30 6012 H 571.546 -1.57485 3.90866 0
M  V30 6013 H 570.27 -1.84416 2.69552 0
M  V30 6014 H 568.929 0.05493 3.66559 0
M  V30 6015 H 568.577 -2.28257 4.48227 0
M  V30 6016 H 568.277 -1.09251 5.77354 0
M  V30 6017 H 569.801 -2.02485 5.76049 0
M  V30 6018 H 571.215 0.246353 5.7277 0
M  V30 6019 H 569.612 1.01517 5.91451 0
M  V30 6020 H 570.682 1.53446 4.59981 0
M  V30 6021 N 572.025 -1.5352 0.356285 0
M  V30 6022 C 573.273 -2.00719 -0.235837 0
M  V30 6023 C 573.594 -1.24551 -1.5004 0
M  V30 6024 O 572.864 -0.356185 -1.92635 0
M  V30 6025 H 571.444 -0.741542 -0.0901366 0
M  V30 6026 H 574.106 -1.88887 0.480378 0
M  V30 6027 H 573.202 -3.08551 -0.469357 0
M  V30 6028 N 573.503 -0.0852151 -1.57369 0
M  V30 6029 C 574.751 0.579658 -1.93609 0
M  V30 6030 C 575.072 1.69332 -0.967043 0
M  V30 6031 O 574.342 1.95892 -0.0174215 0
M  V30 6032 H 572.922 0.217113 -0.714752 0
M  V30 6033 H 575.584 -0.146226 -1.94351 0
M  V30 6034 H 574.68 0.996276 -2.95771 0
M  V30 6035 N 574.981 1.5647 0.188427 0
M  V30 6036 C 575.928 1.95073 1.23349 0
M  V30 6037 C 576.898 0.812238 1.44886 0
M  V30 6038 O 578.083 1.07095 1.57909 0
M  V30 6039 C 575.223 2.30124 2.57171 0
M  V30 6040 C 574.336 3.57069 2.43157 0
M  V30 6041 C 573.471 3.81411 3.69729 0
M  V30 6042 C 572.51 5.0176 3.50575 0
M  V30 6043 N 571.647 5.22321 4.69175 0
M  V30 6044 H 576.487 2.84171 0.89728 0
M  V30 6045 H 574.024 1.40623 0.431683 0
M  V30 6046 H 575.982 2.48463 3.35145 0
M  V30 6047 H 574.612 1.44159 2.88822 0
M  V30 6048 H 573.664 3.4674 1.56447 0
M  V30 6049 H 574.976 4.452 2.24942 0
M  V30 6050 H 574.13 4.00026 4.56141 0
M  V30 6051 H 572.869 2.91624 3.90905 0
M  V30 6052 H 571.874 4.83061 2.62549 0
M  V30 6053 H 573.099 5.93063 3.30837 0
M  V30 6054 H 571.045 4.35483 4.90602 0
M  V30 6055 H 570.962 6.04643 4.53809 0
M  V30 6056 H 572.23 5.45401 5.56919 0
M  V30 6057 N 576.459 -0.456382 1.50847 0
M  V30 6058 C 577.875 -0.791345 1.386 0
M  V30 6059 C 578.075 -1.9633 0.453498 0
M  V30 6060 O 577.131 -2.52308 -0.0984353 0
M  V30 6061 C 578.444 -1.08959 2.80265 0
M  V30 6062 C 579.992 -1.19517 2.89283 0
M  V30 6063 C 580.467 -1.52647 4.31814 0
M  V30 6064 N 581.958 -1.59609 4.34832 0
M  V30 6065 C 582.693 -1.86777 5.42127 0
M  V30 6066 N 582.189 -2.11866 6.59609 0
M  V30 6067 N 583.982 -1.88402 5.29586 0
M  V30 6068 H 576.133 0.315746 2.1004 0
M  V30 6069 H 578.396 0.0787916 0.94472 0
M  V30 6070 H 578.102 -0.301355 3.50407 0
M  V30 6071 H 577.976 -2.02211 3.18419 0
M  V30 6072 H 580.363 -1.97406 2.19351 0
M  V30 6073 H 580.444 -0.242111 2.54652 0
M  V30 6074 H 580.088 -0.752922 5.02288 0
M  V30 6075 H 580.018 -2.49127 4.63943 0
M  V30 6076 H 582.509 -1.42201 3.50125 0
M  V30 6077 H 582.822 -2.31912 7.37182 0
M  V30 6078 H 581.167 -2.09228 6.62758 0
M  V30 6079 H 584.358 -1.68307 4.36795 0
M  V30 6080 H 584.531 -2.09238 6.13289 0
M  V30 6081 N 577.937 -1.40673 -0.710563 0
M  V30 6082 C 578.867 -1.44095 -1.83736 0
M  V30 6083 C 579.848 -0.301286 -1.67411 0
M  V30 6084 O 581.033 -0.510618 -1.87367 0
M  V30 6085 C 578.163 -1.30773 -3.21738 0
M  V30 6086 C 577.117 -2.42395 -3.52745 0
M  V30 6087 C 576.443 -2.14147 -4.89944 0
M  V30 6088 C 577.743 -3.84738 -3.53234 0
M  V30 6089 H 579.437 -2.38396 -1.81129 0
M  V30 6090 H 576.983 -1.14746 -0.870017 0
M  V30 6091 H 578.936 -1.31783 -4.00264 0
M  V30 6092 H 577.66 -0.329507 -3.24934 0
M  V30 6093 H 576.319 -2.40643 -2.76562 0
M  V30 6094 H 575.967 -1.14703 -4.89747 0
M  V30 6095 H 575.667 -2.88934 -5.11655 0
M  V30 6096 H 577.191 -2.16848 -5.70797 0
M  V30 6097 H 578.605 -3.88286 -4.2179 0
M  V30 6098 H 577.002 -4.59085 -3.86473 0
M  V30 6099 H 578.072 -4.13962 -2.52514 0
M  V30 6100 N 579.415 0.9433 -1.26252 0
M  V30 6101 C 580.325 2.07532 -1.09397 0
M  V30 6102 C 581.341 1.73977 -0.0280449 0
M  V30 6103 O 582.517 2.00067 -0.231337 0
M  V30 6104 C 579.582 3.39002 -0.726523 0
M  V30 6105 C 578.643 3.86353 -1.87163 0
M  V30 6106 C 577.876 5.11549 -1.52162 0
M  V30 6107 O 578.099 5.68834 -0.422385 0
M  V30 6108 O 577.033 5.53889 -2.35565 0
M  V30 6109 H 580.859 2.24658 -2.04359 0
M  V30 6110 H 578.444 1.05988 -1.05295 0
M  V30 6111 H 580.326 4.18 -0.534236 0
M  V30 6112 H 579.001 3.2312 0.193721 0
M  V30 6113 H 577.908 3.0831 -2.11886 0
M  V30 6114 H 579.241 4.06752 -2.77152 0
M  V30 6115 N 580.893 1.08022 1.14757 0
M  V30 6116 C 582.141 0.805913 1.85336 0
M  V30 6117 C 582.462 -0.670162 1.83122 0
M  V30 6118 O 581.732 -1.48567 1.2769 0
M  V30 6119 H 580.312 0.295138 0.686223 0
M  V30 6120 H 582.974 1.36538 1.3908 0
M  V30 6121 H 582.07 1.14655 2.90277 0
M  V30 6122 N 582.371 -1.3172 0.865308 0
M  V30 6123 C 583.281 -2.32394 0.320935 0
M  V30 6124 C 584.297 -1.64511 -0.566746 0
M  V30 6125 O 585.473 -1.95969 -0.464575 0
M  V30 6126 C 582.538 -3.43462 -0.472701 0
M  V30 6127 C 581.599 -4.27015 0.442385 0
M  V30 6128 C 580.832 -5.32779 -0.313469 0
M  V30 6129 O 581.055 -5.49158 -1.54214 0
M  V30 6130 O 579.989 -6.01015 0.326257 0
M  V30 6131 H 583.815 -2.80868 1.15528 0
M  V30 6132 H 581.4 -1.35535 0.628545 0
M  V30 6133 H 583.282 -4.11172 -0.922781 0
M  V30 6134 H 581.957 -2.97159 -1.28367 0
M  V30 6135 H 580.864 -3.62075 0.940866 0
M  V30 6136 H 582.197 -4.76871 1.21882 0
M  V30 6137 N 583.85 -0.624285 -1.44708 0
M  V30 6138 C 585.098 -0.125802 -2.01708 0
M  V30 6139 C 585.418 1.2543 -1.49306 0
M  V30 6140 O 584.689 1.83198 -0.693924 0
M  V30 6141 H 583.269 -0.0435161 -0.745731 0
M  V30 6142 H 585.931 -0.809446 -1.77296 0
M  V30 6143 H 585.027 -0.0882734 -3.11975 0
M  V30 6144 N 585.328 1.53329 -0.364422 0
M  V30 6145 C 586.558 2.05359 0.226096 0
M  V30 6146 C 586.966 1.23777 1.43094 0
M  V30 6147 O 586.309 0.271139 1.81688 0
M  V30 6148 C 586.371 3.52918 0.684794 0
M  V30 6149 C 586.035 4.55218 -0.403206 0
M  V30 6150 C 587.032 5.04583 -1.2527 0
M  V30 6151 C 584.717 4.99134 -0.563117 0
M  V30 6152 C 586.711 5.96463 -2.24745 0
M  V30 6153 C 584.398 5.9082 -1.56124 0
M  V30 6154 C 585.396 6.39375 -2.40184 0
M  V30 6155 O 585.084 7.29255 -3.38293 0
M  V30 6156 H 584.816 0.674588 0.0436772 0
M  V30 6157 H 587.37 1.98688 -0.520782 0
M  V30 6158 H 585.6 3.57122 1.48326 0
M  V30 6159 H 587.289 3.87812 1.19818 0
M  V30 6160 H 588.055 4.71403 -1.14034 0
M  V30 6161 H 583.934 4.60928 0.0813909 0
M  V30 6162 H 587.478 6.34285 -2.90393 0
M  V30 6163 H 583.375 6.23414 -1.67407 0
M  V30 6164 H 584.143 7.47249 -3.34009 0
M  V30 6165 N 586.806 0.0935595 1.57322 0
M  V30 6166 C 588.053 -0.570509 1.94297 0
M  V30 6167 C 588.381 -1.68286 0.97519 0
M  V30 6168 O 587.636 -1.95699 -0.00548655 0
M  V30 6169 C 587.935 -1.16692 3.37813 0
M  V30 6170 C 587.601 -0.178509 4.50547 0
M  V30 6171 C 586.263 0.0933475 4.81109 0
M  V30 6172 C 588.615 0.496472 5.1883 0
M  V30 6173 C 585.943 1.0469 5.77284 0
M  V30 6174 C 588.295 1.43849 6.16028 0
M  V30 6175 C 586.959 1.71859 6.44997 0
M  V30 6176 H 586.229 -0.208764 0.710984 0
M  V30 6177 H 588.876 0.169066 1.90752 0
M  V30 6178 H 587.181 -1.98271 3.37929 0
M  V30 6179 H 588.878 -1.6884 3.63722 0
M  V30 6180 H 585.468 -0.400584 4.26724 0
M  V30 6181 H 589.652 0.299584 4.95395 0
M  V30 6182 H 584.908 1.27094 5.98044 0
M  V30 6183 H 589.082 1.96734 6.68034 0
M  V30 6184 H 586.709 2.45906 7.19329 0
M  V30 6185 N 588.284 -1.56567 -0.180126 0
M  V30 6186 C 589.533 -1.80685 -0.896426 0
M  V30 6187 C 589.846 -0.669335 -1.83791 0
M  V30 6188 O 591.052 -0.795209 -2.59593 0
M  V30 6189 C 589.508 -3.20132 -1.6445 0
M  V30 6190 C 589.116 -4.41727 -0.747088 0
M  V30 6191 C 590.86 -3.53549 -2.34955 0
M  V30 6192 C 588.767 -5.72195 -1.49489 0
M  V30 6193 H 587.697 -0.673758 -0.338477 0
M  V30 6194 H 590.348 -1.8289 -0.149467 0
M  V30 6195 H 588.73 -3.12218 -2.43589 0
M  V30 6196 H 589.904 -4.608 0.00671129 0
M  V30 6197 H 588.219 -4.16122 -0.152134 0
M  V30 6198 H 590.816 -4.48267 -2.91481 0
M  V30 6199 H 591.159 -2.78006 -3.09868 0
M  V30 6200 H 591.692 -3.62976 -1.62768 0
M  V30 6201 H 588.431 -6.50743 -0.788251 0
M  V30 6202 H 587.951 -5.57115 -2.22224 0
M  V30 6203 H 589.63 -6.1384 -2.04472 0
M  V30 6204 N 589.762 0.448376 -1.51087 0
M  V30 6205 C 590.725 1.52588 -1.71025 0
M  V30 6206 C 591.725 1.49958 -0.580442 0
M  V30 6207 O 592.915 1.52176 -0.847833 0
M  V30 6208 C 590.047 2.92163 -1.75652 0
M  V30 6209 H 591.24 1.36218 -2.67179 0
M  V30 6210 H 588.793 0.676313 -1.4091 0
M  V30 6211 H 589.528 3.13951 -0.812724 0
M  V30 6212 H 589.313 2.95478 -2.57751 0
M  V30 6213 H 590.803 3.70349 -1.92953 0
M  V30 6214 N 591.24 1.41047 0.703093 0
M  V30 6215 C 592.651 1.35657 1.28274 0
M  V30 6216 C 593.002 0.0360309 1.96167 0
M  V30 6217 O 592.127 -0.865833 1.98324 0
M  V30 6218 C 592.722 2.45707 2.33267 0
M  V30 6219 C 591.281 2.43738 2.86825 0
M  V30 6220 C 590.428 2.25941 1.60767 0
M  V30 6221 H 593.379 1.50672 0.49836 0
M  V30 6222 H 593.4 2.14333 3.14391 0
M  V30 6223 H 592.912 3.41805 1.83824 0
M  V30 6224 H 591.013 1.51375 3.40465 0
M  V30 6225 H 591.126 3.39779 3.37768 0
M  V30 6226 H 589.49 1.73681 1.86298 0
M  V30 6227 H 590.273 3.24054 1.1333 0
M  V30 6228 N 592.718 -0.936591 1.26751 0
M  V30 6229 C 593.946 -1.71758 1.15355 0
M  V30 6230 C 594.361 -1.86549 -0.290683 0
M  V30 6231 O 593.718 -1.37616 -1.19868 0
M  V30 6232 C 593.769 -3.12193 1.82258 0
M  V30 6233 O 593.49 -2.98105 3.21038 0
M  V30 6234 C 594.991 -4.06485 1.76875 0
M  V30 6235 H 592.211 -0.537636 0.401483 0
M  V30 6236 H 594.755 -1.17382 1.67457 0
M  V30 6237 H 592.91 -3.63456 1.34083 0
M  V30 6238 H 593.324 -3.86824 3.54214 0
M  V30 6239 H 594.798 -5.02569 2.28316 0
M  V30 6240 H 595.275 -4.32986 0.736216 0
M  V30 6241 H 595.881 -3.61144 2.24623 0
M  V30 6242 N 594.196 -1.08629 -1.14182 0
M  V30 6243 C 595.442 -0.818556 -1.85546 0
M  V30 6244 C 595.775 0.654076 -1.82854 0
M  V30 6245 O 595.05 1.48099 -1.26083 0
M  V30 6246 C 595.333 -1.34397 -3.3408 0
M  V30 6247 C 595.186 -2.8821 -3.45333 0
M  V30 6248 C 596.505 -0.971069 -4.29253 0
M  V30 6249 H 593.624 -0.298821 -0.673702 0
M  V30 6250 H 596.266 -1.34629 -1.34071 0
M  V30 6251 H 594.416 -0.895064 -3.78049 0
M  V30 6252 H 596.088 -3.41488 -3.10134 0
M  V30 6253 H 594.331 -3.25756 -2.86471 0
M  V30 6254 H 595.002 -3.20047 -4.49749 0
M  V30 6255 H 597.478 -1.35809 -3.93313 0
M  V30 6256 H 596.354 -1.36586 -5.31635 0
M  V30 6257 H 596.615 0.121659 -4.41933 0
M  V30 6258 N 595.674 1.31259 -0.872281 0
M  V30 6259 C 596.921 1.96622 -0.484365 0
M  V30 6260 C 597.249 1.68939 0.963841 0
M  V30 6261 O 596.504 0.97974 1.6941 0
M  V30 6262 C 596.803 3.50659 -0.690889 0
M  V30 6263 C 596.469 3.98366 -2.11224 0
M  V30 6264 C 595.131 4.11104 -2.50094 0
M  V30 6265 C 597.483 4.23425 -3.0391 0
M  V30 6266 C 594.811 4.46254 -3.80887 0
M  V30 6267 C 597.163 4.60039 -4.3422 0
M  V30 6268 C 595.827 4.70984 -4.73001 0
M  V30 6269 H 595.097 0.71949 -0.177242 0
M  V30 6270 H 597.744 1.56353 -1.10571 0
M  V30 6271 H 596.049 3.91798 0.0135782 0
M  V30 6272 H 597.746 3.99284 -0.370534 0
M  V30 6273 H 594.336 3.88949 -1.80047 0
M  V30 6274 H 598.52 4.13075 -2.75104 0
M  V30 6275 H 593.776 4.52926 -4.10692 0
M  V30 6276 H 597.95 4.78381 -5.06088 0
M  V30 6277 H 595.577 4.97977 -5.7439 0
M  V30 6278 N 597.152 0.631951 1.44375 0
M  V30 6279 C 598.38 0.143867 2.06399 0
M  V30 6280 C 598.795 -1.18188 1.47231 0
M  V30 6281 O 598.152 -1.72511 0.595498 0
M  V30 6282 C 598.203 0.0238253 3.61492 0
M  V30 6283 O 597.924 1.29715 4.18456 0
M  V30 6284 C 599.425 -0.492856 4.40552 0
M  V30 6285 H 596.645 0.0800542 0.666207 0
M  V30 6286 H 599.189 0.866586 1.85231 0
M  V30 6287 H 597.344 -0.649338 3.81919 0
M  V30 6288 H 597.758 1.14252 5.11905 0
M  V30 6289 H 599.232 -0.525861 5.49489 0
M  V30 6290 H 599.709 -1.52006 4.12057 0
M  V30 6291 H 600.315 0.147085 4.25046 0
M  V30 6292 N 598.631 -1.53133 0.372548 0
M  V30 6293 C 599.541 -2.29671 -0.478379 0
M  V30 6294 C 600.557 -1.35913 -1.08644 0
M  V30 6295 O 601.733 -1.68975 -1.09588 0
M  V30 6296 C 598.798 -3.07625 -1.599 0
M  V30 6297 C 597.859 -4.17061 -1.01776 0
M  V30 6298 C 597.092 -4.91289 -2.08497 0
M  V30 6299 O 597.315 -4.65442 -3.29727 0
M  V30 6300 O 596.249 -5.7705 -1.71164 0
M  V30 6301 H 600.075 -3.03355 0.144649 0
M  V30 6302 H 597.66 -1.48773 0.136729 0
M  V30 6303 H 599.542 -3.56281 -2.25038 0
M  V30 6304 H 598.217 -2.3677 -2.2073 0
M  V30 6305 H 597.124 -3.72641 -0.330098 0
M  V30 6306 H 598.457 -4.90102 -0.453915 0
M  V30 6307 N 600.109 -0.101901 -1.5727 0
M  V30 6308 C 601.355 0.561027 -1.94885 0
M  V30 6309 C 601.688 1.6741 -0.984258 0
M  V30 6310 O 600.963 1.94491 -0.0184767 0
M  V30 6311 C 601.246 1.10982 -3.42571 0
M  V30 6312 C 601.099 0.00133418 -4.498 0
M  V30 6313 C 602.418 2.00608 -3.9172 0
M  V30 6314 H 599.537 0.202467 -0.708644 0
M  V30 6315 H 602.179 -0.173992 -1.89202 0
M  V30 6316 H 600.329 1.73621 -3.47546 0
M  V30 6317 H 602.001 -0.63322 -4.56933 0
M  V30 6318 H 600.244 -0.664143 -4.28686 0
M  V30 6319 H 600.915 0.426253 -5.50352 0
M  V30 6320 H 603.391 1.47864 -3.88941 0
M  V30 6321 H 602.267 2.3593 -4.95609 0
M  V30 6322 H 602.528 2.92608 -3.3141 0
M  V30 6323 N 601.587 1.56661 0.17182 0
M  V30 6324 C 602.998 1.71652 0.734329 0
M  V30 6325 C 603.349 0.712335 1.82812 0
M  V30 6326 O 602.474 -0.126401 2.16031 0
M  V30 6327 C 603.069 3.11226 1.3388 0
M  V30 6328 C 601.628 3.27904 1.84813 0
M  V30 6329 C 600.775 2.67603 0.726917 0
M  V30 6330 H 603.726 1.5861 -0.0535665 0
M  V30 6331 H 603.747 3.09849 2.20849 0
M  V30 6332 H 603.259 3.8429 0.54249 0
M  V30 6333 H 601.36 2.59796 2.6709 0
M  V30 6334 H 601.473 4.35637 1.99392 0
M  V30 6335 H 599.837 2.274 1.14723 0
M  V30 6336 H 600.62 3.43252 -0.0575334 0
M  V30 6337 N 603.065 -0.440357 1.51323 0
M  V30 6338 C 604.476 -1.02032 1.56353 0
M  V30 6339 C 604.827 -1.92382 0.385197 0
M  V30 6340 O 603.952 -2.10583 -0.498373 0
M  V30 6341 C 604.547 -1.85723 2.83359 0
M  V30 6342 C 603.106 -2.38774 2.90971 0
M  V30 6343 C 602.253 -1.17908 2.50984 0
M  V30 6344 H 605.204 -0.221744 1.57143 0
M  V30 6345 H 605.225 -2.71141 2.66951 0
M  V30 6346 H 604.737 -1.19939 3.69102 0
M  V30 6347 H 602.838 -3.08021 2.09651 0
M  V30 6348 H 602.951 -2.71778 3.94555 0
M  V30 6349 H 601.315 -1.52347 2.04114 0
M  V30 6350 H 602.098 -0.537393 3.39068 0
M  V30 6351 N 604.543 -1.41418 -0.695603 0
M  V30 6352 C 605.49 -1.43264 -1.80954 0
M  V30 6353 C 606.46 -0.287016 -1.63601 0
M  V30 6354 O 607.645 -0.488054 -1.84452 0
M  V30 6355 C 604.785 -1.32054 -3.18835 0
M  V30 6356 C 603.898 -2.56485 -3.4762 0
M  V30 6357 C 603.033 -2.3757 -4.75115 0
M  V30 6358 C 602.072 -3.57477 -4.96867 0
M  V30 6359 N 601.209 -3.37632 -6.15588 0
M  V30 6360 H 606.049 -2.38467 -1.78711 0
M  V30 6361 H 603.586 -1.18415 -0.872715 0
M  V30 6362 H 605.544 -1.23558 -3.98484 0
M  V30 6363 H 604.174 -0.404592 -3.20254 0
M  V30 6364 H 603.226 -2.75432 -2.62376 0
M  V30 6365 H 604.538 -3.45678 -3.59594 0
M  V30 6366 H 603.692 -2.2654 -5.62818 0
M  V30 6367 H 602.431 -1.45834 -4.65386 0
M  V30 6368 H 601.436 -3.68961 -4.07612 0
M  V30 6369 H 602.661 -4.50167 -5.08455 0
M  V30 6370 H 600.607 -2.48596 -6.07072 0
M  V30 6371 H 600.524 -4.20401 -6.2833 0
M  V30 6372 H 601.792 -3.30375 -7.06026 0
M  V30 6373 N 606.021 0.929856 -1.27246 0
M  V30 6374 C 606.984 2.01172 -1.09829 0
M  V30 6375 C 607.984 1.60743 -0.0429687 0
M  V30 6376 O 609.174 1.71813 -0.287373 0
M  V30 6377 C 606.306 3.34191 -0.673003 0
M  V30 6378 H 607.499 2.18054 -2.05895 0
M  V30 6379 H 605.052 1.11036 -1.10003 0
M  V30 6380 H 605.787 3.23009 0.289134 0
M  V30 6381 H 605.572 3.64892 -1.43515 0
M  V30 6382 H 607.062 4.13646 -0.573323 0
M  V30 6383 N 607.499 1.09233 1.13605 0
M  V30 6384 C 608.915 0.82163 1.36826 0
M  V30 6385 C 609.115 -0.565021 1.93416 0
M  V30 6386 O 608.171 -1.32026 2.15234 0
M  V30 6387 C 609.484 1.91124 2.32147 0
M  V30 6388 C 611.032 1.93824 2.45767 0
M  V30 6389 C 611.507 3.01923 3.44393 0
M  V30 6390 N 612.998 3.01149 3.51942 0
M  V30 6391 C 613.733 3.81434 4.2813 0
M  V30 6392 N 613.229 4.71621 5.07489 0
M  V30 6393 N 615.022 3.69702 4.23411 0
M  V30 6394 H 607.173 1.98633 0.752234 0
M  V30 6395 H 609.436 0.862482 0.393482 0
M  V30 6396 H 609.142 2.90862 1.97717 0
M  V30 6397 H 609.016 1.78777 3.32142 0
M  V30 6398 H 611.403 0.94726 2.79483 0
M  V30 6399 H 611.484 2.10248 1.45703 0
M  V30 6400 H 611.128 4.01232 3.11408 0
M  V30 6401 H 611.058 2.82742 4.44257 0
M  V30 6402 H 613.549 2.35789 2.95317 0
M  V30 6403 H 613.862 5.29468 5.62924 0
M  V30 6404 H 612.207 4.75658 5.06729 0
M  V30 6405 H 615.398 2.98606 3.60489 0
M  V30 6406 H 615.571 4.32509 4.82535 0
M  V30 6407 N 608.977 -1.30795 0.87923 0
M  V30 6408 C 610.226 -1.95636 0.490875 0
M  V30 6409 C 610.539 -1.70214 -0.963674 0
M  V30 6410 O 611.745 -2.28991 -1.45861 0
M  V30 6411 C 610.201 -3.50271 0.826929 0
M  V30 6412 C 609.809 -3.84521 2.29886 0
M  V30 6413 C 611.553 -4.21456 0.507494 0
M  V30 6414 C 609.46 -5.32309 2.57685 0
M  V30 6415 H 608.39 -0.732238 0.179841 0
M  V30 6416 H 611.041 -1.48829 1.07341 0
M  V30 6417 H 609.423 -3.9562 0.173542 0
M  V30 6418 H 610.597 -3.50102 2.99609 0
M  V30 6419 H 608.912 -3.26425 2.58526 0
M  V30 6420 H 611.509 -5.30199 0.692293 0
M  V30 6421 H 611.852 -4.12614 -0.552718 0
M  V30 6422 H 612.385 -3.81772 1.11782 0
M  V30 6423 H 609.124 -5.46195 3.62424 0
M  V30 6424 H 608.644 -5.68048 1.92566 0
M  V30 6425 H 610.323 -5.99678 2.42889 0
M  V30 6426 N 610.455 -0.639598 -1.44038 0
M  V30 6427 C 611.418 0.0506628 -2.29144 0
M  V30 6428 C 612.418 0.764001 -1.41491 0
M  V30 6429 O 613.608 0.607309 -1.63271 0
M  V30 6430 C 610.74 1.0824 -3.2326 0
M  V30 6431 H 611.933 -0.697987 -2.91664 0
M  V30 6432 H 609.486 -0.400146 -1.51091 0
M  V30 6433 H 610.221 1.86075 -2.65606 0
M  V30 6434 H 610.006 0.574725 -3.87865 0
M  V30 6435 H 611.496 1.56487 -3.87171 0
M  V30 6436 N 611.933 1.52934 -0.380664 0
M  V30 6437 C 612.865 2.23822 0.493581 0
M  V30 6438 C 613.878 1.25761 1.03383 0
M  V30 6439 O 615.067 1.5189 0.937633 0
M  V30 6440 C 612.167 2.9342 1.69582 0
M  V30 6441 C 611.34 4.18115 1.28445 0
M  V30 6442 C 610.399 4.70788 2.35042 0
M  V30 6443 O 609.425 5.34093 1.96807 0
M  V30 6444 N 610.627 4.49899 3.66839 0
M  V30 6445 H 613.392 2.99484 -0.11371 0
M  V30 6446 H 610.953 1.60577 -0.206587 0
M  V30 6447 H 612.945 3.2556 2.40401 0
M  V30 6448 H 611.515 2.21119 2.20965 0
M  V30 6449 H 610.735 3.92109 0.405503 0
M  V30 6450 H 612.023 4.99152 0.986132 0
M  V30 6451 H 611.421 3.99349 4.0067 0
M  V30 6452 H 609.978 4.86551 4.33718 0
M  V30 6453 N 613.412 0.11024 1.57214 0
M  V30 6454 C 614.322 -0.857077 2.18383 0
M  V30 6455 C 615.338 -1.29915 1.1575 0
M  V30 6456 O 616.514 -1.36394 1.48184 0
M  V30 6457 C 613.579 -2.09264 2.76423 0
M  V30 6458 C 612.64 -1.70333 3.94063 0
M  V30 6459 C 611.873 -2.87999 4.49324 0
M  V30 6460 O 612.096 -4.0317 4.03497 0
M  V30 6461 O 611.03 -2.6559 5.40135 0
M  V30 6462 H 614.856 -0.366561 3.0148 0
M  V30 6463 H 612.441 -0.114914 1.48957 0
M  V30 6464 H 614.323 -2.81644 3.13456 0
M  V30 6465 H 612.998 -2.57339 1.96363 0
M  V30 6466 H 611.905 -0.950864 3.61814 0
M  V30 6467 H 613.238 -1.27007 4.75531 0
M  V30 6468 N 614.89 -1.56749 -0.16351 0
M  V30 6469 C 615.8 -2.00255 -1.2221 0
M  V30 6470 C 616.816 -0.915194 -1.47987 0
M  V30 6471 O 617.992 -1.22342 -1.59982 0
M  V30 6472 C 615.057 -2.36035 -2.53946 0
M  V30 6473 C 614.118 -3.58637 -2.35962 0
M  V30 6474 C 613.351 -3.92701 -3.61416 0
M  V30 6475 O 613.574 -3.27632 -4.66919 0
M  V30 6476 O 612.508 -4.86019 -3.55062 0
M  V30 6477 H 616.334 -2.90586 -0.882794 0
M  V30 6478 H 613.919 -1.44721 -0.370978 0
M  V30 6479 H 615.801 -2.59982 -3.31643 0
M  V30 6480 H 614.476 -1.48863 -2.8744 0
M  V30 6481 H 613.383 -3.39898 -1.5627 0
M  V30 6482 H 614.716 -4.46374 -2.0739 0
M  V30 6483 N 616.368 0.432326 -1.51554 0
M  V30 6484 C 617.617 1.17831 -1.63703 0
M  V30 6485 C 617.93 1.92229 -0.36156 0
M  V30 6486 O 619.136 2.69069 -0.362495 0
M  V30 6487 C 617.592 2.14318 -2.89129 0
M  V30 6488 C 617.2 1.45544 -4.23699 0
M  V30 6489 C 618.944 2.89319 -3.10636 0
M  V30 6490 C 616.851 2.40545 -5.4027 0
M  V30 6491 H 615.781 0.443533 -0.60975 0
M  V30 6492 H 618.432 0.444878 -1.78026 0
M  V30 6493 H 616.814 2.91117 -2.68452 0
M  V30 6494 H 617.988 0.742693 -4.54775 0
M  V30 6495 H 616.303 0.826772 -4.0811 0
M  V30 6496 H 618.9 3.60495 -3.94902 0
M  V30 6497 H 619.243 3.50951 -2.23918 0
M  V30 6498 H 619.776 2.19625 -3.31677 0
M  V30 6499 H 616.515 1.83594 -6.29264 0
M  V30 6500 H 616.035 3.09859 -5.13563 0
M  V30 6501 H 617.714 3.01569 -5.72421 0
M  V30 6502 N 617.846 1.41785 0.688094 0
M  V30 6503 C 619.093 1.41544 1.44816 0
M  V30 6504 C 619.421 0.0271746 1.94481 0
M  V30 6505 O 618.676 -0.962235 1.7041 0
M  V30 6506 C 618.975 2.37532 2.67046 0
M  V30 6507 C 618.641 3.84209 2.35996 0
M  V30 6508 C 617.303 4.24165 2.27239 0
M  V30 6509 C 619.655 4.76785 2.10536 0
M  V30 6510 C 616.983 5.54695 1.91128 0
M  V30 6511 C 619.335 6.07644 1.75931 0
M  V30 6512 C 617.999 6.46613 1.65675 0
M  V30 6513 H 617.269 0.517945 0.529919 0
M  V30 6514 H 619.916 1.74635 0.785797 0
M  V30 6515 H 618.221 1.9772 3.38251 0
M  V30 6516 H 619.918 2.34615 3.25203 0
M  V30 6517 H 616.508 3.52567 2.4371 0
M  V30 6518 H 620.692 4.46714 2.16242 0
M  V30 6519 H 615.948 5.83762 1.81746 0
M  V30 6520 H 620.122 6.78874 1.55252 0
M  V30 6521 H 617.749 7.47668 1.37463 0
M  V30 6522 N 619.324 -0.923095 1.27737 0
M  V30 6523 C 620.572 -1.66797 1.14119 0
M  V30 6524 C 620.893 -1.92479 -0.312541 0
M  V30 6525 O 620.163 -1.53432 -1.218 0
M  V30 6526 H 618.743 -0.618196 0.419336 0
M  V30 6527 H 621.405 -1.10815 1.60331 0
M  V30 6528 H 620.501 -2.63424 1.67374 0
M  V30 6529 N 620.802 -1.09834 -1.13024 0
M  V30 6530 C 622.213 -0.855651 -1.65938 0
M  V30 6531 C 622.564 0.615159 -1.86307 0
M  V30 6532 O 621.689 1.47335 -1.58497 0
M  V30 6533 C 622.284 -1.5467 -3.01434 0
M  V30 6534 C 620.843 -1.35088 -3.51323 0
M  V30 6535 C 619.99 -1.6001 -2.26478 0
M  V30 6536 H 622.941 -1.25691 -0.968889 0
M  V30 6537 H 622.962 -0.982179 -3.67605 0
M  V30 6538 H 622.474 -2.61715 -2.86578 0
M  V30 6539 H 620.575 -0.30179 -3.71376 0
M  V30 6540 H 620.688 -2.0886 -4.31178 0
M  V30 6541 H 619.052 -1.02246 -2.33276 0
M  V30 6542 H 619.835 -2.68293 -2.14182 0
M  V30 6543 N 622.28 1.30327 -0.886154 0
M  V30 6544 C 623.526 1.96388 -0.505941 0
M  V30 6545 C 623.859 1.69784 0.942712 0
M  V30 6546 O 623.134 1.00322 1.6663 0
M  V30 6547 C 623.417 3.51488 -0.782826 0
M  V30 6548 C 623.27 3.87603 -2.28219 0
M  V30 6549 C 624.589 4.39331 -0.260128 0
M  V30 6550 H 621.708 0.713327 -0.185292 0
M  V30 6551 H 624.35 1.54178 -1.11036 0
M  V30 6552 H 622.5 3.87572 -0.268399 0
M  V30 6553 H 624.172 3.61537 -2.86512 0
M  V30 6554 H 622.415 3.3563 -2.74837 0
M  V30 6555 H 623.086 4.95806 -2.42653 0
M  V30 6556 H 625.562 4.10162 -0.700444 0
M  V30 6557 H 624.438 5.46769 -0.483179 0
M  V30 6558 H 624.699 4.34072 0.838674 0
M  V30 6559 N 623.758 0.647228 1.43697 0
M  V30 6560 C 624.688 -0.0345631 2.33474 0
M  V30 6561 C 625.669 -0.818193 1.4913 0
M  V30 6562 O 626.854 -0.780867 1.77809 0
M  V30 6563 C 623.984 -1.00576 3.32418 0
M  V30 6564 C 622.938 -0.33266 4.26705 0
M  V30 6565 C 622.264 -1.41489 5.1564 0
M  V30 6566 C 623.564 0.771204 5.16575 0
M  V30 6567 H 625.258 0.715163 2.90733 0
M  V30 6568 H 622.804 0.345364 1.39797 0
M  V30 6569 H 624.757 -1.49159 3.94119 0
M  V30 6570 H 623.481 -1.78657 2.73403 0
M  V30 6571 H 622.14 0.13267 3.6636 0
M  V30 6572 H 621.788 -2.18698 4.52968 0
M  V30 6573 H 621.488 -0.969799 5.79542 0
M  V30 6574 H 623.012 -1.9022 5.80214 0
M  V30 6575 H 624.426 0.36779 5.72119 0
M  V30 6576 H 622.823 1.1404 5.89165 0
M  V30 6577 H 623.893 1.63169 4.56622 0
M  V30 6578 N 625.236 -1.5273 0.388769 0
M  V30 6579 C 626.461 -2.0647 -0.19621 0
M  V30 6580 C 626.886 -1.25865 -1.39784 0
M  V30 6581 O 626.244 -0.283562 -1.79069 0
M  V30 6582 C 626.292 -3.56456 -0.5451 0
M  V30 6583 O 625.396 -3.78426 -1.63912 0
M  V30 6584 H 624.737 -0.663599 -0.023067 0
M  V30 6585 H 627.267 -1.96898 0.556084 0
M  V30 6586 H 627.277 -3.99888 -0.809557 0
M  V30 6587 H 625.952 -4.14561 0.333417 0
M  V30 6588 H 624.529 -3.46884 -1.36842 0
M  V30 6589 N 626.714 -0.118576 -1.57153 0
M  V30 6590 C 627.96 0.540326 -1.95469 0
M  V30 6591 C 628.293 1.66356 -1.00196 0
M  V30 6592 O 627.568 1.94461 -0.039104 0
M  V30 6593 C 627.851 1.07342 -3.43729 0
M  V30 6594 C 627.704 -0.0463732 -4.49776 0
M  V30 6595 C 629.023 1.96442 -3.93826 0
M  V30 6596 H 626.142 0.19494 -0.710751 0
M  V30 6597 H 628.784 -0.19405 -1.89006 0
M  V30 6598 H 626.934 1.69925 -3.49368 0
M  V30 6599 H 628.606 -0.681648 -4.56236 0
M  V30 6600 H 626.849 -0.709574 -4.27957 0
M  V30 6601 H 627.52 0.367856 -5.50773 0
M  V30 6602 H 629.996 1.43731 -3.90488 0
M  V30 6603 H 628.872 2.3066 -4.98084 0
M  V30 6604 H 629.133 2.89077 -3.34495 0
M  V30 6605 N 628.193 1.56834 0.155195 0
M  V30 6606 C 629.442 1.82088 0.867567 0
M  V30 6607 C 629.755 0.69849 1.82703 0
M  V30 6608 O 630.961 0.836407 2.58295 0
M  V30 6609 C 629.417 3.22707 1.59336 0
M  V30 6610 C 629.025 4.42859 0.676719 0
M  V30 6611 C 630.769 3.57242 2.293 0
M  V30 6612 C 628.676 5.74501 1.40367 0
M  V30 6613 H 627.606 0.679057 0.327715 0
M  V30 6614 H 630.257 1.83105 0.120351 0
M  V30 6615 H 628.639 3.16054 2.38591 0
M  V30 6616 H 629.813 4.60731 -0.0800196 0
M  V30 6617 H 628.128 4.16311 0.0859129 0
M  V30 6618 H 630.725 4.52847 2.84312 0
M  V30 6619 H 631.068 2.82901 3.05406 0
M  V30 6620 H 631.601 3.6552 1.56972 0
M  V30 6621 H 628.34 6.51915 0.684623 0
M  V30 6622 H 627.86 5.60579 2.13332 0
M  V30 6623 H 629.539 6.17016 1.94681 0
M  V30 6624 N 629.671 -0.424282 1.51781 0
M  V30 6625 C 631.087 -0.761768 1.40247 0
M  V30 6626 C 631.287 -1.95324 0.495041 0
M  V30 6627 O 630.343 -2.5246 -0.0448949 0
M  V30 6628 C 631.656 -1.0299 2.82513 0
M  V30 6629 C 633.204 -1.13354 2.91753 0
M  V30 6630 C 633.679 -1.43453 4.34954 0
M  V30 6631 N 635.17 -1.5035 4.3812 0
M  V30 6632 C 635.905 -1.75236 5.45967 0
M  V30 6633 N 635.401 -1.97827 6.63955 0
M  V30 6634 N 637.194 -1.77126 5.33463 0
M  V30 6635 H 629.345 0.360228 2.09323 0
M  V30 6636 H 631.608 0.0988128 0.942836 0
M  V30 6637 H 631.314 -0.226961 3.50967 0
M  V30 6638 H 631.188 -1.95411 3.22637 0
M  V30 6639 H 633.575 -1.92709 2.23489 0
M  V30 6640 H 633.656 -0.188041 2.55108 0
M  V30 6641 H 633.3 -0.646209 5.03772 0
M  V30 6642 H 633.23 -2.3923 4.69123 0
M  V30 6643 H 635.721 -1.34742 3.53062 0
M  V30 6644 H 636.034 -2.16223 7.41935 0
M  V30 6645 H 634.379 -1.95123 6.67047 0
M  V30 6646 H 637.57 -1.59005 4.40267 0
M  V30 6647 H 637.743 -1.96182 6.17589 0
M  V30 6648 N 631.149 -1.42148 -0.680565 0
M  V30 6649 C 632.395 -1.42521 -1.44277 0
M  V30 6650 C 632.728 -0.0393718 -1.9416 0
M  V30 6651 O 632.003 0.935425 -1.70529 0
M  V30 6652 C 632.286 -2.44475 -2.64394 0
M  V30 6653 C 632.139 -3.92226 -2.20179 0
M  V30 6654 C 633.458 -2.43491 -3.66606 0
M  V30 6655 H 630.577 -0.518985 -0.523282 0
M  V30 6656 H 633.219 -1.73524 -0.773914 0
M  V30 6657 H 631.369 -2.18168 -3.21458 0
M  V30 6658 H 633.041 -4.29493 -1.68327 0
M  V30 6659 H 631.284 -4.0637 -1.5181 0
M  V30 6660 H 631.955 -4.59133 -3.06433 0
M  V30 6661 H 634.431 -2.66872 -3.19247 0
M  V30 6662 H 633.307 -3.16816 -4.4824 0
M  V30 6663 H 633.568 -1.45881 -4.17338 0
M  V30 6664 N 632.627 0.916307 -1.28225 0
M  V30 6665 C 633.574 2.01841 -1.11932 0
M  V30 6666 C 634.544 1.66091 -0.0171604 0
M  V30 6667 O 635.729 1.89934 -0.181617 0
M  V30 6668 C 632.869 3.36065 -0.784504 0
M  V30 6669 C 631.982 3.847 -1.96544 0
M  V30 6670 C 631.117 5.07423 -1.57149 0
M  V30 6671 C 630.156 5.48384 -2.71922 0
M  V30 6672 N 629.293 6.62298 -2.33037 0
M  V30 6673 H 634.133 2.1511 -2.06232 0
M  V30 6674 H 631.67 1.05366 -1.02647 0
M  V30 6675 H 633.628 4.13272 -0.571148 0
M  V30 6676 H 632.258 3.22571 0.121565 0
M  V30 6677 H 631.31 3.03673 -2.291 0
M  V30 6678 H 632.622 4.1102 -2.82603 0
M  V30 6679 H 631.776 5.92165 -1.32004 0
M  V30 6680 H 630.515 4.82906 -0.682153 0
M  V30 6681 H 629.52 4.62184 -2.97768 0
M  V30 6682 H 630.745 5.7489 -3.61494 0
M  V30 6683 H 628.691 6.39416 -1.4657 0
M  V30 6684 H 628.608 6.8833 -3.12631 0
M  V30 6685 H 629.876 7.50352 -2.11169 0
M  V30 6686 N 634.105 1.10431 1.1244 0
M  V30 6687 C 635.382 0.758797 1.80282 0
M  V30 6688 C 635.762 -0.754727 1.97147 0
M  V30 6689 O 635.11 -1.68094 1.54779 0
M  V30 6690 C 635.32 1.50982 3.14651 0
M  V30 6691 C 636.668 1.68232 3.8985 0
M  V30 6692 O 637.692 1.47319 3.24308 0
M  V30 6693 O 636.551 2.02905 5.07437 0
M  V30 6694 H 633.645 0.273756 0.780376 0
M  V30 6695 H 636.191 1.20713 1.19275 0
M  V30 6696 H 634.963 2.53989 2.97666 0
M  V30 6697 H 634.586 1.05435 3.83366 0
M  V30 6698 N 635.583 -1.29855 0.893053 0
M  V30 6699 C 636.83 -1.95826 0.515585 0
M  V30 6700 C 637.158 -1.70451 -0.936842 0
M  V30 6701 O 636.413 -1.00657 -1.67829 0
M  V30 6702 C 636.712 -3.49515 0.746588 0
M  V30 6703 C 636.378 -3.94955 2.17535 0
M  V30 6704 C 635.04 -4.07073 2.56603 0
M  V30 6705 C 637.392 -4.18536 3.10607 0
M  V30 6706 C 634.72 -4.40138 3.87938 0
M  V30 6707 C 637.072 -4.53073 4.41484 0
M  V30 6708 C 635.736 -4.634 4.80434 0
M  V30 6709 H 635.006 -0.71658 0.188666 0
M  V30 6710 H 637.653 -1.54574 1.13045 0
M  V30 6711 H 635.958 -3.9177 0.0487551 0
M  V30 6712 H 637.655 -3.98644 0.434009 0
M  V30 6713 H 634.245 -3.86035 1.86212 0
M  V30 6714 H 638.429 -4.08646 2.81641 0
M  V30 6715 H 633.685 -4.46335 4.17846 0
M  V30 6716 H 637.859 -4.70269 5.13634 0
M  V30 6717 H 635.486 -4.88775 5.82239 0
M  V30 6718 N 637.061 -0.65484 -1.43351 0
M  V30 6719 C 638.024 0.0263562 -2.29185 0
M  V30 6720 C 639.024 0.748951 -1.42293 0
M  V30 6721 O 640.214 0.589957 -1.63906 0
M  V30 6722 C 637.346 1.04806 -3.2439 0
M  V30 6723 H 638.539 -0.728883 -2.90908 0
M  V30 6724 H 636.092 -0.416149 -1.50658 0
M  V30 6725 H 636.827 1.83247 -2.67565 0
M  V30 6726 H 636.612 0.533554 -3.88453 0
M  V30 6727 H 638.102 1.52372 -3.88809 0
M  V30 6728 N 638.539 1.52521 -0.396863 0
M  V30 6729 C 639.449 2.30403 0.44178 0
M  V30 6730 C 640.465 1.37625 1.06468 0
M  V30 6731 O 641.641 1.70697 1.06886 0
M  V30 6732 C 638.706 3.1013 1.54986 0
M  V30 6733 C 637.767 4.18628 0.951279 0
M  V30 6734 C 637 4.94543 2.00655 0
M  V30 6735 O 637.223 4.70629 3.22281 0
M  V30 6736 O 636.157 5.797 1.61962 0
M  V30 6737 H 639.983 3.03087 -0.192892 0
M  V30 6738 H 637.568 1.48537 -0.16038 0
M  V30 6739 H 639.45 3.59816 2.19341 0
M  V30 6740 H 638.125 2.40251 2.16935 0
M  V30 6741 H 637.032 3.73119 0.270773 0
M  V30 6742 H 638.365 4.90763 0.375887 0
M  V30 6743 N 640.017 0.126909 1.57088 0
M  V30 6744 C 640.98 -0.806097 2.14557 0
M  V30 6745 C 641.98 -1.18918 1.08236 0
M  V30 6746 O 643.17 -1.11339 1.33975 0
M  V30 6747 C 640.302 -2.09116 2.69227 0
M  V30 6748 H 641.495 -0.306522 2.98329 0
M  V30 6749 H 639.048 -0.122393 1.5582 0
M  V30 6750 H 639.783 -2.63486 1.89065 0
M  V30 6751 H 639.568 -1.82588 3.46993 0
M  V30 6752 H 641.058 -2.75794 3.13572 0
M  V30 6753 N 641.495 -1.56914 -0.146875 0
M  V30 6754 C 642.425 -2.01308 -1.1831 0
M  V30 6755 C 643.406 -0.892664 -1.44795 0
M  V30 6756 O 644.591 -1.16048 -1.55713 0
M  V30 6757 C 641.721 -2.3938 -2.51624 0
M  V30 6758 C 640.675 -3.54608 -2.3966 0
M  V30 6759 C 640.001 -3.78493 -3.77686 0
M  V30 6760 C 641.301 -4.87269 -1.88058 0
M  V30 6761 H 642.995 -2.88123 -0.813964 0
M  V30 6762 H 640.541 -1.38615 -0.3901 0
M  V30 6763 H 642.494 -2.69037 -3.24341 0
M  V30 6764 H 641.218 -1.49502 -2.90373 0
M  V30 6765 H 639.877 -3.25116 -1.69396 0
M  V30 6766 H 639.525 -2.85866 -4.13871 0
M  V30 6767 H 639.225 -4.56039 -3.70543 0
M  V30 6768 H 640.749 -4.10576 -4.51951 0
M  V30 6769 H 642.163 -5.15644 -2.50568 0
M  V30 6770 H 640.56 -5.68622 -1.91805 0
M  V30 6771 H 641.63 -4.77634 -0.836277 0
M  V30 6772 N 642.974 0.416227 -1.52004 0
M  V30 6773 C 643.884 1.53147 -1.77717 0
M  V30 6774 C 644.9 1.609 -0.662368 0
M  V30 6775 O 646.076 1.77747 -0.946991 0
M  V30 6776 C 643.141 2.88948 -1.91598 0
M  V30 6777 C 642.202 2.9114 -3.15493 0
M  V30 6778 C 641.435 4.20464 -3.28703 0
M  V30 6779 O 641.658 5.13981 -2.47345 0
M  V30 6780 O 640.592 4.29368 -4.21813 0
M  V30 6781 H 644.418 1.34357 -2.72363 0
M  V30 6782 H 642.003 0.601373 -1.36762 0
M  V30 6783 H 643.885 3.69505 -2.02593 0
M  V30 6784 H 642.56 3.07821 -1.00141 0
M  V30 6785 H 641.467 2.09461 -3.09962 0
M  V30 6786 H 642.8 2.77216 -4.06709 0
M  V30 6787 N 644.452 1.42507 0.673017 0
M  V30 6788 C 645.698 1.43284 1.43519 0
M  V30 6789 C 646.031 0.049668 1.94136 0
M  V30 6790 O 645.306 -0.926369 1.71022 0
M  V30 6791 C 645.589 2.45874 2.63093 0
M  V30 6792 C 645.442 3.93388 2.18096 0
M  V30 6793 C 646.761 2.45431 3.6531 0
M  V30 6794 H 643.88 0.521752 0.520522 0
M  V30 6795 H 646.522 1.73932 0.764701 0
M  V30 6796 H 644.672 2.19869 3.20296 0
M  V30 6797 H 646.344 4.30379 1.66046 0
M  V30 6798 H 644.587 4.07169 1.49652 0
M  V30 6799 H 645.258 4.60752 3.03993 0
M  V30 6800 H 647.734 2.68561 3.17827 0
M  V30 6801 H 646.61 3.19189 4.46553 0
M  V30 6802 H 646.871 1.48092 4.16559 0
M  V30 6803 N 645.93 -0.909495 1.28709 0
M  V30 6804 C 646.893 -1.99399 1.13016 0
M  V30 6805 C 647.893 -1.60654 0.068536 0
M  V30 6806 O 649.083 -1.71334 0.314671 0
M  V30 6807 C 646.215 -3.33078 0.726085 0
M  V30 6808 H 647.408 -2.14751 2.09338 0
M  V30 6809 H 644.961 -1.09272 1.11756 0
M  V30 6810 H 645.696 -3.23428 -0.23771 0
M  V30 6811 H 645.481 -3.62562 1.49302 0
M  V30 6812 H 646.971 -4.12681 0.639058 0
M  V30 6813 N 647.408 -1.11026 -1.11852 0
M  V30 6814 C 648.356 -0.759643 -2.19846 0
M  V30 6815 C 649.35 0.246964 -1.6759 0
M  V30 6816 O 650.556 0.106693 -1.79684 0
M  V30 6817 H 646.931 -0.22775 -0.716683 0
M  V30 6818 H 648.902 -1.6792 -2.46669 0
M  V30 6819 C 647.651 -0.214364 -3.47039 0
M  V30 6820 H 646.974 -0.980175 -3.87599 0
M  V30 6821 H 648.414 -0.00717047 -4.23999 0
M  V30 6822 C 646.873 1.05436 -3.19976 0
M  V30 6823 O 647.403 2.13483 -3.40276 0
M  V30 6824 N 645.609 0.975436 -2.7374 0
M  V30 6825 H 645.156 0.0960853 -2.57421 0
M  V30 6826 H 645.114 1.82501 -2.5601 0
M  V30 6827 N 648.886 1.2938 -0.899927 0
M  V30 6828 C 650.163 1.9046 -0.445443 0
M  V30 6829 C 650.543 1.81683 1.07492 0
M  V30 6830 O 649.891 1.24371 1.91688 0
M  V30 6831 C 650.101 3.35529 -0.960279 0
M  V30 6832 C 651.449 4.12556 -1.00412 0
M  V30 6833 O 652.473 3.44434 -0.907965 0
M  V30 6834 O 651.332 5.34294 -1.14857 0
M  V30 6835 H 648.426 0.815253 -0.138893 0
M  V30 6836 H 650.972 1.37844 -0.989808 0
M  V30 6837 H 649.744 3.36074 -2.00425 0
M  V30 6838 H 649.367 3.95624 -0.395939 0
M  V30 6839 N 650.364 0.662433 1.43002 0
M  V30 6840 C 651.592 0.187615 2.06048 0
M  V30 6841 C 652.007 -1.15039 1.49705 0
M  V30 6842 O 651.364 -1.71209 0.631956 0
M  V30 6843 C 651.415 0.100498 3.6136 0
M  V30 6844 O 651.136 1.38562 4.15611 0
M  V30 6845 C 652.637 -0.399298 4.41498 0
M  V30 6846 H 649.857 0.0941675 0.664359 0
M  V30 6847 H 652.401 0.905681 1.83351 0
M  V30 6848 H 650.556 -0.568181 3.83211 0
M  V30 6849 H 650.97 1.25084 5.09366 0
M  V30 6850 H 652.444 -0.409187 5.50481 0
M  V30 6851 H 652.921 -1.43232 4.15188 0
M  V30 6852 H 653.527 0.23721 4.24638 0
M  V30 6853 N 651.842 -1.52309 0.404946 0
M  V30 6854 C 653.253 -1.86585 -0.0655926 0
M  V30 6855 C 653.604 -1.3239 -1.44801 0
M  V30 6856 O 652.729 -0.6615 -2.06042 0
M  V30 6857 C 653.324 -3.38566 -0.125801 0
M  V30 6858 C 651.883 -3.72497 -0.540666 0
M  V30 6859 C 651.03 -2.75806 0.287487 0
M  V30 6860 H 653.981 -1.45995 0.622185 0
M  V30 6861 H 654.002 -3.68658 -0.941888 0
M  V30 6862 H 653.514 -3.77981 0.880473 0
M  V30 6863 H 651.615 -3.38659 -1.55373 0
M  V30 6864 H 651.728 -4.78234 -0.287956 0
M  V30 6865 H 650.092 -2.53474 -0.249561 0
M  V30 6866 H 650.875 -3.18059 1.29203 0
M  V30 6867 N 653.32 -0.135238 -1.57019 0
M  V30 6868 C 654.55 0.525303 -1.9981 0
M  V30 6869 C 654.958 1.59724 -1.01415 0
M  V30 6870 O 654.301 1.837 -0.00130938 0
M  V30 6871 C 654.363 1.19578 -3.3903 0
M  V30 6872 C 654.027 0.269855 -4.56203 0
M  V30 6873 C 655.024 -0.497905 -5.1751 0
M  V30 6874 C 652.709 0.176188 -5.01991 0
M  V30 6875 C 654.703 -1.3469 -6.23007 0
M  V30 6876 C 652.39 -0.676422 -6.07345 0
M  V30 6877 C 653.388 -1.43658 -6.67721 0
M  V30 6878 O 653.076 -2.27501 -7.71037 0
M  V30 6879 H 652.808 0.142296 -0.660854 0
M  V30 6880 H 655.362 -0.223272 -2.04183 0
M  V30 6881 H 653.592 1.99176 -3.3146 0
M  V30 6882 H 655.281 1.75486 -3.66005 0
M  V30 6883 H 656.047 -0.435507 -4.83041 0
M  V30 6884 H 651.926 0.757583 -4.54733 0
M  V30 6885 H 655.47 -1.9407 -6.70062 0
M  V30 6886 H 651.367 -0.740154 -6.41243 0
M  V30 6887 H 652.135 -2.20619 -7.88206 0
M  V30 6888 N 654.798 1.5699 0.138552 0
M  V30 6889 C 656.046 1.83446 0.848053 0
M  V30 6890 C 656.367 0.71744 1.81322 0
M  V30 6891 O 655.637 -0.260228 1.94164 0
M  V30 6892 H 654.217 0.676792 0.316166 0
M  V30 6893 H 656.879 1.94462 0.130538 0
M  V30 6894 H 655.975 2.78677 1.40518 0
M  V30 6895 N 656.276 -0.40816 1.52223 0
M  V30 6896 C 657.206 -1.5042 1.78595 0
M  V30 6897 C 658.187 -1.57723 0.636974 0
M  V30 6898 O 659.372 -1.72982 0.882664 0
M  V30 6899 C 656.502 -2.88232 1.93751 0
M  V30 6900 C 655.456 -2.95779 3.09352 0
M  V30 6901 C 654.782 -4.35855 3.09732 0
M  V30 6902 C 656.082 -2.67175 4.48793 0
M  V30 6903 H 657.776 -1.28601 2.70374 0
M  V30 6904 H 655.322 -0.617221 1.30101 0
M  V30 6905 H 657.275 -3.64895 2.10783 0
M  V30 6906 H 655.999 -3.11347 0.986443 0
M  V30 6907 H 654.658 -2.21561 2.92072 0
M  V30 6908 H 654.306 -4.55981 2.12346 0
M  V30 6909 H 654.006 -4.41829 3.87377 0
M  V30 6910 H 655.53 -5.14451 3.28895 0
M  V30 6911 H 656.944 -3.3356 4.66273 0
M  V30 6912 H 655.341 -2.84523 5.28362 0
M  V30 6913 H 656.411 -1.62609 4.56822 0
M  V30 6914 N 657.755 -1.42862 -0.66545 0
M  V30 6915 C 658.983 -1.47246 -1.45349 0
M  V30 6916 C 659.398 -0.0865944 -1.88601 0
M  V30 6917 O 658.755 0.900652 -1.58728 0
M  V30 6918 C 658.806 -2.40772 -2.6965 0
M  V30 6919 O 658.527 -3.73968 -2.2821 0
M  V30 6920 C 660.028 -2.54272 -3.63126 0
M  V30 6921 H 657.248 -0.500497 -0.446927 0
M  V30 6922 H 659.792 -1.87477 -0.816871 0
M  V30 6923 H 657.947 -2.0377 -3.29479 0
M  V30 6924 H 658.361 -4.24146 -3.08546 0
M  V30 6925 H 659.835 -3.23815 -4.47043 0
M  V30 6926 H 660.312 -1.58364 -4.09656 0
M  V30 6927 H 660.918 -2.92036 -3.09185 0
M  V30 6928 N 659.233 0.902656 -1.29189 0
M  V30 6929 C 660.481 1.6496 -1.16758 0
M  V30 6930 C 660.802 1.92952 0.28188 0
M  V30 6931 O 660.072 1.55351 1.19344 0
M  V30 6932 H 658.652 0.611447 -0.429118 0
M  V30 6933 H 661.314 1.0825 -1.62074 0
M  V30 6934 H 660.41 2.60728 -1.71544 0
M  V30 6935 N 660.711 1.11618 1.11262 0
M  V30 6936 C 661.959 0.864469 1.82678 0
M  V30 6937 C 662.28 -0.611564 1.85162 0
M  V30 6938 O 661.55 -1.44429 1.32352 0
M  V30 6939 H 660.13 0.316821 0.676486 0
M  V30 6940 H 662.792 1.40894 1.34666 0
M  V30 6941 H 661.888 1.23832 2.86482 0
M  V30 6942 N 662.189 -1.289 0.906776 0
M  V30 6943 C 663.435 -1.95558 0.53712 0
M  V30 6944 C 663.768 -1.71262 -0.915582 0
M  V30 6945 O 663.043 -1.02961 -1.65013 0
M  V30 6946 C 663.326 -3.50198 0.838645 0
M  V30 6947 C 663.179 -3.83923 2.34357 0
M  V30 6948 C 664.498 -4.38861 0.329988 0
M  V30 6949 H 661.617 -0.710289 0.196617 0
M  V30 6950 H 664.259 -1.52392 1.13475 0
M  V30 6951 H 662.409 -3.87096 0.330024 0
M  V30 6952 H 664.081 -3.56933 2.92227 0
M  V30 6953 H 662.324 -3.31215 2.80141 0
M  V30 6954 H 662.995 -4.91883 2.5051 0
M  V30 6955 H 665.471 -4.08996 0.765609 0
M  V30 6956 H 664.347 -5.45931 0.570105 0
M  V30 6957 H 664.608 -4.35352 -0.769511 0
M  V30 6958 N 663.667 -0.670007 -1.42649 0
M  V30 6959 C 664.897 -0.198252 -2.05647 0
M  V30 6960 C 665.305 1.14786 -1.50402 0
M  V30 6961 O 664.648 1.72316 -0.636634 0
M  V30 6962 C 664.71 -0.0507132 -3.59464 0
M  V30 6963 C 664.374 -1.32478 -4.37377 0
M  V30 6964 C 665.371 -2.2572 -4.68344 0
M  V30 6965 C 663.056 -1.57104 -4.77099 0
M  V30 6966 C 665.05 -3.4187 -5.37963 0
M  V30 6967 C 662.737 -2.73543 -5.46459 0
M  V30 6968 C 663.735 -3.65751 -5.76815 0
M  V30 6969 O 663.423 -4.80154 -6.44753 0
M  V30 6970 H 663.155 -0.0950721 -0.669281 0
M  V30 6971 H 665.709 -0.915745 -1.83857 0
M  V30 6972 H 663.939 0.722314 -3.79894 0
M  V30 6973 H 665.628 0.380552 -4.04112 0
M  V30 6974 H 666.394 -2.07943 -4.38161 0
M  V30 6975 H 662.273 -0.862069 -4.52868 0
M  V30 6976 H 665.817 -4.13861 -5.61574 0
M  V30 6977 H 661.714 -2.91248 -5.7606 0
M  V30 6978 H 662.482 -4.79637 -6.63243 0
M  V30 6979 N 665.145 1.52092 -0.413018 0
M  V30 6980 C 666.37 2.06756 0.163338 0
M  V30 6981 C 666.795 1.28073 1.37764 0
M  V30 6982 O 666.153 0.312015 1.78595 0
M  V30 6983 C 666.201 3.57278 0.488322 0
M  V30 6984 O 665.305 3.80986 1.57871 0
M  V30 6985 H 664.646 0.663882 0.0125068 0
M  V30 6986 H 667.176 1.95988 -0.587339 0
M  V30 6987 H 667.186 4.01125 0.745836 0
M  V30 6988 H 665.861 4.13978 -0.399327 0
M  V30 6989 H 664.438 3.49017 1.31306 0
M  V30 6990 N 666.623 0.143563 1.56945 0
M  V30 6991 C 668.039 -0.212877 1.58174 0
M  V30 6992 C 668.239 -1.64926 1.15766 0
M  V30 6993 O 667.295 -2.37535 0.856361 0
M  V30 6994 C 668.608 0.0427573 3.0067 0
M  V30 6995 C 670.156 -0.0212221 3.12993 0
M  V30 6996 C 670.631 0.207036 4.57532 0
M  V30 6997 N 672.122 0.153845 4.62944 0
M  V30 6998 C 672.857 0.305018 5.72588 0
M  V30 6999 N 672.353 0.513722 6.90893 0
M  V30 7000 N 674.146 0.242862 5.61575 0
M  V30 7001 H 666.297 1.08148 1.82805 0
M  V30 7002 H 668.56 0.427831 0.84597 0
M  V30 7003 H 668.266 1.03672 3.36073 0
M  V30 7004 H 668.14 -0.678195 3.71053 0
M  V30 7005 H 670.527 -1.00574 2.77433 0
M  V30 7006 H 670.608 0.732004 2.45103 0
M  V30 7007 H 670.252 1.18863 4.93795 0
M  V30 7008 H 670.182 -0.566473 5.23544 0
M  V30 7009 H 672.673 -0.00294866 3.779 0
M  V30 7010 H 672.986 0.619273 7.70315 0
M  V30 7011 H 671.331 0.550001 6.9282 0
M  V30 7012 H 674.522 0.0806015 4.68031 0
M  V30 7013 H 674.695 0.364112 6.46976 0
M  V30 7014 N 668.101 -1.57061 -0.130224 0
M  V30 7015 C 669.048 -1.99517 -1.16024 0
M  V30 7016 C 670.018 -0.865452 -1.41771 0
M  V30 7017 O 671.203 -1.12882 -1.53826 0
M  V30 7018 C 668.343 -2.3951 -2.48453 0
M  V30 7019 C 667.456 -3.65848 -2.29737 0
M  V30 7020 C 666.591 -3.9487 -3.55318 0
M  V30 7021 C 665.63 -5.14426 -3.31711 0
M  V30 7022 N 664.767 -5.39375 -4.49466 0
M  V30 7023 H 669.607 -2.87305 -0.791194 0
M  V30 7024 H 667.144 -1.42129 -0.379195 0
M  V30 7025 H 669.102 -2.60731 -3.25692 0
M  V30 7026 H 667.732 -1.54779 -2.83272 0
M  V30 7027 H 666.784 -3.52307 -1.4347 0
M  V30 7028 H 668.096 -4.53241 -2.08263 0
M  V30 7029 H 667.25 -4.16679 -4.4098 0
M  V30 7030 H 665.989 -3.05931 -3.79813 0
M  V30 7031 H 664.994 -4.92473 -2.44439 0
M  V30 7032 H 666.219 -6.04933 -3.08598 0
M  V30 7033 H 664.165 -4.53391 -4.74102 0
M  V30 7034 H 664.082 -6.21069 -4.31055 0
M  V30 7035 H 665.35 -5.65694 -5.36293 0
M  V30 7036 N 669.579 0.400081 -1.52437 0
M  V30 7037 C 670.995 0.739359 -1.41441 0
M  V30 7038 C 671.195 1.94512 -0.526053 0
M  V30 7039 O 670.251 2.525 0.00472502 0
M  V30 7040 C 671.564 0.984824 -2.84116 0
M  V30 7041 C 673.112 1.08698 -2.93519 0
M  V30 7042 C 673.587 1.36515 -4.37181 0
M  V30 7043 N 675.078 1.43361 -4.40457 0
M  V30 7044 C 675.813 1.66528 -5.48686 0
M  V30 7045 N 675.309 1.87239 -6.67018 0
M  V30 7046 N 677.102 1.68617 -5.36213 0
M  V30 7047 H 669.253 -0.393484 -2.08723 0
M  V30 7048 H 671.516 -0.1138 -0.941145 0
M  V30 7049 H 671.222 0.171096 -3.51284 0
M  V30 7050 H 671.096 1.90253 -3.25705 0
M  V30 7051 H 673.483 1.89129 -2.26526 0
M  V30 7052 H 673.564 0.147432 -2.55375 0
M  V30 7053 H 673.208 0.565982 -5.04737 0
M  V30 7054 H 673.138 2.31737 -4.7287 0
M  V30 7055 H 675.629 1.29108 -3.55161 0
M  V30 7056 H 675.942 2.04392 -7.45281 0
M  V30 7057 H 674.287 1.84486 -6.70067 0
M  V30 7058 H 677.478 1.5198 -4.42741 0
M  V30 7059 H 677.651 1.86332 -6.20632 0
M  V30 7060 N 671.057 1.43213 0.657864 0
M  V30 7061 C 671.967 1.50448 1.80007 0
M  V30 7062 C 672.983 0.39191 1.69529 0
M  V30 7063 O 674.159 0.645349 1.90781 0
M  V30 7064 C 671.224 1.42062 3.16258 0
M  V30 7065 C 670.285 2.63951 3.38568 0
M  V30 7066 C 669.518 2.55956 4.68318 0
M  V30 7067 O 669.741 1.60473 5.47361 0
M  V30 7068 O 668.675 3.46378 4.92245 0
M  V30 7069 H 672.501 2.4689 1.76858 0
M  V30 7070 H 670.086 1.25163 0.81576 0
M  V30 7071 H 671.968 1.3981 3.97531 0
M  V30 7072 H 670.643 0.487524 3.20008 0
M  V30 7073 H 669.55 2.71776 2.57077 0
M  V30 7074 H 670.883 3.56217 3.39662 0
M  V30 7075 N 672.536 -0.895792 1.29666 0
M  V30 7076 C 673.486 -1.98736 1.1175 0
M  V30 7077 C 674.47 -1.6086 0.0357834 0
M  V30 7078 O 675.662 -1.75111 0.257926 0
M  V30 7079 C 672.791 -3.33845 0.800156 0
M  V30 7080 C 671.877 -3.78068 1.9216 0
M  V30 7081 N 672.268 -3.94489 3.16563 0
M  V30 7082 C 670.566 -4.07376 1.81552 0
M  V30 7083 C 671.267 -4.31819 3.89753 0
M  V30 7084 N 670.243 -4.41081 3.17724 0
M  V30 7085 H 674.045 -2.09507 2.06117 0
M  V30 7086 H 671.559 -1.08488 1.20848 0
M  V30 7087 H 673.556 -4.11757 0.652841 0
M  V30 7088 H 672.216 -3.24417 -0.135551 0
M  V30 7089 H 673.227 -3.79914 3.51974 0
M  V30 7090 H 669.904 -4.06483 0.952787 0
M  V30 7091 H 671.294 -4.52337 4.96831 0
M  V30 7092 N 674.014 -1.12206 -1.10668 0
M  V30 7093 C 674.944 -0.810086 -2.18997 0
M  V30 7094 C 675.925 0.225065 -1.68604 0
M  V30 7095 O 677.11 0.086783 -1.94006 0
M  V30 7096 C 674.24 -0.261262 -3.46316 0
M  V30 7097 C 673.194 -1.2292 -4.09969 0
M  V30 7098 C 672.52 -0.540713 -5.31959 0
M  V30 7099 C 673.82 -2.58295 -4.53962 0
M  V30 7100 H 675.514 -1.7159 -2.45352 0
M  V30 7101 H 673.06 -0.82646 -1.17922 0
M  V30 7102 H 675.013 -0.0307522 -4.21389 0
M  V30 7103 H 673.737 0.679879 -3.19445 0
M  V30 7104 H 672.396 -1.44548 -3.369 0
M  V30 7105 H 672.044 0.405492 -5.01363 0
M  V30 7106 H 671.744 -1.18637 -5.75499 0
M  V30 7107 H 673.268 -0.319184 -6.09765 0
M  V30 7108 H 674.682 -2.40709 -5.20319 0
M  V30 7109 H 673.079 -3.18916 -5.08343 0
M  V30 7110 H 674.149 -3.16918 -3.67002 0
M  V30 7111 N 675.492 1.28418 -0.913599 0
M  V30 7112 C 676.402 2.31043 -0.406965 0
M  V30 7113 C 677.418 1.66501 0.505298 0
M  V30 7114 O 678.594 1.97558 0.391522 0
M  V30 7115 C 675.659 3.4498 0.344901 0
M  V30 7116 C 674.72 4.25078 -0.600563 0
M  V30 7117 C 673.953 5.33575 0.115516 0
M  V30 7118 O 674.176 5.54503 1.33727 0
M  V30 7119 O 673.11 5.9939 -0.549095 0
M  V30 7120 H 676.936 2.76387 -1.25873 0
M  V30 7121 H 674.521 1.33109 -0.678415 0
M  V30 7122 H 676.403 4.14314 0.769542 0
M  V30 7123 H 675.078 3.01719 1.1725 0
M  V30 7124 H 673.985 3.58334 -1.0746 0
M  V30 7125 H 675.318 4.72018 -1.39497 0
M  V30 7126 N 676.97 0.677563 1.42291 0
M  V30 7127 C 678.216 0.209962 2.02313 0
M  V30 7128 C 678.571 -1.1714 1.52631 0
M  V30 7129 O 677.864 -1.7756 0.719938 0
M  V30 7130 C 678.058 0.187229 3.56909 0
M  V30 7131 C 677.887 1.56484 4.21595 0
M  V30 7132 C 676.657 2.16329 4.56651 0
M  V30 7133 C 678.855 2.50805 4.49 0
M  V30 7134 N 676.837 3.46842 5.06531 0
M  V30 7135 C 678.208 3.65976 5.00461 0
M  V30 7136 C 680.263 2.493 4.30992 0
M  V30 7137 C 678.966 4.79899 5.35807 0
M  V30 7138 C 680.992 3.62322 4.67415 0
M  V30 7139 C 680.354 4.76221 5.19031 0
M  V30 7140 H 676.453 0.121815 0.772454 0
M  V30 7141 H 679.037 0.891148 1.73109 0
M  V30 7142 H 677.208 -0.46338 3.85626 0
M  V30 7143 H 678.94 -0.293512 4.03634 0
M  V30 7144 H 675.695 1.6879 4.42501 0
M  V30 7145 H 676.119 4.13694 5.35898 0
M  V30 7146 H 680.761 1.62467 3.90339 0
M  V30 7147 H 678.479 5.67406 5.75392 0
M  V30 7148 H 682.065 3.62388 4.55155 0
M  V30 7149 H 680.945 5.62228 5.46689 0
M  V30 7150 N 678.448 -1.51871 0.421078 0
M  V30 7151 C 679.411 -2.25914 -0.386712 0
M  V30 7152 C 680.411 -1.28733 -0.963555 0
M  V30 7153 O 681.601 -1.52579 -0.840556 0
M  V30 7154 C 678.733 -3.03853 -1.54551 0
M  V30 7155 H 679.926 -2.98754 0.261978 0
M  V30 7156 H 677.479 -1.5533 0.173862 0
M  V30 7157 H 678.214 -2.35392 -2.23072 0
M  V30 7158 H 677.999 -3.75215 -1.13824 0
M  V30 7159 H 679.489 -3.59984 -2.11663 0
M  V30 7160 N 679.926 -0.151884 -1.56866 0
M  V30 7161 C 681.342 0.204486 -1.58285 0
M  V30 7162 C 681.542 1.6431 -1.16639 0
M  V30 7163 O 680.598 2.37077 -0.868946 0
M  V30 7164 C 681.911 -0.0587019 -3.00643 0
M  V30 7165 C 683.459 0.00462303 -3.13 0
M  V30 7166 C 683.934 -0.231297 -4.57416 0
M  V30 7167 N 685.425 -0.178394 -4.62856 0
M  V30 7168 C 686.16 -0.335379 -5.72418 0
M  V30 7169 N 685.656 -0.550355 -6.90611 0
M  V30 7170 N 687.449 -0.272641 -5.61438 0
M  V30 7171 H 679.6 -1.09116 -1.82229 0
M  V30 7172 H 681.863 -0.432311 -0.843689 0
M  V30 7173 H 681.569 -1.05453 -3.35518 0
M  V30 7174 H 681.443 0.658508 -3.71407 0
M  V30 7175 H 683.83 0.991009 -2.77962 0
M  V30 7176 H 683.911 -0.744992 -2.44711 0
M  V30 7177 H 683.555 -1.2148 -4.93158 0
M  V30 7178 H 683.485 0.5387 -5.23837 0
M  V30 7179 H 685.976 -0.0170923 -3.77896 0
M  V30 7180 H 686.289 -0.660116 -7.69976 0
M  V30 7181 H 684.634 -0.586736 -6.92519 0
M  V30 7182 H 687.825 -0.105421 -4.67981 0
M  V30 7183 H 687.998 -0.398418 -6.46774 0
M  V30 7184 N 681.404 1.57128 0.121893 0
M  V30 7185 C 682.82 1.52357 0.47534 0
M  V30 7186 C 683.02 0.864417 1.82017 0
M  V30 7187 O 682.076 0.445529 2.48538 0
M  V30 7188 C 683.389 2.97122 0.4625 0
M  V30 7189 C 684.937 3.08196 0.546255 0
M  V30 7190 C 685.412 4.54516 0.563833 0
M  V30 7191 N 686.903 4.58959 0.625353 0
M  V30 7192 C 687.638 5.69585 0.660354 0
M  V30 7193 N 687.134 6.89714 0.653175 0
M  V30 7194 N 688.927 5.57685 0.703143 0
M  V30 7195 H 681.078 1.98364 -0.75931 0
M  V30 7196 H 683.341 0.905777 -0.279772 0
M  V30 7197 H 683.047 3.48706 -0.457943 0
M  V30 7198 H 682.921 3.54406 1.29136 0
M  V30 7199 H 685.308 2.56617 1.45712 0
M  V30 7200 H 685.389 2.53912 -0.310234 0
M  V30 7201 H 685.033 5.06741 -0.342974 0
M  V30 7202 H 684.963 5.06609 1.43716 0
M  V30 7203 H 687.454 3.72489 0.637182 0
M  V30 7204 H 687.767 7.69781 0.682425 0
M  V30 7205 H 686.112 6.92223 0.620646 0
M  V30 7206 H 689.303 4.62744 0.706095 0
M  V30 7207 H 689.476 6.43909 0.726952 0
M  V30 7208 N 682.882 -0.391992 1.52647 0
M  V30 7209 C 683.792 -1.503 1.80131 0
M  V30 7210 C 684.808 -1.59825 0.687882 0
M  V30 7211 O 685.984 -1.76218 0.975149 0
M  V30 7212 C 683.049 -2.85863 1.96171 0
M  V30 7213 C 682.11 -2.86084 3.20085 0
M  V30 7214 C 681.343 -4.15181 3.35351 0
M  V30 7215 O 681.566 -5.09981 2.55491 0
M  V30 7216 O 680.5 -4.22603 4.28591 0
M  V30 7217 H 684.326 -1.30007 2.74466 0
M  V30 7218 H 681.911 -0.579539 1.37701 0
M  V30 7219 H 683.793 -3.66236 2.08445 0
M  V30 7220 H 682.468 -3.06189 1.05025 0
M  V30 7221 H 681.375 -2.04504 3.13256 0
M  V30 7222 H 682.708 -2.7071 4.11068 0
M  V30 7223 N 684.36 -1.4356 -0.65026 0
M  V30 7224 C 685.607 -1.45333 -1.41012 0
M  V30 7225 C 685.935 -0.0787282 -1.94341 0
M  V30 7226 O 685.19 0.916715 -1.72901 0
M  V30 7227 C 685.489 -2.44528 -2.60654 0
M  V30 7228 C 685.155 -3.90331 -2.25727 0
M  V30 7229 C 683.817 -4.3004 -2.15914 0
M  V30 7230 C 686.169 -4.822 -1.97821 0
M  V30 7231 C 683.497 -5.59568 -1.76354 0
M  V30 7232 C 685.849 -6.12095 -1.59759 0
M  V30 7233 C 684.513 -6.50778 -1.48473 0
M  V30 7234 H 683.783 -0.531813 -0.516 0
M  V30 7235 H 686.43 -1.76657 -0.739219 0
M  V30 7236 H 684.735 -2.06619 -3.3289 0
M  V30 7237 H 686.432 -2.43155 -3.18868 0
M  V30 7238 H 683.022 -3.58905 -2.34276 0
M  V30 7239 H 687.206 -4.5229 -2.04322 0
M  V30 7240 H 682.462 -5.88376 -1.66205 0
M  V30 7241 H 686.636 -6.82751 -1.37198 0
M  V30 7242 H 684.263 -7.5105 -1.17591 0
M  V30 7243 N 685.838 0.888903 -1.30139 0
M  V30 7244 C 686.788 1.9814 -1.12803 0
M  V30 7245 C 687.772 1.60839 -0.0443137 0
M  V30 7246 O 688.964 1.74971 -0.267208 0
M  V30 7247 C 686.093 3.33416 -0.817849 0
M  V30 7248 C 685.179 3.77043 -1.94163 0
M  V30 7249 N 685.57 3.92805 -3.18651 0
M  V30 7250 C 683.868 4.06407 -1.8371 0
M  V30 7251 C 684.569 4.29746 -3.92038 0
M  V30 7252 N 683.545 4.3939 -3.20059 0
M  V30 7253 H 687.347 2.08411 -2.07225 0
M  V30 7254 H 684.861 1.07845 -1.21421 0
M  V30 7255 H 686.858 4.11405 -0.674668 0
M  V30 7256 H 685.518 3.24484 0.118344 0
M  V30 7257 H 686.529 3.78042 -3.53984 0
M  V30 7258 H 683.206 4.05972 -0.974331 0
M  V30 7259 H 684.596 4.49695 -4.99223 0
M  V30 7260 N 687.317 1.12792 1.10072 0
M  V30 7261 C 688.563 0.886857 1.82381 0
M  V30 7262 C 688.896 -0.58576 1.85155 0
M  V30 7263 O 688.171 -1.43317 1.31493 0
M  V30 7264 C 688.454 1.46703 3.28862 0
M  V30 7265 C 688.307 3.00829 3.34398 0
M  V30 7266 C 689.626 1.12971 4.25353 0
M  V30 7267 H 686.745 0.32362 0.662148 0
M  V30 7268 H 689.387 1.39513 1.28982 0
M  V30 7269 H 687.537 1.03476 3.74466 0
M  V30 7270 H 689.209 3.52764 2.97247 0
M  V30 7271 H 687.452 3.36164 2.74183 0
M  V30 7272 H 688.123 3.36519 4.3756 0
M  V30 7273 H 690.599 1.50313 3.88001 0
M  V30 7274 H 689.475 1.56223 5.26199 0
M  V30 7275 H 689.736 0.0424452 4.4208 0
M  V30 7276 N 688.795 -1.27931 0.920396 0
M  V30 7277 C 690.043 -1.94304 0.555906 0
M  V30 7278 C 690.364 -1.72753 -0.904519 0
M  V30 7279 O 689.634 -1.07104 -1.64029 0
M  V30 7280 H 688.214 -0.719001 0.202599 0
M  V30 7281 H 690.876 -1.55785 1.1712 0
M  V30 7282 H 689.972 -3.02806 0.755981 0
M  V30 7283 N 690.273 -0.685099 -1.4193 0
M  V30 7284 C 691.221 -0.00165985 -2.326 0
M  V30 7285 C 692.215 0.779678 -1.50391 0
M  V30 7286 O 693.421 0.68648 -1.66395 0
M  V30 7287 H 689.796 0.0182616 -0.751778 0
M  V30 7288 H 691.767 -0.783592 -2.87928 0
M  V30 7289 C 690.516 0.928385 -3.35077 0
M  V30 7290 H 689.839 0.336578 -3.98381 0
M  V30 7291 H 691.279 1.37509 -4.01083 0
M  V30 7292 C 689.738 2.03964 -2.68142 0
M  V30 7293 O 690.268 3.12727 -2.5212 0
M  V30 7294 N 688.474 1.81433 -2.27003 0
M  V30 7295 H 688.021 0.929807 -2.40234 0
M  V30 7296 H 687.979 2.55973 -1.82552 0
M  V30 7297 N 691.751 1.51645 -0.429126 0
M  V30 7298 C 692.681 2.30434 0.377148 0
M  V30 7299 C 693.662 1.35493 1.02838 0
M  V30 7300 O 694.847 1.6441 1.03359 0
M  V30 7301 C 691.977 3.14038 1.48315 0
M  V30 7302 C 690.931 4.1719 0.955855 0
M  V30 7303 C 690.257 4.89263 2.15698 0
M  V30 7304 C 691.557 5.223 -0.00402136 0
M  V30 7305 H 693.251 2.98085 -0.280336 0
M  V30 7306 H 690.797 1.43354 -0.136265 0
M  V30 7307 H 692.75 3.67933 2.05435 0
M  V30 7308 H 691.474 2.44193 2.16881 0
M  V30 7309 H 690.133 3.64335 0.406929 0
M  V30 7310 H 689.781 4.15929 2.82864 0
M  V30 7311 H 689.481 5.59009 1.81059 0
M  V30 7312 H 691.005 5.45978 2.73387 0
M  V30 7313 H 692.419 5.71315 0.476607 0
M  V30 7314 H 690.816 5.99525 -0.26258 0
M  V30 7315 H 691.886 4.75638 -0.943236 0
M  V30 7316 N 693.229 0.160201 1.56784 0
M  V30 7317 C 694.459 -0.493449 2.00621 0
M  V30 7318 C 694.867 -1.5809 1.03943 0
M  V30 7319 O 694.21 -1.83675 0.0305343 0
M  V30 7320 C 694.272 -1.14169 3.4089 0
M  V30 7321 C 693.936 -0.197243 4.56574 0
M  V30 7322 C 694.933 0.580174 5.16653 0
M  V30 7323 C 692.618 -0.0963038 5.02208 0
M  V30 7324 C 694.612 1.44584 6.20785 0
M  V30 7325 C 692.299 0.772959 6.06192 0
M  V30 7326 C 693.297 1.54263 6.65351 0
M  V30 7327 O 692.985 2.39738 7.67321 0
M  V30 7328 H 692.717 -0.131764 0.663034 0
M  V30 7329 H 695.271 0.255728 2.03802 0
M  V30 7330 H 693.501 -1.93877 3.34587 0
M  V30 7331 H 695.19 -1.69641 3.6875 0
M  V30 7332 H 695.956 0.5123 4.82287 0
M  V30 7333 H 691.835 -0.685143 4.5588 0
M  V30 7334 H 695.379 2.04706 6.66889 0
M  V30 7335 H 691.276 0.842077 6.39984 0
M  V30 7336 H 692.044 2.33131 7.84597 0
M  V30 7337 N 694.707 -1.5719 -0.113559 0
M  V30 7338 C 695.954 -1.85138 -0.820382 0
M  V30 7339 C 696.282 -0.74608 -1.79622 0
M  V30 7340 O 695.537 0.262077 -1.93937 0
M  V30 7341 C 695.836 -3.19593 -1.59984 0
M  V30 7342 C 695.502 -4.44315 -0.767809 0
M  V30 7343 C 694.164 -4.78179 -0.538379 0
M  V30 7344 C 696.516 -5.2086 -0.188203 0
M  V30 7345 C 693.844 -5.86028 0.28082 0
M  V30 7346 C 696.196 -6.29572 0.618217 0
M  V30 7347 C 694.86 -6.61964 0.857912 0
M  V30 7348 H 694.13 -0.677467 -0.300199 0
M  V30 7349 H 696.777 -1.91322 -0.0825443 0
M  V30 7350 H 695.082 -3.0901 -2.40874 0
M  V30 7351 H 696.779 -3.3844 -2.1508 0
M  V30 7352 H 693.369 -4.17786 -0.956724 0
M  V30 7353 H 697.553 -4.95045 -0.352658 0
M  V30 7354 H 692.809 -6.09547 0.475693 0
M  V30 7355 H 696.983 -6.88064 1.0743 0
M  V30 7356 H 694.61 -7.45365 1.49451 0
M  V30 7357 N 696.185 0.383891 -1.52853 0
M  V30 7358 C 697.133 1.48965 -1.7864 0
M  V30 7359 C 698.127 1.56242 -0.654577 0
M  V30 7360 O 699.333 1.59347 -0.83716 0
M  V30 7361 H 695.708 0.495892 -0.565328 0
M  V30 7362 H 697.679 1.24411 -2.71228 0
M  V30 7363 C 696.428 2.86036 -1.97683 0
M  V30 7364 H 695.751 2.81188 -2.84206 0
M  V30 7365 H 697.191 3.62632 -2.19713 0
M  V30 7366 C 695.65 3.28428 -0.750776 0
M  V30 7367 O 696.18 4.0164 0.0693491 0
M  V30 7368 N 694.386 2.84765 -0.579427 0
M  V30 7369 H 693.933 2.25353 -1.24795 0
M  V30 7370 H 693.891 3.13486 0.239544 0
M  V30 7371 N 697.663 1.43903 0.642637 0
M  V30 7372 C 699.079 1.27536 0.959519 0
M  V30 7373 C 699.279 0.202751 2.00477 0
M  V30 7374 O 698.335 -0.415256 2.49062 0
M  V30 7375 C 699.648 2.6432 1.43372 0
M  V30 7376 C 701.196 2.71937 1.54981 0
M  V30 7377 C 701.671 4.09164 2.05789 0
M  V30 7378 N 703.162 4.11282 2.13076 0
M  V30 7379 C 703.897 5.14303 2.53534 0
M  V30 7380 N 703.393 6.27693 2.93212 0
M  V30 7381 N 705.186 5.01657 2.53567 0
M  V30 7382 H 697.337 2.12344 -0.0488376 0
M  V30 7383 H 699.6 0.947124 0.0407559 0
M  V30 7384 H 699.306 3.43826 0.740048 0
M  V30 7385 H 699.18 2.90432 2.40685 0
M  V30 7386 H 701.567 1.92757 2.23448 0
M  V30 7387 H 701.648 2.49578 0.560739 0
M  V30 7388 H 701.292 4.88815 1.37921 0
M  V30 7389 H 701.222 4.28893 3.05546 0
M  V30 7390 H 703.713 3.2944 1.85143 0
M  V30 7391 H 704.026 7.02125 3.22863 0
M  V30 7392 H 702.371 6.31149 2.90991 0
M  V30 7393 H 705.562 4.12134 2.21952 0
M  V30 7394 H 705.735 5.82072 2.84774 0
M  V30 7395 N 699.141 -0.881989 1.30609 0
M  V30 7396 C 700.088 -1.98803 1.17244 0
M  V30 7397 C 701.058 -1.65987 0.0611905 0
M  V30 7398 O 702.243 -1.89385 0.231911 0
M  V30 7399 C 699.383 -3.33867 0.87333 0
M  V30 7400 C 698.496 -3.79354 2.06675 0
M  V30 7401 C 697.631 -5.03078 1.70547 0
M  V30 7402 C 696.67 -5.40981 2.86366 0
M  V30 7403 N 695.807 -6.55886 2.50514 0
M  V30 7404 H 700.647 -2.09566 2.11863 0
M  V30 7405 H 698.184 -1.02607 1.05405 0
M  V30 7406 H 700.142 -4.11612 0.680519 0
M  V30 7407 H 698.772 -3.2278 -0.0359983 0
M  V30 7408 H 697.824 -2.97492 2.37071 0
M  V30 7409 H 699.136 -4.03382 2.93401 0
M  V30 7410 H 698.29 -5.88457 1.47658 0
M  V30 7411 H 697.029 -4.80927 0.809947 0
M  V30 7412 H 696.034 -4.54127 3.09917 0
M  V30 7413 H 697.259 -5.65104 3.76609 0
M  V30 7414 H 695.205 -6.35306 1.63471 0
M  V30 7415 H 695.122 -6.79799 3.30771 0
M  V30 7416 H 696.39 -7.44489 2.30989 0
M  V30 7417 N 700.619 -1.13374 -1.09472 0
M  V30 7418 C 701.868 -0.889844 -1.8101 0
M  V30 7419 C 702.181 0.585686 -1.86625 0
M  V30 7420 O 703.387 0.946497 -2.54467 0
M  V30 7421 C 701.843 -1.54241 -3.25174 0
M  V30 7422 C 701.451 -3.05343 -3.27826 0
M  V30 7423 C 703.195 -1.37919 -4.0147 0
M  V30 7424 C 701.102 -3.63486 -4.6651 0
M  V30 7425 H 700.032 -0.329256 -0.678311 0
M  V30 7426 H 702.683 -1.36139 -1.23038 0
M  V30 7427 H 701.065 -0.998525 -3.83204 0
M  V30 7428 H 702.239 -3.66307 -2.79563 0
M  V30 7429 H 700.554 -3.21175 -2.65019 0
M  V30 7430 H 703.151 -1.78771 -5.03929 0
M  V30 7431 H 703.494 -0.323987 -4.15037 0
M  V30 7432 H 704.027 -1.89284 -3.49881 0
M  V30 7433 H 700.766 -4.68811 -4.58145 0
M  V30 7434 H 700.286 -3.073 -5.15099 0
M  V30 7435 H 701.965 -3.63134 -5.35484 0
M  V30 7436 N 702.098 1.27442 -0.927168 0
M  V30 7437 C 703.326 1.98498 -0.583622 0
M  V30 7438 C 703.741 1.69171 0.838241 0
M  V30 7439 O 703.098 0.951969 1.55704 0
M  V30 7440 C 703.149 3.52552 -0.799341 0
M  V30 7441 O 702.87 3.80851 -2.16527 0
M  V30 7442 C 704.371 4.4086 -0.464436 0
M  V30 7443 H 701.591 0.633487 -0.221213 0
M  V30 7444 H 704.135 1.62308 -1.24404 0
M  V30 7445 H 702.29 3.86955 -0.185728 0
M  V30 7446 H 702.704 4.75441 -2.21487 0
M  V30 7447 H 704.178 5.47967 -0.666075 0
M  V30 7448 H 704.655 4.35082 0.599995 0
M  V30 7449 H 705.261 4.11977 -1.05617 0
M  V30 7450 N 703.576 0.692616 1.41565 0
M  V30 7451 C 704.824 0.221896 2.00878 0
M  V30 7452 C 705.145 -1.18164 1.5512 0
M  V30 7453 O 704.415 -1.79679 0.78054 0
M  V30 7454 H 702.995 0.0790463 0.742806 0
M  V30 7455 H 705.657 0.893115 1.73232 0
M  V30 7456 H 704.753 0.23702 3.11199 0
M  V30 7457 N 705.054 -1.51416 0.437162 0
M  V30 7458 C 706.017 -2.26312 -0.362729 0
M  V30 7459 C 707.017 -1.29748 -0.949847 0
M  V30 7460 O 708.207 -1.53462 -0.824325 0
M  V30 7461 C 705.339 -3.05475 -1.5132 0
M  V30 7462 H 706.532 -2.98459 0.29365 0
M  V30 7463 H 704.085 -1.55137 0.190327 0
M  V30 7464 H 704.82 -2.37744 -2.20563 0
M  V30 7465 H 704.605 -3.76401 -1.09838 0
M  V30 7466 H 706.095 -3.62209 -2.07833 0
M  V30 7467 N 706.532 -0.168513 -1.56696 0
M  V30 7468 C 707.462 0.758563 -2.20835 0
M  V30 7469 C 708.443 1.24121 -1.1631 0
M  V30 7470 O 709.628 1.29487 -1.4473 0
M  V30 7471 C 706.758 1.9892 -2.8469 0
M  V30 7472 C 705.712 1.64252 -3.95228 0
M  V30 7473 C 705.038 2.94757 -4.46119 0
M  V30 7474 C 706.338 0.872675 -5.14958 0
M  V30 7475 H 708.032 0.223953 -2.98561 0
M  V30 7476 H 705.578 0.106277 -1.43607 0
M  V30 7477 H 707.531 2.64275 -3.28233 0
M  V30 7478 H 706.255 2.5479 -2.04327 0
M  V30 7479 H 704.914 1.01266 -3.52336 0
M  V30 7480 H 704.562 3.48662 -3.62552 0
M  V30 7481 H 704.262 2.72316 -5.2069 0
M  V30 7482 H 705.786 3.61147 -4.92347 0
M  V30 7483 H 707.2 1.42875 -5.55211 0
M  V30 7484 H 705.597 0.747402 -5.95428 0
M  V30 7485 H 706.667 -0.131535 -4.84722 0
M  V30 7486 N 708.01 1.57248 0.105221 0
M  V30 7487 C 709.256 1.85845 0.811753 0
M  V30 7488 C 709.589 0.756219 1.78871 0
M  V30 7489 O 708.864 -0.236736 1.93054 0
M  V30 7490 C 709.147 3.25059 1.54947 0
M  V30 7491 C 709 4.45898 0.591185 0
M  V30 7492 C 710.319 3.6203 2.50245 0
M  V30 7493 H 707.438 0.675973 0.293649 0
M  V30 7494 H 710.08 1.89849 0.0756269 0
M  V30 7495 H 708.23 3.21776 2.17698 0
M  V30 7496 H 709.902 4.61291 -0.0285352 0
M  V30 7497 H 708.145 4.33693 -0.0962343 0
M  V30 7498 H 708.816 5.40009 1.1443 0
M  V30 7499 H 711.292 3.66192 1.97593 0
M  V30 7500 H 710.168 4.60389 2.98886 0
M  V30 7501 H 710.429 2.90176 3.33542 0
M  V30 7502 N 709.488 -0.375779 1.53054 0
M  V30 7503 C 710.736 -1.11727 1.68409 0
M  V30 7504 C 711.057 -1.90127 0.43323 0
M  V30 7505 O 710.327 -1.87945 -0.552595 0
M  V30 7506 H 708.907 -0.415451 0.620813 0
M  V30 7507 H 711.569 -0.424869 1.90213 0
M  V30 7508 H 710.665 -1.8128 2.54055 0
M  V30 7509 N 710.966 -1.44241 -0.634997 0
M  V30 7510 C 712.212 -1.47038 -1.39669 0
M  V30 7511 C 712.545 -0.101122 -1.93937 0
M  V30 7512 O 711.82 0.880699 -1.73418 0
M  V30 7513 C 712.103 -2.52763 -2.56482 0
M  V30 7514 C 711.956 -3.99032 -2.07589 0
M  V30 7515 C 713.275 -2.55031 -3.58674 0
M  V30 7516 H 710.394 -0.53537 -0.506506 0
M  V30 7517 H 713.036 -1.75898 -0.718317 0
M  V30 7518 H 711.186 -2.28284 -3.14354 0
M  V30 7519 H 712.858 -4.3463 -1.54577 0
M  V30 7520 H 711.101 -4.10994 -1.38804 0
M  V30 7521 H 711.772 -4.68649 -2.91671 0
M  V30 7522 H 714.248 -2.76893 -3.10595 0
M  V30 7523 H 713.124 -3.30916 -4.37934 0
M  V30 7524 H 713.385 -1.59085 -4.12486 0
M  V30 7525 N 712.444 0.87505 -1.31075 0
M  V30 7526 C 713.376 1.98773 -1.14114 0
M  V30 7527 C 714.389 1.62595 -0.0816119 0
M  V30 7528 O 715.578 1.75449 -0.32861 0
M  V30 7529 C 712.678 3.31159 -0.720224 0
M  V30 7530 C 711.851 3.9571 -1.86366 0
M  V30 7531 C 710.91 5.06407 -1.42965 0
M  V30 7532 O 709.936 5.27501 -2.13848 0
M  V30 7533 N 711.138 5.79649 -0.314194 0
M  V30 7534 H 713.903 2.1387 -2.09951 0
M  V30 7535 H 711.464 1.04873 -1.23342 0
M  V30 7536 H 713.456 4.0259 -0.412687 0
M  V30 7537 H 712.026 3.12257 0.146396 0
M  V30 7538 H 711.246 3.17324 -2.33879 0
M  V30 7539 H 712.534 4.35576 -2.62966 0
M  V30 7540 H 711.932 5.65025 0.276228 0
M  V30 7541 H 710.489 6.51766 -0.0661641 0
M  V30 7542 N 713.922 1.13953 1.08869 0
M  V30 7543 C 715.333 0.916649 1.62648 0
M  V30 7544 C 715.684 -0.545589 1.88462 0
M  V30 7545 O 714.809 -1.41351 1.63856 0
M  V30 7546 C 715.404 1.65751 2.95486 0
M  V30 7547 C 713.963 1.48034 3.46068 0
M  V30 7548 C 713.11 1.68305 2.20383 0
M  V30 7549 H 716.061 1.292 0.921572 0
M  V30 7550 H 716.082 1.11794 3.63707 0
M  V30 7551 H 715.594 2.72171 2.76667 0
M  V30 7552 H 713.695 0.439416 3.7 0
M  V30 7553 H 713.808 2.24719 4.23129 0
M  V30 7554 H 712.172 1.10833 2.29321 0
M  V30 7555 H 712.955 2.76057 2.04077 0
M  V30 7556 N 715.4 -1.26948 0.933913 0
M  V30 7557 C 716.647 -1.94087 0.577625 0
M  V30 7558 C 716.975 -1.73345 -0.88214 0
M  V30 7559 O 716.23 -1.05945 -1.64542 0
M  V30 7560 C 716.529 -3.46963 0.857406 0
M  V30 7561 C 716.195 -3.87834 2.2999 0
M  V30 7562 C 714.857 -3.98704 2.69423 0
M  V30 7563 C 717.209 -4.08442 3.23766 0
M  V30 7564 C 714.537 -4.27573 4.01744 0
M  V30 7565 C 716.889 -4.38798 4.55675 0
M  V30 7566 C 715.553 -4.47881 4.94934 0
M  V30 7567 H 714.823 -0.710215 0.211368 0
M  V30 7568 H 717.47 -1.50899 1.17905 0
M  V30 7569 H 715.775 -3.91416 0.173369 0
M  V30 7570 H 717.472 -3.97062 0.560615 0
M  V30 7571 H 714.062 -3.79916 1.98399 0
M  V30 7572 H 718.246 -3.99479 2.94499 0
M  V30 7573 H 713.502 -4.32815 4.31834 0
M  V30 7574 H 717.676 -4.5369 5.28335 0
M  V30 7575 H 715.303 -4.70005 5.97495 0
M  V30 7576 N 716.879 -0.700114 -1.41195 0
M  V30 7577 C 718.127 -0.232546 -2.00758 0
M  V30 7578 C 718.448 1.1734 -1.55745 0
M  V30 7579 O 717.718 1.79262 -0.790058 0
M  V30 7580 H 716.298 -0.0829845 -0.742376 0
M  V30 7581 H 718.96 -0.902289 -1.72756 0
M  V30 7582 H 718.056 -0.253521 -3.11069 0
M  V30 7583 N 718.357 1.51182 -0.445186 0
M  V30 7584 C 719.605 2.01753 0.11841 0
M  V30 7585 C 719.926 1.33087 1.42523 0
M  V30 7586 O 719.196 0.467891 1.9023 0
M  V30 7587 H 717.776 0.745536 0.0467492 0
M  V30 7588 H 720.438 1.85765 -0.589688 0
M  V30 7589 H 719.534 3.10762 0.288665 0
M  V30 7590 N 719.835 0.176821 1.56605 0
M  V30 7591 C 721.082 -0.466715 1.97048 0
M  V30 7592 C 721.41 -1.6288 1.06302 0
M  V30 7593 O 720.665 -1.95453 0.0982571 0
M  V30 7594 C 720.964 -0.986208 3.43524 0
M  V30 7595 C 720.63 0.0605667 4.50859 0
M  V30 7596 C 719.292 0.348242 4.79938 0
M  V30 7597 C 721.644 0.770794 5.15469 0
M  V30 7598 C 718.972 1.35144 5.70923 0
M  V30 7599 C 721.324 1.76301 6.07537 0
M  V30 7600 C 719.988 2.05808 6.3498 0
M  V30 7601 H 719.258 -0.170783 0.721051 0
M  V30 7602 H 721.905 0.269942 1.89588 0
M  V30 7603 H 720.21 -1.80079 3.47964 0
M  V30 7604 H 721.907 -1.49323 3.72161 0
M  V30 7605 H 718.497 -0.173823 4.28247 0
M  V30 7606 H 722.681 0.56176 4.9311 0
M  V30 7607 H 717.937 1.58616 5.90467 0
M  V30 7608 H 722.111 2.31868 6.56666 0
M  V30 7609 H 719.738 2.8369 7.05283 0
M  V30 7610 N 721.313 -1.57302 -0.09688 0
M  V30 7611 C 722.26 -2.01933 -1.11766 0
M  V30 7612 C 723.23 -0.895329 -1.39904 0
M  V30 7613 O 724.415 -1.16119 -1.51397 0
M  V30 7614 C 721.555 -2.44726 -2.43317 0
M  V30 7615 C 720.668 -3.70639 -2.21925 0
M  V30 7616 C 719.803 -4.02318 -3.46862 0
M  V30 7617 C 718.842 -5.21346 -3.20725 0
M  V30 7618 N 717.979 -5.48787 -4.37924 0
M  V30 7619 H 722.819 -2.88919 -0.730075 0
M  V30 7620 H 720.356 -1.42901 -0.348962 0
M  V30 7621 H 722.314 -2.6758 -3.20088 0
M  V30 7622 H 720.944 -1.60753 -2.79926 0
M  V30 7623 H 719.996 -3.55271 -1.35965 0
M  V30 7624 H 721.308 -4.57557 -1.98603 0
M  V30 7625 H 720.462 -4.25939 -4.32042 0
M  V30 7626 H 719.201 -3.13918 -3.73238 0
M  V30 7627 H 718.206 -4.97547 -2.33938 0
M  V30 7628 H 719.431 -6.11343 -2.95697 0
M  V30 7629 H 717.377 -4.63346 -4.64378 0
M  V30 7630 H 717.294 -6.30073 -4.17785 0
M  V30 7631 H 718.562 -5.76943 -5.24173 0
M  V30 7632 N 722.791 0.367657 -1.53252 0
M  V30 7633 C 723.721 1.45632 -1.8252 0
M  V30 7634 C 724.702 1.55979 -0.678568 0
M  V30 7635 O 725.887 1.70581 -0.928217 0
M  V30 7636 C 723.017 2.82994 -2.01325 0
M  V30 7637 C 721.971 2.87473 -3.17086 0
M  V30 7638 C 721.297 4.2749 -3.21179 0
M  V30 7639 C 722.597 2.55182 -4.55719 0
M  V30 7640 H 724.291 1.21387 -2.73689 0
M  V30 7641 H 721.837 0.58251 -1.31692 0
M  V30 7642 H 723.79 3.59179 -2.20383 0
M  V30 7643 H 722.514 3.08622 -1.06864 0
M  V30 7644 H 721.173 2.13739 -2.97844 0
M  V30 7645 H 720.821 4.5019 -2.24361 0
M  V30 7646 H 720.521 4.31403 -3.98955 0
M  V30 7647 H 722.045 5.0555 -3.42419 0
M  V30 7648 H 723.459 3.21081 -4.74953 0
M  V30 7649 H 721.856 2.70414 -5.3572 0
M  V30 7650 H 722.926 1.5044 -4.60973 0
M  V30 7651 N 724.269 1.44576 0.627338 0
M  V30 7652 C 725.494 1.51271 1.41887 0
M  V30 7653 C 725.919 0.139814 1.8758 0
M  V30 7654 O 725.277 -0.871746 1.58966 0
M  V30 7655 C 725.325 2.48529 2.61277 0
M  V30 7656 O 724.429 1.98944 3.61241 0
M  V30 7657 H 723.77 0.510668 0.424399 0
M  V30 7658 H 726.3 1.89746 0.765356 0
M  V30 7659 H 726.31 2.66689 3.08773 0
M  V30 7660 H 724.985 3.48249 2.27366 0
M  V30 7661 H 723.562 1.90568 3.20528 0
M  V30 7662 N 725.747 -0.868086 1.31537 0
M  V30 7663 C 726.995 -1.61807 1.21091 0
M  V30 7664 C 727.316 -1.93631 -0.230623 0
M  V30 7665 O 726.586 -1.5846 -1.15183 0
M  V30 7666 H 725.166 -0.599854 0.445178 0
M  V30 7667 H 727.828 -1.03915 1.64887 0
M  V30 7668 H 726.924 -2.56088 1.78396 0
M  V30 7669 N 727.225 -1.14528 -1.08264 0
M  V30 7670 C 728.453 -0.937964 -1.84418 0
M  V30 7671 C 728.868 0.51357 -1.81681 0
M  V30 7672 O 728.225 1.35591 -1.22153 0
M  V30 7673 C 728.276 -1.43272 -3.31897 0
M  V30 7674 O 727.997 -2.82738 -3.34651 0
M  V30 7675 C 729.498 -1.26555 -4.24851 0
M  V30 7676 H 726.718 -0.333704 -0.582136 0
M  V30 7677 H 729.262 -1.52076 -1.36723 0
M  V30 7678 H 727.417 -0.892653 -3.76975 0
M  V30 7679 H 727.831 -3.04971 -4.26724 0
M  V30 7680 H 729.305 -1.66031 -5.26439 0
M  V30 7681 H 729.782 -0.208589 -4.38704 0
M  V30 7682 H 730.388 -1.79423 -3.856 0
M  V30 7683 N 728.703 1.26451 -0.940633 0
M  V30 7684 C 729.651 2.28389 -0.440581 0
M  V30 7685 C 730.645 1.62402 0.481859 0
M  V30 7686 O 731.851 1.76361 0.360132 0
M  V30 7687 H 728.226 0.741716 -0.123938 0
M  V30 7688 H 730.197 2.67967 -1.31288 0
M  V30 7689 C 728.946 3.46576 0.279364 0
M  V30 7690 H 728.269 3.97574 -0.421274 0
M  V30 7691 H 729.709 4.19826 0.59348 0
M  V30 7692 C 728.168 3.01815 1.49697 0
M  V30 7693 O 728.698 3.06607 2.59529 0
M  V30 7694 N 726.904 2.57163 1.35334 0
M  V30 7695 H 726.451 2.53464 0.459743 0
M  V30 7696 H 726.409 2.27578 2.16923 0
M  V30 7697 N 730.181 0.707592 1.40822 0
M  V30 7698 C 731.144 0.0587224 2.29125 0
M  V30 7699 C 732.144 -0.695624 1.44975 0
M  V30 7700 O 733.334 -0.528718 1.65983 0
M  V30 7701 C 730.466 -0.926939 3.28056 0
M  V30 7702 H 731.659 0.836349 2.88002 0
M  V30 7703 H 729.212 0.471778 1.4901 0
M  V30 7704 H 729.947 -1.7319 2.74182 0
M  V30 7705 H 729.732 -0.389015 3.90165 0
M  V30 7706 H 731.222 -1.37837 3.94196 0
M  V30 7707 N 731.66 -1.50943 0.453197 0
M  V30 7708 C 732.607 -2.28128 -0.350197 0
M  V30 7709 C 733.577 -1.32398 -1.00299 0
M  V30 7710 O 734.762 -1.61319 -1.01887 0
M  V30 7711 C 731.902 -3.13782 -1.43649 0
M  V30 7712 C 731.015 -4.24523 -0.800255 0
M  V30 7713 C 730.15 -4.97462 -1.86293 0
M  V30 7714 C 729.189 -6.00102 -1.20598 0
M  V30 7715 N 728.326 -6.66387 -2.21071 0
M  V30 7716 H 733.166 -2.96337 0.31434 0
M  V30 7717 H 730.703 -1.46151 0.166863 0
M  V30 7718 H 732.661 -3.6178 -2.07776 0
M  V30 7719 H 731.291 -2.47655 -2.07044 0
M  V30 7720 H 730.343 -3.80371 -0.0468651 0
M  V30 7721 H 731.655 -4.98009 -0.280777 0
M  V30 7722 H 730.809 -5.49088 -2.58044 0
M  V30 7723 H 729.548 -4.23642 -2.41617 0
M  V30 7724 H 728.553 -5.47753 -0.474 0
M  V30 7725 H 729.778 -6.75887 -0.659859 0
M  V30 7726 H 727.724 -5.9537 -2.75446 0
M  V30 7727 H 727.641 -7.3569 -1.74058 0
M  V30 7728 H 728.909 -7.22638 -2.92257 0
M  V30 7729 N 733.138 -0.185124 -1.56509 0
M  V30 7730 C 734.366 0.462139 -2.01673 0
M  V30 7731 C 734.781 1.55873 -1.06532 0
M  V30 7732 O 734.138 1.82371 -0.0684805 0
M  V30 7733 C 734.189 1.0277 -3.46584 0
M  V30 7734 O 733.91 -0.0251296 -4.38093 0
M  V30 7735 C 735.411 1.75183 -4.07217 0
M  V30 7736 H 732.631 0.117001 -0.660721 0
M  V30 7737 H 735.175 -0.290905 -2.0242 0
M  V30 7738 H 733.33 1.73118 -3.46568 0
M  V30 7739 H 733.744 0.394387 -5.23015 0
M  V30 7740 H 735.218 2.09999 -5.10494 0
M  V30 7741 H 735.695 2.6519 -3.50101 0
M  V30 7742 H 736.301 1.09445 -4.10977 0
M  V30 7743 N 734.616 1.57351 0.0885366 0
M  V30 7744 C 735.864 1.86051 0.789262 0
M  V30 7745 C 736.185 0.774763 1.78948 0
M  V30 7746 O 735.455 -0.198324 1.94894 0
M  V30 7747 H 734.035 0.686508 0.294475 0
M  V30 7748 H 736.697 1.94779 0.0686055 0
M  V30 7749 H 735.793 2.83007 1.31581 0
M  V30 7750 N 736.094 -0.359525 1.53444 0
M  V30 7751 C 737.057 -1.42357 1.7963 0
M  V30 7752 C 738.057 -1.46319 0.666884 0
M  V30 7753 O 739.247 -1.46974 0.935113 0
M  V30 7754 C 736.379 -2.81425 1.92387 0
M  V30 7755 H 737.572 -1.20409 2.74666 0
M  V30 7756 H 735.125 -0.593007 1.44614 0
M  V30 7757 H 735.86 -3.08679 0.994384 0
M  V30 7758 H 735.645 -2.79947 2.74539 0
M  V30 7759 H 737.135 -3.5847 2.14218 0
M  V30 7760 N 737.572 -1.44907 -0.619662 0
M  V30 7761 C 738.502 -1.55488 -1.742 0
M  V30 7762 C 739.483 -0.407143 -1.65156 0
M  V30 7763 O 740.668 -0.628743 -1.8374 0
M  V30 7764 C 737.798 -1.5097 -3.1277 0
M  V30 7765 C 736.752 -2.64337 -3.36615 0
M  V30 7766 C 736.078 -2.44872 -4.75333 0
M  V30 7767 C 737.378 -4.06423 -3.28051 0
M  V30 7768 H 739.072 -2.49432 -1.65602 0
M  V30 7769 H 736.618 -1.20047 -0.795281 0
M  V30 7770 H 738.571 -1.56971 -3.91073 0
M  V30 7771 H 737.295 -0.535486 -3.2218 0
M  V30 7772 H 735.954 -2.57744 -2.60698 0
M  V30 7773 H 735.602 -1.45617 -4.81461 0
M  V30 7774 H 735.302 -3.20888 -4.92244 0
M  V30 7775 H 736.826 -2.52709 -5.55851 0
M  V30 7776 H 738.24 -4.14324 -3.96243 0
M  V30 7777 H 736.637 -4.82733 -3.56495 0
M  V30 7778 H 737.707 -4.29183 -2.25676 0
M  V30 7779 N 739.05 0.861098 -1.31996 0
M  V30 7780 C 740.327 1.59788 -1.12814 0
M  V30 7781 C 740.707 2.08753 0.313882 0
M  V30 7782 O 740.055 1.87258 1.30946 0
M  V30 7783 C 740.265 2.74901 -2.15012 0
M  V30 7784 C 741.613 3.44643 -2.48004 0
M  V30 7785 O 742.637 2.85119 -2.13508 0
M  V30 7786 O 741.496 4.52044 -3.07113 0
M  V30 7787 H 738.59 0.703408 -0.434909 0
M  V30 7788 H 741.136 0.905788 -1.43505 0
M  V30 7789 H 739.908 2.36198 -3.11971 0
M  V30 7790 H 739.531 3.51792 -1.85279 0
M  V30 7791 N 740.528 1.15101 1.07655 0
M  V30 7792 C 741.758 0.946357 1.83651 0
M  V30 7793 C 742.166 -0.508641 1.82235 0
M  V30 7794 O 741.509 -1.36445 1.22997 0
M  V30 7795 C 741.571 1.37945 3.31981 0
M  V30 7796 C 741.235 2.85155 3.57122 0
M  V30 7797 C 742.232 3.83234 3.51323 0
M  V30 7798 C 739.917 3.2275 3.84887 0
M  V30 7799 C 741.911 5.16914 3.72932 0
M  V30 7800 C 739.598 4.56604 4.06148 0
M  V30 7801 C 740.596 5.53495 4.00165 0
M  V30 7802 O 740.284 6.84931 4.20861 0
M  V30 7803 H 740.016 0.336368 0.586372 0
M  V30 7804 H 742.57 1.53198 1.36819 0
M  V30 7805 H 740.8 0.737205 3.79608 0
M  V30 7806 H 742.489 1.14439 3.89434 0
M  V30 7807 H 743.255 3.55535 3.29878 0
M  V30 7808 H 739.134 2.47921 3.88659 0
M  V30 7809 H 742.678 5.92529 3.68178 0
M  V30 7810 H 738.575 4.84019 4.27078 0
M  V30 7811 H 739.343 6.91304 4.38226 0
M  V30 7812 N 742.006 -1.2595 0.947325 0
M  V30 7813 C 742.936 -2.28521 0.479604 0
M  V30 7814 C 743.917 -1.63469 -0.470293 0
M  V30 7815 O 745.102 -1.90627 -0.370824 0
M  V30 7816 C 742.232 -3.46397 -0.250289 0
M  V30 7817 C 741.186 -4.23578 0.613643 0
M  V30 7818 C 740.512 -5.34131 -0.246568 0
M  V30 7819 C 741.812 -4.86979 1.88809 0
M  V30 7820 H 743.506 -2.67895 1.33688 0
M  V30 7821 H 741.052 -1.28783 0.644274 0
M  V30 7822 H 743.005 -4.17269 -0.588576 0
M  V30 7823 H 741.729 -3.05993 -1.14175 0
M  V30 7824 H 740.388 -3.54478 0.93491 0
M  V30 7825 H 740.036 -4.89968 -1.13756 0
M  V30 7826 H 739.736 -5.86683 0.328123 0
M  V30 7827 H 741.26 -6.07839 -0.579986 0
M  V30 7828 H 742.674 -5.50034 1.61666 0
M  V30 7829 H 741.071 -5.49675 2.40784 0
M  V30 7830 H 742.141 -4.09575 2.5957 0
M  V30 7831 N 743.484 -0.715051 -1.40445 0
M  V30 7832 C 744.9 -0.388555 -1.54798 0
M  V30 7833 C 745.1 1.10271 -1.68649 0
M  V30 7834 O 744.156 1.88875 -1.67578 0
M  V30 7835 C 745.469 -1.15414 -2.77669 0
M  V30 7836 C 747.017 -1.14039 -2.91486 0
M  V30 7837 C 747.492 -1.88812 -4.1727 0
M  V30 7838 N 748.983 -1.85878 -4.24268 0
M  V30 7839 C 749.718 -2.40558 -5.20499 0
M  V30 7840 N 749.214 -3.03791 -6.22642 0
M  V30 7841 N 751.007 -2.30703 -5.12574 0
M  V30 7842 H 743.158 -1.68201 -1.297 0
M  V30 7843 H 745.421 -0.710915 -0.627139 0
M  V30 7844 H 745.127 -2.20853 -2.7371 0
M  V30 7845 H 745.001 -0.745412 -3.69761 0
M  V30 7846 H 747.388 -0.0941996 -2.9495 0
M  V30 7847 H 747.469 -1.58834 -2.00513 0
M  V30 7848 H 747.113 -2.93422 -4.14568 0
M  V30 7849 H 747.043 -1.41438 -5.0725 0
M  V30 7850 H 749.534 -1.39794 -3.51093 0
M  V30 7851 H 749.847 -3.43032 -6.92495 0
M  V30 7852 H 748.192 -3.07875 -6.23087 0
M  V30 7853 H 751.383 -1.80961 -4.31707 0
M  V30 7854 H 751.556 -2.73618 -5.87398 0
M  V30 7855 N 744.962 1.50701 -0.461195 0
M  V30 7856 C 745.892 2.31182 0.328184 0
M  V30 7857 C 746.873 1.37644 0.999408 0
M  V30 7858 O 748.058 1.66565 0.99848 0
M  V30 7859 C 745.188 3.17113 1.41621 0
M  V30 7860 C 744.142 4.19124 0.867148 0
M  V30 7861 C 743.468 4.93728 2.05272 0
M  V30 7862 C 744.768 5.22174 -0.114808 0
M  V30 7863 H 746.462 2.97423 -0.343501 0
M  V30 7864 H 744.008 1.43033 -0.166641 0
M  V30 7865 H 745.961 3.72208 1.97584 0
M  V30 7866 H 744.685 2.48739 2.11652 0
M  V30 7867 H 743.344 3.65116 0.329557 0
M  V30 7868 H 742.992 4.21835 2.73978 0
M  V30 7869 H 742.692 5.62724 1.69161 0
M  V30 7870 H 744.216 5.51654 2.61744 0
M  V30 7871 H 745.63 5.72198 0.355316 0
M  V30 7872 H 744.027 5.98833 -0.389689 0
M  V30 7873 H 745.097 4.7353 -1.04391 0
M  V30 7874 N 746.441 0.193421 1.56409 0
M  V30 7875 C 747.688 -0.445789 1.97532 0
M  V30 7876 C 748.016 -1.61744 1.08024 0
M  V30 7877 O 747.271 -1.95338 0.118982 0
M  V30 7878 C 747.57 -0.949718 3.44551 0
M  V30 7879 C 747.236 0.108383 4.5077 0
M  V30 7880 C 745.898 0.399126 4.79542 0
M  V30 7881 C 748.25 0.825423 5.14622 0
M  V30 7882 C 745.578 1.41192 5.69457 0
M  V30 7883 C 747.93 1.82735 6.05632 0
M  V30 7884 C 746.594 2.12531 6.32761 0
M  V30 7885 H 745.864 -0.163126 0.722822 0
M  V30 7886 H 748.511 0.290035 1.89291 0
M  V30 7887 H 746.816 -1.76378 3.49854 0
M  V30 7888 H 748.513 -1.45367 3.73724 0
M  V30 7889 H 745.103 -0.128392 4.28408 0
M  V30 7890 H 749.287 0.61403 4.92487 0
M  V30 7891 H 744.543 1.6487 5.88751 0
M  V30 7892 H 748.717 2.3882 6.5417 0
M  V30 7893 H 746.344 2.91155 7.02234 0
M  V30 7894 N 747.919 -1.57396 -0.0801906 0
M  V30 7895 C 748.849 -2.06145 -1.09665 0
M  V30 7896 C 749.83 -0.953273 -1.40878 0
M  V30 7897 O 751.015 -1.22548 -1.50651 0
M  V30 7898 C 748.145 -2.49836 -2.41245 0
M  V30 7899 C 747.099 -3.64454 -2.24405 0
M  V30 7900 C 746.425 -3.94172 -3.61293 0
M  V30 7901 C 747.725 -4.94807 -1.67223 0
M  V30 7902 H 749.419 -2.91316 -0.691028 0
M  V30 7903 H 746.965 -1.40145 -0.330957 0
M  V30 7904 H 748.918 -2.82552 -3.12638 0
M  V30 7905 H 747.642 -1.61683 -2.83771 0
M  V30 7906 H 746.301 -3.32008 -1.55454 0
M  V30 7907 H 745.949 -3.03163 -4.01374 0
M  V30 7908 H 745.649 -4.71345 -3.50867 0
M  V30 7909 H 747.173 -4.29376 -4.3413 0
M  V30 7910 H 748.587 -5.25807 -2.28472 0
M  V30 7911 H 746.984 -5.76245 -1.67515 0
M  V30 7912 H 748.054 -4.80751 -0.632944 0
M  V30 7913 N 749.397 0.351382 -1.53633 0
M  V30 7914 C 750.307 1.45471 -1.84052 0
M  V30 7915 C 751.323 1.57945 -0.730015 0
M  V30 7916 O 752.499 1.73571 -1.02153 0
M  V30 7917 C 749.564 2.80562 -2.03681 0
M  V30 7918 C 748.625 2.77497 -3.27558 0
M  V30 7919 C 747.858 4.06144 -3.46241 0
M  V30 7920 O 748.081 5.03028 -2.68922 0
M  V30 7921 O 747.015 4.11092 -4.39645 0
M  V30 7922 H 750.841 1.22684 -2.77817 0
M  V30 7923 H 748.426 0.542827 -1.3919 0
M  V30 7924 H 750.308 3.6058 -2.18082 0
M  V30 7925 H 748.983 3.03296 -1.13106 0
M  V30 7926 H 747.89 1.96126 -3.18568 0
M  V30 7927 H 749.223 2.59716 -4.18101 0
M  V30 7928 N 750.875 1.45233 0.611969 0
M  V30 7929 C 751.808 1.48056 1.73651 0
M  V30 7930 C 752.786 0.337373 1.59061 0
M  V30 7931 O 753.97 0.537222 1.80683 0
M  V30 7932 C 751.097 1.33144 3.11433 0
M  V30 7933 C 750.143 2.51272 3.44623 0
M  V30 7934 S 750.976 4.13754 3.39953 0
M  V30 7935 C 752.132 4.013 4.80322 0
M  V30 7936 H 752.365 2.43205 1.70993 0
M  V30 7937 H 749.898 1.32763 0.788246 0
M  V30 7938 H 751.856 1.25228 3.90932 0
M  V30 7939 H 750.517 0.394734 3.1161 0
M  V30 7940 H 749.71 2.36753 4.44932 0
M  V30 7941 H 749.312 2.56027 2.72629 0
M  V30 7942 H 751.604 3.66174 5.7002 0
M  V30 7943 H 752.547 5.01506 4.99897 0
M  V30 7944 H 752.955 3.3303 4.55797 0
M  V30 7945 N 752.353 -0.854086 1.3245 0
M  V30 7946 C 753.3 -1.96271 1.21434 0
M  V30 7947 C 754.27 -1.6582 0.0963851 0
M  V30 7948 O 755.455 -1.88851 0.27203 0
M  V30 7949 C 752.595 -3.31939 0.943952 0
M  V30 7950 C 751.708 -3.74885 2.14675 0
M  V30 7951 C 750.843 -4.99347 1.81179 0
M  V30 7952 C 749.882 -5.34785 2.97777 0
M  V30 7953 N 749.019 -6.50425 2.6437 0
M  V30 7954 H 753.859 -2.05025 2.16261 0
M  V30 7955 H 751.396 -1.00348 1.07558 0
M  V30 7956 H 753.354 -4.10076 0.767675 0
M  V30 7957 H 751.984 -3.22784 0.0324763 0
M  V30 7958 H 751.036 -2.92396 2.43328 0
M  V30 7959 H 752.348 -3.97068 3.01891 0
M  V30 7960 H 751.502 -5.85193 1.60107 0
M  V30 7961 H 750.241 -4.79101 0.911777 0
M  V30 7962 H 749.246 -4.47451 3.1948 0
M  V30 7963 H 750.471 -5.56988 3.88511 0
M  V30 7964 H 748.417 -6.31695 1.7691 0
M  V30 7965 H 748.334 -6.7263 3.45116 0
M  V30 7966 H 749.602 -7.39422 2.46729 0
M  V30 7967 N 753.831 -1.1567 -1.07043 0
M  V30 7968 C 754.794 -0.858906 -2.12498 0
M  V30 7969 C 755.794 0.142735 -1.60165 0
M  V30 7970 O 756.984 -0.0872678 -1.73981 0
M  V30 7971 C 754.116 -0.283021 -3.39723 0
M  V30 7972 H 755.309 -1.79368 -2.40348 0
M  V30 7973 H 752.862 -0.964608 -1.22984 0
M  V30 7974 H 753.597 0.659796 -3.17517 0
M  V30 7975 H 753.382 -1.00467 -3.7901 0
M  V30 7976 H 754.872 -0.0923543 -4.17498 0
M  V30 7977 N 755.309 1.25446 -0.953992 0
M  V30 7978 C 756.555 1.9343 -0.60933 0
M  V30 7979 C 756.888 1.74542 0.851388 0
M  V30 7980 O 756.163 1.09014 1.61078 0
M  V30 7981 C 756.446 3.46844 -0.968041 0
M  V30 7982 C 756.299 3.74961 -2.48444 0
M  V30 7983 C 757.618 4.37334 -0.492641 0
M  V30 7984 H 754.737 0.702502 -0.222844 0
M  V30 7985 H 757.379 1.48076 -1.19053 0
M  V30 7986 H 755.529 3.85604 -0.473465 0
M  V30 7987 H 757.201 3.45841 -3.05273 0
M  V30 7988 H 755.444 3.20589 -2.92241 0
M  V30 7989 H 756.115 4.82246 -2.68594 0
M  V30 7990 H 758.591 4.05873 -0.916878 0
M  V30 7991 H 757.467 5.43439 -0.772331 0
M  V30 7992 H 757.728 4.37908 0.607403 0
M  V30 7993 N 756.787 0.722489 1.40064 0
M  V30 7994 C 757.75 0.0830209 2.2905 0
M  V30 7995 C 758.75 -0.680208 1.45705 0
M  V30 7996 O 759.94 -0.511084 1.66534 0
M  V30 7997 C 757.072 -0.892092 3.29021 0
M  V30 7998 H 758.265 0.866848 2.87099 0
M  V30 7999 H 755.818 0.487556 1.48501 0
M  V30 8000 H 756.553 -1.70273 2.76003 0
M  V30 8001 H 756.338 -0.34761 3.90556 0
M  V30 8002 H 757.828 -1.33648 3.95636 0
M  V30 8003 N 758.265 -1.50454 0.469181 0
M  V30 8004 C 759.175 -2.32248 -0.331349 0
M  V30 8005 C 760.191 -1.42548 -0.997807 0
M  V30 8006 O 761.367 -1.75602 -0.9862 0
M  V30 8007 C 758.432 -3.17171 -1.40012 0
M  V30 8008 C 757.493 -4.2269 -0.750463 0
M  V30 8009 C 756.726 -5.03554 -1.76831 0
M  V30 8010 O 756.949 -4.85469 -2.99459 0
M  V30 8011 O 755.883 -5.86767 -1.3412 0
M  V30 8012 H 759.709 -3.01821 0.337279 0
M  V30 8013 H 757.294 -1.47602 0.231066 0
M  V30 8014 H 759.176 -3.69871 -2.01924 0
M  V30 8015 H 757.851 -2.50328 -2.05226 0
M  V30 8016 H 756.758 -3.73986 -0.0924446 0
M  V30 8017 H 758.091 -4.91997 -0.14131 0
M  V30 8018 N 759.743 -0.201713 -1.56304 0
M  V30 8019 C 761.159 0.154025 -1.58855 0
M  V30 8020 C 761.359 1.60516 -1.21807 0
M  V30 8021 O 760.415 2.34193 -0.94393 0
M  V30 8022 C 761.728 -0.154319 -3.00304 0
M  V30 8023 C 763.276 -0.0949578 -3.12856 0
M  V30 8024 C 763.751 -0.376703 -4.56448 0
M  V30 8025 N 765.242 -0.325558 -4.62054 0
M  V30 8026 C 765.977 -0.51732 -5.71062 0
M  V30 8027 N 765.473 -0.769789 -6.8851 0
M  V30 8028 N 767.266 -0.45112 -5.60287 0
M  V30 8029 H 759.417 -1.14858 -1.78666 0
M  V30 8030 H 761.68 -0.458934 -0.829508 0
M  V30 8031 H 761.386 -1.16074 -3.31994 0
M  V30 8032 H 761.26 0.540014 -3.73314 0
M  V30 8033 H 763.647 0.902075 -2.80974 0
M  V30 8034 H 763.728 -0.822468 -2.42217 0
M  V30 8035 H 763.372 -1.37108 -4.89044 0
M  V30 8036 H 763.302 0.371772 -5.25286 0
M  V30 8037 H 765.793 -0.137308 -3.7765 0
M  V30 8038 H 766.106 -0.904744 -7.67486 0
M  V30 8039 H 764.451 -0.806758 -6.90302 0
M  V30 8040 H 767.642 -0.254253 -4.67409 0
M  V30 8041 H 767.815 -0.603982 -6.45179 0
M  V30 8042 N 761.222 1.57436 0.0718424 0
M  V30 8043 C 762.469 1.87248 0.771007 0
M  V30 8044 C 762.797 0.793441 1.7758 0
M  V30 8045 O 762.052 -0.210565 1.94564 0
M  V30 8046 C 762.351 3.23723 1.51455 0
M  V30 8047 C 762.017 4.46194 0.649736 0
M  V30 8048 C 760.679 4.79438 0.411409 0
M  V30 8049 C 763.031 5.21176 0.05004 0
M  V30 8050 C 760.359 5.85077 -0.436096 0
M  V30 8051 C 762.711 6.27712 -0.784919 0
M  V30 8052 C 761.375 6.59457 -1.03312 0
M  V30 8053 H 760.645 0.685188 0.282132 0
M  V30 8054 H 763.292 1.91474 0.0317896 0
M  V30 8055 H 761.597 3.15287 2.32597 0
M  V30 8056 H 763.294 3.44023 2.06031 0
M  V30 8057 H 759.884 4.20175 0.84562 0
M  V30 8058 H 764.068 4.95806 0.221282 0
M  V30 8059 H 759.324 6.08071 -0.637136 0
M  V30 8060 H 763.498 6.84974 -1.25635 0
M  V30 8061 H 761.125 7.4114 -1.6916 0
M  V30 8062 O 762.739 -0.21545 1.60056 0
M  V30 8063 H 763.43 -0.856115 1.73754 0
M  V30 END ATOM
M  V30 BEGIN BOND
M  V30 END BOND
M  V30 END CTAB
M  END
$$$$
