drugbank_target|P49585 Choline-phosphate cytidylyltransferase A (DB00122; DB14006)
 OpenBabel12092119353D

  0  0  0     0  0            999 V3000
M  V30 BEGIN CTAB
M  V30 COUNTS 5807 5874 0 0 0
M  V30 BEGIN ATOM
M  V30 1 H -0.908 1.98254 -0.117106 0
M  V30 2 N 0 1.576 0 0
M  V30 3 C 0.933 2.03868 1.02534 0
M  V30 4 C 1.911 0.928543 1.3348 0
M  V30 5 O 3.095 1.19667 1.45644 0
M  V30 6 C 0.222 2.43627 2.35294 0
M  V30 7 C -0.732 3.65373 2.2001 0
M  V30 8 S 0.101 5.13292 1.52614 0
M  V30 9 C 1.257 5.56322 2.86805 0
M  V30 10 H 1.49 2.90518 0.631377 0
M  V30 11 H -0.977 1.52953 0.210867 0
M  V30 12 H 0.981 2.67203 3.11629 0
M  V30 13 H -0.358 1.57376 2.7183 0
M  V30 14 H -1.165 3.90944 3.18086 0
M  V30 15 H -1.563 3.418 1.51819 0
M  V30 16 H 0.729 5.58782 3.83104 0
M  V30 17 H 1.672 6.56266 2.65933 0
M  V30 18 H 2.08 4.83886 2.90714 0
M  V30 19 N 1.4781 -0.272755 1.55222 0
M  V30 20 C 2.7551 -1.02562 1.66555 0
M  V30 21 C 3.1351 -2.04282 0.532189 0
M  V30 22 O 2.4831 -2.23662 -0.467717 0
M  V30 23 C 2.6931 -1.6822 3.05782 0
M  V30 24 C 4.0411 -2.19373 3.63539 0
M  V30 25 O 5.0651 -1.78206 3.08417 0
M  V30 26 O 3.9241 -2.94883 4.60115 0
M  V30 27 H 1.0181 -0.475755 0.676451 0
M  V30 28 H 3.5641 -0.268593 1.67561 0
M  V30 29 H 2.3361 -0.945112 3.79715 0
M  V30 30 H 1.9591 -2.50609 3.08676 0
M  V30 31 N 2.9562 -1.48159 -0.537278 0
M  V30 32 C 3.9192 -1.61665 -1.62472 0
M  V30 33 C 4.9192 -0.490395 -1.5314 0
M  V30 34 O 6.1092 -0.755998 -1.5694 0
M  V30 35 C 3.2412 -1.57997 -3.02076 0
M  V30 36 H 4.4342 -2.58621 -1.51839 0
M  V30 37 H 1.9872 -1.36647 -0.758771 0
M  V30 38 H 2.7222 -0.624913 -3.18222 0
M  V30 39 H 2.5072 -2.39755 -3.10258 0
M  V30 40 H 3.9972 -1.70627 -3.81151 0
M  V30 41 N 4.4343 0.785586 -1.36625 0
M  V30 42 C 5.3663 1.90711 -1.2713 0
M  V30 43 C 6.3793 1.61688 -0.189986 0
M  V30 44 O 7.5683 1.72864 -0.445014 0
M  V30 45 C 4.6683 3.25611 -0.939713 0
M  V30 46 C 3.8413 3.82385 -2.12369 0
M  V30 47 C 2.9003 4.95732 -1.76456 0
M  V30 48 O 1.9263 5.12047 -2.48589 0
M  V30 49 N 3.1283 5.76258 -0.700492 0
M  V30 50 H 5.8933 1.99376 -2.23762 0
M  V30 51 H 3.4543 0.964041 -1.30069 0
M  V30 52 H 5.4463 3.98937 -0.680554 0
M  V30 53 H 4.0163 3.12538 -0.0624074 0
M  V30 54 H 3.2363 3.01001 -2.54543 0
M  V30 55 H 4.5243 4.17047 -2.9146 0
M  V30 56 H 3.9223 5.65609 -0.101624 0
M  V30 57 H 2.4793 6.4987 -0.501165 0
M  V30 58 N 5.9124 1.20967 1.01018 0
M  V30 59 C 7.1524 1.03511 1.76252 0
M  V30 60 C 7.5164 -0.42458 1.87247 0
M  V30 61 O 8.7174 -0.719508 2.58991 0
M  V30 62 C 6.9884 1.70726 3.13986 0
M  V30 63 S 8.5474 1.68458 4.05176 0
M  V30 64 H 5.3654 0.371037 0.606508 0
M  V30 65 H 7.9674 1.53628 1.20908 0
M  V30 66 H 6.6714 2.76128 3.03614 0
M  V30 67 H 6.2024 1.20767 3.74405 0
M  V30 68 H 8.2174 0.721987 4.90919 0
M  V30 69 N 7.3905 -1.2043 1.01659 0
M  V30 70 C 8.6155 -1.94318 0.724942 0
M  V30 71 C 9.0405 -1.74266 -0.708034 0
M  V30 72 O 8.3985 -1.03694 -1.48719 0
M  V30 73 C 8.4465 -3.44486 1.06591 0
M  V30 74 O 7.5505 -4.12017 0.177599 0
M  V30 75 H 6.8915 -0.60708 0.26898 0
M  V30 76 H 9.4215 -1.52861 1.35995 0
M  V30 77 H 9.4315 -3.95106 1.01762 0
M  V30 78 H 8.1065 -3.58404 2.10997 0
M  V30 79 H 6.6835 -3.71821 0.283421 0
M  V30 80 N 8.8686 -0.792821 -1.36206 0
M  V30 81 C 9.8316 -0.199459 -2.2833 0
M  V30 82 C 10.8316 0.605189 -1.48977 0
M  V30 83 O 12.0216 0.425685 -1.68919 0
M  V30 84 C 9.1536 0.723523 -3.33134 0
M  V30 85 H 10.3466 -1.01181 -2.82316 0
M  V30 86 H 7.8996 -0.562485 -1.45828 0
M  V30 87 H 8.6346 1.56008 -2.84309 0
M  V30 88 H 8.4196 0.148436 -3.91819 0
M  V30 89 H 9.9096 1.13344 -4.01924 0
M  V30 90 N 10.3467 1.47872 -0.545128 0
M  V30 91 C 11.2937 2.29849 0.2093 0
M  V30 92 C 12.2637 1.38313 0.919707 0
M  V30 93 O 13.4487 1.67277 0.917772 0
M  V30 94 C 10.5887 3.22019 1.24088 0
M  V30 95 C 9.7017 4.2864 0.537778 0
M  V30 96 C 8.8367 5.07973 1.5536 0
M  V30 97 C 7.8757 6.06381 0.8348 0
M  V30 98 N 7.0127 6.78717 1.79688 0
M  V30 99 H 11.8527 2.93845 -0.49591 0
M  V30 100 H 9.3897 1.44848 -0.256389 0
M  V30 101 H 11.3477 3.73868 1.85144 0
M  V30 102 H 9.9777 2.59914 1.91428 0
M  V30 103 H 9.0297 3.7994 -0.187046 0
M  V30 104 H 10.3417 4.98793 -0.0258907 0
M  V30 105 H 9.4957 5.63912 2.23803 0
M  V30 106 H 8.2347 4.37693 2.15118 0
M  V30 107 H 7.2397 5.49631 0.136388 0
M  V30 108 H 8.4647 6.78665 0.24313 0
M  V30 109 H 6.4107 6.11177 2.38326 0
M  V30 110 H 6.3277 7.44998 1.28505 0
M  V30 111 H 7.5957 7.39237 2.47282 0
M  V30 112 N 11.8248 0.280983 1.55075 0
M  V30 113 C 13.0708 -0.33461 2.00021 0
M  V30 114 C 13.4038 -1.55063 1.16915 0
M  V30 115 O 12.6788 -1.93006 0.240646 0
M  V30 116 C 12.9618 -0.711007 3.53011 0
M  V30 117 C 12.8148 0.512766 4.46868 0
M  V30 118 C 14.1338 -1.54522 4.12081 0
M  V30 119 H 11.2528 -0.120147 0.727141 0
M  V30 120 H 13.8948 0.389097 1.85973 0
M  V30 121 H 12.0448 -1.32761 3.65112 0
M  V30 122 H 13.7168 1.15131 4.46702 0
M  V30 123 H 11.9598 1.14975 4.18286 0
M  V30 124 H 12.6308 0.205556 5.51617 0
M  V30 125 H 15.1068 -1.02442 4.03293 0
M  V30 126 H 13.9828 -1.77739 5.19327 0
M  V30 127 H 14.2438 -2.52813 3.62682 0
M  V30 128 N 13.3029 -1.57598 0.00835791 0
M  V30 129 C 14.2509 -2.10078 -0.998508 0
M  V30 130 C 15.2449 -1.02262 -1.35051 0
M  V30 131 O 16.4509 -1.20719 -1.33518 0
M  V30 132 H 12.8259 -0.670903 -0.339696 0
M  V30 133 H 14.7969 -2.93648 -0.530398 0
M  V30 134 C 13.5459 -2.62615 -2.27879 0
M  V30 135 H 12.8689 -3.45213 -2.01662 0
M  V30 136 H 14.3089 -3.03004 -2.96588 0
M  V30 137 C 12.7679 -1.54407 -2.99433 0
M  V30 138 O 13.2979 -0.931812 -3.90743 0
M  V30 139 N 11.5039 -1.2695 -2.61404 0
M  V30 140 H 11.0509 -1.76924 -1.87232 0
M  V30 141 H 11.0089 -0.547704 -3.09593 0
M  V30 142 N 14.781 0.264519 -1.55364 0
M  V30 143 C 15.744 1.31046 -1.88042 0
M  V30 144 C 16.744 1.41943 -0.755569 0
M  V30 145 O 17.934 1.40947 -1.02369 0
M  V30 146 C 15.066 2.69067 -2.09323 0
M  V30 147 H 16.259 1.03297 -2.81549 0
M  V30 148 H 13.812 0.502989 -1.47986 0
M  V30 149 H 14.547 3.01982 -1.18226 0
M  V30 150 H 14.332 2.62542 -2.91229 0
M  V30 151 H 15.822 3.44623 -2.35848 0
M  V30 152 N 16.2591 1.48442 0.529413 0
M  V30 153 C 17.6751 1.34575 0.858004 0
M  V30 154 C 17.8751 0.3572 1.98309 0
M  V30 155 O 16.9311 -0.221379 2.51528 0
M  V30 156 C 18.2441 2.74617 1.22499 0
M  V30 157 C 19.7921 2.83109 1.33484 0
M  V30 158 C 20.2671 4.23854 1.73526 0
M  V30 159 N 21.7581 4.2653 1.80628 0
M  V30 160 C 22.4931 5.32372 2.12997 0
M  V30 161 N 21.9891 6.48491 2.43786 0
M  V30 162 N 23.7821 5.19766 2.14008 0
M  V30 163 H 15.9331 2.1133 -0.212925 0
M  V30 164 H 18.1961 0.947439 -0.0326199 0
M  V30 165 H 17.9021 3.4852 0.471905 0
M  V30 166 H 17.7761 3.08177 2.17501 0
M  V30 167 H 20.1631 2.09462 2.0787 0
M  V30 168 H 20.2441 2.53168 0.366027 0
M  V30 169 H 19.8881 4.98018 0.997013 0
M  V30 170 H 19.8181 4.5124 2.71459 0
M  V30 171 H 22.3091 3.42772 1.59108 0
M  V30 172 H 22.6221 7.24993 2.67592 0
M  V30 173 H 20.9671 6.51765 2.41304 0
M  V30 174 H 24.1581 4.28066 1.89412 0
M  V30 175 H 24.3311 6.02354 2.38902 0
M  V30 176 N 17.7372 -0.778329 1.37039 0
M  V30 177 C 18.6842 -1.89139 1.32269 0
M  V30 178 C 19.6542 -1.65017 0.189387 0
M  V30 179 O 20.8392 -1.87024 0.377693 0
M  V30 180 C 17.9792 -3.26112 1.12894 0
M  V30 181 C 17.0922 -3.62233 2.35396 0
M  V30 182 C 16.2272 -4.8838 2.08946 0
M  V30 183 C 15.2662 -5.17212 3.2735 0
M  V30 184 N 14.4032 -6.34546 3.00492 0
M  V30 185 H 19.2432 -1.92552 2.27437 0
M  V30 186 H 16.7802 -0.941473 1.13025 0
M  V30 187 H 18.7382 -4.05116 0.996835 0
M  V30 188 H 17.3682 -3.22091 0.213758 0
M  V30 189 H 16.4202 -2.78265 2.5937 0
M  V30 190 H 17.7322 -3.79481 3.23721 0
M  V30 191 H 16.8862 -5.75274 1.92729 0
M  V30 192 H 15.6252 -4.73222 1.17949 0
M  V30 193 H 14.6302 -4.28796 3.44113 0
M  V30 194 H 15.8552 -5.34283 4.19188 0
M  V30 195 H 13.8012 -6.20759 2.12118 0
M  V30 196 H 13.7182 -6.52179 3.82358 0
M  V30 197 H 14.9862 -7.24394 2.87879 0
M  V30 198 N 19.2153 -1.21501 -1.00376 0
M  V30 199 C 20.6313 -0.972629 -1.26539 0
M  V30 200 C 20.8313 0.340257 -1.98606 0
M  V30 201 O 19.8873 1.06561 -2.28913 0
M  V30 202 C 21.2003 -2.16404 -2.08781 0
M  V30 203 C 22.7483 -2.20643 -2.22004 0
M  V30 204 C 23.2233 -3.39306 -3.07629 0
M  V30 205 N 24.7143 -3.39401 -3.15217 0
M  V30 206 C 25.4493 -4.27867 -3.81729 0
M  V30 207 N 24.9453 -5.26533 -4.5026 0
M  V30 208 N 26.7383 -4.15672 -3.78382 0
M  V30 209 H 18.8893 -2.05929 -0.520281 0
M  V30 210 H 21.1523 -0.901803 -0.292328 0
M  V30 211 H 20.8583 -3.11554 -1.63178 0
M  V30 212 H 20.7323 -2.15567 -3.09533 0
M  V30 213 H 23.1193 -1.26048 -2.66825 0
M  V30 214 H 23.2003 -2.25523 -1.20718 0
M  V30 215 H 22.8443 -4.34195 -2.63509 0
M  V30 216 H 22.7743 -3.31665 -4.09031 0
M  V30 217 H 25.2653 -2.67997 -2.66432 0
M  V30 218 H 25.5783 -5.90337 -4.98721 0
M  V30 219 H 23.9233 -5.30457 -4.49044 0
M  V30 220 H 27.1143 -3.3785 -3.23998 0
M  V30 221 H 27.2873 -4.84825 -4.2994 0
M  V30 222 N 20.6934 1.19889 -1.02296 0
M  V30 223 C 22.1094 1.41462 -0.738954 0
M  V30 224 C 22.3094 1.89721 0.678846 0
M  V30 225 O 21.3654 2.07016 1.4457 0
M  V30 226 C 22.6784 2.43083 -1.77005 0
M  V30 227 C 24.2264 2.5684 -1.78892 0
M  V30 228 C 24.7014 3.61709 -2.80945 0
M  V30 229 N 26.1924 3.69199 -2.79725 0
M  V30 230 C 26.9274 4.50019 -3.55345 0
M  V30 231 N 26.4234 5.34592 -4.40662 0
M  V30 232 N 28.2164 4.44612 -3.43914 0
M  V30 233 H 20.3674 0.868827 -1.93817 0
M  V30 234 H 22.6304 0.44399 -0.837602 0
M  V30 235 H 22.3364 2.14636 -2.78612 0
M  V30 236 H 22.2104 3.4217 -1.58744 0
M  V30 237 H 24.5974 2.84614 -0.779674 0
M  V30 238 H 24.6784 1.57927 -2.01228 0
M  V30 239 H 24.3224 3.34678 -3.82038 0
M  V30 240 H 24.2524 4.60259 -2.5587 0
M  V30 241 H 26.7434 3.08794 -2.17842 0
M  V30 242 H 27.0564 5.93363 -4.95116 0
M  V30 243 H 25.4014 5.34073 -4.44737 0
M  V30 244 H 28.5924 3.7758 -2.76679 0
M  V30 245 H 28.7654 5.0736 -4.031 0
M  V30 246 N 22.1715 0.800033 1.35784 0
M  V30 247 C 23.1185 0.203848 2.29898 0
M  V30 248 C 24.0885 -0.658375 1.52495 0
M  V30 249 O 25.2735 -0.604832 1.8096 0
M  V30 250 C 22.4135 -0.64688 3.38983 0
M  V30 251 C 21.5265 0.235054 4.3136 0
M  V30 252 C 20.6615 -0.623054 5.27533 0
M  V30 253 C 19.7005 0.259682 6.11549 0
M  V30 254 N 18.8375 -0.558019 6.99879 0
M  V30 255 H 23.6775 1.01186 2.80295 0
M  V30 256 H 21.2145 0.51053 1.37957 0
M  V30 257 H 23.1725 -1.15521 4.00887 0
M  V30 258 H 21.8025 -1.42021 2.89879 0
M  V30 259 H 20.8545 0.861438 3.70518 0
M  V30 260 H 22.1665 0.914768 4.9034 0
M  V30 261 H 21.3205 -1.19678 5.94779 0
M  V30 262 H 20.0595 -1.33636 4.69034 0
M  V30 263 H 19.0645 0.845726 5.43256 0
M  V30 264 H 20.2895 0.970748 6.72126 0
M  V30 265 H 18.2355 -1.25542 6.43875 0
M  V30 266 H 18.1525 0.0637872 7.55973 0
M  V30 267 H 19.4205 -1.11523 7.71481 0
M  V30 268 N 23.6496 -1.47581 0.552962 0
M  V30 269 C 24.5596 -2.33743 -0.200353 0
M  V30 270 C 25.5756 -1.47928 -0.916151 0
M  V30 271 O 26.7516 -1.80865 -0.885993 0
M  V30 272 C 23.8166 -3.24536 -1.21973 0
M  V30 273 C 22.8776 -4.26238 -0.511819 0
M  V30 274 C 22.1106 -5.12693 -1.48263 0
M  V30 275 O 22.3336 -5.01525 -2.71714 0
M  V30 276 O 21.2676 -5.93375 -1.00945 0
M  V30 277 H 25.0936 -2.9945 0.506304 0
M  V30 278 H 22.6786 -1.46071 0.313622 0
M  V30 279 H 24.5606 -3.80631 -1.80827 0
M  V30 280 H 23.2356 -2.61462 -1.90839 0
M  V30 281 H 22.1426 -3.73914 0.117799 0
M  V30 282 H 23.4756 -4.92014 0.135308 0
M  V30 283 N 25.1277 -0.289203 -1.54924 0
M  V30 284 C 26.0907 0.579144 -2.21762 0
M  V30 285 C 27.0907 1.07047 -1.1999 0
M  V30 286 O 28.2807 0.968384 -1.44803 0
M  V30 287 C 25.4127 1.80055 -2.8947 0
M  V30 288 H 26.6057 -0.00464908 -2.999 0
M  V30 289 H 24.1587 -0.0399306 -1.56249 0
M  V30 290 H 24.8937 2.42449 -2.15381 0
M  V30 291 H 24.6787 1.45602 -3.64064 0
M  V30 292 H 26.1687 2.41773 -3.40493 0
M  V30 293 N 26.6058 1.57591 -0.0167156 0
M  V30 294 C 28.0168 1.79201 0.523834 0
M  V30 295 C 28.3678 0.925796 1.72984 0
M  V30 296 O 27.4928 0.132792 2.15992 0
M  V30 297 C 28.0878 3.25 0.957091 0
M  V30 298 C 26.6468 3.47648 1.44283 0
M  V30 299 C 25.7938 2.74374 0.401757 0
M  V30 300 H 28.7448 1.56831 -0.242816 0
M  V30 301 H 28.7658 3.34031 1.82219 0
M  V30 302 H 28.2778 3.88019 0.0791415 0
M  V30 303 H 26.3788 2.89866 2.34113 0
M  V30 304 H 26.4918 4.56352 1.45877 0
M  V30 305 H 24.8558 2.39485 0.867121 0
M  V30 306 H 25.6388 3.40102 -0.467513 0
M  V30 307 N 28.0839 -0.256276 1.55502 0
M  V30 308 C 29.3319 -0.983672 1.76545 0
M  V30 309 C 29.6529 -1.86206 0.578982 0
M  V30 310 O 28.9229 -1.91656 -0.405577 0
M  V30 311 H 27.5029 -0.366191 0.651086 0
M  V30 312 H 30.1649 -0.276479 1.92929 0
M  V30 313 H 29.2609 -1.61087 2.67315 0
M  V30 314 N 29.562 -1.4872 -0.521534 0
M  V30 315 C 30.973 -1.50607 -1.10337 0
M  V30 316 C 31.324 -0.280612 -1.94183 0
M  V30 317 O 30.449 0.611507 -2.0758 0
M  V30 318 C 31.044 -2.72903 -2.00772 0
M  V30 319 C 29.603 -2.77634 -2.54158 0
M  V30 320 C 28.75 -2.44241 -1.31307 0
M  V30 321 H 31.701 -1.55714 -0.306388 0
M  V30 322 H 31.722 -2.519 -2.85178 0
M  V30 323 H 31.234 -3.62077 -1.39721 0
M  V30 324 H 29.335 -1.92689 -3.18907 0
M  V30 325 H 29.448 -3.79283 -2.92714 0
M  V30 326 H 27.812 -1.95577 -1.63161 0
M  V30 327 H 28.595 -3.35666 -0.719943 0
M  V30 328 N 31.0401 0.771051 -1.3745 0
M  V30 329 C 31.9881 1.90574 -1.33358 0
M  V30 330 C 32.9821 1.67936 -0.22224 0
M  V30 331 O 34.1881 1.75717 -0.390304 0
M  V30 332 H 30.5631 0.626714 -0.415612 0
M  V30 333 H 32.5341 1.91142 -2.29144 0
M  V30 334 C 31.2831 3.27845 -1.15813 0
M  V30 335 H 30.6061 3.45842 -2.00583 0
M  V30 336 H 32.0461 4.07538 -1.17 0
M  V30 337 C 30.5051 3.36625 0.136165 0
M  V30 338 O 31.0351 3.85785 1.11949 0
M  V30 339 N 29.2411 2.89997 0.187099 0
M  V30 340 H 28.7881 2.50182 -0.613753 0
M  V30 341 H 28.7461 2.96252 1.05272 0
M  V30 342 N 32.5182 1.22032 0.997298 0
M  V30 343 C 33.7662 1.04016 1.73278 0
M  V30 344 C 34.0872 -0.426255 1.90284 0
M  V30 345 O 33.3572 -1.30694 1.45931 0
M  V30 346 H 31.9372 0.381897 0.642 0
M  V30 347 H 34.5992 1.5347 1.20137 0
M  V30 348 H 33.6952 1.51441 2.72896 0
M  V30 349 N 33.9963 -1.19345 1.0293 0
M  V30 350 C 34.9593 -2.20793 0.615069 0
M  V30 351 C 35.9593 -1.57553 -0.321533 0
M  V30 352 O 37.1493 -1.73862 -0.108483 0
M  V30 353 C 34.2813 -3.40754 -0.0999222 0
M  V30 354 H 35.4743 -2.58955 1.51269 0
M  V30 355 H 33.0273 -1.3303 0.820534 0
M  V30 356 H 33.7623 -3.0811 -1.01187 0
M  V30 357 H 33.5473 -3.87889 0.57309 0
M  V30 358 H 35.0373 -4.15898 -0.376645 0
M  V30 359 N 35.4744 -0.807222 -1.35358 0
M  V30 360 C 36.7024 -0.400377 -2.02989 0
M  V30 361 C 37.1174 0.988859 -1.60832 0
M  V30 362 O 36.4744 1.63729 -0.806175 0
M  V30 363 C 36.5254 -0.474867 -3.58368 0
M  V30 364 O 36.2464 -1.80933 -3.98992 0
M  V30 365 C 37.7474 -0.0609112 -4.43258 0
M  V30 366 H 34.9674 -0.162587 -0.651004 0
M  V30 367 H 37.5114 -1.09102 -1.72965 0
M  V30 368 H 35.6664 0.167534 -3.87038 0
M  V30 369 H 36.0804 -1.77256 -4.9364 0
M  V30 370 H 37.5544 -0.164145 -5.51756 0
M  V30 371 H 38.0314 0.993831 -4.27808 0
M  V30 372 H 38.6374 -0.676492 -4.19885 0
M  V30 373 N 36.9525 1.47285 -0.560781 0
M  V30 374 C 37.8625 2.33846 0.187954 0
M  V30 375 C 38.8785 1.48412 0.908293 0
M  V30 376 O 40.0545 1.81332 0.876388 0
M  V30 377 C 37.1195 3.25178 1.2025 0
M  V30 378 C 36.1805 4.26504 0.489208 0
M  V30 379 C 35.4135 5.13472 1.45542 0
M  V30 380 O 35.6365 5.02959 2.6905 0
M  V30 381 O 34.5705 5.93902 0.977963 0
M  V30 382 H 38.3965 2.99177 -0.522177 0
M  V30 383 H 35.9815 1.45903 -0.321364 0
M  V30 384 H 37.8635 3.81584 1.78805 0
M  V30 385 H 36.5385 2.6247 1.89449 0
M  V30 386 H 35.4455 3.73847 -0.137627 0
M  V30 387 H 36.7785 4.91935 -0.161399 0
M  V30 388 N 38.4306 0.297415 1.54768 0
M  V30 389 C 39.3406 -0.58983 2.27064 0
M  V30 390 C 40.3566 -1.15144 1.30453 0
M  V30 391 O 41.5326 -1.17699 1.63428 0
M  V30 392 C 38.5976 -1.74714 2.9946 0
M  V30 393 C 37.6586 -1.21997 4.11601 0
M  V30 394 C 36.8916 -2.32212 4.80535 0
M  V30 395 O 37.1146 -3.52036 4.48806 0
M  V30 396 O 36.0486 -1.99106 5.68014 0
M  V30 397 H 39.8746 -0.00348199 3.037 0
M  V30 398 H 37.4596 0.0640035 1.49263 0
M  V30 399 H 39.3416 -2.42147 3.44881 0
M  V30 400 H 38.0166 -2.32016 2.25722 0
M  V30 401 H 36.9236 -0.511458 3.70587 0
M  V30 402 H 38.2566 -0.692419 4.87305 0
M  V30 403 N 39.9087 -1.5758 0.0250728 0
M  V30 404 C 41.1857 -1.82917 -0.692873 0
M  V30 405 C 41.5657 -0.908137 -1.90568 0
M  V30 406 O 40.9137 0.0372298 -2.2847 0
M  V30 407 C 41.1237 -3.32034 -1.07492 0
M  V30 408 C 42.4717 -3.98406 -1.46826 0
M  V30 409 O 43.4957 -3.36505 -1.16801 0
M  V30 410 O 42.3547 -5.07497 -2.02754 0
M  V30 411 H 39.4487 -0.754079 -0.33955 0
M  V30 412 H 41.9947 -1.69619 0.0524456 0
M  V30 413 H 40.7667 -3.90728 -0.211552 0
M  V30 414 H 40.3897 -3.50424 -1.87854 0
M  V30 415 N 41.3868 0.248026 -1.55636 0
M  V30 416 C 42.6348 0.974295 -1.77065 0
M  V30 417 C 42.9558 1.85897 -0.588849 0
M  V30 418 O 42.2258 1.91868 0.395407 0
M  V30 419 H 40.8058 0.362733 -0.653019 0
M  V30 420 H 43.4678 0.266244 -1.93073 0
M  V30 421 H 42.5638 1.59667 -2.68166 0
M  V30 422 N 42.8649 1.48995 0.513639 0
M  V30 423 C 44.1109 1.58076 1.27042 0
M  V30 424 C 44.4439 0.261026 1.92438 0
M  V30 425 O 43.7189 -0.734393 1.80103 0
M  V30 426 C 44.0019 2.73091 2.34719 0
M  V30 427 C 43.8549 4.14821 1.73907 0
M  V30 428 C 45.1739 2.83796 3.36375 0
M  V30 429 H 42.2929 0.575391 0.460536 0
M  V30 430 H 44.9349 1.81232 0.570516 0
M  V30 431 H 43.0849 2.53479 2.94416 0
M  V30 432 H 44.7569 4.45917 1.18135 0
M  V30 433 H 42.9999 4.21058 1.0437 0
M  V30 434 H 43.6709 4.91147 2.51949 0
M  V30 435 H 46.1469 3.01611 2.86653 0
M  V30 436 H 45.0229 3.65971 4.09093 0
M  V30 437 H 45.2839 1.92624 3.9793 0
M  V30 438 N 44.343 -0.763751 1.37857 0
M  V30 439 C 45.754 -1.3405 1.29952 0
M  V30 440 C 46.105 -1.96138 -0.0492898 0
M  V30 441 O 45.23 -1.94372 -0.951239 0
M  V30 442 C 45.825 -2.43729 2.35333 0
M  V30 443 C 44.384 -2.97151 2.31037 0
M  V30 444 C 43.531 -1.70438 2.18738 0
M  V30 445 H 46.482 -0.563396 1.48363 0
M  V30 446 H 46.503 -3.23412 2.00462 0
M  V30 447 H 46.015 -1.9851 3.33489 0
M  V30 448 H 44.116 -3.46724 1.3643 0
M  V30 449 H 44.229 -3.52221 3.24772 0
M  V30 450 H 42.593 -1.93673 1.65418 0
M  V30 451 H 43.376 -1.27312 3.18821 0
M  V30 452 N 45.8211 -1.22559 -0.990812 0
M  V30 453 C 47.0461 -1.07862 -1.77145 0
M  V30 454 C 47.4711 0.366447 -1.84496 0
M  V30 455 O 46.8291 1.26478 -1.29896 0
M  V30 456 C 46.8771 -1.69686 -3.18181 0
M  V30 457 O 45.9811 -0.951946 -4.01263 0
M  V30 458 H 45.3221 -0.378712 -0.545411 0
M  V30 459 H 47.8521 -1.62399 -1.2445 0
M  V30 460 H 47.8621 -1.74496 -3.68802 0
M  V30 461 H 46.5371 -2.74841 -3.12146 0
M  V30 462 H 45.1141 -0.980011 -3.59792 0
M  V30 463 N 47.2992 1.18797 -1.03562 0
M  V30 464 C 48.2462 2.22253 -0.622259 0
M  V30 465 C 49.2162 1.61987 0.36736 0
M  V30 466 O 50.4012 1.88986 0.262492 0
M  V30 467 C 47.5412 3.45097 0.0138462 0
M  V30 468 C 46.6542 4.19722 -1.02263 0
M  V30 469 C 45.7892 5.30009 -0.355573 0
M  V30 470 C 44.8282 5.96399 -1.37749 0
M  V30 471 N 43.9652 6.98234 -0.735766 0
M  V30 472 H 48.8052 2.56968 -1.50903 0
M  V30 473 H 46.3422 1.26245 -0.755017 0
M  V30 474 H 48.3002 4.15279 0.399948 0
M  V30 475 H 46.9302 3.11018 0.864158 0
M  V30 476 H 45.9822 3.48418 -1.52673 0
M  V30 477 H 47.2942 4.65227 -1.79903 0
M  V30 478 H 46.4482 6.0664 0.0850095 0
M  V30 479 H 45.1872 4.85592 0.452967 0
M  V30 480 H 44.1922 5.18512 -1.82826 0
M  V30 481 H 45.4172 6.42899 -2.18764 0
M  V30 482 H 43.3632 6.55979 0.0525597 0
M  V30 483 H 43.2802 7.41965 -1.44995 0
M  V30 484 H 44.5482 7.78845 -0.31941 0
M  V30 485 N 48.7773 0.814389 1.34928 0
M  V30 486 C 50.0233 0.399013 1.98836 0
M  V30 487 C 50.3563 -1.03314 1.64438 0
M  V30 488 O 49.6313 -1.71811 0.911659 0
M  V30 489 C 49.9143 0.591629 3.55207 0
M  V30 490 C 49.7673 2.06928 3.99376 0
M  V30 491 C 51.0863 0.022199 4.40094 0
M  V30 492 H 48.2053 0.146451 0.722303 0
M  V30 493 H 50.8473 1.02537 1.59957 0
M  V30 494 H 48.9973 0.0584441 3.88456 0
M  V30 495 H 50.6693 2.66544 3.76499 0
M  V30 496 H 48.9123 2.56287 3.49999 0
M  V30 497 H 49.5833 2.1549 5.08201 0
M  V30 498 H 52.0593 0.477643 4.13349 0
M  V30 499 H 50.9353 0.186832 5.48582 0
M  V30 500 H 51.1963 -1.07215 4.28902 0
M  V30 501 N 50.2554 -1.46986 0.568584 0
M  V30 502 C 51.1874 -2.28233 -0.210337 0
M  V30 503 C 52.2004 -1.37682 -0.868767 0
M  V30 504 O 53.3894 -1.62406 -0.740705 0
M  V30 505 C 50.4894 -3.12293 -1.3163 0
M  V30 506 C 49.6624 -4.30878 -0.7525 0
M  V30 507 C 48.7214 -4.96445 -1.74439 0
M  V30 508 O 47.7474 -5.54482 -1.286 0
M  V30 509 N 48.9494 -4.92171 -3.07812 0
M  V30 510 H 51.7144 -2.95723 0.486648 0
M  V30 511 H 49.2754 -1.56742 0.405409 0
M  V30 512 H 51.2674 -3.53022 -1.97883 0
M  V30 513 H 49.8374 -2.46971 -1.91636 0
M  V30 514 H 49.0574 -3.94104 0.0871128 0
M  V30 515 H 50.3454 -5.07558 -0.35536 0
M  V30 516 H 49.7434 -4.46239 -3.47688 0
M  V30 517 H 48.3004 -5.36884 -3.69592 0
M  V30 518 N 51.7335 -0.305618 -1.54608 0
M  V30 519 C 53.1495 0.0476228 -1.59529 0
M  V30 520 C 53.3495 1.52025 -1.32252 0
M  V30 521 O 52.4055 2.27368 -1.09818 0
M  V30 522 C 53.7185 -0.354471 -2.98603 0
M  V30 523 C 55.2665 -0.303622 -3.11524 0
M  V30 524 C 55.7415 -0.680608 -4.52915 0
M  V30 525 N 57.2325 -0.63332 -4.5885 0
M  V30 526 C 57.9675 -0.897432 -5.66334 0
M  V30 527 N 57.4635 -1.22775 -6.81834 0
M  V30 528 N 59.2565 -0.824186 -5.56025 0
M  V30 529 H 51.4075 -1.2653 -1.70599 0
M  V30 530 H 53.6705 -0.513291 -0.797017 0
M  V30 531 H 53.3765 -1.3798 -3.23503 0
M  V30 532 H 53.2505 0.289568 -3.76087 0
M  V30 533 H 55.6375 0.712472 -2.8637 0
M  V30 534 H 55.7185 -0.982348 -2.36185 0
M  V30 535 H 55.3625 -1.69453 -4.78799 0
M  V30 536 H 55.2925 0.0202385 -5.26596 0
M  V30 537 H 57.7835 -0.389138 -3.75891 0
M  V30 538 H 58.0965 -1.41513 -7.59733 0
M  V30 539 H 56.4415 -1.26583 -6.83375 0
M  V30 540 H 59.6325 -0.565748 -4.64669 0
M  V30 541 H 59.8055 -1.03338 -6.39707 0
M  V30 542 N 53.2116 1.57565 -0.0334293 0
M  V30 543 C 54.4516 1.93844 0.648379 0
M  V30 544 C 54.8156 0.910387 1.69044 0
M  V30 545 O 56.0166 1.15952 2.42505 0
M  V30 546 C 54.2876 3.35017 1.24492 0
M  V30 547 S 55.8466 3.93229 1.94721 0
M  V30 548 H 52.6646 0.678231 0.213364 0
M  V30 549 H 55.2666 1.95254 -0.0981253 0
M  V30 550 H 53.9706 4.07652 0.474128 0
M  V30 551 H 53.5016 3.37061 2.02864 0
M  V30 552 H 55.5166 3.77014 3.22606 0
M  V30 553 N 54.6897 -0.239769 1.55765 0
M  V30 554 C 55.6527 -1.28038 1.90103 0
M  V30 555 C 56.6527 -1.40723 0.778055 0
M  V30 556 O 57.8427 -1.39301 1.04599 0
M  V30 557 C 54.9747 -2.65702 2.13577 0
M  V30 558 H 56.1677 -0.988048 2.83157 0
M  V30 559 H 53.7207 -0.479382 1.48767 0
M  V30 560 H 54.4557 -3.00063 1.23015 0
M  V30 561 H 54.2407 -2.57875 2.95369 0
M  V30 562 H 55.7307 -3.40828 2.41301 0
M  V30 563 N 56.1678 -1.49265 -0.50573 0
M  V30 564 C 57.4138 -1.58748 -1.26202 0
M  V30 565 C 57.7468 -0.271227 -1.92297 0
M  V30 566 O 57.0218 0.724831 -1.80489 0
M  V30 567 C 57.3048 -2.74332 -2.33268 0
M  V30 568 C 57.1578 -4.15737 -1.71705 0
M  V30 569 C 58.4768 -2.85576 -3.34865 0
M  V30 570 H 55.5958 -0.577826 -0.457478 0
M  V30 571 H 58.2378 -1.81532 -0.560897 0
M  V30 572 H 56.3878 -2.55036 -2.93068 0
M  V30 573 H 58.0598 -4.46537 -1.15769 0
M  V30 574 H 56.3028 -4.21605 -1.02135 0
M  V30 575 H 56.9738 -4.92477 -2.49341 0
M  V30 576 H 59.4498 -3.03127 -2.8505 0
M  V30 577 H 58.3258 -3.68135 -4.07146 0
M  V30 578 H 58.5868 -1.94732 -3.96903 0
M  V30 579 N 57.6459 0.756429 -1.3826 0
M  V30 580 C 58.8939 1.51248 -1.34047 0
M  V30 581 C 59.2149 1.94875 0.0698372 0
M  V30 582 O 58.4849 1.67436 1.01696 0
M  V30 583 H 57.0649 0.561018 -0.493222 0
M  V30 584 H 59.7269 0.899347 -1.7291 0
M  V30 585 H 58.8229 2.40472 -1.98947 0
M  V30 586 N 59.124 1.23083 0.984299 0
M  V30 587 C 60.054 1.03292 2.09411 0
M  V30 588 C 61.035 -0.048923 1.7003 0
M  V30 589 O 62.22 0.114967 1.93859 0
M  V30 590 C 59.35 0.619155 3.41736 0
M  V30 591 C 58.304 1.64791 3.95004 0
M  V30 592 C 57.63 1.0897 5.23478 0
M  V30 593 C 58.93 3.03999 4.24714 0
M  V30 594 H 60.624 1.96119 2.26225 0
M  V30 595 H 58.17 0.944344 1.08711 0
M  V30 596 H 60.123 0.467777 4.18796 0
M  V30 597 H 58.847 -0.344786 3.24775 0
M  V30 598 H 57.506 1.78721 3.20085 0
M  V30 599 H 57.154 0.11686 5.02864 0
M  V30 600 H 56.854 1.77704 5.60085 0
M  V30 601 H 58.378 0.950093 6.03163 0
M  V30 602 H 59.792 2.93393 4.92538 0
M  V30 603 H 58.189 3.69936 4.72512 0
M  V30 604 H 59.259 3.53285 3.32142 0
M  V30 605 N 60.6021 -1.18246 1.0419 0
M  V30 606 C 62.0181 -1.40269 0.761366 0
M  V30 607 C 62.2181 -1.90777 -0.648578 0
M  V30 608 O 61.2741 -2.0929 -1.41258 0
M  V30 609 C 62.5871 -2.40237 1.8085 0
M  V30 610 C 64.1351 -2.53961 1.82955 0
M  V30 611 C 64.6101 -3.57194 2.86664 0
M  V30 612 N 66.1011 -3.64702 2.85563 0
M  V30 613 C 66.8361 -4.44309 3.6246 0
M  V30 614 N 66.3321 -5.27514 4.49111 0
M  V30 615 N 68.1251 -4.39084 3.50944 0
M  V30 616 H 60.2761 -0.837882 1.95175 0
M  V30 617 H 62.5391 -0.430608 0.84456 0
M  V30 618 H 62.2451 -2.10176 2.81991 0
M  V30 619 H 62.1191 -3.39601 1.64168 0
M  V30 620 H 64.5061 -2.83338 0.824855 0
M  V30 621 H 64.5871 -1.54706 2.03715 0
M  V30 622 H 64.2311 -3.28558 3.87314 0
M  V30 623 H 64.1611 -4.5613 2.6316 0
M  V30 624 H 66.6521 -3.05289 2.22727 0
M  V30 625 H 66.9651 -5.85411 5.04493 0
M  V30 626 H 65.3101 -5.2693 4.53178 0
M  V30 627 H 68.5011 -3.7313 2.82651 0
M  V30 628 H 68.6741 -5.00883 4.11121 0
M  V30 629 N 62.0802 -0.821533 -1.34494 0
M  V30 630 C 63.0122 -0.199946 -2.28326 0
M  V30 631 C 64.0252 0.609377 -1.50965 0
M  V30 632 O 65.2142 0.439285 -1.7301 0
M  V30 633 C 62.3142 0.738431 -3.30757 0
M  V30 634 C 61.4872 -0.0277632 -4.37391 0
M  V30 635 C 60.5462 0.831332 -5.19591 0
M  V30 636 O 59.5722 0.276822 -5.68526 0
M  V30 637 N 60.7742 2.15132 -5.39165 0
M  V30 638 H 63.5392 -1.00609 -2.82308 0
M  V30 639 H 61.1002 -0.678366 -1.47003 0
M  V30 640 H 63.0922 1.31773 -3.82646 0
M  V30 641 H 61.6622 1.44533 -2.7718 0
M  V30 642 H 60.8822 -0.788359 -3.86236 0
M  V30 643 H 62.1702 -0.555251 -5.05761 0
M  V30 644 H 61.5682 2.62559 -5.01078 0
M  V30 645 H 60.1252 2.6795 -5.94177 0
M  V30 646 N 63.5583 1.46682 -0.576371 0
M  V30 647 C 64.9693 1.86112 -0.148091 0
M  V30 648 C 65.3203 1.48073 1.2872 0
M  V30 649 O 64.4453 0.892656 1.97131 0
M  V30 650 C 65.0403 3.37786 -0.261982 0
M  V30 651 C 63.5993 3.76235 0.111384 0
M  V30 652 C 62.7463 2.70713 -0.60083 0
M  V30 653 H 65.6973 1.37927 -0.78497 0
M  V30 654 H 65.7183 3.77007 0.514364 0
M  V30 655 H 65.2303 3.6544 -1.30671 0
M  V30 656 H 63.3313 3.54198 1.15649 0
M  V30 657 H 63.4443 4.78391 -0.26052 0
M  V30 658 H 61.8083 2.54666 -0.0417783 0
M  V30 659 H 62.5913 3.01208 -1.64708 0
M  V30 660 N 65.0364 0.313813 1.54444 0
M  V30 661 C 65.9994 -0.54379 2.22656 0
M  V30 662 C 66.9994 -1.05124 1.21678 0
M  V30 663 O 68.1894 -0.945225 1.46325 0
M  V30 664 C 65.3214 -1.75427 2.92298 0
M  V30 665 H 66.5144 0.0523599 2.99854 0
M  V30 666 H 64.0674 0.0647834 1.56166 0
M  V30 667 H 64.8024 -2.38991 2.19211 0
M  V30 668 H 64.5874 -1.39791 3.66334 0
M  V30 669 H 66.0774 -2.36325 3.44297 0
M  V30 670 N 66.5145 -1.57545 0.0417849 0
M  V30 671 C 67.9255 -1.80011 -0.495259 0
M  V30 672 C 68.2765 -0.953199 -1.71489 0
M  V30 673 O 67.4015 -0.167138 -2.15754 0
M  V30 674 C 67.9965 -3.26482 -0.905265 0
M  V30 675 C 66.5555 -3.499 -1.38734 0
M  V30 676 C 65.7025 -2.74979 -0.358056 0
M  V30 677 H 68.6535 -1.56425 0.267736 0
M  V30 678 H 68.6745 -3.36887 -1.76882 0
M  V30 679 H 68.1865 -3.88096 -0.017401 0
M  V30 680 H 66.2875 -2.93553 -2.29471 0
M  V30 681 H 66.4005 -4.58615 -1.38598 0
M  V30 682 H 64.7645 -2.40834 -0.828912 0
M  V30 683 H 65.5475 -3.39315 0.521561 0
M  V30 684 N 67.9926 0.231505 -1.5589 0
M  V30 685 C 69.2396 0.957352 -1.78441 0
M  V30 686 C 69.5676 1.84726 -0.60882 0
M  V30 687 O 68.8226 1.91416 0.40725 0
M  V30 688 C 69.1216 1.83577 -3.0665 0
M  V30 689 C 68.7876 1.09993 -4.37278 0
M  V30 690 C 67.4496 0.896629 -4.72773 0
M  V30 691 C 69.8016 0.579558 -5.17968 0
M  V30 692 C 67.1296 0.160896 -5.86479 0
M  V30 693 C 69.4816 -0.142783 -6.32439 0
M  V30 694 C 68.1456 -0.357427 -6.66542 0
M  V30 695 H 67.4156 0.35032 -0.65296 0
M  V30 696 H 70.0626 0.226259 -1.90159 0
M  V30 697 H 68.3676 2.63441 -2.90011 0
M  V30 698 H 70.0646 2.39934 -3.21298 0
M  V30 699 H 66.6546 1.26835 -4.09403 0
M  V30 700 H 70.8386 0.724125 -4.90989 0
M  V30 701 H 66.0946 -0.0157293 -6.11398 0
M  V30 702 H 70.2686 -0.553559 -6.94196 0
M  V30 703 H 67.8956 -0.929466 -7.54497 0
M  V30 704 N 69.4707 1.49531 0.497807 0
M  V30 705 C 70.6957 1.63159 1.28039 0
M  V30 706 C 71.1207 0.30418 1.85624 0
M  V30 707 O 70.4787 -0.728618 1.66015 0
M  V30 708 C 70.5267 2.70537 2.38416 0
M  V30 709 O 69.6307 2.29931 3.42353 0
M  V30 710 H 68.9717 0.546001 0.377861 0
M  V30 711 H 71.5017 1.9574 0.59558 0
M  V30 712 H 71.5117 2.92802 2.84132 0
M  V30 713 H 70.1867 3.6689 1.95869 0
M  V30 714 H 68.7637 2.18009 3.02533 0
M  V30 715 N 70.9488 -0.749086 1.3866 0
M  V30 716 C 72.2258 -1.4992 1.25632 0
M  V30 717 C 72.6058 -2.10633 -0.140317 0
M  V30 718 O 71.9538 -1.97437 -1.15025 0
M  V30 719 C 72.1638 -2.56195 2.36992 0
M  V30 720 C 73.5118 -3.22972 2.75634 0
M  V30 721 O 74.5358 -2.66502 2.36337 0
M  V30 722 O 73.3948 -4.25122 3.43415 0
M  V30 723 H 70.4888 -0.665067 0.491544 0
M  V30 724 H 73.0348 -0.784113 1.50498 0
M  V30 725 H 71.8068 -2.09612 3.30422 0
M  V30 726 H 71.4298 -3.35279 2.13714 0
M  V30 727 N 72.4269 -1.23603 -0.977757 0
M  V30 728 C 73.3369 -1.03632 -2.1047 0
M  V30 729 C 74.3529 0.0199435 -1.73989 0
M  V30 730 O 75.5289 -0.176076 -2.00629 0
M  V30 731 C 72.5939 -0.63276 -3.40877 0
M  V30 732 C 71.6549 -1.76437 -3.91367 0
M  V30 733 C 70.8879 -1.37997 -5.15551 0
M  V30 734 O 71.1109 -0.265357 -5.69782 0
M  V30 735 O 70.0449 -2.20201 -5.60174 0
M  V30 736 H 73.8709 -1.98086 -2.30208 0
M  V30 737 H 71.4559 -1.02332 -1.08851 0
M  V30 738 H 73.3379 -0.418761 -4.19314 0
M  V30 739 H 72.0129 0.282754 -3.22463 0
M  V30 740 H 70.9199 -2.03304 -3.14036 0
M  V30 741 H 72.2529 -2.6583 -4.14241 0
M  V30 742 N 73.905 1.17692 -1.04816 0
M  V30 743 C 75.154 1.87192 -0.751132 0
M  V30 744 C 75.467 1.8169 0.724441 0
M  V30 745 O 76.673 2.46625 1.13527 0
M  V30 746 C 75.129 3.35857 -1.29338 0
M  V30 747 C 74.737 3.4987 -2.79812 0
M  V30 748 C 76.481 4.10709 -1.07322 0
M  V30 749 C 74.388 4.92536 -3.27356 0
M  V30 750 H 73.318 0.701162 -0.277288 0
M  V30 751 H 75.969 1.32932 -1.26496 0
M  V30 752 H 74.351 3.89631 -0.707376 0
M  V30 753 H 75.525 3.06332 -3.44235 0
M  V30 754 H 73.84 2.88433 -3.00325 0
M  V30 755 H 76.437 5.15952 -1.4035 0
M  V30 756 H 76.78 4.16299 -0.0108001 0
M  V30 757 H 77.313 3.6313 -1.62423 0
M  V30 758 H 74.052 4.92119 -4.33012 0
M  V30 759 H 73.572 5.3676 -2.67673 0
M  V30 760 H 75.251 5.61288 -3.21815 0
M  V30 761 N 75.3831 0.828654 1.34056 0
M  V30 762 C 76.2931 0.256725 2.33191 0
M  V30 763 C 77.3091 -0.611898 1.62886 0
M  V30 764 O 78.4851 -0.51844 1.94613 0
M  V30 765 C 75.5501 -0.567238 3.42028 0
M  V30 766 C 74.6111 0.324458 4.28072 0
M  V30 767 C 73.8441 -0.460274 5.31712 0
M  V30 768 O 74.0671 -1.693 5.44696 0
M  V30 769 O 73.0011 0.160391 6.01686 0
M  V30 770 H 76.8271 1.07739 2.83947 0
M  V30 771 H 74.4121 0.59093 1.37217 0
M  V30 772 H 76.2941 -1.03582 4.08471 0
M  V30 773 H 74.9691 -1.36513 2.93506 0
M  V30 774 H 73.8761 0.840659 3.64532 0
M  V30 775 H 75.2091 1.08685 4.8005 0
M  V30 776 N 76.8612 -1.46375 0.584142 0
M  V30 777 C 78.1072 -2.02678 0.0703716 0
M  V30 778 C 78.4402 -1.4545 -1.28678 0
M  V30 779 O 77.7152 -0.62014 -1.84349 0
M  V30 780 C 77.9982 -3.60099 0.00614674 0
M  V30 781 C 77.8512 -4.27709 1.3923 0
M  V30 782 C 79.1702 -4.34598 -0.693742 0
M  V30 783 H 76.2892 -0.736504 0.027047 0
M  V30 784 H 78.9312 -1.74501 0.751615 0
M  V30 785 H 77.0812 -3.84236 -0.574009 0
M  V30 786 H 78.7532 -4.14832 2.01773 0
M  V30 787 H 76.9962 -3.87016 1.95962 0
M  V30 788 H 77.6672 -5.36478 1.29982 0
M  V30 789 H 80.1432 -4.15615 -0.200869 0
M  V30 790 H 79.0192 -5.44318 -0.707714 0
M  V30 791 H 79.2802 -4.05759 -1.75533 0
M  V30 792 N 78.3393 -0.321999 -1.54275 0
M  V30 793 C 79.6163 0.335232 -1.92706 0
M  V30 794 C 79.9963 1.70006 -1.25145 0
M  V30 795 O 79.3443 2.25067 -0.394596 0
M  V30 796 C 79.5543 0.429008 -3.46353 0
M  V30 797 C 80.9023 0.690029 -4.18956 0
M  V30 798 O 81.9263 0.511992 -3.52501 0
M  V30 799 O 80.7853 1.03338 -5.36641 0
M  V30 800 H 77.8793 0.191143 -0.804608 0
M  V30 801 H 80.4253 -0.3716 -1.65581 0
M  V30 802 H 79.1973 -0.529611 -3.87699 0
M  V30 803 H 78.8203 1.18348 -3.79578 0
M  V30 804 N 79.8174 1.5752 -0.0501392 0
M  V30 805 C 81.0644 1.9265 0.623874 0
M  V30 806 C 81.3924 0.928411 1.70912 0
M  V30 807 O 80.6474 -0.0594525 1.9561 0
M  V30 808 C 80.9464 3.34467 1.25963 0
M  V30 809 C 80.6124 4.49883 0.302689 0
M  V30 810 C 79.2744 4.81184 0.0393636 0
M  V30 811 C 81.6264 5.20002 -0.353205 0
M  V30 812 C 78.9544 5.79951 -0.887308 0
M  V30 813 C 81.3064 6.1976 -1.26806 0
M  V30 814 C 79.9704 6.49491 -1.54007 0
M  V30 815 H 79.2404 0.704957 0.228292 0
M  V30 816 H 81.8874 1.91146 -0.116398 0
M  V30 817 H 80.1924 3.32333 2.07514 0
M  V30 818 H 81.8894 3.58928 1.78806 0
M  V30 819 H 78.4794 4.25457 0.518109 0
M  V30 820 H 82.6634 4.96033 -0.162854 0
M  V30 821 H 77.9194 6.01322 -1.10553 0
M  V30 822 H 82.0934 6.73205 -1.78236 0
M  V30 823 H 79.7204 7.25837 -2.25976 0
M  V30 824 N 81.2955 -0.223234 1.56011 0
M  V30 825 C 82.5205 -0.968978 1.83373 0
M  V30 826 C 82.9455 -1.77227 0.630254 0
M  V30 827 O 82.3035 -1.76345 -0.420959 0
M  V30 828 C 82.3515 -1.86363 3.08709 0
M  V30 829 O 81.4555 -2.95873 2.87285 0
M  V30 830 H 80.7965 -0.274461 0.604622 0
M  V30 831 H 83.3265 -0.237056 2.03222 0
M  V30 832 H 83.3365 -2.27376 3.38768 0
M  V30 833 H 82.0115 -1.27319 3.95933 0
M  V30 834 H 80.5885 -2.58818 2.68454 0
M  V30 835 N 82.7736 -1.49793 -0.48987 0
M  V30 836 C 83.7206 -1.67281 -1.59014 0
M  V30 837 C 84.6906 -0.514177 -1.57941 0
M  V30 838 O 85.8756 -0.742533 -1.75759 0
M  V30 839 C 83.0156 -1.75569 -2.97102 0
M  V30 840 C 82.1286 -3.0281 -3.08107 0
M  V30 841 C 81.2636 -3.02008 -4.36995 0
M  V30 842 C 80.3026 -4.23782 -4.41673 0
M  V30 843 N 79.4396 -4.20826 -5.62005 0
M  V30 844 H 84.2796 -2.61224 -1.43409 0
M  V30 845 H 81.8166 -1.29508 -0.697565 0
M  V30 846 H 83.7746 -1.78354 -3.77155 0
M  V30 847 H 82.4046 -0.850827 -3.11385 0
M  V30 848 H 81.4566 -3.09584 -2.21047 0
M  V30 849 H 82.7686 -3.92801 -3.07423 0
M  V30 850 H 81.9226 -3.03418 -5.25378 0
M  V30 851 H 80.6616 -2.09815 -4.4026 0
M  V30 852 H 79.6666 -4.22604 -3.5169 0
M  V30 853 H 80.8916 -5.17181 -4.40115 0
M  V30 854 H 78.8376 -3.31476 -5.66091 0
M  V30 855 H 78.7546 -5.04564 -5.62984 0
M  V30 856 H 80.0226 -4.26355 -6.52565 0
M  V30 857 N 84.2517 0.741722 -1.39055 0
M  V30 858 C 85.6627 1.31966 -1.32068 0
M  V30 859 C 86.0137 1.96192 0.0180797 0
M  V30 860 O 85.1387 1.95861 0.920196 0
M  V30 861 C 85.7337 2.39954 -2.39181 0
M  V30 862 C 84.2927 2.93438 -2.35735 0
M  V30 863 C 83.4397 1.66936 -2.21422 0
M  V30 864 H 86.3907 0.539721 -1.4924 0
M  V30 865 H 86.4117 3.20182 -2.05581 0
M  V30 866 H 85.9237 1.9318 -3.36605 0
M  V30 867 H 84.0247 3.4451 -1.41929 0
M  V30 868 H 84.1377 3.4701 -3.30335 0
M  V30 869 H 82.5017 1.91016 -1.68478 0
M  V30 870 H 83.2847 1.22224 -3.20806 0
M  V30 871 N 85.7298 1.2412 0.971189 0
M  V30 872 C 86.9598 1.10415 1.7462 0
M  V30 873 C 87.3678 -0.346462 1.86001 0
M  V30 874 O 86.7108 -1.25104 1.34517 0
M  V30 875 C 86.7728 1.66596 3.18568 0
M  V30 876 C 86.4368 3.15446 3.3067 0
M  V30 877 C 87.4338 4.12636 3.16271 0
M  V30 878 C 85.1188 3.55337 3.55022 0
M  V30 879 C 87.1128 5.47699 3.26044 0
M  V30 880 C 84.7998 4.90542 3.64434 0
M  V30 881 C 85.7978 5.86532 3.49956 0
M  V30 882 O 85.4858 7.19279 3.59017 0
M  V30 883 H 85.2178 0.386616 0.55453 0
M  V30 884 H 87.7718 1.64633 1.22821 0
M  V30 885 H 86.0018 1.06808 3.71657 0
M  V30 886 H 87.6908 1.48232 3.77865 0
M  V30 887 H 88.4568 3.8316 2.97344 0
M  V30 888 H 84.3358 2.8113 3.65359 0
M  V30 889 H 87.8798 6.22603 3.14661 0
M  V30 890 H 83.7768 5.19691 3.82873 0
M  V30 891 H 84.5448 7.27153 3.75754 0
M  V30 892 N 87.2079 -1.17134 1.05439 0
M  V30 893 C 88.4539 -1.87733 0.767077 0
M  V30 894 C 88.7869 -1.8098 -0.704253 0
M  V30 895 O 88.0619 -1.21951 -1.5152 0
M  V30 896 C 88.3449 -3.37659 1.25133 0
M  V30 897 C 88.1979 -3.53149 2.78578 0
M  V30 898 C 89.5169 -4.31768 0.852324 0
M  V30 899 H 86.6359 -0.681687 0.280129 0
M  V30 900 H 89.2779 -1.37732 1.30881 0
M  V30 901 H 87.4279 -3.80373 0.790469 0
M  V30 902 H 89.0999 -3.19434 3.32806 0
M  V30 903 H 87.3429 -2.95345 3.17732 0
M  V30 904 H 88.0139 -4.58403 3.07523 0
M  V30 905 H 90.4899 -3.96909 1.24911 0
M  V30 906 H 89.3659 -5.35199 1.21873 0
M  V30 907 H 89.6269 -4.41429 -0.243485 0
M  V30 908 N 88.686 -0.835752 -1.33615 0
M  V30 909 C 90.102 -0.523139 -1.50783 0
M  V30 910 C 90.302 0.950171 -1.77691 0
M  V30 911 O 89.358 1.73411 -1.83534 0
M  V30 912 C 90.671 -1.39378 -2.66448 0
M  V30 913 C 92.219 -1.39223 -2.80332 0
M  V30 914 C 92.694 -2.24765 -3.99055 0
M  V30 915 N 94.185 -2.22458 -4.06284 0
M  V30 916 C 94.92 -2.85386 -4.97336 0
M  V30 917 N 94.416 -3.57354 -5.93523 0
M  V30 918 N 96.209 -2.74872 -4.90308 0
M  V30 919 H 88.36 -1.78952 -1.14411 0
M  V30 920 H 90.623 -0.763297 -0.562212 0
M  V30 921 H 90.329 -2.44061 -2.53234 0
M  V30 922 H 90.203 -1.0676 -3.61776 0
M  V30 923 H 92.59 -0.353136 -2.92979 0
M  V30 924 H 92.671 -1.75846 -1.85773 0
M  V30 925 H 92.315 -3.28732 -3.87167 0
M  V30 926 H 92.245 -1.85485 -4.92852 0
M  V30 927 H 94.736 -1.70119 -3.37443 0
M  V30 928 H 95.049 -4.02584 -6.59656 0
M  V30 929 H 93.394 -3.61461 -5.93608 0
M  V30 930 H 96.585 -2.18213 -4.14126 0
M  V30 931 H 96.758 -3.24199 -5.61069 0
M  V30 932 N 90.1641 1.46063 -0.591896 0
M  V30 933 C 91.4101 2.02638 -0.0811191 0
M  V30 934 C 91.7431 1.4613 1.27905 0
M  V30 935 O 91.0181 0.629908 1.84017 0
M  V30 936 C 91.3011 3.60091 -0.0252436 0
M  V30 937 C 91.1541 4.26965 -1.41496 0
M  V30 938 C 92.4731 4.3496 0.670685 0
M  V30 939 H 89.5921 0.73635 -0.0309524 0
M  V30 940 H 92.2341 1.741 -0.760859 0
M  V30 941 H 90.3841 3.84535 0.553624 0
M  V30 942 H 92.0561 4.13756 -2.0397 0
M  V30 943 H 90.2991 3.85971 -1.98011 0
M  V30 944 H 90.9701 5.35781 -1.32825 0
M  V30 945 H 93.4461 4.15716 0.178825 0
M  V30 946 H 92.3221 5.44686 0.678837 0
M  V30 947 H 92.5831 4.06685 1.73379 0
M  V30 948 N 91.6422 0.330177 1.54103 0
M  V30 949 C 92.8702 -0.272179 2.05102 0
M  V30 950 C 93.2852 -1.45267 1.20595 0
M  V30 951 O 92.6422 -1.8094 0.238144 0
M  V30 952 C 92.6932 -0.70023 3.54653 0
M  V30 953 O 92.4142 0.433301 4.35952 0
M  V30 954 C 93.9152 -1.3647 4.21771 0
M  V30 955 H 91.1352 -0.0549159 0.668749 0
M  V30 956 H 93.6792 0.478285 1.98828 0
M  V30 957 H 91.8342 -1.40066 3.61193 0
M  V30 958 H 92.2482 0.0947539 5.24414 0
M  V30 959 H 93.7222 -1.61509 5.27843 0
M  V30 960 H 94.1992 -2.31409 3.73292 0
M  V30 961 H 94.8052 -0.706675 4.19388 0
M  V30 962 N 93.1203 -1.57491 0.0584922 0
M  V30 963 C 94.0533 -2.07533 -0.948969 0
M  V30 964 C 95.0313 -0.977444 -1.29942 0
M  V30 965 O 96.2153 -1.2499 -1.41102 0
M  V30 966 C 93.3423 -2.52192 -2.2609 0
M  V30 967 C 92.3883 -3.73287 -2.06298 0
M  V30 968 S 93.2213 -5.18603 -1.33459 0
M  V30 969 C 94.3773 -5.66583 -2.65959 0
M  V30 970 H 94.6103 -2.92662 -0.523118 0
M  V30 971 H 92.1433 -1.53631 -0.153954 0
M  V30 972 H 94.1013 -2.78585 -3.01498 0
M  V30 973 H 92.7623 -1.67356 -2.65802 0
M  V30 974 H 91.9553 -4.0248 -3.03357 0
M  V30 975 H 91.5573 -3.47199 -1.39029 0
M  V30 976 H 93.8493 -5.72616 -3.62101 0
M  V30 977 H 94.7923 -6.65684 -2.41393 0
M  V30 978 H 95.2003 -4.94342 -2.72554 0
M  V30 979 N 94.5984 0.214957 -1.56127 0
M  V30 980 C 95.5084 1.28727 -1.96129 0
M  V30 981 C 96.5244 1.50916 -0.866044 0
M  V30 982 O 97.7004 1.63918 -1.17016 0
M  V30 983 C 94.7654 2.61569 -2.27558 0
M  V30 984 C 93.8264 2.47625 -3.50685 0
M  V30 985 C 93.0594 3.74132 -3.80606 0
M  V30 986 O 93.2824 4.77438 -3.12104 0
M  V30 987 O 92.2164 3.70849 -4.74083 0
M  V30 988 H 96.0424 0.977855 -2.87527 0
M  V30 989 H 93.6274 0.418358 -1.43423 0
M  V30 990 H 95.5094 3.40012 -2.48938 0
M  V30 991 H 94.1844 2.92178 -1.39332 0
M  V30 992 H 93.0914 1.67361 -3.34576 0
M  V30 993 H 94.4244 2.21954 -4.39315 0
M  V30 994 N 96.0765 1.50051 0.48192 0
M  V30 995 C 96.9865 1.7089 1.60728 0
M  V30 996 C 98.0025 0.591788 1.63627 0
M  V30 997 O 99.1785 0.868817 1.81696 0
M  V30 998 C 96.2435 1.78855 2.97005 0
M  V30 999 C 95.3045 3.02537 3.04581 0
M  V30 1000 C 94.5375 3.10112 4.34357 0
M  V30 1001 O 94.7605 2.24765 5.24249 0
M  V30 1002 O 93.6945 4.02747 4.47301 0
M  V30 1003 H 97.5205 2.66264 1.46072 0
M  V30 1004 H 95.1055 1.34018 0.660264 0
M  V30 1005 H 96.9875 1.86336 3.77964 0
M  V30 1006 H 95.6625 0.866628 3.11883 0
M  V30 1007 H 94.5695 3.00563 2.22739 0
M  V30 1008 H 95.9025 3.94272 2.94636 0
M  V30 1009 N 97.5546 -0.734337 1.39446 0
M  V30 1010 C 98.5176 -1.83004 1.37994 0
M  V30 1011 C 99.5176 -1.58397 0.276938 0
M  V30 1012 O 100.708 -1.65785 0.534875 0
M  V30 1013 C 97.8396 -3.20802 1.1532 0
M  V30 1014 H 99.0326 -1.85694 2.35494 0
M  V30 1015 H 96.5856 -0.938059 1.25021 0
M  V30 1016 H 97.3206 -3.23772 0.185036 0
M  V30 1017 H 97.1056 -3.4006 1.95197 0
M  V30 1018 H 98.5956 -4.00862 1.17046 0
M  V30 1019 N 99.0327 -1.24633 -0.964593 0
M  V30 1020 C 100.258 -1.11596 -1.74818 0
M  V30 1021 C 100.683 0.32723 -1.85232 0
M  V30 1022 O 100.041 1.23695 -1.32549 0
M  V30 1023 C 100.089 -1.76397 -3.1451 0
M  V30 1024 O 99.1927 -1.03685 -3.99153 0
M  V30 1025 H 98.5337 -0.390196 -0.537255 0
M  V30 1026 H 101.064 -1.65002 -1.20977 0
M  V30 1027 H 101.074 -1.8228 -3.65018 0
M  V30 1028 H 99.7487 -2.81401 -3.06246 0
M  V30 1029 H 98.3257 -1.05611 -3.57632 0
M  V30 1030 N 100.511 1.16574 -1.06058 0
M  V30 1031 C 101.927 1.3904 -0.783585 0
M  V30 1032 C 102.127 1.91784 0.618145 0
M  V30 1033 O 101.183 2.11511 1.37911 0
M  V30 1034 C 102.496 2.37329 -1.84649 0
M  V30 1035 C 104.044 2.51018 -1.86973 0
M  V30 1036 C 104.519 3.52588 -2.92311 0
M  V30 1037 N 106.01 3.60113 -2.91329 0
M  V30 1038 C 106.745 4.38486 -3.69482 0
M  V30 1039 N 106.241 5.20302 -4.57447 0
M  V30 1040 N 108.034 4.33446 -3.57885 0
M  V30 1041 H 100.185 0.806725 -1.96483 0
M  V30 1042 H 102.448 0.417117 -0.851303 0
M  V30 1043 H 102.154 2.05663 -2.85299 0
M  V30 1044 H 102.028 3.36946 -1.6955 0
M  V30 1045 H 104.415 2.81989 -0.869827 0
M  V30 1046 H 104.496 1.51445 -2.0615 0
M  V30 1047 H 104.14 3.22354 -3.92492 0
M  V30 1048 H 104.07 4.51886 -2.70383 0
M  V30 1049 H 106.561 3.01707 -2.27555 0
M  V30 1050 H 106.874 5.77311 -5.13743 0
M  V30 1051 H 105.219 5.19653 -4.61503 0
M  V30 1052 H 108.41 3.68586 -2.88551 0
M  V30 1053 H 108.583 4.94279 -4.19037 0
M  V30 1054 N 101.989 0.842826 1.3317 0
M  V30 1055 C 103.237 0.439577 1.97262 0
M  V30 1056 C 103.558 -1.00548 1.67078 0
M  V30 1057 O 102.828 -1.70098 0.971779 0
M  V30 1058 H 101.408 0.159558 0.72976 0
M  V30 1059 H 104.07 1.07665 1.62463 0
M  V30 1060 H 103.166 0.574886 3.0676 0
M  V30 1061 N 103.467 -1.45747 0.599634 0
M  V30 1062 C 104.695 -2.06668 0.0978551 0
M  V30 1063 C 105.11 -1.44562 -1.21439 0
M  V30 1064 O 104.467 -0.556923 -1.73795 0
M  V30 1065 C 104.518 -3.61456 -0.0567044 0
M  V30 1066 O 104.239 -4.21242 1.20361 0
M  V30 1067 C 105.74 -4.39345 -0.590869 0
M  V30 1068 H 102.96 -0.667825 0.0651943 0
M  V30 1069 H 105.504 -1.87115 0.82511 0
M  V30 1070 H 103.659 -3.80378 -0.734251 0
M  V30 1071 H 104.073 -5.14323 1.02821 0
M  V30 1072 H 105.547 -5.48182 -0.648131 0
M  V30 1073 H 106.024 -4.08568 -1.61147 0
M  V30 1074 H 106.63 -4.25268 0.0523679 0
M  V30 1075 N 104.945 -0.338344 -1.53925 0
M  V30 1076 C 106.356 0.146651 -1.86123 0
M  V30 1077 C 106.707 1.5042 -1.2597 0
M  V30 1078 O 105.832 2.08723 -0.571294 0
M  V30 1079 C 106.427 0.272879 -3.37699 0
M  V30 1080 C 104.986 0.702103 -3.69794 0
M  V30 1081 C 104.133 -0.167304 -2.76795 0
M  V30 1082 H 107.084 -0.558123 -1.48562 0
M  V30 1083 H 107.105 1.10128 -3.64214 0
M  V30 1084 H 106.617 -0.715307 -3.81451 0
M  V30 1085 H 104.718 1.6995 -3.31584 0
M  V30 1086 H 104.831 0.495604 -4.7653 0
M  V30 1087 H 103.195 0.359527 -2.5215 0
M  V30 1088 H 103.978 -1.15253 -3.23375 0
M  V30 1089 N 106.423 1.57458 -0.0668435 0
M  V30 1090 C 107.663 1.95175 0.607116 0
M  V30 1091 C 108.027 0.946039 1.67075 0
M  V30 1092 O 109.228 1.2107 2.39991 0
M  V30 1093 C 107.499 3.37582 1.17358 0
M  V30 1094 S 109.058 3.97271 1.86336 0
M  V30 1095 H 105.876 0.682604 0.19893 0
M  V30 1096 H 108.478 1.95002 -0.139519 0
M  V30 1097 H 107.182 4.08566 0.387553 0
M  V30 1098 H 106.713 3.41288 1.95669 0
M  V30 1099 H 108.728 3.83772 3.14537 0
M  V30 1100 N 107.901 -0.206675 1.56239 0
M  V30 1101 C 108.811 -1.27686 1.96808 0
M  V30 1102 C 109.827 -1.50455 0.874035 0
M  V30 1103 O 111.003 -1.63295 1.17884 0
M  V30 1104 C 108.068 -2.60358 2.28942 0
M  V30 1105 C 107.129 -2.45762 3.51994 0
M  V30 1106 C 106.362 -3.72108 3.82585 0
M  V30 1107 O 106.585 -4.75776 3.14631 0
M  V30 1108 O 105.519 -3.6833 4.76043 0
M  V30 1109 H 109.345 -0.962593 2.88041 0
M  V30 1110 H 106.93 -0.410746 1.43643 0
M  V30 1111 H 108.812 -3.38687 2.50737 0
M  V30 1112 H 107.487 -2.91435 1.4088 0
M  V30 1113 H 106.394 -1.65584 3.35459 0
M  V30 1114 H 107.727 -2.19621 4.40486 0
M  V30 1115 N 109.379 -1.50304 -0.473955 0
M  V30 1116 C 110.795 -1.37667 -0.807466 0
M  V30 1117 C 110.995 -0.430555 -1.96846 0
M  V30 1118 O 110.051 0.127874 -2.52176 0
M  V30 1119 C 111.364 -2.78974 -1.12223 0
M  V30 1120 C 112.912 -2.87868 -1.22885 0
M  V30 1121 C 113.387 -4.30003 -1.57676 0
M  V30 1122 N 114.878 -4.3294 -1.64673 0
M  V30 1123 C 115.613 -5.3991 -1.93091 0
M  V30 1124 N 115.109 -6.57092 -2.1955 0
M  V30 1125 N 116.902 -5.27351 -1.94569 0
M  V30 1126 H 109.053 -2.10394 0.291212 0
M  V30 1127 H 111.316 -0.945575 0.0677609 0
M  V30 1128 H 111.022 -3.50031 -0.342229 0
M  V30 1129 H 110.896 -3.16038 -2.05913 0
M  V30 1130 H 113.283 -2.17032 -1.99953 0
M  V30 1131 H 113.364 -2.54352 -0.271814 0
M  V30 1132 H 113.008 -5.01375 -0.81149 0
M  V30 1133 H 112.938 -4.61004 -2.54525 0
M  V30 1134 H 115.429 -3.48441 -1.46277 0
M  V30 1135 H 115.742 -7.34425 -2.405 0
M  V30 1136 H 114.087 -6.60272 -2.16948 0
M  V30 1137 H 117.278 -4.34801 -1.73394 0
M  V30 1138 H 117.451 -6.10805 -2.16381 0
M  V30 1139 N 110.857 0.726932 -1.39834 0
M  V30 1140 C 112.268 1.30558 -1.3346 0
M  V30 1141 C 112.619 1.962 -0.00273003 0
M  V30 1142 O 111.744 1.96826 0.899371 0
M  V30 1143 C 112.339 2.37404 -2.41713 0
M  V30 1144 C 110.898 2.90921 -2.38835 0
M  V30 1145 C 110.045 1.64578 -2.2318 0
M  V30 1146 H 112.996 0.523862 -1.49804 0
M  V30 1147 H 113.017 3.17984 -2.08966 0
M  V30 1148 H 112.529 1.89599 -3.38635 0
M  V30 1149 H 110.63 3.42985 -1.45575 0
M  V30 1150 H 110.743 3.43487 -3.33997 0
M  V30 1151 H 109.107 1.89219 -1.70494 0
M  V30 1152 H 109.89 1.18814 -3.22084 0
M  V30 1153 N 112.336 1.25143 0.95797 0
M  V30 1154 C 113.582 1.09855 1.70469 0
M  V30 1155 C 113.915 -0.360187 1.90831 0
M  V30 1156 O 113.19 -1.26568 1.47685 0
M  V30 1157 C 113.473 1.8497 3.08963 0
M  V30 1158 C 113.326 3.38652 2.96032 0
M  V30 1159 C 114.645 1.63016 4.08795 0
M  V30 1160 H 111.764 0.400465 0.618706 0
M  V30 1161 H 114.406 1.53933 1.11376 0
M  V30 1162 H 112.556 1.47505 3.59409 0
M  V30 1163 H 114.228 3.85772 2.52938 0
M  V30 1164 H 112.471 3.66534 2.32025 0
M  V30 1165 H 113.142 3.8642 3.94187 0
M  V30 1166 H 115.618 1.95625 3.67247 0
M  V30 1167 H 114.494 2.18015 5.03747 0
M  V30 1168 H 114.755 0.570692 4.38401 0
M  V30 1169 N 113.814 -1.1601 1.06675 0
M  V30 1170 C 115.23 -1.38622 0.790948 0
M  V30 1171 C 115.43 -1.92109 -0.607965 0
M  V30 1172 O 114.486 -2.12239 -1.36787 0
M  V30 1173 C 115.799 -2.36347 1.85905 0
M  V30 1174 C 117.347 -2.50023 1.88301 0
M  V30 1175 C 117.822 -3.51033 2.94176 0
M  V30 1176 N 119.313 -3.58563 2.93235 0
M  V30 1177 C 120.048 -4.36521 3.71803 0
M  V30 1178 N 119.544 -5.17869 4.602 0
M  V30 1179 N 121.337 -4.31541 3.60178 0
M  V30 1180 H 113.488 -0.796294 1.96908 0
M  V30 1181 H 115.751 -0.412597 0.853503 0
M  V30 1182 H 115.457 -2.04147 2.86386 0
M  V30 1183 H 115.331 -3.36042 1.71334 0
M  V30 1184 H 117.718 -2.81524 0.884769 0
M  V30 1185 H 117.799 -1.5035 2.06951 0
M  V30 1186 H 117.443 -3.20268 3.94196 0
M  V30 1187 H 117.373 -4.50445 2.72776 0
M  V30 1188 H 119.864 -3.00496 2.29152 0
M  V30 1189 H 120.177 -5.74578 5.16797 0
M  V30 1190 H 118.522 -5.17199 4.64253 0
M  V30 1191 H 121.713 -3.67051 2.90502 0
M  V30 1192 H 121.886 -4.9205 4.21653 0
M  V30 1193 N 115.292 -0.849877 -1.32721 0
M  V30 1194 C 116.538 -0.451591 -1.97708 0
M  V30 1195 C 116.871 0.989175 -1.6712 0
M  V30 1196 O 116.146 1.69334 -0.956891 0
M  V30 1197 C 116.429 -0.685598 -3.53513 0
M  V30 1198 C 116.282 -2.17444 -3.93749 0
M  V30 1199 C 117.601 -0.138874 -4.39881 0
M  V30 1200 H 114.72 -0.16555 -0.718166 0
M  V30 1201 H 117.362 -1.06742 -1.57182 0
M  V30 1202 H 115.512 -0.161416 -3.88165 0
M  V30 1203 H 117.184 -2.76433 -3.693 0
M  V30 1204 H 115.427 -2.65476 -3.43081 0
M  V30 1205 H 116.098 -2.28888 -5.02309 0
M  V30 1206 H 118.574 -0.587068 -4.11938 0
M  V30 1207 H 117.45 -0.332213 -5.47894 0
M  V30 1208 H 117.711 0.95806 -4.31594 0
M  V30 1209 N 116.77 1.45427 -0.607355 0
M  V30 1210 C 118 2.06314 -0.108656 0
M  V30 1211 C 118.408 1.45269 1.21217 0
M  V30 1212 O 117.751 0.561115 1.74921 0
M  V30 1213 C 117.813 3.59345 0.105618 0
M  V30 1214 C 117.477 4.42723 -1.13337 0
M  V30 1215 C 118.474 4.77715 -2.05145 0
M  V30 1216 C 116.159 4.83478 -1.36213 0
M  V30 1217 C 118.153 5.52317 -3.18158 0
M  V30 1218 C 115.84 5.57835 -2.49527 0
M  V30 1219 C 116.838 5.92171 -3.40327 0
M  V30 1220 O 116.526 6.65019 -4.51669 0
M  V30 1221 H 116.258 0.672782 -0.0658842 0
M  V30 1222 H 118.812 1.87664 -0.834945 0
M  V30 1223 H 117.042 3.76394 0.886796 0
M  V30 1224 H 118.731 4.02076 0.555886 0
M  V30 1225 H 119.497 4.46787 -1.88697 0
M  V30 1226 H 115.376 4.56188 -0.664362 0
M  V30 1227 H 118.92 5.79036 -3.89054 0
M  V30 1228 H 114.817 5.88177 -2.65928 0
M  V30 1229 H 115.585 6.83469 -4.50348 0
M  V30 1230 N 118.248 0.346503 1.53744 0
M  V30 1231 C 119.211 -0.496439 2.23759 0
M  V30 1232 C 120.211 -1.0252 1.2388 0
M  V30 1233 O 121.401 -0.913974 1.48297 0
M  V30 1234 C 118.533 -1.69187 2.95954 0
M  V30 1235 H 119.726 0.115952 2.99676 0
M  V30 1236 H 117.279 0.0978939 1.55993 0
M  V30 1237 H 118.014 -2.34288 2.24231 0
M  V30 1238 H 117.799 -1.31989 3.69217 0
M  V30 1239 H 119.289 -2.28969 3.49232 0
M  V30 1240 N 119.726 -1.57421 0.075193 0
M  V30 1241 C 121.003 -1.85029 -0.634329 0
M  V30 1242 C 121.383 -0.968305 -1.87582 0
M  V30 1243 O 120.731 -0.0354749 -2.28472 0
M  V30 1244 C 120.941 -3.35286 -0.968742 0
M  V30 1245 C 122.289 -4.02875 -1.34077 0
M  V30 1246 O 123.313 -3.40051 -1.06037 0
M  V30 1247 O 122.172 -5.13691 -1.86506 0
M  V30 1248 H 119.266 -0.7645 -0.315387 0
M  V30 1249 H 121.812 -1.69366 0.106382 0
M  V30 1250 H 120.584 -3.91203 -0.0871376 0
M  V30 1251 H 120.207 -3.56223 -1.7661 0
M  V30 1252 N 121.204 0.198386 -1.56346 0
M  V30 1253 C 122.452 0.91747 -1.80075 0
M  V30 1254 C 122.773 1.83929 -0.647692 0
M  V30 1255 O 122.043 1.93029 0.334166 0
M  V30 1256 H 120.623 0.341774 -0.664228 0
M  V30 1257 H 123.285 0.204684 -1.93822 0
M  V30 1258 H 122.381 1.51055 -2.7311 0
M  V30 1259 N 122.682 1.50554 0.465978 0
M  V30 1260 C 123.931 1.61038 1.21448 0
M  V30 1261 C 124.244 0.31865 1.92987 0
M  V30 1262 O 125.45 0.302469 2.6981 0
M  V30 1263 C 123.906 2.84283 2.20706 0
M  V30 1264 C 123.514 4.20352 1.54946 0
M  V30 1265 C 125.258 3.04115 2.96166 0
M  V30 1266 C 123.165 5.34778 2.5252 0
M  V30 1267 H 122.095 0.599718 0.457005 0
M  V30 1268 H 124.746 1.7699 0.484424 0
M  V30 1269 H 123.128 2.61901 2.97025 0
M  V30 1270 H 124.302 4.53008 0.843811 0
M  V30 1271 H 122.617 4.06167 0.917475 0
M  V30 1272 H 125.214 3.86774 3.69202 0
M  V30 1273 H 125.557 2.16045 3.55852 0
M  V30 1274 H 126.09 3.26702 2.26959 0
M  V30 1275 H 122.829 6.25018 1.97566 0
M  V30 1276 H 122.349 5.06534 3.21222 0
M  V30 1277 H 124.028 5.65561 3.14245 0
M  V30 1278 N 124.16 -0.719506 1.40217 0
M  V30 1279 C 125.407 -1.47933 1.38283 0
M  V30 1280 C 125.735 -1.94493 -0.0161536 0
M  V30 1281 O 124.99 -1.68224 -0.999956 0
M  V30 1282 C 125.289 -2.72271 2.31524 0
M  V30 1283 C 124.955 -2.44496 3.78857 0
M  V30 1284 C 123.617 -2.36631 4.18998 0
M  V30 1285 C 125.969 -2.21104 4.71977 0
M  V30 1286 C 123.297 -2.03437 5.503 0
M  V30 1287 C 125.649 -1.89423 6.03574 0
M  V30 1288 C 124.313 -1.80038 6.42762 0
M  V30 1289 H 123.583 -0.541325 0.506012 0
M  V30 1290 H 126.23 -0.824502 1.72842 0
M  V30 1291 H 124.535 -3.42572 1.90137 0
M  V30 1292 H 126.232 -3.30348 2.27313 0
M  V30 1293 H 122.822 -2.51503 3.47051 0
M  V30 1294 H 127.006 -2.26139 4.41786 0
M  V30 1295 H 122.262 -1.94705 5.79569 0
M  V30 1296 H 126.436 -1.70336 6.75247 0
M  V30 1297 H 124.063 -1.54083 7.44421 0
M  V30 1298 N 125.638 -1.25649 -0.95132 0
M  V30 1299 C 126.915 -1.01361 -1.67288 0
M  V30 1300 C 127.295 0.459135 -2.06046 0
M  V30 1301 O 126.643 1.43723 -1.7764 0
M  V30 1302 C 126.853 -1.95256 -2.89268 0
M  V30 1303 C 128.201 -2.23289 -3.61147 0
M  V30 1304 O 129.225 -1.93041 -2.99355 0
M  V30 1305 O 128.084 -2.74741 -4.72419 0
M  V30 1306 H 125.178 -0.38464 -0.732107 0
M  V30 1307 H 127.724 -1.36817 -1.00395 0
M  V30 1308 H 126.496 -2.94685 -2.57442 0
M  V30 1309 H 126.119 -1.60218 -3.6389 0
M  V30 1310 N 127.117 1.15442 -1.07289 0
M  V30 1311 C 128.047 2.22312 -0.714107 0
M  V30 1312 C 129.028 1.67467 0.298155 0
M  V30 1313 O 130.213 1.93445 0.171048 0
M  V30 1314 C 127.343 3.47124 -0.110448 0
M  V30 1315 C 126.297 4.14926 -1.04979 0
M  V30 1316 C 125.623 5.33807 -0.308924 0
M  V30 1317 C 126.923 4.64762 -2.38314 0
M  V30 1318 H 128.617 2.5258 -1.6076 0
M  V30 1319 H 126.163 1.21404 -0.77441 0
M  V30 1320 H 128.116 4.21124 0.152482 0
M  V30 1321 H 126.84 3.16187 0.81812 0
M  V30 1322 H 125.499 3.42866 -1.29764 0
M  V30 1323 H 125.147 4.99126 0.623084 0
M  V30 1324 H 124.847 5.80113 -0.935036 0
M  V30 1325 H 126.371 6.10576 -0.0537771 0
M  V30 1326 H 127.785 5.30292 -2.1786 0
M  V30 1327 H 126.182 5.21728 -2.96514 0
M  V30 1328 H 127.252 3.80434 -3.00663 0
M  V30 1329 N 128.595 0.856903 1.32268 0
M  V30 1330 C 129.842 0.461386 1.97174 0
M  V30 1331 C 130.17 -0.983491 1.67803 0
M  V30 1332 O 129.425 -1.70541 0.959903 0
M  V30 1333 C 129.724 0.649919 3.51441 0
M  V30 1334 C 129.39 2.0656 4.00804 0
M  V30 1335 C 128.052 2.45279 4.13995 0
M  V30 1336 C 130.404 2.98947 4.26943 0
M  V30 1337 C 127.732 3.75653 4.50668 0
M  V30 1338 C 130.084 4.28822 4.65075 0
M  V30 1339 C 128.748 4.67472 4.76472 0
M  V30 1340 H 128.018 0.168833 0.72151 0
M  V30 1341 H 130.665 1.08739 1.57633 0
M  V30 1342 H 128.97 -0.0593018 3.91755 0
M  V30 1343 H 130.667 0.32391 3.9969 0
M  V30 1344 H 127.257 1.75495 3.91024 0
M  V30 1345 H 131.441 2.70265 4.16258 0
M  V30 1346 H 126.697 4.05379 4.57688 0
M  V30 1347 H 130.871 5.0047 4.84255 0
M  V30 1348 H 128.498 5.68539 5.04646 0
M  V30 1349 N 130.073 -1.45103 0.615059 0
M  V30 1350 C 131.023 -2.27679 -0.120966 0
M  V30 1351 C 132.007 -1.3775 -0.831491 0
M  V30 1352 O 133.199 -1.61683 -0.720249 0
M  V30 1353 C 130.328 -3.24767 -1.1127 0
M  V30 1354 C 129.414 -4.22184 -0.402627 0
M  V30 1355 N 129.805 -5.02692 0.559884 0
M  V30 1356 C 128.103 -4.4125 -0.649202 0
M  V30 1357 C 128.804 -5.73421 0.977942 0
M  V30 1358 N 127.78 -5.42657 0.320104 0
M  V30 1359 H 131.582 -2.87325 0.618181 0
M  V30 1360 H 129.096 -1.56345 0.439304 0
M  V30 1361 H 131.093 -3.82666 -1.65446 0
M  V30 1362 H 129.753 -2.66682 -1.85232 0
M  V30 1363 H 130.764 -5.09354 0.936976 0
M  V30 1364 H 127.441 -3.9428 -1.37293 0
M  V30 1365 H 128.831 -6.48107 1.77222 0
M  V30 1366 N 131.551 -0.354651 -1.53558 0
M  V30 1367 C 132.776 0.242153 -2.05981 0
M  V30 1368 C 133.201 1.42553 -1.2272 0
M  V30 1369 O 132.559 1.79656 -0.243604 0
M  V30 1370 C 132.607 0.624367 -3.55154 0
M  V30 1371 O 131.711 1.72301 -3.74681 0
M  V30 1372 H 131.052 0.0378432 -0.662921 0
M  V30 1373 H 133.582 -0.512087 -1.98088 0
M  V30 1374 H 133.592 0.898433 -3.97985 0
M  V30 1375 H 132.267 -0.240989 -4.15201 0
M  V30 1376 H 130.844 1.44535 -3.4375 0
M  V30 1377 N 133.029 1.57378 -0.0835403 0
M  V30 1378 C 134.277 1.93547 0.581718 0
M  V30 1379 C 134.598 0.96524 1.69435 0
M  V30 1380 O 133.868 0.0153369 1.95894 0
M  V30 1381 H 132.448 0.714521 0.217874 0
M  V30 1382 H 135.11 1.94366 -0.144158 0
M  V30 1383 H 134.206 2.95665 0.999423 0
M  V30 1384 N 134.507 -0.190092 1.56449 0
M  V30 1385 C 135.457 -1.23977 1.91347 0
M  V30 1386 C 136.441 -1.40747 0.779693 0
M  V30 1387 O 137.633 -1.43033 1.04262 0
M  V30 1388 C 134.762 -2.58347 2.26079 0
M  V30 1389 C 133.848 -2.4535 3.45925 0
M  V30 1390 N 134.239 -2.02039 4.63696 0
M  V30 1391 C 132.537 -2.76229 3.50162 0
M  V30 1392 C 133.238 -2.01053 5.4585 0
M  V30 1393 N 132.214 -2.42747 4.8639 0
M  V30 1394 H 136.016 -0.896318 2.79899 0
M  V30 1395 H 133.53 -0.398496 1.57435 0
M  V30 1396 H 135.527 -3.34173 2.49267 0
M  V30 1397 H 134.187 -2.93512 1.38856 0
M  V30 1398 H 135.198 -1.7267 4.88268 0
M  V30 1399 H 131.875 -3.15556 2.73369 0
M  V30 1400 H 133.265 -1.69426 6.50188 0
M  V30 1401 N 135.985 -1.50799 -0.457987 0
M  V30 1402 C 136.948 -1.7005 -1.53674 0
M  V30 1403 C 137.948 -0.570881 -1.50325 0
M  V30 1404 O 139.138 -0.838126 -1.52712 0
M  V30 1405 C 136.27 -1.73788 -2.93276 0
M  V30 1406 H 137.463 -2.66306 -1.37917 0
M  V30 1407 H 135.016 -1.40477 -0.685271 0
M  V30 1408 H 135.751 -0.792717 -3.14462 0
M  V30 1409 H 135.536 -2.55864 -2.97113 0
M  V30 1410 H 137.026 -1.90591 -3.71571 0
M  V30 1411 N 137.463 0.71206 -1.40597 0
M  V30 1412 C 138.879 1.02058 -1.22704 0
M  V30 1413 C 139.079 2.01228 -0.104729 0
M  V30 1414 O 138.135 2.4674 0.53624 0
M  V30 1415 C 139.448 1.56094 -2.57012 0
M  V30 1416 C 140.996 1.6806 -2.64054 0
M  V30 1417 C 141.471 2.25501 -3.9864 0
M  V30 1418 N 142.962 2.32882 -4.004 0
M  V30 1419 C 143.697 2.78317 -5.01325 0
M  V30 1420 N 143.193 3.23478 -6.12645 0
M  V30 1421 N 144.986 2.77733 -4.88693 0
M  V30 1422 H 137.137 0.0547896 -2.12329 0
M  V30 1423 H 139.4 0.0869027 -0.944008 0
M  V30 1424 H 139.106 0.906865 -3.39807 0
M  V30 1425 H 138.98 2.54564 -2.78347 0
M  V30 1426 H 141.367 2.32583 -1.81629 0
M  V30 1427 H 141.448 0.681802 -2.46546 0
M  V30 1428 H 141.092 1.61598 -4.81506 0
M  V30 1429 H 141.022 3.26102 -4.13479 0
M  V30 1430 H 143.513 2.00991 -3.20017 0
M  V30 1431 H 143.826 3.56725 -6.85542 0
M  V30 1432 H 142.171 3.21429 -6.16205 0
M  V30 1433 H 145.362 2.4179 -4.00818 0
M  V30 1434 H 145.535 3.12826 -5.67489 0
M  V30 1435 N 138.941 1.26152 0.944643 0
M  V30 1436 C 139.904 1.07474 2.0244 0
M  V30 1437 C 140.904 0.0242064 1.60782 0
M  V30 1438 O 142.094 0.267302 1.72137 0
M  V30 1439 C 139.226 0.633956 3.34953 0
M  V30 1440 H 140.419 2.03336 2.20442 0
M  V30 1441 H 137.972 1.087 1.12312 0
M  V30 1442 H 138.707 -0.326811 3.22649 0
M  V30 1443 H 138.492 1.39247 3.66542 0
M  V30 1444 H 139.982 0.52501 4.14287 0
M  V30 1445 N 140.419 -1.14872 1.07899 0
M  V30 1446 C 141.349 -2.2193 0.725887 0
M  V30 1447 C 142.33 -1.67622 -0.28927 0
M  V30 1448 O 143.515 -1.93533 -0.160787 0
M  V30 1449 C 140.645 -3.47061 0.128856 0
M  V30 1450 C 139.599 -4.14363 1.07178 0
M  V30 1451 C 138.925 -5.33636 0.337229 0
M  V30 1452 C 140.225 -4.63492 2.40775 0
M  V30 1453 H 141.919 -2.51724 1.62097 0
M  V30 1454 H 139.465 -1.20991 0.780838 0
M  V30 1455 H 141.418 -4.21199 -0.130147 0
M  V30 1456 H 140.142 -3.16617 -0.80134 0
M  V30 1457 H 138.801 -3.42173 1.3158 0
M  V30 1458 H 138.449 -4.99449 -0.596606 0
M  V30 1459 H 138.149 -5.79609 0.965788 0
M  V30 1460 H 139.673 -6.10539 0.0861567 0
M  V30 1461 H 141.087 -5.2913 2.20669 0
M  V30 1462 H 139.484 -5.20148 2.99276 0
M  V30 1463 H 140.554 -3.78834 3.02676 0
M  V30 1464 N 141.898 -0.863906 -1.31812 0
M  V30 1465 C 142.831 -0.259963 -2.26714 0
M  V30 1466 C 143.809 0.607392 -1.50829 0
M  V30 1467 O 144.993 0.562155 -1.79922 0
M  V30 1468 C 142.12 0.632456 -3.32743 0
M  V30 1469 C 141.166 -0.162743 -4.26189 0
M  V30 1470 S 141.999 -1.53726 -5.12961 0
M  V30 1471 C 143.155 -0.650803 -6.22507 0
M  V30 1472 H 143.388 -1.06445 -2.77591 0
M  V30 1473 H 140.921 -0.662071 -1.39485 0
M  V30 1474 H 142.879 1.14167 -3.94305 0
M  V30 1475 H 141.54 1.41083 -2.80632 0
M  V30 1476 H 140.733 0.517366 -5.01338 0
M  V30 1477 H 140.335 -0.60385 -3.69093 0
M  V30 1478 H 142.627 0.141134 -6.77353 0
M  V30 1479 H 143.57 -1.37322 -6.94657 0
M  V30 1480 H 143.978 -0.221041 -5.64067 0
M  V30 1481 N 143.376 1.44774 -0.622745 0
M  V30 1482 C 144.308 2.28856 0.125485 0
M  V30 1483 C 145.321 1.40811 0.817069 0
M  V30 1484 O 146.51 1.65044 0.679918 0
M  V30 1485 C 143.61 3.16963 1.19949 0
M  V30 1486 C 142.783 4.33374 0.592064 0
M  V30 1487 C 141.842 5.02577 1.55893 0
M  V30 1488 O 140.868 5.58873 1.07933 0
M  V30 1489 N 142.07 5.03256 2.89334 0
M  V30 1490 H 144.835 2.93713 -0.596068 0
M  V30 1491 H 142.396 1.55129 -0.463303 0
M  V30 1492 H 144.388 3.60123 1.84644 0
M  V30 1493 H 142.958 2.53913 1.82337 0
M  V30 1494 H 142.178 3.93509 -0.233322 0
M  V30 1495 H 143.466 5.08527 0.166738 0
M  V30 1496 H 142.864 4.58836 3.30887 0
M  V30 1497 H 141.421 5.50232 3.49412 0
M  V30 1498 N 144.854 0.36279 1.53368 0
M  V30 1499 C 145.817 -0.472679 2.24273 0
M  V30 1500 C 146.817 -1.012 1.24961 0
M  V30 1501 O 148.007 -0.898194 1.49259 0
M  V30 1502 C 145.139 -1.66039 2.97731 0
M  V30 1503 H 146.332 0.14773 2.99536 0
M  V30 1504 H 143.885 0.114434 1.55881 0
M  V30 1505 H 144.62 -2.31896 2.26704 0
M  V30 1506 H 144.405 -1.28066 3.70596 0
M  V30 1507 H 145.895 -2.25252 3.51641 0
M  V30 1508 N 146.332 -1.57332 0.0918853 0
M  V30 1509 C 147.279 -2.13847 -0.868211 0
M  V30 1510 C 148.249 -1.05618 -1.28196 0
M  V30 1511 O 149.434 -1.33387 -1.36427 0
M  V30 1512 C 146.574 -2.72062 -2.12312 0
M  V30 1513 C 145.687 -3.94514 -1.7602 0
M  V30 1514 C 144.822 -4.40903 -2.96273 0
M  V30 1515 C 143.861 -5.55953 -2.56092 0
M  V30 1516 N 142.998 -5.97209 -3.69169 0
M  V30 1517 H 147.838 -2.95575 -0.379406 0
M  V30 1518 H 145.375 -1.46048 -0.175606 0
M  V30 1519 H 147.333 -3.03931 -2.858 0
M  V30 1520 H 145.963 -1.93068 -2.58698 0
M  V30 1521 H 145.015 -3.68979 -0.925135 0
M  V30 1522 H 146.327 -4.7802 -1.42472 0
M  V30 1523 H 145.481 -4.74539 -3.78018 0
M  V30 1524 H 144.22 -3.56291 -3.33029 0
M  V30 1525 H 143.225 -5.21948 -1.72773 0
M  V30 1526 H 144.45 -6.42311 -2.20484 0
M  V30 1527 H 142.396 -5.15543 -4.05649 0
M  V30 1528 H 142.313 -6.75504 -3.39456 0
M  V30 1529 H 143.581 -6.35475 -4.51434 0
M  V30 1530 N 147.81 0.181792 -1.56548 0
M  V30 1531 C 148.758 1.24461 -1.965 0
M  V30 1532 C 149.752 1.464 -0.852261 0
M  V30 1533 O 150.958 1.47103 -1.03733 0
M  V30 1534 H 147.333 0.418138 -0.625031 0
M  V30 1535 H 149.304 0.880714 -2.85107 0
M  V30 1536 C 148.053 2.57891 -2.33212 0
M  V30 1537 H 147.376 2.41829 -3.18369 0
M  V30 1538 H 148.816 3.3097 -2.65019 0
M  V30 1539 C 147.275 3.15871 -1.17163 0
M  V30 1540 O 147.805 3.9913 -0.453708 0
M  V30 1541 N 146.011 2.74808 -0.944936 0
M  V30 1542 H 145.558 2.07205 -1.53049 0
M  V30 1543 H 145.516 3.13939 -0.170286 0
M  V30 1544 N 149.288 1.51039 0.449983 0
M  V30 1545 C 150.218 1.74379 1.55288 0
M  V30 1546 C 151.199 0.593236 1.5942 0
M  V30 1547 O 152.384 0.834625 1.7535 0
M  V30 1548 C 149.514 1.85728 2.93466 0
M  V30 1549 C 148.468 3.01078 3.04197 0
M  V30 1550 C 147.794 2.97595 4.44231 0
M  V30 1551 C 149.094 4.41254 2.7945 0
M  V30 1552 H 150.788 2.66725 1.36008 0
M  V30 1553 H 148.334 1.2835 0.652864 0
M  V30 1554 H 150.287 2.0064 3.70569 0
M  V30 1555 H 149.011 0.900207 3.13949 0
M  V30 1556 H 147.67 2.85851 2.29531 0
M  V30 1557 H 147.318 1.99691 4.61663 0
M  V30 1558 H 147.018 3.75046 4.52343 0
M  V30 1559 H 148.542 3.14583 5.23326 0
M  V30 1560 H 149.956 4.56897 3.46292 0
M  V30 1561 H 148.353 5.20315 2.98985 0
M  V30 1562 H 149.423 4.52164 1.75144 0
M  V30 1563 N 150.766 -0.704594 1.40972 0
M  V30 1564 C 152.013 -1.46458 1.39844 0
M  V30 1565 C 152.341 -1.94499 0.00447594 0
M  V30 1566 O 151.596 -1.69275 -0.982057 0
M  V30 1567 C 151.895 -2.698 2.34399 0
M  V30 1568 C 151.561 -2.40464 3.81429 0
M  V30 1569 C 150.223 -2.32174 4.21484 0
M  V30 1570 C 152.575 -2.16086 4.74296 0
M  V30 1571 C 149.903 -1.97589 5.52427 0
M  V30 1572 C 152.255 -1.83011 6.05549 0
M  V30 1573 C 150.919 -1.7321 6.44635 0
M  V30 1574 H 150.189 -0.535927 0.511725 0
M  V30 1575 H 152.836 -0.806124 1.73706 0
M  V30 1576 H 151.141 -3.40536 1.93759 0
M  V30 1577 H 152.838 -3.27919 2.30804 0
M  V30 1578 H 149.428 -2.47808 3.49699 0
M  V30 1579 H 153.612 -2.2144 4.4416 0
M  V30 1580 H 148.868 -1.88547 5.81601 0
M  V30 1581 H 153.042 -1.63164 6.77016 0
M  V30 1582 H 150.669 -1.46179 7.46013 0
M  V30 1583 N 152.244 -1.26651 -0.937939 0
M  V30 1584 C 153.655 -1.1125 -1.49934 0
M  V30 1585 C 154.006 0.306077 -1.93798 0
M  V30 1586 O 153.131 1.19792 -1.80219 0
M  V30 1587 C 153.726 -2.01339 -2.72485 0
M  V30 1588 C 152.285 -1.90074 -3.24883 0
M  V30 1589 C 151.432 -1.94498 -1.97651 0
M  V30 1590 H 154.383 -1.39693 -0.753091 0
M  V30 1591 H 154.404 -1.56319 -3.46907 0
M  V30 1592 H 153.916 -3.04577 -2.40529 0
M  V30 1593 H 152.017 -0.897827 -3.61621 0
M  V30 1594 H 152.13 -2.75778 -3.9177 0
M  V30 1595 H 150.494 -1.38591 -2.13693 0
M  V30 1596 H 151.277 -2.99372 -1.68022 0
M  V30 1597 N 153.722 1.14298 -1.08507 0
M  V30 1598 C 154.67 2.21483 -0.710483 0
M  V30 1599 C 155.664 1.66998 0.284234 0
M  V30 1600 O 156.87 1.79401 0.146692 0
M  V30 1601 H 153.245 0.721578 -0.211729 0
M  V30 1602 H 155.216 2.50348 -1.62384 0
M  V30 1603 C 153.965 3.4743 -0.137007 0
M  V30 1604 H 153.288 3.89686 -0.893592 0
M  V30 1605 H 154.728 4.2391 0.0872789 0
M  V30 1606 C 153.187 3.17548 1.12538 0
M  V30 1607 O 153.717 3.35437 2.21009 0
M  V30 1608 N 151.923 2.71499 1.03617 0
M  V30 1609 H 151.47 2.57143 0.153403 0
M  V30 1610 H 151.428 2.51881 1.88158 0
M  V30 1611 N 155.201 0.870884 1.31352 0
M  V30 1612 C 156.429 0.49677 2.00848 0
M  V30 1613 C 156.844 -0.910998 1.65367 0
M  V30 1614 O 156.201 -1.59696 0.883374 0
M  V30 1615 C 156.252 0.645308 3.55694 0
M  V30 1616 O 155.973 1.99764 3.89905 0
M  V30 1617 C 157.474 0.272326 4.42463 0
M  V30 1618 H 154.694 0.193462 0.642506 0
M  V30 1619 H 157.238 1.1723 1.67563 0
M  V30 1620 H 155.393 0.0173176 3.87396 0
M  V30 1621 H 155.807 2.00607 4.84621 0
M  V30 1622 H 157.281 0.427208 5.50344 0
M  V30 1623 H 157.758 -0.788587 4.32062 0
M  V30 1624 H 158.364 0.876054 4.1618 0
M  V30 1625 N 156.679 -1.44442 0.630414 0
M  V30 1626 C 157.909 -2.06115 0.141465 0
M  V30 1627 C 158.317 -1.47179 -1.1889 0
M  V30 1628 O 157.66 -0.588873 -1.74006 0
M  V30 1629 C 157.722 -3.59467 -0.0484355 0
M  V30 1630 C 157.386 -4.40864 1.20366 0
M  V30 1631 C 158.383 -4.74391 2.12719 0
M  V30 1632 C 156.068 -4.8125 1.43887 0
M  V30 1633 C 158.062 -5.47186 3.26904 0
M  V30 1634 C 155.749 -5.53795 2.5837 0
M  V30 1635 C 156.747 -5.86682 3.49705 0
M  V30 1636 O 156.435 -6.57749 4.62191 0
M  V30 1637 H 156.167 -0.671648 0.0765792 0
M  V30 1638 H 158.721 -1.86312 0.864695 0
M  V30 1639 H 156.951 -3.77758 -0.826803 0
M  V30 1640 H 158.64 -4.02909 -0.491849 0
M  V30 1641 H 159.406 -4.43728 1.95781 0
M  V30 1642 H 155.285 -4.55073 0.736853 0
M  V30 1643 H 158.829 -5.72773 3.98217 0
M  V30 1644 H 154.726 -5.83872 2.75251 0
M  V30 1645 H 155.494 -6.76217 4.61164 0
M  V30 1646 N 158.157 -0.370918 -1.53173 0
M  V30 1647 C 159.087 0.464847 -2.28826 0
M  V30 1648 C 160.068 1.07936 -1.31468 0
M  V30 1649 O 161.253 1.0956 -1.60344 0
M  V30 1650 C 158.383 1.60196 -3.08147 0
M  V30 1651 C 157.337 1.11443 -4.13237 0
M  V30 1652 C 156.663 2.3422 -4.80672 0
M  V30 1653 C 157.963 0.195384 -5.21934 0
M  V30 1654 H 159.657 -0.166329 -2.98938 0
M  V30 1655 H 157.203 -0.0814359 -1.4377 0
M  V30 1656 H 159.156 2.19332 -3.59822 0
M  V30 1657 H 157.88 2.26045 -2.35735 0
M  V30 1658 H 156.539 0.545727 -3.62515 0
M  V30 1659 H 156.187 2.98537 -4.04827 0
M  V30 1660 H 155.887 2.02269 -5.51689 0
M  V30 1661 H 157.411 2.94032 -5.35143 0
M  V30 1662 H 158.825 0.694375 -5.69079 0
M  V30 1663 H 157.222 -0.0335027 -6.00091 0
M  V30 1664 H 158.292 -0.760961 -4.78892 0
M  V30 1665 N 159.635 1.57281 -0.100228 0
M  V30 1666 C 160.884 1.93713 0.561984 0
M  V30 1667 C 161.197 0.984492 1.69018 0
M  V30 1668 O 162.403 1.24273 2.41389 0
M  V30 1669 C 160.859 3.4421 1.05106 0
M  V30 1670 C 160.467 4.47975 -0.0476628 0
M  V30 1671 C 162.211 3.89595 1.68571 0
M  V30 1672 C 160.118 5.89631 0.457055 0
M  V30 1673 H 159.048 0.723082 0.2137 0
M  V30 1674 H 161.699 1.82644 -0.177057 0
M  V30 1675 H 160.081 3.50449 1.84395 0
M  V30 1676 H 161.255 4.53385 -0.823333 0
M  V30 1677 H 159.57 4.1223 -0.587816 0
M  V30 1678 H 162.167 4.92832 2.07414 0
M  V30 1679 H 162.51 3.28526 2.55688 0
M  V30 1680 H 163.043 3.86078 0.958562 0
M  V30 1681 H 159.782 6.54411 -0.377616 0
M  V30 1682 H 159.302 5.87681 1.19962 0
M  V30 1683 H 160.981 6.40363 0.92437 0
M  V30 1684 N 161.113 -0.173488 1.56642 0
M  V30 1685 C 162.359 -0.891784 1.8214 0
M  V30 1686 C 162.692 -1.8199 0.677736 0
M  V30 1687 O 161.967 -1.91842 -0.320446 0
M  V30 1688 C 162.25 -1.68933 3.18015 0
M  V30 1689 C 162.103 -0.784487 4.42906 0
M  V30 1690 C 163.422 -2.65748 3.50808 0
M  V30 1691 H 160.541 -0.322761 0.662567 0
M  V30 1692 H 163.183 -0.158095 1.89341 0
M  V30 1693 H 161.333 -2.31482 3.12007 0
M  V30 1694 H 163.005 -0.172046 4.60979 0
M  V30 1695 H 161.248 -0.0924117 4.33702 0
M  V30 1696 H 161.919 -1.37799 5.34524 0
M  V30 1697 H 164.395 -2.13327 3.57255 0
M  V30 1698 H 163.271 -3.18619 4.4696 0
M  V30 1699 H 163.532 -3.45842 2.75401 0
M  V30 1700 N 162.591 -1.51276 -0.441967 0
M  V30 1701 C 163.839 -1.63392 -1.18943 0
M  V30 1702 C 164.16 -0.350159 -1.9183 0
M  V30 1703 O 163.43 0.633784 -1.85364 0
M  V30 1704 H 162.01 -0.602164 -0.442049 0
M  V30 1705 H 164.672 -1.88186 -0.507165 0
M  V30 1706 H 163.768 -2.45934 -1.92154 0
M  V30 1707 N 164.069 0.697108 -1.41344 0
M  V30 1708 C 165.315 1.4593 -1.40827 0
M  V30 1709 C 165.648 1.94193 -0.0167098 0
M  V30 1710 O 164.923 1.69425 0.955263 0
M  V30 1711 C 165.206 2.67229 -2.41373 0
M  V30 1712 C 165.059 2.24741 -3.8963 0
M  V30 1713 C 166.378 3.69423 -2.39196 0
M  V30 1714 H 163.497 0.529303 -0.512842 0
M  V30 1715 H 166.139 0.794112 -1.72609 0
M  V30 1716 H 164.289 3.23982 -2.14401 0
M  V30 1717 H 165.961 1.73327 -4.27499 0
M  V30 1718 H 164.204 1.56542 -4.0457 0
M  V30 1719 H 164.875 3.1177 -4.55525 0
M  V30 1720 H 167.351 3.2234 -2.63128 0
M  V30 1721 H 166.227 4.51907 -3.11563 0
M  V30 1722 H 166.488 4.19012 -1.41001 0
M  V30 1723 N 165.547 1.27147 0.931209 0
M  V30 1724 C 166.787 1.14511 1.69312 0
M  V30 1725 C 167.151 -0.304638 1.89568 0
M  V30 1726 O 168.352 -0.553343 2.63043 0
M  V30 1727 C 166.623 1.90349 3.02493 0
M  V30 1728 S 168.182 1.93884 3.93642 0
M  V30 1729 H 165 0.408858 0.581684 0
M  V30 1730 H 167.602 1.61006 1.10893 0
M  V30 1731 H 166.306 2.94877 2.85439 0
M  V30 1732 H 165.837 1.44333 3.65966 0
M  V30 1733 H 167.852 1.03273 4.85334 0
M  V30 1734 N 167.025 -1.13721 1.09112 0
M  V30 1735 C 168.25 -1.89314 0.847053 0
M  V30 1736 C 168.675 -1.78416 -0.595774 0
M  V30 1737 O 168.033 -1.12942 -1.41823 0
M  V30 1738 C 168.081 -3.3701 1.28284 0
M  V30 1739 O 167.185 -4.10054 0.439267 0
M  V30 1740 H 166.526 -0.588745 0.307044 0
M  V30 1741 H 169.056 -1.43902 1.45442 0
M  V30 1742 H 169.066 -3.87834 1.26683 0
M  V30 1743 H 167.741 -3.4426 2.33363 0
M  V30 1744 H 166.318 -3.69266 0.519312 0
M  V30 1745 N 168.503 -0.877838 -1.30888 0
M  V30 1746 C 169.78 -0.413052 -1.91189 0
M  V30 1747 C 170.16 1.1056 -1.79832 0
M  V30 1748 O 169.508 1.93771 -1.21099 0
M  V30 1749 C 169.718 -0.903191 -3.3711 0
M  V30 1750 C 171.066 -0.93395 -4.14201 0
M  V30 1751 O 172.09 -0.849373 -3.45925 0
M  V30 1752 O 170.949 -1.05772 -5.36167 0
M  V30 1753 H 168.043 -0.125035 -0.817493 0
M  V30 1754 H 170.589 -0.966269 -1.39504 0
M  V30 1755 H 169.361 -1.94692 -3.39427 0
M  V30 1756 H 168.984 -0.328732 -3.96239 0
M  V30 1757 N 169.982 1.44106 -0.638065 0
M  V30 1758 C 170.892 2.34513 0.0637334 0
M  V30 1759 C 171.908 1.53018 0.828346 0
M  V30 1760 O 173.084 1.85723 0.779036 0
M  V30 1761 C 170.149 3.31095 1.02844 0
M  V30 1762 C 169.21 4.28497 0.26244 0
M  V30 1763 C 168.443 5.20465 1.1812 0
M  V30 1764 O 168.666 5.16514 2.42011 0
M  V30 1765 O 167.6 5.98251 0.661774 0
M  V30 1766 H 171.426 2.95989 -0.68003 0
M  V30 1767 H 169.011 1.43994 -0.398252 0
M  V30 1768 H 170.893 3.90526 1.58327 0
M  V30 1769 H 169.568 2.72144 1.7527 0
M  V30 1770 H 168.475 3.72592 -0.335602 0
M  V30 1771 H 169.808 4.90388 -0.421936 0
M  V30 1772 N 171.46 0.379036 1.52974 0
M  V30 1773 C 172.39 -0.452706 2.29069 0
M  V30 1774 C 173.371 -1.07237 1.32039 0
M  V30 1775 O 174.556 -1.08708 1.60923 0
M  V30 1776 C 171.686 -1.5856 3.08992 0
M  V30 1777 C 170.64 -1.0925 4.13822 0
M  V30 1778 C 169.966 -2.31668 4.81907 0
M  V30 1779 C 171.266 -0.167702 5.22031 0
M  V30 1780 H 172.96 0.182181 2.98845 0
M  V30 1781 H 170.506 0.0890592 1.43724 0
M  V30 1782 H 172.459 -2.1742 3.6098 0
M  V30 1783 H 171.183 -2.24792 2.36931 0
M  V30 1784 H 169.842 -0.526494 3.628 0
M  V30 1785 H 169.49 -2.96386 4.06404 0
M  V30 1786 H 169.19 -1.9934 5.52754 0
M  V30 1787 H 170.714 -2.91189 5.36695 0
M  V30 1788 H 172.128 -0.664186 5.6944 0
M  V30 1789 H 170.525 0.0653265 6.00064 0
M  V30 1790 H 171.595 0.786347 4.78482 0
M  V30 1791 N 172.938 -1.57226 0.108567 0
M  V30 1792 C 174.166 -1.99179 -0.559954 0
M  V30 1793 C 174.581 -0.988022 -1.60884 0
M  V30 1794 O 173.938 0.0205512 -1.82488 0
M  V30 1795 C 173.989 -3.41159 -1.19552 0
M  V30 1796 O 173.71 -4.37694 -0.188577 0
M  V30 1797 C 175.211 -3.98188 -1.94837 0
M  V30 1798 H 172.431 -0.654228 -0.149088 0
M  V30 1799 H 174.975 -2.03598 0.19183 0
M  V30 1800 H 173.13 -3.37711 -1.89815 0
M  V30 1801 H 173.544 -5.20469 -0.649014 0
M  V30 1802 H 175.018 -4.99644 -2.34648 0
M  V30 1803 H 175.495 -3.3675 -2.81951 0
M  V30 1804 H 176.101 -4.0515 -1.2936 0
M  V30 1805 N 174.416 0.165178 -1.56732 0
M  V30 1806 C 175.366 1.20917 -1.93295 0
M  V30 1807 C 176.35 1.39488 -0.801985 0
M  V30 1808 O 177.542 1.41356 -1.06525 0
M  V30 1809 C 174.671 2.54718 -2.3016 0
M  V30 1810 C 173.757 2.39815 -3.49785 0
M  V30 1811 N 174.148 1.94637 -4.66851 0
M  V30 1812 C 172.446 2.70623 -3.54513 0
M  V30 1813 C 173.147 1.92344 -5.4898 0
M  V30 1814 N 172.123 2.34978 -4.9019 0
M  V30 1815 H 175.925 0.851675 -2.81289 0
M  V30 1816 H 173.439 0.373399 -1.58049 0
M  V30 1817 H 175.436 3.30165 -2.54552 0
M  V30 1818 H 174.096 2.91265 -1.43508 0
M  V30 1819 H 175.107 1.6488 -4.90953 0
M  V30 1820 H 171.784 3.11167 -2.78354 0
M  V30 1821 H 173.174 1.5906 -6.52801 0
M  V30 1822 N 175.894 1.51508 0.433938 0
M  V30 1823 C 176.842 1.73646 1.54757 0
M  V30 1824 C 177.836 0.602854 1.5831 0
M  V30 1825 O 179.042 0.784318 1.62014 0
M  V30 1826 H 175.417 0.548718 0.51421 0
M  V30 1827 H 177.388 2.66991 1.33261 0
M  V30 1828 C 176.137 1.88172 2.92381 0
M  V30 1829 H 175.46 2.74808 2.90381 0
M  V30 1830 H 176.9 2.07672 3.6966 0
M  V30 1831 C 175.359 0.64239 3.30719 0
M  V30 1832 O 175.889 -0.201362 4.01195 0
M  V30 1833 N 174.095 0.485489 2.86516 0
M  V30 1834 H 173.642 1.17318 2.29334 0
M  V30 1835 H 173.6 -0.342482 3.12529 0
M  V30 1836 N 177.372 -0.689602 1.41712 0
M  V30 1837 C 178.619 -1.44966 1.4139 0
M  V30 1838 C 178.947 -1.94484 0.025105 0
M  V30 1839 O 178.202 -1.70307 -0.964048 0
M  V30 1840 C 178.501 -2.67298 2.37247 0
M  V30 1841 C 178.167 -2.36405 3.83958 0
M  V30 1842 C 176.829 -2.27691 4.23923 0
M  V30 1843 C 179.181 -2.11043 4.76561 0
M  V30 1844 C 176.509 -1.91719 5.54492 0
M  V30 1845 C 178.861 -1.76578 6.07456 0
M  V30 1846 C 177.525 -1.66363 6.46436 0
M  V30 1847 H 176.795 -0.53047 0.517381 0
M  V30 1848 H 179.442 -0.787655 1.74552 0
M  V30 1849 H 177.747 -3.38461 1.9736 0
M  V30 1850 H 179.444 -3.25452 2.34269 0
M  V30 1851 H 176.034 -2.44085 3.52308 0
M  V30 1852 H 180.218 -2.16717 4.46483 0
M  V30 1853 H 175.474 -1.82367 5.83568 0
M  V30 1854 H 179.648 -1.55974 6.78708 0
M  V30 1855 H 177.275 -1.38258 7.47522 0
M  V30 1856 N 178.85 -1.27639 -0.924453 0
M  V30 1857 C 179.797 -1.10644 -2.0255 0
M  V30 1858 C 180.767 -0.00658438 -1.66099 0
M  V30 1859 O 181.952 -0.16952 -1.90045 0
M  V30 1860 C 179.092 -0.76309 -3.36557 0
M  V30 1861 C 178.205 -1.94091 -3.85944 0
M  V30 1862 C 177.34 -1.53914 -5.08413 0
M  V30 1863 C 176.379 -2.68425 -5.50104 0
M  V30 1864 N 175.516 -2.28815 -6.63768 0
M  V30 1865 H 180.356 -2.04858 -2.16419 0
M  V30 1866 H 177.893 -1.01974 -1.06017 0
M  V30 1867 H 179.851 -0.544822 -4.13627 0
M  V30 1868 H 178.481 0.142102 -3.22487 0
M  V30 1869 H 177.533 -2.27162 -3.05125 0
M  V30 1870 H 178.845 -2.7998 -4.12811 0
M  V30 1871 H 177.999 -1.28231 -5.92994 0
M  V30 1872 H 176.738 -0.651391 -4.8333 0
M  V30 1873 H 175.743 -2.94819 -4.64071 0
M  V30 1874 H 176.968 -3.57826 -5.7718 0
M  V30 1875 H 174.914 -1.42495 -6.40337 0
M  V30 1876 H 174.831 -3.08242 -6.90306 0
M  V30 1877 H 176.099 -2.06387 -7.51681 0
M  V30 1878 N 180.328 1.1314 -1.09713 0
M  V30 1879 C 181.576 1.84119 -0.833338 0
M  V30 1880 C 181.897 1.84097 0.642904 0
M  V30 1881 O 181.167 1.29881 1.46655 0
M  V30 1882 H 179.747 0.681766 -0.305293 0
M  V30 1883 H 182.409 1.37038 -1.38588 0
M  V30 1884 H 181.505 2.88543 -1.18951 0
M  V30 1885 N 181.806 0.884767 1.30421 0
M  V30 1886 C 183.053 0.503105 1.96151 0
M  V30 1887 C 183.381 -0.947676 1.69851 0
M  V30 1888 O 182.636 -1.68467 0.995861 0
M  V30 1889 C 182.935 0.724318 3.49983 0
M  V30 1890 C 182.601 2.15015 3.96332 0
M  V30 1891 C 181.263 2.54005 4.08699 0
M  V30 1892 C 183.615 3.07936 4.20505 0
M  V30 1893 C 180.943 3.85128 4.42599 0
M  V30 1894 C 183.295 4.3859 4.55874 0
M  V30 1895 C 181.959 4.77474 4.66449 0
M  V30 1896 H 181.229 0.184099 0.717766 0
M  V30 1897 H 183.876 1.12058 1.55291 0
M  V30 1898 H 182.181 0.0238086 3.91793 0
M  V30 1899 H 183.878 0.408617 3.98913 0
M  V30 1900 H 180.468 1.8375 3.87213 0
M  V30 1901 H 184.652 2.79033 4.10431 0
M  V30 1902 H 179.908 4.14996 4.48986 0
M  V30 1903 H 184.082 5.10629 4.7353 0
M  V30 1904 H 181.709 5.79115 4.92473 0
M  V30 1905 N 183.284 -1.43765 0.645699 0
M  V30 1906 C 184.512 -2.06253 0.163556 0
M  V30 1907 C 184.927 -1.48352 -1.16778 0
M  V30 1908 O 184.284 -0.611932 -1.71935 0
M  V30 1909 C 184.335 -3.61453 0.0583186 0
M  V30 1910 O 184.056 -4.172 1.33702 0
M  V30 1911 C 185.557 -4.41002 -0.450795 0
M  V30 1912 H 182.777 -0.665413 0.0864077 0
M  V30 1913 H 185.321 -1.84396 0.884222 0
M  V30 1914 H 183.476 -3.82522 -0.612865 0
M  V30 1915 H 183.89 -5.10791 1.19131 0
M  V30 1916 H 185.364 -5.49966 -0.473403 0
M  V30 1917 H 185.841 -4.13488 -1.48068 0
M  V30 1918 H 186.447 -4.24886 0.187637 0
M  V30 1919 N 184.763 -0.387143 -1.52771 0
M  V30 1920 C 186.009 0.196025 -2.0185 0
M  V30 1921 C 186.342 1.46641 -1.27319 0
M  V30 1922 O 185.617 1.90889 -0.373032 0
M  V30 1923 C 185.9 0.466136 -3.5707 0
M  V30 1924 C 185.753 -0.819385 -4.42274 0
M  V30 1925 C 187.072 1.25768 -4.21747 0
M  V30 1926 H 184.191 0.0697708 -0.73369 0
M  V30 1927 H 186.833 -0.516286 -1.82851 0
M  V30 1928 H 184.983 1.07293 -3.7339 0
M  V30 1929 H 186.655 -1.4563 -4.37709 0
M  V30 1930 H 184.898 -1.43517 -4.09372 0
M  V30 1931 H 185.569 -0.585065 -5.48891 0
M  V30 1932 H 188.045 0.744167 -4.09391 0
M  V30 1933 H 186.921 1.41541 -5.30337 0
M  V30 1934 H 187.182 2.27228 -3.79236 0
M  V30 1935 N 186.241 1.57166 -0.116904 0
M  V30 1936 C 187.174 2.10912 0.871291 0
M  V30 1937 C 188.152 1.025 1.26224 0
M  V30 1938 O 189.336 1.3014 1.36366 0
M  V30 1939 C 186.463 2.6041 2.16574 0
M  V30 1940 C 185.509 3.80687 1.92302 0
M  V30 1941 S 186.342 5.23199 1.14119 0
M  V30 1942 C 187.498 5.76064 2.44748 0
M  V30 1943 H 187.731 2.94401 0.414138 0
M  V30 1944 H 185.264 1.54096 0.096829 0
M  V30 1945 H 187.222 2.89583 2.9095 0
M  V30 1946 H 185.883 1.77106 2.59408 0
M  V30 1947 H 185.076 4.13462 2.8821 0
M  V30 1948 H 184.678 3.5212 1.26047 0
M  V30 1949 H 186.97 5.8566 3.406 0
M  V30 1950 H 187.913 6.74184 2.16521 0
M  V30 1951 H 188.321 5.04117 2.54019 0
M  V30 1952 N 187.719 -0.156864 1.56817 0
M  V30 1953 C 188.667 -1.21319 1.98455 0
M  V30 1954 C 189.661 -1.45025 0.875444 0
M  V30 1955 O 190.867 -1.45435 1.0606 0
M  V30 1956 H 187.242 -0.408142 0.631605 0
M  V30 1957 H 189.213 -0.835244 2.86472 0
M  V30 1958 C 187.962 -2.54148 2.37285 0
M  V30 1959 H 187.285 -2.36733 3.22176 0
M  V30 1960 H 188.725 -3.26712 2.70251 0
M  V30 1961 C 187.184 -3.13967 1.22173 0
M  V30 1962 O 187.714 -3.98357 0.517149 0
M  V30 1963 N 185.92 -2.7327 0.988536 0
M  V30 1964 H 185.467 -2.04744 1.56326 0
M  V30 1965 H 185.425 -3.13628 0.220209 0
M  V30 1966 N 189.197 -1.51736 -0.425897 0
M  V30 1967 C 190.107 -1.76738 -1.54275 0
M  V30 1968 C 191.123 -0.65211 -1.61318 0
M  V30 1969 O 192.299 -0.935654 -1.78346 0
M  V30 1970 C 189.364 -1.89755 -2.90162 0
M  V30 1971 C 188.425 -3.13633 -2.93143 0
M  V30 1972 C 187.658 -3.2602 -4.22548 0
M  V30 1973 O 187.881 -2.44067 -5.15546 0
M  V30 1974 O 186.815 -4.19071 -4.32046 0
M  V30 1975 H 190.641 -2.71502 -1.36089 0
M  V30 1976 H 188.226 -1.36376 -0.610069 0
M  V30 1977 H 190.108 -2.00236 -3.70788 0
M  V30 1978 H 188.783 -0.981785 -3.08452 0
M  V30 1979 H 187.69 -3.08622 -2.11431 0
M  V30 1980 H 189.023 -4.04936 -2.798 0
M  V30 1981 N 190.675 0.682077 -1.42076 0
M  V30 1982 C 191.623 1.81707 -1.45208 0
M  V30 1983 C 192.617 1.66183 -0.328591 0
M  V30 1984 O 193.823 1.7288 -0.501264 0
M  V30 1985 H 190.198 0.599014 -0.454628 0
M  V30 1986 H 192.169 1.76183 -2.40836 0
M  V30 1987 C 190.918 3.19816 -1.36428 0
M  V30 1988 H 190.241 3.32385 -2.22171 0
M  V30 1989 H 191.681 3.99272 -1.42681 0
M  V30 1990 C 190.14 3.36809 -0.078191 0
M  V30 1991 O 190.67 3.92124 0.87188 0
M  V30 1992 N 188.876 2.906 0.00229266 0
M  V30 1993 H 188.423 2.45772 -0.771616 0
M  V30 1994 H 188.381 3.02347 0.862179 0
M  V30 1995 N 192.153 1.28127 0.917671 0
M  V30 1996 C 193.063 1.13556 2.05286 0
M  V30 1997 C 194.079 0.0630914 1.73886 0
M  V30 1998 O 195.255 0.271598 1.9956 0
M  V30 1999 C 192.32 0.794676 3.3747 0
M  V30 2000 C 191.381 1.94909 3.82504 0
M  V30 2001 C 190.614 1.62437 5.0838 0
M  V30 2002 O 190.837 0.536905 5.67867 0
M  V30 2003 O 189.771 2.46677 5.4903 0
M  V30 2004 H 193.597 2.08844 2.20495 0
M  V30 2005 H 191.182 1.07409 1.03845 0
M  V30 2006 H 193.064 0.618344 4.16839 0
M  V30 2007 H 191.739 -0.128581 3.23445 0
M  V30 2008 H 190.646 2.18055 3.03978 0
M  V30 2009 H 191.979 2.85291 4.01086 0
M  V30 2010 N 193.631 -1.12557 1.10312 0
M  V30 2011 C 195.047 -1.36036 0.834649 0
M  V30 2012 C 195.247 -1.93946 -0.546539 0
M  V30 2013 O 194.303 -2.16484 -1.29966 0
M  V30 2014 C 195.616 -2.30312 1.9333 0
M  V30 2015 C 197.164 -2.43906 1.9616 0
M  V30 2016 C 197.639 -3.41496 3.05195 0
M  V30 2017 N 199.13 -3.49053 3.04494 0
M  V30 2018 C 199.865 -4.24471 3.85502 0
M  V30 2019 N 199.361 -5.02966 4.76442 0
M  V30 2020 N 201.154 -4.19864 3.73725 0
M  V30 2021 H 193.305 -0.733246 1.99342 0
M  V30 2022 H 195.568 -0.385234 0.866198 0
M  V30 2023 H 195.274 -1.94933 2.92735 0
M  V30 2024 H 195.148 -3.30421 1.81939 0
M  V30 2025 H 197.535 -2.78567 0.973886 0
M  V30 2026 H 197.616 -1.4369 2.11629 0
M  V30 2027 H 197.26 -3.07565 4.04186 0
M  V30 2028 H 197.19 -4.41539 2.86968 0
M  V30 2029 H 199.681 -2.93053 2.38596 0
M  V30 2030 H 199.994 -5.57846 5.34815 0
M  V30 2031 H 198.339 -5.02167 4.80472 0
M  V30 2032 H 201.53 -3.57623 3.02032 0
M  V30 2033 H 201.703 -4.78386 4.37093 0
M  V30 2034 N 195.109 -0.891671 -1.2995 0
M  V30 2035 C 196.339 -0.527893 -1.99742 0
M  V30 2036 C 196.747 0.88979 -1.66971 0
M  V30 2037 O 196.09 1.59766 -0.906667 0
M  V30 2038 C 196.152 -0.630804 -3.53922 0
M  V30 2039 C 195.816 -2.01401 -4.10228 0
M  V30 2040 C 196.813 -2.98422 -4.25724 0
M  V30 2041 C 194.498 -2.32121 -4.45449 0
M  V30 2042 C 196.492 -4.24293 -4.75662 0
M  V30 2043 C 194.179 -3.58237 -4.95086 0
M  V30 2044 C 195.177 -4.54137 -5.10146 0
M  V30 2045 O 194.865 -5.78014 -5.58708 0
M  V30 2046 H 194.597 -0.201953 -0.645129 0
M  V30 2047 H 197.151 -1.20076 -1.66646 0
M  V30 2048 H 195.381 0.0990616 -3.86573 0
M  V30 2049 H 197.07 -0.277338 -4.04951 0
M  V30 2050 H 197.836 -2.76001 -3.98809 0
M  V30 2051 H 193.715 -1.5824 -4.32991 0
M  V30 2052 H 197.259 -4.99153 -4.87332 0
M  V30 2053 H 193.156 -3.80491 -5.21437 0
M  V30 2054 H 193.924 -5.8049 -5.77039 0
M  V30 2055 N 196.587 1.43421 -0.653314 0
M  V30 2056 C 197.864 1.95361 -0.0966581 0
M  V30 2057 C 198.244 1.59461 1.38331 0
M  V30 2058 O 197.592 0.879777 2.10884 0
M  V30 2059 C 197.802 3.47311 -0.342988 0
M  V30 2060 C 199.15 4.23875 -0.24798 0
M  V30 2061 O 200.174 3.55133 -0.275553 0
M  V30 2062 O 199.033 5.4623 -0.171771 0
M  V30 2063 H 196.127 0.826945 0.00956291 0
M  V30 2064 H 198.673 1.5336 -0.726558 0
M  V30 2065 H 197.445 3.66569 -1.36906 0
M  V30 2066 H 197.068 3.9631 0.319975 0
M  V30 2067 N 198.065 0.39524 1.52563 0
M  V30 2068 C 199.028 -0.425001 2.25225 0
M  V30 2069 C 200.028 -0.985266 1.27079 0
M  V30 2070 O 201.218 -0.866332 1.5113 0
M  V30 2071 C 198.35 -1.59686 3.01186 0
M  V30 2072 H 199.543 0.211233 2.99155 0
M  V30 2073 H 197.096 0.147472 1.55603 0
M  V30 2074 H 197.831 -2.27035 2.31572 0
M  V30 2075 H 197.616 -1.20176 3.73229 0
M  V30 2076 H 199.106 -2.17743 3.5634 0
M  V30 2077 N 199.544 -1.57102 0.125237 0
M  V30 2078 C 200.79 -1.95697 -0.532035 0
M  V30 2079 C 201.123 -1.009 -1.6593 0
M  V30 2080 O 200.398 -0.047347 -1.94442 0
M  V30 2081 C 200.681 -3.44181 -1.05884 0
M  V30 2082 C 200.534 -4.49752 0.0654392 0
M  V30 2083 C 201.853 -3.94655 -1.9477 0
M  V30 2084 H 198.972 -0.711571 -0.191925 0
M  V30 2085 H 201.614 -1.88923 0.20206 0
M  V30 2086 H 199.764 -3.50085 -1.68442 0
M  V30 2087 H 201.436 -4.55943 0.700982 0
M  V30 2088 H 199.679 -4.27653 0.727709 0
M  V30 2089 H 200.35 -5.50924 -0.344505 0
M  V30 2090 H 202.826 -3.91094 -1.42074 0
M  V30 2091 H 201.702 -4.99057 -2.28546 0
M  V30 2092 H 201.963 -3.35718 -2.87656 0
M  V30 2093 N 201.022 0.148545 -1.56898 0
M  V30 2094 C 201.954 1.20852 -1.9475 0
M  V30 2095 C 202.967 1.39265 -0.843152 0
M  V30 2096 O 204.156 1.38864 -1.12156 0
M  V30 2097 C 201.256 2.57362 -2.20495 0
M  V30 2098 C 200.429 2.59947 -3.51776 0
M  V30 2099 C 199.488 3.77984 -3.6608 0
M  V30 2100 O 198.514 3.62929 -4.38487 0
M  V30 2101 N 199.716 4.95375 -3.02629 0
M  V30 2102 H 202.481 0.886804 -2.86279 0
M  V30 2103 H 200.042 0.338121 -1.5833 0
M  V30 2104 H 202.034 3.34833 -2.27307 0
M  V30 2105 H 200.604 2.81832 -1.35238 0
M  V30 2106 H 199.824 1.68403 -3.56419 0
M  V30 2107 H 201.112 2.58704 -4.38121 0
M  V30 2108 H 200.51 5.10509 -2.43715 0
M  V30 2109 H 199.067 5.70627 -3.15004 0
M  V30 2110 N 202.5 1.5196 0.417844 0
M  V30 2111 C 203.45 1.7106 1.5074 0
M  V30 2112 C 204.434 0.564487 1.50673 0
M  V30 2113 O 205.626 0.821206 1.56797 0
M  V30 2114 C 202.755 1.85677 2.88754 0
M  V30 2115 C 201.841 3.06133 2.93502 0
M  V30 2116 N 202.232 4.28987 2.67962 0
M  V30 2117 C 200.53 3.05787 3.24669 0
M  V30 2118 C 201.231 5.10395 2.79055 0
M  V30 2119 N 200.207 4.45455 3.11561 0
M  V30 2120 H 204.009 2.63696 1.29775 0
M  V30 2121 H 201.523 1.49873 0.625436 0
M  V30 2122 H 203.52 1.97475 3.67164 0
M  V30 2123 H 202.18 0.942348 3.10725 0
M  V30 2124 H 203.191 4.57607 2.4252 0
M  V30 2125 H 199.868 2.2405 3.52289 0
M  V30 2126 H 201.258 6.18247 2.63097 0
M  V30 2127 N 203.978 -0.674533 1.42435 0
M  V30 2128 C 205.218 -1.4466 1.44405 0
M  V30 2129 C 205.582 -1.91911 0.0585784 0
M  V30 2130 O 206.783 -2.68759 -0.0469991 0
M  V30 2131 C 205.054 -2.61136 2.44013 0
M  V30 2132 S 206.613 -3.49981 2.64687 0
M  V30 2133 H 203.431 -0.494074 0.511284 0
M  V30 2134 H 206.033 -0.785162 1.7904 0
M  V30 2135 H 204.737 -2.24662 3.43446 0
M  V30 2136 H 204.268 -3.32153 2.10803 0
M  V30 2137 H 206.283 -4.57124 1.93007 0
M  V30 2138 N 205.456 -1.28612 -0.910864 0
M  V30 2139 C 206.872 -1.06381 -1.18976 0
M  V30 2140 C 207.072 0.191998 -2.00583 0
M  V30 2141 O 206.128 0.892869 -2.36187 0
M  V30 2142 C 207.441 -2.31295 -1.92154 0
M  V30 2143 C 208.989 -2.36503 -2.05025 0
M  V30 2144 C 209.464 -3.61191 -2.81612 0
M  V30 2145 N 210.955 -3.61847 -2.89172 0
M  V30 2146 C 211.69 -4.55004 -3.4894 0
M  V30 2147 N 211.186 -5.58482 -4.09963 0
M  V30 2148 N 212.979 -4.42594 -3.46506 0
M  V30 2149 H 205.13 -2.09221 -0.366094 0
M  V30 2150 H 207.393 -0.921003 -0.224629 0
M  V30 2151 H 207.099 -3.228 -1.39618 0
M  V30 2152 H 206.973 -2.37934 -2.9269 0
M  V30 2153 H 209.36 -1.45494 -2.5674 0
M  V30 2154 H 209.441 -2.33857 -1.03657 0
M  V30 2155 H 209.085 -4.52545 -2.30576 0
M  V30 2156 H 209.015 -3.61092 -3.83302 0
M  V30 2157 H 211.506 -2.87022 -2.45819 0
M  V30 2158 H 211.819 -6.25704 -4.53557 0
M  V30 2159 H 210.164 -5.62305 -4.08459 0
M  V30 2160 H 213.355 -3.60953 -2.98045 0
M  V30 2161 H 213.528 -5.15381 -3.92793 0
M  V30 2162 N 206.934 1.1197 -1.10907 0
M  V30 2163 C 208.164 1.8713 -0.875553 0
M  V30 2164 C 208.572 1.8016 0.577843 0
M  V30 2165 O 207.915 1.17699 1.41042 0
M  V30 2166 C 207.977 3.37005 -1.2517 0
M  V30 2167 C 207.641 3.67748 -2.71313 0
M  V30 2168 C 208.638 3.65698 -3.69542 0
M  V30 2169 C 206.323 3.96928 -3.07821 0
M  V30 2170 C 208.317 3.92395 -5.023 0
M  V30 2171 C 206.004 4.23284 -4.40765 0
M  V30 2172 C 207.002 4.21005 -5.37814 0
M  V30 2173 O 206.69 4.46704 -6.68364 0
M  V30 2174 H 206.422 0.598786 -0.313737 0
M  V30 2175 H 208.976 1.42568 -1.47863 0
M  V30 2176 H 207.206 3.82146 -0.591741 0
M  V30 2177 H 208.895 3.93519 -0.994877 0
M  V30 2178 H 209.661 3.43211 -3.42682 0
M  V30 2179 H 205.54 3.97841 -2.32902 0
M  V30 2180 H 209.084 3.90531 -5.78041 0
M  V30 2181 H 204.981 4.45246 -4.67361 0
M  V30 2182 H 205.749 4.64299 -6.74069 0
M  V30 2183 N 208.412 0.89855 1.29475 0
M  V30 2184 C 209.658 0.524658 1.95896 0
M  V30 2185 C 209.991 -0.926468 1.70676 0
M  V30 2186 O 209.266 -1.65665 1.01908 0
M  V30 2187 C 209.549 0.81633 3.50725 0
M  V30 2188 C 209.402 2.31907 3.85408 0
M  V30 2189 C 210.721 0.302038 4.39062 0
M  V30 2190 H 207.84 0.19209 0.711527 0
M  V30 2191 H 210.482 1.12502 1.53112 0
M  V30 2192 H 208.632 0.305369 3.87298 0
M  V30 2193 H 210.304 2.89949 3.58786 0
M  V30 2194 H 208.547 2.78027 3.32992 0
M  V30 2195 H 209.218 2.47373 4.93468 0
M  V30 2196 H 211.694 0.739551 4.09475 0
M  V30 2197 H 210.57 0.535331 5.46283 0
M  V30 2198 H 210.831 -0.797216 4.34853 0
M  V30 2199 N 209.89 -1.43072 0.660911 0
M  V30 2200 C 211.167 -1.95307 0.107017 0
M  V30 2201 C 211.547 -1.60192 -1.37484 0
M  V30 2202 O 210.895 -0.890949 -2.10415 0
M  V30 2203 C 211.105 -3.47124 0.361402 0
M  V30 2204 C 212.453 -4.23738 0.270455 0
M  V30 2205 O 213.477 -3.54981 0.294382 0
M  V30 2206 O 212.336 -5.46131 0.200737 0
M  V30 2207 H 209.43 -0.826984 -0.00517729 0
M  V30 2208 H 211.976 -1.52972 0.734681 0
M  V30 2209 H 210.748 -3.65837 1.38848 0
M  V30 2210 H 210.371 -3.96475 -0.298953 0
M  V30 2211 N 211.368 -0.403325 -1.52352 0
M  V30 2212 C 212.278 0.432009 -2.30588 0
M  V30 2213 C 213.294 1.05884 -1.38075 0
M  V30 2214 O 214.47 1.06161 -1.71148 0
M  V30 2215 C 211.535 1.53669 -3.10784 0
M  V30 2216 C 210.596 0.933525 -4.19027 0
M  V30 2217 C 209.829 1.98557 -4.9539 0
M  V30 2218 O 210.052 3.20283 -4.71991 0
M  V30 2219 O 208.986 1.59504 -5.80381 0
M  V30 2220 H 212.812 -0.205739 -3.03002 0
M  V30 2221 H 210.397 -0.166675 -1.48467 0
M  V30 2222 H 212.279 2.17814 -3.60742 0
M  V30 2223 H 210.954 2.15915 -2.41169 0
M  V30 2224 H 209.861 0.254954 -3.7323 0
M  V30 2225 H 211.194 0.35508 -4.90918 0
M  V30 2226 N 212.846 1.57033 -0.133567 0
M  V30 2227 C 214.092 1.95976 0.521649 0
M  V30 2228 C 214.425 1.01779 1.65393 0
M  V30 2229 O 213.7 0.0576581 1.94415 0
M  V30 2230 C 213.983 3.44738 1.04057 0
M  V30 2231 C 213.836 4.49711 -0.0892897 0
M  V30 2232 C 215.155 3.95682 1.92675 0
M  V30 2233 H 212.274 0.712579 0.188149 0
M  V30 2234 H 214.916 1.88813 -0.212076 0
M  V30 2235 H 213.066 3.50973 1.66583 0
M  V30 2236 H 214.738 4.55565 -0.725152 0
M  V30 2237 H 212.981 4.27261 -0.750378 0
M  V30 2238 H 213.652 5.51099 0.315284 0
M  V30 2239 H 216.128 3.91841 1.39998 0
M  V30 2240 H 215.004 5.00262 2.25897 0
M  V30 2241 H 215.265 3.37239 2.85872 0
M  V30 2242 N 214.325 -0.140222 1.56975 0
M  V30 2243 C 215.571 -0.852949 1.83991 0
M  V30 2244 C 215.904 -1.80512 0.716187 0
M  V30 2245 O 215.179 -1.92479 -0.279681 0
M  V30 2246 C 215.462 -1.6215 3.21527 0
M  V30 2247 C 215.315 -0.690363 4.4447 0
M  V30 2248 C 216.634 -2.58247 3.56366 0
M  V30 2249 H 213.753 -0.308634 0.669264 0
M  V30 2250 H 216.395 -0.117898 1.89634 0
M  V30 2251 H 214.545 -2.24812 3.16847 0
M  V30 2252 H 216.217 -0.0742264 4.6124 0
M  V30 2253 H 214.46 -0.000396433 4.338 0
M  V30 2254 H 215.131 -1.2643 5.37326 0
M  V30 2255 H 217.607 -2.05701 3.61699 0
M  V30 2256 H 216.483 -3.09067 4.53617 0
M  V30 2257 H 216.744 -3.39923 2.82674 0
M  V30 2258 N 215.803 -1.52179 -0.40978 0
M  V30 2259 C 217.219 -1.40968 -0.74835 0
M  V30 2260 C 217.419 -0.513657 -1.94843 0
M  V30 2261 O 216.475 0.0208026 -2.52491 0
M  V30 2262 C 217.788 -2.83483 -1.0029 0
M  V30 2263 C 219.336 -2.92821 -1.10565 0
M  V30 2264 C 219.811 -4.36303 -1.39296 0
M  V30 2265 N 221.302 -4.39535 -1.46162 0
M  V30 2266 C 222.037 -5.47614 -1.70018 0
M  V30 2267 N 221.533 -6.65812 -1.91483 0
M  V30 2268 N 223.326 -5.35129 -1.72027 0
M  V30 2269 H 215.477 -2.0897 0.380186 0
M  V30 2270 H 217.74 -0.94185 0.107805 0
M  V30 2271 H 217.446 -3.51168 -0.193461 0
M  V30 2272 H 217.32 -3.24487 -1.92323 0
M  V30 2273 H 219.707 -2.25318 -1.90568 0
M  V30 2274 H 219.788 -2.55276 -0.16369 0
M  V30 2275 H 219.432 -5.04366 -0.598109 0
M  V30 2276 H 219.362 -4.71385 -2.34743 0
M  V30 2277 H 221.853 -3.54332 -1.31367 0
M  V30 2278 H 222.166 -7.43964 -2.09134 0
M  V30 2279 H 220.511 -6.68879 -1.88749 0
M  V30 2280 H 223.702 -4.41764 -1.54796 0
M  V30 2281 H 223.875 -6.19433 -1.9028 0
M  V30 2282 N 217.281 0.66697 -1.42791 0
M  V30 2283 C 218.229 1.80157 -1.47127 0
M  V30 2284 C 219.223 1.65825 -0.346199 0
M  V30 2285 O 220.429 1.72338 -0.519572 0
M  V30 2286 H 216.804 0.594158 -0.460956 0
M  V30 2287 H 218.775 1.73619 -2.42692 0
M  V30 2288 C 217.524 3.18351 -1.39813 0
M  V30 2289 H 216.847 3.3001 -2.25684 0
M  V30 2290 H 218.287 3.97736 -1.46908 0
M  V30 2291 C 216.746 3.36707 -0.11391 0
M  V30 2292 O 217.276 3.93027 0.830241 0
M  V30 2293 N 215.482 2.90586 -0.0285295 0
M  V30 2294 H 215.029 2.4494 -0.79764 0
M  V30 2295 H 214.987 3.03245 0.830063 0
M  V30 2296 N 218.759 1.29093 0.90403 0
M  V30 2297 C 219.722 1.1386 1.98919 0
M  V30 2298 C 220.722 0.0753457 1.60623 0
M  V30 2299 O 221.912 0.321931 1.71199 0
M  V30 2300 C 219.044 0.740198 3.32767 0
M  V30 2301 H 220.237 2.10246 2.13861 0
M  V30 2302 H 217.79 1.12218 1.08797 0
M  V30 2303 H 218.525 -0.223997 3.23525 0
M  V30 2304 H 218.31 1.50838 3.61926 0
M  V30 2305 H 219.8 0.656546 4.12407 0
M  V30 2306 N 220.237 -1.11381 1.11499 0
M  V30 2307 C 221.648 -1.6465 0.880191 0
M  V30 2308 C 221.999 -1.87199 -0.587434 0
M  V30 2309 O 221.124 -1.60667 -1.44966 0
M  V30 2310 C 221.719 -2.99105 1.59128 0
M  V30 2311 C 220.278 -3.49279 1.40289 0
M  V30 2312 C 219.425 -2.24077 1.63354 0
M  V30 2313 H 222.376 -0.950123 1.27116 0
M  V30 2314 H 222.397 -3.66107 1.03664 0
M  V30 2315 H 221.909 -2.82661 2.65941 0
M  V30 2316 H 220.01 -3.70887 0.356888 0
M  V30 2317 H 220.123 -4.2803 2.15238 0
M  V30 2318 H 218.487 -2.31733 1.05698 0
M  V30 2319 H 219.27 -2.10175 2.71443 0
M  V30 2320 N 221.715 -0.905404 -1.28997 0
M  V30 2321 C 222.961 -0.544465 -1.95977 0
M  V30 2322 C 223.316 0.90041 -1.70031 0
M  V30 2323 O 222.609 1.63064 -1.00601 0
M  V30 2324 C 222.803 -0.779906 -3.48787 0
M  V30 2325 C 222.632 -2.24612 -3.89589 0
M  V30 2326 C 221.402 -2.89464 -4.14172 0
M  V30 2327 C 223.6 -3.22182 -4.00878 0
M  V30 2328 N 221.582 -4.26469 -4.41585 0
M  V30 2329 C 222.953 -4.44323 -4.32409 0
M  V30 2330 C 225.008 -3.17694 -3.83373 0
M  V30 2331 C 223.711 -5.62546 -4.48258 0
M  V30 2332 C 225.737 -4.35208 -4.00435 0
M  V30 2333 C 225.099 -5.56121 -4.3233 0
M  V30 2334 H 221.198 -0.248948 -0.741316 0
M  V30 2335 H 223.782 -1.1674 -1.5582 0
M  V30 2336 H 221.953 -0.186308 -3.87953 0
M  V30 2337 H 223.685 -0.383833 -4.02876 0
M  V30 2338 H 220.44 -2.40232 -4.08149 0
M  V30 2339 H 220.864 -4.97283 -4.5939 0
M  V30 2340 H 225.506 -2.25297 -3.57773 0
M  V30 2341 H 223.224 -6.55429 -4.72692 0
M  V30 2342 H 226.81 -4.33228 -3.88336 0
M  V30 2343 H 225.69 -6.45537 -4.45255 0
M  V30 2344 N 223.193 1.4272 -0.668489 0
M  V30 2345 C 224.421 2.05966 -0.196348 0
M  V30 2346 C 224.836 1.50191 1.14403 0
M  V30 2347 O 224.193 0.639208 1.7094 0
M  V30 2348 C 224.244 3.61314 -0.115815 0
M  V30 2349 O 223.965 4.1502 -1.40322 0
M  V30 2350 C 225.466 4.41663 0.380579 0
M  V30 2351 H 222.686 0.663954 -0.0969829 0
M  V30 2352 H 225.23 1.82966 -0.913446 0
M  V30 2353 H 223.385 3.83448 0.551931 0
M  V30 2354 H 223.799 5.08832 -1.27243 0
M  V30 2355 H 225.273 5.5065 0.385848 0
M  V30 2356 H 225.75 4.15792 1.41471 0
M  V30 2357 H 226.356 4.24534 -0.255209 0
M  V30 2358 N 224.671 0.411399 1.52136 0
M  V30 2359 C 225.601 -0.404015 2.29978 0
M  V30 2360 C 226.582 -1.04412 1.34284 0
M  V30 2361 O 227.767 -1.0527 1.63192 0
M  V30 2362 C 224.897 -1.5197 3.12286 0
M  V30 2363 C 223.851 -1.00448 4.16046 0
M  V30 2364 C 223.177 -2.21393 4.86712 0
M  V30 2365 C 224.477 -0.0569336 5.22269 0
M  V30 2366 H 226.171 0.245529 2.98392 0
M  V30 2367 H 223.717 0.119525 1.43503 0
M  V30 2368 H 225.67 -2.09715 3.6551 0
M  V30 2369 H 224.394 -2.19716 2.41646 0
M  V30 2370 H 223.053 -0.449421 3.63835 0
M  V30 2371 H 222.701 -2.87699 4.12599 0
M  V30 2372 H 222.401 -1.87571 5.56858 0
M  V30 2373 H 223.925 -2.7974 5.4275 0
M  V30 2374 H 225.339 -0.54325 5.7072 0
M  V30 2375 H 223.736 0.192594 5.99791 0
M  V30 2376 H 224.806 0.887663 4.76706 0
M  V30 2377 N 226.149 -1.5696 0.141893 0
M  V30 2378 C 227.377 -2.00322 -0.517579 0
M  V30 2379 C 227.792 -1.02193 -1.58752 0
M  V30 2380 O 227.149 -0.0181619 -1.82491 0
M  V30 2381 C 227.2 -3.43618 -1.12289 0
M  V30 2382 O 226.921 -4.37995 -0.0956929 0
M  V30 2383 C 228.422 -4.02231 -1.86347 0
M  V30 2384 H 225.642 -0.657243 -0.135177 0
M  V30 2385 H 228.186 -2.03146 0.234973 0
M  V30 2386 H 226.341 -3.41662 -1.82609 0
M  V30 2387 H 226.755 -5.21729 -0.538469 0
M  V30 2388 H 228.229 -5.04509 -2.23997 0
M  V30 2389 H 228.706 -3.42655 -2.74744 0
M  V30 2390 H 229.312 -4.07802 -1.20737 0
M  V30 2391 N 227.627 0.131896 -1.57047 0
M  V30 2392 C 229.038 0.690407 -1.73465 0
M  V30 2393 C 229.389 1.8094 -0.758629 0
M  V30 2394 O 228.514 2.16282 0.0713813 0
M  V30 2395 C 229.109 1.25916 -3.14532 0
M  V30 2396 C 227.668 1.76409 -3.32501 0
M  V30 2397 C 226.815 0.658579 -2.69366 0
M  V30 2398 H 229.766 -0.0939144 -1.58422 0
M  V30 2399 H 229.787 2.12892 -3.15369 0
M  V30 2400 H 229.299 0.444515 -3.85546 0
M  V30 2401 H 227.4 2.60391 -2.66509 0
M  V30 2402 H 227.513 1.88241 -4.4057 0
M  V30 2403 H 225.877 1.08899 -2.30246 0
M  V30 2404 H 226.66 -0.14487 -3.42994 0
M  V30 2405 N 229.106 1.52395 0.401703 0
M  V30 2406 C 230.016 1.7917 1.51444 0
M  V30 2407 C 231.032 0.677691 1.6026 0
M  V30 2408 O 232.208 0.963909 1.76835 0
M  V30 2409 C 229.273 1.94347 2.87107 0
M  V30 2410 C 228.334 3.18257 2.88116 0
M  V30 2411 C 227.567 3.32701 4.17308 0
M  V30 2412 O 227.79 2.52238 5.11598 0
M  V30 2413 O 226.724 4.25891 4.25324 0
M  V30 2414 H 230.55 2.73633 1.31752 0
M  V30 2415 H 228.135 1.3733 0.588296 0
M  V30 2416 H 230.017 2.06109 3.67555 0
M  V30 2417 H 228.692 1.03073 3.06851 0
M  V30 2418 H 227.599 3.11947 2.06494 0
M  V30 2419 H 228.932 4.09336 2.73322 0
M  V30 2420 N 230.584 -0.659388 1.43143 0
M  V30 2421 C 231.831 -1.41935 1.44433 0
M  V30 2422 C 232.159 -1.94387 0.0663522 0
M  V30 2423 O 231.414 -1.72314 -0.927706 0
M  V30 2424 C 231.713 -2.62206 2.42864 0
M  V30 2425 C 231.379 -2.28208 3.88886 0
M  V30 2426 C 230.041 -2.18647 4.28657 0
M  V30 2427 C 232.393 -2.00887 4.8093 0
M  V30 2428 C 229.721 -1.79914 5.58433 0
M  V30 2429 C 232.073 -1.63653 6.11065 0
M  V30 2430 C 230.737 -1.52614 6.49819 0
M  V30 2431 H 230.007 -0.519376 0.528517 0
M  V30 2432 H 232.654 -0.750453 1.76183 0
M  V30 2433 H 230.959 -3.34199 2.04495 0
M  V30 2434 H 232.656 -3.2041 2.41119 0
M  V30 2435 H 229.246 -2.36557 3.57406 0
M  V30 2436 H 233.43 -2.07198 4.5098 0
M  V30 2437 H 228.686 -1.69948 5.87305 0
M  V30 2438 H 232.86 -1.41543 6.81864 0
M  V30 2439 H 230.487 -1.22371 7.50286 0
M  V30 2440 N 232.062 -1.29571 -0.897171 0
M  V30 2441 C 232.992 -1.17473 -2.01798 0
M  V30 2442 C 233.973 -0.068323 -1.69963 0
M  V30 2443 O 235.158 -0.248239 -1.92607 0
M  V30 2444 C 232.288 -0.853099 -3.36659 0
M  V30 2445 C 231.242 -1.9161 -3.82713 0
M  V30 2446 C 230.568 -1.44773 -5.14728 0
M  V30 2447 C 231.868 -3.32535 -4.02763 0
M  V30 2448 H 233.562 -2.11237 -2.12177 0
M  V30 2449 H 231.108 -1.01699 -1.01948 0
M  V30 2450 H 233.061 -0.755165 -4.14578 0
M  V30 2451 H 231.785 0.120236 -3.26379 0
M  V30 2452 H 230.444 -2.00346 -3.07013 0
M  V30 2453 H 230.092 -0.462995 -5.00865 0
M  V30 2454 H 229.792 -2.15865 -5.46513 0
M  V30 2455 H 231.316 -1.36334 -5.95185 0
M  V30 2456 H 232.73 -3.26626 -4.71156 0
M  V30 2457 H 231.127 -4.01607 -4.45905 0
M  V30 2458 H 232.197 -3.75326 -3.07016 0
M  V30 2459 N 233.54 1.10788 -1.12088 0
M  V30 2460 C 234.503 2.15207 -0.788577 0
M  V30 2461 C 235.503 1.59609 0.195317 0
M  V30 2462 O 236.693 1.74174 -0.0300193 0
M  V30 2463 C 233.825 3.4047 -0.171174 0
M  V30 2464 H 235.018 2.46116 -1.71368 0
M  V30 2465 H 232.571 1.26089 -0.923652 0
M  V30 2466 H 233.306 3.15176 0.763832 0
M  V30 2467 H 233.091 3.82109 -0.879514 0
M  V30 2468 H 234.581 4.17576 0.04496 0
M  V30 2469 N 235.018 0.912232 1.28515 0
M  V30 2470 C 235.928 0.404506 2.31086 0
M  V30 2471 C 236.944 -0.50707 1.66448 0
M  V30 2472 O 238.12 -0.393624 1.97516 0
M  V30 2473 C 235.185 -0.348572 3.44943 0
M  V30 2474 C 234.246 0.59604 4.25142 0
M  V30 2475 C 233.479 -0.121194 5.33562 0
M  V30 2476 O 233.702 -1.34317 5.5436 0
M  V30 2477 O 232.636 0.542716 5.99448 0
M  V30 2478 H 236.462 1.25579 2.76521 0
M  V30 2479 H 234.047 0.676998 1.33181 0
M  V30 2480 H 235.929 -0.77395 4.14232 0
M  V30 2481 H 234.604 -1.17571 3.01594 0
M  V30 2482 H 233.511 1.07079 3.58448 0
M  V30 2483 H 234.844 1.38995 4.72167 0
M  V30 2484 N 236.496 -1.42363 0.676048 0
M  V30 2485 C 237.446 -2.27987 -0.0242903 0
M  V30 2486 C 238.43 -1.41153 -0.772319 0
M  V30 2487 O 239.622 -1.64592 -0.651025 0
M  V30 2488 C 236.751 -3.29195 -0.973953 0
M  V30 2489 C 235.837 -4.23512 -0.223202 0
M  V30 2490 N 236.228 -4.99865 0.772589 0
M  V30 2491 C 234.526 -4.43606 -0.461469 0
M  V30 2492 C 235.227 -5.68757 1.22027 0
M  V30 2493 N 234.203 -5.40811 0.549975 0
M  V30 2494 H 238.005 -2.84445 0.73949 0
M  V30 2495 H 235.519 -1.54341 0.50522 0
M  V30 2496 H 237.516 -3.89339 -1.49067 0
M  V30 2497 H 236.176 -2.74298 -1.73755 0
M  V30 2498 H 237.187 -5.04921 1.15217 0
M  V30 2499 H 233.864 -3.99749 -1.20446 0
M  V30 2500 H 235.254 -6.40007 2.0455 0
M  V30 2501 N 237.974 -0.419461 -1.51915 0
M  V30 2502 C 239.39 -0.0708431 -1.59443 0
M  V30 2503 C 239.59 1.41796 -1.43164 0
M  V30 2504 O 238.646 2.18596 -1.26381 0
M  V30 2505 C 239.959 -0.574991 -2.95151 0
M  V30 2506 C 241.507 -0.533867 -3.08413 0
M  V30 2507 C 241.982 -1.01469 -4.46618 0
M  V30 2508 N 243.473 -0.971939 -4.52888 0
M  V30 2509 C 244.208 -1.31505 -5.58116 0
M  V30 2510 N 243.704 -1.73014 -6.70849 0
M  V30 2511 N 245.497 -1.23436 -5.48379 0
M  V30 2512 H 237.648 -1.38836 -1.60743 0
M  V30 2513 H 239.911 -0.570998 -0.756747 0
M  V30 2514 H 239.617 -1.61597 -3.12377 0
M  V30 2515 H 239.491 0.00979777 -3.77199 0
M  V30 2516 H 241.878 0.498086 -2.90866 0
M  V30 2517 H 241.959 -1.15484 -2.28248 0
M  V30 2518 H 241.603 -2.04502 -4.6491 0
M  V30 2519 H 241.533 -0.370433 -5.25295 0
M  V30 2520 H 244.024 -0.666893 -3.71969 0
M  V30 2521 H 244.337 -1.97479 -7.47143 0
M  V30 2522 H 242.682 -1.76926 -6.72103 0
M  V30 2523 H 245.873 -0.908869 -4.59192 0
M  V30 2524 H 246.046 -1.50506 -6.30279 0
M  V30 2525 N 239.452 1.56882 -0.150215 0
M  V30 2526 C 240.701 1.95403 0.500071 0
M  V30 2527 C 241.014 1.03777 1.658 0
M  V30 2528 O 242.22 1.31889 2.37313 0
M  V30 2529 C 240.676 3.4738 0.941018 0
M  V30 2530 C 240.284 4.47596 -0.190158 0
M  V30 2531 C 242.028 3.9476 1.56091 0
M  V30 2532 C 239.935 5.90787 0.269237 0
M  V30 2533 H 238.865 0.729515 0.190588 0
M  V30 2534 H 241.516 1.81988 -0.235074 0
M  V30 2535 H 239.898 3.56138 1.73152 0
M  V30 2536 H 241.072 4.50536 -0.967157 0
M  V30 2537 H 239.387 4.10151 -0.718666 0
M  V30 2538 H 241.984 4.99181 1.9163 0
M  V30 2539 H 242.327 3.36494 2.45107 0
M  V30 2540 H 242.86 3.88932 0.835249 0
M  V30 2541 H 239.599 6.52879 -0.585621 0
M  V30 2542 H 239.119 5.912 1.01204 0
M  V30 2543 H 240.798 6.42979 0.720176 0
M  V30 2544 N 240.93 -0.123565 1.57115 0
M  V30 2545 C 242.207 -0.862196 1.75572 0
M  V30 2546 C 242.587 -1.98279 0.724475 0
M  V30 2547 O 241.935 -2.27102 -0.252407 0
M  V30 2548 C 242.145 -1.38309 3.20424 0
M  V30 2549 C 243.493 -1.83724 3.82793 0
M  V30 2550 O 244.517 -1.47999 3.23998 0
M  V30 2551 O 243.376 -2.49685 4.86127 0
M  V30 2552 H 240.47 -0.409113 0.718718 0
M  V30 2553 H 243.016 -0.107661 1.69358 0
M  V30 2554 H 241.788 -0.578889 3.86994 0
M  V30 2555 H 241.411 -2.20046 3.31158 0
M  V30 2556 N 242.408 -1.52605 -0.393616 0
M  V30 2557 C 243.655 -1.67424 -1.1391 0
M  V30 2558 C 243.983 -0.411859 -1.90089 0
M  V30 2559 O 243.238 0.605626 -1.86093 0
M  V30 2560 C 243.537 -2.85721 -2.14705 0
M  V30 2561 C 243.203 -4.23342 -1.55218 0
M  V30 2562 C 241.865 -4.60771 -1.3872 0
M  V30 2563 C 244.217 -5.09041 -1.11924 0
M  V30 2564 C 241.545 -5.81563 -0.774689 0
M  V30 2565 C 243.897 -6.30452 -0.520853 0
M  V30 2566 C 242.561 -6.66617 -0.343134 0
M  V30 2567 H 241.831 -0.612648 -0.416826 0
M  V30 2568 H 244.478 -1.8674 -0.424315 0
M  V30 2569 H 242.783 -2.60803 -2.92385 0
M  V30 2570 H 244.48 -2.94382 -2.72288 0
M  V30 2571 H 241.07 -3.93855 -1.69045 0
M  V30 2572 H 245.254 -4.80695 -1.23473 0
M  V30 2573 H 240.51 -6.08196 -0.625154 0
M  V30 2574 H 244.684 -6.96175 -0.177065 0
M  V30 2575 H 242.311 -7.60083 0.133571 0
M  V30 2576 N 243.887 0.651787 -1.4349 0
M  V30 2577 C 245.133 1.41376 -1.45398 0
M  V30 2578 C 245.466 1.94041 -0.0784823 0
M  V30 2579 O 244.741 1.72379 0.900878 0
M  V30 2580 C 245.024 2.59414 -2.49752 0
M  V30 2581 C 244.877 2.12232 -3.96582 0
M  V30 2582 C 246.196 3.61626 -2.50827 0
M  V30 2583 H 243.315 0.512719 -0.529422 0
M  V30 2584 H 245.957 0.738796 -1.75048 0
M  V30 2585 H 244.107 3.16997 -2.246 0
M  V30 2586 H 245.779 1.59639 -4.32797 0
M  V30 2587 H 244.022 1.43592 -4.09346 0
M  V30 2588 H 244.693 2.9712 -4.65214 0
M  V30 2589 H 247.169 3.13805 -2.7325 0
M  V30 2590 H 246.045 4.41766 -3.25783 0
M  V30 2591 H 246.306 4.14314 -1.5426 0
M  V30 2592 N 245.365 1.30045 0.890287 0
M  V30 2593 C 246.328 1.15963 1.977 0
M  V30 2594 C 247.328 0.0923777 1.60534 0
M  V30 2595 O 248.518 0.340071 1.70848 0
M  V30 2596 C 245.65 0.775451 3.31963 0
M  V30 2597 H 246.843 2.12502 2.11619 0
M  V30 2598 H 244.396 1.13366 1.07601 0
M  V30 2599 H 245.131 -0.189671 3.23745 0
M  V30 2600 H 244.916 1.54668 3.60306 0
M  V30 2601 H 246.406 0.700251 4.11687 0
M  V30 2602 N 246.843 -1.10192 1.12674 0
M  V30 2603 C 247.793 -2.14754 0.765801 0
M  V30 2604 C 248.777 -1.59154 -0.236409 0
M  V30 2605 O 249.969 -1.76951 -0.0415261 0
M  V30 2606 C 247.098 -3.42563 0.224827 0
M  V30 2607 C 246.184 -4.05091 1.25548 0
M  V30 2608 N 246.575 -4.42287 2.4539 0
M  V30 2609 C 244.873 -4.32186 1.10142 0
M  V30 2610 C 245.574 -4.91441 3.11224 0
M  V30 2611 N 244.55 -4.88405 2.38666 0
M  V30 2612 H 248.352 -2.41309 1.67772 0
M  V30 2613 H 245.866 -1.27339 1.00789 0
M  V30 2614 H 247.863 -4.16868 -0.0519578 0
M  V30 2615 H 246.523 -3.17467 -0.681515 0
M  V30 2616 H 247.534 -4.33902 2.82754 0
M  V30 2617 H 244.211 -4.16735 0.252587 0
M  V30 2618 H 245.601 -5.29749 4.13298 0
M  V30 2619 N 248.321 -0.919034 -1.28029 0
M  V30 2620 C 249.598 -0.473668 -1.89778 0
M  V30 2621 C 249.978 1.04783 -1.83259 0
M  V30 2622 O 249.326 1.8982 -1.27202 0
M  V30 2623 C 249.536 -1.00998 -3.34066 0
M  V30 2624 C 250.884 -1.06525 -4.1102 0
M  V30 2625 O 251.908 -0.958996 -3.43048 0
M  V30 2626 O 250.767 -1.22776 -5.3253 0
M  V30 2627 H 247.861 -0.15098 -0.813101 0
M  V30 2628 H 250.407 -1.01016 -1.36359 0
M  V30 2629 H 249.179 -2.05392 -3.33061 0
M  V30 2630 H 248.802 -0.454626 -3.94992 0
M  V30 2631 N 249.799 1.42003 -0.683588 0
M  V30 2632 C 251.076 1.95112 -0.138075 0
M  V30 2633 C 251.456 1.62359 1.34918 0
M  V30 2634 O 250.804 0.924311 2.08971 0
M  V30 2635 C 251.014 3.46505 -0.416581 0
M  V30 2636 C 252.362 4.23254 -0.337834 0
M  V30 2637 O 253.386 3.54468 -0.35082 0
M  V30 2638 O 252.245 5.45743 -0.287596 0
M  V30 2639 H 249.339 0.826961 -0.00797996 0
M  V30 2640 H 251.885 1.51784 -0.758924 0
M  V30 2641 H 250.657 3.63582 -1.4465 0
M  V30 2642 H 250.28 3.969 0.235839 0
M  V30 2643 N 251.277 0.427512 1.51691 0
M  V30 2644 C 252.526 -0.143679 2.01188 0
M  V30 2645 C 252.839 -1.44642 1.31674 0
M  V30 2646 O 254.045 -2.09997 1.72086 0
M  V30 2647 C 252.501 -0.306602 3.58592 0
M  V30 2648 C 252.109 0.985125 4.37035 0
M  V30 2649 C 253.853 -0.832091 4.16265 0
M  V30 2650 C 251.76 0.788382 5.86122 0
M  V30 2651 H 250.69 -0.0574701 0.751807 0
M  V30 2652 H 253.341 0.555772 1.74881 0
M  V30 2653 H 251.723 -1.06882 3.81303 0
M  V30 2654 H 252.897 1.75492 4.26074 0
M  V30 2655 H 251.212 1.4384 3.90767 0
M  V30 2656 H 253.809 -0.995617 5.25349 0
M  V30 2657 H 254.152 -1.81186 3.74803 0
M  V30 2658 H 254.685 -0.128444 3.97593 0
M  V30 2659 H 251.424 1.74025 6.31978 0
M  V30 2660 H 250.944 0.0582143 5.99772 0
M  V30 2661 H 252.623 0.437722 6.45518 0
M  V30 2662 N 252.755 -1.56801 0.158532 0
M  V30 2663 C 254.166 -1.83189 -0.360366 0
M  V30 2664 C 254.517 -1.07778 -1.63946 0
M  V30 2665 O 253.642 -0.326718 -2.13919 0
M  V30 2666 C 254.237 -3.32297 -0.660595 0
M  V30 2667 C 252.796 -3.59227 -1.12398 0
M  V30 2668 C 251.943 -2.76877 -0.153097 0
M  V30 2669 H 254.894 -1.54008 0.383031 0
M  V30 2670 H 254.915 -3.4908 -1.51405 0
M  V30 2671 H 254.427 -3.87156 0.270527 0
M  V30 2672 H 252.528 -3.09766 -2.07064 0
M  V30 2673 H 252.641 -4.67632 -1.04197 0
M  V30 2674 H 251.005 -2.46319 -0.647983 0
M  V30 2675 H 251.788 -3.34511 0.77182 0
M  V30 2676 N 254.233 0.115231 -1.57178 0
M  V30 2677 C 255.463 0.835224 -1.88964 0
M  V30 2678 C 255.871 1.73774 -0.74829 0
M  V30 2679 O 255.214 1.81401 0.289739 0
M  V30 2680 C 255.276 1.7178 -3.15804 0
M  V30 2681 C 254.94 0.989198 -4.46166 0
M  V30 2682 C 255.937 0.328263 -5.18863 0
M  V30 2683 C 253.622 0.969256 -4.9286 0
M  V30 2684 C 255.616 -0.342873 -6.36477 0
M  V30 2685 C 253.303 0.294324 -6.10391 0
M  V30 2686 C 254.301 -0.360582 -6.82048 0
M  V30 2687 O 253.989 -1.02474 -7.97342 0
M  V30 2688 H 253.721 0.245197 -0.629964 0
M  V30 2689 H 256.275 0.10303 -2.05141 0
M  V30 2690 H 254.505 2.49173 -2.95719 0
M  V30 2691 H 256.194 2.31255 -3.33581 0
M  V30 2692 H 256.96 0.335263 -4.8384 0
M  V30 2693 H 252.839 1.46844 -4.36987 0
M  V30 2694 H 256.383 -0.854629 -6.92345 0
M  V30 2695 H 252.28 0.285099 -6.4487 0
M  V30 2696 H 253.048 -0.929594 -8.13204 0
M  V30 2697 N 255.711 1.52812 0.385517 0
M  V30 2698 C 256.936 1.72207 1.15583 0
M  V30 2699 C 257.361 0.441034 1.82857 0
M  V30 2700 O 256.719 -0.603465 1.70962 0
M  V30 2701 C 256.767 2.87476 2.17692 0
M  V30 2702 O 255.871 2.54693 3.24354 0
M  V30 2703 H 255.212 0.572526 0.336319 0
M  V30 2704 H 257.742 1.99618 0.448744 0
M  V30 2705 H 257.752 3.13072 2.6163 0
M  V30 2706 H 256.427 3.80408 1.68115 0
M  V30 2707 H 255.004 2.3985 2.85529 0
M  V30 2708 N 257.189 -0.644168 1.43834 0
M  V30 2709 C 258.414 -1.43642 1.49605 0
M  V30 2710 C 258.839 -1.8773 0.117913 0
M  V30 2711 O 258.197 -1.57938 -0.890239 0
M  V30 2712 C 258.245 -2.6416 2.45463 0
M  V30 2713 O 257.349 -3.63538 1.94714 0
M  V30 2714 H 256.69 -0.430329 0.50568 0
M  V30 2715 H 259.22 -0.787448 1.8884 0
M  V30 2716 H 259.23 -3.11864 2.63068 0
M  V30 2717 H 257.905 -2.31414 3.45572 0
M  V30 2718 H 256.482 -3.2273 1.86814 0
M  V30 2719 N 258.668 -1.30515 -0.883378 0
M  V30 2720 C 259.631 -1.1701 -1.97082 0
M  V30 2721 C 260.631 -0.10089 -1.60483 0
M  V30 2722 O 261.821 -0.349127 -1.70666 0
M  V30 2723 C 258.953 -0.793045 -3.31547 0
M  V30 2724 H 260.146 -2.13622 -2.10489 0
M  V30 2725 H 257.699 -1.13935 -1.06998 0
M  V30 2726 H 258.434 0.172499 -3.23841 0
M  V30 2727 H 258.219 -1.56576 -3.5948 0
M  V30 2728 H 259.709 -0.722073 -4.1131 0
M  V30 2729 N 260.146 1.09593 -1.13257 0
M  V30 2730 C 261.394 1.81375 -0.891492 0
M  V30 2731 C 261.715 1.86049 0.584009 0
M  V30 2732 O 260.985 1.34481 1.42449 0
M  V30 2733 H 259.565 0.671708 -0.326828 0
M  V30 2734 H 262.227 1.3256 -1.42877 0
M  V30 2735 H 261.323 2.84612 -1.28071 0
M  V30 2736 N 261.624 0.925811 1.2754 0
M  V30 2737 C 262.849 0.580924 1.99098 0
M  V30 2738 C 263.274 -0.833555 1.68622 0
M  V30 2739 O 262.632 -1.55903 0.925422 0
M  V30 2740 C 262.68 0.811186 3.51358 0
M  V30 2741 O 261.784 -0.124129 4.12213 0
M  V30 2742 H 261.125 0.223873 0.625122 0
M  V30 2743 H 263.655 1.24455 1.62395 0
M  V30 2744 H 263.665 0.72601 4.01489 0
M  V30 2745 H 262.34 1.84227 3.72872 0
M  V30 2746 H 260.917 0.0108006 3.72898 0
M  V30 2747 N 263.102 -1.41638 0.69111 0
M  V30 2748 C 264.379 -1.95036 0.148421 0
M  V30 2749 C 264.759 -1.63072 -1.34055 0
M  V30 2750 O 264.107 -0.93538 -2.08478 0
M  V30 2751 C 264.317 -3.46279 0.434951 0
M  V30 2752 C 265.665 -4.23069 0.360275 0
M  V30 2753 O 266.689 -3.54277 0.369613 0
M  V30 2754 O 265.548 -5.45583 0.316534 0
M  V30 2755 H 262.642 -0.826908 0.0123654 0
M  V30 2756 H 265.188 -1.5138 0.766963 0
M  V30 2757 H 263.96 -3.6281 1.46576 0
M  V30 2758 H 263.583 -3.97019 -0.214787 0
M  V30 2759 N 264.58 -0.43555 -1.51462 0
M  V30 2760 C 265.857 0.191364 -1.94662 0
M  V30 2761 C 266.237 1.60254 -1.37411 0
M  V30 2762 O 265.585 2.2152 -0.560458 0
M  V30 2763 C 265.795 0.17091 -3.48581 0
M  V30 2764 C 267.143 0.377357 -4.2292 0
M  V30 2765 O 268.167 0.249104 -3.55328 0
M  V30 2766 O 267.026 0.63247 -5.42828 0
M  V30 2767 H 264.12 0.130932 -0.816569 0
M  V30 2768 H 266.666 -0.4934 -1.62369 0
M  V30 2769 H 265.438 -0.815738 -3.82703 0
M  V30 2770 H 265.061 0.898659 -3.87311 0
M  V30 2771 N 266.058 1.56714 -0.166846 0
M  V30 2772 C 267.304 1.97039 0.479962 0
M  V30 2773 C 267.637 1.05264 1.63197 0
M  V30 2774 O 266.912 0.0988833 1.94248 0
M  V30 2775 C 267.195 3.46867 0.967212 0
M  V30 2776 C 267.048 4.49421 -0.18466 0
M  V30 2777 C 268.367 3.9968 1.84238 0
M  V30 2778 H 265.486 0.71641 0.172992 0
M  V30 2779 H 268.128 1.8832 -0.252079 0
M  V30 2780 H 266.278 3.54428 1.59101 0
M  V30 2781 H 267.95 4.53924 -0.821621 0
M  V30 2782 H 266.193 4.25573 -0.840837 0
M  V30 2783 H 266.864 5.51644 0.198317 0
M  V30 2784 H 269.34 3.94723 1.31655 0
M  V30 2785 H 268.216 5.04941 2.15234 0
M  V30 2786 H 268.477 3.43226 2.78654 0
M  V30 2787 N 267.536 -0.106894 1.57237 0
M  V30 2788 C 268.766 -0.825191 1.89405 0
M  V30 2789 C 269.174 -1.73374 0.757496 0
M  V30 2790 O 268.517 -1.81552 -0.280115 0
M  V30 2791 C 268.579 -1.70102 3.1671 0
M  V30 2792 C 268.243 -0.965523 4.46684 0
M  V30 2793 C 269.24 -0.300741 5.19029 0
M  V30 2794 C 266.925 -0.943105 4.93367 0
M  V30 2795 C 268.919 0.376622 6.36286 0
M  V30 2796 C 266.606 -0.261949 6.10538 0
M  V30 2797 C 267.604 0.396748 6.81847 0
M  V30 2798 O 267.292 1.06701 7.96787 0
M  V30 2799 H 267.024 -0.241852 0.631255 0
M  V30 2800 H 269.578 -0.0921491 2.05193 0
M  V30 2801 H 267.808 -2.47601 2.97036 0
M  V30 2802 H 269.497 -2.29483 3.34802 0
M  V30 2803 H 270.263 -0.309599 4.84011 0
M  V30 2804 H 266.142 -1.44524 4.3776 0
M  V30 2805 H 269.686 0.891334 6.91882 0
M  V30 2806 H 265.583 -0.250896 6.45012 0
M  V30 2807 H 266.351 0.972707 8.127 0
M  V30 2808 N 269.014 -1.53014 -0.377408 0
M  V30 2809 C 269.961 -1.78616 -1.46168 0
M  V30 2810 C 270.931 -0.629917 -1.53692 0
M  V30 2811 O 272.116 -0.870861 -1.69766 0
M  V30 2812 C 269.256 -1.97123 -2.8326 0
M  V30 2813 C 268.369 -3.24831 -2.84796 0
M  V30 2814 C 267.504 -3.33591 -4.13389 0
M  V30 2815 C 266.543 -4.55377 -4.09021 0
M  V30 2816 N 265.68 -4.61355 -5.29241 0
M  V30 2817 H 270.52 -2.71142 -1.23637 0
M  V30 2818 H 268.057 -1.34326 -0.599577 0
M  V30 2819 H 270.015 -2.05839 -3.62886 0
M  V30 2820 H 268.645 -1.07946 -3.04216 0
M  V30 2821 H 267.697 -3.25128 -1.97474 0
M  V30 2822 H 269.009 -4.14523 -2.77439 0
M  V30 2823 H 268.163 -3.41554 -5.01424 0
M  V30 2824 H 266.902 -2.41894 -4.23484 0
M  V30 2825 H 265.907 -4.47527 -3.19373 0
M  V30 2826 H 267.132 -5.48402 -4.00539 0
M  V30 2827 H 265.078 -3.72554 -5.39944 0
M  V30 2828 H 264.995 -5.44935 -5.24006 0
M  V30 2829 H 266.263 -4.73586 -6.19141 0
M  V30 2830 N 270.492 0.636531 -1.44174 0
M  V30 2831 C 271.442 1.74233 -1.47061 0
M  V30 2832 C 272.426 1.57331 -0.337034 0
M  V30 2833 O 273.618 1.67159 -0.581973 0
M  V30 2834 C 270.747 3.12897 -1.41246 0
M  V30 2835 C 269.833 3.35288 -2.59698 0
M  V30 2836 N 270.224 3.2807 -3.84972 0
M  V30 2837 C 268.522 3.66065 -2.54778 0
M  V30 2838 C 269.223 3.51001 -4.63867 0
M  V30 2839 N 268.199 3.73616 -3.94857 0
M  V30 2840 H 272.001 1.67103 -2.41773 0
M  V30 2841 H 269.515 0.838806 -1.3906 0
M  V30 2842 H 271.512 3.92189 -1.41398 0
M  V30 2843 H 270.172 3.21197 -0.47569 0
M  V30 2844 H 271.183 3.07109 -4.17019 0
M  V30 2845 H 267.86 3.81379 -1.6987 0
M  V30 2846 H 269.25 3.51059 -5.72894 0
M  V30 2847 N 271.97 1.30982 0.876444 0
M  V30 2848 C 273.219 1.19658 1.62373 0
M  V30 2849 C 273.532 -0.245636 1.94052 0
M  V30 2850 O 274.738 -0.48049 2.67214 0
M  V30 2851 C 273.194 2.09433 2.92687 0
M  V30 2852 C 272.802 3.58613 2.68516 0
M  V30 2853 C 274.546 2.06893 3.70669 0
M  V30 2854 C 272.453 4.40416 3.94699 0
M  V30 2855 H 271.383 0.444268 0.609214 0
M  V30 2856 H 274.034 1.55791 0.969605 0
M  V30 2857 H 272.416 1.66191 3.59439 0
M  V30 2858 H 273.59 4.10058 2.10212 0
M  V30 2859 H 271.905 3.63063 2.03898 0
M  V30 2860 H 274.502 2.65258 4.64265 0
M  V30 2861 H 274.845 1.05448 4.02724 0
M  V30 2862 H 275.378 2.48301 3.10792 0
M  V30 2863 H 272.117 5.42591 3.67798 0
M  V30 2864 H 271.637 3.93731 4.52477 0
M  V30 2865 H 273.316 4.52294 4.62644 0
M  V30 2866 N 273.449 -1.08991 1.13837 0
M  V30 2867 C 274.396 -2.15748 0.819835 0
M  V30 2868 C 275.366 -1.64636 -0.220026 0
M  V30 2869 O 276.551 -1.90582 -0.0912757 0
M  V30 2870 C 273.691 -3.4382 0.296913 0
M  V30 2871 C 272.804 -4.0881 1.39636 0
M  V30 2872 C 271.939 -5.24655 0.831314 0
M  V30 2873 C 270.978 -5.81575 1.90886 0
M  V30 2874 N 270.115 -6.88774 1.36142 0
M  V30 2875 H 274.955 -2.42338 1.73426 0
M  V30 2876 H 272.492 -1.18935 0.865613 0
M  V30 2877 H 274.45 -4.17193 -0.0244339 0
M  V30 2878 H 273.08 -3.17535 -0.580628 0
M  V30 2879 H 272.132 -3.33258 1.83422 0
M  V30 2880 H 273.444 -4.47141 2.21058 0
M  V30 2881 H 272.598 -6.04942 0.461515 0
M  V30 2882 H 271.337 -4.87698 -0.013932 0
M  V30 2883 H 270.342 -4.99946 2.28767 0
M  V30 2884 H 271.567 -6.20592 2.75758 0
M  V30 2885 H 269.513 -6.53788 0.538254 0
M  V30 2886 H 269.43 -7.25898 2.11208 0
M  V30 2887 H 270.698 -7.72806 1.01933 0
M  V30 2888 N 274.927 -0.932562 -1.27047 0
M  V30 2889 C 275.837 -0.441219 -2.30414 0
M  V30 2890 C 276.853 0.480525 -1.67233 0
M  V30 2891 O 278.029 0.362151 -1.98117 0
M  V30 2892 C 275.094 0.293651 -3.45454 0
M  V30 2893 C 274.155 -0.663601 -4.2414 0
M  V30 2894 C 273.388 0.0362932 -5.33688 0
M  V30 2895 O 273.611 1.2548 -5.56427 0
M  V30 2896 O 272.545 -0.638015 -5.98509 0
M  V30 2897 H 276.371 -1.29962 -2.74488 0
M  V30 2898 H 273.956 -0.6981 -1.32087 0
M  V30 2899 H 275.838 0.707951 -4.15411 0
M  V30 2900 H 274.513 1.12758 -3.03426 0
M  V30 2901 H 273.42 -1.12768 -3.56699 0
M  V30 2902 H 274.753 -1.46489 -4.69896 0
M  V30 2903 N 276.405 1.4127 -0.698611 0
M  V30 2904 C 277.368 2.29158 -0.044132 0
M  V30 2905 C 278.368 1.44529 0.704841 0
M  V30 2906 O 279.558 1.65643 0.539276 0
M  V30 2907 C 276.69 3.27459 0.947809 0
M  V30 2908 H 277.883 2.88529 -0.817994 0
M  V30 2909 H 275.436 1.49307 -0.46228 0
M  V30 2910 H 276.171 2.73073 1.74933 0
M  V30 2911 H 275.956 3.8991 0.41385 0
M  V30 2912 H 277.446 3.93311 1.40344 0
M  V30 2913 N 277.883 0.443576 1.51229 0
M  V30 2914 C 279.131 -0.120557 2.0174 0
M  V30 2915 C 279.452 -1.42665 1.32935 0
M  V30 2916 O 278.722 -1.9028 0.465866 0
M  V30 2917 H 277.302 -0.0475426 0.745486 0
M  V30 2918 H 279.964 0.587711 1.85828 0
M  V30 2919 H 279.06 -0.291972 3.10731 0
M  V30 2920 N 279.361 -1.56624 0.175154 0
M  V30 2921 C 280.294 -2.14 -0.792412 0
M  V30 2922 C 281.272 -1.07114 -1.22333 0
M  V30 2923 O 282.456 -1.35112 -1.31442 0
M  V30 2924 C 279.583 -2.68268 -2.0676 0
M  V30 2925 C 278.629 -3.87562 -1.7804 0
M  V30 2926 S 279.462 -5.27074 -0.946222 0
M  V30 2927 C 280.618 -5.8475 -2.23199 0
M  V30 2928 H 280.851 -2.95736 -0.304588 0
M  V30 2929 H 278.384 -1.54349 -0.0395705 0
M  V30 2930 H 280.342 -3.00182 -2.80002 0
M  V30 2931 H 279.003 -1.86612 -2.52656 0
M  V30 2932 H 278.196 -4.23874 -2.72666 0
M  V30 2933 H 277.798 -3.56555 -1.12891 0
M  V30 2934 H 280.09 -5.97898 -3.18629 0
M  V30 2935 H 281.033 -6.81756 -1.91349 0
M  V30 2936 H 281.441 -5.13198 -2.35134 0
M  V30 2937 N 280.839 0.0985539 -1.57292 0
M  V30 2938 C 282.086 0.802678 -1.85912 0
M  V30 2939 C 282.414 1.78901 -0.763186 0
M  V30 2940 O 281.669 1.94178 0.243559 0
M  V30 2941 C 281.968 1.56927 -3.21105 0
M  V30 2942 C 281.634 0.725376 -4.45027 0
M  V30 2943 C 280.296 0.492726 -4.78671 0
M  V30 2944 C 282.648 0.138493 -5.21016 0
M  V30 2945 C 279.976 -0.336727 -5.85733 0
M  V30 2946 C 282.328 -0.678264 -6.28953 0
M  V30 2947 C 280.992 -0.921039 -6.61115 0
M  V30 2948 H 280.262 0.293721 -0.680301 0
M  V30 2949 H 282.909 0.0642841 -1.91392 0
M  V30 2950 H 281.214 2.37914 -3.11294 0
M  V30 2951 H 282.911 2.11841 -3.40477 0
M  V30 2952 H 279.501 0.916815 -4.18679 0
M  V30 2953 H 283.685 0.305404 -4.95359 0
M  V30 2954 H 278.941 -0.533836 -6.09065 0
M  V30 2955 H 283.115 -1.1399 -6.87007 0
M  V30 2956 H 280.742 -1.56556 -7.43905 0
M  V30 2957 N 282.317 1.53212 0.369288 0
M  V30 2958 C 283.28 1.7872 1.43498 0
M  V30 2959 C 284.28 0.657554 1.46741 0
M  V30 2960 O 285.47 0.925736 1.47566 0
M  V30 2961 C 282.602 1.90591 2.82645 0
M  V30 2962 H 283.795 2.73894 1.22156 0
M  V30 2963 H 281.348 1.44233 0.602203 0
M  V30 2964 H 282.083 0.974709 3.09306 0
M  V30 2965 H 281.868 2.72751 2.8169 0
M  V30 2966 H 283.358 2.11931 3.59826 0
M  V30 2967 N 283.795 -0.628877 1.44509 0
M  V30 2968 C 285.206 -1.21054 1.42137 0
M  V30 2969 C 285.557 -1.95715 0.137881 0
M  V30 2970 O 284.682 -2.02554 -0.761645 0
M  V30 2971 C 285.277 -2.20189 2.57493 0
M  V30 2972 C 283.836 -2.73777 2.58308 0
M  V30 2973 C 282.983 -1.48813 2.33987 0
M  V30 2974 H 285.934 -0.41942 1.53057 0
M  V30 2975 H 285.955 -3.02833 2.30375 0
M  V30 2976 H 285.467 -1.6582 3.50892 0
M  V30 2977 H 283.568 -3.32142 1.68856 0
M  V30 2978 H 283.681 -3.19662 3.56865 0
M  V30 2979 H 282.045 -1.77024 1.83124 0
M  V30 2980 H 282.828 -0.963442 3.29504 0
M  V30 2981 N 285.273 -1.31445 -0.869486 0
M  V30 2982 C 286.501 -1.24122 -1.65534 0
M  V30 2983 C 286.916 0.193387 -1.87807 0
M  V30 2984 O 286.273 1.12557 -1.43656 0
M  V30 2985 C 286.324 -1.98229 -3.02304 0
M  V30 2986 O 286.045 -3.3609 -2.81026 0
M  V30 2987 C 287.546 -1.97751 -3.96749 0
M  V30 2988 H 284.766 -0.428868 -0.516055 0
M  V30 2989 H 287.31 -1.73328 -1.08525 0
M  V30 2990 H 285.465 -1.52782 -3.56001 0
M  V30 2991 H 285.879 -3.7383 -3.67902 0
M  V30 2992 H 287.353 -2.54114 -4.90031 0
M  V30 2993 H 287.83 -0.960137 -4.28577 0
M  V30 2994 H 288.436 -2.43079 -3.48988 0
M  V30 2995 N 286.751 1.08385 -1.14413 0
M  V30 2996 C 287.683 2.1519 -0.789036 0
M  V30 2997 C 288.696 1.61638 0.19417 0
M  V30 2998 O 289.885 1.78479 -0.0275711 0
M  V30 2999 C 286.985 3.38565 -0.15058 0
M  V30 3000 C 286.158 4.21501 -1.16857 0
M  V30 3001 C 285.217 5.23277 -0.553832 0
M  V30 3002 O 284.243 5.56041 -1.21686 0
M  V30 3003 N 285.445 5.76629 0.669296 0
M  V30 3004 H 288.21 2.46257 -1.70814 0
M  V30 3005 H 285.771 1.24198 -1.03858 0
M  V30 3006 H 287.763 4.03777 0.273181 0
M  V30 3007 H 286.333 3.05299 0.671667 0
M  V30 3008 H 285.553 3.52265 -1.76926 0
M  V30 3009 H 286.841 4.73731 -1.85624 0
M  V30 3010 H 286.239 5.52243 1.22654 0
M  V30 3011 H 284.796 6.43521 1.03556 0
M  V30 3012 N 288.23 0.939286 1.26551 0
M  V30 3013 C 289.646 0.641304 1.46149 0
M  V30 3014 C 289.846 -0.805964 1.84679 0
M  V30 3015 O 288.902 -1.58278 1.96734 0
M  V30 3016 C 290.215 1.6011 2.54529 0
M  V30 3017 C 291.763 1.6106 2.68382 0
M  V30 3018 C 292.238 2.55765 3.79932 0
M  V30 3019 N 293.729 2.5404 3.87322 0
M  V30 3020 C 294.464 3.24004 4.73085 0
M  V30 3021 N 293.96 4.03388 5.63249 0
M  V30 3022 N 295.753 3.12965 4.66914 0
M  V30 3023 H 287.904 1.87478 0.998285 0
M  V30 3024 H 290.167 0.805559 0.499779 0
M  V30 3025 H 289.873 2.63412 2.33039 0
M  V30 3026 H 289.747 1.35171 3.52149 0
M  V30 3027 H 292.134 0.584835 2.89247 0
M  V30 3028 H 292.215 1.90053 1.71212 0
M  V30 3029 H 291.859 3.58458 3.5982 0
M  V30 3030 H 291.789 2.24063 4.76554 0
M  V30 3031 H 294.28 1.96396 3.22858 0
M  V30 3032 H 294.593 4.5373 6.25579 0
M  V30 3033 H 292.938 4.07489 5.63008 0
M  V30 3034 H 296.129 2.50432 3.95476 0
M  V30 3035 H 296.302 3.67759 5.33533 0
M  V30 3036 N 289.708 -1.40897 0.706093 0
M  V30 3037 C 290.936 -2.05373 0.250887 0
M  V30 3038 C 291.351 -1.53172 -1.10381 0
M  V30 3039 O 290.708 -0.684305 -1.69185 0
M  V30 3040 C 290.759 -3.6088 0.211571 0
M  V30 3041 O 290.48 -4.11153 1.51276 0
M  V30 3042 C 291.981 -4.42517 -0.263346 0
M  V30 3043 H 289.201 -0.66115 0.114552 0
M  V30 3044 H 291.745 -1.80479 0.961635 0
M  V30 3045 H 289.9 -3.84777 -0.450073 0
M  V30 3046 H 290.314 -5.05279 1.40689 0
M  V30 3047 H 291.788 -5.51479 -0.239718 0
M  V30 3048 H 292.265 -4.19396 -1.30397 0
M  V30 3049 H 292.871 -4.23708 0.367677 0
M  V30 3050 N 291.186 -0.45159 -1.50991 0
M  V30 3051 C 292.096 0.358431 -2.31846 0
M  V30 3052 C 293.112 1.01438 -1.41373 0
M  V30 3053 O 294.288 1.00663 -1.74439 0
M  V30 3054 C 291.353 1.43704 -3.15515 0
M  V30 3055 C 290.414 0.799742 -4.21785 0
M  V30 3056 C 289.647 1.82696 -5.01456 0
M  V30 3057 O 289.87 3.05105 -4.81941 0
M  V30 3058 O 288.804 1.40958 -5.85162 0
M  V30 3059 H 292.63 -0.302032 -3.02194 0
M  V30 3060 H 290.215 -0.213825 -1.47862 0
M  V30 3061 H 292.097 2.06227 -3.67489 0
M  V30 3062 H 290.772 2.08133 -2.47916 0
M  V30 3063 H 289.679 0.136084 -3.73852 0
M  V30 3064 H 291.012 0.198718 -4.91799 0
M  V30 3065 N 292.664 1.56529 -0.183458 0
M  V30 3066 C 293.912 1.96855 0.457452 0
M  V30 3067 C 294.233 1.07104 1.62953 0
M  V30 3068 O 293.503 0.139887 1.954 0
M  V30 3069 H 292.083 0.72693 0.171992 0
M  V30 3070 H 294.745 1.93056 -0.267476 0
M  V30 3071 H 293.841 3.01423 0.809368 0
M  V30 3072 N 294.142 -0.090211 1.57342 0
M  V30 3073 C 295.391 -0.791531 1.8552 0
M  V30 3074 C 295.704 -1.79659 0.773441 0
M  V30 3075 O 296.91 -2.54616 0.942497 0
M  V30 3076 C 295.366 -1.45856 3.2902 0
M  V30 3077 C 294.974 -0.493017 4.45279 0
M  V30 3078 C 296.718 -2.14332 3.66418 0
M  V30 3079 C 294.625 -1.16491 5.79814 0
M  V30 3080 H 293.555 -0.299356 0.692027 0
M  V30 3081 H 296.206 -0.0445343 1.83446 0
M  V30 3082 H 294.588 -2.25318 3.2565 0
M  V30 3083 H 295.762 0.270464 4.60006 0
M  V30 3084 H 294.077 0.0863061 4.16311 0
M  V30 3085 H 296.674 -2.65344 4.64216 0
M  V30 3086 H 297.017 -2.93447 2.95287 0
M  V30 3087 H 297.55 -1.41724 3.71698 0
M  V30 3088 H 294.289 -0.41447 6.54188 0
M  V30 3089 H 293.809 -1.8997 5.68921 0
M  V30 3090 H 295.488 -1.69001 6.24538 0
M  V30 3091 N 295.62 -1.53406 -0.361157 0
M  V30 3092 C 296.845 -1.74024 -1.12829 0
M  V30 3093 C 297.27 -0.470069 -1.82132 0
M  V30 3094 O 296.628 0.57619 -1.719 0
M  V30 3095 C 296.676 -2.90903 -2.13091 0
M  V30 3096 O 295.78 -2.59821 -3.20261 0
M  V30 3097 H 295.121 -0.577804 -0.327168 0
M  V30 3098 H 297.651 -2.00307 -0.41693 0
M  V30 3099 H 297.661 -3.17194 -2.56616 0
M  V30 3100 H 296.336 -3.83034 -1.62042 0
M  V30 3101 H 294.913 -2.44362 -2.81677 0
M  V30 3102 N 297.098 0.621204 -1.44841 0
M  V30 3103 C 298.326 1.40752 -1.51646 0
M  V30 3104 C 298.741 1.88246 -0.144549 0
M  V30 3105 O 298.098 1.61422 0.851416 0
M  V30 3106 C 298.149 2.62119 -2.4895 0
M  V30 3107 O 297.87 2.16602 -3.80808 0
M  V30 3108 C 299.371 3.55135 -2.65319 0
M  V30 3109 H 296.591 0.431325 -0.514004 0
M  V30 3110 H 299.135 0.758835 -1.899 0
M  V30 3111 H 297.29 3.23058 -2.13805 0
M  V30 3112 H 297.704 2.95358 -4.33433 0
M  V30 3113 H 299.178 4.36874 -3.37409 0
M  V30 3114 H 299.655 4.04592 -1.70886 0
M  V30 3115 H 300.261 3.00058 -3.01405 0
M  V30 3116 N 298.576 1.31904 0.862503 0
M  V30 3117 C 299.801 1.25135 1.65397 0
M  V30 3118 C 300.226 -0.179 1.87246 0
M  V30 3119 O 299.584 -1.1277 1.4196 0
M  V30 3120 C 299.632 2.00832 2.99498 0
M  V30 3121 O 298.736 1.35075 3.89652 0
M  V30 3122 H 298.077 0.431655 0.504549 0
M  V30 3123 H 300.607 1.74094 1.07483 0
M  V30 3124 H 300.617 2.10709 3.49379 0
M  V30 3125 H 299.292 3.04847 2.82916 0
M  V30 3126 H 297.869 1.33696 3.48109 0
M  V30 3127 N 300.054 -1.07777 1.14986 0
M  V30 3128 C 301.331 -1.7699 0.832695 0
M  V30 3129 C 301.711 -2.001 -0.672561 0
M  V30 3130 O 301.059 -1.61598 -1.6155 0
M  V30 3131 C 301.269 -3.08139 1.63863 0
M  V30 3132 C 302.617 -3.8256 1.84208 0
M  V30 3133 O 303.641 -3.17939 1.60603 0
M  V30 3134 O 302.5 -4.98612 2.23714 0
M  V30 3135 H 299.594 -0.768389 0.305791 0
M  V30 3136 H 302.14 -1.14182 1.25541 0
M  V30 3137 H 300.912 -2.86909 2.6608 0
M  V30 3138 H 300.535 -3.78678 1.21197 0
M  V30 3139 N 301.532 -0.945985 -1.26051 0
M  V30 3140 C 302.781 -0.591836 -1.92822 0
M  V30 3141 C 303.094 0.873956 -1.7499 0
M  V30 3142 O 304.3 1.33769 -2.36259 0
M  V30 3143 C 302.756 -1.00776 -3.45503 0
M  V30 3144 C 302.364 -2.4955 -3.7206 0
M  V30 3145 C 304.108 -0.725735 -4.1825 0
M  V30 3146 C 302.015 -2.84988 -5.18205 0
M  V30 3147 H 300.945 -0.217635 -0.721908 0
M  V30 3148 H 303.596 -1.14927 -1.43052 0
M  V30 3149 H 301.978 -0.378812 -3.94184 0
M  V30 3150 H 303.152 -3.1739 -3.34066 0
M  V30 3151 H 301.467 -2.75133 -3.12555 0
M  V30 3152 H 304.064 -0.966771 -5.25887 0
M  V30 3153 H 304.407 0.337639 -4.14929 0
M  V30 3154 H 304.94 -1.31463 -3.7545 0
M  V30 3155 H 301.679 -3.90307 -5.26631 0
M  V30 3156 H 301.199 -2.21813 -5.57278 0
M  V30 3157 H 302.878 -2.73712 -5.86252 0
M  V30 3158 N 303.011 1.40521 -0.713556 0
M  V30 3159 C 304.26 2.00155 -0.249192 0
M  V30 3160 C 304.573 1.57224 1.16362 0
M  V30 3161 O 305.779 2.09542 1.72639 0
M  V30 3162 C 304.235 3.5773 -0.3946 0
M  V30 3163 C 303.843 4.09635 -1.81392 0
M  V30 3164 C 305.587 4.24499 0.00907364 0
M  V30 3165 C 303.494 5.59707 -1.91003 0
M  V30 3166 H 302.424 0.74868 -0.0894114 0
M  V30 3167 H 305.075 1.60784 -0.884352 0
M  V30 3168 H 303.457 3.94792 0.30911 0
M  V30 3169 H 304.631 3.83955 -2.54785 0
M  V30 3170 H 302.946 3.55456 -2.16888 0
M  V30 3171 H 305.543 5.34683 -0.0420404 0
M  V30 3172 H 305.886 4.02824 1.05065 0
M  V30 3173 H 306.419 3.92536 -0.645007 0
M  V30 3174 H 303.158 5.86234 -2.93275 0
M  V30 3175 H 302.678 5.87258 -1.22019 0
M  V30 3176 H 304.357 6.24776 -1.6812 0
M  V30 3177 N 304.489 0.459591 1.5075 0
M  V30 3178 C 305.717 -0.0973749 2.06671 0
M  V30 3179 C 306.132 -1.34524 1.32472 0
M  V30 3180 O 305.489 -1.7827 0.390634 0
M  V30 3181 C 305.54 -0.39714 3.59312 0
M  V30 3182 O 305.261 0.801214 4.30711 0
M  V30 3183 C 306.762 -1.00234 4.31819 0
M  V30 3184 H 303.982 0.00195854 0.670997 0
M  V30 3185 H 306.526 0.645072 1.94059 0
M  V30 3186 H 304.681 -1.08951 3.71764 0
M  V30 3187 H 305.095 0.538857 5.21725 0
M  V30 3188 H 306.569 -1.16193 5.39632 0
M  V30 3189 H 307.046 -1.98939 3.91561 0
M  V30 3190 H 307.652 -0.348699 4.23868 0
M  V30 3191 N 305.967 -1.56429 0.191757 0
M  V30 3192 C 307.383 -1.58754 -0.164137 0
M  V30 3193 C 307.583 -1.20782 -1.61288 0
M  V30 3194 O 306.639 -0.928999 -2.34789 0
M  V30 3195 C 307.952 -3.00396 0.135195 0
M  V30 3196 C 309.5 -3.1291 0.0750351 0
M  V30 3197 C 309.975 -4.56679 0.347632 0
M  V30 3198 N 311.466 -4.62252 0.296131 0
M  V30 3199 C 312.201 -5.71379 0.480948 0
M  V30 3200 N 311.697 -6.88986 0.725933 0
M  V30 3201 N 313.49 -5.60563 0.415435 0
M  V30 3202 H 305.641 -1.79393 1.13718 0
M  V30 3203 H 307.904 -0.832414 0.453643 0
M  V30 3204 H 307.61 -3.32726 1.13958 0
M  V30 3205 H 307.484 -3.72963 -0.563773 0
M  V30 3206 H 309.871 -2.80394 -0.919948 0
M  V30 3207 H 309.952 -2.42736 0.807029 0
M  V30 3208 H 309.596 -4.89907 1.33992 0
M  V30 3209 H 309.526 -5.25039 -0.405212 0
M  V30 3210 H 312.017 -3.7773 0.113259 0
M  V30 3211 H 312.33 -7.68046 0.855857 0
M  V30 3212 H 310.675 -6.90801 0.762788 0
M  V30 3213 H 313.866 -4.67561 0.224486 0
M  V30 3214 H 314.039 -6.45551 0.562889 0
M  V30 3215 N 307.445 0.0818655 -1.57387 0
M  V30 3216 C 308.694 0.781681 -1.85937 0
M  V30 3217 C 309.007 1.79246 -0.782957 0
M  V30 3218 O 310.213 2.54112 -0.955987 0
M  V30 3219 C 308.669 1.44109 -3.29789 0
M  V30 3220 C 308.277 0.469396 -4.45534 0
M  V30 3221 C 310.021 2.12386 -3.67549 0
M  V30 3222 C 307.928 1.13415 -5.80423 0
M  V30 3223 H 306.858 0.295682 -0.693605 0
M  V30 3224 H 309.509 0.0348051 -1.83467 0
M  V30 3225 H 307.891 2.23588 -3.2684 0
M  V30 3226 H 309.065 -0.294856 -4.59856 0
M  V30 3227 H 307.38 -0.108383 -4.16259 0
M  V30 3228 H 309.977 2.62878 -4.65617 0
M  V30 3229 H 310.32 2.91877 -2.96839 0
M  V30 3230 H 310.853 1.39751 -3.72444 0
M  V30 3231 H 307.592 0.379771 -6.54399 0
M  V30 3232 H 307.112 1.8695 -5.69921 0
M  V30 3233 H 308.791 1.65686 -6.25426 0
M  V30 3234 N 308.923 1.53595 0.353017 0
M  V30 3235 C 310.169 1.70638 1.09593 0
M  V30 3236 C 310.502 0.463286 1.88593 0
M  V30 3237 O 309.777 -0.539597 1.86865 0
M  V30 3238 C 310.06 2.96406 2.04489 0
M  V30 3239 C 309.913 4.30901 1.29014 0
M  V30 3240 C 311.232 3.17812 3.0444 0
M  V30 3241 H 308.351 0.620913 0.397034 0
M  V30 3242 H 310.993 1.86254 0.375446 0
M  V30 3243 H 309.143 2.83223 2.65927 0
M  V30 3244 H 310.815 4.55917 0.702638 0
M  V30 3245 H 309.058 4.29741 0.592071 0
M  V30 3246 H 309.729 5.1506 1.98537 0
M  V30 3247 H 312.205 3.30263 2.53112 0
M  V30 3248 H 311.081 4.07223 3.6805 0
M  V30 3249 H 311.342 2.33669 3.75301 0
M  V30 3250 N 310.401 -0.613514 1.45168 0
M  V30 3251 C 311.817 -0.933629 1.29443 0
M  V30 3252 C 312.017 -2.00028 0.243101 0
M  V30 3253 O 311.073 -2.49848 -0.364992 0
M  V30 3254 C 312.386 -1.38018 2.67155 0
M  V30 3255 C 313.934 -1.49471 2.75004 0
M  V30 3256 C 314.409 -1.97503 4.13227 0
M  V30 3257 N 315.9 -2.04746 4.15491 0
M  V30 3258 C 316.635 -2.43121 5.19307 0
M  V30 3259 N 316.131 -2.80506 6.33473 0
M  V30 3260 N 317.924 -2.43408 5.06664 0
M  V30 3261 H 310.075 0.0916097 2.12202 0
M  V30 3262 H 312.338 -0.0216655 0.947752 0
M  V30 3263 H 312.044 -0.670625 3.45247 0
M  V30 3264 H 311.918 -2.34784 2.95222 0
M  V30 3265 H 314.305 -2.19519 1.9722 0
M  V30 3266 H 314.386 -0.510342 2.50657 0
M  V30 3267 H 314.03 -1.28045 4.91495 0
M  V30 3268 H 313.96 -2.96843 4.34962 0
M  V30 3269 H 316.451 -1.78468 3.33103 0
M  V30 3270 H 316.764 -3.08652 7.08487 0
M  V30 3271 H 315.109 -2.78216 6.36884 0
M  V30 3272 H 318.3 -2.13604 4.16523 0
M  V30 3273 H 318.473 -2.72989 5.87691 0
M  V30 3274 N 311.879 -1.3236 -0.855495 0
M  V30 3275 C 313.156 -1.13491 -1.59309 0
M  V30 3276 C 313.536 0.30503 -2.08885 0
M  V30 3277 O 312.884 1.30151 -1.87811 0
M  V30 3278 C 313.094 -2.16176 -2.73987 0
M  V30 3279 C 314.442 -2.49463 -3.43589 0
M  V30 3280 O 315.466 -2.14715 -2.84211 0
M  V30 3281 O 314.325 -3.09027 -4.50738 0
M  V30 3282 H 311.419 -0.437887 -0.701559 0
M  V30 3283 H 313.965 -1.43887 -0.899696 0
M  V30 3284 H 312.737 -3.1297 -2.34873 0
M  V30 3285 H 312.36 -1.86769 -3.51003 0
M  V30 3286 N 313.357 1.07166 -1.15556 0
M  V30 3287 C 314.587 1.83248 -0.954133 0
M  V30 3288 C 314.995 1.82449 0.500911 0
M  V30 3289 O 314.338 1.23575 1.35923 0
M  V30 3290 C 314.4 3.31393 -1.39351 0
M  V30 3291 C 314.064 3.5591 -2.86666 0
M  V30 3292 C 315.061 3.49695 -3.8472 0
M  V30 3293 C 312.746 3.83515 -3.24379 0
M  V30 3294 C 314.74 3.70737 -5.18491 0
M  V30 3295 C 312.427 4.04209 -4.58321 0
M  V30 3296 C 313.425 3.97815 -5.55186 0
M  V30 3297 O 313.113 4.17954 -6.86709 0
M  V30 3298 H 312.845 0.584941 -0.338851 0
M  V30 3299 H 315.399 1.36169 -1.53777 0
M  V30 3300 H 313.629 3.79292 -0.75329 0
M  V30 3301 H 315.318 3.88945 -1.16089 0
M  V30 3302 H 316.084 3.28368 -3.56931 0
M  V30 3303 H 311.963 3.87605 -2.49567 0
M  V30 3304 H 315.507 3.65663 -5.94085 0
M  V30 3305 H 311.404 4.25023 -4.85825 0
M  V30 3306 H 312.172 4.35291 -6.93155 0
M  V30 3307 N 314.835 0.952656 1.25548 0
M  V30 3308 C 316.112 0.523818 1.88456 0
M  V30 3309 C 316.492 -0.998871 1.85973 0
M  V30 3310 O 315.84 -1.86381 1.3219 0
M  V30 3311 C 316.05 1.0982 3.31271 0
M  V30 3312 C 317.398 1.17385 4.08051 0
M  V30 3313 O 318.422 1.04961 3.40384 0
M  V30 3314 O 317.281 1.36852 5.29088 0
M  V30 3315 H 314.375 0.172485 0.808813 0
M  V30 3316 H 316.921 1.04596 1.33633 0
M  V30 3317 H 315.693 2.1415 3.27499 0
M  V30 3318 H 315.316 0.559191 3.93648 0
M  V30 3319 N 316.313 -1.40141 0.720998 0
M  V30 3320 C 317.559 -2.01084 0.263231 0
M  V30 3321 C 317.892 -1.57052 -1.14229 0
M  V30 3322 O 317.167 -0.793027 -1.77599 0
M  V30 3323 C 317.45 -3.58401 0.349344 0
M  V30 3324 C 317.303 -4.12491 1.79363 0
M  V30 3325 C 318.622 -4.39231 -0.276351 0
M  V30 3326 H 315.741 -0.730572 0.0971228 0
M  V30 3327 H 318.383 -1.66543 0.914518 0
M  V30 3328 H 316.533 -3.87958 -0.205165 0
M  V30 3329 H 318.205 -3.93711 2.40394 0
M  V30 3330 H 316.448 -3.66576 2.31958 0
M  V30 3331 H 317.119 -5.21646 1.80524 0
M  V30 3332 H 319.595 -4.15637 0.196184 0
M  V30 3333 H 318.471 -5.48586 -0.185681 0
M  V30 3334 H 318.732 -4.20643 -1.36059 0
M  V30 3335 N 317.792 -0.46758 -1.50504 0
M  V30 3336 C 319.022 0.086288 -2.0642 0
M  V30 3337 C 319.43 1.34369 -1.33197 0
M  V30 3338 O 318.773 1.79431 -0.393747 0
M  V30 3339 C 318.835 0.443846 -3.5675 0
M  V30 3340 C 318.499 -0.711035 -4.51435 0
M  V30 3341 C 319.496 -1.59205 -4.94924 0
M  V30 3342 C 317.181 -0.900363 -4.94165 0
M  V30 3343 C 319.175 -2.64683 -5.79846 0
M  V30 3344 C 316.862 -1.95837 -5.7887 0
M  V30 3345 C 317.86 -2.82997 -6.21612 0
M  V30 3346 O 317.548 -3.86977 -7.0463 0
M  V30 3347 H 317.28 -0.00217814 -0.675996 0
M  V30 3348 H 319.834 -0.654346 -1.94698 0
M  V30 3349 H 318.064 1.23762 -3.6636 0
M  V30 3350 H 319.753 0.932386 -3.95046 0
M  V30 3351 H 320.519 -1.45745 -4.62583 0
M  V30 3352 H 316.398 -0.231427 -4.60419 0
M  V30 3353 H 319.942 -3.32745 -6.13128 0
M  V30 3354 H 315.839 -2.09305 -6.10624 0
M  V30 3355 H 316.607 -3.83923 -7.22873 0
M  V30 3356 N 319.27 1.56325 -0.20005 0
M  V30 3357 C 320.233 2.18084 0.705132 0
M  V30 3358 C 321.233 1.13666 1.1374 0
M  V30 3359 O 322.423 1.39023 1.04968 0
M  V30 3360 C 319.555 2.78689 1.96329 0
M  V30 3361 H 320.748 2.99435 0.167023 0
M  V30 3362 H 318.301 1.56221 0.0495725 0
M  V30 3363 H 319.036 2.0115 2.5438 0
M  V30 3364 H 318.821 3.55133 1.66202 0
M  V30 3365 H 320.311 3.26096 2.60866 0
M  V30 3366 N 320.748 -0.0735177 1.57428 0
M  V30 3367 C 322.164 -0.428264 1.53747 0
M  V30 3368 C 322.364 -1.79272 0.91998 0
M  V30 3369 O 321.42 -2.47051 0.521745 0
M  V30 3370 C 322.733 -0.370914 2.98404 0
M  V30 3371 C 324.281 -0.451224 3.0973 0
M  V30 3372 C 324.756 -0.4238 4.56035 0
M  V30 3373 N 326.247 -0.483925 4.60665 0
M  V30 3374 C 326.982 -0.484891 5.71346 0
M  V30 3375 N 326.478 -0.440775 6.91396 0
M  V30 3376 N 328.271 -0.531319 5.59583 0
M  V30 3377 H 320.422 0.819949 1.95935 0
M  V30 3378 H 322.685 0.307493 0.896745 0
M  V30 3379 H 322.391 0.564956 3.47133 0
M  V30 3380 H 322.265 -1.18176 3.5821 0
M  V30 3381 H 324.652 -1.37752 2.60976 0
M  V30 3382 H 324.733 0.388167 2.52838 0
M  V30 3383 H 324.377 0.498638 5.05446 0
M  V30 3384 H 324.307 -1.2807 5.10789 0
M  V30 3385 H 326.798 -0.522338 3.74273 0
M  V30 3386 H 327.111 -0.44539 7.71515 0
M  V30 3387 H 325.456 -0.40749 6.93804 0
M  V30 3388 H 328.647 -0.563464 4.64696 0
M  V30 3389 H 328.82 -0.528603 6.4584 0
M  V30 3390 N 322.226 -1.5378 -0.344866 0
M  V30 3391 C 323.642 -1.44015 -0.687888 0
M  V30 3392 C 323.842 -0.595834 -1.92489 0
M  V30 3393 O 322.898 -0.0863064 -2.52352 0
M  V30 3394 C 324.211 -2.87481 -0.881758 0
M  V30 3395 C 325.759 -2.97247 -0.980459 0
M  V30 3396 C 326.234 -4.41819 -1.20665 0
M  V30 3397 N 327.725 -4.45339 -1.27389 0
M  V30 3398 C 328.46 -5.54333 -1.46639 0
M  V30 3399 N 327.956 -6.73335 -1.63071 0
M  V30 3400 N 329.749 -5.41944 -1.49176 0
M  V30 3401 H 321.9 -2.07169 0.468475 0
M  V30 3402 H 324.163 -0.93643 0.147655 0
M  V30 3403 H 323.869 -3.51672 -0.0443444 0
M  V30 3404 H 323.743 -3.32352 -1.78388 0
M  V30 3405 H 326.13 -2.33197 -1.8084 0
M  V30 3406 H 326.211 -2.5574 -0.0552713 0
M  V30 3407 H 325.855 -5.06449 -0.383652 0
M  V30 3408 H 325.785 -4.80917 -2.14539 0
M  V30 3409 H 328.276 -3.59585 -1.1622 0
M  V30 3410 H 328.589 -7.52165 -1.77391 0
M  V30 3411 H 326.934 -6.76282 -1.60209 0
M  V30 3412 H 330.125 -4.47932 -1.3592 0
M  V30 3413 H 330.298 -6.26946 -1.63837 0
M  V30 3414 N 323.704 0.605807 -1.45491 0
M  V30 3415 C 324.652 1.73754 -1.54636 0
M  V30 3416 C 325.646 1.64207 -0.416219 0
M  V30 3417 O 326.852 1.69979 -0.592199 0
M  V30 3418 H 323.227 0.574073 -0.485741 0
M  V30 3419 H 325.198 1.63169 -2.49837 0
M  V30 3420 C 323.947 3.12135 -1.53189 0
M  V30 3421 H 323.27 3.20141 -2.39478 0
M  V30 3422 H 324.71 3.91147 -1.63645 0
M  V30 3423 C 323.169 3.35921 -0.256616 0
M  V30 3424 O 323.699 3.96194 0.662798 0
M  V30 3425 N 321.905 2.90204 -0.151751 0
M  V30 3426 H 321.452 2.41336 -0.90081 0
M  V30 3427 H 321.41 3.06492 0.700699 0
M  V30 3428 N 325.182 1.32811 0.848464 0
M  V30 3429 C 326.112 1.24882 1.97299 0
M  V30 3430 C 327.093 0.131357 1.69592 0
M  V30 3431 O 328.278 0.319553 1.91553 0
M  V30 3432 C 325.408 0.97746 3.33261 0
M  V30 3433 C 324.362 2.05682 3.75338 0
M  V30 3434 C 323.688 1.63777 5.09 0
M  V30 3435 C 324.988 3.47254 3.90144 0
M  V30 3436 H 326.682 2.18966 2.04191 0
M  V30 3437 H 324.228 1.05413 0.981029 0
M  V30 3438 H 326.181 0.908513 4.1149 0
M  V30 3439 H 324.905 0.000980011 3.266 0
M  V30 3440 H 323.564 2.11603 2.99366 0
M  V30 3441 H 323.212 0.648569 4.98801 0
M  V30 3442 H 322.912 2.36 5.38124 0
M  V30 3443 H 324.436 1.5833 5.89715 0
M  V30 3444 H 325.85 3.43888 4.58709 0
M  V30 3445 H 324.247 4.1788 4.30693 0
M  V30 3446 H 325.317 3.86462 2.92874 0
M  V30 3447 N 326.66 -1.06551 1.16123 0
M  V30 3448 C 327.592 -2.13908 0.823171 0
M  V30 3449 C 328.605 -1.61926 -0.16843 0
M  V30 3450 O 329.794 -1.78412 0.055962 0
M  V30 3451 C 326.894 -3.38283 0.204424 0
M  V30 3452 C 326.067 -4.19589 1.23548 0
M  V30 3453 C 325.126 -5.2233 0.637011 0
M  V30 3454 O 324.152 -5.54034 1.30516 0
M  V30 3455 N 325.354 -5.77621 -0.577474 0
M  V30 3456 H 328.119 -2.43508 1.74711 0
M  V30 3457 H 325.68 -1.2253 1.05821 0
M  V30 3458 H 327.672 -4.0416 -0.208909 0
M  V30 3459 H 326.242 -3.06329 -0.623012 0
M  V30 3460 H 325.462 -3.49406 1.82507 0
M  V30 3461 H 326.75 -4.70718 1.93137 0
M  V30 3462 H 326.148 -5.54125 -1.13853 0
M  V30 3463 H 324.705 -6.45087 -0.933053 0
M  V30 3464 N 328.138 -0.959301 -1.25041 0
M  V30 3465 C 329.554 -0.664474 -1.4511 0
M  V30 3466 C 329.754 0.776481 -1.85938 0
M  V30 3467 O 328.81 1.55128 -1.99227 0
M  V30 3468 C 330.123 -1.64139 -2.5195 0
M  V30 3469 C 331.671 -1.65309 -2.65786 0
M  V30 3470 C 332.146 -2.61777 -3.75815 0
M  V30 3471 N 333.637 -2.60169 -3.83231 0
M  V30 3472 C 334.372 -3.31489 -4.6787 0
M  V30 3473 N 333.868 -4.12298 -5.56761 0
M  V30 3474 N 335.661 -3.20354 -4.61876 0
M  V30 3475 H 327.812 -1.89043 -0.968332 0
M  V30 3476 H 330.075 -0.813408 -0.4869 0
M  V30 3477 H 329.781 -2.67086 -2.28819 0
M  V30 3478 H 329.655 -1.40756 -3.49954 0
M  V30 3479 H 332.042 -0.630778 -2.8828 0
M  V30 3480 H 332.123 -1.92753 -1.68167 0
M  V30 3481 H 331.767 -3.64137 -3.54071 0
M  V30 3482 H 331.697 -2.31616 -4.72929 0
M  V30 3483 H 334.188 -2.01507 -3.19692 0
M  V30 3484 H 334.501 -4.63625 -6.18281 0
M  V30 3485 H 332.846 -4.16395 -5.56454 0
M  V30 3486 H 336.037 -2.56692 -3.91442 0
M  V30 3487 H 336.21 -3.76201 -5.27614 0
M  V30 3488 N 329.616 1.39756 -0.72842 0
M  V30 3489 C 330.864 2.00248 -0.272946 0
M  V30 3490 C 331.185 1.58077 1.14178 0
M  V30 3491 O 330.455 0.826014 1.77634 0
M  V30 3492 H 329.035 0.740554 -0.0979247 0
M  V30 3493 H 331.697 1.70903 -0.936912 0
M  V30 3494 H 330.793 3.10495 -0.316142 0
M  V30 3495 N 331.094 0.475555 1.50254 0
M  V30 3496 C 332.324 -0.0753399 2.06463 0
M  V30 3497 C 332.732 -1.33661 1.33908 0
M  V30 3498 O 332.075 -1.79219 0.403257 0
M  V30 3499 C 332.137 -0.424921 3.5698 0
M  V30 3500 C 331.801 0.734965 4.51051 0
M  V30 3501 C 332.798 1.61827 4.94073 0
M  V30 3502 C 330.483 0.926557 4.9368 0
M  V30 3503 C 332.477 2.67754 5.78434 0
M  V30 3504 C 330.164 1.98904 5.77824 0
M  V30 3505 C 331.162 2.8629 6.20103 0
M  V30 3506 O 330.85 3.90708 7.02568 0
M  V30 3507 H 330.582 0.00576308 0.675975 0
M  V30 3508 H 333.136 0.664662 1.94349 0
M  V30 3509 H 331.366 -1.21817 3.67012 0
M  V30 3510 H 333.055 -0.911422 3.95535 0
M  V30 3511 H 333.821 1.48196 4.61804 0
M  V30 3512 H 329.7 0.25584 4.6029 0
M  V30 3513 H 333.244 3.35992 6.11355 0
M  V30 3514 H 329.141 2.12541 6.09505 0
M  V30 3515 H 329.909 3.87751 7.20827 0
M  V30 3516 N 332.573 -1.56217 0.208337 0
M  V30 3517 C 333.801 -2.02337 -0.43215 0
M  V30 3518 C 334.216 -1.08834 -1.54275 0
M  V30 3519 O 333.573 -0.0955462 -1.8225 0
M  V30 3520 C 333.624 -3.48072 -0.976138 0
M  V30 3521 O 333.345 -4.38007 0.0901621 0
M  V30 3522 C 334.846 -4.09773 -1.69119 0
M  V30 3523 H 332.066 -0.662385 -0.10718 0
M  V30 3524 H 334.61 -2.01966 0.320923 0
M  V30 3525 H 332.765 -3.49099 -1.67954 0
M  V30 3526 H 333.179 -5.23543 -0.316701 0
M  V30 3527 H 334.653 -5.13556 -2.02397 0
M  V30 3528 H 335.13 -3.53999 -2.59964 0
M  V30 3529 H 335.736 -4.12556 -1.03332 0
M  V30 3530 N 334.051 0.0651679 -1.57465 0
M  V30 3531 C 335.014 1.06117 -2.03155 0
M  V30 3532 C 336.014 1.31204 -0.929632 0
M  V30 3533 O 337.204 1.26813 -1.19432 0
M  V30 3534 C 334.336 2.4032 -2.41783 0
M  V30 3535 H 335.529 0.667231 -2.92383 0
M  V30 3536 H 333.082 0.311075 -1.53173 0
M  V30 3537 H 333.817 2.84532 -1.55601 0
M  V30 3538 H 333.602 2.23451 -3.22199 0
M  V30 3539 H 335.092 3.11898 -2.77685 0
M  V30 3540 N 335.529 1.53961 0.336706 0
M  V30 3541 C 336.476 1.82428 1.41381 0
M  V30 3542 C 337.446 0.670444 1.51968 0
M  V30 3543 O 338.631 0.915565 1.67398 0
M  V30 3544 C 335.771 2.04564 2.77934 0
M  V30 3545 C 334.884 3.32267 2.76084 0
M  V30 3546 C 334.019 3.44434 4.04399 0
M  V30 3547 C 333.058 4.66061 3.96804 0
M  V30 3548 N 332.195 4.75224 5.16823 0
M  V30 3549 H 337.035 2.74324 1.16405 0
M  V30 3550 H 334.572 1.35869 0.563752 0
M  V30 3551 H 336.53 2.15388 3.57301 0
M  V30 3552 H 335.16 1.15974 3.01247 0
M  V30 3553 H 334.212 3.3025 1.88784 0
M  V30 3554 H 335.524 4.21733 2.66351 0
M  V30 3555 H 334.678 3.54728 4.92192 0
M  V30 3556 H 333.417 2.53037 4.16921 0
M  V30 3557 H 332.422 4.55838 3.07396 0
M  V30 3558 H 333.647 5.58829 3.85858 0
M  V30 3559 H 331.593 3.86739 5.29876 0
M  V30 3560 H 331.51 5.58636 5.09374 0
M  V30 3561 H 332.778 4.89835 6.06367 0
M  V30 3562 N 337.007 -0.598083 1.45811 0
M  V30 3563 C 337.917 -1.73632 1.57763 0
M  V30 3564 C 338.933 -1.67763 0.461676 0
M  V30 3565 O 340.109 -1.87949 0.723685 0
M  V30 3566 C 337.174 -3.10114 1.55018 0
M  V30 3567 C 336.235 -3.27364 2.77726 0
M  V30 3568 C 335.468 -4.57334 2.75102 0
M  V30 3569 O 335.691 -5.40258 1.8297 0
M  V30 3570 O 334.625 -4.77502 3.66437 0
M  V30 3571 H 338.451 -1.66498 2.53992 0
M  V30 3572 H 336.036 -0.763308 1.28429 0
M  V30 3573 H 337.918 -3.9141 1.56129 0
M  V30 3574 H 336.593 -3.17718 0.619431 0
M  V30 3575 H 335.5 -2.45619 2.82174 0
M  V30 3576 H 336.833 -3.24641 3.69958 0
M  V30 3577 N 338.485 -1.33259 -0.841409 0
M  V30 3578 C 339.415 -1.25926 -1.96634 0
M  V30 3579 C 340.396 -0.140349 -1.6952 0
M  V30 3580 O 341.581 -0.329707 -1.91381 0
M  V30 3581 C 338.711 -0.99512 -3.32738 0
M  V30 3582 C 337.665 -2.0767 -3.74242 0
M  V30 3583 C 336.991 -1.66474 -5.08125 0
M  V30 3584 C 338.291 -3.49318 -3.88297 0
M  V30 3585 H 339.985 -2.20046 -2.03027 0
M  V30 3586 H 337.531 -1.05931 -0.975425 0
M  V30 3587 H 339.484 -0.930323 -4.11002 0
M  V30 3588 H 338.208 -0.0183004 -3.26595 0
M  V30 3589 H 336.867 -2.13187 -2.98239 0
M  V30 3590 H 336.515 -0.675012 -4.9845 0
M  V30 3591 H 336.215 -2.3885 -5.36865 0
M  V30 3592 H 337.739 -1.61455 -5.88867 0
M  V30 3593 H 339.153 -3.46316 -4.56879 0
M  V30 3594 H 337.55 -4.20158 -4.28471 0
M  V30 3595 H 338.62 -3.8801 -2.9082 0
M  V30 3596 N 339.963 1.05934 -1.16686 0
M  V30 3597 C 340.911 2.15603 -0.872817 0
M  V30 3598 C 341.905 1.68647 0.159576 0
M  V30 3599 O 343.111 1.79995 0.0132125 0
M  V30 3600 H 339.486 0.703885 -0.264671 0
M  V30 3601 H 341.457 2.37613 -1.80507 0
M  V30 3602 C 340.206 3.45457 -0.394344 0
M  V30 3603 H 339.529 3.81984 -1.18019 0
M  V30 3604 H 340.969 4.2339 -0.227408 0
M  V30 3605 C 339.428 3.25021 0.88673 0
M  V30 3606 O 339.958 3.50906 1.95519 0
M  V30 3607 N 338.164 2.78437 0.831925 0
M  V30 3608 H 337.711 2.57572 -0.0377619 0
M  V30 3609 H 337.669 2.65144 1.68956 0
M  V30 3610 N 341.441 0.965919 1.2453 0
M  V30 3611 C 342.687 0.62776 1.92839 0
M  V30 3612 C 343.02 -0.834694 1.75347 0
M  V30 3613 O 342.295 -1.60031 1.10546 0
M  V30 3614 C 342.578 1.00109 3.45905 0
M  V30 3615 C 342.431 2.52011 3.72573 0
M  V30 3616 C 343.75 0.53435 4.36844 0
M  V30 3617 H 340.869 0.229537 0.700344 0
M  V30 3618 H 343.511 1.2046 1.46933 0
M  V30 3619 H 341.661 0.510238 3.85135 0
M  V30 3620 H 343.333 3.08559 3.42912 0
M  V30 3621 H 341.576 2.95287 3.17786 0
M  V30 3622 H 342.247 2.73183 4.79661 0
M  V30 3623 H 344.723 0.955565 4.04979 0
M  V30 3624 H 343.599 0.824152 5.42678 0
M  V30 3625 H 343.86 -0.565589 4.38467 0
M  V30 3626 N 342.919 -1.39368 0.735821 0
M  V30 3627 C 344.144 -2.05319 0.293052 0
M  V30 3628 C 344.569 -1.55115 -1.064 0
M  V30 3629 O 343.927 -0.695261 -1.67439 0
M  V30 3630 C 343.975 -3.59305 0.305323 0
M  V30 3631 O 343.079 -4.06299 -0.706761 0
M  V30 3632 H 342.42 -0.650529 0.13307 0
M  V30 3633 H 344.95 -1.78386 1.00197 0
M  V30 3634 H 344.96 -4.07724 0.149997 0
M  V30 3635 H 343.635 -3.95207 1.29553 0
M  V30 3636 H 342.212 -3.69292 -0.517504 0
M  V30 3637 N 344.397 -0.483516 -1.5 0
M  V30 3638 C 345.644 0.0671597 -2.02389 0
M  V30 3639 C 345.972 1.38597 -1.36459 0
M  V30 3640 O 345.227 1.89634 -0.483458 0
M  V30 3641 C 345.526 0.286226 -3.56252 0
M  V30 3642 C 345.192 -0.952416 -4.40726 0
M  V30 3643 C 343.854 -1.29199 -4.63531 0
M  V30 3644 C 346.206 -1.77655 -4.89988 0
M  V30 3645 C 343.534 -2.45553 -5.32842 0
M  V30 3646 C 345.886 -2.93147 -5.60578 0
M  V30 3647 C 344.55 -3.27505 -5.81633 0
M  V30 3648 H 343.82 0.0245755 -0.740592 0
M  V30 3649 H 346.467 -0.640124 -1.80485 0
M  V30 3650 H 344.772 1.07587 -3.76739 0
M  V30 3651 H 346.469 0.726473 -3.94365 0
M  V30 3652 H 343.059 -0.677881 -4.23205 0
M  V30 3653 H 347.243 -1.52737 -4.72213 0
M  V30 3654 H 342.499 -2.72431 -5.47349 0
M  V30 3655 H 346.673 -3.57344 -5.97727 0
M  V30 3656 H 344.3 -4.1777 -6.35116 0
M  V30 3657 N 345.875 1.56104 -0.216619 0
M  V30 3658 C 347.124 1.97348 0.416744 0
M  V30 3659 C 347.437 1.10715 1.6125 0
M  V30 3660 O 348.643 1.41836 2.31506 0
M  V30 3661 C 347.099 3.51059 0.792835 0
M  V30 3662 C 346.707 4.46387 -0.379828 0
M  V30 3663 C 348.451 4.01026 1.39208 0
M  V30 3664 C 346.358 5.91397 0.0184223 0
M  V30 3665 H 345.288 0.736942 0.159475 0
M  V30 3666 H 347.939 1.80827 -0.31205 0
M  V30 3667 H 346.321 3.63162 1.57891 0
M  V30 3668 H 347.495 4.46029 -1.15737 0
M  V30 3669 H 345.81 4.06734 -0.891979 0
M  V30 3670 H 348.407 5.0686 1.70286 0
M  V30 3671 H 348.75 3.46587 2.30614 0
M  V30 3672 H 349.283 3.92125 0.669537 0
M  V30 3673 H 346.022 6.49807 -0.862002 0
M  V30 3674 H 345.542 5.94961 0.760384 0
M  V30 3675 H 347.221 6.45455 0.446818 0
M  V30 3676 N 347.353 -0.0568162 1.57498 0
M  V30 3677 C 348.301 -1.08452 2.05769 0
M  V30 3678 C 349.295 -1.39164 0.965903 0
M  V30 3679 O 350.501 -1.38395 1.15095 0
M  V30 3680 H 346.876 -0.367148 0.656282 0
M  V30 3681 H 348.847 -0.651368 2.91204 0
M  V30 3682 C 347.596 -2.38543 2.52968 0
M  V30 3683 H 346.919 -2.15765 3.36579 0
M  V30 3684 H 348.359 -3.08863 2.90481 0
M  V30 3685 C 346.818 -3.05562 1.41893 0
M  V30 3686 O 347.348 -3.94262 0.769442 0
M  V30 3687 N 345.554 -2.6643 1.16032 0
M  V30 3688 H 345.101 -1.94387 1.6903 0
M  V30 3689 H 345.059 -3.11593 0.419219 0
M  V30 3690 N 348.832 -1.54138 -0.328536 0
M  V30 3691 C 349.742 -1.86192 -1.42723 0
M  V30 3692 C 350.758 -0.753382 -1.56844 0
M  V30 3693 O 351.934 -1.04718 -1.72035 0
M  V30 3694 C 348.999 -2.07824 -2.77507 0
M  V30 3695 C 348.06 -3.31641 -2.72603 0
M  V30 3696 C 347.293 -3.52232 -4.00959 0
M  V30 3697 O 347.516 -2.7636 -4.9898 0
M  V30 3698 O 346.45 -4.45699 -4.0452 0
M  V30 3699 H 350.276 -2.79608 -1.18547 0
M  V30 3700 H 347.861 -1.3998 -0.522104 0
M  V30 3701 H 349.743 -2.23411 -3.57303 0
M  V30 3702 H 348.418 -1.17596 -3.01584 0
M  V30 3703 H 347.325 -3.21444 -1.91376 0
M  V30 3704 H 348.658 -4.2191 -2.53481 0
M  V30 3705 N 350.31 0.590341 -1.46126 0
M  V30 3706 C 351.257 1.69994 -1.56111 0
M  V30 3707 C 352.227 1.61065 -0.405867 0
M  V30 3708 O 353.412 1.8039 -0.621613 0
M  V30 3709 C 350.552 3.08326 -1.55013 0
M  V30 3710 C 349.665 3.27936 -2.81215 0
M  V30 3711 C 348.8 4.56473 -2.71673 0
M  V30 3712 C 347.839 4.694 -3.92849 0
M  V30 3713 N 346.976 5.89254 -3.81738 0
M  V30 3714 H 351.816 1.60797 -2.50895 0
M  V30 3715 H 349.353 0.783799 -1.24479 0
M  V30 3716 H 351.311 3.88383 -1.52362 0
M  V30 3717 H 349.941 3.16439 -0.637667 0
M  V30 3718 H 348.993 2.41536 -2.93879 0
M  V30 3719 H 350.305 3.33357 -3.71045 0
M  V30 3720 H 349.459 5.44748 -2.67085 0
M  V30 3721 H 348.198 4.53477 -1.7947 0
M  V30 3722 H 347.203 3.79544 -3.97777 0
M  V30 3723 H 348.428 4.7418 -4.86138 0
M  V30 3724 H 346.374 5.87271 -2.92317 0
M  V30 3725 H 346.291 5.95911 -4.65217 0
M  V30 3726 H 347.559 6.79981 -3.81112 0
M  V30 3727 N 351.788 1.33704 0.83433 0
M  V30 3728 C 352.735 1.24335 1.94447 0
M  V30 3729 C 353.705 0.120991 1.65659 0
M  V30 3730 O 354.89 0.300035 1.88426 0
M  V30 3731 C 352.03 0.993124 3.30501 0
M  V30 3732 C 351.143 2.20217 3.71657 0
M  V30 3733 C 350.278 1.88572 4.96602 0
M  V30 3734 C 349.317 3.05683 5.30306 0
M  V30 3735 N 348.454 2.73997 6.46429 0
M  V30 3736 H 353.294 2.1928 2.01792 0
M  V30 3737 H 350.831 1.09035 0.987404 0
M  V30 3738 H 352.789 0.828467 4.08892 0
M  V30 3739 H 351.419 0.0803902 3.227 0
M  V30 3740 H 350.471 2.47642 2.88752 0
M  V30 3741 H 351.783 3.07752 3.92543 0
M  V30 3742 H 350.937 1.68776 5.82752 0
M  V30 3743 H 349.676 0.982799 4.77695 0
M  V30 3744 H 348.681 3.26088 4.42659 0
M  V30 3745 H 349.906 3.96737 5.51159 0
M  V30 3746 H 347.852 1.86268 6.28999 0
M  V30 3747 H 347.769 3.55064 6.67432 0
M  V30 3748 H 349.037 2.57679 7.35678 0
M  V30 3749 N 353.266 -1.05314 1.17247 0
M  V30 3750 C 354.496 -1.81707 0.983166 0
M  V30 3751 C 354.904 -1.83222 -0.471822 0
M  V30 3752 O 354.247 -1.25721 -1.3394 0
M  V30 3753 C 354.309 -3.29134 1.44606 0
M  V30 3754 C 353.973 -3.51304 2.92292 0
M  V30 3755 C 354.97 -3.4353 3.90235 0
M  V30 3756 C 352.655 -3.78306 3.30439 0
M  V30 3757 C 354.649 -3.62442 5.24323 0
M  V30 3758 C 352.336 -3.96866 4.64694 0
M  V30 3759 C 353.334 -3.88933 5.61445 0
M  V30 3760 O 353.022 -4.06976 6.93272 0
M  V30 3761 H 352.754 -0.579476 0.348114 0
M  V30 3762 H 355.308 -1.33705 1.55924 0
M  V30 3763 H 353.538 -3.78046 0.813537 0
M  V30 3764 H 355.227 -3.87049 1.22262 0
M  V30 3765 H 355.993 -3.22648 3.62109 0
M  V30 3766 H 351.872 -3.83585 2.55702 0
M  V30 3767 H 355.416 -3.56165 5.99827 0
M  V30 3768 H 351.313 -4.1724 4.92525 0
M  V30 3769 H 352.081 -4.24209 6.99992 0
M  V30 3770 N 354.744 -0.972509 -1.24016 0
M  V30 3771 C 355.694 -0.477561 -2.22942 0
M  V30 3772 C 356.678 0.44308 -1.54679 0
M  V30 3773 O 357.87 0.273219 -1.74879 0
M  V30 3774 C 354.999 0.226348 -3.42553 0
M  V30 3775 C 354.085 -0.713403 -4.18057 0
M  V30 3776 N 354.476 -1.8527 -4.70647 0
M  V30 3777 C 352.774 -0.525145 -4.42898 0
M  V30 3778 C 353.475 -2.44089 -5.28011 0
M  V30 3779 N 352.451 -1.72556 -5.15486 0
M  V30 3780 H 356.253 -1.34678 -2.61226 0
M  V30 3781 H 353.767 -0.832196 -1.39457 0
M  V30 3782 H 355.764 0.598184 -4.12586 0
M  V30 3783 H 354.424 1.09195 -3.05788 0
M  V30 3784 H 355.435 -2.2341 -4.67235 0
M  V30 3785 H 352.112 0.296096 -4.16449 0
M  V30 3786 H 353.502 -3.40259 -5.79374 0
M  V30 3787 N 356.222 1.38976 -0.743202 0
M  V30 3788 C 357.152 2.33171 -0.123873 0
M  V30 3789 C 358.133 1.54336 0.71516 0
M  V30 3790 O 359.318 1.82696 0.658467 0
M  V30 3791 C 356.448 3.38474 0.777978 0
M  V30 3792 C 355.402 4.27979 0.0424758 0
M  V30 3793 C 354.728 5.2405 1.06189 0
M  V30 3794 C 356.028 5.10155 -1.1198 0
M  V30 3795 H 357.722 2.85213 -0.910709 0
M  V30 3796 H 355.268 1.37133 -0.439388 0
M  V30 3797 H 357.221 4.03328 1.22084 0
M  V30 3798 H 355.945 2.84891 1.59702 0
M  V30 3799 H 354.604 3.64616 -0.380853 0
M  V30 3800 H 354.252 4.66758 1.87472 0
M  V30 3801 H 353.952 5.84785 0.574485 0
M  V30 3802 H 355.476 5.9178 1.50428 0
M  V30 3803 H 356.89 5.68307 -0.75499 0
M  V30 3804 H 355.287 5.80073 -1.53738 0
M  V30 3805 H 356.357 4.44504 -1.93764 0
M  V30 3806 N 357.7 0.491464 1.49741 0
M  V30 3807 C 358.632 -0.328609 2.26832 0
M  V30 3808 C 359.645 -0.939113 1.32983 0
M  V30 3809 O 360.834 -0.824067 1.58339 0
M  V30 3810 C 357.934 -1.47675 3.05033 0
M  V30 3811 C 357.107 -0.975305 4.26388 0
M  V30 3812 C 356.166 -1.99991 4.86714 0
M  V30 3813 O 355.192 -1.57229 5.47054 0
M  V30 3814 N 356.394 -3.32962 4.75517 0
M  V30 3815 H 359.159 0.332377 2.97851 0
M  V30 3816 H 356.72 0.323441 1.58636 0
M  V30 3817 H 358.712 -2.15954 3.42266 0
M  V30 3818 H 357.282 -2.04206 2.36683 0
M  V30 3819 H 356.502 -0.117723 3.94024 0
M  V30 3820 H 357.79 -0.618531 5.05026 0
M  V30 3821 H 357.188 -3.70399 4.27576 0
M  V30 3822 H 355.745 -3.96982 5.16961 0
M  V30 3823 N 359.178 -1.55987 0.224894 0
M  V30 3824 C 360.088 -2.24066 -0.69511 0
M  V30 3825 C 361.104 -1.24939 -1.21104 0
M  V30 3826 O 362.28 -1.5776 -1.25195 0
M  V30 3827 C 359.345 -2.90983 -1.88493 0
M  V30 3828 C 358.406 -4.05462 -1.41064 0
M  V30 3829 C 357.639 -4.69179 -2.54375 0
M  V30 3830 O 357.862 -4.31895 -3.72589 0
M  V30 3831 O 356.796 -5.58108 -2.25386 0
M  V30 3832 H 360.622 -3.03353 -0.145149 0
M  V30 3833 H 358.207 -1.49399 -0.00569476 0
M  V30 3834 H 360.089 -3.33209 -2.57972 0
M  V30 3835 H 358.764 -2.14653 -2.42293 0
M  V30 3836 H 357.671 -3.67798 -0.683774 0
M  V30 3837 H 359.004 -4.83545 -0.918985 0
M  V30 3838 N 360.656 0.0484629 -1.57525 0
M  V30 3839 C 362.072 0.40375 -1.54409 0
M  V30 3840 C 362.272 1.77786 -0.948384 0
M  V30 3841 O 361.328 2.46189 -0.560983 0
M  V30 3842 C 362.641 0.323394 -2.98956 0
M  V30 3843 C 364.189 0.401892 -3.10409 0
M  V30 3844 C 364.664 0.351195 -4.56652 0
M  V30 3845 N 366.155 0.410576 -4.61377 0
M  V30 3846 C 366.89 0.393933 -5.72045 0
M  V30 3847 N 366.386 0.330724 -6.9201 0
M  V30 3848 N 368.179 0.442227 -5.60358 0
M  V30 3849 H 360.33 -0.851016 -1.94606 0
M  V30 3850 H 362.593 -0.321721 -0.89174 0
M  V30 3851 H 362.299 -0.62011 -3.4619 0
M  V30 3852 H 362.173 1.12463 -3.60044 0
M  V30 3853 H 364.56 1.33582 -2.63134 0
M  V30 3854 H 364.641 -0.428342 -2.52188 0
M  V30 3855 H 364.285 -0.578987 -5.04589 0
M  V30 3856 H 364.215 1.19928 -5.12762 0
M  V30 3857 H 366.706 0.462729 -3.75056 0
M  V30 3858 H 367.019 0.322592 -7.72126 0
M  V30 3859 H 365.364 0.29706 -6.94365 0
M  V30 3860 H 368.555 0.489464 -4.65534 0
M  V30 3861 H 368.728 0.425788 -6.466 0
M  V30 3862 N 362.134 1.5431 0.320358 0
M  V30 3863 C 363.38 1.72924 1.05949 0
M  V30 3864 C 363.713 0.503185 1.87568 0
M  V30 3865 O 362.988 -0.499839 1.87968 0
M  V30 3866 C 363.271 3.00676 1.98156 0
M  V30 3867 C 363.124 4.3354 1.19845 0
M  V30 3868 C 364.443 3.24198 2.9763 0
M  V30 3869 H 361.562 0.629195 0.383774 0
M  V30 3870 H 364.204 1.87008 0.335854 0
M  V30 3871 H 362.354 2.888 2.59859 0
M  V30 3872 H 364.026 4.57305 0.605773 0
M  V30 3873 H 362.269 4.309 0.500784 0
M  V30 3874 H 362.94 5.19156 1.87567 0
M  V30 3875 H 365.416 3.35557 2.4605 0
M  V30 3876 H 364.292 4.14938 3.59329 0
M  V30 3877 H 364.553 2.41577 3.7026 0
M  V30 3878 N 363.613 -0.582584 1.46437 0
M  V30 3879 C 364.89 -1.34276 1.4223 0
M  V30 3880 C 365.27 -2.10835 0.10583 0
M  V30 3881 O 364.618 -2.09485 -0.912596 0
M  V30 3882 C 364.828 -2.26865 2.65204 0
M  V30 3883 C 366.176 -2.88691 3.11356 0
M  V30 3884 O 367.2 -2.37178 2.65753 0
M  V30 3885 O 366.059 -3.82255 3.90568 0
M  V30 3886 H 363.153 -0.603326 0.565621 0
M  V30 3887 H 365.699 -0.603591 1.58603 0
M  V30 3888 H 364.471 -1.69724 3.52576 0
M  V30 3889 H 364.094 -3.08122 2.5129 0
M  V30 3890 N 365.091 -1.34144 -0.827227 0
M  V30 3891 C 366.038 -1.25364 -1.93785 0
M  V30 3892 C 367.008 -0.129774 -1.65592 0
M  V30 3893 O 368.193 -0.310024 -1.88264 0
M  V30 3894 C 365.333 -1.01064 -3.2997 0
M  V30 3895 C 364.446 -2.22185 -3.70484 0
M  V30 3896 C 363.581 -1.91203 -4.95595 0
M  V30 3897 C 362.62 -3.08491 -5.28677 0
M  V30 3898 N 361.757 -2.77421 -6.44967 0
M  V30 3899 H 366.597 -2.20347 -2.00627 0
M  V30 3900 H 364.134 -1.09558 -0.981608 0
M  V30 3901 H 366.092 -0.850139 -4.08446 0
M  V30 3902 H 364.722 -0.0975026 -3.22653 0
M  V30 3903 H 363.774 -2.4917 -2.87434 0
M  V30 3904 H 365.086 -3.0983 -3.90905 0
M  V30 3905 H 364.24 -1.71864 -5.81848 0
M  V30 3906 H 362.979 -1.00812 -4.77167 0
M  V30 3907 H 361.984 -3.28431 -4.40923 0
M  V30 3908 H 363.209 -3.99655 -5.49047 0
M  V30 3909 H 361.155 -1.89601 -6.28003 0
M  V30 3910 H 361.072 -3.58598 -6.6554 0
M  V30 3911 H 362.34 -2.61577 -7.34301 0
M  V30 3912 N 366.569 1.04691 -1.17803 0
M  V30 3913 C 367.815 1.78045 -0.970969 0
M  V30 3914 C 368.148 1.87686 0.498751 0
M  V30 3915 O 367.423 1.38035 1.37027 0
M  V30 3916 C 367.706 3.2166 -1.61884 0
M  V30 3917 C 367.559 3.20001 -3.161 0
M  V30 3918 C 368.878 4.1962 -1.3269 0
M  V30 3919 H 365.997 0.64633 -0.354155 0
M  V30 3920 H 368.639 1.22333 -1.45378 0
M  V30 3921 H 366.789 3.69232 -1.20831 0
M  V30 3922 H 368.461 2.80467 -3.66246 0
M  V30 3923 H 366.704 2.58203 -3.48588 0
M  V30 3924 H 367.375 4.21386 -3.56564 0
M  V30 3925 H 369.851 3.80567 -1.68249 0
M  V30 3926 H 368.727 5.18339 -1.80599 0
M  V30 3927 H 368.988 4.414 -0.248622 0
M  V30 3928 N 368.047 0.979072 1.23499 0
M  V30 3929 C 368.994 0.517904 2.24914 0
M  V30 3930 C 369.964 -0.442525 1.60097 0
M  V30 3931 O 371.149 -0.350365 1.87556 0
M  V30 3932 C 368.289 -0.174813 3.44657 0
M  V30 3933 C 367.402 0.825721 4.24035 0
M  V30 3934 C 366.537 0.107946 5.3109 0
M  V30 3935 C 365.576 1.09778 6.02175 0
M  V30 3936 N 364.713 0.40925 7.00906 0
M  V30 3937 H 369.553 1.38751 2.63727 0
M  V30 3938 H 367.09 0.695303 1.2963 0
M  V30 3939 H 369.048 -0.593233 4.12961 0
M  V30 3940 H 367.678 -1.0083 3.06648 0
M  V30 3941 H 366.73 1.36253 3.55161 0
M  V30 3942 H 368.042 1.58005 4.73113 0
M  V30 3943 H 367.196 -0.367904 6.05583 0
M  V30 3944 H 365.935 -0.678994 4.8295 0
M  V30 3945 H 364.94 1.5844 5.26476 0
M  V30 3946 H 366.165 1.88536 6.52404 0
M  V30 3947 H 364.111 -0.358506 6.5502 0
M  V30 3948 H 364.028 1.10226 7.47921 0
M  V30 3949 H 365.296 -0.0442557 7.79487 0
M  V30 3950 N 369.525 -1.3858 0.750561 0
M  V30 3951 C 370.472 -2.30483 0.120835 0
M  V30 3952 C 371.442 -1.50022 -0.712923 0
M  V30 3953 O 372.627 -1.78662 -0.669676 0
M  V30 3954 C 369.767 -3.36431 -0.768666 0
M  V30 3955 C 368.88 -4.31927 0.0793922 0
M  V30 3956 C 368.015 -5.24944 -0.81283 0
M  V30 3957 C 367.054 -6.12088 0.0390447 0
M  V30 3958 N 366.191 -6.97412 -0.809969 0
M  V30 3959 H 371.031 -2.83761 0.91015 0
M  V30 3960 H 368.568 -1.39707 0.460463 0
M  V30 3961 H 370.526 -3.96462 -1.29898 0
M  V30 3962 H 369.156 -2.8457 -1.5238 0
M  V30 3963 H 368.208 -3.73382 0.727303 0
M  V30 3964 H 369.52 -4.93319 0.737401 0
M  V30 3965 H 368.674 -5.90078 -1.41042 0
M  V30 3966 H 367.413 -4.63911 -1.50458 0
M  V30 3967 H 366.418 -5.45952 0.649328 0
M  V30 3968 H 367.643 -6.75189 0.727809 0
M  V30 3969 H 365.589 -6.38931 -1.48672 0
M  V30 3970 H 365.506 -7.55712 -0.208789 0
M  V30 3971 H 366.774 -7.66959 -1.39263 0
M  V30 3972 N 371.003 -0.499398 -1.49478 0
M  V30 3973 C 371.95 0.279881 -2.29097 0
M  V30 3974 C 372.92 0.961805 -1.3542 0
M  V30 3975 O 374.105 0.968777 -1.64376 0
M  V30 3976 C 371.245 1.33932 -3.18051 0
M  V30 3977 C 370.358 0.669333 -4.26783 0
M  V30 3978 C 369.493 1.70907 -5.02955 0
M  V30 3979 C 368.532 1.02087 -6.03527 0
M  V30 3980 N 367.669 2.00474 -6.7287 0
M  V30 3981 H 372.509 -0.405317 -2.95231 0
M  V30 3982 H 370.046 -0.211726 -1.45568 0
M  V30 3983 H 372.004 1.96553 -3.67998 0
M  V30 3984 H 370.634 1.9933 -2.53904 0
M  V30 3985 H 369.686 -0.0701234 -3.80335 0
M  V30 3986 H 370.998 0.127503 -4.98637 0
M  V30 3987 H 370.152 2.41037 -5.56764 0
M  V30 3988 H 368.891 2.28476 -4.30871 0
M  V30 3989 H 367.896 0.305338 -5.48951 0
M  V30 3990 H 369.121 0.451708 -6.77596 0
M  V30 3991 H 367.067 2.57007 -6.03559 0
M  V30 3992 H 366.984 1.51353 -7.40694 0
M  V30 3993 H 368.252 2.69897 -7.31284 0
M  V30 3994 N 372.481 1.55866 -0.233164 0
M  V30 3995 C 373.727 1.98897 0.395959 0
M  V30 3996 C 374.06 1.12091 1.58585 0
M  V30 3997 O 373.335 0.181182 1.93654 0
M  V30 3998 C 373.618 3.50658 0.819224 0
M  V30 3999 C 373.471 4.48233 -0.375109 0
M  V30 4000 C 374.79 4.07135 1.67121 0
M  V30 4001 H 371.909 0.723102 0.142451 0
M  V30 4002 H 374.551 1.87082 -0.331725 0
M  V30 4003 H 372.701 3.60857 1.43925 0
M  V30 4004 H 374.373 4.50031 -1.01341 0
M  V30 4005 H 372.616 4.21624 -1.02058 0
M  V30 4006 H 373.287 5.51988 -0.0358328 0
M  V30 4007 H 375.763 3.99952 1.14795 0
M  V30 4008 H 374.639 5.13615 1.93625 0
M  V30 4009 H 374.9 3.54736 2.63846 0
M  V30 4010 N 373.959 -0.0401083 1.57549 0
M  V30 4011 C 374.906 -1.04413 2.05831 0
M  V30 4012 C 375.876 -1.36585 0.945184 0
M  V30 4013 O 377.061 -1.47112 1.21502 0
M  V30 4014 C 374.201 -2.34336 2.53339 0
M  V30 4015 C 373.314 -2.08419 3.78398 0
M  V30 4016 C 372.449 -3.32133 4.14561 0
M  V30 4017 C 371.488 -3.01721 5.3257 0
M  V30 4018 N 370.625 -4.17855 5.64218 0
M  V30 4019 H 375.465 -0.625442 2.91363 0
M  V30 4020 H 373.002 -0.297218 1.44066 0
M  V30 4021 H 374.96 -3.10234 2.78946 0
M  V30 4022 H 373.59 -2.73948 1.7074 0
M  V30 4023 H 372.642 -1.23069 3.59942 0
M  V30 4024 H 373.954 -1.81978 4.64419 0
M  V30 4025 H 373.108 -4.16406 4.41238 0
M  V30 4026 H 371.847 -3.61678 3.2717 0
M  V30 4027 H 370.852 -2.15849 5.05657 0
M  V30 4028 H 372.077 -2.73466 6.21605 0
M  V30 4029 H 370.023 -4.47372 4.79786 0
M  V30 4030 H 369.94 -3.94798 6.44725 0
M  V30 4031 H 371.208 -5.03033 5.95465 0
M  V30 4032 N 375.437 -1.54477 -0.31217 0
M  V30 4033 C 376.714 -1.63891 -1.06767 0
M  V30 4034 C 377.094 -0.480028 -2.0557 0
M  V30 4035 O 376.442 0.524487 -2.22399 0
M  V30 4036 C 376.652 -3.01402 -1.75948 0
M  V30 4037 C 378 -3.57838 -2.28554 0
M  V30 4038 O 379.024 -3.03782 -1.85998 0
M  V30 4039 O 377.883 -4.52462 -3.06497 0
M  V30 4040 H 374.977 -0.664125 -0.492816 0
M  V30 4041 H 377.523 -1.66823 -0.311149 0
M  V30 4042 H 376.295 -3.77187 -1.04144 0
M  V30 4043 H 375.918 -3.02199 -2.58383 0
M  V30 4044 N 376.915 0.57481 -1.46744 0
M  V30 4045 C 378.161 1.3347 -1.52688 0
M  V30 4046 C 378.494 1.93353 -0.181229 0
M  V30 4047 O 377.769 1.76912 0.808237 0
M  V30 4048 C 378.052 2.45811 -2.63152 0
M  V30 4049 C 377.905 1.90912 -4.07275 0
M  V30 4050 C 379.224 3.47822 -2.69644 0
M  V30 4051 H 376.343 0.483935 -0.555856 0
M  V30 4052 H 378.985 0.644968 -1.78718 0
M  V30 4053 H 377.135 3.04646 -2.41088 0
M  V30 4054 H 378.807 1.36473 -4.4065 0
M  V30 4055 H 377.05 1.21691 -4.16382 0
M  V30 4056 H 377.721 2.72042 -4.80309 0
M  V30 4057 H 380.197 2.9888 -2.895 0
M  V30 4058 H 379.073 4.23876 -3.48742 0
M  V30 4059 H 379.334 4.05555 -1.76005 0
M  V30 4060 N 378.394 1.34581 0.820102 0
M  V30 4061 C 379.304 1.28471 1.96297 0
M  V30 4062 C 380.32 0.191902 1.72939 0
M  V30 4063 O 381.496 0.418879 1.96996 0
M  V30 4064 C 378.561 1.04281 3.30645 0
M  V30 4065 C 377.622 2.22745 3.66992 0
M  V30 4066 C 376.855 1.997 4.9493 0
M  V30 4067 O 377.078 0.956656 5.6232 0
M  V30 4068 O 376.012 2.86723 5.2922 0
M  V30 4069 H 379.838 2.24624 2.04396 0
M  V30 4070 H 377.423 1.14816 0.955913 0
M  V30 4071 H 379.305 0.925841 4.11104 0
M  V30 4072 H 377.98 0.111697 3.23507 0
M  V30 4073 H 376.887 2.40003 2.86966 0
M  V30 4074 H 378.22 3.14257 3.78819 0
M  V30 4075 N 379.872 -1.04064 1.18357 0
M  V30 4076 C 380.782 -2.15569 0.925596 0
M  V30 4077 C 381.798 -1.7365 -0.110295 0
M  V30 4078 O 382.974 -2.01273 0.0716218 0
M  V30 4079 C 380.039 -3.43704 0.454836 0
M  V30 4080 C 379.1 -4.00004 1.55869 0
M  V30 4081 C 378.333 -5.22023 1.1103 0
M  V30 4082 O 378.556 -5.70392 -0.0309756 0
M  V30 4083 O 377.49 -5.70856 1.90805 0
M  V30 4084 H 381.316 -2.40187 1.8586 0
M  V30 4085 H 378.901 -1.1402 0.965394 0
M  V30 4086 H 380.783 -4.20923 0.200382 0
M  V30 4087 H 379.458 -3.20559 -0.449876 0
M  V30 4088 H 378.365 -3.24172 1.86716 0
M  V30 4089 H 379.698 -4.2749 2.43953 0
M  V30 4090 N 381.35 -0.985608 -1.22978 0
M  V30 4091 C 382.297 -0.529825 -2.24636 0
M  V30 4092 C 383.267 0.434028 -1.60329 0
M  V30 4093 O 384.452 0.340414 -1.87739 0
M  V30 4094 C 381.592 0.156533 -3.44745 0
M  V30 4095 C 380.705 -0.848197 -4.23591 0
M  V30 4096 C 379.84 -0.136109 -5.31026 0
M  V30 4097 C 378.879 -1.1297 -6.01585 0
M  V30 4098 N 378.016 -0.446415 -7.00679 0
M  V30 4099 H 382.856 -1.40148 -2.62988 0
M  V30 4100 H 380.393 -0.702168 -1.29259 0
M  V30 4101 H 382.351 0.571324 -4.1327 0
M  V30 4102 H 380.981 0.992025 -3.07179 0
M  V30 4103 H 380.033 -1.38135 -3.54433 0
M  V30 4104 H 381.345 -1.60512 -4.72268 0
M  V30 4105 H 380.499 0.335784 -6.0577 0
M  V30 4106 H 379.238 0.653373 -4.83304 0
M  V30 4107 H 378.243 -1.6123 -5.25628 0
M  V30 4108 H 379.468 -1.91993 -6.51395 0
M  V30 4109 H 377.414 0.323763 -6.55201 0
M  V30 4110 H 377.331 -1.1419 -7.47326 0
M  V30 4111 H 378.599 0.00291697 -7.795 0
M  V30 4112 N 382.828 1.3818 -0.7579 0
M  V30 4113 C 384.053 2.04827 -0.325679 0
M  V30 4114 C 384.478 1.56788 1.03919 0
M  V30 4115 O 383.836 0.721811 1.66312 0
M  V30 4116 C 383.884 3.58774 -0.362447 0
M  V30 4117 O 382.988 4.07372 0.642033 0
M  V30 4118 H 382.329 0.64833 -0.143402 0
M  V30 4119 H 384.859 1.7677 -1.03023 0
M  V30 4120 H 384.869 4.07434 -0.214844 0
M  V30 4121 H 383.544 3.93096 -1.35824 0
M  V30 4122 H 382.121 3.70068 0.458688 0
M  V30 4123 N 384.306 0.507319 1.49211 0
M  V30 4124 C 385.253 -0.267728 2.29242 0
M  V30 4125 C 386.223 -0.954609 1.35928 0
M  V30 4126 O 387.408 -0.960046 1.64887 0
M  V30 4127 C 384.548 -1.32243 3.18756 0
M  V30 4128 C 383.661 -0.64669 4.27132 0
M  V30 4129 C 382.796 -1.68238 5.03855 0
M  V30 4130 C 381.835 -0.98885 6.0406 0
M  V30 4131 N 380.972 -1.96903 6.73924 0
M  V30 4132 H 385.812 0.420968 2.95012 0
M  V30 4133 H 383.349 0.219443 1.45454 0
M  V30 4134 H 385.307 -1.94599 3.69036 0
M  V30 4135 H 383.937 -1.97981 2.54958 0
M  V30 4136 H 382.989 0.0902926 3.80293 0
M  V30 4137 H 384.301 -0.101058 4.98698 0
M  V30 4138 H 383.455 -2.38081 5.58034 0
M  V30 4139 H 382.194 -2.26187 4.32077 0
M  V30 4140 H 381.199 -0.276222 5.49106 0
M  V30 4141 H 382.424 -0.415767 6.77826 0
M  V30 4142 H 380.37 -2.53803 6.04913 0
M  V30 4143 H 380.287 -1.47423 7.41487 0
M  V30 4144 H 381.555 -2.66015 7.32705 0
M  V30 4145 N 385.784 -1.5574 0.241426 0
M  V30 4146 C 386.694 -2.2479 -0.671305 0
M  V30 4147 C 387.71 -1.26217 -1.19772 0
M  V30 4148 O 388.886 -1.59079 -1.23514 0
M  V30 4149 C 385.951 -2.92966 -1.85396 0
M  V30 4150 C 385.012 -4.06935 -1.36756 0
M  V30 4151 C 384.245 -4.71851 -2.49384 0
M  V30 4152 O 384.468 -4.35823 -3.67987 0
M  V30 4153 O 383.402 -5.60467 -2.19454 0
M  V30 4154 H 387.228 -3.0349 -0.112966 0
M  V30 4155 H 384.813 -1.49397 0.0101513 0
M  V30 4156 H 386.695 -3.35927 -2.54423 0
M  V30 4157 H 385.37 -2.17211 -2.40002 0
M  V30 4158 H 384.277 -3.68503 -0.644726 0
M  V30 4159 H 385.61 -4.84492 -0.867647 0
M  V30 4160 N 387.262 0.0317525 -1.57568 0
M  V30 4161 C 388.509 0.723104 -1.89149 0
M  V30 4162 C 388.837 1.75504 -0.838377 0
M  V30 4163 O 388.092 1.95037 0.160982 0
M  V30 4164 C 388.391 1.43167 -3.27472 0
M  V30 4165 C 388.057 0.535972 -4.47703 0
M  V30 4166 C 386.719 0.289262 -4.8033 0
M  V30 4167 C 389.071 -0.0826125 -5.21135 0
M  V30 4168 C 386.399 -0.584853 -5.83778 0
M  V30 4169 C 388.751 -0.944414 -6.25511 0
M  V30 4170 C 387.415 -1.20061 -6.56614 0
M  V30 4171 H 386.685 0.264602 -0.692146 0
M  V30 4172 H 389.332 -0.0169496 -1.91492 0
M  V30 4173 H 387.637 2.24497 -3.21105 0
M  V30 4174 H 389.334 1.97209 -3.49155 0
M  V30 4175 H 385.924 0.738414 -4.22191 0
M  V30 4176 H 390.108 0.0950302 -4.96209 0
M  V30 4177 H 385.364 -0.79168 -6.06253 0
M  V30 4178 H 389.538 -1.43026 -6.81554 0
M  V30 4179 H 387.165 -1.87967 -7.36595 0
M  V30 4180 N 388.74 1.54641 0.303973 0
M  V30 4181 C 389.986 1.74038 1.04109 0
M  V30 4182 C 390.319 0.523051 1.87024 0
M  V30 4183 O 389.594 -0.479874 1.88487 0
M  V30 4184 C 389.877 3.02761 1.94955 0
M  V30 4185 C 389.73 4.34787 1.1524 0
M  V30 4186 C 391.049 3.27336 2.94175 0
M  V30 4187 H 388.168 0.63323 0.377079 0
M  V30 4188 H 390.81 1.87354 0.316001 0
M  V30 4189 H 388.96 2.9154 2.56782 0
M  V30 4190 H 390.632 4.57922 0.557236 0
M  V30 4191 H 388.875 4.31407 0.455053 0
M  V30 4192 H 389.546 5.21116 1.8205 0
M  V30 4193 H 392.022 3.38148 2.42477 0
M  V30 4194 H 390.898 4.18726 3.54908 0
M  V30 4195 H 391.159 2.45491 3.67677 0
M  V30 4196 N 390.218 -0.567019 1.47046 0
M  V30 4197 C 391.15 -1.68985 1.54844 0
M  V30 4198 C 392.163 -1.56869 0.435431 0
M  V30 4199 O 393.352 -1.64006 0.70457 0
M  V30 4200 C 390.452 -3.07373 1.42742 0
M  V30 4201 C 389.625 -3.45339 2.6844 0
M  V30 4202 C 388.684 -4.62849 2.50314 0
M  V30 4203 O 387.71 -4.67922 3.24095 0
M  V30 4204 N 388.912 -5.58726 1.57499 0
M  V30 4205 H 391.677 -1.62745 2.51663 0
M  V30 4206 H 389.238 -0.753411 1.43302 0
M  V30 4207 H 391.23 -3.83803 1.28365 0
M  V30 4208 H 389.8 -3.07893 0.540445 0
M  V30 4209 H 389.02 -2.58455 2.97648 0
M  V30 4210 H 390.308 -3.67476 3.51907 0
M  V30 4211 H 389.706 -5.57376 0.966876 0
M  V30 4212 H 388.263 -6.34523 1.49078 0
M  V30 4213 N 391.696 -1.35014 -0.812953 0
M  V30 4214 C 392.643 -1.27412 -1.92444 0
M  V30 4215 C 393.613 -0.14733 -1.65445 0
M  V30 4216 O 394.798 -0.329974 -1.87925 0
M  V30 4217 C 391.938 -1.04558 -3.28879 0
M  V30 4218 C 391.051 -2.26101 -3.68106 0
M  V30 4219 C 390.186 -1.96449 -4.9354 0
M  V30 4220 C 389.225 -3.14081 -5.25376 0
M  V30 4221 N 388.362 -2.84246 -6.41988 0
M  V30 4222 H 393.202 -2.22463 -1.98278 0
M  V30 4223 H 390.739 -1.10593 -0.969933 0
M  V30 4224 H 392.697 -0.893413 -4.07522 0
M  V30 4225 H 391.327 -0.131719 -3.22531 0
M  V30 4226 H 390.379 -2.52204 -2.84775 0
M  V30 4227 H 391.691 -3.13959 -3.87597 0
M  V30 4228 H 390.845 -1.78026 -5.79993 0
M  V30 4229 H 389.584 -1.05867 -4.76071 0
M  V30 4230 H 388.589 -3.33089 -4.37415 0
M  V30 4231 H 389.814 -4.05455 -5.44778 0
M  V30 4232 H 387.76 -1.96252 -6.25956 0
M  V30 4233 H 387.677 -3.65637 -6.61699 0
M  V30 4234 H 388.945 -2.6935 -7.31485 0
M  V30 4235 N 393.175 1.03435 -1.18907 0
M  V30 4236 C 394.421 1.77005 -0.989798 0
M  V30 4237 C 394.754 1.88205 0.478816 0
M  V30 4238 O 394.029 1.39481 1.35556 0
M  V30 4239 C 394.312 3.19925 -1.65287 0
M  V30 4240 C 394.165 3.1663 -3.19477 0
M  V30 4241 C 395.484 4.18189 -1.37134 0
M  V30 4242 H 392.603 0.642538 -0.360991 0
M  V30 4243 H 395.245 1.20784 -1.46667 0
M  V30 4244 H 393.395 3.67929 -1.24741 0
M  V30 4245 H 395.067 2.76567 -3.692 0
M  V30 4246 H 393.31 2.54491 -3.51307 0
M  V30 4247 H 393.981 4.1758 -3.61013 0
M  V30 4248 H 396.457 3.78761 -1.72276 0
M  V30 4249 H 395.333 5.16394 -1.86087 0
M  V30 4250 H 395.594 4.41112 -0.295424 0
M  V30 4251 N 394.653 0.992116 1.22453 0
M  V30 4252 C 395.563 0.55065 2.28046 0
M  V30 4253 C 396.579 -0.400189 1.69335 0
M  V30 4254 O 397.755 -0.267215 1.99619 0
M  V30 4255 C 394.82 -0.128496 3.46462 0
M  V30 4256 C 393.881 0.865208 4.20491 0
M  V30 4257 C 393.114 0.218377 5.33253 0
M  V30 4258 O 393.337 -0.987894 5.6178 0
M  V30 4259 O 392.271 0.922845 5.94783 0
M  V30 4260 H 396.097 1.4291 2.67975 0
M  V30 4261 H 393.682 0.760326 1.28606 0
M  V30 4262 H 395.564 -0.508947 4.18315 0
M  V30 4263 H 394.239 -0.981526 3.0846 0
M  V30 4264 H 393.146 1.29658 3.50913 0
M  V30 4265 H 394.479 1.68741 4.62371 0
M  V30 4266 N 396.131 -1.37776 0.765217 0
M  V30 4267 C 397.041 -2.34135 0.147666 0
M  V30 4268 C 398.057 -1.59854 -0.687215 0
M  V30 4269 O 399.233 -1.91983 -0.608659 0
M  V30 4270 C 396.298 -3.3901 -0.72617 0
M  V30 4271 C 395.359 -4.2912 0.124417 0
M  V30 4272 C 394.592 -5.28986 -0.707807 0
M  V30 4273 O 394.815 -5.36205 -1.94525 0
M  V30 4274 O 393.749 -6.01779 -0.12046 0
M  V30 4275 H 397.575 -2.88664 0.943758 0
M  V30 4276 H 395.16 -1.39824 0.526277 0
M  V30 4277 H 397.042 -4.03195 -1.22524 0
M  V30 4278 H 395.717 -2.86819 -1.50056 0
M  V30 4279 H 394.624 -3.68057 0.669696 0
M  V30 4280 H 395.957 -4.84598 0.861736 0
M  V30 4281 N 397.609 -0.515225 -1.4894 0
M  V30 4282 C 398.556 0.255567 -2.29381 0
M  V30 4283 C 399.526 0.947387 -1.36432 0
M  V30 4284 O 400.711 0.951288 -1.65394 0
M  V30 4285 C 397.851 1.30551 -3.19453 0
M  V30 4286 C 396.964 0.624029 -4.27469 0
M  V30 4287 C 396.099 1.65563 -5.0474 0
M  V30 4288 C 395.138 0.956802 -6.04576 0
M  V30 4289 N 394.275 1.93326 -6.74959 0
M  V30 4290 H 399.115 -0.436607 -2.94784 0
M  V30 4291 H 396.652 -0.227154 -1.45336 0
M  V30 4292 H 398.61 1.92639 -3.70062 0
M  V30 4293 H 397.24 1.96626 -2.56004 0
M  V30 4294 H 396.292 -0.110459 -3.8024 0
M  V30 4295 H 397.604 0.0746092 -4.98744 0
M  V30 4296 H 396.758 2.35119 -5.59289 0
M  V30 4297 H 395.497 2.23893 -4.3327 0
M  V30 4298 H 394.502 0.247097 -5.49244 0
M  V30 4299 H 395.727 0.379814 -6.78037 0
M  V30 4300 H 393.673 2.50591 -6.06251 0
M  V30 4301 H 393.59 1.43489 -7.42258 0
M  V30 4302 H 394.858 2.62126 -7.34105 0
M  V30 4303 N 399.087 1.5561 -0.249682 0
M  V30 4304 C 400.312 2.03865 0.381305 0
M  V30 4305 C 400.737 1.12769 1.50548 0
M  V30 4306 O 400.095 0.121189 1.80895 0
M  V30 4307 C 400.143 3.50101 0.863816 0
M  V30 4308 O 399.247 3.62132 1.97318 0
M  V30 4309 H 398.588 0.658827 0.0827194 0
M  V30 4310 H 401.118 2.01105 -0.376552 0
M  V30 4311 H 401.128 3.90975 1.1663 0
M  V30 4312 H 399.803 4.1588 0.0411816 0
M  V30 4313 H 398.38 3.33155 1.67517 0
M  V30 4314 N 400.565 -0.0233959 1.57583 0
M  V30 4315 C 401.814 -0.712133 1.8871 0
M  V30 4316 C 402.127 -1.76217 0.848944 0
M  V30 4317 O 403.333 -2.50389 1.04964 0
M  V30 4318 C 401.789 -1.3177 3.3491 0
M  V30 4319 C 401.397 -0.303715 4.46969 0
M  V30 4320 C 403.141 -1.98598 3.75179 0
M  V30 4321 C 401.048 -0.917945 5.84233 0
M  V30 4322 H 399.978 -0.269735 0.704101 0
M  V30 4323 H 402.629 0.0333114 1.8347 0
M  V30 4324 H 401.011 -2.11304 3.34913 0
M  V30 4325 H 402.185 0.465325 4.58445 0
M  V30 4326 H 400.5 0.2628 4.1557 0
M  V30 4327 H 403.097 -2.45416 4.75053 0
M  V30 4328 H 403.44 -2.80659 3.07468 0
M  V30 4329 H 403.973 -1.25831 3.77374 0
M  V30 4330 H 400.712 -0.136633 6.55358 0
M  V30 4331 H 400.232 -1.65669 5.76467 0
M  V30 4332 H 401.911 -1.4236 6.31144 0
M  V30 4333 N 402.043 -1.548 -0.295768 0
M  V30 4334 C 403.32 -1.65014 -1.05023 0
M  V30 4335 C 403.7 -0.501805 -2.05049 0
M  V30 4336 O 403.048 0.500869 -2.22943 0
M  V30 4337 C 403.258 -3.03252 -1.72741 0
M  V30 4338 C 404.606 -3.60242 -2.24746 0
M  V30 4339 O 405.63 -3.05737 -1.82765 0
M  V30 4340 O 404.489 -4.55687 -3.01681 0
M  V30 4341 H 401.583 -0.669314 -0.485744 0
M  V30 4342 H 404.129 -1.67144 -0.293438 0
M  V30 4343 H 402.901 -3.7827 -1.00138 0
M  V30 4344 H 402.524 -3.04922 -2.55163 0
M  V30 4345 N 403.521 0.559213 -1.47345 0
M  V30 4346 C 404.451 1.67622 -1.62558 0
M  V30 4347 C 405.432 1.63331 -0.475087 0
M  V30 4348 O 406.617 1.80983 -0.704182 0
M  V30 4349 C 403.747 3.0626 -1.63774 0
M  V30 4350 C 402.701 3.25397 -2.7803 0
M  V30 4351 C 402.027 4.64801 -2.64318 0
M  V30 4352 C 403.327 3.10965 -4.19641 0
M  V30 4353 H 405.021 1.55146 -2.56067 0
M  V30 4354 H 402.567 0.744961 -1.23233 0
M  V30 4355 H 404.52 3.84247 -1.73008 0
M  V30 4356 H 403.244 3.1969 -0.66825 0
M  V30 4357 H 401.903 2.49817 -2.68304 0
M  V30 4358 H 401.551 4.75028 -1.65401 0
M  V30 4359 H 401.251 4.78555 -3.40968 0
M  V30 4360 H 402.775 5.44926 -2.75478 0
M  V30 4361 H 404.189 3.78772 -4.30354 0
M  V30 4362 H 402.586 3.36229 -4.97062 0
M  V30 4363 H 403.656 2.07736 -4.38148 0
M  V30 4364 N 404.999 1.35443 0.805782 0
M  V30 4365 C 406.248 1.28097 1.55801 0
M  V30 4366 C 406.561 -0.142428 1.95081 0
M  V30 4367 O 407.767 -0.33817 2.69386 0
M  V30 4368 C 406.223 2.24653 2.81174 0
M  V30 4369 C 405.831 3.72342 2.49129 0
M  V30 4370 C 407.575 2.2625 3.59181 0
M  V30 4371 C 405.482 4.60719 3.70799 0
M  V30 4372 H 404.412 0.475937 0.584808 0
M  V30 4373 H 407.063 1.60712 0.885661 0
M  V30 4374 H 405.445 1.85011 3.50124 0
M  V30 4375 H 406.619 4.20624 1.88181 0
M  V30 4376 H 404.934 3.73361 1.84366 0
M  V30 4377 H 407.531 2.89495 4.49552 0
M  V30 4378 H 407.874 1.26647 3.96568 0
M  V30 4379 H 408.407 2.64426 2.97193 0
M  V30 4380 H 405.146 5.61324 3.3852 0
M  V30 4381 H 404.666 4.17163 4.3097 0
M  V30 4382 H 406.345 4.76182 4.38018 0
M  V30 4383 N 406.477 -1.02803 1.19454 0
M  V30 4384 C 407.409 -2.11181 0.890807 0
M  V30 4385 C 408.422 -1.6238 -0.116829 0
M  V30 4386 O 409.611 -1.78144 0.112694 0
M  V30 4387 C 406.711 -3.37461 0.311942 0
M  V30 4388 C 405.884 -4.15446 1.36834 0
M  V30 4389 C 404.943 -5.20039 0.802864 0
M  V30 4390 O 403.969 -5.49602 1.48077 0
M  V30 4391 N 405.171 -5.79165 -0.393417 0
M  V30 4392 H 407.936 -2.37827 1.82369 0
M  V30 4393 H 405.497 -1.19101 1.09666 0
M  V30 4394 H 407.489 -4.0462 -0.0802225 0
M  V30 4395 H 406.059 -3.08156 -0.52524 0
M  V30 4396 H 405.279 -3.43423 1.93531 0
M  V30 4397 H 406.567 -4.64335 2.08015 0
M  V30 4398 H 405.965 -5.57466 -0.961658 0
M  V30 4399 H 404.522 -6.47729 -0.727351 0
M  V30 4400 N 407.956 -0.998596 -1.21925 0
M  V30 4401 C 408.903 -0.553621 -2.24062 0
M  V30 4402 C 409.873 0.416999 -1.6078 0
M  V30 4403 O 411.058 0.320482 -1.88089 0
M  V30 4404 C 408.198 0.119959 -3.44891 0
M  V30 4405 C 407.311 -0.893077 -4.22668 0
M  V30 4406 C 406.446 -0.192424 -5.30851 0
M  V30 4407 C 405.485 -1.19344 -6.00353 0
M  V30 4408 N 404.622 -0.520707 -7.00166 0
M  V30 4409 H 409.462 -1.4293 -2.61486 0
M  V30 4410 H 406.999 -0.715838 -1.28507 0
M  V30 4411 H 408.957 0.527459 -4.13852 0
M  V30 4412 H 407.587 0.959389 -3.08214 0
M  V30 4413 H 406.639 -1.41886 -3.52948 0
M  V30 4414 H 407.951 -1.65512 -4.70539 0
M  V30 4415 H 407.105 0.271515 -6.06092 0
M  V30 4416 H 405.844 0.602075 -4.83969 0
M  V30 4417 H 404.849 -1.66795 -5.23889 0
M  V30 4418 H 406.074 -1.98891 -6.49322 0
M  V30 4419 H 404.02 0.254252 -6.55507 0
M  V30 4420 H 403.937 -1.2211 -7.46073 0
M  V30 4421 H 405.205 -0.0797596 -7.79459 0
M  V30 4422 N 409.434 1.37368 -0.772513 0
M  V30 4423 C 410.68 2.00423 -0.3467 0
M  V30 4424 C 411.035 1.60224 1.06518 0
M  V30 4425 O 410.328 0.838712 1.72268 0
M  V30 4426 C 410.522 3.54817 -0.428876 0
M  V30 4427 C 410.351 4.10011 -1.84719 0
M  V30 4428 C 409.121 4.40927 -2.46803 0
M  V30 4429 C 411.319 4.30955 -2.80681 0
M  V30 4430 N 409.301 4.8184 -3.80399 0
M  V30 4431 C 410.672 4.74486 -3.99078 0
M  V30 4432 C 412.727 4.1309 -2.77958 0
M  V30 4433 C 411.43 5.02023 -5.15136 0
M  V30 4434 C 413.456 4.41764 -3.9319 0
M  V30 4435 C 412.818 4.85535 -5.10328 0
M  V30 4436 H 408.917 0.762413 -0.173927 0
M  V30 4437 H 411.501 1.66666 -1.00651 0
M  V30 4438 H 409.672 3.87881 0.200757 0
M  V30 4439 H 411.404 4.04696 0.0190668 0
M  V30 4440 H 408.159 4.30033 -1.98415 0
M  V30 4441 H 408.583 5.06604 -4.49089 0
M  V30 4442 H 413.225 3.7842 -1.88568 0
M  V30 4443 H 410.943 5.35582 -6.05126 0
M  V30 4444 H 414.529 4.29528 -3.92425 0
M  V30 4445 H 413.409 5.07296 -5.98013 0
M  V30 4446 N 410.912 0.523116 1.48665 0
M  V30 4447 C 411.822 -0.247406 2.33292 0
M  V30 4448 C 412.838 -0.945769 1.46052 0
M  V30 4449 O 414.014 -0.922253 1.79043 0
M  V30 4450 C 411.079 -1.28487 3.22012 0
M  V30 4451 C 410.14 -0.597592 4.2512 0
M  V30 4452 C 409.373 -1.58563 5.09601 0
M  V30 4453 O 409.596 -2.81763 4.95949 0
M  V30 4454 O 408.53 -1.12879 5.91221 0
M  V30 4455 H 412.356 0.445869 3.00409 0
M  V30 4456 H 409.941 0.284128 1.46673 0
M  V30 4457 H 411.823 -1.88459 3.7691 0
M  V30 4458 H 410.498 -1.96068 2.57564 0
M  V30 4459 H 409.405 0.0424407 3.74076 0
M  V30 4460 H 410.738 0.0361517 4.92187 0
M  V30 4461 N 412.39 -1.55475 0.257931 0
M  V30 4462 C 413.3 -2.2549 -0.647425 0
M  V30 4463 C 414.316 -1.2748 -1.18427 0
M  V30 4464 O 415.492 -1.6038 -1.2182 0
M  V30 4465 C 412.557 -2.94916 -1.82278 0
M  V30 4466 C 411.618 -4.08363 -1.32432 0
M  V30 4467 C 410.851 -4.74469 -2.44366 0
M  V30 4468 O 411.074 -4.39701 -3.63344 0
M  V30 4469 O 410.008 -5.62763 -2.13497 0
M  V30 4470 H 413.834 -3.03593 -0.0807707 0
M  V30 4471 H 411.419 -1.49377 0.0259962 0
M  V30 4472 H 413.301 -3.38606 -2.50846 0
M  V30 4473 H 411.976 -2.19744 -2.37685 0
M  V30 4474 H 410.883 -3.69166 -0.605605 0
M  V30 4475 H 412.216 -4.85385 -0.816211 0
M  V30 4476 N 413.868 0.0150385 -1.57593 0
M  V30 4477 C 414.815 1.01126 -2.07466 0
M  V30 4478 C 415.785 1.35064 -0.966794 0
M  V30 4479 O 416.97 1.4516 -1.23827 0
M  V30 4480 C 414.11 2.30276 -2.57035 0
M  V30 4481 C 413.223 2.02373 -3.81666 0
M  V30 4482 C 412.358 3.25496 -4.19793 0
M  V30 4483 C 411.397 2.93211 -5.37303 0
M  V30 4484 N 410.534 4.08826 -5.70794 0
M  V30 4485 H 415.374 0.57901 -2.92321 0
M  V30 4486 H 412.911 0.27426 -1.44521 0
M  V30 4487 H 414.869 3.05757 -2.83846 0
M  V30 4488 H 413.499 2.71197 -1.75077 0
M  V30 4489 H 412.551 1.17327 -3.61854 0
M  V30 4490 H 413.863 1.74567 -4.67256 0
M  V30 4491 H 413.017 4.09333 -4.47807 0
M  V30 4492 H 411.756 3.56428 -3.32882 0
M  V30 4493 H 410.761 2.07777 -5.09027 0
M  V30 4494 H 411.986 2.63542 -6.25877 0
M  V30 4495 H 409.932 4.39682 -4.86842 0
M  V30 4496 H 409.849 3.84491 -6.50924 0
M  V30 4497 H 411.117 4.93496 -6.03392 0
M  V30 4498 N 415.346 1.54954 0.287554 0
M  V30 4499 C 416.571 1.79209 1.04397 0
M  V30 4500 C 416.996 0.556431 1.79682 0
M  V30 4501 O 416.354 -0.493518 1.74454 0
M  V30 4502 C 416.402 3.00739 1.98969 0
M  V30 4503 O 415.506 2.74805 3.075 0
M  V30 4504 H 414.847 0.592755 0.299227 0
M  V30 4505 H 417.377 2.02068 0.320886 0
M  V30 4506 H 417.387 3.29077 2.4119 0
M  V30 4507 H 416.062 3.90329 1.43582 0
M  V30 4508 H 414.639 2.57523 2.69697 0
M  V30 4509 N 416.824 -0.551391 1.4764 0
M  V30 4510 C 418.24 -0.877887 1.33287 0
M  V30 4511 C 418.44 -1.98817 0.327721 0
M  V30 4512 O 417.496 -2.51171 -0.258695 0
M  V30 4513 C 418.809 -1.26563 2.72768 0
M  V30 4514 C 420.357 -1.37673 2.81097 0
M  V30 4515 C 420.832 -1.79799 4.21232 0
M  V30 4516 N 422.323 -1.8694 4.23802 0
M  V30 4517 C 423.058 -2.20876 5.29151 0
M  V30 4518 N 422.554 -2.53386 6.448 0
M  V30 4519 N 424.347 -2.217 5.16532 0
M  V30 4520 H 416.498 0.18153 2.11623 0
M  V30 4521 H 418.761 0.0185514 0.947818 0
M  V30 4522 H 418.467 -0.523591 3.47781 0
M  V30 4523 H 418.341 -2.22052 3.04915 0
M  V30 4524 H 420.728 -2.10956 2.06353 0
M  V30 4525 H 420.809 -0.40357 2.52596 0
M  V30 4526 H 420.453 -1.07083 4.96483 0
M  V30 4527 H 420.383 -2.78128 4.4716 0
M  V30 4528 H 422.874 -1.64179 3.40373 0
M  V30 4529 H 423.187 -2.78325 7.20941 0
M  V30 4530 H 421.532 -2.50953 6.48111 0
M  V30 4531 H 424.723 -1.95745 4.25207 0
M  V30 4532 H 424.896 -2.47818 5.98741 0
M  V30 4533 N 418.302 -1.35869 -0.798587 0
M  V30 4534 C 419.212 -1.31578 -1.94228 0
M  V30 4535 C 420.228 -0.21939 -1.72611 0
M  V30 4536 O 421.404 -0.450167 -1.96305 0
M  V30 4537 C 418.469 -1.09528 -3.28944 0
M  V30 4538 C 417.53 -2.28556 -3.63402 0
M  V30 4539 C 416.763 -2.07549 -4.9169 0
M  V30 4540 O 416.986 -1.046 -5.60727 0
M  V30 4541 O 415.92 -2.95106 -5.24591 0
M  V30 4542 H 419.746 -2.27847 -2.00796 0
M  V30 4543 H 417.331 -1.16322 -0.937526 0
M  V30 4544 H 419.213 -0.991127 -4.09579 0
M  V30 4545 H 417.888 -0.16315 -3.23289 0
M  V30 4546 H 416.795 -2.44538 -2.83112 0
M  V30 4547 H 418.128 -3.20244 -3.73771 0
M  V30 4548 N 419.78 1.02168 -1.19998 0
M  V30 4549 C 421.027 1.75685 -1.00702 0
M  V30 4550 C 421.355 1.88947 0.461426 0
M  V30 4551 O 420.61 1.40832 1.35885 0
M  V30 4552 C 420.909 3.18081 -1.62969 0
M  V30 4553 C 420.575 3.24809 -3.12746 0
M  V30 4554 C 419.237 3.26352 -3.53621 0
M  V30 4555 C 421.589 3.23379 -4.08749 0
M  V30 4556 C 418.917 3.2413 -4.89036 0
M  V30 4557 C 421.269 3.22698 -5.44104 0
M  V30 4558 C 419.933 3.22542 -5.84399 0
M  V30 4559 H 419.203 0.642877 -0.368496 0
M  V30 4560 H 421.85 1.19865 -1.49348 0
M  V30 4561 H 420.155 3.77027 -1.06573 0
M  V30 4562 H 421.852 3.73648 -1.45561 0
M  V30 4563 H 418.442 3.2434 -2.80181 0
M  V30 4564 H 422.626 3.21361 -3.78207 0
M  V30 4565 H 417.882 3.22338 -5.19527 0
M  V30 4566 H 422.056 3.20543 -6.18244 0
M  V30 4567 H 419.683 3.20575 -6.89301 0
M  V30 4568 N 421.258 1.00505 1.21394 0
M  V30 4569 C 422.507 0.683159 1.89778 0
M  V30 4570 C 422.82 -0.789471 1.7896 0
M  V30 4571 O 424.026 -1.22344 2.42372 0
M  V30 4572 C 422.482 1.17146 3.40301 0
M  V30 4573 C 422.09 2.67017 3.5973 0
M  V30 4574 C 423.834 0.924461 4.14311 0
M  V30 4575 C 421.741 3.09387 5.04017 0
M  V30 4576 H 420.671 0.25183 0.710702 0
M  V30 4577 H 423.322 1.21622 1.37406 0
M  V30 4578 H 421.704 0.566451 3.91928 0
M  V30 4579 H 422.878 3.32968 3.18542 0
M  V30 4580 H 421.193 2.89732 2.99073 0
M  V30 4581 H 423.79 1.21658 5.20676 0
M  V30 4582 H 424.133 -0.139286 4.16067 0
M  V30 4583 H 424.666 1.49226 3.6875 0
M  V30 4584 H 421.405 4.14989 5.07409 0
M  V30 4585 H 420.925 2.48149 5.46061 0
M  V30 4586 H 422.604 3.01371 5.72525 0
M  V30 4587 N 422.737 -1.36956 0.779787 0
M  V30 4588 C 423.985 -1.99097 0.347079 0
M  V30 4589 C 424.306 -1.62206 -1.08232 0
M  V30 4590 O 423.576 -0.891373 -1.74446 0
M  V30 4591 H 422.156 -0.736409 0.125342 0
M  V30 4592 H 424.818 -1.67308 0.999696 0
M  V30 4593 H 423.914 -3.09107 0.431162 0
M  V30 4594 N 424.215 -0.530993 -1.48385 0
M  V30 4595 C 425.44 0.000729535 -2.074 0
M  V30 4596 C 425.865 1.27298 -1.3848 0
M  V30 4597 O 425.223 1.75599 -0.451081 0
M  V30 4598 C 425.271 0.206697 -3.60007 0
M  V30 4599 O 424.375 1.27514 -3.92191 0
M  V30 4600 H 423.716 -0.039583 -0.662819 0
M  V30 4601 H 426.246 -0.739194 -1.9078 0
M  V30 4602 H 426.256 0.42904 -4.05738 0
M  V30 4603 H 424.931 -0.722675 -4.09573 0
M  V30 4604 H 423.508 1.03537 -3.58238 0
M  V30 4605 N 425.693 1.55336 -0.266172 0
M  V30 4606 C 426.94 1.99397 0.353158 0
M  V30 4607 C 427.268 1.15451 1.56529 0
M  V30 4608 O 426.523 0.209974 1.9457 0
M  V30 4609 C 426.822 3.48606 0.787957 0
M  V30 4610 C 426.488 4.49773 -0.318541 0
M  V30 4611 C 425.15 4.77158 -0.62239 0
M  V30 4612 C 427.502 5.10212 -1.06459 0
M  V30 4613 C 424.83 5.62251 -1.67602 0
M  V30 4614 C 427.182 5.96449 -2.10788 0
M  V30 4615 C 425.846 6.22158 -2.41817 0
M  V30 4616 H 425.116 0.729644 0.12923 0
M  V30 4617 H 427.763 1.87732 -0.37802 0
M  V30 4618 H 426.068 3.57701 1.59866 0
M  V30 4619 H 427.765 3.80098 1.27775 0
M  V30 4620 H 424.355 4.2854 -0.0715925 0
M  V30 4621 H 428.539 4.89086 -0.843098 0
M  V30 4622 H 423.795 5.80419 -1.92155 0
M  V30 4623 H 427.969 6.42317 -2.69076 0
M  V30 4624 H 425.596 6.87888 -3.23596 0
M  V30 4625 N 427.171 -0.0066808 1.57599 0
M  V30 4626 C 428.101 -0.999296 2.11036 0
M  V30 4627 C 429.082 -1.36278 1.01795 0
M  V30 4628 O 430.267 -1.4477 1.29442 0
M  V30 4629 C 427.397 -2.29328 2.60818 0
M  V30 4630 C 426.351 -2.07159 3.74525 0
M  V30 4631 C 425.677 -3.42512 4.10596 0
M  V30 4632 C 426.977 -1.43959 5.02069 0
M  V30 4633 H 428.671 -0.554382 2.94223 0
M  V30 4634 H 426.217 -0.265221 1.41536 0
M  V30 4635 H 428.17 -2.99117 2.96828 0
M  V30 4636 H 426.894 -2.7592 1.74745 0
M  V30 4637 H 425.553 -1.39797 3.38899 0
M  V30 4638 H 425.201 -3.86795 3.21556 0
M  V30 4639 H 424.901 -3.28498 4.87199 0
M  V30 4640 H 426.425 -4.13628 4.4916 0
M  V30 4641 H 427.839 -2.03696 5.35893 0
M  V30 4642 H 426.236 -1.40452 5.83432 0
M  V30 4643 H 427.306 -0.407992 4.83181 0
M  V30 4644 N 428.649 -1.55105 -0.279332 0
M  V30 4645 C 429.559 -1.90638 -1.36727 0
M  V30 4646 C 430.575 -0.802899 -1.54368 0
M  V30 4647 O 431.751 -1.10138 -1.68616 0
M  V30 4648 C 428.816 -2.16547 -2.70755 0
M  V30 4649 C 427.877 -3.40146 -2.61915 0
M  V30 4650 C 427.11 -3.6481 -3.8955 0
M  V30 4651 O 427.333 -2.92095 -4.89935 0
M  V30 4652 O 426.267 -4.58343 -3.90135 0
M  V30 4653 H 430.093 -2.83237 -1.09591 0
M  V30 4654 H 427.678 -1.4157 -0.477306 0
M  V30 4655 H 429.56 -2.34665 -3.50014 0
M  V30 4656 H 428.235 -1.27131 -2.9769 0
M  V30 4657 H 427.142 -3.2737 -1.81052 0
M  V30 4658 H 428.475 -4.29761 -2.3993 0
M  V30 4659 N 430.127 0.543554 -1.4793 0
M  V30 4660 C 431.06 1.66556 -1.55995 0
M  V30 4661 C 432.038 1.57315 -0.411205 0
M  V30 4662 O 433.222 1.7798 -0.620922 0
M  V30 4663 C 430.349 3.04883 -1.47527 0
M  V30 4664 C 429.395 3.32526 -2.67074 0
M  V30 4665 S 430.228 3.20282 -4.29162 0
M  V30 4666 C 431.384 4.61079 -4.23269 0
M  V30 4667 H 431.617 1.59462 -2.50917 0
M  V30 4668 H 429.15 0.725456 -1.36296 0
M  V30 4669 H 431.108 3.84665 -1.43328 0
M  V30 4670 H 429.769 3.09429 -0.539665 0
M  V30 4671 H 428.962 4.33403 -2.5725 0
M  V30 4672 H 428.564 2.60389 -2.68466 0
M  V30 4673 H 430.856 5.52318 -3.92365 0
M  V30 4674 H 431.799 4.75959 -5.24279 0
M  V30 4675 H 432.207 4.39766 -3.5393 0
M  V30 4676 N 431.605 1.3629 0.791371 0
M  V30 4677 C 432.852 1.30412 1.54916 0
M  V30 4678 C 433.18 -0.117162 1.94147 0
M  V30 4679 O 432.435 -1.08599 1.62803 0
M  V30 4680 C 432.734 2.17068 2.8393 0
M  V30 4681 C 432.4 3.65645 2.63846 0
M  V30 4682 C 431.062 4.0614 2.58077 0
M  V30 4683 C 433.414 4.59855 2.45322 0
M  V30 4684 C 430.742 5.3899 2.31748 0
M  V30 4685 C 433.094 5.9292 2.2052 0
M  V30 4686 C 431.758 6.32542 2.13183 0
M  V30 4687 H 431.028 0.47721 0.566879 0
M  V30 4688 H 433.675 1.68325 0.913172 0
M  V30 4689 H 431.98 1.72085 3.51986 0
M  V30 4690 H 433.677 2.09846 3.4171 0
M  V30 4691 H 430.267 3.33518 2.69191 0
M  V30 4692 H 434.451 4.29443 2.48782 0
M  V30 4693 H 429.707 5.68672 2.24548 0
M  V30 4694 H 433.881 6.65487 2.05182 0
M  V30 4695 H 431.508 7.35412 1.92544 0
M  V30 4696 N 433.083 -1.0153 1.20538 0
M  V30 4697 C 434.331 -1.74803 1.01432 0
M  V30 4698 C 434.652 -1.8963 -0.454456 0
M  V30 4699 O 433.922 -1.43975 -1.32846 0
M  V30 4700 H 432.502 -0.647598 0.372324 0
M  V30 4701 H 435.164 -1.22402 1.5167 0
M  V30 4702 H 434.26 -2.75114 1.47373 0
M  V30 4703 N 434.561 -1.01147 -1.20859 0
M  V30 4704 C 435.972 -0.730205 -1.71828 0
M  V30 4705 C 436.323 0.751662 -1.8123 0
M  V30 4706 O 435.448 1.58686 -1.47132 0
M  V30 4707 C 436.043 -1.31885 -3.12077 0
M  V30 4708 C 434.602 -1.08656 -3.60376 0
M  V30 4709 C 433.749 -1.42769 -2.37723 0
M  V30 4710 H 436.7 -1.18158 -1.05945 0
M  V30 4711 H 436.721 -0.706793 -3.73878 0
M  V30 4712 H 436.233 -2.39737 -3.05201 0
M  V30 4713 H 434.334 -0.0254814 -3.72591 0
M  V30 4714 H 434.447 -1.76301 -4.45483 0
M  V30 4715 H 432.811 -0.846603 -2.40218 0
M  V30 4716 H 433.594 -2.51666 -2.33493 0
M  V30 4717 N 436.039 1.36541 -0.78704 0
M  V30 4718 C 436.949 2.3387 -0.184896 0
M  V30 4719 C 437.965 1.60927 0.661697 0
M  V30 4720 O 439.141 1.92927 0.57804 0
M  V30 4721 C 436.206 3.40122 0.672145 0
M  V30 4722 C 435.267 4.28867 -0.19267 0
M  V30 4723 C 434.5 5.30045 0.623561 0
M  V30 4724 O 434.723 5.39232 1.8597 0
M  V30 4725 O 433.657 6.01895 0.0247068 0
M  V30 4726 H 437.483 2.87126 -0.989562 0
M  V30 4727 H 435.068 1.38969 -0.548455 0
M  V30 4728 H 436.95 4.05093 1.16094 0
M  V30 4729 H 435.625 2.89169 1.45474 0
M  V30 4730 H 434.532 3.66945 -0.728166 0
M  V30 4731 H 435.865 4.83165 -0.938722 0
M  V30 4732 N 437.518 0.538854 1.48102 0
M  V30 4733 C 438.766 0.00798599 2.02098 0
M  V30 4734 C 439.087 -1.33922 1.41739 0
M  V30 4735 O 438.357 -1.86932 0.585934 0
M  V30 4736 H 436.937 -3.62179e-05 0.747 0
M  V30 4737 H 439.599 0.7047 1.81714 0
M  V30 4738 H 438.695 -0.0937672 3.11959 0
M  V30 4739 N 438.996 -1.55193 0.274407 0
M  V30 4740 C 439.959 -2.212 -0.600279 0
M  V30 4741 C 440.959 -1.18963 -1.08187 0
M  V30 4742 O 442.149 -1.43873 -0.982158 0
M  V30 4743 C 439.281 -2.87739 -1.82809 0
M  V30 4744 H 440.474 -2.9989 -0.0239682 0
M  V30 4745 H 438.027 -1.5628 0.0250192 0
M  V30 4746 H 438.762 -2.13058 -2.44493 0
M  V30 4747 H 438.547 -3.62658 -1.49069 0
M  V30 4748 H 440.037 -3.38171 -2.45011 0
M  V30 4749 N 440.474 -0.00167713 -1.576 0
M  V30 4750 C 441.404 0.988091 -2.11563 0
M  V30 4751 C 442.385 1.35736 -1.02517 0
M  V30 4752 O 443.57 1.44082 -1.30208 0
M  V30 4753 C 440.7 2.27941 -2.62031 0
M  V30 4754 C 439.654 2.0517 -3.75619 0
M  V30 4755 C 438.98 3.4033 -4.12407 0
M  V30 4756 C 440.28 1.41294 -5.02825 0
M  V30 4757 H 441.974 0.538771 -2.94513 0
M  V30 4758 H 439.52 0.257712 -1.41675 0
M  V30 4759 H 441.473 2.97539 -2.9841 0
M  V30 4760 H 440.197 2.74989 -1.76205 0
M  V30 4761 H 438.856 1.37998 -3.39635 0
M  V30 4762 H 438.504 3.85085 -3.23603 0
M  V30 4763 H 438.204 3.25909 -4.88935 0
M  V30 4764 H 439.728 4.1124 -4.51347 0
M  V30 4765 H 441.142 2.00851 -5.36965 0
M  V30 4766 H 439.539 1.37356 -5.84169 0
M  V30 4767 H 440.609 0.382362 -4.8339 0
M  V30 4768 N 441.952 1.55251 0.271103 0
M  V30 4769 C 442.899 1.88261 1.33516 0
M  V30 4770 C 443.869 0.734296 1.48988 0
M  V30 4771 O 445.054 0.985741 1.63364 0
M  V30 4772 C 442.194 2.16168 2.69008 0
M  V30 4773 C 441.307 3.43678 2.61743 0
M  V30 4774 C 440.442 3.61276 3.89427 0
M  V30 4775 C 439.481 4.82472 3.7668 0
M  V30 4776 N 438.618 4.96717 4.96202 0
M  V30 4777 H 443.458 2.79015 1.04665 0
M  V30 4778 H 440.995 1.38137 0.505618 0
M  V30 4779 H 442.953 2.30349 3.47844 0
M  V30 4780 H 441.583 1.28646 2.96057 0
M  V30 4781 H 440.635 3.37959 1.74607 0
M  V30 4782 H 441.947 4.3265 2.48224 0
M  V30 4783 H 441.101 3.75284 4.76704 0
M  V30 4784 H 439.84 2.70492 4.05814 0
M  V30 4785 H 438.845 4.68465 2.87786 0
M  V30 4786 H 440.07 5.74692 3.61809 0
M  V30 4787 H 438.016 4.08865 5.12997 0
M  V30 4788 H 437.933 5.79738 4.85222 0
M  V30 4789 H 439.201 5.15113 5.85046 0
M  V30 4790 N 443.43 -0.535701 1.48216 0
M  V30 4791 C 444.38 -1.63688 1.58714 0
M  V30 4792 C 445.364 -1.54635 0.444615 0
M  V30 4793 O 446.556 -1.62753 0.695742 0
M  V30 4794 C 443.685 -3.02423 1.62466 0
M  V30 4795 C 442.771 -3.16601 2.82178 0
M  V30 4796 N 443.162 -3.00771 4.06658 0
M  V30 4797 C 441.46 -3.47645 2.79391 0
M  V30 4798 C 442.161 -3.18213 4.86945 0
M  V30 4799 N 441.137 -3.45528 4.19656 0
M  V30 4800 H 444.939 -1.5005 2.5271 0
M  V30 4801 H 442.453 -0.741018 1.44508 0
M  V30 4802 H 444.45 -3.81517 1.6808 0
M  V30 4803 H 443.11 -3.17157 0.695826 0
M  V30 4804 H 444.121 -2.77652 4.37184 0
M  V30 4805 H 440.798 -3.68771 1.95739 0
M  V30 4806 H 442.188 -3.1076 5.95716 0
M  V30 4807 N 444.908 -1.36708 -0.784132 0
M  V30 4808 C 445.841 -1.25827 -1.90375 0
M  V30 4809 C 446.819 -0.141331 -1.61985 0
M  V30 4810 O 448.003 -0.313389 -1.85877 0
M  V30 4811 C 445.13 -0.942621 -3.25319 0
M  V30 4812 C 444.176 -2.07474 -3.72635 0
M  V30 4813 S 445.009 -3.69317 -3.8777 0
M  V30 4814 C 446.165 -3.39876 -5.25581 0
M  V30 4815 H 446.398 -2.20593 -1.99314 0
M  V30 4816 H 443.931 -1.22186 -0.943926 0
M  V30 4817 H 445.889 -0.767321 -4.03265 0
M  V30 4818 H 444.55 -0.0126566 -3.14097 0
M  V30 4819 H 443.743 -1.80858 -4.70432 0
M  V30 4820 H 443.345 -2.20953 -3.01754 0
M  V30 4821 H 445.637 -2.94097 -6.10339 0
M  V30 4822 H 446.58 -4.36956 -5.57203 0
M  V30 4823 H 446.988 -2.75098 -4.92931 0
M  V30 4824 N 446.386 1.0089 -1.21074 0
M  V30 4825 C 447.316 2.1145 -0.990523 0
M  V30 4826 C 448.297 1.69897 0.0831699 0
M  V30 4827 O 449.482 1.94052 -0.0758853 0
M  V30 4828 C 446.612 3.42914 -0.550177 0
M  V30 4829 C 445.566 3.98244 -1.56799 0
M  V30 4830 C 444.892 5.25568 -0.984013 0
M  V30 4831 C 446.192 4.30752 -2.95381 0
M  V30 4832 H 447.886 2.3013 -1.91521 0
M  V30 4833 H 445.432 1.10592 -0.92225 0
M  V30 4834 H 447.385 4.19653 -0.383305 0
M  V30 4835 H 446.109 3.24014 0.41015 0
M  V30 4836 H 444.768 3.23621 -1.72236 0
M  V30 4837 H 444.416 5.02998 -0.0155216 0
M  V30 4838 H 444.116 5.63551 -1.66384 0
M  V30 4839 H 445.64 6.04955 -0.828378 0
M  V30 4840 H 447.054 4.98349 -2.8341 0
M  V30 4841 H 445.451 4.79869 -3.60341 0
M  V30 4842 H 446.521 3.39192 -3.46521 0
M  V30 4843 N 447.864 1.01787 1.20321 0
M  V30 4844 C 448.811 0.589197 2.23153 0
M  V30 4845 C 449.781 -0.391367 1.61423 0
M  V30 4846 O 450.966 -0.290518 1.88575 0
M  V30 4847 C 448.106 -0.0650747 3.45039 0
M  V30 4848 C 447.219 0.960207 4.21194 0
M  V30 4849 C 446.354 0.276854 5.30478 0
M  V30 4850 C 445.393 1.2888 5.98378 0
M  V30 4851 N 444.53 0.632031 6.99249 0
M  V30 4852 H 449.37 1.47071 2.59179 0
M  V30 4853 H 446.907 0.736192 1.27352 0
M  V30 4854 H 448.865 -0.461552 4.14639 0
M  V30 4855 H 447.495 -0.910233 3.09701 0
M  V30 4856 H 446.547 1.47484 3.50646 0
M  V30 4857 H 447.859 1.72977 4.67847 0
M  V30 4858 H 447.013 -0.175056 6.06447 0
M  V30 4859 H 445.752 -0.525004 4.84866 0
M  V30 4860 H 444.757 1.75109 5.21169 0
M  V30 4861 H 445.982 2.09196 6.46076 0
M  V30 4862 H 443.928 -0.149935 6.55829 0
M  V30 4863 H 443.845 1.33964 7.44036 0
M  V30 4864 H 445.113 0.203755 7.79234 0
M  V30 4865 N 449.342 -1.36122 0.79427 0
M  V30 4866 C 450.252 -2.33769 0.197296 0
M  V30 4867 C 451.268 -1.61276 -0.653153 0
M  V30 4868 O 452.444 -1.9323 -0.5678 0
M  V30 4869 C 449.509 -3.40474 -0.654098 0
M  V30 4870 C 448.57 -4.28759 0.215411 0
M  V30 4871 C 447.803 -5.30368 -0.595443 0
M  V30 4872 O 448.026 -5.40211 -1.83107 0
M  V30 4873 O 446.96 -6.019 0.00721351 0
M  V30 4874 H 450.786 -2.86597 1.00478 0
M  V30 4875 H 448.371 -1.38676 0.555818 0
M  V30 4876 H 450.253 -4.05703 -1.13944 0
M  V30 4877 H 448.928 -2.89937 -1.43938 0
M  V30 4878 H 447.835 -3.66554 0.747615 0
M  V30 4879 H 449.168 -4.82661 0.964332 0
M  V30 4880 N 450.82 -0.546701 -1.47814 0
M  V30 4881 C 452.068 -0.0187037 -2.02091 0
M  V30 4882 C 452.389 1.33168 -1.42447 0
M  V30 4883 O 451.659 1.86619 -0.595839 0
M  V30 4884 H 450.239 -0.00392531 -0.74699 0
M  V30 4885 H 452.901 -0.714327 -1.81338 0
M  V30 4886 H 451.997 0.0772219 -3.12004 0
M  V30 4887 N 452.299 1.55045 -0.282633 0
M  V30 4888 C 453.246 2.22822 0.601566 0
M  V30 4889 C 454.216 1.20431 1.14392 0
M  V30 4890 O 455.401 1.48996 1.19184 0
M  V30 4891 C 452.541 2.95873 1.77632 0
M  V30 4892 C 451.654 4.12999 1.26711 0
M  V30 4893 C 450.789 4.73676 2.40426 0
M  V30 4894 C 449.828 5.82981 1.86545 0
M  V30 4895 N 448.965 6.3769 2.93762 0
M  V30 4896 H 453.805 2.97995 0.0169528 0
M  V30 4897 H 451.342 1.471 -0.00339964 0
M  V30 4898 H 453.3 3.36447 2.46697 0
M  V30 4899 H 451.93 2.2311 2.33285 0
M  V30 4900 H 450.982 3.77494 0.469314 0
M  V30 4901 H 452.294 4.91803 0.832518 0
M  V30 4902 H 451.448 5.17008 3.17471 0
M  V30 4903 H 450.187 3.94164 2.87203 0
M  V30 4904 H 449.192 5.39092 1.07983 0
M  V30 4905 H 450.417 6.64366 1.40694 0
M  V30 4906 H 448.363 5.61069 3.39908 0
M  V30 4907 H 448.28 7.11788 2.54744 0
M  V30 4908 H 449.548 6.8568 3.7076 0
M  V30 4909 N 453.777 0.010035 1.57597 0
M  V30 4910 C 455.025 -0.671371 1.90623 0
M  V30 4911 C 455.346 -1.73753 0.885151 0
M  V30 4912 O 454.616 -1.95752 -0.0760611 0
M  V30 4913 H 453.196 -0.250968 0.703579 0
M  V30 4914 H 455.858 0.0533325 1.94827 0
M  V30 4915 H 454.954 -1.13626 2.90681 0
M  V30 4916 N 455.255 -1.55392 -0.262866 0
M  V30 4917 C 456.671 -1.47459 -0.610582 0
M  V30 4918 C 456.871 -0.697031 -1.8906 0
M  V30 4919 O 455.927 -0.219952 -2.5154 0
M  V30 4920 C 457.24 -2.91751 -0.728131 0
M  V30 4921 C 458.788 -3.02027 -0.821517 0
M  V30 4922 C 459.263 -4.47594 -0.97076 0
M  V30 4923 N 460.754 -4.51465 -1.03603 0
M  V30 4924 C 461.489 -5.61326 -1.17049 0
M  V30 4925 N 460.985 -6.81032 -1.2715 0
M  V30 4926 N 462.778 -5.49089 -1.20239 0
M  V30 4927 H 454.929 -2.04395 0.577632 0
M  V30 4928 H 457.192 -0.927287 0.197086 0
M  V30 4929 H 456.898 -3.51413 0.142132 0
M  V30 4930 H 456.772 -3.4134 -1.6052 0
M  V30 4931 H 459.159 -2.42456 -1.68224 0
M  V30 4932 H 459.24 -2.55674 0.0803688 0
M  V30 4933 H 458.884 -5.07771 -0.114655 0
M  V30 4934 H 458.814 -4.91613 -1.88745 0
M  V30 4935 H 461.305 -3.6524 -0.96996 0
M  V30 4936 H 461.618 -7.60511 -1.37271 0
M  V30 4937 H 459.963 -6.83824 -1.24136 0
M  V30 4938 H 463.154 -4.54507 -1.11985 0
M  V30 4939 H 463.327 -6.34749 -1.30373 0
M  V30 4940 N 456.733 0.527833 -1.48498 0
M  V30 4941 C 457.666 1.64892 -1.57753 0
M  V30 4942 C 458.644 1.5687 -0.427867 0
M  V30 4943 O 459.828 1.77311 -0.639764 0
M  V30 4944 C 456.955 3.03301 -1.50752 0
M  V30 4945 C 456.001 3.29675 -2.70586 0
M  V30 4946 S 456.834 3.15712 -4.32535 0
M  V30 4947 C 457.99 4.56564 -4.28136 0
M  V30 4948 H 458.223 1.56792 -2.52594 0
M  V30 4949 H 455.756 0.710959 -1.37057 0
M  V30 4950 H 457.714 3.83123 -1.474 0
M  V30 4951 H 456.375 3.08839 -0.572454 0
M  V30 4952 H 455.568 4.3065 -2.61833 0
M  V30 4953 H 455.17 2.57526 -2.71212 0
M  V30 4954 H 457.462 5.48126 -3.98201 0
M  V30 4955 H 458.405 4.70371 -5.29298 0
M  V30 4956 H 458.813 4.35987 -3.58574 0
M  V30 4957 N 458.211 1.37122 0.776871 0
M  V30 4958 C 459.141 1.35164 1.90402 0
M  V30 4959 C 460.122 0.221069 1.68657 0
M  V30 4960 O 461.307 0.420642 1.8959 0
M  V30 4961 C 458.437 1.15274 3.27611 0
M  V30 4962 C 457.391 2.25289 3.63908 0
M  V30 4963 C 456.717 1.90527 4.99603 0
M  V30 4964 C 458.017 3.67446 3.71188 0
M  V30 4965 H 459.711 2.29482 1.92297 0
M  V30 4966 H 457.257 1.10465 0.923773 0
M  V30 4967 H 459.21 1.12536 4.06096 0
M  V30 4968 H 457.934 0.174102 3.26136 0
M  V30 4969 H 456.593 2.27174 2.87728 0
M  V30 4970 H 456.241 0.91206 4.94662 0
M  V30 4971 H 455.941 2.64193 5.24858 0
M  V30 4972 H 457.465 1.89367 5.80493 0
M  V30 4973 H 458.879 3.67719 4.39836 0
M  V30 4974 H 457.276 4.40123 4.07936 0
M  V30 4975 H 458.346 4.01443 2.71977 0
M  V30 4976 N 459.689 -1.00246 1.21608 0
M  V30 4977 C 460.621 -2.09244 0.935401 0
M  V30 4978 C 461.634 -1.62592 -0.0823594 0
M  V30 4979 O 462.823 -1.77865 0.150456 0
M  V30 4980 C 459.923 -3.36724 0.383453 0
M  V30 4981 C 459.096 -4.1245 1.45615 0
M  V30 4982 C 458.155 -5.18219 0.912991 0
M  V30 4983 O 457.181 -5.46337 1.59701 0
M  V30 4984 N 458.383 -5.7987 -0.270478 0
M  V30 4985 H 461.148 -2.33905 1.87373 0
M  V30 4986 H 458.709 -1.16748 1.12167 0
M  V30 4987 H 460.701 -4.047 0.00562157 0
M  V30 4988 H 459.271 -3.09201 -0.459758 0
M  V30 4989 H 458.491 -3.39241 2.00772 0
M  V30 4990 H 459.779 -4.59819 2.17817 0
M  V30 4991 H 459.177 -5.59381 -0.843195 0
M  V30 4992 H 457.734 -6.49126 -0.589794 0
M  V30 4993 N 461.167 -1.02423 -1.1978 0
M  V30 4994 C 462.13 -0.605703 -2.21052 0
M  V30 4995 C 463.13 0.328209 -1.57415 0
M  V30 4996 O 464.32 0.115853 -1.73814 0
M  V30 4997 C 461.452 0.114366 -3.40708 0
M  V30 4998 H 462.645 -1.5017 -2.59594 0
M  V30 4999 H 460.198 -0.814888 -1.33376 0
M  V30 5000 H 460.933 1.02492 -3.07678 0
M  V30 5001 H 460.718 -0.556641 -3.88129 0
M  V30 5002 H 462.208 0.394272 -4.15735 0
M  V30 5003 N 462.645 1.35699 -0.801477 0
M  V30 5004 C 463.894 1.98165 -0.375979 0
M  V30 5005 C 464.207 1.64306 1.06127 0
M  V30 5006 O 465.413 2.20097 1.58964 0
M  V30 5007 C 463.869 3.54497 -0.621305 0
M  V30 5008 C 463.477 3.9727 -2.07076 0
M  V30 5009 C 465.221 4.23697 -0.26091 0
M  V30 5010 C 463.128 5.46427 -2.26211 0
M  V30 5011 H 462.058 0.741478 -0.136844 0
M  V30 5012 H 464.709 1.54834 -0.984814 0
M  V30 5013 H 463.091 3.95958 0.0574112 0
M  V30 5014 H 464.265 3.66974 -2.78687 0
M  V30 5015 H 462.58 3.40943 -2.39054 0
M  V30 5016 H 465.177 5.33334 -0.381994 0
M  V30 5017 H 465.52 4.0869 0.792344 0
M  V30 5018 H 466.053 3.87639 -0.893339 0
M  V30 5019 H 462.792 5.66396 -3.29963 0
M  V30 5020 H 462.312 5.78309 -1.59119 0
M  V30 5021 H 463.991 6.12819 -2.07513 0
M  V30 5022 N 464.123 0.554532 1.47522 0
M  V30 5023 C 465.348 0.0322661 2.07375 0
M  V30 5024 C 465.773 -1.25079 1.40488 0
M  V30 5025 O 465.131 -1.74859 0.47896 0
M  V30 5026 C 465.179 -0.149397 3.6029 0
M  V30 5027 O 464.283 -1.21259 3.9417 0
M  V30 5028 H 463.624 0.0501228 0.662106 0
M  V30 5029 H 466.154 0.769452 1.8958 0
M  V30 5030 H 466.164 -0.364437 4.06369 0
M  V30 5031 H 464.839 0.787743 4.08372 0
M  V30 5032 H 463.416 -0.97825 3.5984 0
M  V30 5033 N 465.601 -1.54893 0.290851 0
M  V30 5034 C 467.012 -1.85584 -0.203816 0
M  V30 5035 C 467.363 -1.21285 -1.54222 0
M  V30 5036 O 466.488 -0.506841 -2.10381 0
M  V30 5037 C 467.083 -3.367 -0.376595 0
M  V30 5038 C 465.642 -3.6746 -0.815485 0
M  V30 5039 C 464.789 -2.77178 0.0821087 0
M  V30 5040 H 467.74 -1.50208 0.512175 0
M  V30 5041 H 467.761 -3.60656 -1.21275 0
M  V30 5042 H 467.273 -3.8347 0.59767 0
M  V30 5043 H 465.374 -3.26201 -1.80066 0
M  V30 5044 H 465.487 -4.7478 -0.641905 0
M  V30 5045 H 463.851 -2.50925 -0.436895 0
M  V30 5046 H 464.634 -3.26767 1.05254 0
M  V30 5047 N 467.08 -0.0183926 -1.57589 0
M  V30 5048 C 468.027 0.967022 -2.09565 0
M  V30 5049 C 468.997 1.32983 -0.995225 0
M  V30 5050 O 470.182 1.42501 -1.26878 0
M  V30 5051 C 467.322 2.24772 -2.61861 0
M  V30 5052 C 466.435 1.94232 -3.85873 0
M  V30 5053 C 465.57 3.16518 -4.26603 0
M  V30 5054 C 464.609 2.81748 -5.43401 0
M  V30 5055 N 463.746 3.96626 -5.79338 0
M  V30 5056 H 468.586 0.516874 -2.93483 0
M  V30 5057 H 466.123 0.243544 -1.4507 0
M  V30 5058 H 468.081 2.99667 -2.90268 0
M  V30 5059 H 466.711 2.67423 -1.8079 0
M  V30 5060 H 465.763 1.09625 -3.64262 0
M  V30 5061 H 467.075 1.64616 -4.70853 0
M  V30 5062 H 466.229 3.99743 -4.56389 0
M  V30 5063 H 464.968 3.49286 -3.40368 0
M  V30 5064 H 463.973 1.96933 -5.1332 0
M  V30 5065 H 465.198 2.50207 -6.31327 0
M  V30 5066 H 463.144 4.29257 -4.96059 0
M  V30 5067 H 463.061 3.70598 -6.58933 0
M  V30 5068 H 464.329 4.80586 -6.13724 0
M  V30 5069 N 468.558 1.5553 0.254621 0
M  V30 5070 C 469.49 1.86104 1.33783 0
M  V30 5071 C 470.503 0.746752 1.44663 0
M  V30 5072 O 471.692 1.0248 1.46151 0
M  V30 5073 C 468.792 2.02532 2.71724 0
M  V30 5074 C 467.965 3.33335 2.83208 0
M  V30 5075 C 467.024 3.396 4.01943 0
M  V30 5076 O 466.05 4.12862 3.91834 0
M  V30 5077 N 467.252 2.68332 5.1476 0
M  V30 5078 H 470.017 2.79605 1.07893 0
M  V30 5079 H 467.578 1.55672 0.444732 0
M  V30 5080 H 469.57 2.04074 3.4948 0
M  V30 5081 H 468.14 1.15811 2.90356 0
M  V30 5082 H 467.36 3.44176 1.92189 0
M  V30 5083 H 468.648 4.19565 2.87824 0
M  V30 5084 H 468.046 2.08528 5.25864 0
M  V30 5085 H 466.603 2.75575 5.90679 0
M  V30 5086 N 470.036 -0.519951 1.48776 0
M  V30 5087 C 471.261 -1.30447 1.6124 0
M  V30 5088 C 471.686 -1.86055 0.276591 0
M  V30 5089 O 471.044 -1.64915 -0.753183 0
M  V30 5090 C 471.092 -2.42406 2.66967 0
M  V30 5091 O 470.196 -3.45728 2.24824 0
M  V30 5092 H 469.537 -0.385924 0.540332 0
M  V30 5093 H 472.067 -0.624572 1.94834 0
M  V30 5094 H 472.077 -2.88447 2.88552 0
M  V30 5095 H 470.752 -2.01294 3.63941 0
M  V30 5096 H 469.329 -3.05737 2.13494 0
M  V30 5097 N 471.514 -1.37532 -0.769588 0
M  V30 5098 C 472.925 -1.29382 -1.346 0
M  V30 5099 C 473.276 0.0576039 -1.96115 0
M  V30 5100 O 472.401 0.95947 -1.93967 0
M  V30 5101 C 472.996 -2.34298 -2.44724 0
M  V30 5102 C 471.555 -2.29776 -2.98128 0
M  V30 5103 C 470.702 -2.18013 -1.71364 0
M  V30 5104 H 473.653 -1.48123 -0.56968 0
M  V30 5105 H 473.674 -1.99089 -3.24259 0
M  V30 5106 H 473.186 -3.32645 -1.99922 0
M  V30 5107 H 471.287 -1.34959 -3.47299 0
M  V30 5108 H 471.4 -3.23276 -3.53595 0
M  V30 5109 H 469.764 -1.64595 -1.94372 0
M  V30 5110 H 470.547 -3.18278 -1.28662 0
M  V30 5111 N 472.992 0.995999 -1.22138 0
M  V30 5112 C 474.217 1.77601 -1.0711 0
M  V30 5113 C 474.642 1.84339 0.374264 0
M  V30 5114 O 474 1.29359 1.27028 0
M  V30 5115 C 474.048 3.18897 -1.68336 0
M  V30 5116 O 473.152 4.01663 -0.934928 0
M  V30 5117 H 472.493 0.547011 -0.376397 0
M  V30 5118 H 475.023 1.25137 -1.6187 0
M  V30 5119 H 475.033 3.69539 -1.72931 0
M  V30 5120 H 473.708 3.13308 -2.73516 0
M  V30 5121 H 472.285 3.60204 -0.964751 0
M  V30 5122 N 474.47 1.03057 1.19235 0
M  V30 5123 C 475.695 0.74757 1.93458 0
M  V30 5124 C 476.12 -0.687648 1.7508 0
M  V30 5125 O 475.478 -1.47499 1.05422 0
M  V30 5126 C 475.526 1.10604 3.43219 0
M  V30 5127 O 474.63 0.225671 4.11782 0
M  V30 5128 H 473.971 0.276047 0.603899 0
M  V30 5129 H 476.501 1.3777 1.51263 0
M  V30 5130 H 476.511 1.06366 3.93891 0
M  V30 5131 H 475.186 2.15165 3.55917 0
M  V30 5132 H 473.763 0.326795 3.71465 0
M  V30 5133 N 475.948 -1.35272 0.808662 0
M  V30 5134 C 477.173 -2.03477 0.401475 0
M  V30 5135 C 477.598 -1.60537 -0.980279 0
M  V30 5136 O 476.956 -0.78304 -1.63518 0
M  V30 5137 C 477.004 -3.57181 0.495354 0
M  V30 5138 O 476.108 -4.09474 -0.490397 0
M  V30 5139 H 475.449 -0.642561 0.167366 0
M  V30 5140 H 477.979 -1.72824 1.09512 0
M  V30 5141 H 477.989 -4.06356 0.365912 0
M  V30 5142 H 476.664 -3.87784 1.5032 0
M  V30 5143 H 475.241 -3.71516 -0.321023 0
M  V30 5144 N 477.426 -0.562348 -1.47226 0
M  V30 5145 C 478.837 -0.130325 -1.86245 0
M  V30 5146 C 479.188 1.30128 -1.46838 0
M  V30 5147 O 478.313 1.97974 -0.873805 0
M  V30 5148 C 478.908 -0.229738 -3.3802 0
M  V30 5149 C 477.467 0.14728 -3.76112 0
M  V30 5150 C 476.614 -0.574971 -2.71274 0
M  V30 5151 H 479.565 -0.771773 -1.3867 0
M  V30 5152 H 479.586 0.550316 -3.76499 0
M  V30 5153 H 479.098 -1.27178 -3.66671 0
M  V30 5154 H 477.199 1.19023 -3.53078 0
M  V30 5155 H 477.312 -0.214858 -4.78618 0
M  V30 5156 H 475.676 -0.0174756 -2.54694 0
M  V30 5157 H 476.459 -1.61827 -3.02766 0
M  V30 5158 N 478.904 1.54736 -0.299062 0
M  V30 5159 C 480.132 2.04512 0.313447 0
M  V30 5160 C 480.547 1.17643 1.47667 0
M  V30 5161 O 479.904 0.20164 1.81383 0
M  V30 5162 C 479.955 3.53171 0.771542 0
M  V30 5163 O 479.676 4.36736 -0.345379 0
M  V30 5164 C 481.177 4.18936 1.4494 0
M  V30 5165 H 478.397 0.667507 0.0683784 0
M  V30 5166 H 480.941 1.99752 -0.438129 0
M  V30 5167 H 479.096 3.58298 1.47314 0
M  V30 5168 H 479.51 5.24499 0.0109219 0
M  V30 5169 H 480.984 5.24482 1.72111 0
M  V30 5170 H 481.461 3.68554 2.38883 0
M  V30 5171 H 482.067 4.17879 0.791028 0
M  V30 5172 N 480.382 0.0267497 1.57577 0
M  V30 5173 C 481.798 -0.32962 1.56159 0
M  V30 5174 C 481.998 -1.73059 1.03213 0
M  V30 5175 O 481.054 -2.43233 0.677804 0
M  V30 5176 C 482.367 -0.18039 3.00158 0
M  V30 5177 C 483.915 -0.253334 3.11973 0
M  V30 5178 C 484.39 -0.132921 4.57807 0
M  V30 5179 N 485.881 -0.189979 4.6281 0
M  V30 5180 C 486.616 -0.120554 5.73273 0
M  V30 5181 N 486.112 -0.000180315 6.928 0
M  V30 5182 N 487.905 -0.174369 5.61829 0
M  V30 5183 H 480.056 0.942896 1.90324 0
M  V30 5184 H 482.319 0.3639 0.875375 0
M  V30 5185 H 482.025 0.784576 3.42837 0
M  V30 5186 H 481.899 -0.951565 3.65 0
M  V30 5187 H 484.286 -1.20876 2.69208 0
M  V30 5188 H 484.367 0.548177 2.49857 0
M  V30 5189 H 484.011 0.819073 5.01252 0
M  V30 5190 H 483.941 -0.953264 5.179 0
M  V30 5191 H 486.432 -0.283257 3.76837 0
M  V30 5192 H 486.745 0.0461666 7.72786 0
M  V30 5193 H 485.09 0.034569 6.94991 0
M  V30 5194 H 488.281 -0.266794 4.67339 0
M  V30 5195 H 488.454 -0.116802 6.47895 0
M  V30 5196 N 481.861 -1.55662 -0.24637 0
M  V30 5197 C 482.771 -1.93495 -1.32653 0
M  V30 5198 C 483.787 -0.835462 -1.5263 0
M  V30 5199 O 484.963 -1.1369 -1.66242 0
M  V30 5200 C 482.028 -2.22242 -2.66101 0
M  V30 5201 C 481.089 -3.45625 -2.54641 0
M  V30 5202 C 480.322 -3.72991 -3.81724 0
M  V30 5203 O 480.545 -3.02421 -4.8363 0
M  V30 5204 O 479.479 -4.66515 -3.80325 0
M  V30 5205 H 483.305 -2.85498 -1.03559 0
M  V30 5206 H 480.89 -1.42551 -0.44717 0
M  V30 5207 H 482.772 -2.42037 -3.44958 0
M  V30 5208 H 481.447 -1.33417 -2.94926 0
M  V30 5209 H 480.354 -3.31136 -1.74067 0
M  V30 5210 H 481.687 -4.34754 -2.3076 0
M  V30 5211 N 483.339 0.512053 -1.4905 0
M  V30 5212 C 484.755 0.84224 -1.35567 0
M  V30 5213 C 484.955 1.97878 -0.380319 0
M  V30 5214 O 484.011 2.51769 0.19201 0
M  V30 5215 C 485.324 1.19286 -2.76028 0
M  V30 5216 C 486.872 1.30171 -2.84648 0
M  V30 5217 C 487.347 1.68568 -4.25851 0
M  V30 5218 N 488.838 1.75638 -4.28609 0
M  V30 5219 C 489.573 2.06769 -5.34821 0
M  V30 5220 N 489.069 2.36201 -6.51292 0
M  V30 5221 N 490.862 2.07927 -5.22229 0
M  V30 5222 H 483.013 -0.237574 -2.11067 0
M  V30 5223 H 485.276 -0.0436747 -0.946993 0
M  V30 5224 H 484.982 0.431199 -3.49047 0
M  V30 5225 H 484.856 2.13889 -3.10695 0
M  V30 5226 H 487.243 2.05411 -2.11873 0
M  V30 5227 H 487.324 0.336457 -2.53578 0
M  V30 5228 H 486.968 0.938824 -4.99148 0
M  V30 5229 H 486.898 2.66174 -4.54377 0
M  V30 5230 H 489.389 1.55097 -3.44606 0
M  V30 5231 H 489.702 2.59112 -7.28066 0
M  V30 5232 H 488.047 2.33681 -6.54536 0
M  V30 5233 H 491.238 1.84403 -4.30248 0
M  V30 5234 H 491.411 2.31856 -6.05101 0
M  V30 5235 N 484.817 1.37938 0.762283 0
M  V30 5236 C 486.042 1.37059 1.55659 0
M  V30 5237 C 486.467 -0.0396123 1.88058 0
M  V30 5238 O 485.825 -1.01929 1.49934 0
M  V30 5239 C 485.873 2.22494 2.83776 0
M  V30 5240 O 484.977 1.63607 3.78559 0
M  V30 5241 H 484.318 0.467892 0.47114 0
M  V30 5242 H 486.848 1.81587 0.942725 0
M  V30 5243 H 486.858 2.36045 3.32786 0
M  V30 5244 H 485.533 3.24993 2.59524 0
M  V30 5245 H 484.11 1.5915 3.37233 0
M  V30 5246 N 486.295 -0.989507 1.22664 0
M  V30 5247 C 487.706 -1.54406 1.04955 0
M  V30 5248 C 488.057 -1.92366 -0.385951 0
M  V30 5249 O 487.182 -1.75111 -1.27142 0
M  V30 5250 C 487.777 -2.80578 1.89899 0
M  V30 5251 C 486.336 -3.32464 1.76478 0
M  V30 5252 C 485.483 -2.05524 1.86159 0
M  V30 5253 H 488.434 -0.810211 1.3646 0
M  V30 5254 H 488.455 -3.53075 1.4184 0
M  V30 5255 H 487.967 -2.52918 2.94371 0
M  V30 5256 H 486.068 -3.65024 0.747528 0
M  V30 5257 H 486.181 -4.02838 2.59342 0
M  V30 5258 H 484.545 -2.19241 1.29636 0
M  V30 5259 H 485.328 -1.80258 2.92168 0
M  V30 5260 N 487.773 -1.03688 -1.18687 0
M  V30 5261 C 488.998 -0.757819 -1.93059 0
M  V30 5262 C 489.423 0.678353 -1.75442 0
M  V30 5263 O 488.781 1.46938 -1.06203 0
M  V30 5264 C 488.829 -1.12423 -3.42627 0
M  V30 5265 O 487.933 -0.247505 -4.11657 0
M  V30 5266 H 487.274 -0.279245 -0.602427 0
M  V30 5267 H 489.804 -1.3857 -1.5053 0
M  V30 5268 H 489.814 -1.08454 -3.93322 0
M  V30 5269 H 488.489 -2.17049 -3.54771 0
M  V30 5270 H 487.066 -0.34649 -3.71287 0
M  V30 5271 N 489.251 1.34841 -0.815825 0
M  V30 5272 C 490.662 1.80937 -0.46029 0
M  V30 5273 C 491.013 1.67685 1.01863 0
M  V30 5274 O 490.138 1.21277 1.79223 0
M  V30 5275 C 490.733 3.28509 -0.828708 0
M  V30 5276 C 489.292 3.72712 -0.525644 0
M  V30 5277 C 488.439 2.56676 -1.04941 0
M  V30 5278 H 491.39 1.22688 -1.00664 0
M  V30 5279 H 491.411 3.80279 -0.129757 0
M  V30 5280 H 490.923 3.38122 -1.90513 0
M  V30 5281 H 489.024 3.68642 0.541666 0
M  V30 5282 H 489.137 4.67119 -1.06474 0
M  V30 5283 H 487.501 2.50302 -0.471286 0
M  V30 5284 H 488.284 2.69063 -2.13214 0
M  V30 5285 N 490.729 0.570148 1.46925 0
M  V30 5286 C 491.954 0.0542592 2.07329 0
M  V30 5287 C 492.379 -1.23582 1.41806 0
M  V30 5288 O 491.737 -1.74341 0.497479 0
M  V30 5289 C 491.785 -0.111175 3.60429 0
M  V30 5290 O 490.889 -1.17071 3.95434 0
M  V30 5291 H 490.23 0.0571425 0.661537 0
M  V30 5292 H 492.76 0.789516 1.88753 0
M  V30 5293 H 492.77 -0.321315 4.06733 0
M  V30 5294 H 491.445 0.831012 4.07513 0
M  V30 5295 H 490.022 -0.940029 3.60857 0
M  V30 5296 N 492.207 -1.54576 0.307264 0
M  V30 5297 C 493.454 -2.00263 -0.300167 0
M  V30 5298 C 493.782 -1.19561 -1.53413 0
M  V30 5299 O 493.037 -0.261487 -1.93945 0
M  V30 5300 C 493.336 -3.50572 -0.695253 0
M  V30 5301 C 493.002 -4.48771 0.437679 0
M  V30 5302 C 491.664 -4.7534 0.748681 0
M  V30 5303 C 494.016 -5.0721 1.19949 0
M  V30 5304 C 491.344 -5.5761 1.8245 0
M  V30 5305 C 493.696 -5.90651 2.26527 0
M  V30 5306 C 492.36 -6.15528 2.58227 0
M  V30 5307 H 491.63 -0.732814 -0.109839 0
M  V30 5308 H 494.277 -1.86664 0.427661 0
M  V30 5309 H 492.582 -3.61814 -1.50326 0
M  V30 5310 H 494.279 -3.83352 -1.17653 0
M  V30 5311 H 490.869 -4.282 0.185187 0
M  V30 5312 H 495.053 -4.86679 0.972474 0
M  V30 5313 H 490.309 -5.75121 2.07476 0
M  V30 5314 H 494.483 -6.34957 2.86011 0
M  V30 5315 H 492.11 -6.79066 3.4172 0
M  V30 5316 N 493.685 -0.035106 -1.57561 0
M  V30 5317 C 495.101 0.321334 -1.56332 0
M  V30 5318 C 495.301 1.72509 -1.04129 0
M  V30 5319 O 494.357 2.4287 -0.690694 0
M  V30 5320 C 495.67 0.164469 -3.0025 0
M  V30 5321 C 497.218 0.236786 -3.12103 0
M  V30 5322 C 497.693 0.10864 -4.57871 0
M  V30 5323 N 499.184 0.165433 -4.62904 0
M  V30 5324 C 499.919 0.0901506 -5.73329 0
M  V30 5325 N 499.415 -0.0365606 -6.9279 0
M  V30 5326 N 501.208 0.144572 -5.61914 0
M  V30 5327 H 493.359 -0.952976 -1.89821 0
M  V30 5328 H 495.622 -0.368537 -0.873432 0
M  V30 5329 H 495.328 -0.802746 -3.42416 0
M  V30 5330 H 495.202 0.932194 -3.655 0
M  V30 5331 H 497.589 1.19446 -2.69845 0
M  V30 5332 H 497.67 -0.561419 -2.49563 0
M  V30 5333 H 497.314 -0.845644 -5.00811 0
M  V30 5334 H 497.244 0.925786 -5.18398 0
M  V30 5335 H 499.735 0.263269 -3.76982 0
M  V30 5336 H 500.048 -0.0871487 -7.72751 0
M  V30 5337 H 498.393 -0.0714256 -6.94963 0
M  V30 5338 H 501.584 0.242006 -4.67474 0
M  V30 5339 H 501.757 0.0824413 -6.47948 0
M  V30 5340 N 495.163 1.55791 0.238111 0
M  V30 5341 C 496.409 1.79211 0.962035 0
M  V30 5342 C 496.764 0.605463 1.82625 0
M  V30 5343 O 496.057 -0.40104 1.87356 0
M  V30 5344 C 496.251 3.05869 1.84875 0
M  V30 5345 C 496.08 4.36739 1.07186 0
M  V30 5346 C 494.85 4.99346 0.773424 0
M  V30 5347 C 497.048 5.1237 0.445168 0
M  V30 5348 N 495.03 6.13894 -0.0266037 0
M  V30 5349 C 496.401 6.19613 -0.219023 0
M  V30 5350 C 498.456 4.96622 0.356522 0
M  V30 5351 C 497.159 7.1282 -0.963358 0
M  V30 5352 C 499.185 5.90214 -0.374304 0
M  V30 5353 C 498.547 6.96872 -1.0271 0
M  V30 5354 H 494.646 0.707627 0.332849 0
M  V30 5355 H 497.23 1.93284 0.234368 0
M  V30 5356 H 495.401 2.93108 2.54837 0
M  V30 5357 H 497.133 3.17547 2.5089 0
M  V30 5358 H 493.888 4.60948 1.08738 0
M  V30 5359 H 494.312 6.75727 -0.414968 0
M  V30 5360 H 498.954 4.14232 0.846878 0
M  V30 5361 H 496.672 7.94704 -1.46529 0
M  V30 5362 H 500.258 5.80106 -0.443678 0
M  V30 5363 H 499.138 7.68045 -1.58358 0
M  V30 5364 N 496.642 -0.504142 1.49319 0
M  V30 5365 C 498.053 -1.08572 1.51885 0
M  V30 5366 C 498.404 -1.93842 0.303255 0
M  V30 5367 O 497.529 -2.0828 -0.58724 0
M  V30 5368 C 498.124 -1.97574 2.75227 0
M  V30 5369 C 496.683 -2.509 2.80581 0
M  V30 5370 C 495.83 -1.28447 2.45757 0
M  V30 5371 H 498.781 -0.288194 1.56061 0
M  V30 5372 H 498.802 -2.82219 2.55211 0
M  V30 5373 H 498.314 -1.35486 3.63683 0
M  V30 5374 H 496.415 -3.16636 1.96398 0
M  V30 5375 H 496.528 -2.88268 3.82673 0
M  V30 5376 H 494.892 -1.60868 1.97468 0
M  V30 5377 H 495.675 -0.68072 3.36483 0
M  V30 5378 N 498.12 -1.38341 -0.754957 0
M  V30 5379 C 499.367 -1.34473 -1.51404 0
M  V30 5380 C 499.695 0.0656458 -1.94389 0
M  V30 5381 O 498.95 1.04244 -1.65625 0
M  V30 5382 C 499.249 -2.2452 -2.78075 0
M  V30 5383 C 498.915 -3.72512 -2.54059 0
M  V30 5384 C 497.577 -4.1284 -2.47218 0
M  V30 5385 C 499.929 -4.66197 -2.33044 0
M  V30 5386 C 497.257 -5.44945 -2.17376 0
M  V30 5387 C 499.609 -5.98558 -2.04723 0
M  V30 5388 C 498.273 -6.37972 -1.96337 0
M  V30 5389 H 497.543 -0.492072 -0.554027 0
M  V30 5390 H 500.19 -1.70687 -0.868223 0
M  V30 5391 H 498.495 -1.81357 -3.473 0
M  V30 5392 H 500.192 -2.18832 -3.36026 0
M  V30 5393 H 496.782 -3.40538 -2.60253 0
M  V30 5394 H 500.966 -4.35888 -2.37309 0
M  V30 5395 H 496.222 -5.74426 -2.09391 0
M  V30 5396 H 500.396 -6.70693 -1.87465 0
M  V30 5397 H 498.023 -7.40258 -1.72978 0
M  V30 5398 N 499.598 0.982988 -1.23187 0
M  V30 5399 C 500.823 1.76455 -1.08988 0
M  V30 5400 C 501.248 1.84726 0.354691 0
M  V30 5401 O 500.606 1.30699 1.25649 0
M  V30 5402 C 500.654 3.17094 -1.71708 0
M  V30 5403 O 499.758 4.00648 -0.977477 0
M  V30 5404 H 499.099 0.542988 -0.382177 0
M  V30 5405 H 501.629 1.23413 -1.63188 0
M  V30 5406 H 501.639 3.67684 -1.76841 0
M  V30 5407 H 500.314 3.10389 -2.76823 0
M  V30 5408 H 498.891 3.59161 -1.0029 0
M  V30 5409 N 501.076 1.04316 1.18135 0
M  V30 5410 C 502.324 0.746542 1.87806 0
M  V30 5411 C 502.645 -0.728082 1.80898 0
M  V30 5412 O 501.915 -1.52554 1.22899 0
M  V30 5413 H 500.495 0.273157 0.695265 0
M  V30 5414 H 503.157 1.32044 1.43354 0
M  V30 5415 H 502.253 1.05362 2.93778 0
M  V30 5416 N 502.554 -1.34406 0.822964 0
M  V30 5417 C 503.501 -2.29519 0.24284 0
M  V30 5418 C 504.471 -1.5359 -0.632397 0
M  V30 5419 O 505.656 -1.8196 -0.57403 0
M  V30 5420 C 502.796 -3.40032 -0.58925 0
M  V30 5421 C 501.909 -4.30899 0.308236 0
M  V30 5422 C 501.044 -5.28515 -0.533425 0
M  V30 5423 C 500.083 -6.1102 0.363444 0
M  V30 5424 N 499.22 -7.00725 -0.439147 0
M  V30 5425 H 504.06 -2.78537 1.05929 0
M  V30 5426 H 501.597 -1.3707 0.533872 0
M  V30 5427 H 503.555 -4.0279 -1.087 0
M  V30 5428 H 502.185 -2.92248 -1.37081 0
M  V30 5429 H 501.237 -3.69002 0.924203 0
M  V30 5430 H 502.549 -4.88717 0.997862 0
M  V30 5431 H 501.703 -5.96725 -1.09565 0
M  V30 5432 H 500.442 -4.71235 -1.25656 0
M  V30 5433 H 499.447 -5.41743 0.937812 0
M  V30 5434 H 500.672 -6.70381 1.08469 0
M  V30 5435 H 498.618 -6.45913 -1.14595 0
M  V30 5436 H 498.535 -7.55756 0.19209 0
M  V30 5437 H 499.803 -7.73263 -0.984124 0
M  V30 5438 N 504.032 -0.577932 -1.46621 0
M  V30 5439 C 505.26 -0.0671642 -2.06791 0
M  V30 5440 C 505.675 1.23571 -1.42743 0
M  V30 5441 O 505.032 1.74602 -0.531062 0
M  V30 5442 C 505.083 0.110357 -3.61332 0
M  V30 5443 O 504.804 -1.14095 -4.22982 0
M  V30 5444 C 506.305 0.656025 -4.38419 0
M  V30 5445 H 503.525 -0.0552732 -0.66872 0
M  V30 5446 H 506.069 -0.797242 -1.8832 0
M  V30 5447 H 504.224 0.790637 -3.79246 0
M  V30 5448 H 504.638 -0.951742 -5.15793 0
M  V30 5449 H 506.112 0.729438 -5.47159 0
M  V30 5450 H 506.589 1.67195 -4.06131 0
M  V30 5451 H 507.195 0.0107692 -4.25299 0
M  V30 5452 N 505.51 1.54411 -0.315457 0
M  V30 5453 C 506.735 2.05299 0.294496 0
M  V30 5454 C 507.16 1.19052 1.4563 0
M  V30 5455 O 506.518 0.197804 1.80218 0
M  V30 5456 C 506.566 3.5345 0.714549 0
M  V30 5457 O 505.67 3.70175 1.81781 0
M  V30 5458 H 505.011 0.661743 0.0547019 0
M  V30 5459 H 507.541 1.99327 -0.461508 0
M  V30 5460 H 507.551 3.9557 0.999426 0
M  V30 5461 H 506.226 4.1568 -0.135244 0
M  V30 5462 H 504.803 3.3996 1.53236 0
M  V30 5463 N 506.988 0.0434614 1.5754 0
M  V30 5464 C 508.399 -0.493343 1.80064 0
M  V30 5465 C 508.75 -1.71388 0.955023 0
M  V30 5466 O 507.875 -2.15736 0.169434 0
M  V30 5467 C 508.47 -0.90179 3.26578 0
M  V30 5468 C 507.029 -1.38362 3.50047 0
M  V30 5469 C 506.176 -0.355129 2.75017 0
M  V30 5470 H 509.127 0.2694 1.56397 0
M  V30 5471 H 509.148 -1.76523 3.37075 0
M  V30 5472 H 508.66 -0.013271 3.88098 0
M  V30 5473 H 506.761 -2.29159 2.93798 0
M  V30 5474 H 506.874 -1.3811 4.58762 0
M  V30 5475 H 505.238 -0.826348 2.40922 0
M  V30 5476 H 506.021 0.525172 3.39259 0
M  V30 5477 N 508.466 -1.55915 -0.229846 0
M  V30 5478 C 509.877 -1.68809 -0.797531 0
M  V30 5479 C 510.228 -0.643995 -1.8533 0
M  V30 5480 O 509.353 0.206492 -2.15413 0
M  V30 5481 C 509.948 -3.06043 -1.45338 0
M  V30 5482 C 508.507 -3.20819 -1.96856 0
M  V30 5483 C 507.654 -2.6472 -0.825736 0
M  V30 5484 H 510.605 -1.58699 -0.00533733 0
M  V30 5485 H 510.626 -3.01438 -2.32196 0
M  V30 5486 H 510.138 -3.82012 -0.684743 0
M  V30 5487 H 508.239 -2.49704 -2.76548 0
M  V30 5488 H 508.352 -4.27937 -2.15423 0
M  V30 5489 H 506.716 -2.22985 -1.23084 0
M  V30 5490 H 507.499 -3.43229 -0.0699019 0
M  V30 5491 N 509.944 0.496216 -1.49584 0
M  V30 5492 C 511.184 1.26015 -1.60933 0
M  V30 5493 C 511.548 1.89772 -0.291646 0
M  V30 5494 O 512.749 2.67334 -0.280357 0
M  V30 5495 C 511.02 2.29506 -2.73974 0
M  V30 5496 S 512.579 3.15175 -3.05303 0
M  V30 5497 H 509.397 0.428194 -0.567601 0
M  V30 5498 H 511.999 0.561484 -1.87263 0
M  V30 5499 H 510.703 1.81205 -3.68229 0
M  V30 5500 H 510.234 3.04036 -2.49651 0
M  V30 5501 H 512.249 4.30244 -2.47193 0
M  V30 5502 N 511.423 1.38739 0.74761 0
M  V30 5503 C 512.648 1.38702 1.54197 0
M  V30 5504 C 513.073 -0.019664 1.8809 0
M  V30 5505 O 512.431 -1.00333 1.51006 0
M  V30 5506 C 512.479 2.25492 2.814 0
M  V30 5507 O 511.583 1.67613 3.76802 0
M  V30 5508 H 510.924 0.472863 0.466151 0
M  V30 5509 H 513.454 1.82577 0.923413 0
M  V30 5510 H 513.464 2.39561 3.30264 0
M  V30 5511 H 512.139 3.27727 2.56062 0
M  V30 5512 H 510.716 1.62718 3.35526 0
M  V30 5513 N 512.901 -0.976442 1.23707 0
M  V30 5514 C 514.312 -1.53284 1.06587 0
M  V30 5515 C 514.663 -1.92765 -0.365526 0
M  V30 5516 O 513.788 -1.7645 -1.25277 0
M  V30 5517 C 514.383 -2.78548 1.92864 0
M  V30 5518 C 512.942 -3.30574 1.79994 0
M  V30 5519 C 512.089 -2.03538 1.88328 0
M  V30 5520 H 515.04 -0.795692 1.37311 0
M  V30 5521 H 515.061 -3.5155 1.45577 0
M  V30 5522 H 514.573 -2.49782 2.97037 0
M  V30 5523 H 512.674 -3.64211 0.786202 0
M  V30 5524 H 512.787 -4.00065 2.636 0
M  V30 5525 H 511.151 -2.17853 1.31954 0
M  V30 5526 H 511.934 -1.77149 2.94063 0
M  V30 5527 N 514.379 -1.04941 -1.1758 0
M  V30 5528 C 515.342 -0.652456 -2.19717 0
M  V30 5529 C 516.342 0.294745 -1.58076 0
M  V30 5530 O 517.532 0.0789579 -1.74021 0
M  V30 5531 C 514.664 0.0420712 -3.40874 0
M  V30 5532 H 515.857 -1.55642 -2.5635 0
M  V30 5533 H 513.41 -0.842995 -1.31618 0
M  V30 5534 H 514.145 0.95943 -3.09783 0
M  V30 5535 H 513.93 -0.638844 -3.86861 0
M  V30 5536 H 515.42 0.306 -4.16477 0
M  V30 5537 N 515.857 1.33968 -0.830081 0
M  V30 5538 C 516.805 2.31301 -0.245435 0
M  V30 5539 C 517.799 1.57734 0.617762 0
M  V30 5540 O 519.005 1.72674 0.508303 0
M  V30 5541 H 515.38 0.749552 -0.0606316 0
M  V30 5542 H 517.351 2.78129 -1.08105 0
M  V30 5543 C 516.1 3.42961 0.572084 0
M  V30 5544 H 515.423 3.99714 -0.0828118 0
M  V30 5545 H 516.863 4.13286 0.94715 0
M  V30 5546 C 515.322 2.88043 1.74737 0
M  V30 5547 O 515.852 2.83508 2.8458 0
M  V30 5548 N 514.058 2.44768 1.56642 0
M  V30 5549 H 513.605 2.48656 0.672901 0
M  V30 5550 H 513.563 2.08375 2.3543 0
M  V30 5551 N 517.335 0.585699 1.46312 0
M  V30 5552 C 518.265 -0.133556 2.33118 0
M  V30 5553 C 519.246 -0.880707 1.45525 0
M  V30 5554 O 520.431 -0.855579 1.74337 0
M  V30 5555 C 517.561 -1.14585 3.27853 0
M  V30 5556 C 516.515 -0.513341 4.2491 0
M  V30 5557 C 515.841 -1.63231 5.09175 0
M  V30 5558 C 517.141 0.551413 5.19381 0
M  V30 5559 H 518.835 0.59121 2.93505 0
M  V30 5560 H 516.381 0.285761 1.41136 0
M  V30 5561 H 518.334 -1.65741 3.87438 0
M  V30 5562 H 517.058 -1.90093 2.65579 0
M  V30 5563 H 515.717 -0.0228349 3.66593 0
M  V30 5564 H 515.365 -2.37713 4.43285 0
M  V30 5565 H 515.065 -1.21473 5.74907 0
M  V30 5566 H 516.589 -2.14658 5.71624 0
M  V30 5567 H 518.003 0.124804 5.73164 0
M  V30 5568 H 516.4 0.889486 5.93471 0
M  V30 5569 H 517.47 1.43655 4.63132 0
M  V30 5570 N 518.813 -1.54241 0.323641 0
M  V30 5571 C 520.038 -2.05452 -0.283605 0
M  V30 5572 C 520.463 -1.19823 -1.44997 0
M  V30 5573 O 519.821 -0.207358 -1.8011 0
M  V30 5574 C 519.869 -3.53823 -0.695795 0
M  V30 5575 O 518.973 -3.71134 -1.79815 0
M  V30 5576 H 518.314 -0.662024 -0.0511917 0
M  V30 5577 H 520.844 -1.99079 0.472073 0
M  V30 5578 H 520.854 -3.96094 -0.978434 0
M  V30 5579 H 519.529 -4.15602 0.157287 0
M  V30 5580 H 518.106 -3.40768 -1.51431 0
M  V30 5581 N 520.291 -0.0518155 -1.57515 0
M  V30 5582 C 521.707 0.304735 -1.56664 0
M  V30 5583 C 521.907 1.71395 -1.05953 0
M  V30 5584 O 520.963 2.42123 -0.716414 0
M  V30 5585 C 522.276 0.132614 -3.00407 0
M  V30 5586 C 523.824 0.20367 -3.12337 0
M  V30 5587 C 524.299 0.0600706 -4.57961 0
M  V30 5588 N 525.79 0.116326 -4.63054 0
M  V30 5589 C 526.525 0.0293363 -5.73392 0
M  V30 5590 N 526.021 -0.110038 -6.92713 0
M  V30 5591 N 527.814 0.0849651 -5.62036 0
M  V30 5592 H 519.965 -0.973056 -1.888 0
M  V30 5593 H 522.228 -0.377781 -0.869474 0
M  V30 5594 H 521.934 -0.839019 -3.41546 0
M  V30 5595 H 521.808 0.893376 -3.66468 0
M  V30 5596 H 524.195 1.16578 -2.71097 0
M  V30 5597 H 524.276 -0.587857 -2.48954 0
M  V30 5598 H 523.92 -0.898715 -4.99886 0
M  V30 5599 H 523.85 0.87075 -5.19351 0
M  V30 5600 H 526.341 0.22327 -3.7724 0
M  V30 5601 H 526.654 -0.169104 -7.72615 0
M  V30 5602 H 524.999 -0.145132 -6.94848 0
M  V30 5603 H 528.19 0.192411 -4.67704 0
M  V30 5604 H 528.363 0.0137131 -6.47999 0
M  V30 5605 N 521.769 1.56035 0.221574 0
M  V30 5606 C 522.719 1.8881 1.27807 0
M  V30 5607 C 523.703 0.751177 1.42289 0
M  V30 5608 O 524.895 1.01359 1.45104 0
M  V30 5609 C 522.024 2.20828 2.6285 0
M  V30 5610 C 521.11 3.40912 2.52269 0
M  V30 5611 N 521.501 4.59531 2.1134 0
M  V30 5612 C 519.799 3.44526 2.83228 0
M  V30 5613 C 520.5 5.41689 2.1201 0
M  V30 5614 N 519.476 4.814 2.52497 0
M  V30 5615 H 523.278 2.78036 0.952529 0
M  V30 5616 H 520.792 1.566 0.430134 0
M  V30 5617 H 522.789 2.42483 3.39127 0
M  V30 5618 H 521.449 1.32914 2.9625 0
M  V30 5619 H 522.46 4.8469 1.82472 0
M  V30 5620 H 519.137 2.66956 3.21 0
M  V30 5621 H 520.527 6.46643 1.82491 0
M  V30 5622 N 523.247 -0.488276 1.49845 0
M  V30 5623 C 524.194 -1.58836 1.67451 0
M  V30 5624 C 525.164 -1.57886 0.515857 0
M  V30 5625 O 526.349 -1.75679 0.744403 0
M  V30 5626 C 523.489 -2.96915 1.75885 0
M  V30 5627 C 522.602 -3.07784 3.03138 0
M  V30 5628 C 521.737 -4.36673 3.02473 0
M  V30 5629 C 520.776 -4.41222 4.24252 0
M  V30 5630 N 519.913 -5.61557 4.21424 0
M  V30 5631 H 524.753 -1.43131 2.61376 0
M  V30 5632 H 522.29 -0.696186 1.29583 0
M  V30 5633 H 524.248 -3.76965 1.78755 0
M  V30 5634 H 522.878 -3.11295 0.85414 0
M  V30 5635 H 521.93 -2.20717 3.09819 0
M  V30 5636 H 523.242 -3.07005 3.93128 0
M  V30 5637 H 522.396 -5.25055 3.03977 0
M  V30 5638 H 521.135 -4.40037 2.10283 0
M  V30 5639 H 520.14 -3.5124 4.22978 0
M  V30 5640 H 521.365 -4.39564 5.17649 0
M  V30 5641 H 519.311 -5.65738 3.32078 0
M  V30 5642 H 519.228 -5.62447 5.05163 0
M  V30 5643 H 520.496 -6.52111 4.2705 0
M  V30 5644 N 524.725 -1.39134 -0.740242 0
M  V30 5645 C 525.688 -1.37217 -1.83587 0
M  V30 5646 C 526.688 -0.270221 -1.58513 0
M  V30 5647 O 527.878 -0.527843 -1.6601 0
M  V30 5648 C 525.01 -1.13959 -3.21288 0
M  V30 5649 H 526.203 -2.34705 -1.86691 0
M  V30 5650 H 523.756 -1.24622 -0.94335 0
M  V30 5651 H 524.491 -0.17131 -3.23847 0
M  V30 5652 H 524.276 -1.93754 -3.40884 0
M  V30 5653 H 525.766 -1.15346 -4.01354 0
M  V30 5654 N 526.204 0.969867 -1.24223 0
M  V30 5655 C 527.167 2.04564 -1.03373 0
M  V30 5656 C 528.167 1.60798 0.00819206 0
M  V30 5657 O 529.357 1.72641 -0.232567 0
M  V30 5658 C 526.489 3.36163 -0.566343 0
M  V30 5659 H 527.682 2.24494 -1.98853 0
M  V30 5660 H 525.235 1.1448 -1.06415 0
M  V30 5661 H 525.97 3.21925 0.391751 0
M  V30 5662 H 525.755 3.69273 -1.31834 0
M  V30 5663 H 527.245 4.1526 -0.441435 0
M  V30 5664 N 527.682 1.05563 1.17022 0
M  V30 5665 C 528.645 0.664098 2.19368 0
M  V30 5666 C 529.645 -0.286358 1.5823 0
M  V30 5667 O 530.835 -0.069728 1.7406 0
M  V30 5668 C 527.967 -0.0239932 3.40892 0
M  V30 5669 H 529.16 1.57 2.55521 0
M  V30 5670 H 526.713 0.849964 1.31169 0
M  V30 5671 H 527.448 -0.942988 3.10287 0
M  V30 5672 H 527.233 0.659351 3.86516 0
M  V30 5673 H 528.723 -0.283909 4.16634 0
M  V30 5674 N 529.16 -1.33526 0.837174 0
M  V30 5675 C 530.39 -2.01754 0.444848 0
M  V30 5676 C 530.798 -1.63149 -0.958072 0
M  V30 5677 O 530.141 -0.839827 -1.63379 0
M  V30 5678 C 530.203 -3.56228 0.483917 0
M  V30 5679 C 529.867 -4.18205 1.84265 0
M  V30 5680 C 530.864 -4.37699 2.80563 0
M  V30 5681 C 528.549 -4.54667 2.13503 0
M  V30 5682 C 530.543 -4.928 4.04261 0
M  V30 5683 C 528.23 -5.09475 3.37458 0
M  V30 5684 C 529.228 -5.28488 4.32654 0
M  V30 5685 O 528.916 -5.82132 5.54417 0
M  V30 5686 H 528.648 -0.652928 0.175104 0
M  V30 5687 H 531.202 -1.71469 1.13082 0
M  V30 5688 H 529.432 -3.85833 -0.258826 0
M  V30 5689 H 531.121 -4.05752 0.109653 0
M  V30 5690 H 531.887 -4.0988 2.59274 0
M  V30 5691 H 527.766 -4.39164 1.40201 0
M  V30 5692 H 531.31 -5.07555 4.78574 0
M  V30 5693 H 527.207 -5.36725 3.58604 0
M  V30 5694 H 527.975 -6.00548 5.56133 0
M  V30 5695 N 530.638 -0.59345 -1.46 0
M  V30 5696 C 531.915 -0.0157933 -1.95594 0
M  V30 5697 C 532.295 1.44807 -1.53604 0
M  V30 5698 O 531.643 2.14342 -0.791824 0
M  V30 5699 C 531.853 -0.199081 -3.48432 0
M  V30 5700 C 533.201 -0.0724943 -4.24538 0
M  V30 5701 O 534.225 -0.128469 -3.55968 0
M  V30 5702 O 533.084 0.0542426 -5.46473 0
M  V30 5703 H 530.178 0.043749 -0.825842 0
M  V30 5704 H 532.724 -0.662522 -1.56233 0
M  V30 5705 H 531.496 -1.21631 -3.71916 0
M  V30 5706 H 531.119 0.483576 -3.94648 0
M  V30 5707 N 532.116 1.54067 -0.331816 0
M  V30 5708 C 533.365 1.99895 0.269209 0
M  V30 5709 C 533.678 1.22371 1.52593 0
M  V30 5710 O 534.884 1.58618 2.20347 0
M  V30 5711 C 533.34 3.55972 0.530244 0
M  V30 5712 C 532.948 4.4234 -0.709901 0
M  V30 5713 C 534.692 4.10247 1.09077 0
M  V30 5714 C 532.599 5.89905 -0.420312 0
M  V30 5715 H 531.529 0.746741 0.104371 0
M  V30 5716 H 534.18 1.78014 -0.445324 0
M  V30 5717 H 532.562 3.73873 1.30518 0
M  V30 5718 H 533.736 4.36215 -1.48504 0
M  V30 5719 H 532.051 3.98997 -1.19123 0
M  V30 5720 H 534.648 5.18095 1.32219 0
M  V30 5721 H 534.991 3.62739 2.0427 0
M  V30 5722 H 535.524 3.96011 0.376824 0
M  V30 5723 H 532.263 6.41623 -1.34164 0
M  V30 5724 H 531.783 5.98962 0.316962 0
M  V30 5725 H 533.462 6.46991 -0.0331956 0
M  V30 5726 N 533.594 0.0601682 1.57485 0
M  V30 5727 C 534.819 -0.624416 1.97777 0
M  V30 5728 C 535.244 -1.63051 0.937867 0
M  V30 5729 O 534.602 -1.81036 -0.0978845 0
M  V30 5730 C 534.65 -1.27979 3.37126 0
M  V30 5731 O 533.754 -2.39556 3.35688 0
M  V30 5732 H 533.095 -0.161581 0.64404 0
M  V30 5733 H 535.625 0.131237 2.04179 0
M  V30 5734 H 535.635 -1.62937 3.74053 0
M  V30 5735 H 534.31 -0.542501 4.12347 0
M  V30 5736 H 532.887 -2.06478 3.10517 0
M  V30 5737 N 535.072 -1.5615 -0.213296 0
M  V30 5738 C 535.982 -1.96265 -1.28519 0
M  V30 5739 C 536.998 -0.86765 -1.50824 0
M  V30 5740 O 538.174 -1.17191 -1.63793 0
M  V30 5741 C 535.239 -2.27836 -2.61327 0
M  V30 5742 C 534.3 -3.50949 -2.47252 0
M  V30 5743 C 533.533 -3.81004 -3.73727 0
M  V30 5744 O 533.756 -3.12612 -4.77106 0
M  V30 5745 O 532.69 -4.74477 -3.70344 0
M  V30 5746 H 536.516 -2.87631 -0.974795 0
M  V30 5747 H 534.101 -1.43467 -0.416832 0
M  V30 5748 H 535.983 -2.49299 -3.39747 0
M  V30 5749 H 534.658 -1.39643 -2.9203 0
M  V30 5750 H 533.565 -3.34754 -1.67004 0
M  V30 5751 H 534.898 -4.39551 -2.21486 0
M  V30 5752 N 536.55 0.480323 -1.50102 0
M  V30 5753 C 537.827 1.24159 -1.51142 0
M  V30 5754 C 538.207 2.09605 -0.250818 0
M  V30 5755 O 537.555 2.15274 0.766118 0
M  V30 5756 C 537.765 2.08057 -2.80202 0
M  V30 5757 C 539.113 2.66556 -3.30504 0
M  V30 5758 O 540.137 2.18308 -2.81461 0
M  V30 5759 O 538.996 3.54442 -4.15973 0
M  V30 5760 H 536.09 0.562928 -0.605839 0
M  V30 5761 H 538.636 0.492899 -1.62384 0
M  V30 5762 H 537.408 1.45032 -3.6343 0
M  V30 5763 H 537.031 2.90079 -2.71919 0
M  V30 5764 N 538.028 1.39524 0.732853 0
M  V30 5765 C 538.938 1.40695 1.87729 0
M  V30 5766 C 539.954 0.301496 1.71368 0
M  V30 5767 O 541.13 0.543313 1.93933 0
M  V30 5768 C 538.195 1.25098 3.23344 0
M  V30 5769 C 537.256 2.45634 3.52083 0
M  V30 5770 C 536.489 2.30772 4.81228 0
M  V30 5771 O 536.712 1.31233 5.55098 0
M  V30 5772 O 535.646 3.19799 5.09914 0
M  V30 5773 H 539.472 2.37168 1.89697 0
M  V30 5774 H 537.057 1.20663 0.880959 0
M  V30 5775 H 538.939 1.18541 4.04383 0
M  V30 5776 H 537.614 0.317209 3.22142 0
M  V30 5777 H 536.521 2.57767 2.71122 0
M  V30 5778 H 537.854 3.37712 3.58066 0
M  V30 5779 N 539.506 -0.963266 1.24736 0
M  V30 5780 C 540.416 -2.09246 1.06082 0
M  V30 5781 C 541.432 -1.74 0.000363101 0
M  V30 5782 O 542.608 -2.0041 0.199479 0
M  V30 5783 C 539.673 -3.40115 0.672498 0
M  V30 5784 C 538.734 -3.89282 1.80993 0
M  V30 5785 C 537.967 -5.13905 1.44004 0
M  V30 5786 O 538.19 -5.69434 0.331835 0
M  V30 5787 O 537.124 -5.57566 2.26723 0
M  V30 5788 H 540.95 -2.27881 2.00759 0
M  V30 5789 H 538.535 -1.07649 1.03595 0
M  V30 5790 H 540.417 -4.18797 0.467668 0
M  V30 5791 H 539.092 -3.22771 -0.245102 0
M  V30 5792 H 537.999 -3.11642 2.06955 0
M  V30 5793 H 539.332 -4.1111 2.70646 0
M  V30 5794 N 540.985 -1.06182 -1.16461 0
M  V30 5795 C 542.262 -0.691364 -1.82974 0
M  V30 5796 C 542.642 0.827377 -1.9421 0
M  V30 5797 O 541.99 1.73723 -1.48434 0
M  V30 5798 C 542.2 -1.39199 -3.20038 0
M  V30 5799 C 543.548 -1.53647 -3.95825 0
M  V30 5800 O 544.572 -1.35181 -3.29552 0
M  V30 5801 O 543.431 -1.83932 -5.14618 0
M  V30 5802 H 540.525 -0.244605 -0.789998 0
M  V30 5803 H 543.071 -1.16203 -1.23673 0
M  V30 5804 H 541.843 -2.42766 -3.06888 0
M  V30 5805 H 541.466 -0.911335 -3.87015 0
M  V30 5806 O 542.502 1.28464 -0.97874 0
M  V30 5807 H 543.193 1.83432 -0.622284 0
M  V30 END ATOM
M  V30 BEGIN BOND
M  V30 END BOND
M  V30 END CTAB
M  END
$$$$
