drugbank_target|P14543 Nidogen-1 (DB00013)
 OpenBabel12092120053D

  0  0  0     0  0            999 V3000
M  V30 BEGIN CTAB
M  V30 COUNTS 18707 18948 0 0 0
M  V30 BEGIN ATOM
M  V30 1 H -0.908 1.98254 -0.117106 0
M  V30 2 N 0 1.576 0 0
M  V30 3 C 0.933 2.03868 1.02534 0
M  V30 4 C 1.911 0.928543 1.3348 0
M  V30 5 O 3.095 1.19667 1.45644 0
M  V30 6 C 0.222 2.43627 2.35294 0
M  V30 7 C -0.732 3.65373 2.2001 0
M  V30 8 S 0.101 5.13292 1.52614 0
M  V30 9 C 1.257 5.56322 2.86805 0
M  V30 10 H 1.49 2.90518 0.631377 0
M  V30 11 H -0.977 1.52953 0.210867 0
M  V30 12 H 0.981 2.67203 3.11629 0
M  V30 13 H -0.358 1.57376 2.7183 0
M  V30 14 H -1.165 3.90944 3.18086 0
M  V30 15 H -1.563 3.418 1.51819 0
M  V30 16 H 0.729 5.58782 3.83104 0
M  V30 17 H 1.672 6.56266 2.65933 0
M  V30 18 H 2.08 4.83886 2.90714 0
M  V30 19 N 1.4781 -0.272755 1.55222 0
M  V30 20 C 2.4081 -1.34136 1.91127 0
M  V30 21 C 3.3891 -1.51513 0.773168 0
M  V30 22 O 4.5741 -1.64552 1.03132 0
M  V30 23 C 1.7041 -2.70083 2.1834 0
M  V30 24 C 0.6581 -2.67437 3.34158 0
M  V30 25 C -0.0159 -4.06938 3.46851 0
M  V30 26 C 1.2841 -2.26686 4.70543 0
M  V30 27 H 2.9781 -1.04333 2.80633 0
M  V30 28 H 0.5241 -0.500454 1.35024 0
M  V30 29 H 2.4771 -3.44952 2.42046 0
M  V30 30 H 1.2011 -3.01469 1.25634 0
M  V30 31 H -0.1399 -1.95026 3.1042 0
M  V30 32 H -0.4919 -4.35547 2.51611 0
M  V30 33 H -0.7919 -4.06062 4.2472 0
M  V30 34 H 0.7321 -4.83545 3.72849 0
M  V30 35 H 2.1461 -2.91277 4.93792 0
M  V30 36 H 0.5431 -2.36971 5.5133 0
M  V30 37 H 1.6131 -1.21818 4.69349 0
M  V30 38 N 2.9562 -1.48159 -0.537278 0
M  V30 39 C 3.9192 -1.61665 -1.62472 0
M  V30 40 C 4.9192 -0.490395 -1.5314 0
M  V30 41 O 6.1092 -0.755998 -1.5694 0
M  V30 42 C 3.2412 -1.57997 -3.02076 0
M  V30 43 H 4.4342 -2.58621 -1.51839 0
M  V30 44 H 1.9872 -1.36647 -0.758771 0
M  V30 45 H 2.7222 -0.624913 -3.18222 0
M  V30 46 H 2.5072 -2.39755 -3.10258 0
M  V30 47 H 3.9972 -1.70627 -3.81151 0
M  V30 48 N 4.4343 0.785586 -1.36625 0
M  V30 49 C 5.6593 1.57963 -1.34397 0
M  V30 50 C 6.0843 1.87964 0.071526 0
M  V30 51 O 5.4423 1.48182 1.0446 0
M  V30 52 C 5.4903 2.87511 -2.17646 0
M  V30 53 O 4.5943 3.81281 -1.57158 0
M  V30 54 H 3.9353 0.479014 -0.459828 0
M  V30 55 H 6.4653 0.973411 -1.79961 0
M  V30 56 H 6.4753 3.36745 -2.30362 0
M  V30 57 H 5.1503 2.65002 -3.20541 0
M  V30 58 H 3.7273 3.39885 -1.53403 0
M  V30 59 N 5.9124 1.20967 1.01018 0
M  V30 60 C 7.1374 1.0503 1.78839 0
M  V30 61 C 7.5624 -0.395752 1.8389 0
M  V30 62 O 6.9204 -1.28529 1.27867 0
M  V30 63 C 6.9684 1.64602 3.2084 0
M  V30 64 O 6.0724 0.887988 4.02726 0
M  V30 65 H 5.4134 0.369987 0.551367 0
M  V30 66 H 7.9434 1.60399 1.27018 0
M  V30 67 H 7.9534 1.68607 3.71532 0
M  V30 68 H 6.6284 2.69841 3.16479 0
M  V30 69 H 5.2054 0.922648 3.61305 0
M  V30 70 N 7.3905 -1.2043 1.01659 0
M  V30 71 C 8.6155 -1.94318 0.724942 0
M  V30 72 C 9.0405 -1.74266 -0.708034 0
M  V30 73 O 8.3985 -1.03694 -1.48719 0
M  V30 74 C 8.4465 -3.44486 1.06591 0
M  V30 75 O 7.5505 -4.12017 0.177599 0
M  V30 76 H 6.8915 -0.60708 0.26898 0
M  V30 77 H 9.4215 -1.52861 1.35995 0
M  V30 78 H 9.4315 -3.95106 1.01762 0
M  V30 79 H 8.1065 -3.58404 2.10997 0
M  V30 80 H 6.6835 -3.71821 0.283421 0
M  V30 81 N 8.8686 -0.792821 -1.36206 0
M  V30 82 C 10.2846 -0.474903 -1.52371 0
M  V30 83 C 10.4846 1.00622 -1.74578 0
M  V30 84 O 9.5406 1.79162 -1.77924 0
M  V30 85 C 10.8536 -1.3083 -2.70747 0
M  V30 86 C 12.4016 -1.30234 -2.84619 0
M  V30 87 C 12.8766 -2.11956 -4.06004 0
M  V30 88 N 14.3676 -2.09419 -4.13156 0
M  V30 89 C 15.1026 -2.69419 -5.06163 0
M  V30 90 N 14.5986 -3.3829 -6.04592 0
M  V30 91 N 16.3916 -2.59134 -4.98804 0
M  V30 92 H 8.5426 -1.75222 -1.20046 0
M  V30 93 H 10.8056 -0.745024 -0.586211 0
M  V30 94 H 10.5116 -2.35881 -2.6087 0
M  V30 95 H 10.3856 -0.95196 -3.6499 0
M  V30 96 H 12.7726 -0.259748 -2.93955 0
M  V30 97 H 12.8536 -1.69847 -1.91274 0
M  V30 98 H 12.4976 -3.16248 -3.97429 0
M  V30 99 H 12.4276 -1.69711 -4.98503 0
M  V30 100 H 14.9186 -1.59297 -3.42685 0
M  V30 101 H 15.2316 -3.81394 -6.7213 0
M  V30 102 H 13.5766 -3.42393 -6.04807 0
M  V30 103 H 16.7676 -2.04927 -4.20859 0
M  V30 104 H 16.9406 -3.06185 -5.711 0
M  V30 105 N 10.3467 1.47872 -0.545128 0
M  V30 106 C 11.5957 2.01695 -0.0145033 0
M  V30 107 C 11.9087 1.42609 1.33873 0
M  V30 108 O 13.1147 1.88021 1.95858 0
M  V30 109 C 11.5707 3.59892 0.0245068 0
M  V30 110 C 11.1787 4.27966 -1.32475 0
M  V30 111 C 12.9227 4.21507 0.50316 0
M  V30 112 C 10.8297 5.78136 -1.2455 0
M  V30 113 H 9.7597 0.753998 -0.00165172 0
M  V30 114 H 12.4107 1.69985 -0.691175 0
M  V30 115 H 10.7927 3.88509 0.766575 0
M  V30 116 H 11.9667 4.11003 -2.08357 0
M  V30 117 H 10.2817 3.78286 -1.74036 0
M  V30 118 H 12.8787 5.31538 0.580656 0
M  V30 119 H 13.2217 3.87855 1.51243 0
M  V30 120 H 13.7547 3.97376 -0.183681 0
M  V30 121 H 10.4937 6.16388 -2.23039 0
M  V30 122 H 10.0137 5.97469 -0.528282 0
M  V30 123 H 11.6927 6.40099 -0.942488 0
M  V30 124 N 11.8248 0.280983 1.55075 0
M  V30 125 C 13.2408 -0.0729964 1.59433 0
M  V30 126 C 13.4408 -1.5411 1.29817 0
M  V30 127 O 12.4968 -2.29086 1.06187 0
M  V30 128 C 13.8098 0.306921 2.9913 0
M  V30 129 C 15.3578 0.254023 3.11968 0
M  V30 130 C 15.8328 0.608467 4.5394 0
M  V30 131 N 17.3238 0.560241 4.59799 0
M  V30 132 C 18.0588 0.80722 5.6769 0
M  V30 133 N 17.5548 1.11912 6.83701 0
M  V30 134 N 19.3478 0.735623 5.57266 0
M  V30 135 H 11.4988 1.238 1.7259 0
M  V30 136 H 13.7618 0.500547 0.805082 0
M  V30 137 H 13.4678 1.32816 3.25657 0
M  V30 138 H 13.3418 -0.349363 3.75579 0
M  V30 139 H 15.7288 -0.75794 2.852 0
M  V30 140 H 15.8098 0.944649 2.37718 0
M  V30 141 H 15.4538 1.61814 4.81434 0
M  V30 142 H 15.3838 -0.104013 5.26497 0
M  V30 143 H 17.8748 0.329288 3.76463 0
M  V30 144 H 18.1878 1.29409 7.61888 0
M  V30 145 H 16.5328 1.15695 6.85303 0
M  V30 146 H 19.7238 0.491752 4.6551 0
M  V30 147 H 19.8968 0.931482 6.4127 0
M  V30 148 N 13.3029 -1.57598 0.00835791 0
M  V30 149 C 14.2659 -2.07884 -0.965242 0
M  V30 150 C 15.2659 -0.989825 -1.26725 0
M  V30 151 O 16.4559 -1.25218 -1.21104 0
M  V30 152 C 13.5879 -2.52731 -2.28779 0
M  V30 153 H 14.7809 -2.95178 -0.530112 0
M  V30 154 H 12.3339 -1.54458 -0.239283 0
M  V30 155 H 13.0689 -1.68705 -2.76964 0
M  V30 156 H 12.8539 -3.32272 -2.08177 0
M  V30 157 H 14.3439 -2.91933 -2.98605 0
M  V30 158 N 14.781 0.264519 -1.55364 0
M  V30 159 C 15.744 1.31046 -1.88042 0
M  V30 160 C 16.744 1.41943 -0.755569 0
M  V30 161 O 17.934 1.40947 -1.02369 0
M  V30 162 C 15.066 2.69067 -2.09323 0
M  V30 163 H 16.259 1.03297 -2.81549 0
M  V30 164 H 13.812 0.502989 -1.47986 0
M  V30 165 H 14.547 3.01982 -1.18226 0
M  V30 166 H 14.332 2.62542 -2.91229 0
M  V30 167 H 15.822 3.44623 -2.35848 0
M  V30 168 N 16.2591 1.48442 0.529413 0
M  V30 169 C 17.5051 1.57699 1.28463 0
M  V30 170 C 17.8601 0.247913 1.90796 0
M  V30 171 O 17.1531 -0.749279 1.76342 0
M  V30 172 C 17.3471 2.6523 2.39558 0
M  V30 173 C 17.1761 4.08464 1.88114 0
M  V30 174 C 15.9461 4.75596 1.70693 0
M  V30 175 C 18.1441 4.94613 1.40935 0
M  V30 176 N 16.1261 6.03245 1.13881 0
M  V30 177 C 17.4971 6.12511 0.960734 0
M  V30 178 C 19.5521 4.80833 1.29243 0
M  V30 179 C 18.2551 7.18149 0.406792 0
M  V30 180 C 20.2811 5.86593 0.752487 0
M  V30 181 C 19.6431 7.037 0.313946 0
M  V30 182 H 15.7421 0.631608 0.46108 0
M  V30 183 H 18.3261 1.85325 0.596886 0
M  V30 184 H 16.4971 2.39425 3.05827 0
M  V30 185 H 18.2291 2.64169 3.06589 0
M  V30 186 H 14.9841 4.31938 1.94232 0
M  V30 187 H 15.4081 6.71324 0.874831 0
M  V30 188 H 20.0501 3.90635 1.61754 0
M  V30 189 H 17.7681 8.0807 0.0693671 0
M  V30 190 H 21.3541 5.77985 0.665192 0
M  V30 191 H 20.2341 7.8414 -0.0973632 0
M  V30 192 N 17.7372 -0.778329 1.37039 0
M  V30 193 C 18.9652 -1.56734 1.35063 0
M  V30 194 C 19.3802 -1.88686 -0.0655597 0
M  V30 195 O 18.7372 -1.5096 -1.02554 0
M  V30 196 C 18.7882 -2.88163 2.18276 0
M  V30 197 O 18.5092 -2.57583 3.54376 0
M  V30 198 C 20.0102 -3.82422 2.24206 0
M  V30 199 H 17.2302 -0.485778 0.462883 0
M  V30 200 H 19.7742 -0.965185 1.8029 0
M  V30 201 H 17.9292 -3.44818 1.76576 0
M  V30 202 H 18.3432 -3.41699 3.97922 0
M  V30 203 H 19.8172 -4.71667 2.86765 0
M  V30 204 H 20.2942 -4.21078 1.24861 0
M  V30 205 H 20.9002 -3.31697 2.6619 0
M  V30 206 N 19.2153 -1.21501 -1.00376 0
M  V30 207 C 20.6313 -0.972629 -1.26539 0
M  V30 208 C 20.8313 0.340257 -1.98606 0
M  V30 209 O 19.8873 1.06561 -2.28913 0
M  V30 210 C 21.2003 -2.16404 -2.08781 0
M  V30 211 C 22.7483 -2.20643 -2.22004 0
M  V30 212 C 23.2233 -3.39306 -3.07629 0
M  V30 213 N 24.7143 -3.39401 -3.15217 0
M  V30 214 C 25.4493 -4.27867 -3.81729 0
M  V30 215 N 24.9453 -5.26533 -4.5026 0
M  V30 216 N 26.7383 -4.15672 -3.78382 0
M  V30 217 H 18.8893 -2.05929 -0.520281 0
M  V30 218 H 21.1523 -0.901803 -0.292328 0
M  V30 219 H 20.8583 -3.11554 -1.63178 0
M  V30 220 H 20.7323 -2.15567 -3.09533 0
M  V30 221 H 23.1193 -1.26048 -2.66825 0
M  V30 222 H 23.2003 -2.25523 -1.20718 0
M  V30 223 H 22.8443 -4.34195 -2.63509 0
M  V30 224 H 22.7743 -3.31665 -4.09031 0
M  V30 225 H 25.2653 -2.67997 -2.66432 0
M  V30 226 H 25.5783 -5.90337 -4.98721 0
M  V30 227 H 23.9233 -5.30457 -4.49044 0
M  V30 228 H 27.1143 -3.3785 -3.23998 0
M  V30 229 H 27.2873 -4.84825 -4.2994 0
M  V30 230 N 20.6934 1.19889 -1.02296 0
M  V30 231 C 21.6564 2.21116 -0.603351 0
M  V30 232 C 22.6564 1.5738 0.329884 0
M  V30 233 O 23.8464 1.73802 0.117702 0
M  V30 234 C 20.9784 3.40696 0.117992 0
M  V30 235 H 22.1714 2.59754 -1.49893 0
M  V30 236 H 19.7244 1.33463 -0.813468 0
M  V30 237 H 20.4594 3.07569 1.0282 0
M  V30 238 H 20.2444 3.88188 -0.552511 0
M  V30 239 H 21.7344 4.15692 0.398696 0
M  V30 240 N 22.1715 0.800033 1.35784 0
M  V30 241 C 23.1015 0.220184 2.3246 0
M  V30 242 C 24.0825 -0.65073 1.57161 0
M  V30 243 O 25.2675 -0.582359 1.85263 0
M  V30 244 C 22.3975 -0.637353 3.41402 0
M  V30 245 C 21.3515 0.134531 4.27789 0
M  V30 246 C 20.6775 -0.844285 5.27992 0
M  V30 247 C 21.9775 1.32979 5.05088 0
M  V30 248 H 23.6715 1.02787 2.81203 0
M  V30 249 H 21.2175 0.495717 1.35199 0
M  V30 250 H 23.1705 -1.05302 4.08031 0
M  V30 251 H 21.8945 -1.47785 2.91251 0
M  V30 252 H 20.5535 0.531296 3.6273 0
M  V30 253 H 20.2015 -1.68011 4.74111 0
M  V30 254 H 19.9015 -0.332184 5.8666 0
M  V30 255 H 21.4255 -1.2583 5.97494 0
M  V30 256 H 22.8395 0.98934 5.64699 0
M  V30 257 H 21.2365 1.77593 5.7322 0
M  V30 258 H 22.3065 2.11978 4.36111 0
M  V30 259 N 23.6496 -1.47581 0.552962 0
M  V30 260 C 24.5796 -2.32762 -0.185451 0
M  V30 261 C 25.5606 -1.43527 -0.912905 0
M  V30 262 O 26.7456 -1.72388 -0.894201 0
M  V30 263 C 23.8756 -3.25219 -1.21859 0
M  V30 264 C 22.8296 -4.23661 -0.607864 0
M  V30 265 C 22.1556 -5.05413 -1.74533 0
M  V30 266 C 23.4556 -5.20481 0.435582 0
M  V30 267 H 25.1496 -2.94749 0.525684 0
M  V30 268 H 22.6956 -1.41738 0.254251 0
M  V30 269 H 24.6486 -3.8365 -1.7433 0
M  V30 270 H 23.3726 -2.61279 -1.95961 0
M  V30 271 H 22.0316 -3.66451 -0.104489 0
M  V30 272 H 21.6796 -4.3788 -2.47529 0
M  V30 273 H 21.3796 -5.72059 -1.34249 0
M  V30 274 H 22.9036 -5.66701 -2.27338 0
M  V30 275 H 24.3176 -5.733 -0.00290157 0
M  V30 276 H 22.7146 -5.95305 0.757067 0
M  V30 277 H 23.7846 -4.66217 1.33303 0
M  V30 278 N 25.1277 -0.289203 -1.54924 0
M  V30 279 C 26.0577 0.58549 -2.2604 0
M  V30 280 C 27.0387 1.14753 -1.25562 0
M  V30 281 O 28.2237 1.17906 -1.54311 0
M  V30 282 C 25.3537 1.76305 -2.99222 0
M  V30 283 C 24.3077 1.33191 -4.06748 0
M  V30 284 C 23.6337 2.5937 -4.6758 0
M  V30 285 C 24.9337 0.471775 -5.20165 0
M  V30 286 H 26.6277 -0.00763532 -2.99399 0
M  V30 287 H 24.1737 -0.00511229 -1.43999 0
M  V30 288 H 26.1267 2.38097 -3.47689 0
M  V30 289 H 24.8507 2.38223 -2.23422 0
M  V30 290 H 23.5097 0.737121 -3.59113 0
M  V30 291 H 23.1577 3.19576 -3.88433 0
M  V30 292 H 22.8577 2.31228 -5.40192 0
M  V30 293 H 24.3817 3.21985 -5.18804 0
M  V30 294 H 25.7957 0.995056 -5.64599 0
M  V30 295 H 24.1927 0.284639 -5.99425 0
M  V30 296 H 25.2627 -0.506041 -4.82252 0
M  V30 297 N 26.6058 1.57591 -0.0167156 0
M  V30 298 C 28.0168 1.79201 0.523834 0
M  V30 299 C 28.3678 0.925796 1.72984 0
M  V30 300 O 27.4928 0.132792 2.15992 0
M  V30 301 C 28.0878 3.25 0.957091 0
M  V30 302 C 26.6468 3.47648 1.44283 0
M  V30 303 C 25.7938 2.74374 0.401757 0
M  V30 304 H 28.7448 1.56831 -0.242816 0
M  V30 305 H 28.7658 3.34031 1.82219 0
M  V30 306 H 28.2778 3.88019 0.0791415 0
M  V30 307 H 26.3788 2.89866 2.34113 0
M  V30 308 H 26.4918 4.56352 1.45877 0
M  V30 309 H 24.8558 2.39485 0.867121 0
M  V30 310 H 25.6388 3.40102 -0.467513 0
M  V30 311 N 28.0839 -0.256276 1.55502 0
M  V30 312 C 29.0139 -1.32102 1.92539 0
M  V30 313 C 29.9949 -1.50684 0.789194 0
M  V30 314 O 31.1799 -1.63449 1.04872 0
M  V30 315 C 28.3099 -2.67752 2.21192 0
M  V30 316 C 27.2639 -2.63878 3.36975 0
M  V30 317 C 26.5899 -4.03236 3.51147 0
M  V30 318 C 27.8899 -2.21682 4.72921 0
M  V30 319 H 29.5839 -1.01351 2.81724 0
M  V30 320 H 27.1299 -0.486105 1.35547 0
M  V30 321 H 29.0829 -3.42365 2.45691 0
M  V30 322 H 27.8069 -3.0012 1.28824 0
M  V30 323 H 26.4659 -1.91722 3.12471 0
M  V30 324 H 26.1139 -4.32854 2.56216 0
M  V30 325 H 25.8139 -4.01535 4.29003 0
M  V30 326 H 27.3379 -4.79563 3.77957 0
M  V30 327 H 28.7519 -2.86023 4.96854 0
M  V30 328 H 27.1489 -2.3111 5.53812 0
M  V30 329 H 28.2189 -1.16833 4.70615 0
M  V30 330 N 29.562 -1.4872 -0.521534 0
M  V30 331 C 30.492 -1.66771 -1.63431 0
M  V30 332 C 31.473 -0.516499 -1.62069 0
M  V30 333 O 32.658 -0.750013 -1.79132 0
M  V30 334 C 29.788 -1.71515 -3.01993 0
M  V30 335 C 28.742 -2.86222 -3.18216 0
M  V30 336 C 28.068 -2.76061 -4.57924 0
M  V30 337 C 29.368 -4.27419 -3.00184 0
M  V30 338 H 31.062 -2.59932 -1.48579 0
M  V30 339 H 28.608 -1.25089 -0.713358 0
M  V30 340 H 30.561 -1.82731 -3.7972 0
M  V30 341 H 29.285 -0.749393 -3.17886 0
M  V30 342 H 27.944 -2.74575 -2.42908 0
M  V30 343 H 27.592 -1.77437 -4.70665 0
M  V30 344 H 27.292 -3.53037 -4.69722 0
M  V30 345 H 28.816 -2.89256 -5.37739 0
M  V30 346 H 30.23 -4.39855 -3.67697 0
M  V30 347 H 28.627 -5.05458 -3.2347 0
M  V30 348 H 29.697 -4.43293 -1.96518 0
M  V30 349 N 31.0401 0.771051 -1.3745 0
M  V30 350 C 31.9701 1.89827 -1.3597 0
M  V30 351 C 32.9511 1.68562 -0.228216 0
M  V30 352 O 34.1361 1.8941 -0.428675 0
M  V30 353 C 31.2661 3.2712 -1.16662 0
M  V30 354 C 30.2201 3.6295 -2.2683 0
M  V30 355 C 29.5461 4.98791 -1.92644 0
M  V30 356 C 30.8461 3.69627 -3.69017 0
M  V30 357 H 32.5401 1.91323 -2.30295 0
M  V30 358 H 30.0861 0.919082 -1.10855 0
M  V30 359 H 32.0391 4.05615 -1.14256 0
M  V30 360 H 30.7631 3.26059 -0.187926 0
M  V30 361 H 29.4221 2.86763 -2.28392 0
M  V30 362 H 29.0701 4.94271 -0.933021 0
M  V30 363 H 28.7701 5.23733 -2.66416 0
M  V30 364 H 30.2941 5.79685 -1.91826 0
M  V30 365 H 31.7081 4.38273 -3.69581 0
M  V30 366 H 30.1051 4.06067 -4.41848 0
M  V30 367 H 31.1751 2.70273 -4.02592 0
M  V30 368 N 32.5182 1.22032 0.997298 0
M  V30 369 C 33.4812 0.987909 2.06816 0
M  V30 370 C 34.4812 -0.0440084 1.6074 0
M  V30 371 O 35.6712 0.194053 1.73116 0
M  V30 372 C 32.8032 0.49132 3.37341 0
M  V30 373 H 33.9962 1.93803 2.28868 0
M  V30 374 H 31.5492 1.03838 1.16822 0
M  V30 375 H 32.2842 -0.463364 3.20973 0
M  V30 376 H 32.0692 1.23575 3.72118 0
M  V30 377 H 33.5592 0.348824 4.16141 0
M  V30 378 N 33.9963 -1.19345 1.0293 0
M  V30 379 C 35.2443 -1.88665 0.724574 0
M  V30 380 C 35.5653 -1.80036 -0.749144 0
M  V30 381 O 34.8353 -1.2111 -1.53978 0
M  V30 382 H 33.4153 -0.698406 0.265025 0
M  V30 383 H 36.0773 -1.44885 1.30362 0
M  V30 384 H 35.1733 -2.94987 1.01926 0
M  V30 385 N 35.4744 -0.807222 -1.35358 0
M  V30 386 C 36.8854 -0.44876 -1.81226 0
M  V30 387 C 37.2364 1.02929 -1.67033 0
M  V30 388 O 36.3614 1.79991 -1.20133 0
M  V30 389 C 36.9564 -0.807774 -3.2903 0
M  V30 390 C 35.5154 -0.501901 -3.73039 0
M  V30 391 C 34.6624 -1.03304 -2.57339 0
M  V30 392 H 37.6134 -0.998808 -1.23327 0
M  V30 393 H 37.6344 -0.10554 -3.80354 0
M  V30 394 H 37.1464 -1.88357 -3.39328 0
M  V30 395 H 35.2474 0.565128 -3.68289 0
M  V30 396 H 35.3604 -1.03497 -4.67787 0
M  V30 397 H 33.7244 -0.455339 -2.50597 0
M  V30 398 H 34.5074 -2.11496 -2.70415 0
M  V30 399 N 36.9525 1.47285 -0.560781 0
M  V30 400 C 38.1985 2.02764 -0.0381184 0
M  V30 401 C 38.5315 1.43384 1.30976 0
M  V30 402 O 37.8065 0.590733 1.85312 0
M  V30 403 C 38.0895 3.60064 0.0511427 0
M  V30 404 C 37.9425 4.2987 -1.32408 0
M  V30 405 C 39.2615 4.33439 0.762795 0
M  V30 406 H 36.3805 0.736841 -0.0153264 0
M  V30 407 H 39.0225 1.75675 -0.723759 0
M  V30 408 H 37.1725 3.83274 0.635065 0
M  V30 409 H 38.8445 4.17989 -1.95148 0
M  V30 410 H 37.0875 3.90085 -1.8978 0
M  V30 411 H 37.7585 5.38478 -1.21431 0
M  V30 412 H 40.2345 4.15243 0.266965 0
M  V30 413 H 39.1105 5.43124 0.794221 0
M  V30 414 H 39.3715 4.02915 1.81966 0
M  V30 415 N 38.4306 0.297415 1.54768 0
M  V30 416 C 39.6786 -0.312295 1.99673 0
M  V30 417 C 39.9996 -1.54686 1.18732 0
M  V30 418 O 39.2696 -1.93854 0.282382 0
M  V30 419 H 37.8496 -0.118381 0.73756 0
M  V30 420 H 40.5116 0.407915 1.90583 0
M  V30 421 H 39.6076 -0.586813 3.06534 0
M  V30 422 N 39.9087 -1.5758 0.0250728 0
M  V30 423 C 41.1487 -1.93497 -0.65865 0
M  V30 424 C 41.5127 -0.901409 -1.69525 0
M  V30 425 O 42.7137 -1.14664 -2.43116 0
M  V30 426 C 40.9847 -3.34352 -1.26267 0
M  V30 427 S 42.5437 -3.92191 -1.96803 0
M  V30 428 H 39.3617 -0.67709 -0.216958 0
M  V30 429 H 41.9637 -1.95303 0.0877692 0
M  V30 430 H 40.6677 -4.07395 -0.495741 0
M  V30 431 H 40.1987 -3.3598 -2.04648 0
M  V30 432 H 42.2137 -3.75298 -3.24601 0
M  V30 433 N 41.3868 0.248026 -1.55636 0
M  V30 434 C 42.3168 1.31079 -1.93237 0
M  V30 435 C 43.2978 1.50264 -0.797174 0
M  V30 436 O 44.4828 1.62891 -1.05737 0
M  V30 437 C 41.6128 2.66575 -2.22609 0
M  V30 438 C 40.5668 2.62087 -3.3837 0
M  V30 439 C 39.8928 4.01369 -3.53281 0
M  V30 440 C 41.1928 2.19171 -4.7409 0
M  V30 441 H 42.8868 0.998556 -2.82257 0
M  V30 442 H 40.4328 0.47891 -1.35803 0
M  V30 443 H 42.3858 3.41057 -2.47503 0
M  V30 444 H 41.1098 2.99432 -1.30414 0
M  V30 445 H 39.7688 1.90063 -3.13483 0
M  V30 446 H 39.4168 4.31489 -2.58508 0
M  V30 447 H 39.1168 3.99254 -4.31127 0
M  V30 448 H 40.6408 4.77552 -3.80495 0
M  V30 449 H 42.0548 2.83384 -4.98363 0
M  V30 450 H 40.4518 2.2817 -5.5503 0
M  V30 451 H 41.5218 1.14336 -4.71227 0
M  V30 452 N 42.8649 1.48995 0.513639 0
M  V30 453 C 44.0899 1.61792 1.29762 0
M  V30 454 C 44.5149 0.284475 1.85936 0
M  V30 455 O 43.8729 -0.746185 1.65232 0
M  V30 456 C 43.9209 2.67993 2.41272 0
M  V30 457 O 43.0249 2.26287 3.44772 0
M  V30 458 H 42.3659 0.541963 0.38363 0
M  V30 459 H 44.8959 1.95097 0.616307 0
M  V30 460 H 44.9059 2.89772 2.87221 0
M  V30 461 H 43.5809 3.64791 1.9975 0
M  V30 462 H 42.1579 2.14788 3.04829 0
M  V30 463 N 44.343 -0.763751 1.37857 0
M  V30 464 C 45.759 -1.06542 1.18832 0
M  V30 465 C 45.959 -2.01478 0.0299722 0
M  V30 466 O 45.015 -2.4458 -0.627447 0
M  V30 467 C 46.328 -1.65525 2.51042 0
M  V30 468 C 47.876 -1.77745 2.57635 0
M  V30 469 C 48.351 -2.4014 3.89996 0
M  V30 470 N 49.842 -2.47582 3.91481 0
M  V30 471 C 50.577 -2.96732 4.9065 0
M  V30 472 N 50.073 -3.45993 6.00217 0
M  V30 473 N 51.866 -2.95679 4.78048 0
M  V30 474 H 44.017 -0.133556 2.1198 0
M  V30 475 H 46.28 -0.121879 0.940133 0
M  V30 476 H 45.986 -1.03236 3.36207 0
M  V30 477 H 45.86 -2.64719 2.68707 0
M  V30 478 H 48.247 -2.39164 1.72872 0
M  V30 479 H 48.328 -0.772836 2.43846 0
M  V30 480 H 47.972 -1.79358 4.75177 0
M  V30 481 H 47.902 -3.41223 4.01092 0
M  V30 482 H 50.393 -2.1273 3.12337 0
M  V30 483 H 50.706 -3.81922 6.7183 0
M  V30 484 H 49.051 -3.44077 6.03851 0
M  V30 485 H 52.242 -2.56499 3.91568 0
M  V30 486 H 52.415 -3.33672 5.55488 0
M  V30 487 N 45.8211 -1.22559 -0.990812 0
M  V30 488 C 46.7531 -0.955325 -2.08342 0
M  V30 489 C 47.7661 0.0668408 -1.62663 0
M  V30 490 O 48.9551 -0.167421 -1.77713 0
M  V30 491 C 46.0551 -0.415566 -3.36342 0
M  V30 492 C 45.2281 -1.49544 -4.11042 0
M  V30 493 C 44.2871 -0.962399 -5.17324 0
M  V30 494 O 43.3131 -1.64907 -5.44788 0
M  V30 495 N 44.5151 0.215134 -5.80101 0
M  V30 496 H 47.2801 -1.89596 -2.32106 0
M  V30 497 H 44.8411 -1.13276 -1.15673 0
M  V30 498 H 46.8331 -0.0442386 -4.04676 0
M  V30 499 H 45.4031 0.430232 -3.09625 0
M  V30 500 H 44.6231 -2.04 -3.37309 0
M  V30 501 H 45.9111 -2.22195 -4.57719 0
M  V30 502 H 45.3091 0.789779 -5.6016 0
M  V30 503 H 43.8661 0.527826 -6.49659 0
M  V30 504 N 47.2992 1.18797 -1.03562 0
M  V30 505 C 48.2092 2.25913 -0.632505 0
M  V30 506 C 49.2252 1.70668 0.338882 0
M  V30 507 O 50.4012 2.00453 0.195076 0
M  V30 508 C 47.4662 3.467 0.00350942 0
M  V30 509 C 46.5272 4.17098 -1.01624 0
M  V30 510 C 45.7602 5.32119 -0.410478 0
M  V30 511 O 45.9832 5.64976 0.784725 0
M  V30 512 O 44.9172 5.9107 -1.13667 0
M  V30 513 H 48.7432 2.62648 -1.52478 0
M  V30 514 H 46.3282 1.25781 -0.806195 0
M  V30 515 H 48.2102 4.19878 0.35781 0
M  V30 516 H 46.8852 3.11798 0.869686 0
M  V30 517 H 45.7922 3.4601 -1.42224 0
M  V30 518 H 47.1252 4.55987 -1.85301 0
M  V30 519 N 48.7773 0.814389 1.34928 0
M  V30 520 C 49.7073 0.244827 2.32213 0
M  V30 521 C 50.6883 -0.634024 1.57842 0
M  V30 522 O 51.8733 -0.562676 1.8587 0
M  V30 523 C 49.0033 -0.601106 3.42058 0
M  V30 524 C 47.9573 0.179896 4.27622 0
M  V30 525 C 47.2833 -0.788237 5.28858 0
M  V30 526 C 48.5833 1.38329 5.03649 0
M  V30 527 H 50.2773 1.05763 2.80097 0
M  V30 528 H 47.8233 0.510029 1.34665 0
M  V30 529 H 49.7763 -1.00968 4.09125 0
M  V30 530 H 48.5003 -1.44688 2.92802 0
M  V30 531 H 47.1593 0.569739 3.62146 0
M  V30 532 H 46.8073 -1.62973 4.75866 0
M  V30 533 H 46.5073 -0.269942 5.8698 0
M  V30 534 H 48.0313 -1.19485 5.98795 0
M  V30 535 H 49.4453 1.04918 5.63618 0
M  V30 536 H 47.8423 1.83662 5.71304 0
M  V30 537 H 48.9123 2.16592 4.33839 0
M  V30 538 N 50.2554 -1.46986 0.568584 0
M  V30 539 C 51.5024 -2.02441 0.0487986 0
M  V30 540 C 51.8304 -1.44169 -1.30559 0
M  V30 541 O 51.0854 -0.591213 -1.86556 0
M  V30 542 C 51.3844 -3.57306 -0.081836 0
M  V30 543 C 51.0504 -4.34552 1.20313 0
M  V30 544 C 49.7124 -4.55376 1.5552 0
M  V30 545 C 52.0644 -4.79016 2.05411 0
M  V30 546 C 49.3924 -5.17913 2.7565 0
M  V30 547 C 51.7444 -5.42879 3.24754 0
M  V30 548 C 50.4084 -5.61933 3.60261 0
M  V30 549 H 49.6784 -0.740785 0.0178567 0
M  V30 550 H 52.3254 -1.76525 0.742384 0
M  V30 551 H 50.6304 -3.8228 -0.858463 0
M  V30 552 H 52.3274 -3.97876 -0.499546 0
M  V30 553 H 48.9174 -4.18631 0.919014 0
M  V30 554 H 53.1014 -4.62696 1.79516 0
M  V30 555 H 48.3574 -5.30858 3.03315 0
M  V30 556 H 52.5314 -5.76293 3.90973 0
M  V30 557 H 50.1584 -6.10161 4.53439 0
M  V30 558 N 51.7335 -0.305618 -1.54608 0
M  V30 559 C 53.1445 0.186098 -1.8577 0
M  V30 560 C 53.4955 1.53058 -1.22751 0
M  V30 561 O 52.6205 2.09888 -0.526893 0
M  V30 562 C 53.2155 0.344449 -3.37044 0
M  V30 563 C 51.7745 0.780384 -3.68221 0
M  V30 564 C 50.9215 -0.108554 -2.77087 0
M  V30 565 H 53.8725 -0.526485 -1.49712 0
M  V30 566 H 53.8935 1.17828 -3.61796 0
M  V30 567 H 53.4055 -0.634235 -3.82883 0
M  V30 568 H 51.5065 1.76945 -3.27904 0
M  V30 569 H 51.6195 0.596572 -4.75371 0
M  V30 570 H 49.9835 0.412931 -2.5133 0
M  V30 571 H 50.7665 -1.08368 -3.25747 0
M  V30 572 N 53.2116 1.57565 -0.0334293 0
M  V30 573 C 54.4586 1.91978 0.644272 0
M  V30 574 C 54.7866 0.910231 1.71887 0
M  V30 575 O 54.0416 -0.0801961 1.95536 0
M  V30 576 C 54.3406 3.33112 1.29504 0
M  V30 577 C 54.0066 4.49537 0.350388 0
M  V30 578 C 52.6686 4.81115 0.0903974 0
M  V30 579 C 55.0206 5.20347 -0.298032 0
M  V30 580 C 52.3486 5.8086 -0.825746 0
M  V30 581 C 54.7006 6.2107 -1.20226 0
M  V30 582 C 53.3646 6.51088 -1.4711 0
M  V30 583 H 52.6346 0.702496 0.235756 0
M  V30 584 H 55.2816 1.91259 -0.0961176 0
M  V30 585 H 53.5866 3.30113 2.11028 0
M  V30 586 H 55.2836 3.57011 1.82603 0
M  V30 587 H 51.8736 4.24883 0.563205 0
M  V30 588 H 56.0576 4.96178 -0.110234 0
M  V30 589 H 51.3136 6.02461 -1.04169 0
M  V30 590 H 55.4876 6.75057 -1.71086 0
M  V30 591 H 53.1146 7.28193 -2.18264 0
M  V30 592 N 54.6897 -0.239769 1.55765 0
M  V30 593 C 55.9377 -0.964892 1.77579 0
M  V30 594 C 56.2587 -1.85582 0.598699 0
M  V30 595 O 55.5287 -1.92075 -0.385226 0
M  V30 596 H 54.1087 -0.359265 0.654933 0
M  V30 597 H 56.7707 -0.256001 1.93211 0
M  V30 598 H 55.8667 -1.58243 2.69009 0
M  V30 599 N 56.1678 -1.49265 -0.50573 0
M  V30 600 C 57.5788 -1.51769 -1.08734 0
M  V30 601 C 57.9298 -0.301192 -1.93874 0
M  V30 602 O 57.0548 0.589456 -2.08217 0
M  V30 603 C 57.6498 -2.75017 -1.97867 0
M  V30 604 C 56.2088 -2.80314 -2.51199 0
M  V30 605 C 55.3558 -2.4562 -1.28709 0
M  V30 606 H 58.3068 -1.56031 -0.289855 0
M  V30 607 H 58.3278 -2.5491 -2.82491 0
M  V30 608 H 57.8398 -3.63539 -1.35873 0
M  V30 609 H 55.9408 -1.96061 -3.16845 0
M  V30 610 H 56.0538 -3.82366 -2.88675 0
M  V30 611 H 54.4178 -1.97297 -1.61078 0
M  V30 612 H 55.2008 -3.36411 -0.6843 0
M  V30 613 N 57.6459 0.756429 -1.3826 0
M  V30 614 C 58.8939 1.51248 -1.34047 0
M  V30 615 C 59.2149 1.94875 0.0698372 0
M  V30 616 O 58.4849 1.67436 1.01696 0
M  V30 617 H 57.0649 0.561018 -0.493222 0
M  V30 618 H 59.7269 0.899347 -1.7291 0
M  V30 619 H 58.8229 2.40472 -1.98947 0
M  V30 620 N 59.124 1.23083 0.984299 0
M  V30 621 C 60.056 0.96636 2.07832 0
M  V30 622 C 61.069 -0.0582135 1.62696 0
M  V30 623 O 62.258 0.176843 1.77622 0
M  V30 624 C 59.358 0.433397 3.36117 0
M  V30 625 C 58.531 1.51722 4.10243 0
M  V30 626 C 57.59 0.989821 5.16807 0
M  V30 627 O 56.616 1.67794 5.43906 0
M  V30 628 N 57.818 -0.184367 5.80207 0
M  V30 629 H 60.583 1.90824 2.31098 0
M  V30 630 H 58.144 1.13888 1.1507 0
M  V30 631 H 60.136 0.065699 4.04647 0
M  V30 632 H 58.706 -0.413806 3.09849 0
M  V30 633 H 57.926 2.05786 3.36223 0
M  V30 634 H 59.214 2.24619 4.56534 0
M  V30 635 H 58.612 -0.760062 5.60571 0
M  V30 636 H 57.169 -0.493366 6.4993 0
M  V30 637 N 60.6021 -1.18246 1.0419 0
M  V30 638 C 61.8501 -1.87886 0.744543 0
M  V30 639 C 62.1711 -1.8082 -0.730006 0
M  V30 640 O 61.4411 -1.22736 -1.52685 0
M  V30 641 H 60.0211 -0.695556 0.272417 0
M  V30 642 H 62.6831 -1.43494 1.31892 0
M  V30 643 H 61.7791 -2.9389 1.05049 0
M  V30 644 N 62.0802 -0.821533 -1.34494 0
M  V30 645 C 63.3572 -0.33159 -1.92769 0
M  V30 646 C 63.7372 1.18088 -1.74981 0
M  V30 647 O 63.0852 1.98733 -1.12772 0
M  V30 648 C 63.2952 -0.759398 -3.40638 0
M  V30 649 C 64.6432 -0.757433 -4.1779 0
M  V30 650 O 65.6672 -0.70189 -3.49216 0
M  V30 651 O 64.5262 -0.829361 -5.4017 0
M  V30 652 H 61.6202 -0.0902502 -0.822061 0
M  V30 653 H 64.1662 -0.906231 -1.43477 0
M  V30 654 H 62.9382 -1.8012 -3.47379 0
M  V30 655 H 62.5612 -0.160378 -3.97276 0
M  V30 656 N 63.5583 1.46682 -0.576371 0
M  V30 657 C 64.4883 2.33028 0.148397 0
M  V30 658 C 65.4693 1.44961 0.889956 0
M  V30 659 O 66.6543 1.73789 0.866662 0
M  V30 660 C 63.7843 3.27117 1.1667 0
M  V30 661 C 62.7383 4.24575 0.540386 0
M  V30 662 C 62.0643 5.08126 1.6647 0
M  V30 663 C 63.3643 5.19722 -0.518331 0
M  V30 664 H 65.0583 2.93875 -0.572509 0
M  V30 665 H 62.6043 1.41315 -0.276768 0
M  V30 666 H 64.5573 3.86374 1.68204 0
M  V30 667 H 63.2813 2.64364 1.9178 0
M  V30 668 H 61.9403 3.66571 0.0461769 0
M  V30 669 H 61.5883 4.41762 2.40531 0
M  V30 670 H 61.2883 5.74122 1.25131 0
M  V30 671 H 62.8123 5.70246 2.18293 0
M  V30 672 H 64.2263 5.73232 -0.0883058 0
M  V30 673 H 62.6233 5.94026 -0.851679 0
M  V30 674 H 63.6933 4.64037 -1.40703 0
M  V30 675 N 65.0364 0.313813 1.54444 0
M  V30 676 C 65.9464 -0.565714 2.27677 0
M  V30 677 C 66.9624 -1.13754 1.31666 0
M  V30 678 O 68.1384 -1.15959 1.64668 0
M  V30 679 C 65.2034 -1.71528 3.01296 0
M  V30 680 C 64.2644 -1.17624 4.12872 0
M  V30 681 C 63.4974 -2.27102 4.8297 0
M  V30 682 O 63.7204 -3.47256 4.52514 0
M  V30 683 O 62.6544 -1.9307 5.70094 0
M  V30 684 H 66.4804 0.0287296 3.03686 0
M  V30 685 H 64.0654 0.0798312 1.49187 0
M  V30 686 H 65.9474 -2.38476 3.4743 0
M  V30 687 H 64.6224 -2.29608 2.2817 0
M  V30 688 H 63.5294 -0.472124 3.71109 0
M  V30 689 H 64.8624 -0.640695 4.88012 0
M  V30 690 N 66.5145 -1.57545 0.0417849 0
M  V30 691 C 67.4445 -2.14009 -0.933929 0
M  V30 692 C 68.4255 -1.05938 -1.33083 0
M  V30 693 O 69.6105 -1.33833 -1.40721 0
M  V30 694 C 66.7405 -2.67747 -2.21199 0
M  V30 695 C 65.6945 -3.80718 -1.95544 0
M  V30 696 C 65.0205 -4.20935 -3.29724 0
M  V30 697 C 66.3205 -5.06258 -1.28452 0
M  V30 698 H 68.0145 -2.95788 -0.463645 0
M  V30 699 H 65.5605 -1.42285 -0.221573 0
M  V30 700 H 67.5135 -3.05886 -2.89848 0
M  V30 701 H 66.2375 -1.83147 -2.70416 0
M  V30 702 H 64.8965 -3.43037 -1.2931 0
M  V30 703 H 64.5445 -3.33298 -3.76724 0
M  V30 704 H 64.2445 -4.9707 -3.13361 0
M  V30 705 H 65.7685 -4.61666 -3.9962 0
M  V30 706 H 67.1825 -5.41903 -1.8712 0
M  V30 707 H 65.5795 -5.87475 -1.22445 0
M  V30 708 H 66.6495 -4.84207 -0.259219 0
M  V30 709 N 67.9926 0.231505 -1.5589 0
M  V30 710 C 68.9026 1.308 -1.94752 0
M  V30 711 C 69.9186 1.51826 -0.849989 0
M  V30 712 O 71.0946 1.6515 -1.15271 0
M  V30 713 C 68.1596 2.63968 -2.24771 0
M  V30 714 C 67.2206 2.51331 -3.48039 0
M  V30 715 C 66.4536 3.78148 -3.76616 0
M  V30 716 O 66.6766 4.80722 -3.07022 0
M  V30 717 O 65.6106 3.75857 -4.70123 0
M  V30 718 H 69.4366 1.0083 -2.86474 0
M  V30 719 H 67.0216 0.433547 -1.42971 0
M  V30 720 H 68.9036 3.42633 -2.45318 0
M  V30 721 H 67.5786 2.9364 -1.36225 0
M  V30 722 H 66.4856 1.709 -3.32782 0
M  V30 723 H 67.8186 2.26601 -4.36936 0
M  V30 724 N 69.4707 1.49531 0.497807 0
M  V30 725 C 70.7477 1.49682 1.25915 0
M  V30 726 C 71.1277 0.226339 2.09883 0
M  V30 727 O 70.4757 -0.791189 2.14365 0
M  V30 728 C 70.6857 2.77755 2.11313 0
M  V30 729 C 72.0337 3.27371 2.70395 0
M  V30 730 O 73.0577 2.78894 2.21578 0
M  V30 731 O 71.9167 4.11808 3.59272 0
M  V30 732 H 69.0107 0.599228 0.56996 0
M  V30 733 H 71.5567 1.61798 0.511816 0
M  V30 734 H 70.3287 3.61713 1.49264 0
M  V30 735 H 69.9517 2.68515 2.93233 0
M  V30 736 N 70.9488 -0.749086 1.3866 0
M  V30 737 C 72.1968 -1.50535 1.34847 0
M  V30 738 C 72.5178 -1.94909 -0.0595016 0
M  V30 739 O 71.7878 -1.67973 -1.00806 0
M  V30 740 H 70.3678 -0.558395 0.49619 0
M  V30 741 H 73.0298 -0.890165 1.73384 0
M  V30 742 H 72.1258 -2.39413 2.00219 0
M  V30 743 N 72.4269 -1.23603 -0.977757 0
M  V30 744 C 73.7039 -0.977897 -1.69401 0
M  V30 745 C 74.0839 0.502738 -2.05026 0
M  V30 746 O 73.4319 1.47459 -1.74551 0
M  V30 747 C 73.6419 -1.89077 -2.93345 0
M  V30 748 C 74.9899 -2.15579 -3.65802 0
M  V30 749 O 76.0139 -1.86648 -3.03383 0
M  V30 750 O 74.8729 -2.64658 -4.78141 0
M  V30 751 H 71.9669 -0.369025 -0.740101 0
M  V30 752 H 74.5129 -1.34657 -1.03274 0
M  V30 753 H 73.2849 -2.89158 -2.63634 0
M  V30 754 H 72.9079 -1.52463 -3.67207 0
M  V30 755 N 73.905 1.17692 -1.04816 0
M  V30 756 C 75.182 1.83768 -0.669963 0
M  V30 757 C 75.562 1.93232 0.849986 0
M  V30 758 O 74.91 1.46397 1.75443 0
M  V30 759 C 75.12 3.21641 -1.35455 0
M  V30 760 C 76.468 3.97592 -1.49017 0
M  V30 761 O 77.492 3.31107 -1.31326 0
M  V30 762 O 76.351 5.16729 -1.77914 0
M  V30 763 H 73.445 0.792799 -0.235368 0
M  V30 764 H 75.991 1.25021 -1.14751 0
M  V30 765 H 74.763 3.097 -2.39168 0
M  V30 766 H 74.386 3.88052 -0.866107 0
M  V30 767 N 75.3831 0.828654 1.34056 0
M  V30 768 C 76.6301 0.419458 1.98108 0
M  V30 769 C 76.9581 -1.01886 1.65679 0
M  V30 770 O 76.2131 -1.72539 0.923512 0
M  V30 771 C 76.5121 0.575226 3.52741 0
M  V30 772 C 76.1781 1.98012 4.05095 0
M  V30 773 C 74.8401 2.36442 4.19104 0
M  V30 774 C 77.1921 2.89824 4.33188 0
M  V30 775 C 74.5201 3.66009 4.58535 0
M  V30 776 C 76.8721 4.1886 4.74066 0
M  V30 777 C 75.5361 4.5726 4.86281 0
M  V30 778 H 74.8061 0.153491 0.724929 0
M  V30 779 H 77.4531 1.05371 1.59904 0
M  V30 780 H 75.7581 -0.142385 3.91541 0
M  V30 781 H 77.4551 0.239057 4.00287 0
M  V30 782 H 74.0451 1.67162 3.94658 0
M  V30 783 H 78.2291 2.61375 4.21897 0
M  V30 784 H 73.4851 3.95579 4.66184 0
M  V30 785 H 77.6591 4.90086 4.94761 0
M  V30 786 H 75.2861 5.57707 5.16592 0
M  V30 787 N 76.8612 -1.46375 0.584142 0
M  V30 788 C 78.1072 -2.02678 0.0703716 0
M  V30 789 C 78.4402 -1.4545 -1.28678 0
M  V30 790 O 77.7152 -0.62014 -1.84349 0
M  V30 791 C 77.9982 -3.60099 0.00614674 0
M  V30 792 C 77.8512 -4.27709 1.3923 0
M  V30 793 C 79.1702 -4.34598 -0.693742 0
M  V30 794 H 76.2892 -0.736504 0.027047 0
M  V30 795 H 78.9312 -1.74501 0.751615 0
M  V30 796 H 77.0812 -3.84236 -0.574009 0
M  V30 797 H 78.7532 -4.14832 2.01773 0
M  V30 798 H 76.9962 -3.87016 1.95962 0
M  V30 799 H 77.6672 -5.36478 1.29982 0
M  V30 800 H 80.1432 -4.15615 -0.200869 0
M  V30 801 H 79.0192 -5.44318 -0.707714 0
M  V30 802 H 79.2802 -4.05759 -1.75533 0
M  V30 803 N 78.3393 -0.321999 -1.54275 0
M  V30 804 C 79.5643 0.285791 -2.05422 0
M  V30 805 C 79.9893 1.45124 -1.19669 0
M  V30 806 O 79.3473 1.80132 -0.205441 0
M  V30 807 C 79.3953 0.69956 -3.53749 0
M  V30 808 O 78.4993 1.8021 -3.70942 0
M  V30 809 H 77.8403 0.0518962 -0.661969 0
M  V30 810 H 80.3703 -0.469954 -1.9913 0
M  V30 811 H 80.3803 0.982649 -3.9599 0
M  V30 812 H 79.0553 -0.152864 -4.15619 0
M  V30 813 H 77.6323 1.51794 -3.40607 0
M  V30 814 N 79.8174 1.5752 -0.0501392 0
M  V30 815 C 81.2284 1.80271 0.485705 0
M  V30 816 C 81.5794 0.96228 1.70981 0
M  V30 817 O 80.7044 0.178578 2.15662 0
M  V30 818 C 81.2994 3.26957 0.887938 0
M  V30 819 C 79.8584 3.5063 1.36877 0
M  V30 820 C 79.0054 2.75165 0.343468 0
M  V30 821 H 81.9564 1.56281 -0.276028 0
M  V30 822 H 81.9774 3.37821 1.75093 0
M  V30 823 H 81.4894 3.881 -0.0031809 0
M  V30 824 H 79.5904 2.94766 2.27911 0
M  V30 825 H 79.7034 4.59343 1.36164 0
M  V30 826 H 78.0674 2.4127 0.816128 0
M  V30 827 H 78.8504 3.39034 -0.539548 0
M  V30 828 N 81.2955 -0.223234 1.56011 0
M  V30 829 C 82.2585 -1.26014 1.9145 0
M  V30 830 C 83.2585 -1.3989 0.792937 0
M  V30 831 O 84.4485 -1.38184 1.0607 0
M  V30 832 C 81.5805 -2.63422 2.16383 0
M  V30 833 H 82.7735 -0.95796 2.84189 0
M  V30 834 H 80.3265 -0.463576 1.49267 0
M  V30 835 H 81.0615 -2.98741 1.2619 0
M  V30 836 H 80.8465 -2.54728 2.98088 0
M  V30 837 H 82.3365 -3.38249 2.44903 0
M  V30 838 N 82.7736 -1.49793 -0.48987 0
M  V30 839 C 83.7036 -1.70201 -1.59856 0
M  V30 840 C 84.6846 -0.55076 -1.60937 0
M  V30 841 O 85.8696 -0.787841 -1.77501 0
M  V30 842 C 82.9996 -1.77882 -2.98287 0
M  V30 843 C 81.9536 -2.92907 -3.12073 0
M  V30 844 C 81.2796 -2.85712 -4.51965 0
M  V30 845 C 82.5796 -4.3369 -2.91051 0
M  V30 846 H 84.2736 -2.63025 -1.43032 0
M  V30 847 H 81.8196 -1.26574 -0.686664 0
M  V30 848 H 83.7726 -1.90744 -3.75759 0
M  V30 849 H 82.4966 -0.816653 -3.16225 0
M  V30 850 H 81.1556 -2.79665 -2.37029 0
M  V30 851 H 80.8036 -1.8738 -4.66795 0
M  V30 852 H 80.5036 -3.62921 -4.62128 0
M  V30 853 H 82.0276 -3.00598 -5.31482 0
M  V30 854 H 83.4416 -4.47555 -3.58284 0
M  V30 855 H 81.8386 -5.12205 -3.12675 0
M  V30 856 H 82.9086 -4.47362 -1.87071 0
M  V30 857 N 84.2517 0.741722 -1.39055 0
M  V30 858 C 85.1617 1.88621 -1.39496 0
M  V30 859 C 86.1777 1.71557 -0.290578 0
M  V30 860 O 87.3537 1.94275 -0.530954 0
M  V30 861 C 84.4187 3.24134 -1.23037 0
M  V30 862 C 83.4797 3.5364 -2.43387 0
M  V30 863 C 82.7127 4.82687 -2.27703 0
M  V30 864 O 82.9357 5.55922 -1.27696 0
M  V30 865 O 81.8697 5.1194 -3.16545 0
M  V30 866 H 85.6957 1.91203 -2.35956 0
M  V30 867 H 83.2807 0.888625 -1.20099 0
M  V30 868 H 85.1627 4.0513 -1.15964 0
M  V30 869 H 83.8377 3.22337 -0.296691 0
M  V30 870 H 82.7447 2.72758 -2.56035 0
M  V30 871 H 84.0777 3.60209 -3.35425 0
M  V30 872 N 85.7298 1.2412 0.971189 0
M  V30 873 C 86.6598 1.05508 2.08304 0
M  V30 874 C 87.6408 -0.0308864 1.70072 0
M  V30 875 O 88.8258 0.135521 1.93727 0
M  V30 876 C 85.9558 0.655365 3.4106 0
M  V30 877 C 84.9098 1.68971 3.93234 0
M  V30 878 C 84.2358 1.14516 5.22293 0
M  V30 879 C 85.5358 3.08487 4.21465 0
M  V30 880 H 87.2298 1.98507 2.24132 0
M  V30 881 H 84.7758 0.955821 1.07704 0
M  V30 882 H 86.7288 0.51217 4.18276 0
M  V30 883 H 85.4528 -0.31032 3.25122 0
M  V30 884 H 84.1118 1.82106 3.18171 0
M  V30 885 H 83.7598 0.170189 5.02712 0
M  V30 886 H 83.4598 1.83635 5.58168 0
M  V30 887 H 84.9838 1.01401 6.02121 0
M  V30 888 H 86.3978 2.98601 4.89398 0
M  V30 889 H 84.7948 3.74926 4.68562 0
M  V30 890 H 85.8648 3.56787 3.28376 0
M  V30 891 N 87.2079 -1.17134 1.05439 0
M  V30 892 C 88.4329 -1.91913 0.786396 0
M  V30 893 C 88.8579 -1.7643 -0.652234 0
M  V30 894 O 88.2159 -1.08372 -1.45345 0
M  V30 895 C 88.2639 -3.40921 1.17497 0
M  V30 896 O 87.3679 -4.11244 0.308589 0
M  V30 897 H 86.7089 -0.598215 0.288158 0
M  V30 898 H 89.2389 -1.48457 1.4079 0
M  V30 899 H 89.2489 -3.91668 1.14281 0
M  V30 900 H 87.9239 -3.5151 2.22292 0
M  V30 901 H 86.5009 -3.70731 0.40157 0
M  V30 902 N 88.686 -0.835752 -1.33615 0
M  V30 903 C 89.934 -0.429109 -1.97492 0
M  V30 904 C 90.255 1.01433 -1.66543 0
M  V30 905 O 89.525 1.70611 -0.962744 0
M  V30 906 H 88.105 -0.155686 -0.730596 0
M  V30 907 H 90.767 -1.06802 -1.63031 0
M  V30 908 H 89.863 -0.55861 -3.0706 0
M  V30 909 N 90.1641 1.46063 -0.591896 0
M  V30 910 C 91.1271 2.28854 0.125973 0
M  V30 911 C 92.1271 1.38903 0.810107 0
M  V30 912 O 93.3171 1.61186 0.66066 0
M  V30 913 C 90.4491 3.19526 1.1881 0
M  V30 914 H 91.6421 2.93802 -0.601717 0
M  V30 915 H 89.1951 1.52325 -0.350254 0
M  V30 916 H 89.9301 2.59345 1.94707 0
M  V30 917 H 89.7151 3.85766 0.701936 0
M  V30 918 H 91.2051 3.81817 1.69132 0
M  V30 919 N 91.6422 0.330177 1.54103 0
M  V30 920 C 92.5722 -0.525353 2.27513 0
M  V30 921 C 93.5532 -1.11383 1.2856 0
M  V30 922 O 94.7382 -1.13773 1.57383 0
M  V30 923 C 91.8682 -1.6831 3.03791 0
M  V30 924 C 90.8222 -1.2236 4.10137 0
M  V30 925 C 90.1482 -2.46882 4.74293 0
M  V30 926 C 91.4482 -0.333697 5.21233 0
M  V30 927 H 93.1422 0.087013 2.99274 0
M  V30 928 H 90.6882 0.0432893 1.43935 0
M  V30 929 H 92.6412 -2.28795 3.5388 0
M  V30 930 H 91.3652 -2.32216 2.29659 0
M  V30 931 H 90.0242 -0.64165 3.60941 0
M  V30 932 H 89.6722 -3.09165 3.96769 0
M  V30 933 H 89.3722 -2.16825 5.46133 0
M  V30 934 H 90.8962 -3.08117 5.27159 0
M  V30 935 H 92.3102 -0.845013 5.67038 0
M  V30 936 H 90.7072 -0.125612 5.99969 0
M  V30 937 H 91.7772 0.633724 4.80741 0
M  V30 938 N 93.1203 -1.57491 0.0584922 0
M  V30 939 C 94.5363 -1.56792 -0.298091 0
M  V30 940 C 94.7363 -1.06679 -1.70944 0
M  V30 941 O 93.7923 -0.726672 -2.41818 0
M  V30 942 C 95.1053 -3.00461 -0.119879 0
M  V30 943 C 96.6533 -3.1242 -0.190428 0
M  V30 944 C 97.1283 -4.57982 -0.0406567 0
M  V30 945 N 98.6193 -4.63099 -0.0966958 0
M  V30 946 C 99.3543 -5.734 -0.00502943 0
M  V30 947 N 98.8503 -6.9266 0.139402 0
M  V30 948 N 100.643 -5.62067 -0.0611391 0
M  V30 949 H 92.7943 -1.88386 0.98105 0
M  V30 950 H 95.0573 -0.867865 0.381463 0
M  V30 951 H 94.7633 -3.41187 0.85349 0
M  V30 952 H 94.6373 -3.66843 -0.877833 0
M  V30 953 H 97.0243 -2.71589 -1.15427 0
M  V30 954 H 97.1053 -2.48702 0.598405 0
M  V30 955 H 96.7493 -4.995 0.919897 0
M  V30 956 H 96.6793 -5.19715 -0.848727 0
M  V30 957 H 99.1703 -3.77331 -0.207277 0
M  V30 958 H 99.4833 -7.72536 0.201855 0
M  V30 959 H 97.8283 -6.94781 0.174586 0
M  V30 960 H 101.019 -4.67782 -0.172583 0
M  V30 961 H 101.192 -6.47999 0.0137562 0
M  V30 962 N 94.5984 0.214957 -1.56127 0
M  V30 963 C 95.8454 0.938372 -1.79446 0
M  V30 964 C 96.1734 1.8407 -0.628378 0
M  V30 965 O 95.4284 1.91837 0.386925 0
M  V30 966 C 95.7274 1.80314 -3.0858 0
M  V30 967 C 95.3934 1.05349 -4.3842 0
M  V30 968 C 94.0554 0.846435 -4.73697 0
M  V30 969 C 96.4074 0.524588 -5.18553 0
M  V30 970 C 93.7354 0.098683 -5.86617 0
M  V30 971 C 96.0874 -0.209853 -6.32252 0
M  V30 972 C 94.7514 -0.428102 -6.66126 0
M  V30 973 H 94.0214 0.343375 -0.656639 0
M  V30 974 H 96.6684 0.206077 -1.90388 0
M  V30 975 H 94.9734 2.6035 -2.92789 0
M  V30 976 H 96.6704 2.36513 -3.23825 0
M  V30 977 H 93.2604 1.22486 -4.10725 0
M  V30 978 H 97.4444 0.672008 -4.91729 0
M  V30 979 H 92.7004 -0.0805753 -6.11347 0
M  V30 980 H 96.8744 -0.627157 -6.9357 0
M  V30 981 H 94.5014 -1.00944 -7.53468 0
M  V30 982 N 96.0765 1.50051 0.48192 0
M  V30 983 C 97.3065 1.63999 1.2565 0
M  V30 984 C 97.7145 0.318288 1.86504 0
M  V30 985 O 97.0575 -0.708534 1.69486 0
M  V30 986 C 97.1195 2.66504 2.4128 0
M  V30 987 C 96.7835 4.10352 2.01148 0
M  V30 988 C 97.7805 4.96562 1.54021 0
M  V30 989 C 95.4655 4.56203 2.10199 0
M  V30 990 C 97.4595 6.26668 1.16473 0
M  V30 991 C 95.1465 5.86318 1.72264 0
M  V30 992 C 96.1445 6.71375 1.25477 0
M  V30 993 O 95.8325 7.99062 0.880626 0
M  V30 994 H 95.5645 0.55456 0.386574 0
M  V30 995 H 98.1185 1.96954 0.582944 0
M  V30 996 H 96.3485 2.28769 3.11772 0
M  V30 997 H 98.0375 2.69783 3.03268 0
M  V30 998 H 98.8035 4.62358 1.46458 0
M  V30 999 H 94.6825 3.90152 2.45566 0
M  V30 1000 H 98.2265 6.93011 0.798841 0
M  V30 1001 H 94.1235 6.20046 1.79482 0
M  V30 1002 H 94.8915 8.12239 1.01043 0
M  V30 1003 N 97.5546 -0.734337 1.39446 0
M  V30 1004 C 98.8316 -1.48579 1.27215 0
M  V30 1005 C 99.2116 -2.1077 -0.117968 0
M  V30 1006 O 98.5596 -1.98646 -1.12924 0
M  V30 1007 C 98.7696 -2.53667 2.39696 0
M  V30 1008 C 100.118 -3.20031 2.79044 0
M  V30 1009 O 101.142 -2.6398 2.39151 0
M  V30 1010 O 100.001 -4.21455 3.47905 0
M  V30 1011 H 97.0946 -0.659816 0.49857 0
M  V30 1012 H 99.6406 -0.768106 1.51322 0
M  V30 1013 H 98.4126 -2.06096 3.32626 0
M  V30 1014 H 98.0356 -3.32994 2.17258 0
M  V30 1015 N 99.0327 -1.24633 -0.964593 0
M  V30 1016 C 100.449 -1.01239 -1.2338 0
M  V30 1017 C 100.649 0.2769 -1.99588 0
M  V30 1018 O 99.7047 0.992241 -2.32187 0
M  V30 1019 C 101.018 -2.22937 -2.01791 0
M  V30 1020 C 102.566 -2.27594 -2.14872 0
M  V30 1021 C 103.041 -3.48921 -2.96678 0
M  V30 1022 N 104.532 -3.49257 -3.04259 0
M  V30 1023 C 105.267 -4.39795 -3.67924 0
M  V30 1024 N 104.763 -5.40591 -4.33281 0
M  V30 1025 N 106.556 -4.275 -3.64966 0
M  V30 1026 H 98.7067 -2.0748 -0.454502 0
M  V30 1027 H 100.97 -0.910647 -0.26349 0
M  V30 1028 H 100.676 -3.16587 -1.53184 0
M  V30 1029 H 100.55 -2.25306 -3.02518 0
M  V30 1030 H 102.937 -1.34473 -2.6268 0
M  V30 1031 H 103.018 -2.2925 -1.13482 0
M  V30 1032 H 102.662 -4.42359 -2.49562 0
M  V30 1033 H 102.592 -3.4451 -3.98272 0
M  V30 1034 H 105.083 -2.76337 -2.57771 0
M  V30 1035 H 105.396 -6.05904 -4.79687 0
M  V30 1036 H 103.741 -5.44475 -4.3194 0
M  V30 1037 H 106.932 -3.47987 -3.13086 0
M  V30 1038 H 107.105 -4.98258 -4.14298 0
M  V30 1039 N 100.511 1.16574 -1.06058 0
M  V30 1040 C 101.736 1.91493 -0.796562 0
M  V30 1041 C 102.161 1.76773 0.642868 0
M  V30 1042 O 101.519 1.09142 1.44768 0
M  V30 1043 C 101.567 3.40293 -1.19303 0
M  V30 1044 O 100.671 4.11074 -0.330394 0
M  V30 1045 H 100.012 0.596678 -0.291326 0
M  V30 1046 H 102.542 1.47708 -1.41575 0
M  V30 1047 H 102.552 3.91057 -1.16356 0
M  V30 1048 H 101.227 3.50326 -2.24153 0
M  V30 1049 H 99.8038 3.70513 -0.421225 0
M  V30 1050 N 101.989 0.842826 1.3317 0
M  V30 1051 C 103.266 0.362216 1.92217 0
M  V30 1052 C 103.646 -1.15289 1.76838 0
M  V30 1053 O 102.994 -1.96914 1.15919 0
M  V30 1054 C 103.204 0.813495 3.39387 0
M  V30 1055 C 104.552 0.823804 4.16532 0
M  V30 1056 O 105.576 0.757358 3.48055 0
M  V30 1057 O 104.435 0.915193 5.38782 0
M  V30 1058 H 101.529 0.103317 0.820521 0
M  V30 1059 H 104.075 0.928942 1.42017 0
M  V30 1060 H 102.847 1.85624 3.4447 0
M  V30 1061 H 102.47 0.223561 3.96971 0
M  V30 1062 N 103.467 -1.45747 0.599634 0
M  V30 1063 C 104.716 -2.01502 0.0893511 0
M  V30 1064 C 105.029 -1.4748 -1.28488 0
M  V30 1065 O 106.235 -1.95161 -1.88745 0
M  V30 1066 C 104.691 -3.59735 0.109082 0
M  V30 1067 C 104.299 -4.22754 1.48267 0
M  V30 1068 C 106.043 -4.23085 -0.346374 0
M  V30 1069 C 103.95 -5.73115 1.45921 0
M  V30 1070 H 102.88 -0.753417 0.0296347 0
M  V30 1071 H 105.531 -1.67303 0.753788 0
M  V30 1072 H 103.913 -3.91087 -0.621854 0
M  V30 1073 H 105.087 -4.02987 2.23468 0
M  V30 1074 H 103.402 -3.71567 1.87955 0
M  V30 1075 H 105.999 -5.33327 -0.38298 0
M  V30 1076 H 106.342 -3.93201 -1.36743 0
M  V30 1077 H 106.875 -3.9642 0.331038 0
M  V30 1078 H 103.614 -6.07685 2.45762 0
M  V30 1079 H 103.134 -5.95097 0.749665 0
M  V30 1080 H 104.813 -6.3616 1.17941 0
M  V30 1081 N 104.945 -0.338344 -1.53925 0
M  V30 1082 C 106.222 0.314774 -1.93051 0
M  V30 1083 C 106.602 1.68669 -1.26941 0
M  V30 1084 O 105.95 2.24636 -0.418445 0
M  V30 1085 C 106.16 0.392249 -3.46789 0
M  V30 1086 C 107.508 0.645554 -4.19664 0
M  V30 1087 O 108.532 0.474575 -3.53024 0
M  V30 1088 O 107.391 0.976408 -5.37707 0
M  V30 1089 H 104.485 0.182598 -0.80659 0
M  V30 1090 H 107.031 -0.389141 -1.65178 0
M  V30 1091 H 105.803 -0.570702 -3.87116 0
M  V30 1092 H 105.426 1.14316 -3.80812 0
M  V30 1093 N 106.423 1.57458 -0.0668435 0
M  V30 1094 C 107.386 2.11323 0.887422 0
M  V30 1095 C 108.386 1.03618 1.22964 0
M  V30 1096 O 109.576 1.29626 1.16373 0
M  V30 1097 C 106.708 2.61048 2.19242 0
M  V30 1098 H 107.901 2.96942 0.420194 0
M  V30 1099 H 105.454 1.55239 0.181793 0
M  V30 1100 H 106.189 1.78868 2.70512 0
M  V30 1101 H 105.974 3.39769 1.95702 0
M  V30 1102 H 107.464 3.02814 2.87565 0
M  V30 1103 N 107.901 -0.206675 1.56239 0
M  V30 1104 C 109.147 -0.930218 1.80208 0
M  V30 1105 C 109.48 -1.83387 0.638981 0
M  V30 1106 O 108.755 -1.91119 -0.361066 0
M  V30 1107 C 109.038 -1.75641 3.1436 0
M  V30 1108 C 108.891 -0.878257 4.41142 0
M  V30 1109 C 110.21 -2.73129 3.45092 0
M  V30 1110 H 107.329 -0.336742 0.655571 0
M  V30 1111 H 109.971 -0.198222 1.88963 0
M  V30 1112 H 108.121 -2.38048 3.07027 0
M  V30 1113 H 109.793 -0.269787 4.6051 0
M  V30 1114 H 108.036 -0.184385 4.33408 0
M  V30 1115 H 108.707 -1.49106 5.3148 0
M  V30 1116 H 111.183 -2.20856 3.52649 0
M  V30 1117 H 110.059 -3.28028 4.40101 0
M  V30 1118 H 110.32 -3.51606 2.68003 0
M  V30 1119 N 109.379 -1.50304 -0.473955 0
M  V30 1120 C 110.609 -1.64663 -1.24778 0
M  V30 1121 C 111.017 -0.328174 -1.86332 0
M  V30 1122 O 110.36 0.699536 -1.69859 0
M  V30 1123 C 110.422 -2.6778 -2.39863 0
M  V30 1124 C 110.086 -4.11413 -1.98969 0
M  V30 1125 C 111.083 -4.97372 -1.51385 0
M  V30 1126 C 108.768 -4.57312 -2.07777 0
M  V30 1127 C 110.762 -6.27277 -1.13148 0
M  V30 1128 C 108.449 -5.87223 -1.69152 0
M  V30 1129 C 109.447 -6.72031 -1.21915 0
M  V30 1130 O 109.135 -7.99518 -0.838237 0
M  V30 1131 H 108.867 -0.556602 -0.383627 0
M  V30 1132 H 111.421 -1.9726 -0.572491 0
M  V30 1133 H 109.651 -2.30419 -3.10554 0
M  V30 1134 H 111.34 -2.71388 -3.01833 0
M  V30 1135 H 112.106 -4.63128 -1.44004 0
M  V30 1136 H 107.985 -3.91449 -2.43493 0
M  V30 1137 H 111.529 -6.93425 -0.762077 0
M  V30 1138 H 107.426 -6.20989 -1.76191 0
M  V30 1139 H 108.194 -8.12764 -0.967339 0
M  V30 1140 N 110.857 0.726932 -1.39834 0
M  V30 1141 C 112.103 1.48884 -1.377 0
M  V30 1142 C 112.436 1.94185 0.0244852 0
M  V30 1143 O 111.711 1.67361 0.990986 0
M  V30 1144 C 111.994 2.72288 -2.3565 0
M  V30 1145 C 111.847 2.32956 -3.84775 0
M  V30 1146 C 113.166 3.74414 -2.31306 0
M  V30 1147 H 110.285 0.540062 -0.5015 0
M  V30 1148 H 112.927 0.830547 -1.70886 0
M  V30 1149 H 111.077 3.28457 -2.07481 0
M  V30 1150 H 112.749 1.82356 -4.23726 0
M  V30 1151 H 110.992 1.65088 -4.01159 0
M  V30 1152 H 111.663 3.21362 -4.4881 0
M  V30 1153 H 114.139 3.27849 -2.56231 0
M  V30 1154 H 113.015 4.58414 -3.01907 0
M  V30 1155 H 113.276 4.21909 -1.32081 0
M  V30 1156 N 112.336 1.25143 0.95797 0
M  V30 1157 C 113.564 1.12424 1.73691 0
M  V30 1158 C 113.979 -0.322304 1.86029 0
M  V30 1159 O 113.336 -1.22186 1.35561 0
M  V30 1160 C 113.387 1.76933 3.15241 0
M  V30 1161 O 113.108 3.15932 3.03511 0
M  V30 1162 C 114.609 1.6995 4.09429 0
M  V30 1163 H 111.829 0.3923 0.544373 0
M  V30 1164 H 114.373 1.6544 1.20207 0
M  V30 1165 H 112.528 1.27895 3.6568 0
M  V30 1166 H 112.942 3.47598 3.9278 0
M  V30 1167 H 114.416 2.19753 5.06372 0
M  V30 1168 H 114.893 0.662619 4.34173 0
M  V30 1169 H 115.499 2.18461 3.64904 0
M  V30 1170 N 113.814 -1.1601 1.06675 0
M  V30 1171 C 115.042 -1.90527 0.806667 0
M  V30 1172 C 115.457 -1.77643 -0.639396 0
M  V30 1173 O 114.814 -1.12369 -1.43803 0
M  V30 1174 C 114.865 -3.41106 1.19705 0
M  V30 1175 O 114.586 -3.53608 2.58636 0
M  V30 1176 C 116.087 -4.32663 0.965266 0
M  V30 1177 H 113.307 -0.604053 0.292166 0
M  V30 1178 H 115.851 -1.47026 1.4214 0
M  V30 1179 H 114.006 -3.82296 0.626774 0
M  V30 1180 H 114.42 -4.47011 2.74375 0
M  V30 1181 H 115.894 -5.36763 1.288 0
M  V30 1182 H 116.371 -4.39089 -0.0987936 0
M  V30 1183 H 116.977 -3.97206 1.52011 0
M  V30 1184 N 115.292 -0.849877 -1.32721 0
M  V30 1185 C 116.24 -0.279745 -2.30912 0
M  V30 1186 C 117.234 0.594278 -1.58634 0
M  V30 1187 O 118.44 0.482613 -1.73409 0
M  V30 1188 H 114.815 -0.0717521 -0.748569 0
M  V30 1189 H 116.786 -1.12222 -2.76494 0
M  V30 1190 C 115.535 0.521108 -3.43773 0
M  V30 1191 H 114.858 -0.142141 -3.99547 0
M  V30 1192 H 116.298 0.885693 -4.14646 0
M  V30 1193 C 114.757 1.70442 -2.90605 0
M  V30 1194 O 115.287 2.8034 -2.87702 0
M  V30 1195 N 113.493 1.52991 -2.47067 0
M  V30 1196 H 113.04 0.635914 -2.49628 0
M  V30 1197 H 112.998 2.32311 -2.11847 0
M  V30 1198 N 116.77 1.45427 -0.607355 0
M  V30 1199 C 118.018 2.01841 -0.102253 0
M  V30 1200 C 118.339 1.47832 1.27164 0
M  V30 1201 O 117.609 0.672497 1.83995 0
M  V30 1202 H 116.189 0.746188 -0.0348101 0
M  V30 1203 H 118.851 1.78229 -0.7887 0
M  V30 1204 H 117.947 3.12057 -0.0518585 0
M  V30 1205 N 118.248 0.346503 1.53744 0
M  V30 1206 C 119.497 -0.250122 2.00143 0
M  V30 1207 C 119.81 -1.51418 1.23822 0
M  V30 1208 O 121.016 -2.18823 1.60713 0
M  V30 1209 C 119.472 -0.496252 3.56462 0
M  V30 1210 C 119.08 0.752077 4.41642 0
M  V30 1211 C 120.824 -1.05157 4.11269 0
M  V30 1212 C 118.731 0.476583 5.89477 0
M  V30 1213 H 117.661 -0.0972409 0.747703 0
M  V30 1214 H 120.312 0.46229 1.77581 0
M  V30 1215 H 118.694 -1.26944 3.75102 0
M  V30 1216 H 119.868 1.5266 4.34778 0
M  V30 1217 H 118.183 1.22925 3.97842 0
M  V30 1218 H 120.78 -1.27269 5.19333 0
M  V30 1219 H 121.123 -2.00799 3.64672 0
M  V30 1220 H 121.656 -0.339019 3.96353 0
M  V30 1221 H 118.395 1.4028 6.40314 0
M  V30 1222 H 117.915 -0.259794 5.99237 0
M  V30 1223 H 119.594 0.0949315 6.4693 0
M  V30 1224 N 119.726 -1.57421 0.075193 0
M  V30 1225 C 120.975 -1.92794 -0.592731 0
M  V30 1226 C 121.288 -0.957478 -1.70563 0
M  V30 1227 O 122.494 -1.20417 -2.43335 0
M  V30 1228 C 120.95 -3.42495 -1.10569 0
M  V30 1229 C 120.558 -4.47994 -0.0236121 0
M  V30 1230 C 122.302 -3.86864 -1.74748 0
M  V30 1231 C 120.209 -5.88829 -0.550803 0
M  V30 1232 H 119.139 -0.719591 -0.225177 0
M  V30 1233 H 121.79 -1.82902 0.147978 0
M  V30 1234 H 120.172 -3.47471 -1.89947 0
M  V30 1235 H 121.346 -4.54637 0.751099 0
M  V30 1236 H 119.661 -4.13113 0.522159 0
M  V30 1237 H 122.258 -4.8947 -2.15229 0
M  V30 1238 H 122.601 -3.24417 -2.60882 0
M  V30 1239 H 123.134 -3.84504 -1.01986 0
M  V30 1240 H 119.873 -6.54929 0.273457 0
M  V30 1241 H 119.393 -5.85698 -1.29296 0
M  V30 1242 H 121.072 -6.38811 -1.02613 0
M  V30 1243 N 121.204 0.198386 -1.56346 0
M  V30 1244 C 122.167 1.22952 -1.93431 0
M  V30 1245 C 123.167 1.38611 -0.815092 0
M  V30 1246 O 124.357 1.36479 -1.08255 0
M  V30 1247 C 121.489 2.59946 -2.20546 0
M  V30 1248 H 122.682 0.912626 -2.85677 0
M  V30 1249 H 120.235 0.43977 -1.49986 0
M  V30 1250 H 120.97 2.96696 -1.30927 0
M  V30 1251 H 120.755 2.49953 -3.02102 0
M  V30 1252 H 122.245 3.3431 -2.50253 0
M  V30 1253 N 122.682 1.50554 0.465978 0
M  V30 1254 C 123.91 1.65563 1.24083 0
M  V30 1255 C 124.325 0.341051 1.85694 0
M  V30 1256 O 123.682 -0.677543 1.69457 0
M  V30 1257 C 123.733 2.75051 2.34583 0
M  V30 1258 O 123.454 4.01413 1.75497 0
M  V30 1259 C 124.955 3.01078 3.25372 0
M  V30 1260 H 122.175 0.55638 0.375077 0
M  V30 1261 H 124.719 1.96807 0.555624 0
M  V30 1262 H 122.874 2.46486 2.9887 0
M  V30 1263 H 123.288 4.62002 2.48303 0
M  V30 1264 H 124.762 3.81339 3.99105 0
M  V30 1265 H 125.239 2.12349 3.84453 0
M  V30 1266 H 125.845 3.31194 2.66816 0
M  V30 1267 N 124.16 -0.719506 1.40217 0
M  V30 1268 C 125.385 -1.51371 1.4178 0
M  V30 1269 C 125.81 -1.88091 0.0182355 0
M  V30 1270 O 125.168 -1.52997 -0.972707 0
M  V30 1271 C 125.216 -2.768 2.31115 0
M  V30 1272 O 124.32 -3.73349 1.7517 0
M  V30 1273 H 123.661 -0.456529 0.482159 0
M  V30 1274 H 126.191 -0.88644 1.844 0
M  V30 1275 H 126.201 -3.25371 2.46167 0
M  V30 1276 H 124.876 -2.49407 3.3282 0
M  V30 1277 H 123.453 -3.32179 1.69444 0
M  V30 1278 N 125.638 -1.25649 -0.95132 0
M  V30 1279 C 126.548 -1.08073 -2.08224 0
M  V30 1280 C 127.564 -0.0169666 -1.73992 0
M  V30 1281 O 128.74 -0.218593 -2.0021 0
M  V30 1282 C 125.805 -0.704922 -3.39458 0
M  V30 1283 C 124.866 -1.84699 -3.87537 0
M  V30 1284 C 124.099 -1.48902 -5.12508 0
M  V30 1285 O 124.322 -0.386156 -5.69091 0
M  V30 1286 O 123.256 -2.32033 -5.55378 0
M  V30 1287 H 127.082 -2.02924 -2.25954 0
M  V30 1288 H 124.667 -1.04618 -1.06656 0
M  V30 1289 H 126.549 -0.507609 -4.18332 0
M  V30 1290 H 125.224 0.214291 -3.2299 0
M  V30 1291 H 124.131 -2.09919 -3.09653 0
M  V30 1292 H 125.464 -2.74557 -4.08509 0
M  V30 1293 N 127.117 1.15442 -1.07289 0
M  V30 1294 C 128.528 1.67803 -0.818475 0
M  V30 1295 C 128.879 1.8489 0.656507 0
M  V30 1296 O 128.004 1.55176 1.50829 0
M  V30 1297 C 128.599 3.04805 -1.47917 0
M  V30 1298 C 127.158 3.54245 -1.27229 0
M  V30 1299 C 126.305 2.29986 -1.54925 0
M  V30 1300 H 129.256 0.996646 -1.23502 0
M  V30 1301 H 129.277 3.69702 -0.90005 0
M  V30 1302 H 128.789 2.92336 -2.55267 0
M  V30 1303 H 126.89 3.71956 -0.21899 0
M  V30 1304 H 127.003 4.35723 -1.99203 0
M  V30 1305 H 125.367 2.35496 -0.970242 0
M  V30 1306 H 126.15 2.20105 -2.63455 0
M  V30 1307 N 128.595 0.856903 1.32268 0
M  V30 1308 C 130.006 0.515711 1.79436 0
M  V30 1309 C 130.357 -0.966586 1.70738 0
M  V30 1310 O 129.482 -1.75409 1.26731 0
M  V30 1311 C 130.077 0.929335 3.25805 0
M  V30 1312 C 128.636 0.640006 3.70919 0
M  V30 1313 C 127.783 1.12784 2.53328 0
M  V30 1314 H 130.734 1.04389 1.19535 0
M  V30 1315 H 130.755 0.246633 3.797 0
M  V30 1316 H 130.267 2.00821 3.32103 0
M  V30 1317 H 128.368 -0.428051 3.70133 0
M  V30 1318 H 128.481 1.20788 4.63624 0
M  V30 1319 H 126.845 0.548033 2.48734 0
M  V30 1320 H 127.628 2.21387 2.62379 0
M  V30 1321 N 130.073 -1.45103 0.615059 0
M  V30 1322 C 131.036 -2.29025 -0.0895485 0
M  V30 1323 C 132.036 -1.40174 -0.787906 0
M  V30 1324 O 133.226 -1.62217 -0.634933 0
M  V30 1325 C 130.358 -3.21376 -1.13711 0
M  V30 1326 H 131.551 -2.92807 0.648382 0
M  V30 1327 H 129.104 -1.51749 0.374444 0
M  V30 1328 H 129.839 -2.6241 -1.90556 0
M  V30 1329 H 129.624 -3.86834 -0.640475 0
M  V30 1330 H 131.114 -3.84459 -1.63036 0
M  V30 1331 N 131.551 -0.354651 -1.53558 0
M  V30 1332 C 132.498 0.496968 -2.25386 0
M  V30 1333 C 133.468 1.0865 -1.25636 0
M  V30 1334 O 134.653 1.12104 -1.54394 0
M  V30 1335 C 131.793 1.63637 -3.03837 0
M  V30 1336 C 130.906 1.07307 -4.18461 0
M  V30 1337 C 130.041 2.18068 -4.84376 0
M  V30 1338 C 129.08 1.59147 -5.91049 0
M  V30 1339 N 128.217 2.63695 -6.50699 0
M  V30 1340 H 133.057 -0.122075 -2.9775 0
M  V30 1341 H 130.594 -0.0720154 -1.46924 0
M  V30 1342 H 132.552 2.30734 -3.47589 0
M  V30 1343 H 131.182 2.22623 -2.33749 0
M  V30 1344 H 130.234 0.292708 -3.79272 0
M  V30 1345 H 131.546 0.602193 -4.95152 0
M  V30 1346 H 130.7 2.93007 -5.31255 0
M  V30 1347 H 129.439 2.68504 -4.07133 0
M  V30 1348 H 128.444 0.827175 -5.43542 0
M  V30 1349 H 129.669 1.09549 -6.70206 0
M  V30 1350 H 127.615 3.13365 -5.76315 0
M  V30 1351 H 127.532 2.21263 -7.22896 0
M  V30 1352 H 128.8 3.3837 -7.02229 0
M  V30 1353 N 133.029 1.57378 -0.0835403 0
M  V30 1354 C 133.939 2.16897 0.894021 0
M  V30 1355 C 134.955 1.13528 1.31861 0
M  V30 1356 O 136.131 1.45848 1.3889 0
M  V30 1357 C 133.196 2.72831 2.13925 0
M  V30 1358 C 132.257 3.91115 1.76997 0
M  V30 1359 C 131.49 4.44371 2.95584 0
M  V30 1360 O 131.713 3.96596 4.09961 0
M  V30 1361 O 130.647 5.35549 2.74719 0
M  V30 1362 H 134.473 3.00814 0.417679 0
M  V30 1363 H 132.058 1.48741 0.140181 0
M  V30 1364 H 133.94 3.0863 2.86924 0
M  V30 1365 H 132.615 1.91967 2.60635 0
M  V30 1366 H 131.522 3.60148 1.01214 0
M  V30 1367 H 132.855 4.73307 1.3506 0
M  V30 1368 N 134.507 -0.190092 1.56449 0
M  V30 1369 C 135.732 -0.929864 1.85387 0
M  V30 1370 C 136.157 -1.7585 0.667704 0
M  V30 1371 O 135.515 -1.77198 -0.383459 0
M  V30 1372 C 135.563 -1.79773 3.12593 0
M  V30 1373 O 134.667 -2.89713 2.93496 0
M  V30 1374 H 134.008 -0.261574 0.610307 0
M  V30 1375 H 136.538 -0.193896 2.03679 0
M  V30 1376 H 136.548 -2.20139 3.43515 0
M  V30 1377 H 135.223 -1.18892 3.98544 0
M  V30 1378 H 133.8 -2.53065 2.73884 0
M  V30 1379 N 135.985 -1.50799 -0.457987 0
M  V30 1380 C 136.935 -1.67003 -1.55222 0
M  V30 1381 C 137.919 -0.52434 -1.52117 0
M  V30 1382 O 139.111 -0.779345 -1.58919 0
M  V30 1383 C 136.24 -1.77956 -2.93576 0
M  V30 1384 C 135.326 -2.98243 -3.01516 0
M  V30 1385 N 135.717 -4.21732 -2.79241 0
M  V30 1386 C 134.015 -2.97072 -3.32662 0
M  V30 1387 C 134.716 -5.02817 -2.92489 0
M  V30 1388 N 133.692 -4.37038 -3.23262 0
M  V30 1389 H 137.494 -2.60163 -1.36721 0
M  V30 1390 H 135.008 -1.48163 -0.664952 0
M  V30 1391 H 137.005 -1.87671 -3.72271 0
M  V30 1392 H 135.665 -0.859634 -3.13114 0
M  V30 1393 H 136.676 -4.51016 -2.54567 0
M  V30 1394 H 133.353 -2.14631 -3.58106 0
M  V30 1395 H 134.743 -6.11054 -2.79396 0
M  V30 1396 N 137.463 0.71206 -1.40597 0
M  V30 1397 C 138.874 1.29135 -1.34837 0
M  V30 1398 C 139.225 1.96186 -0.0235395 0
M  V30 1399 O 138.35 1.97768 0.878444 0
M  V30 1400 C 138.945 2.34827 -2.44217 0
M  V30 1401 C 137.504 2.88371 -2.41907 0
M  V30 1402 C 136.651 1.62202 -2.24913 0
M  V30 1403 H 139.602 0.507944 -1.50352 0
M  V30 1404 H 139.623 3.15749 -2.12327 0
M  V30 1405 H 139.135 1.85996 -3.40627 0
M  V30 1406 H 137.236 3.41422 -1.49204 0
M  V30 1407 H 137.349 3.39925 -3.37621 0
M  V30 1408 H 135.713 1.874 -1.72492 0
M  V30 1409 H 136.496 1.15391 -3.23326 0
M  V30 1410 N 138.941 1.26152 0.944643 0
M  V30 1411 C 140.189 1.11271 1.6871 0
M  V30 1412 C 140.51 -0.345166 1.91921 0
M  V30 1413 O 139.78 -1.24387 1.51343 0
M  V30 1414 H 138.36 0.408783 0.625224 0
M  V30 1415 H 141.022 1.58427 1.1352 0
M  V30 1416 H 140.118 1.62879 2.66227 0
M  V30 1417 N 140.419 -1.14872 1.07899 0
M  V30 1418 C 141.349 -2.2193 0.725887 0
M  V30 1419 C 142.33 -1.67622 -0.28927 0
M  V30 1420 O 143.515 -1.93533 -0.160787 0
M  V30 1421 C 140.645 -3.47061 0.128856 0
M  V30 1422 C 139.599 -4.14363 1.07178 0
M  V30 1423 C 138.925 -5.33636 0.337229 0
M  V30 1424 C 140.225 -4.63492 2.40775 0
M  V30 1425 H 141.919 -2.51724 1.62097 0
M  V30 1426 H 139.465 -1.20991 0.780838 0
M  V30 1427 H 141.418 -4.21199 -0.130147 0
M  V30 1428 H 140.142 -3.16617 -0.80134 0
M  V30 1429 H 138.801 -3.42173 1.3158 0
M  V30 1430 H 138.449 -4.99449 -0.596606 0
M  V30 1431 H 138.149 -5.79609 0.965788 0
M  V30 1432 H 139.673 -6.10539 0.0861567 0
M  V30 1433 H 141.087 -5.2913 2.20669 0
M  V30 1434 H 139.484 -5.20148 2.99276 0
M  V30 1435 H 140.554 -3.78834 3.02676 0
M  V30 1436 N 141.898 -0.863906 -1.31812 0
M  V30 1437 C 143.145 -0.471836 -1.96926 0
M  V30 1438 C 143.473 0.974578 -1.68322 0
M  V30 1439 O 142.728 1.7003 -0.968933 0
M  V30 1440 C 143.027 -0.668547 -3.51091 0
M  V30 1441 C 142.693 -2.08683 -3.99703 0
M  V30 1442 C 141.355 -2.47471 -4.12688 0
M  V30 1443 C 143.707 -3.01207 -4.25351 0
M  V30 1444 C 141.035 -3.78037 -4.4867 0
M  V30 1445 C 143.387 -4.31282 -4.62794 0
M  V30 1446 C 142.051 -4.69992 -4.73987 0
M  V30 1447 H 141.321 -0.172657 -0.720604 0
M  V30 1448 H 143.968 -1.09573 -1.57054 0
M  V30 1449 H 142.273 0.0385252 -3.91781 0
M  V30 1450 H 143.97 -0.345102 -3.99512 0
M  V30 1451 H 140.56 -1.77566 -3.90087 0
M  V30 1452 H 144.744 -2.72469 -4.14819 0
M  V30 1453 H 140 -4.078 -4.55532 0
M  V30 1454 H 144.174 -5.03031 -4.81594 0
M  V30 1455 H 141.801 -5.71207 -5.01624 0
M  V30 1456 N 143.376 1.44774 -0.622745 0
M  V30 1457 C 144.787 1.85546 -0.207226 0
M  V30 1458 C 145.138 1.52093 1.23944 0
M  V30 1459 O 144.263 0.95492 1.94191 0
M  V30 1460 C 144.858 3.36781 -0.369313 0
M  V30 1461 C 143.417 3.76399 -0.00836847 0
M  V30 1462 C 142.564 2.68664 -0.686651 0
M  V30 1463 H 145.515 1.3536 -0.828454 0
M  V30 1464 H 145.536 3.78453 0.394162 0
M  V30 1465 H 145.048 3.61098 -1.42231 0
M  V30 1466 H 143.149 3.57698 1.04322 0
M  V30 1467 H 143.262 4.7732 -0.412584 0
M  V30 1468 H 141.626 2.54404 -0.122777 0
M  V30 1469 H 142.409 2.95815 -1.74208 0
M  V30 1470 N 144.854 0.36279 1.53368 0
M  V30 1471 C 146.265 -0.117022 1.86333 0
M  V30 1472 C 146.616 -1.48397 1.28347 0
M  V30 1473 O 145.741 -2.07787 0.604428 0
M  V30 1474 C 146.336 -0.21912 3.38091 0
M  V30 1475 C 144.895 -0.643184 3.70864 0
M  V30 1476 C 144.042 0.211318 2.76494 0
M  V30 1477 H 146.993 0.581687 1.47655 0
M  V30 1478 H 147.014 -1.04319 3.6592 0
M  V30 1479 H 146.526 0.775902 3.80265 0
M  V30 1480 H 144.627 -1.64654 3.34245 0
M  V30 1481 H 144.74 -0.41973 4.77258 0
M  V30 1482 H 143.104 -0.319367 2.5269 0
M  V30 1483 H 143.887 1.20383 3.21501 0
M  V30 1484 N 146.332 -1.57332 0.0918853 0
M  V30 1485 C 147.56 -1.98574 -0.581048 0
M  V30 1486 C 147.975 -0.970903 -1.61923 0
M  V30 1487 O 147.332 0.0399054 -1.82456 0
M  V30 1488 C 147.383 -3.39872 -1.23164 0
M  V30 1489 O 147.104 -4.37469 -0.234989 0
M  V30 1490 C 148.605 -3.96099 -1.99049 0
M  V30 1491 H 145.825 -0.65261 -0.156018 0
M  V30 1492 H 148.369 -2.0379 0.170225 0
M  V30 1493 H 146.524 -3.35679 -1.93386 0
M  V30 1494 H 146.938 -5.19751 -0.70418 0
M  V30 1495 H 148.412 -4.97127 -2.39934 0
M  V30 1496 H 148.889 -3.3374 -2.85507 0
M  V30 1497 H 149.495 -4.03755 -1.3365 0
M  V30 1498 N 147.81 0.181792 -1.56548 0
M  V30 1499 C 149.057 0.900097 -1.81396 0
M  V30 1500 C 149.385 1.82695 -0.667281 0
M  V30 1501 O 148.64 1.92614 0.346146 0
M  V30 1502 C 148.939 1.73728 -3.12335 0
M  V30 1503 C 148.605 0.960255 -4.40556 0
M  V30 1504 C 147.267 0.745766 -4.75386 0
M  V30 1505 C 149.619 0.414477 -5.19549 0
M  V30 1506 C 146.947 -0.0257694 -5.86694 0
M  V30 1507 C 149.299 -0.343916 -6.31664 0
M  V30 1508 C 147.963 -0.569301 -6.65068 0
M  V30 1509 H 147.233 0.329369 -0.663775 0
M  V30 1510 H 149.88 0.165647 -1.90782 0
M  V30 1511 H 148.185 2.54081 -2.98245 0
M  V30 1512 H 149.882 2.29591 -3.28769 0
M  V30 1513 H 146.472 1.13746 -4.13231 0
M  V30 1514 H 150.656 0.567554 -4.93044 0
M  V30 1515 H 145.912 -0.210233 -6.11038 0
M  V30 1516 H 150.086 -0.774133 -6.92084 0
M  V30 1517 H 147.713 -1.16903 -7.51158 0
M  V30 1518 N 149.288 1.51039 0.449983 0
M  V30 1519 C 150.536 1.62759 1.19808 0
M  V30 1520 C 150.857 0.339981 1.92013 0
M  V30 1521 O 150.127 -0.643606 1.85026 0
M  V30 1522 H 148.707 0.599811 0.445237 0
M  V30 1523 H 151.369 1.87914 0.517138 0
M  V30 1524 H 150.465 2.44911 1.93455 0
M  V30 1525 N 150.766 -0.704594 1.40972 0
M  V30 1526 C 151.729 -1.80035 1.41845 0
M  V30 1527 C 152.729 -1.57774 0.310474 0
M  V30 1528 O 153.919 -1.64613 0.56992 0
M  V30 1529 C 151.051 -3.18284 1.22098 0
M  V30 1530 H 152.244 -1.80658 2.3938 0
M  V30 1531 H 149.797 -0.911329 1.26982 0
M  V30 1532 H 150.532 -3.23306 0.253672 0
M  V30 1533 H 150.317 -3.35843 2.02366 0
M  V30 1534 H 151.807 -3.98289 1.25522 0
M  V30 1535 N 152.244 -1.26651 -0.937939 0
M  V30 1536 C 153.49 -1.12553 -1.687 0
M  V30 1537 C 153.823 0.329782 -1.91379 0
M  V30 1538 O 153.098 1.24202 -1.4968 0
M  V30 1539 C 153.381 -1.89862 -3.05981 0
M  V30 1540 C 153.234 -3.43318 -2.90607 0
M  V30 1541 C 154.553 -1.69499 -4.0615 0
M  V30 1542 H 151.672 -0.410257 -0.612257 0
M  V30 1543 H 154.314 -1.55685 -1.08913 0
M  V30 1544 H 152.464 -1.53204 -3.57017 0
M  V30 1545 H 154.136 -3.89747 -2.46769 0
M  V30 1546 H 152.379 -3.70179 -2.26164 0
M  V30 1547 H 153.05 -3.92642 -3.8799 0
M  V30 1548 H 155.526 -2.01442 -3.64088 0
M  V30 1549 H 154.402 -2.26002 -5.00214 0
M  V30 1550 H 154.663 -0.640365 -4.37438 0
M  V30 1551 N 153.722 1.14298 -1.08507 0
M  V30 1552 C 154.685 2.17607 -0.719711 0
M  V30 1553 C 155.685 1.58907 0.245997 0
M  V30 1554 O 156.875 1.74181 0.0254081 0
M  V30 1555 C 154.007 3.40842 -0.0627695 0
M  V30 1556 H 155.2 2.51443 -1.63452 0
M  V30 1557 H 152.753 1.28963 -0.88307 0
M  V30 1558 H 153.488 3.12587 0.863716 0
M  V30 1559 H 153.273 3.84713 -0.757504 0
M  V30 1560 H 154.763 4.17221 0.177786 0
M  V30 1561 N 155.201 0.870884 1.31352 0
M  V30 1562 C 156.612 0.534714 1.78879 0
M  V30 1563 C 156.963 -0.948423 1.71754 0
M  V30 1564 O 156.088 -1.74055 1.28584 0
M  V30 1565 C 156.683 0.963839 3.24801 0
M  V30 1566 C 155.242 0.679311 3.70219 0
M  V30 1567 C 154.389 1.15465 2.52117 0
M  V30 1568 H 157.34 1.05651 1.18421 0
M  V30 1569 H 157.361 0.286892 3.79417 0
M  V30 1570 H 156.873 2.04332 3.29955 0
M  V30 1571 H 154.974 -0.388769 3.70566 0
M  V30 1572 H 155.087 1.25698 4.62317 0
M  V30 1573 H 153.451 0.574383 2.48139 0
M  V30 1574 H 154.234 2.24157 2.60016 0
M  V30 1575 N 156.679 -1.44442 0.630414 0
M  V30 1576 C 157.926 -2.02052 0.134617 0
M  V30 1577 C 158.254 -1.49576 -1.24327 0
M  V30 1578 O 157.509 -0.669806 -1.83881 0
M  V30 1579 C 157.808 -3.57332 0.0697835 0
M  V30 1580 C 157.474 -4.29058 1.38635 0
M  V30 1581 C 156.136 -4.4837 1.74694 0
M  V30 1582 C 158.488 -4.69872 2.25543 0
M  V30 1583 C 155.816 -5.05756 2.97369 0
M  V30 1584 C 158.168 -5.28616 3.47487 0
M  V30 1585 C 156.832 -5.46147 3.8377 0
M  V30 1586 H 156.102 -0.739361 0.0492598 0
M  V30 1587 H 158.749 -1.73217 0.816586 0
M  V30 1588 H 157.054 -3.85577 -0.695553 0
M  V30 1589 H 158.751 -3.99637 -0.330344 0
M  V30 1590 H 155.341 -4.14357 1.09574 0
M  V30 1591 H 159.525 -4.54666 1.98979 0
M  V30 1592 H 154.781 -5.17515 3.25558 0
M  V30 1593 H 158.955 -5.59192 4.15063 0
M  V30 1594 H 156.582 -5.9038 4.7891 0
M  V30 1595 N 158.157 -0.370918 -1.53173 0
M  V30 1596 C 159.087 0.464847 -2.28826 0
M  V30 1597 C 160.068 1.07936 -1.31468 0
M  V30 1598 O 161.253 1.0956 -1.60344 0
M  V30 1599 C 158.383 1.60196 -3.08147 0
M  V30 1600 C 157.337 1.11443 -4.13237 0
M  V30 1601 C 156.663 2.3422 -4.80672 0
M  V30 1602 C 157.963 0.195384 -5.21934 0
M  V30 1603 H 159.657 -0.166329 -2.98938 0
M  V30 1604 H 157.203 -0.0814359 -1.4377 0
M  V30 1605 H 159.156 2.19332 -3.59822 0
M  V30 1606 H 157.88 2.26045 -2.35735 0
M  V30 1607 H 156.539 0.545727 -3.62515 0
M  V30 1608 H 156.187 2.98537 -4.04827 0
M  V30 1609 H 155.887 2.02269 -5.51689 0
M  V30 1610 H 157.411 2.94032 -5.35143 0
M  V30 1611 H 158.825 0.694375 -5.69079 0
M  V30 1612 H 157.222 -0.0335027 -6.00091 0
M  V30 1613 H 158.292 -0.760961 -4.78892 0
M  V30 1614 N 159.635 1.57281 -0.100228 0
M  V30 1615 C 160.598 2.13158 0.842398 0
M  V30 1616 C 161.598 1.06202 1.20738 0
M  V30 1617 O 162.788 1.32066 1.13597 0
M  V30 1618 C 159.92 2.65639 2.13655 0
M  V30 1619 H 161.113 2.97766 0.357114 0
M  V30 1620 H 158.666 1.5559 0.148823 0
M  V30 1621 H 159.401 1.84566 2.66657 0
M  V30 1622 H 159.186 3.43844 1.88451 0
M  V30 1623 H 160.676 3.08846 2.81077 0
M  V30 1624 N 161.113 -0.173488 1.56642 0
M  V30 1625 C 162.39 -0.917617 1.7274 0
M  V30 1626 C 162.77 -2.00484 0.661027 0
M  V30 1627 O 162.118 -2.26184 -0.32453 0
M  V30 1628 C 162.328 -1.48433 3.15862 0
M  V30 1629 C 163.676 -1.95809 3.76754 0
M  V30 1630 O 164.7 -1.58231 3.19126 0
M  V30 1631 O 163.559 -2.65024 4.77938 0
M  V30 1632 H 160.653 -0.431772 0.705338 0
M  V30 1633 H 163.199 -0.161487 1.6893 0
M  V30 1634 H 161.971 -0.701715 3.84957 0
M  V30 1635 H 161.594 -2.30471 3.23989 0
M  V30 1636 N 162.591 -1.51276 -0.441967 0
M  V30 1637 C 163.521 -1.752 -1.54361 0
M  V30 1638 C 164.502 -0.601682 -1.59103 0
M  V30 1639 O 165.687 -0.843913 -1.74905 0
M  V30 1640 C 162.817 -1.87282 -2.92477 0
M  V30 1641 C 161.771 -3.02687 -3.02596 0
M  V30 1642 C 161.097 -2.99947 -4.42647 0
M  V30 1643 C 162.397 -4.4273 -2.77106 0
M  V30 1644 H 164.091 -2.67442 -1.34592 0
M  V30 1645 H 161.637 -1.28694 -0.646048 0
M  V30 1646 H 163.59 -2.02602 -3.695 0
M  V30 1647 H 162.314 -0.916844 -3.13467 0
M  V30 1648 H 160.973 -2.87065 -2.28012 0
M  V30 1649 H 160.621 -2.02136 -4.60597 0
M  V30 1650 H 160.321 -3.77439 -4.50348 0
M  V30 1651 H 161.845 -3.17354 -5.2165 0
M  V30 1652 H 163.259 -4.58727 -3.43864 0
M  V30 1653 H 161.656 -5.21893 -2.96222 0
M  V30 1654 H 162.726 -4.53087 -1.72744 0
M  V30 1655 N 164.069 0.697108 -1.41344 0
M  V30 1656 C 165.346 1.45154 -1.31109 0
M  V30 1657 C 165.726 2.11009 0.0620449 0
M  V30 1658 O 165.074 2.01571 1.07618 0
M  V30 1659 C 165.284 2.47223 -2.46337 0
M  V30 1660 C 166.632 3.1252 -2.87431 0
M  V30 1661 O 167.656 2.57547 -2.46065 0
M  V30 1662 O 166.515 4.12083 -3.58957 0
M  V30 1663 H 163.609 0.646365 -0.515889 0
M  V30 1664 H 166.155 0.727716 -1.53305 0
M  V30 1665 H 164.927 1.97204 -3.37974 0
M  V30 1666 H 164.55 3.27116 -2.2601 0
M  V30 1667 N 165.547 1.27147 0.931209 0
M  V30 1668 C 166.775 1.16082 1.71267 0
M  V30 1669 C 167.19 -0.282772 1.8667 0
M  V30 1670 O 166.547 -1.19283 1.38122 0
M  V30 1671 C 166.598 1.8358 3.11417 0
M  V30 1672 O 166.319 3.22299 2.96741 0
M  V30 1673 C 167.82 1.78597 4.05732 0
M  V30 1674 H 165.04 0.403758 0.535929 0
M  V30 1675 H 167.584 1.67953 1.16671 0
M  V30 1676 H 165.739 1.35623 3.62885 0
M  V30 1677 H 166.153 3.55851 3.85319 0
M  V30 1678 H 167.627 2.30444 5.01597 0
M  V30 1679 H 168.104 0.754564 4.3267 0
M  V30 1680 H 168.71 2.26152 3.60188 0
M  V30 1681 N 167.025 -1.13721 1.09112 0
M  V30 1682 C 168.253 -1.88773 0.846899 0
M  V30 1683 C 168.668 -1.7896 -0.601572 0
M  V30 1684 O 168.025 -1.15394 -1.41388 0
M  V30 1685 C 168.076 -3.3849 1.26913 0
M  V30 1686 O 167.797 -3.48043 2.66079 0
M  V30 1687 C 169.298 -4.30518 1.05682 0
M  V30 1688 H 166.518 -0.59772 0.304914 0
M  V30 1689 H 169.062 -1.43977 1.45227 0
M  V30 1690 H 167.217 -3.80881 0.707723 0
M  V30 1691 H 167.631 -4.4109 2.83795 0
M  V30 1692 H 169.105 -5.3391 1.40156 0
M  V30 1693 H 169.582 -4.392 -0.00563416 0
M  V30 1694 H 170.188 -3.93893 1.60402 0
M  V30 1695 N 168.503 -0.877838 -1.30888 0
M  V30 1696 C 169.78 -0.413052 -1.91189 0
M  V30 1697 C 170.16 1.1056 -1.79832 0
M  V30 1698 O 169.508 1.93771 -1.21099 0
M  V30 1699 C 169.718 -0.903191 -3.3711 0
M  V30 1700 C 171.066 -0.93395 -4.14201 0
M  V30 1701 O 172.09 -0.849373 -3.45925 0
M  V30 1702 O 170.949 -1.05772 -5.36167 0
M  V30 1703 H 168.043 -0.125035 -0.817493 0
M  V30 1704 H 170.589 -0.966269 -1.39504 0
M  V30 1705 H 169.361 -1.94692 -3.39427 0
M  V30 1706 H 168.984 -0.328732 -3.96239 0
M  V30 1707 N 169.982 1.44106 -0.638065 0
M  V30 1708 C 171.23 2.01579 -0.145043 0
M  V30 1709 C 171.551 1.50496 1.24 0
M  V30 1710 O 170.821 0.711374 1.82527 0
M  V30 1711 H 169.401 0.745282 -0.05063 0
M  V30 1712 H 172.063 1.76516 -0.826327 0
M  V30 1713 H 171.159 3.11877 -0.118039 0
M  V30 1714 N 171.46 0.379036 1.52974 0
M  V30 1715 C 172.39 -0.452706 2.29069 0
M  V30 1716 C 173.371 -1.07237 1.32039 0
M  V30 1717 O 174.556 -1.08708 1.60923 0
M  V30 1718 C 171.686 -1.5856 3.08992 0
M  V30 1719 C 170.64 -1.0925 4.13822 0
M  V30 1720 C 169.966 -2.31668 4.81907 0
M  V30 1721 C 171.266 -0.167702 5.22031 0
M  V30 1722 H 172.96 0.182181 2.98845 0
M  V30 1723 H 170.506 0.0890592 1.43724 0
M  V30 1724 H 172.459 -2.1742 3.6098 0
M  V30 1725 H 171.183 -2.24792 2.36931 0
M  V30 1726 H 169.842 -0.526494 3.628 0
M  V30 1727 H 169.49 -2.96386 4.06404 0
M  V30 1728 H 169.19 -1.9934 5.52754 0
M  V30 1729 H 170.714 -2.91189 5.36695 0
M  V30 1730 H 172.128 -0.664186 5.6944 0
M  V30 1731 H 170.525 0.0653265 6.00064 0
M  V30 1732 H 171.595 0.786347 4.78482 0
M  V30 1733 N 172.938 -1.57226 0.108567 0
M  V30 1734 C 174.186 -1.94448 -0.550853 0
M  V30 1735 C 174.507 -0.992074 -1.67878 0
M  V30 1736 O 173.777 -0.0465 -1.95845 0
M  V30 1737 H 172.357 -0.717897 -0.206479 0
M  V30 1738 H 175.019 -1.94112 0.175062 0
M  V30 1739 H 174.115 -2.97218 -0.952259 0
M  V30 1740 N 174.416 0.165178 -1.56732 0
M  V30 1741 C 175.363 1.2044 -1.96883 0
M  V30 1742 C 176.333 1.43664 -0.833657 0
M  V30 1743 O 177.518 1.56302 -1.09427 0
M  V30 1744 C 174.658 2.53727 -2.33916 0
M  V30 1745 C 173.771 2.3783 -3.6064 0
M  V30 1746 C 172.906 3.64026 -3.86857 0
M  V30 1747 C 171.945 3.43088 -5.06909 0
M  V30 1748 N 171.082 4.61369 -5.29229 0
M  V30 1749 H 175.922 0.854996 -2.85471 0
M  V30 1750 H 173.459 0.41076 -1.41249 0
M  V30 1751 H 175.417 3.31419 -2.53411 0
M  V30 1752 H 174.047 2.8665 -1.48431 0
M  V30 1753 H 173.099 1.51282 -3.49024 0
M  V30 1754 H 174.411 2.18308 -4.4849 0
M  V30 1755 H 173.565 4.50152 -4.06753 0
M  V30 1756 H 172.304 3.86533 -2.97394 0
M  V30 1757 H 171.309 2.55349 -4.86906 0
M  V30 1758 H 172.534 3.21997 -5.97909 0
M  V30 1759 H 170.48 4.84084 -4.42718 0
M  V30 1760 H 170.397 4.44783 -6.11313 0
M  V30 1761 H 171.665 5.48761 -5.53608 0
M  V30 1762 N 175.894 1.51508 0.433938 0
M  V30 1763 C 177.14 1.64588 1.18484 0
M  V30 1764 C 177.473 0.362666 1.90784 0
M  V30 1765 O 176.748 -0.637892 1.83742 0
M  V30 1766 C 177.031 2.85149 2.19913 0
M  V30 1767 C 176.884 4.23456 1.51674 0
M  V30 1768 C 178.203 3.01227 3.20858 0
M  V30 1769 H 175.322 0.598994 0.429389 0
M  V30 1770 H 177.964 1.84002 0.473647 0
M  V30 1771 H 176.114 2.68729 2.80566 0
M  V30 1772 H 177.786 4.51552 0.943322 0
M  V30 1773 H 176.029 4.25998 0.819035 0
M  V30 1774 H 176.7 5.03812 2.2556 0
M  V30 1775 H 179.176 3.16382 2.70263 0
M  V30 1776 H 178.052 3.87141 3.89118 0
M  V30 1777 H 178.313 2.13447 3.8716 0
M  V30 1778 N 177.372 -0.689602 1.41712 0
M  V30 1779 C 178.602 -1.47613 1.44548 0
M  V30 1780 C 179.01 -1.89132 0.0509034 0
M  V30 1781 O 178.353 -1.57741 -0.94146 0
M  V30 1782 C 178.415 -2.76596 2.2964 0
M  V30 1783 C 178.079 -2.57245 3.77722 0
M  V30 1784 C 179.076 -2.22804 4.69739 0
M  V30 1785 C 176.761 -2.727 4.2183 0
M  V30 1786 C 178.755 -2.04064 6.03851 0
M  V30 1787 C 176.442 -2.53576 5.56006 0
M  V30 1788 C 177.44 -2.1931 6.46832 0
M  V30 1789 O 177.128 -2.00359 7.78532 0
M  V30 1790 H 176.86 -0.461227 0.494212 0
M  V30 1791 H 179.414 -0.856045 1.86711 0
M  V30 1792 H 177.644 -3.41033 1.82301 0
M  V30 1793 H 179.333 -3.38424 2.24107 0
M  V30 1794 H 180.099 -2.10473 4.36951 0
M  V30 1795 H 175.978 -2.98353 3.51435 0
M  V30 1796 H 179.522 -1.77241 6.74708 0
M  V30 1797 H 175.419 -2.65499 5.88371 0
M  V30 1798 H 176.187 -2.15075 7.89737 0
M  V30 1799 N 178.85 -1.27639 -0.924453 0
M  V30 1800 C 180.08 -1.16819 -1.70402 0
M  V30 1801 C 180.488 0.277191 -1.87158 0
M  V30 1802 O 179.831 1.20025 -1.39067 0
M  V30 1803 C 179.893 -1.78305 -3.12166 0
M  V30 1804 C 179.557 -3.27502 -3.18734 0
M  V30 1805 C 180.554 -4.2409 -3.00738 0
M  V30 1806 C 178.239 -3.68269 -3.4159 0
M  V30 1807 C 180.233 -5.59422 -3.05492 0
M  V30 1808 C 177.92 -5.0373 -3.45977 0
M  V30 1809 C 178.918 -5.99116 -3.27946 0
M  V30 1810 O 178.606 -7.32108 -3.32074 0
M  V30 1811 H 178.338 -0.406931 -0.539799 0
M  V30 1812 H 180.892 -1.69078 -1.16626 0
M  V30 1813 H 179.122 -1.20528 -3.67437 0
M  V30 1814 H 180.811 -1.62154 -3.72103 0
M  V30 1815 H 181.577 -3.93931 -2.82919 0
M  V30 1816 H 177.456 -2.94496 -3.54673 0
M  V30 1817 H 181 -6.33852 -2.91337 0
M  V30 1818 H 176.897 -5.33543 -3.63321 0
M  V30 1819 H 177.665 -7.40598 -3.48507 0
M  V30 1820 N 180.328 1.1314 -1.09713 0
M  V30 1821 C 181.744 1.36477 -0.827423 0
M  V30 1822 C 181.944 1.93654 0.556817 0
M  V30 1823 O 181 2.15791 1.31112 0
M  V30 1824 C 182.313 2.31334 -1.92106 0
M  V30 1825 C 183.861 2.44943 -1.94864 0
M  V30 1826 C 184.336 3.4311 -3.0338 0
M  V30 1827 N 185.827 3.50662 -3.02639 0
M  V30 1828 C 186.562 4.2651 -3.83246 0
M  V30 1829 N 186.058 5.05485 -4.73768 0
M  V30 1830 N 187.851 4.2184 -3.71493 0
M  V30 1831 H 180.002 0.743807 -1.9895 0
M  V30 1832 H 182.265 0.389823 -0.864143 0
M  V30 1833 H 181.971 1.96483 -2.91698 0
M  V30 1834 H 181.845 3.31381 -1.80184 0
M  V30 1835 H 184.232 2.79079 -0.959099 0
M  V30 1836 H 184.313 1.4481 -2.10864 0
M  V30 1837 H 183.957 3.09704 -4.02549 0
M  V30 1838 H 183.887 4.43055 -2.84622 0
M  V30 1839 H 186.378 2.94315 -2.37039 0
M  V30 1840 H 186.691 5.60675 -5.3185 0
M  V30 1841 H 185.036 5.04708 -4.77802 0
M  V30 1842 H 188.227 3.5922 -3.00131 0
M  V30 1843 H 188.4 4.80697 -4.3455 0
M  V30 1844 N 181.806 0.884767 1.30421 0
M  V30 1845 C 182.716 0.355398 2.31892 0
M  V30 1846 C 183.732 -0.542261 1.65335 0
M  V30 1847 O 184.908 -0.435432 1.96637 0
M  V30 1848 C 181.973 -0.421661 3.44126 0
M  V30 1849 C 181.034 0.505727 4.26311 0
M  V30 1850 C 180.267 -0.234343 5.33185 0
M  V30 1851 O 180.49 -1.46045 5.51386 0
M  V30 1852 O 179.424 0.415443 6.00465 0
M  V30 1853 H 183.25 1.19685 2.79122 0
M  V30 1854 H 180.835 0.648596 1.34587 0
M  V30 1855 H 182.717 -0.861641 4.12497 0
M  V30 1856 H 181.392 -1.23942 2.99032 0
M  V30 1857 H 180.299 0.994513 3.60639 0
M  V30 1858 H 181.632 1.28948 4.75009 0
M  V30 1859 N 183.284 -1.43765 0.645699 0
M  V30 1860 C 184.561 -1.9541 0.0862963 0
M  V30 1861 C 184.941 -1.58725 -1.39175 0
M  V30 1862 O 184.289 -0.868581 -2.11348 0
M  V30 1863 C 184.499 -3.47488 0.324565 0
M  V30 1864 C 185.847 -4.24001 0.225497 0
M  V30 1865 O 186.871 -3.55274 0.256715 0
M  V30 1866 O 185.73 -5.46313 0.142801 0
M  V30 1867 H 182.824 -0.826882 -0.0139483 0
M  V30 1868 H 185.37 -1.53743 0.718415 0
M  V30 1869 H 184.142 -3.67289 1.3496 0
M  V30 1870 H 183.765 -3.96135 -0.340987 0
M  V30 1871 N 184.763 -0.387143 -1.52771 0
M  V30 1872 C 185.693 0.440551 -2.29306 0
M  V30 1873 C 186.674 1.06535 -1.32606 0
M  V30 1874 O 187.859 1.07853 -1.61497 0
M  V30 1875 C 184.989 1.56919 -3.09829 0
M  V30 1876 C 183.943 1.07054 -4.14395 0
M  V30 1877 C 183.269 2.29109 -4.83129 0
M  V30 1878 C 184.569 0.140015 -5.22112 0
M  V30 1879 H 186.263 -0.198026 -2.98744 0
M  V30 1880 H 183.809 -0.09668 -1.43675 0
M  V30 1881 H 185.762 2.15503 -3.62128 0
M  V30 1882 H 184.486 2.23532 -2.3812 0
M  V30 1883 H 183.145 0.507247 -3.63074 0
M  V30 1884 H 182.793 2.94227 -4.0797 0
M  V30 1885 H 182.493 1.96406 -5.53804 0
M  V30 1886 H 184.017 2.88339 -5.38231 0
M  V30 1887 H 185.431 0.633978 -5.69784 0
M  V30 1888 H 183.828 -0.0971485 -6.00021 0
M  V30 1889 H 184.898 -0.811711 -4.78058 0
M  V30 1890 N 186.241 1.57166 -0.116904 0
M  V30 1891 C 187.466 1.999 0.55271 0
M  V30 1892 C 187.891 0.996039 1.59564 0
M  V30 1893 O 187.249 -0.032556 1.81271 0
M  V30 1894 C 187.297 3.4152 1.15742 0
M  V30 1895 O 186.401 3.44106 2.27299 0
M  V30 1896 H 185.742 0.649447 0.138258 0
M  V30 1897 H 188.272 2.03573 -0.204759 0
M  V30 1898 H 188.282 3.79684 1.49346 0
M  V30 1899 H 186.957 4.14034 0.393493 0
M  V30 1900 H 185.534 3.17759 1.9515 0
M  V30 1901 N 187.719 -0.156864 1.56817 0
M  V30 1902 C 189.13 -0.717916 1.72345 0
M  V30 1903 C 189.481 -1.82124 0.729747 0
M  V30 1904 O 188.606 -2.16141 -0.105781 0
M  V30 1905 C 189.201 -1.30904 3.12489 0
M  V30 1906 C 187.76 -1.81676 3.29653 0
M  V30 1907 C 186.907 -0.701349 2.68284 0
M  V30 1908 H 189.858 0.0686989 1.58551 0
M  V30 1909 H 189.879 -2.17882 3.11942 0
M  V30 1910 H 189.391 -0.505796 3.8479 0
M  V30 1911 H 187.492 -2.64598 2.62333 0
M  V30 1912 H 187.605 -1.95226 4.3752 0
M  V30 1913 H 185.969 -1.12548 2.28484 0
M  V30 1914 H 186.752 0.0902846 3.43181 0
M  V30 1915 N 189.197 -1.51736 -0.425897 0
M  V30 1916 C 190.422 -1.69082 -1.20108 0
M  V30 1917 C 190.847 -0.392398 -1.83962 0
M  V30 1918 O 190.205 0.64858 -1.69302 0
M  V30 1919 C 190.253 -2.81604 -2.25237 0
M  V30 1920 O 189.357 -2.46004 -3.30992 0
M  V30 1921 H 188.698 -0.563408 -0.35138 0
M  V30 1922 H 191.228 -1.98358 -0.501512 0
M  V30 1923 H 191.238 -3.06025 -2.69838 0
M  V30 1924 H 189.913 -3.75817 -1.78142 0
M  V30 1925 H 188.49 -2.32195 -2.91787 0
M  V30 1926 N 190.675 0.682077 -1.42076 0
M  V30 1927 C 191.924 1.43786 -1.41451 0
M  V30 1928 C 192.237 1.95574 -0.0317074 0
M  V30 1929 O 193.443 2.71326 0.0971462 0
M  V30 1930 C 191.899 2.60071 -2.48779 0
M  V30 1931 C 191.507 2.15013 -3.93031 0
M  V30 1932 C 193.251 3.37626 -2.57311 0
M  V30 1933 C 191.158 3.28336 -4.91883 0
M  V30 1934 H 190.088 0.540143 -0.526082 0
M  V30 1935 H 192.739 0.739157 -1.67955 0
M  V30 1936 H 191.121 3.32275 -2.15429 0
M  V30 1937 H 192.295 1.5001 -4.35699 0
M  V30 1938 H 190.61 1.50416 -3.88284 0
M  V30 1939 H 193.207 4.22012 -3.28345 0
M  V30 1940 H 193.55 3.83727 -1.61429 0
M  V30 1941 H 194.083 2.72488 -2.89819 0
M  V30 1942 H 190.822 2.87234 -5.89217 0
M  V30 1943 H 190.342 3.92145 -4.53853 0
M  V30 1944 H 192.021 3.93913 -5.13265 0
M  V30 1945 N 192.153 1.28127 0.917671 0
M  V30 1946 C 193.381 1.17892 1.70026 0
M  V30 1947 C 193.796 -0.262958 1.8696 0
M  V30 1948 O 193.153 -1.17811 1.3938 0
M  V30 1949 C 193.204 1.86872 3.09453 0
M  V30 1950 O 192.925 3.25428 2.93306 0
M  V30 1951 C 194.426 1.8289 4.03815 0
M  V30 1952 H 191.646 0.40942 0.531617 0
M  V30 1953 H 194.19 1.69181 1.14883 0
M  V30 1954 H 192.345 1.39464 3.61426 0
M  V30 1955 H 192.759 3.59918 3.81523 0
M  V30 1956 H 194.233 2.35751 4.99125 0
M  V30 1957 H 194.71 0.800412 4.31845 0
M  V30 1958 H 195.316 2.29959 3.57769 0
M  V30 1959 N 193.631 -1.12557 1.10312 0
M  V30 1960 C 194.563 -2.17971 0.708625 0
M  V30 1961 C 195.576 -1.60806 -0.254027 0
M  V30 1962 O 196.765 -1.78458 -0.0386891 0
M  V30 1963 C 193.865 -3.38891 0.0248198 0
M  V30 1964 C 193.038 -4.25548 1.01132 0
M  V30 1965 C 192.097 -5.24972 0.35924 0
M  V30 1966 O 191.123 -5.60174 1.00965 0
M  V30 1967 N 192.325 -5.73747 -0.882847 0
M  V30 1968 H 195.09 -2.52427 1.61557 0
M  V30 1969 H 192.651 -1.27967 0.991771 0
M  V30 1970 H 194.643 -4.02485 -0.422852 0
M  V30 1971 H 193.213 -3.02596 -0.784514 0
M  V30 1972 H 192.433 -3.58589 1.6373 0
M  V30 1973 H 193.721 -4.80294 1.67914 0
M  V30 1974 H 193.119 -5.4731 -1.43065 0
M  V30 1975 H 191.676 -6.39234 -1.27369 0
M  V30 1976 N 195.109 -0.891671 -1.2995 0
M  V30 1977 C 196.525 -0.58662 -1.48428 0
M  V30 1978 C 196.725 0.873951 -1.81561 0
M  V30 1979 O 195.781 1.65471 -1.90724 0
M  V30 1980 C 197.094 -1.50553 -2.60296 0
M  V30 1981 C 198.642 -1.50988 -2.74175 0
M  V30 1982 C 199.117 -2.41488 -3.89163 0
M  V30 1983 N 200.608 -2.39489 -3.96483 0
M  V30 1984 C 201.343 -3.06223 -4.84784 0
M  V30 1985 N 200.839 -3.82206 -5.77833 0
M  V30 1986 N 202.632 -2.95421 -4.78208 0
M  V30 1987 H 194.783 -1.83644 -1.06718 0
M  V30 1988 H 197.046 -0.786455 -0.529332 0
M  V30 1989 H 196.752 -2.54581 -2.42654 0
M  V30 1990 H 196.626 -1.22008 -3.56923 0
M  V30 1991 H 199.013 -0.47708 -2.91218 0
M  V30 1992 H 199.094 -1.83567 -1.78148 0
M  V30 1993 H 198.738 -3.44857 -3.72876 0
M  V30 1994 H 198.668 -2.06222 -4.84541 0
M  V30 1995 H 201.159 -1.84278 -3.29924 0
M  V30 1996 H 201.472 -4.302 -6.41988 0
M  V30 1997 H 199.817 -3.86313 -5.77743 0
M  V30 1998 H 203.008 -2.35581 -4.04499 0
M  V30 1999 H 203.181 -3.47704 -5.46814 0
M  V30 2000 N 196.587 1.43421 -0.653314 0
M  V30 2001 C 197.55 2.29182 0.0287951 0
M  V30 2002 C 198.55 1.42213 0.750465 0
M  V30 2003 O 199.74 1.63843 0.591701 0
M  V30 2004 C 196.872 3.24278 1.05151 0
M  V30 2005 H 198.065 2.90985 -0.725786 0
M  V30 2006 H 195.618 1.50702 -0.414545 0
M  V30 2007 H 196.353 2.6737 1.83532 0
M  V30 2008 H 196.138 3.88396 0.537687 0
M  V30 2009 H 197.628 3.88647 1.52786 0
M  V30 2010 N 198.065 0.39524 1.52563 0
M  V30 2011 C 199.028 -0.425001 2.25225 0
M  V30 2012 C 200.028 -0.985266 1.27079 0
M  V30 2013 O 201.218 -0.866332 1.5113 0
M  V30 2014 C 198.35 -1.59686 3.01186 0
M  V30 2015 H 199.543 0.211233 2.99155 0
M  V30 2016 H 197.096 0.147472 1.55603 0
M  V30 2017 H 197.831 -2.27035 2.31572 0
M  V30 2018 H 197.616 -1.20176 3.73229 0
M  V30 2019 H 199.106 -2.17743 3.5634 0
M  V30 2020 N 199.544 -1.57102 0.125237 0
M  V30 2021 C 200.454 -2.19191 -0.8362 0
M  V30 2022 C 201.47 -1.16985 -1.28805 0
M  V30 2023 O 202.646 -1.49479 -1.34974 0
M  V30 2024 C 199.711 -2.78407 -2.06617 0
M  V30 2025 C 198.772 -3.9567 -1.66565 0
M  V30 2026 C 198.005 -4.52052 -2.83698 0
M  V30 2027 O 198.228 -4.07326 -3.99302 0
M  V30 2028 O 197.162 -5.42645 -2.60423 0
M  V30 2029 H 200.988 -3.01816 -0.337776 0
M  V30 2030 H 198.573 -1.4906 -0.100695 0
M  V30 2031 H 200.455 -3.16129 -2.7864 0
M  V30 2032 H 199.13 -1.9881 -2.55453 0
M  V30 2033 H 198.037 -3.62705 -0.916296 0
M  V30 2034 H 199.37 -4.76722 -1.22464 0
M  V30 2035 N 201.022 0.148545 -1.56898 0
M  V30 2036 C 202.262 0.86765 -1.85071 0
M  V30 2037 C 202.626 1.78417 -0.709317 0
M  V30 2038 O 203.827 2.54261 -0.872049 0
M  V30 2039 C 202.098 1.62306 -3.1842 0
M  V30 2040 S 203.657 2.3878 -3.68143 0
M  V30 2041 H 200.475 0.290174 -0.649092 0
M  V30 2042 H 203.077 0.127755 -1.95082 0
M  V30 2043 H 201.781 0.941192 -3.99462 0
M  V30 2044 H 201.312 2.4039 -3.1141 0
M  V30 2045 H 203.327 3.63942 -3.37285 0
M  V30 2046 N 202.5 1.5196 0.417844 0
M  V30 2047 C 203.746 1.65836 1.16732 0
M  V30 2048 C 204.079 0.382881 1.90388 0
M  V30 2049 O 203.354 -0.618368 1.84408 0
M  V30 2050 C 203.637 2.87466 2.16876 0
M  V30 2051 C 203.49 4.25041 1.47174 0
M  V30 2052 C 204.809 3.04613 3.17646 0
M  V30 2053 H 201.928 0.603515 0.423011 0
M  V30 2054 H 204.57 1.84494 0.454105 0
M  V30 2055 H 202.72 2.71689 2.777 0
M  V30 2056 H 204.392 4.52527 0.895376 0
M  V30 2057 H 202.635 4.26843 0.773806 0
M  V30 2058 H 203.306 5.06176 2.20204 0
M  V30 2059 H 205.782 3.1923 2.66892 0
M  V30 2060 H 204.658 3.91247 3.8499 0
M  V30 2061 H 204.919 2.17541 3.84874 0
M  V30 2062 N 203.978 -0.674533 1.42435 0
M  V30 2063 C 204.928 -1.7807 1.4239 0
M  V30 2064 C 205.912 -1.58169 0.295202 0
M  V30 2065 O 207.104 -1.68643 0.537449 0
M  V30 2066 C 204.233 -3.16532 1.32901 0
M  V30 2067 C 203.319 -3.42055 2.50717 0
M  V30 2068 N 203.71 -3.38162 3.76139 0
M  V30 2069 C 202.008 -3.72692 2.44983 0
M  V30 2070 C 202.709 -3.63177 4.54398 0
M  V30 2071 N 201.685 -3.83954 3.84812 0
M  V30 2072 H 205.487 -1.73454 2.37257 0
M  V30 2073 H 203.001 -0.875381 1.36788 0
M  V30 2074 H 204.998 -3.958 1.30951 0
M  V30 2075 H 203.658 -3.22345 0.390363 0
M  V30 2076 H 204.669 -3.18057 4.0873 0
M  V30 2077 H 201.346 -3.85749 1.59699 0
M  V30 2078 H 202.736 -3.66125 5.63384 0
M  V30 2079 N 205.456 -1.28612 -0.910864 0
M  V30 2080 C 206.872 -1.06381 -1.18976 0
M  V30 2081 C 207.072 0.191998 -2.00583 0
M  V30 2082 O 206.128 0.892869 -2.36187 0
M  V30 2083 C 207.441 -2.31295 -1.92154 0
M  V30 2084 C 208.989 -2.36503 -2.05025 0
M  V30 2085 C 209.464 -3.61191 -2.81612 0
M  V30 2086 N 210.955 -3.61847 -2.89172 0
M  V30 2087 C 211.69 -4.55004 -3.4894 0
M  V30 2088 N 211.186 -5.58482 -4.09963 0
M  V30 2089 N 212.979 -4.42594 -3.46506 0
M  V30 2090 H 205.13 -2.09221 -0.366094 0
M  V30 2091 H 207.393 -0.921003 -0.224629 0
M  V30 2092 H 207.099 -3.228 -1.39618 0
M  V30 2093 H 206.973 -2.37934 -2.9269 0
M  V30 2094 H 209.36 -1.45494 -2.5674 0
M  V30 2095 H 209.441 -2.33857 -1.03657 0
M  V30 2096 H 209.085 -4.52545 -2.30576 0
M  V30 2097 H 209.015 -3.61092 -3.83302 0
M  V30 2098 H 211.506 -2.87022 -2.45819 0
M  V30 2099 H 211.819 -6.25704 -4.53557 0
M  V30 2100 H 210.164 -5.62305 -4.08459 0
M  V30 2101 H 213.355 -3.60953 -2.98045 0
M  V30 2102 H 213.528 -5.15381 -3.92793 0
M  V30 2103 N 206.934 1.1197 -1.10907 0
M  V30 2104 C 208.182 1.83225 -0.852819 0
M  V30 2105 C 208.503 1.84769 0.623341 0
M  V30 2106 O 207.773 1.3143 1.45269 0
M  V30 2107 H 206.353 0.67849 -0.312507 0
M  V30 2108 H 209.015 1.3556 -1.40033 0
M  V30 2109 H 208.111 2.87265 -1.22005 0
M  V30 2110 N 208.412 0.89855 1.29475 0
M  V30 2111 C 209.659 0.523882 1.95606 0
M  V30 2112 C 209.987 -0.929608 1.70847 0
M  V30 2113 O 209.242 -1.67401 1.01367 0
M  V30 2114 C 209.541 0.761398 3.49195 0
M  V30 2115 C 209.207 2.19207 3.94029 0
M  V30 2116 C 207.869 2.58326 4.05982 0
M  V30 2117 C 210.221 3.12379 4.17216 0
M  V30 2118 C 207.549 3.898 4.38489 0
M  V30 2119 C 209.901 4.43401 4.51197 0
M  V30 2120 C 208.565 4.82394 4.61359 0
M  V30 2121 H 207.835 0.191702 0.715773 0
M  V30 2122 H 210.482 1.13699 1.54094 0
M  V30 2123 H 208.787 0.0653622 3.91745 0
M  V30 2124 H 210.484 0.450904 3.98457 0
M  V30 2125 H 207.074 1.87846 3.85242 0
M  V30 2126 H 211.258 2.83371 4.07449 0
M  V30 2127 H 206.514 4.19734 4.44559 0
M  V30 2128 H 210.688 5.15623 4.68087 0
M  V30 2129 H 208.315 5.84306 4.86303 0
M  V30 2130 N 209.89 -1.43072 0.660911 0
M  V30 2131 C 211.301 -1.84932 0.256348 0
M  V30 2132 C 211.652 -1.55325 -1.19868 0
M  V30 2133 O 210.777 -1.00607 -1.91591 0
M  V30 2134 C 211.372 -3.35684 0.458475 0
M  V30 2135 C 209.931 -3.76245 0.108161 0
M  V30 2136 C 209.078 -2.66749 0.757641 0
M  V30 2137 H 212.029 -1.33116 0.864051 0
M  V30 2138 H 212.05 -3.79365 -0.293683 0
M  V30 2139 H 211.562 -3.572 1.51755 0
M  V30 2140 H 209.663 -3.60338 -0.948014 0
M  V30 2141 H 209.776 -4.76058 0.538992 0
M  V30 2142 H 208.14 -2.53989 0.190185 0
M  V30 2143 H 208.923 -2.91092 1.81989 0
M  V30 2144 N 211.368 -0.403325 -1.52352 0
M  V30 2145 C 212.278 0.432009 -2.30588 0
M  V30 2146 C 213.294 1.05884 -1.38075 0
M  V30 2147 O 214.47 1.06161 -1.71148 0
M  V30 2148 C 211.535 1.53669 -3.10784 0
M  V30 2149 C 210.596 0.933525 -4.19027 0
M  V30 2150 C 209.829 1.98557 -4.9539 0
M  V30 2151 O 210.052 3.20283 -4.71991 0
M  V30 2152 O 208.986 1.59504 -5.80381 0
M  V30 2153 H 212.812 -0.205739 -3.03002 0
M  V30 2154 H 210.397 -0.166675 -1.48467 0
M  V30 2155 H 212.279 2.17814 -3.60742 0
M  V30 2156 H 210.954 2.15915 -2.41169 0
M  V30 2157 H 209.861 0.254954 -3.7323 0
M  V30 2158 H 211.194 0.35508 -4.90918 0
M  V30 2159 N 212.846 1.57033 -0.133567 0
M  V30 2160 C 214.095 1.94861 0.520768 0
M  V30 2161 C 214.408 1.02012 1.66892 0
M  V30 2162 O 215.614 1.29365 2.38699 0
M  V30 2163 C 214.07 3.46362 0.977809 0
M  V30 2164 C 213.678 4.47773 -0.142674 0
M  V30 2165 C 215.422 3.93083 1.60269 0
M  V30 2166 C 213.329 5.90468 0.331883 0
M  V30 2167 H 212.259 0.727453 0.198315 0
M  V30 2168 H 214.91 1.82227 -0.215759 0
M  V30 2169 H 213.292 3.54282 1.7692 0
M  V30 2170 H 214.466 4.51536 -0.919317 0
M  V30 2171 H 212.781 4.10891 -0.675124 0
M  V30 2172 H 215.378 4.97121 1.96914 0
M  V30 2173 H 215.721 3.33876 2.48662 0
M  V30 2174 H 216.254 3.88025 0.876453 0
M  V30 2175 H 212.993 6.53463 -0.516341 0
M  V30 2176 H 212.513 5.90094 1.07469 0
M  V30 2177 H 214.192 6.42179 0.788332 0
M  V30 2178 N 214.325 -0.140222 1.56975 0
M  V30 2179 C 215.55 -0.870414 1.88251 0
M  V30 2180 C 215.975 -1.73637 0.723312 0
M  V30 2181 O 215.333 -1.78329 -0.32689 0
M  V30 2182 C 215.381 -1.69737 3.18154 0
M  V30 2183 O 214.485 -2.80229 3.02565 0
M  V30 2184 H 213.826 -0.242025 0.61832 0
M  V30 2185 H 216.356 -0.128999 2.04193 0
M  V30 2186 H 216.366 -2.09099 3.50345 0
M  V30 2187 H 215.041 -1.06152 4.02125 0
M  V30 2188 H 213.618 -2.44224 2.81796 0
M  V30 2189 N 215.803 -1.52179 -0.40978 0
M  V30 2190 C 217.05 -1.66206 -1.15679 0
M  V30 2191 C 217.378 -0.391674 -1.90516 0
M  V30 2192 O 216.633 0.62533 -1.8544 0
M  V30 2193 C 216.932 -2.83428 -2.17723 0
M  V30 2194 C 216.598 -4.21672 -1.59699 0
M  V30 2195 C 215.26 -4.59274 -1.43599 0
M  V30 2196 C 217.612 -5.07825 -1.17317 0
M  V30 2197 C 214.94 -5.80709 -0.836328 0
M  V30 2198 C 217.292 -6.29864 -0.587691 0
M  V30 2199 C 215.956 -6.66216 -0.413818 0
M  V30 2200 H 215.226 -0.608192 -0.423301 0
M  V30 2201 H 217.873 -1.86279 -0.444097 0
M  V30 2202 H 216.178 -2.57687 -2.95135 0
M  V30 2203 H 217.875 -2.91477 -2.75394 0
M  V30 2204 H 214.465 -3.9204 -1.73213 0
M  V30 2205 H 218.649 -4.79359 -1.28565 0
M  V30 2206 H 213.905 -6.07498 -0.689626 0
M  V30 2207 H 218.079 -6.95948 -0.250894 0
M  V30 2208 H 215.706 -7.60182 0.0529471 0
M  V30 2209 N 217.281 0.66697 -1.42791 0
M  V30 2210 C 218.213 1.7925 -1.42836 0
M  V30 2211 C 219.226 1.59496 -0.326333 0
M  V30 2212 O 220.415 1.6847 -0.589916 0
M  V30 2213 C 217.515 3.16476 -1.21229 0
M  V30 2214 C 216.688 3.63011 -2.44013 0
M  V30 2215 C 215.747 4.78993 -2.17834 0
M  V30 2216 O 214.773 4.89137 -2.91091 0
M  V30 2217 N 215.975 5.68248 -1.18635 0
M  V30 2218 H 218.74 1.79695 -2.39854 0
M  V30 2219 H 216.301 0.850338 -1.37771 0
M  V30 2220 H 218.293 3.91734 -1.01621 0
M  V30 2221 H 216.863 3.10884 -0.32706 0
M  V30 2222 H 216.083 2.78346 -2.79137 0
M  V30 2223 H 217.371 3.90845 -3.25757 0
M  V30 2224 H 216.769 5.62712 -0.580615 0
M  V30 2225 H 215.326 6.43285 -1.05013 0
M  V30 2226 N 218.759 1.29093 0.90403 0
M  V30 2227 C 220.17 1.15186 1.46932 0
M  V30 2228 C 220.521 -0.254587 1.94541 0
M  V30 2229 O 219.646 -1.14972 1.83332 0
M  V30 2230 C 220.241 2.08492 2.67051 0
M  V30 2231 C 218.8 1.98621 3.19729 0
M  V30 2232 C 217.947 1.9967 1.92425 0
M  V30 2233 H 220.898 1.41641 0.715789 0
M  V30 2234 H 220.919 1.65461 3.42641 0
M  V30 2235 H 220.431 3.10847 2.3237 0
M  V30 2236 H 218.532 0.993389 3.59114 0
M  V30 2237 H 218.645 2.86068 3.8432 0
M  V30 2238 H 217.009 1.44208 2.09943 0
M  V30 2239 H 217.792 3.03721 1.60026 0
M  V30 2240 N 220.237 -1.11381 1.11499 0
M  V30 2241 C 221.462 -1.87475 0.887019 0
M  V30 2242 C 221.887 -1.79639 -0.557796 0
M  V30 2243 O 221.245 -1.15924 -1.39396 0
M  V30 2244 C 221.293 -3.34213 1.35403 0
M  V30 2245 O 220.397 -4.0903 0.526146 0
M  V30 2246 H 219.738 -0.582099 0.319463 0
M  V30 2247 H 222.268 -1.40785 1.48461 0
M  V30 2248 H 222.278 -3.8506 1.34881 0
M  V30 2249 H 220.953 -3.39232 2.40612 0
M  V30 2250 H 219.53 -3.68082 0.597522 0
M  V30 2251 N 221.715 -0.905404 -1.28997 0
M  V30 2252 C 222.94 -0.549175 -1.99997 0
M  V30 2253 C 223.365 0.860276 -1.67275 0
M  V30 2254 O 222.723 1.57355 -0.900502 0
M  V30 2255 C 222.771 -0.755185 -3.52604 0
M  V30 2256 O 221.875 0.189692 -4.11964 0
M  V30 2257 H 221.216 -0.213899 -0.628604 0
M  V30 2258 H 223.746 -1.21856 -1.64354 0
M  V30 2259 H 223.756 -0.662045 -4.02593 0
M  V30 2260 H 222.431 -1.78271 -3.75755 0
M  V30 2261 H 221.008 0.0485257 -3.72868 0
M  V30 2262 N 223.193 1.4272 -0.668489 0
M  V30 2263 C 224.156 2.292 0.00448567 0
M  V30 2264 C 225.156 1.43001 0.735339 0
M  V30 2265 O 226.346 1.64461 0.57429 0
M  V30 2266 C 223.478 3.25375 1.01705 0
M  V30 2267 H 224.671 2.90199 -0.756608 0
M  V30 2268 H 222.224 1.50254 -0.430506 0
M  V30 2269 H 222.959 2.69301 1.80686 0
M  V30 2270 H 222.744 3.88944 0.496463 0
M  V30 2271 H 224.234 3.90245 1.48655 0
M  V30 2272 N 224.671 0.411399 1.52136 0
M  V30 2273 C 225.917 -0.163888 2.02137 0
M  V30 2274 C 226.25 -1.44597 1.29636 0
M  V30 2275 O 225.525 -1.90272 0.403353 0
M  V30 2276 C 225.808 -0.40927 3.57767 0
M  V30 2277 C 225.661 0.889643 4.40914 0
M  V30 2278 C 226.98 -1.19042 4.23694 0
M  V30 2279 H 224.099 -0.0580896 0.734707 0
M  V30 2280 H 226.741 0.54531 1.82007 0
M  V30 2281 H 224.891 -1.0134 3.7505 0
M  V30 2282 H 226.563 1.52575 4.35337 0
M  V30 2283 H 224.806 1.50011 4.07037 0
M  V30 2284 H 225.477 0.672314 5.4789 0
M  V30 2285 H 227.953 -0.678942 4.10524 0
M  V30 2286 H 226.829 -1.33086 5.32522 0
M  V30 2287 H 227.09 -2.21166 3.82803 0
M  V30 2288 N 226.149 -1.5696 0.141893 0
M  V30 2289 C 227.395 -1.9625 -0.511248 0
M  V30 2290 C 227.728 -1.02654 -1.64851 0
M  V30 2291 O 227.003 -0.0679676 -1.94381 0
M  V30 2292 C 227.286 -3.45285 -1.02227 0
M  V30 2293 C 227.139 -4.49658 0.113138 0
M  V30 2294 C 228.458 -3.96698 -1.90574 0
M  V30 2295 H 225.577 -0.713567 -0.184367 0
M  V30 2296 H 228.219 -1.88698 0.222087 0
M  V30 2297 H 226.369 -3.51852 -1.64719 0
M  V30 2298 H 228.041 -4.55174 0.749302 0
M  V30 2299 H 226.284 -4.26857 0.773026 0
M  V30 2300 H 226.955 -5.51258 -0.286053 0
M  V30 2301 H 229.431 -3.92578 -1.37918 0
M  V30 2302 H 228.307 -5.01453 -2.2324 0
M  V30 2303 H 228.568 -3.3875 -2.84079 0
M  V30 2304 N 227.627 0.131896 -1.57047 0
M  V30 2305 C 228.873 0.843179 -1.84441 0
M  V30 2306 C 229.206 1.80129 -0.725749 0
M  V30 2307 O 228.481 1.92624 0.269469 0
M  V30 2308 C 228.764 1.60442 -3.22382 0
M  V30 2309 C 228.617 0.666782 -4.4483 0
M  V30 2310 C 229.936 2.56354 -3.5773 0
M  V30 2311 H 227.055 0.305081 -0.670891 0
M  V30 2312 H 229.697 0.107839 -1.89694 0
M  V30 2313 H 227.847 2.23128 -3.18035 0
M  V30 2314 H 229.519 0.0497646 -4.61273 0
M  V30 2315 H 227.762 -0.022609 -4.33794 0
M  V30 2316 H 228.433 1.23579 -5.37989 0
M  V30 2317 H 230.909 2.0378 -3.62785 0
M  V30 2318 H 229.785 3.06657 -4.5525 0
M  V30 2319 H 230.046 3.38419 -2.84473 0
M  V30 2320 N 229.106 1.52395 0.401703 0
M  V30 2321 C 230.334 1.70676 1.16949 0
M  V30 2322 C 230.749 0.419503 1.8408 0
M  V30 2323 O 230.106 -0.605061 1.72178 0
M  V30 2324 C 230.157 2.84753 2.22706 0
M  V30 2325 O 229.878 4.08495 1.58314 0
M  V30 2326 C 231.379 3.14608 3.12309 0
M  V30 2327 H 228.599 0.571787 0.351142 0
M  V30 2328 H 231.143 1.98987 0.471652 0
M  V30 2329 H 229.298 2.58941 2.88147 0
M  V30 2330 H 229.712 4.72117 2.28485 0
M  V30 2331 H 231.186 3.97923 3.82572 0
M  V30 2332 H 231.663 2.28464 3.75101 0
M  V30 2333 H 232.269 3.42212 2.52529 0
M  V30 2334 N 230.584 -0.659388 1.43143 0
M  V30 2335 C 231.83 -1.41984 1.45644 0
M  V30 2336 C 232.185 -1.92245 0.0771718 0
M  V30 2337 O 231.478 -1.68976 -0.903205 0
M  V30 2338 C 231.672 -2.62206 2.42864 0
M  V30 2339 C 231.501 -2.23711 3.90107 0
M  V30 2340 C 230.271 -2.12332 4.58523 0
M  V30 2341 C 232.469 -1.84384 4.80112 0
M  V30 2342 N 230.451 -1.67102 5.9072 0
M  V30 2343 C 231.822 -1.5019 6.01534 0
M  V30 2344 C 233.877 -1.71512 4.67427 0
M  V30 2345 C 232.58 -1.04414 7.11681 0
M  V30 2346 C 234.606 -1.27142 5.77572 0
M  V30 2347 C 233.968 -0.938808 6.98116 0
M  V30 2348 H 230.067 -0.515448 0.588079 0
M  V30 2349 H 232.651 -0.759409 1.79279 0
M  V30 2350 H 230.822 -3.25917 2.11265 0
M  V30 2351 H 232.554 -3.28877 2.35843 0
M  V30 2352 H 229.309 -2.31893 4.12944 0
M  V30 2353 H 229.733 -1.46866 6.60878 0
M  V30 2354 H 234.375 -1.95868 3.74694 0
M  V30 2355 H 232.093 -0.788061 8.04248 0
M  V30 2356 H 235.679 -1.17681 5.69774 0
M  V30 2357 H 234.559 -0.6007 7.81896 0
M  V30 2358 N 232.062 -1.29571 -0.897171 0
M  V30 2359 C 232.972 -1.16808 -2.03453 0
M  V30 2360 C 233.988 -0.0907471 -1.73763 0
M  V30 2361 O 235.164 -0.303312 -1.99103 0
M  V30 2362 C 232.229 -0.848264 -3.36163 0
M  V30 2363 C 231.29 -2.0097 -3.79354 0
M  V30 2364 C 230.523 -1.70505 -5.05731 0
M  V30 2365 O 230.746 -0.62718 -5.66941 0
M  V30 2366 O 229.68 -2.5538 -5.45036 0
M  V30 2367 H 233.506 -2.12325 -2.17144 0
M  V30 2368 H 231.091 -1.09047 -1.02123 0
M  V30 2369 H 232.973 -0.684581 -4.15802 0
M  V30 2370 H 231.648 0.0771071 -3.23608 0
M  V30 2371 H 230.555 -2.22863 -3.00471 0
M  V30 2372 H 231.888 -2.91636 -3.96496 0
M  V30 2373 N 233.54 1.10788 -1.12088 0
M  V30 2374 C 234.765 1.87002 -0.896949 0
M  V30 2375 C 235.19 1.79933 0.548261 0
M  V30 2376 O 234.548 1.16662 1.38779 0
M  V30 2377 C 234.596 3.3349 -1.37174 0
M  V30 2378 O 233.7 4.08745 -0.547831 0
M  V30 2379 H 233.041 0.580397 -0.322545 0
M  V30 2380 H 235.571 1.39996 -1.49206 0
M  V30 2381 H 235.581 3.84339 -1.36922 0
M  V30 2382 H 234.256 3.37951 -2.42408 0
M  V30 2383 H 232.833 3.6776 -0.617034 0
M  V30 2384 N 235.018 0.912232 1.28515 0
M  V30 2385 C 236.264 0.545405 1.95328 0
M  V30 2386 C 236.597 -0.908313 1.71649 0
M  V30 2387 O 235.872 -1.64575 1.03659 0
M  V30 2388 C 236.155 0.853483 3.4984 0
M  V30 2389 C 236.008 2.35982 3.82926 0
M  V30 2390 C 237.327 0.348589 4.38717 0
M  V30 2391 H 234.446 0.199626 0.709449 0
M  V30 2392 H 237.088 1.1412 1.5191 0
M  V30 2393 H 235.238 0.34643 3.86952 0
M  V30 2394 H 236.91 2.93738 3.55691 0
M  V30 2395 H 235.153 2.81543 3.30024 0
M  V30 2396 H 235.824 2.52593 4.90816 0
M  V30 2397 H 238.3 0.78294 4.08668 0
M  V30 2398 H 237.176 0.593242 5.45685 0
M  V30 2399 H 237.437 -0.751049 4.35674 0
M  V30 2400 N 236.496 -1.42363 0.676048 0
M  V30 2401 C 237.459 -2.29199 0.00766941 0
M  V30 2402 C 238.459 -1.43389 -0.727745 0
M  V30 2403 O 239.649 -1.64764 -0.56556 0
M  V30 2404 C 236.781 -3.2591 -0.999785 0
M  V30 2405 H 237.974 -2.89794 0.771988 0
M  V30 2406 H 235.527 -1.50024 0.438468 0
M  V30 2407 H 236.262 -2.70256 -1.79255 0
M  V30 2408 H 236.047 -3.89202 -0.475829 0
M  V30 2409 H 237.537 -3.91028 -1.46583 0
M  V30 2410 N 237.974 -0.419461 -1.51915 0
M  V30 2411 C 239.385 0.0477853 -1.86639 0
M  V30 2412 C 239.736 1.43531 -1.33766 0
M  V30 2413 O 238.861 2.05401 -0.68113 0
M  V30 2414 C 239.456 0.0934885 -3.38671 0
M  V30 2415 C 238.015 0.505097 -3.72996 0
M  V30 2416 C 237.162 -0.313792 -2.75519 0
M  V30 2417 H 240.113 -0.636088 -1.45395 0
M  V30 2418 H 240.134 0.906667 -3.6954 0
M  V30 2419 H 239.646 -0.916501 -3.77123 0
M  V30 2420 H 237.747 1.52135 -3.40126 0
M  V30 2421 H 237.86 0.242309 -4.78487 0
M  V30 2422 H 236.224 0.225363 -2.53701 0
M  V30 2423 H 237.007 -1.32232 -3.16812 0
M  V30 2424 N 239.452 1.56882 -0.150215 0
M  V30 2425 C 240.682 2.00302 0.506213 0
M  V30 2426 C 241.09 1.02934 1.58749 0
M  V30 2427 O 240.433 0.0188384 1.8369 0
M  V30 2428 C 240.495 3.40156 1.16337 0
M  V30 2429 C 240.159 4.56439 0.226311 0
M  V30 2430 C 241.156 5.17012 -0.547265 0
M  V30 2431 C 238.841 5.02136 0.128279 0
M  V30 2432 C 240.835 6.21693 -1.40629 0
M  V30 2433 C 238.522 6.06672 -0.734345 0
M  V30 2434 C 239.52 6.6632 -1.50023 0
M  V30 2435 O 239.208 7.68831 -2.34848 0
M  V30 2436 H 238.94 0.662182 0.135984 0
M  V30 2437 H 241.494 2.03961 -0.242746 0
M  V30 2438 H 239.724 3.33346 1.96004 0
M  V30 2439 H 241.413 3.67663 1.71985 0
M  V30 2440 H 242.179 4.82603 -0.48158 0
M  V30 2441 H 238.058 4.55435 0.714157 0
M  V30 2442 H 241.602 6.68179 -2.00455 0
M  V30 2443 H 237.499 6.40507 -0.801309 0
M  V30 2444 H 238.267 7.86065 -2.28131 0
M  V30 2445 N 240.93 -0.123565 1.57115 0
M  V30 2446 C 241.862 -1.17739 1.96648 0
M  V30 2447 C 242.875 -1.37906 0.865201 0
M  V30 2448 O 244.064 -1.37062 1.14351 0
M  V30 2449 C 241.164 -2.53821 2.24562 0
M  V30 2450 C 240.337 -2.54317 3.55867 0
M  V30 2451 C 239.396 -3.72112 3.72047 0
M  V30 2452 O 238.422 -3.55907 4.44206 0
M  V30 2453 N 239.624 -4.90498 3.10471 0
M  V30 2454 H 242.389 -0.841147 2.87654 0
M  V30 2455 H 239.95 -0.31289 1.58848 0
M  V30 2456 H 241.942 -3.31175 2.32606 0
M  V30 2457 H 240.512 -2.79645 1.39705 0
M  V30 2458 H 239.732 -1.62711 3.59053 0
M  V30 2459 H 241.02 -2.51701 4.42181 0
M  V30 2460 H 240.418 -5.06567 2.51806 0
M  V30 2461 H 238.975 -5.65544 3.24043 0
M  V30 2462 N 242.408 -1.52605 -0.393616 0
M  V30 2463 C 243.656 -1.67093 -1.13685 0
M  V30 2464 C 243.977 -0.411011 -1.90619 0
M  V30 2465 O 243.247 0.574491 -1.87287 0
M  V30 2466 H 241.827 -0.615923 -0.422668 0
M  V30 2467 H 244.489 -1.89704 -0.447039 0
M  V30 2468 H 243.585 -2.51922 -1.84232 0
M  V30 2469 N 243.887 0.651787 -1.4349 0
M  V30 2470 C 245.298 1.233 -1.40193 0
M  V30 2471 C 245.649 1.9591 -0.106727 0
M  V30 2472 O 244.774 2.01316 0.793773 0
M  V30 2473 C 245.369 2.24257 -2.53957 0
M  V30 2474 C 243.928 2.77852 -2.5392 0
M  V30 2475 C 243.075 1.52517 -2.3159 0
M  V30 2476 H 246.026 0.443717 -1.52371 0
M  V30 2477 H 246.047 3.0646 -2.25528 0
M  V30 2478 H 245.559 1.71382 -3.4821 0
M  V30 2479 H 243.66 3.34786 -1.63551 0
M  V30 2480 H 243.773 3.25299 -3.51735 0
M  V30 2481 H 242.137 1.79915 -1.80285 0
M  V30 2482 H 242.92 1.01574 -3.27929 0
M  V30 2483 N 245.365 1.30045 0.890287 0
M  V30 2484 C 246.59 1.21598 1.68014 0
M  V30 2485 C 247.015 -0.218678 1.86825 0
M  V30 2486 O 246.373 -1.15756 1.39536 0
M  V30 2487 C 246.421 1.94434 3.03691 0
M  V30 2488 O 245.525 1.2678 3.92429 0
M  V30 2489 H 244.866 0.420856 0.513592 0
M  V30 2490 H 247.396 1.71775 1.11151 0
M  V30 2491 H 247.406 2.03251 3.5377 0
M  V30 2492 H 246.081 2.98777 2.89318 0
M  V30 2493 H 244.658 1.26282 3.50866 0
M  V30 2494 N 246.843 -1.10192 1.12674 0
M  V30 2495 C 248.259 -1.34235 0.863317 0
M  V30 2496 C 248.459 -1.95062 -0.505277 0
M  V30 2497 O 247.515 -2.19192 -1.25345 0
M  V30 2498 C 248.828 -2.2616 1.98172 0
M  V30 2499 C 250.376 -2.3969 2.0129 0
M  V30 2500 C 250.851 -3.34946 3.1237 0
M  V30 2501 N 252.342 -3.42515 3.11829 0
M  V30 2502 C 253.077 -4.16199 3.94419 0
M  V30 2503 N 252.573 -4.92747 4.87004 0
M  V30 2504 N 254.366 -4.11843 3.82547 0
M  V30 2505 H 246.517 -0.690798 2.00853 0
M  V30 2506 H 248.78 -0.366774 0.874174 0
M  V30 2507 H 248.486 -1.8868 2.96804 0
M  V30 2508 H 248.36 -3.26488 1.88906 0
M  V30 2509 H 250.747 -2.76438 1.03276 0
M  V30 2510 H 250.828 -1.39169 2.14629 0
M  V30 2511 H 250.472 -2.98923 4.10619 0
M  V30 2512 H 250.402 -4.35353 2.96269 0
M  V30 2513 H 252.893 -2.87926 2.44759 0
M  V30 2514 H 253.206 -5.46376 5.46528 0
M  V30 2515 H 251.551 -4.91862 4.91016 0
M  V30 2516 H 254.742 -3.51136 3.0955 0
M  V30 2517 H 254.915 -4.69007 4.47142 0
M  V30 2518 N 248.321 -0.919034 -1.28029 0
M  V30 2519 C 249.598 -0.473668 -1.89778 0
M  V30 2520 C 249.978 1.04783 -1.83259 0
M  V30 2521 O 249.326 1.8982 -1.27202 0
M  V30 2522 C 249.536 -1.00998 -3.34066 0
M  V30 2523 C 250.884 -1.06525 -4.1102 0
M  V30 2524 O 251.908 -0.958996 -3.43048 0
M  V30 2525 O 250.767 -1.22776 -5.3253 0
M  V30 2526 H 247.861 -0.15098 -0.813101 0
M  V30 2527 H 250.407 -1.01016 -1.36359 0
M  V30 2528 H 249.179 -2.05392 -3.33061 0
M  V30 2529 H 248.802 -0.454626 -3.94992 0
M  V30 2530 N 249.799 1.42003 -0.683588 0
M  V30 2531 C 251.21 1.84501 -0.285736 0
M  V30 2532 C 251.561 1.57213 1.17382 0
M  V30 2533 O 250.686 1.03642 1.89966 0
M  V30 2534 C 251.281 3.34912 -0.511821 0
M  V30 2535 C 249.84 3.76025 -0.168005 0
M  V30 2536 C 248.987 2.6551 -0.799983 0
M  V30 2537 H 251.938 1.31724 -0.885119 0
M  V30 2538 H 251.959 3.79784 0.233292 0
M  V30 2539 H 251.471 3.54741 -1.57418 0
M  V30 2540 H 249.572 3.61801 0.890567 0
M  V30 2541 H 249.685 4.75141 -0.614661 0
M  V30 2542 H 248.049 2.53654 -0.230568 0
M  V30 2543 H 248.832 2.8816 -1.86597 0
M  V30 2544 N 251.277 0.427512 1.51691 0
M  V30 2545 C 252.554 -0.201684 1.94557 0
M  V30 2546 C 252.934 -1.60981 1.36559 0
M  V30 2547 O 252.282 -2.21814 0.548702 0
M  V30 2548 C 252.492 -0.189394 3.48486 0
M  V30 2549 C 253.84 -0.39978 4.22714 0
M  V30 2550 O 254.864 -0.267945 3.55191 0
M  V30 2551 O 253.723 -0.661249 5.42485 0
M  V30 2552 H 250.817 -0.135261 0.815864 0
M  V30 2553 H 253.363 0.484782 1.62628 0
M  V30 2554 H 252.135 0.795431 3.8313 0
M  V30 2555 H 251.758 -0.919187 3.86829 0
M  V30 2556 N 252.755 -1.56801 0.158532 0
M  V30 2557 C 253.687 -2.14488 -0.807923 0
M  V30 2558 C 254.7 -1.09721 -1.20271 0
M  V30 2559 O 255.889 -1.36956 -1.14478 0
M  V30 2560 C 252.989 -2.66217 -2.09718 0
M  V30 2561 C 252.162 -3.95507 -1.86796 0
M  V30 2562 C 251.221 -4.3243 -2.99818 0
M  V30 2563 O 250.247 -5.00543 -2.71008 0
M  V30 2564 N 251.449 -3.92947 -4.27285 0
M  V30 2565 H 254.214 -2.98042 -0.314816 0
M  V30 2566 H 251.775 -1.61881 -0.0246692 0
M  V30 2567 H 253.767 -2.87924 -2.84398 0
M  V30 2568 H 252.337 -1.87324 -2.50257 0
M  V30 2569 H 251.557 -3.82309 -0.96089 0
M  V30 2570 H 252.845 -4.79972 -1.68833 0
M  V30 2571 H 252.243 -3.38087 -4.53557 0
M  V30 2572 H 250.8 -4.19681 -4.9871 0
M  V30 2573 N 254.233 0.115231 -1.57178 0
M  V30 2574 C 255.18 1.14115 -2.00615 0
M  V30 2575 C 256.15 1.40939 -0.878941 0
M  V30 2576 O 257.335 1.52741 -1.14345 0
M  V30 2577 C 254.475 2.46156 -2.4187 0
M  V30 2578 C 253.588 2.26236 -3.68024 0
M  V30 2579 C 252.723 3.51534 -3.98243 0
M  V30 2580 C 251.762 3.26787 -5.17568 0
M  V30 2581 N 250.899 4.44298 -5.43639 0
M  V30 2582 H 255.739 0.763743 -2.88047 0
M  V30 2583 H 253.276 0.365615 -1.42484 0
M  V30 2584 H 255.234 3.23189 -2.63827 0
M  V30 2585 H 253.864 2.81783 -1.57475 0
M  V30 2586 H 252.916 1.40102 -3.5366 0
M  V30 2587 H 254.228 2.03929 -4.55208 0
M  V30 2588 H 253.382 4.36984 -4.20868 0
M  V30 2589 H 252.121 3.76876 -3.09541 0
M  V30 2590 H 251.126 2.39729 -4.94783 0
M  V30 2591 H 252.351 3.02812 -6.0785 0
M  V30 2592 H 250.297 4.69754 -4.57895 0
M  V30 2593 H 250.214 4.25109 -6.25154 0
M  V30 2594 H 251.482 5.3087 -5.70786 0
M  V30 2595 N 255.711 1.52812 0.385517 0
M  V30 2596 C 256.959 1.67694 1.12797 0
M  V30 2597 C 257.28 0.421115 1.90399 0
M  V30 2598 O 256.55 -0.564551 1.87589 0
M  V30 2599 H 255.13 0.618155 0.419396 0
M  V30 2600 H 257.792 1.89938 0.436972 0
M  V30 2601 H 256.888 2.52896 1.82894 0
M  V30 2602 N 257.189 -0.644168 1.43834 0
M  V30 2603 C 258.136 -1.75671 1.49694 0
M  V30 2604 C 259.106 -1.6246 0.345809 0
M  V30 2605 O 260.291 -1.82573 0.554234 0
M  V30 2606 C 257.431 -3.13867 1.43463 0
M  V30 2607 C 256.544 -3.38147 2.6885 0
M  V30 2608 C 255.679 -4.66241 2.54544 0
M  V30 2609 C 254.718 -4.83657 3.75157 0
M  V30 2610 N 253.855 -6.03016 3.59605 0
M  V30 2611 H 258.695 -1.69998 2.44754 0
M  V30 2612 H 256.232 -0.829458 1.21484 0
M  V30 2613 H 258.19 -3.9377 1.37843 0
M  V30 2614 H 256.82 -3.18588 0.519783 0
M  V30 2615 H 255.872 -2.52276 2.84712 0
M  V30 2616 H 257.184 -3.46899 3.58417 0
M  V30 2617 H 256.338 -5.54285 2.46683 0
M  V30 2618 H 255.077 -4.59826 1.62516 0
M  V30 2619 H 254.082 -3.94046 3.83416 0
M  V30 2620 H 255.307 -4.91896 4.68204 0
M  V30 2621 H 253.253 -5.97715 2.7032 0
M  V30 2622 H 253.17 -6.12766 4.42779 0
M  V30 2623 H 254.438 -6.93657 3.55613 0
M  V30 2624 N 258.668 -1.30515 -0.883378 0
M  V30 2625 C 260.084 -1.08881 -1.16692 0
M  V30 2626 C 260.284 0.149409 -2.00945 0
M  V30 2627 O 259.34 0.84257 -2.38027 0
M  V30 2628 C 260.653 -2.35319 -1.87204 0
M  V30 2629 C 262.201 -2.40799 -1.99962 0
M  V30 2630 C 262.676 -3.67083 -2.73887 0
M  V30 2631 N 264.167 -3.679 -2.81432 0
M  V30 2632 C 264.902 -4.62303 -3.3921 0
M  V30 2633 N 264.398 -5.67052 -3.98025 0
M  V30 2634 N 266.191 -4.49845 -3.3704 0
M  V30 2635 H 258.342 -2.09951 -0.321633 0
M  V30 2636 H 260.605 -0.92556 -0.205043 0
M  V30 2637 H 260.311 -3.25689 -1.3274 0
M  V30 2638 H 260.185 -2.44089 -2.87577 0
M  V30 2639 H 262.572 -1.50907 -2.53597 0
M  V30 2640 H 262.653 -2.36003 -0.98673 0
M  V30 2641 H 262.297 -4.57334 -2.20925 0
M  V30 2642 H 262.227 -3.69141 -3.75556 0
M  V30 2643 H 264.718 -2.92171 -2.39676 0
M  V30 2644 H 265.031 -6.35184 -4.40183 0
M  V30 2645 H 263.376 -5.70842 -3.96439 0
M  V30 2646 H 266.567 -3.67194 -2.90321 0
M  V30 2647 H 266.74 -5.23597 -3.81772 0
M  V30 2648 N 260.146 1.09593 -1.13257 0
M  V30 2649 C 261.094 2.18271 -0.803783 0
M  V30 2650 C 262.088 1.68054 0.213148 0
M  V30 2651 O 263.294 1.79862 0.0704699 0
M  V30 2652 H 259.669 0.711949 -0.242143 0
M  V30 2653 H 261.64 2.43235 -1.72856 0
M  V30 2654 C 260.389 3.46536 -0.28424 0
M  V30 2655 H 259.712 3.85545 -1.05807 0
M  V30 2656 H 261.152 4.23899 -0.0925945 0
M  V30 2657 C 259.611 3.22036 0.989684 0
M  V30 2658 O 260.141 3.44509 2.06584 0
M  V30 2659 N 258.347 2.7565 0.920086 0
M  V30 2660 H 257.894 2.57562 0.0442019 0
M  V30 2661 H 257.852 2.59635 1.77306 0
M  V30 2662 N 261.624 0.925811 1.2754 0
M  V30 2663 C 262.852 0.581509 1.9856 0
M  V30 2664 C 263.267 -0.840041 1.69082 0
M  V30 2665 O 262.624 -1.55805 0.950312 0
M  V30 2666 C 262.675 0.795589 3.52637 0
M  V30 2667 O 262.396 2.16121 3.81082 0
M  V30 2668 C 263.897 0.459744 4.4091 0
M  V30 2669 H 261.117 0.220538 0.633722 0
M  V30 2670 H 263.661 1.24232 1.6244 0
M  V30 2671 H 261.816 0.18161 3.86974 0
M  V30 2672 H 262.23 2.2098 4.75676 0
M  V30 2673 H 263.704 0.660244 5.48037 0
M  V30 2674 H 264.181 -0.604625 4.35018 0
M  V30 2675 H 264.787 1.05178 4.12089 0
M  V30 2676 N 263.102 -1.41638 0.69111 0
M  V30 2677 C 264.349 -2.01299 0.220193 0
M  V30 2678 C 264.677 -1.54715 -1.17871 0
M  V30 2679 O 263.932 -0.747193 -1.80874 0
M  V30 2680 C 264.231 -3.56714 0.221277 0
M  V30 2681 C 263.897 -4.22792 1.56709 0
M  V30 2682 C 262.559 -4.40557 1.93554 0
M  V30 2683 C 264.911 -4.59883 2.45268 0
M  V30 2684 C 262.239 -4.92688 3.18552 0
M  V30 2685 C 264.591 -5.13403 3.69595 0
M  V30 2686 C 263.255 -5.29379 4.06589 0
M  V30 2687 H 262.525 -0.736606 0.0805743 0
M  V30 2688 H 265.172 -1.69598 0.889319 0
M  V30 2689 H 263.477 -3.8818 -0.531391 0
M  V30 2690 H 265.174 -4.00678 -0.160547 0
M  V30 2691 H 261.764 -4.09336 1.2705 0
M  V30 2692 H 265.948 -4.45817 2.18084 0
M  V30 2693 H 261.204 -5.03242 3.47214 0
M  V30 2694 H 265.378 -5.41084 4.38407 0
M  V30 2695 H 263.005 -5.69537 5.03519 0
M  V30 2696 N 264.58 -0.43555 -1.51462 0
M  V30 2697 C 265.512 0.41257 -2.25456 0
M  V30 2698 C 266.525 0.987822 -1.29406 0
M  V30 2699 O 267.714 0.882266 -1.55172 0
M  V30 2700 C 264.814 1.58894 -2.99342 0
M  V30 2701 C 263.987 1.13288 -4.22474 0
M  V30 2702 C 263.046 2.17917 -4.78956 0
M  V30 2703 O 262.072 1.77425 -5.40841 0
M  V30 2704 N 263.274 3.50382 -4.62832 0
M  V30 2705 H 266.039 -0.221603 -2.9888 0
M  V30 2706 H 263.6 -0.264342 -1.59727 0
M  V30 2707 H 265.592 2.28508 -3.34015 0
M  V30 2708 H 264.162 2.12849 -2.28941 0
M  V30 2709 H 263.382 0.263881 -3.93316 0
M  V30 2710 H 264.67 0.805542 -5.02383 0
M  V30 2711 H 264.068 3.86013 -4.13534 0
M  V30 2712 H 262.625 4.15895 -5.01871 0
M  V30 2713 N 266.058 1.56714 -0.166846 0
M  V30 2714 C 267.021 2.16539 0.751232 0
M  V30 2715 C 268.021 1.11228 1.16125 0
M  V30 2716 O 269.211 1.36765 1.07894 0
M  V30 2717 C 266.343 2.74462 2.02196 0
M  V30 2718 H 267.536 2.99013 0.230499 0
M  V30 2719 H 265.089 1.56081 0.0826982 0
M  V30 2720 H 265.824 1.95709 2.58589 0
M  V30 2721 H 265.609 3.51527 1.73698 0
M  V30 2722 H 267.099 3.20489 2.67725 0
M  V30 2723 N 267.536 -0.106894 1.57237 0
M  V30 2724 C 268.782 -0.81373 1.85759 0
M  V30 2725 C 269.115 -1.78952 0.754315 0
M  V30 2726 O 268.39 -1.93029 -0.23879 0
M  V30 2727 C 268.673 -1.55293 3.24894 0
M  V30 2728 C 268.526 -0.595929 4.45835 0
M  V30 2729 C 269.845 -2.5063 3.61763 0
M  V30 2730 H 266.964 -0.294369 0.67566 0
M  V30 2731 H 269.606 -0.0776472 1.89841 0
M  V30 2732 H 267.756 -2.1804 3.21544 0
M  V30 2733 H 269.428 0.0236262 4.61294 0
M  V30 2734 H 267.671 0.0916191 4.33703 0
M  V30 2735 H 268.342 -1.15004 5.39887 0
M  V30 2736 H 270.818 -1.97982 3.65981 0
M  V30 2737 H 269.694 -2.99376 4.60071 0
M  V30 2738 H 269.955 -3.3385 2.89821 0
M  V30 2739 N 269.014 -1.53014 -0.377408 0
M  V30 2740 C 269.944 -1.81589 -1.46791 0
M  V30 2741 C 270.925 -0.668622 -1.56408 0
M  V30 2742 O 272.11 -0.917337 -1.71168 0
M  V30 2743 C 269.24 -1.99519 -2.8427 0
M  V30 2744 C 268.194 -3.15249 -2.89486 0
M  V30 2745 C 267.52 -3.18451 -4.29527 0
M  V30 2746 C 268.82 -4.54084 -2.58079 0
M  V30 2747 H 270.514 -2.7291 -1.23127 0
M  V30 2748 H 268.06 -1.31319 -0.590883 0
M  V30 2749 H 270.013 -2.18092 -3.60575 0
M  V30 2750 H 268.737 -1.04897 -3.09296 0
M  V30 2751 H 267.396 -2.96477 -2.15631 0
M  V30 2752 H 267.044 -2.2149 -4.5161 0
M  V30 2753 H 266.744 -3.962 -4.33934 0
M  V30 2754 H 268.268 -3.39193 -5.07721 0
M  V30 2755 H 269.682 -4.72899 -3.24098 0
M  V30 2756 H 268.079 -5.33987 -2.7382 0
M  V30 2757 H 269.149 -4.60006 -1.53372 0
M  V30 2758 N 270.492 0.636531 -1.44174 0
M  V30 2759 C 271.455 1.73063 -1.50273 0
M  V30 2760 C 272.455 1.56113 -0.385397 0
M  V30 2761 O 273.645 1.61707 -0.64781 0
M  V30 2762 C 270.777 3.12096 -1.37145 0
M  V30 2763 H 271.97 1.69031 -2.47727 0
M  V30 2764 H 269.523 0.849706 -1.31186 0
M  V30 2765 H 270.258 3.21728 -0.407636 0
M  V30 2766 H 270.043 3.25805 -2.18159 0
M  V30 2767 H 271.533 3.91846 -1.44382 0
M  V30 2768 N 271.97 1.30982 0.876444 0
M  V30 2769 C 273.195 1.23373 1.66715 0
M  V30 2770 C 273.62 -0.19885 1.87046 0
M  V30 2771 O 272.978 -1.1427 1.40756 0
M  V30 2772 C 273.026 1.97644 3.01611 0
M  V30 2773 O 272.13 1.30935 3.91062 0
M  V30 2774 H 271.471 0.426279 0.509099 0
M  V30 2775 H 274.001 1.72944 1.09323 0
M  V30 2776 H 274.011 2.06992 3.51594 0
M  V30 2777 H 272.686 3.01829 2.86133 0
M  V30 2778 H 271.263 1.29996 3.49507 0
M  V30 2779 N 273.449 -1.08991 1.13837 0
M  V30 2780 C 274.674 -1.85551 0.926585 0
M  V30 2781 C 275.099 -1.80782 -0.519566 0
M  V30 2782 O 274.457 -1.18855 -1.36906 0
M  V30 2783 C 274.505 -3.31266 1.42462 0
M  V30 2784 O 273.609 -4.07822 0.612789 0
M  V30 2785 H 272.95 -0.575192 0.331738 0
M  V30 2786 H 275.48 -1.37604 1.51414 0
M  V30 2787 H 275.49 -3.82112 1.43019 0
M  V30 2788 H 274.165 -3.34052 2.47754 0
M  V30 2789 H 272.742 -3.66731 0.675463 0
M  V30 2790 N 274.927 -0.932562 -1.27047 0
M  V30 2791 C 276.204 -0.49377 -1.89265 0
M  V30 2792 C 276.584 1.02833 -1.8436 0
M  V30 2793 O 275.932 1.88461 -1.29209 0
M  V30 2794 C 276.142 -1.04536 -3.32976 0
M  V30 2795 C 277.49 -1.10879 -4.09867 0
M  V30 2796 O 278.514 -0.995327 -3.42011 0
M  V30 2797 O 277.373 -1.28417 -5.31198 0
M  V30 2798 H 274.467 -0.159596 -0.811454 0
M  V30 2799 H 277.013 -1.02457 -1.3528 0
M  V30 2800 H 275.785 -2.08913 -3.30864 0
M  V30 2801 H 275.408 -0.496494 -3.94488 0
M  V30 2802 N 276.405 1.4127 -0.698611 0
M  V30 2803 C 277.63 2.06024 -0.238512 0
M  V30 2804 C 278.055 1.5224 1.10475 0
M  V30 2805 O 277.413 0.650623 1.69223 0
M  V30 2806 C 277.461 3.59988 -0.209952 0
M  V30 2807 O 276.565 4.04282 0.814235 0
M  V30 2808 H 275.906 0.653829 -0.115775 0
M  V30 2809 H 278.436 1.8098 -0.954326 0
M  V30 2810 H 278.446 4.07979 -0.0418436 0
M  V30 2811 H 277.121 3.98503 -1.1903 0
M  V30 2812 H 275.698 3.6779 0.615234 0
M  V30 2813 N 277.883 0.443576 1.51229 0
M  V30 2814 C 279.108 -0.121648 2.07043 0
M  V30 2815 C 279.533 -1.35156 1.30823 0
M  V30 2816 O 278.891 -1.7793 0.347934 0
M  V30 2817 C 278.939 -0.41624 3.5819 0
M  V30 2818 O 278.043 -1.50163 3.8409 0
M  V30 2819 H 277.384 0.000871367 0.663999 0
M  V30 2820 H 279.914 0.626706 1.94765 0
M  V30 2821 H 279.924 -0.664867 4.02546 0
M  V30 2822 H 278.599 0.482653 4.1309 0
M  V30 2823 H 277.176 -1.24248 3.51592 0
M  V30 2824 N 279.361 -1.56624 0.175154 0
M  V30 2825 C 280.586 -2.01813 -0.478137 0
M  V30 2826 C 281.011 -1.05457 -1.55757 0
M  V30 2827 O 280.369 -0.0347439 -1.81267 0
M  V30 2828 C 280.417 -3.45581 -1.02987 0
M  V30 2829 O 279.521 -3.52305 -2.14371 0
M  V30 2830 H 278.862 -0.65413 -0.114059 0
M  V30 2831 H 281.392 -2.02673 0.280173 0
M  V30 2832 H 281.402 -3.84965 -1.35151 0
M  V30 2833 H 280.077 -4.1521 -0.239556 0
M  V30 2834 H 278.654 -3.24783 -1.83222 0
M  V30 2835 N 280.839 0.0985539 -1.57292 0
M  V30 2836 C 282.069 0.815135 -1.8984 0
M  V30 2837 C 282.477 1.7297 -0.766679 0
M  V30 2838 O 281.82 1.81698 0.270483 0
M  V30 2839 C 281.882 1.6842 -3.17608 0
M  V30 2840 C 281.546 0.94182 -4.4719 0
M  V30 2841 C 282.543 0.273212 -5.19182 0
M  V30 2842 C 280.228 0.916927 -4.9386 0
M  V30 2843 C 282.222 -0.410361 -6.36078 0
M  V30 2844 C 279.909 0.229567 -6.10669 0
M  V30 2845 C 280.907 -0.432902 -6.81627 0
M  V30 2846 O 280.595 -1.10925 -7.9621 0
M  V30 2847 H 280.327 0.238501 -0.632529 0
M  V30 2848 H 282.881 0.0812659 -2.05239 0
M  V30 2849 H 281.111 2.46022 -2.98345 0
M  V30 2850 H 282.8 2.27704 -3.36015 0
M  V30 2851 H 283.566 0.283927 -4.84168 0
M  V30 2852 H 279.445 1.42201 -4.3852 0
M  V30 2853 H 282.989 -0.928013 -6.914 0
M  V30 2854 H 278.886 0.216686 -6.45136 0
M  V30 2855 H 279.654 -1.01579 -8.12172 0
M  V30 2856 N 282.317 1.53212 0.369288 0
M  V30 2857 C 283.28 1.7872 1.43498 0
M  V30 2858 C 284.28 0.657554 1.46741 0
M  V30 2859 O 285.47 0.925736 1.47566 0
M  V30 2860 C 282.602 1.90591 2.82645 0
M  V30 2861 H 283.795 2.73894 1.22156 0
M  V30 2862 H 281.348 1.44233 0.602203 0
M  V30 2863 H 282.083 0.974709 3.09306 0
M  V30 2864 H 281.868 2.72751 2.8169 0
M  V30 2865 H 283.358 2.11931 3.59826 0
M  V30 2866 N 283.795 -0.628877 1.44509 0
M  V30 2867 C 285.044 -1.38437 1.4669 0
M  V30 2868 C 285.357 -1.95322 0.104272 0
M  V30 2869 O 286.563 -2.715 0.00362163 0
M  V30 2870 C 285.019 -2.50659 2.5826 0
M  V30 2871 C 284.627 -2.00277 4.0074 0
M  V30 2872 C 286.371 -3.27844 2.69664 0
M  V30 2873 C 284.278 -3.09854 5.0373 0
M  V30 2874 H 283.208 -0.520245 0.545766 0
M  V30 2875 H 285.859 -0.676313 1.70582 0
M  V30 2876 H 284.241 -3.2405 2.27612 0
M  V30 2877 H 285.415 -1.33736 4.40966 0
M  V30 2878 H 283.73 -1.35901 3.93599 0
M  V30 2879 H 286.327 -4.09534 3.43781 0
M  V30 2880 H 286.67 -3.77471 1.75559 0
M  V30 2881 H 287.203 -2.61543 2.99733 0
M  V30 2882 H 283.942 -2.65168 5.99472 0
M  V30 2883 H 283.462 -3.7503 4.68095 0
M  V30 2884 H 285.141 -3.74592 5.27532 0
M  V30 2885 N 285.273 -1.31445 -0.869486 0
M  V30 2886 C 286.52 -1.21158 -1.62256 0
M  V30 2887 C 286.848 0.230155 -1.93133 0
M  V30 2888 O 286.103 1.17906 -1.56194 0
M  V30 2889 C 286.402 -2.00145 -2.96102 0
M  V30 2890 C 286.068 -3.4964 -2.84715 0
M  V30 2891 C 284.73 -3.90403 -2.81317 0
M  V30 2892 C 287.082 -4.44769 -2.71716 0
M  V30 2893 C 284.41 -5.24561 -2.62778 0
M  V30 2894 C 286.762 -5.79054 -2.54714 0
M  V30 2895 C 285.426 -6.19037 -2.49699 0
M  V30 2896 H 284.696 -0.443348 -0.593737 0
M  V30 2897 H 287.343 -1.62715 -1.00976 0
M  V30 2898 H 285.648 -1.5127 -3.6142 0
M  V30 2899 H 287.345 -1.89566 -3.53363 0
M  V30 2900 H 283.935 -3.17256 -2.88178 0
M  V30 2901 H 288.119 -4.14208 -2.73397 0
M  V30 2902 H 283.375 -5.54613 -2.57321 0
M  V30 2903 H 287.549 -6.52393 -2.43632 0
M  V30 2904 H 285.176 -7.22935 -2.35093 0
M  V30 2905 N 286.751 1.08385 -1.14413 0
M  V30 2906 C 287.681 2.17321 -0.854044 0
M  V30 2907 C 288.662 1.69024 0.191049 0
M  V30 2908 O 289.847 1.94141 0.0476779 0
M  V30 2909 C 286.977 3.45719 -0.330983 0
M  V30 2910 C 285.931 4.07409 -1.31155 0
M  V30 2911 C 285.257 5.30762 -0.64778 0
M  V30 2912 C 286.557 4.48665 -2.67388 0
M  V30 2913 H 288.251 2.41845 -1.76498 0
M  V30 2914 H 285.797 1.16233 -0.850051 0
M  V30 2915 H 287.75 4.21241 -0.115645 0
M  V30 2916 H 286.474 3.2075 0.615381 0
M  V30 2917 H 285.133 3.33919 -1.51306 0
M  V30 2918 H 284.781 5.02078 0.304398 0
M  V30 2919 H 284.481 5.72992 -1.30207 0
M  V30 2920 H 286.005 6.08998 -0.441972 0
M  V30 2921 H 287.419 5.15364 -2.51143 0
M  V30 2922 H 285.816 5.01814 -3.29093 0
M  V30 2923 H 286.886 3.60543 -3.24248 0
M  V30 2924 N 288.23 0.939286 1.26551 0
M  V30 2925 C 289.46 0.601663 1.97645 0
M  V30 2926 C 289.868 -0.827206 1.70159 0
M  V30 2927 O 289.211 -1.56291 0.965338 0
M  V30 2928 C 289.273 0.761725 3.51337 0
M  V30 2929 C 288.937 2.16487 4.0247 0
M  V30 2930 C 289.934 3.14016 4.14355 0
M  V30 2931 C 287.619 2.48494 4.36527 0
M  V30 2932 C 289.613 4.41654 4.59587 0
M  V30 2933 C 287.3 3.76364 4.81449 0
M  V30 2934 C 288.298 4.72758 4.92939 0
M  V30 2935 O 287.986 5.98352 5.36871 0
M  V30 2936 H 287.718 0.225758 0.637189 0
M  V30 2937 H 290.272 1.26178 1.62075 0
M  V30 2938 H 288.502 0.0444808 3.86674 0
M  V30 2939 H 290.191 0.427442 4.03643 0
M  V30 2940 H 290.957 2.90613 3.8829 0
M  V30 2941 H 286.836 1.74202 4.26819 0
M  V30 2942 H 290.38 5.16896 4.68471 0
M  V30 2943 H 286.277 3.99582 5.06956 0
M  V30 2944 H 287.045 6.01507 5.55096 0
M  V30 2945 N 289.708 -1.40897 0.706093 0
M  V30 2946 C 291.119 -1.84023 0.315052 0
M  V30 2947 C 291.47 -1.5906 -1.14866 0
M  V30 2948 O 290.595 -1.06651 -1.88293 0
M  V30 2949 C 291.19 -3.34055 0.565038 0
M  V30 2950 C 289.749 -3.7571 0.227806 0
M  V30 2951 C 288.896 -2.64204 0.842122 0
M  V30 2952 H 291.847 -1.303 0.905963 0
M  V30 2953 H 291.868 -3.80107 -0.172843 0
M  V30 2954 H 291.38 -3.52192 1.63042 0
M  V30 2955 H 289.481 -3.63172 -0.832895 0
M  V30 2956 H 289.594 -4.74103 0.690174 0
M  V30 2957 H 287.958 -2.53255 0.270893 0
M  V30 2958 H 288.741 -2.85155 1.91158 0
M  V30 2959 N 291.186 -0.45159 -1.50991 0
M  V30 2960 C 292.096 0.358431 -2.31846 0
M  V30 2961 C 293.112 1.01438 -1.41373 0
M  V30 2962 O 294.288 1.00663 -1.74439 0
M  V30 2963 C 291.353 1.43704 -3.15515 0
M  V30 2964 C 290.414 0.799742 -4.21785 0
M  V30 2965 C 289.647 1.82696 -5.01456 0
M  V30 2966 O 289.87 3.05105 -4.81941 0
M  V30 2967 O 288.804 1.40958 -5.85162 0
M  V30 2968 H 292.63 -0.302032 -3.02194 0
M  V30 2969 H 290.215 -0.213825 -1.47862 0
M  V30 2970 H 292.097 2.06227 -3.67489 0
M  V30 2971 H 290.772 2.08133 -2.47916 0
M  V30 2972 H 289.679 0.136084 -3.73852 0
M  V30 2973 H 291.012 0.198718 -4.91799 0
M  V30 2974 N 292.664 1.56529 -0.183458 0
M  V30 2975 C 293.941 1.88959 0.50536 0
M  V30 2976 C 294.321 1.09523 1.80466 0
M  V30 2977 O 293.669 0.19278 2.27685 0
M  V30 2978 C 293.879 3.41162 0.73547 0
M  V30 2979 C 295.227 4.11155 1.06005 0
M  V30 2980 O 296.251 3.46548 0.823594 0
M  V30 2981 O 295.11 5.25318 1.50675 0
M  V30 2982 H 292.204 0.78441 0.261973 0
M  V30 2983 H 294.75 1.68231 -0.222802 0
M  V30 2984 H 293.522 3.90874 -0.182561 0
M  V30 2985 H 293.145 3.67543 1.51651 0
M  V30 2986 N 294.142 -0.090211 1.57342 0
M  V30 2987 C 295.39 -0.791241 1.85967 0
M  V30 2988 C 295.711 -1.7903 0.772859 0
M  V30 2989 O 294.981 -1.94872 -0.200398 0
M  V30 2990 H 293.561 -0.295205 0.686195 0
M  V30 2991 H 296.223 -0.0706782 1.94772 0
M  V30 2992 H 295.319 -1.31882 2.82867 0
M  V30 2993 N 295.62 -1.53406 -0.361157 0
M  V30 2994 C 296.55 -1.83136 -1.44857 0
M  V30 2995 C 297.531 -0.685174 -1.5569 0
M  V30 2996 O 298.716 -0.93544 -1.70186 0
M  V30 2997 C 295.846 -2.02522 -2.82138 0
M  V30 2998 C 294.8 -3.18302 -2.86126 0
M  V30 2999 C 294.126 -3.22989 -4.26125 0
M  V30 3000 C 295.426 -4.56796 -2.53248 0
M  V30 3001 H 297.12 -2.74201 -1.20226 0
M  V30 3002 H 294.666 -1.31938 -0.576922 0
M  V30 3003 H 296.619 -2.21904 -3.58241 0
M  V30 3004 H 295.343 -1.08172 -3.08166 0
M  V30 3005 H 294.002 -2.98747 -2.12475 0
M  V30 3006 H 293.65 -2.26267 -4.49235 0
M  V30 3007 H 293.35 -4.00781 -4.29708 0
M  V30 3008 H 294.874 -3.44559 -5.04094 0
M  V30 3009 H 296.288 -4.7631 -3.19064 0
M  V30 3010 H 294.685 -5.36862 -2.68141 0
M  V30 3011 H 295.755 -4.61606 -1.48484 0
M  V30 3012 N 297.098 0.621204 -1.44841 0
M  V30 3013 C 298.03 1.74615 -1.48466 0
M  V30 3014 C 299.043 1.58377 -0.37691 0
M  V30 3015 O 300.232 1.66508 -0.643215 0
M  V30 3016 C 297.332 3.12459 -1.31236 0
M  V30 3017 C 296.505 3.55064 -2.55438 0
M  V30 3018 C 295.564 4.71821 -2.32963 0
M  V30 3019 O 294.59 4.79628 -3.06505 0
M  V30 3020 N 295.792 5.64186 -1.36654 0
M  V30 3021 H 298.557 1.71973 -2.45449 0
M  V30 3022 H 296.118 0.806077 -1.40407 0
M  V30 3023 H 298.11 3.88302 -1.14032 0
M  V30 3024 H 296.68 3.09686 -0.4258 0
M  V30 3025 H 295.9 2.69324 -2.87851 0
M  V30 3026 H 297.188 3.80284 -3.38026 0
M  V30 3027 H 296.586 5.6058 -0.759344 0
M  V30 3028 H 295.143 6.39618 -1.25425 0
M  V30 3029 N 298.576 1.31904 0.862503 0
M  V30 3030 C 299.823 1.22017 1.61611 0
M  V30 3031 C 300.151 -0.21991 1.93253 0
M  V30 3032 O 299.406 -1.17076 1.56817 0
M  V30 3033 C 299.705 2.01713 2.95037 0
M  V30 3034 C 299.371 3.51145 2.82857 0
M  V30 3035 C 298.033 3.91889 2.79243 0
M  V30 3036 C 300.385 4.46204 2.69353 0
M  V30 3037 C 297.713 5.25947 2.59993 0
M  V30 3038 C 300.065 5.80397 2.5164 0
M  V30 3039 C 298.729 6.20352 2.46413 0
M  V30 3040 H 297.999 0.44649 0.591378 0
M  V30 3041 H 300.646 1.63248 1.00111 0
M  V30 3042 H 298.951 1.53185 3.60613 0
M  V30 3043 H 300.648 1.91437 3.52353 0
M  V30 3044 H 297.238 3.1878 2.86491 0
M  V30 3045 H 301.422 4.15652 2.71196 0
M  V30 3046 H 296.678 5.5597 2.54376 0
M  V30 3047 H 300.852 6.53676 2.40169 0
M  V30 3048 H 298.479 7.24172 2.31256 0
M  V30 3049 N 300.054 -1.07777 1.14986 0
M  V30 3050 C 301.004 -2.13082 0.811181 0
M  V30 3051 C 301.988 -1.59619 -0.202597 0
M  V30 3052 O 303.18 -1.77 -0.00398275 0
M  V30 3053 C 300.309 -3.42009 0.297439 0
M  V30 3054 C 299.395 -4.02337 1.34112 0
M  V30 3055 N 299.786 -4.36982 2.54716 0
M  V30 3056 C 298.084 -4.29752 1.19285 0
M  V30 3057 C 298.785 -4.84729 3.21578 0
M  V30 3058 N 297.761 -4.83233 2.48972 0
M  V30 3059 H 301.563 -2.37696 1.72853 0
M  V30 3060 H 299.077 -1.25173 1.03468 0
M  V30 3061 H 301.074 -4.16884 0.0364777 0
M  V30 3062 H 299.734 -3.18841 -0.614022 0
M  V30 3063 H 300.745 -4.27807 2.91894 0
M  V30 3064 H 297.422 -4.16106 0.340926 0
M  V30 3065 H 298.812 -5.20863 4.24442 0
M  V30 3066 N 301.532 -0.945985 -1.26051 0
M  V30 3067 C 302.76 -0.613025 -1.9761 0
M  V30 3068 C 303.175 0.813035 -1.70397 0
M  V30 3069 O 302.532 1.54274 -0.974979 0
M  V30 3070 C 302.583 -0.85159 -3.51326 0
M  V30 3071 O 302.304 -2.22157 -3.77595 0
M  V30 3072 C 303.805 -0.529831 -4.40122 0
M  V30 3073 H 301.025 -0.230593 -0.630133 0
M  V30 3074 H 303.569 -1.268 -1.60443 0
M  V30 3075 H 301.724 -0.243151 -3.86636 0
M  V30 3076 H 302.138 -2.2852 -4.721 0
M  V30 3077 H 303.612 -0.747348 -5.46917 0
M  V30 3078 H 304.089 0.535341 -4.35925 0
M  V30 3079 H 304.695 -1.11721 -4.10364 0
M  V30 3080 N 303.011 1.40521 -0.713556 0
M  V30 3081 C 304.239 2.05237 -0.261775 0
M  V30 3082 C 304.654 1.53755 1.09567 0
M  V30 3083 O 304.011 0.693268 1.6882 0
M  V30 3084 C 304.062 3.60763 -0.230706 0
M  V30 3085 O 303.783 4.10345 -1.53455 0
M  V30 3086 C 305.284 4.42651 0.239874 0
M  V30 3087 H 302.504 0.660533 -0.118057 0
M  V30 3088 H 305.048 1.79967 -0.971192 0
M  V30 3089 H 303.203 3.8501 0.429661 0
M  V30 3090 H 303.617 5.04526 -1.43366 0
M  V30 3091 H 305.091 5.51599 0.210468 0
M  V30 3092 H 305.568 4.20082 1.28171 0
M  V30 3093 H 306.174 4.23507 -0.390142 0
M  V30 3094 N 304.489 0.459591 1.5075 0
M  V30 3095 C 305.736 -0.0993495 2.02256 0
M  V30 3096 C 306.064 -1.40751 1.34237 0
M  V30 3097 O 305.319 -1.90379 0.453228 0
M  V30 3098 C 305.618 -0.342866 3.55752 0
M  V30 3099 C 305.284 0.88218 4.42186 0
M  V30 3100 C 303.946 1.21808 4.65528 0
M  V30 3101 C 306.298 1.69837 4.92752 0
M  V30 3102 C 303.626 2.37045 5.36681 0
M  V30 3103 C 305.978 2.84192 5.65171 0
M  V30 3104 C 304.642 3.1821 5.8677 0
M  V30 3105 H 303.912 -0.0363545 0.740108 0
M  V30 3106 H 306.559 0.611329 1.8148 0
M  V30 3107 H 304.864 -1.13567 3.7498 0
M  V30 3108 H 306.561 -0.789121 3.93159 0
M  V30 3109 H 303.151 0.610467 4.2423 0
M  V30 3110 H 307.335 1.45205 4.74583 0
M  V30 3111 H 302.591 2.63689 5.51614 0
M  V30 3112 H 306.765 3.4779 6.03337 0
M  V30 3113 H 304.392 4.07613 6.41682 0
M  V30 3114 N 305.967 -1.56429 0.191757 0
M  V30 3115 C 307.192 -2.02309 -0.456706 0
M  V30 3116 C 307.617 -1.07103 -1.5463 0
M  V30 3117 O 306.975 -0.0539677 -1.8122 0
M  V30 3118 C 307.023 -3.46654 -0.993159 0
M  V30 3119 O 306.127 -3.54559 -2.10622 0
M  V30 3120 H 305.468 -0.655303 -0.107114 0
M  V30 3121 H 307.998 -2.02364 0.301653 0
M  V30 3122 H 308.008 -3.86377 -1.31061 0
M  V30 3123 H 306.683 -4.1544 -0.195504 0
M  V30 3124 H 305.26 -3.26708 -1.79767 0
M  V30 3125 N 307.445 0.0818655 -1.57387 0
M  V30 3126 C 308.392 1.09834 -2.0299 0
M  V30 3127 C 309.362 1.39043 -0.908639 0
M  V30 3128 O 310.547 1.50282 -1.17559 0
M  V30 3129 C 307.687 2.40971 -2.47037 0
M  V30 3130 C 306.8 2.18379 -3.7274 0
M  V30 3131 C 305.935 3.43008 -4.0561 0
M  V30 3132 C 304.974 3.15736 -5.24383 0
M  V30 3133 N 304.111 4.32667 -5.52941 0
M  V30 3134 H 308.951 0.702472 -2.89602 0
M  V30 3135 H 306.488 0.33531 -1.43227 0
M  V30 3136 H 308.446 3.1752 -2.70623 0
M  V30 3137 H 307.076 2.78379 -1.63417 0
M  V30 3138 H 306.128 1.32569 -3.56552 0
M  V30 3139 H 307.44 1.94227 -4.59431 0
M  V30 3140 H 306.594 4.27958 -4.30043 0
M  V30 3141 H 305.333 3.70225 -3.17466 0
M  V30 3142 H 304.338 2.2918 -4.99757 0
M  V30 3143 H 305.563 2.8985 -6.14136 0
M  V30 3144 H 303.509 4.59935 -4.67756 0
M  V30 3145 H 303.426 4.11753 -6.34031 0
M  V30 3146 H 304.694 5.18644 -5.81918 0
M  V30 3147 N 308.923 1.53595 0.353017 0
M  V30 3148 C 309.87 1.80919 1.43308 0
M  V30 3149 C 310.84 0.654288 1.5267 0
M  V30 3150 O 312.025 0.897759 1.6836 0
M  V30 3151 C 309.165 2.01605 2.80089 0
M  V30 3152 C 308.278 3.29321 2.79593 0
M  V30 3153 C 307.413 3.40125 4.0803 0
M  V30 3154 C 306.452 4.61826 4.01725 0
M  V30 3155 N 305.589 4.69716 5.21834 0
M  V30 3156 H 310.429 2.73074 1.19308 0
M  V30 3157 H 307.966 1.35263 0.578131 0
M  V30 3158 H 309.924 2.11586 3.59565 0
M  V30 3159 H 308.554 1.12772 3.0246 0
M  V30 3160 H 307.606 3.28229 1.92276 0
M  V30 3161 H 308.918 4.18884 2.70809 0
M  V30 3162 H 308.072 3.49488 4.95927 0
M  V30 3163 H 306.811 2.48601 4.19582 0
M  V30 3164 H 305.816 4.52552 3.12213 0
M  V30 3165 H 307.041 5.54705 3.91764 0
M  V30 3166 H 304.987 3.81097 5.33948 0
M  V30 3167 H 304.904 5.53202 5.1527 0
M  V30 3168 H 306.172 4.83376 6.11529 0
M  V30 3169 N 310.401 -0.613514 1.45168 0
M  V30 3170 C 311.311 -1.75296 1.55912 0
M  V30 3171 C 312.327 -1.68244 0.443856 0
M  V30 3172 O 313.503 -1.88706 0.70371 0
M  V30 3173 C 310.568 -3.1174 1.5172 0
M  V30 3174 C 309.629 -3.30291 2.74238 0
M  V30 3175 C 308.862 -4.60226 2.70236 0
M  V30 3176 O 309.085 -5.42168 1.77229 0
M  V30 3177 O 308.019 -4.81361 3.61352 0
M  V30 3178 H 311.845 -1.69183 2.52212 0
M  V30 3179 H 309.43 -0.776886 1.27612 0
M  V30 3180 H 311.312 -3.93044 1.51968 0
M  V30 3181 H 309.987 -3.18357 0.585697 0
M  V30 3182 H 308.894 -2.48598 2.79553 0
M  V30 3183 H 310.227 -3.28547 3.66494 0
M  V30 3184 N 311.879 -1.3236 -0.855495 0
M  V30 3185 C 312.827 -1.2118 -1.9854 0
M  V30 3186 C 313.821 -0.116788 -1.68997 0
M  V30 3187 O 315.027 -0.279657 -1.77814 0
M  V30 3188 H 311.402 -0.375608 -0.651477 0
M  V30 3189 H 313.373 -2.16743 -2.05098 0
M  V30 3190 C 312.122 -0.950849 -3.34446 0
M  V30 3191 H 311.445 -1.78563 -3.57708 0
M  V30 3192 H 312.885 -0.912863 -4.14057 0
M  V30 3193 C 311.344 0.346404 -3.35114 0
M  V30 3194 O 311.874 1.35855 -3.7803 0
M  V30 3195 N 310.08 0.36808 -2.88259 0
M  V30 3196 H 309.627 -0.456102 -2.5353 0
M  V30 3197 H 309.585 1.23591 -2.89089 0
M  V30 3198 N 313.357 1.07166 -1.15556 0
M  V30 3199 C 314.305 2.16517 -0.8499 0
M  V30 3200 C 315.299 1.68468 0.177454 0
M  V30 3201 O 316.505 1.79971 0.0323026 0
M  V30 3202 H 312.88 0.706652 -0.25719 0
M  V30 3203 H 314.851 2.39514 -1.77976 0
M  V30 3204 C 313.6 3.45855 -0.357682 0
M  V30 3205 H 312.923 3.83214 -1.13961 0
M  V30 3206 H 314.363 4.23607 -0.182489 0
M  V30 3207 C 312.822 3.24062 0.921152 0
M  V30 3208 O 313.352 3.48813 1.9923 0
M  V30 3209 N 311.558 2.77539 0.86141 0
M  V30 3210 H 311.105 2.57598 -0.0104408 0
M  V30 3211 H 311.063 2.63337 1.71758 0
M  V30 3212 N 314.835 0.952656 1.25548 0
M  V30 3213 C 315.767 0.428609 2.25157 0
M  V30 3214 C 316.78 -0.454428 1.56329 0
M  V30 3215 O 317.969 -0.263023 1.76552 0
M  V30 3216 C 315.069 -0.401972 3.36508 0
M  V30 3217 C 314.242 0.467601 4.34893 0
M  V30 3218 C 313.301 -0.30445 5.25319 0
M  V30 3219 O 312.327 0.296473 5.68427 0
M  V30 3220 N 313.529 -1.59805 5.5807 0
M  V30 3221 H 316.294 1.28497 2.70756 0
M  V30 3222 H 313.855 0.822798 1.39433 0
M  V30 3223 H 315.847 -0.926134 3.9396 0
M  V30 3224 H 314.417 -1.15918 2.90313 0
M  V30 3225 H 313.637 1.17288 3.76347 0
M  V30 3226 H 314.925 1.06119 4.97611 0
M  V30 3227 H 314.323 -2.10823 5.24948 0
M  V30 3228 H 312.88 -2.06822 6.18116 0
M  V30 3229 N 316.313 -1.40141 0.720998 0
M  V30 3230 C 317.559 -2.01084 0.263231 0
M  V30 3231 C 317.892 -1.57052 -1.14229 0
M  V30 3232 O 317.167 -0.793027 -1.77599 0
M  V30 3233 C 317.45 -3.58401 0.349344 0
M  V30 3234 C 317.303 -4.12491 1.79363 0
M  V30 3235 C 318.622 -4.39231 -0.276351 0
M  V30 3236 H 315.741 -0.730572 0.0971228 0
M  V30 3237 H 318.383 -1.66543 0.914518 0
M  V30 3238 H 316.533 -3.87958 -0.205165 0
M  V30 3239 H 318.205 -3.93711 2.40394 0
M  V30 3240 H 316.448 -3.66576 2.31958 0
M  V30 3241 H 317.119 -5.21646 1.80524 0
M  V30 3242 H 319.595 -4.15637 0.196184 0
M  V30 3243 H 318.471 -5.48586 -0.185681 0
M  V30 3244 H 318.732 -4.20643 -1.36059 0
M  V30 3245 N 317.792 -0.46758 -1.50504 0
M  V30 3246 C 319.203 -0.0116166 -1.86696 0
M  V30 3247 C 319.554 1.39202 -1.38265 0
M  V30 3248 O 318.679 2.0313 -0.746132 0
M  V30 3249 C 319.274 -0.0143044 -3.38797 0
M  V30 3250 C 317.833 0.386175 -3.74414 0
M  V30 3251 C 316.98 -0.401287 -2.74381 0
M  V30 3252 H 319.931 -0.682022 -1.43297 0
M  V30 3253 H 319.952 0.788641 -3.72237 0
M  V30 3254 H 319.464 -1.03602 -3.74016 0
M  V30 3255 H 317.565 1.41237 -3.44794 0
M  V30 3256 H 317.678 0.0899596 -4.79016 0
M  V30 3257 H 316.042 0.144536 -2.5429 0
M  V30 3258 H 316.825 -1.42244 -3.12444 0
M  V30 3259 N 319.27 1.56325 -0.20005 0
M  V30 3260 C 320.233 2.18084 0.705132 0
M  V30 3261 C 321.233 1.13666 1.1374 0
M  V30 3262 O 322.423 1.39023 1.04968 0
M  V30 3263 C 319.555 2.78689 1.96329 0
M  V30 3264 H 320.748 2.99435 0.167023 0
M  V30 3265 H 318.301 1.56221 0.0495725 0
M  V30 3266 H 319.036 2.0115 2.5438 0
M  V30 3267 H 318.821 3.55133 1.66202 0
M  V30 3268 H 320.311 3.26096 2.60866 0
M  V30 3269 N 320.748 -0.0735177 1.57428 0
M  V30 3270 C 321.994 -0.774145 1.87443 0
M  V30 3271 C 322.327 -1.77311 0.792103 0
M  V30 3272 O 321.602 -1.93492 -0.197793 0
M  V30 3273 C 321.885 -1.48367 3.28115 0
M  V30 3274 C 321.738 -0.501227 4.46999 0
M  V30 3275 C 323.057 -2.429 3.66998 0
M  V30 3276 H 320.176 -0.279971 0.681752 0
M  V30 3277 H 322.818 -0.0373616 1.89963 0
M  V30 3278 H 320.968 -2.11171 3.26097 0
M  V30 3279 H 322.64 0.121468 4.6114 0
M  V30 3280 H 320.883 0.183593 4.33411 0
M  V30 3281 H 321.554 -1.03526 5.42205 0
M  V30 3282 H 324.03 -1.90175 3.70098 0
M  V30 3283 H 322.906 -2.89549 4.66318 0
M  V30 3284 H 323.167 -3.27628 2.96837 0
M  V30 3285 N 322.226 -1.5378 -0.344866 0
M  V30 3286 C 323.472 -1.71216 -1.08687 0
M  V30 3287 C 323.805 -0.473281 -1.88345 0
M  V30 3288 O 323.08 0.52968 -1.87149 0
M  V30 3289 C 323.363 -2.97486 -2.02914 0
M  V30 3290 C 323.216 -4.31579 -1.26727 0
M  V30 3291 C 324.535 -3.19422 -3.0275 0
M  V30 3292 H 321.654 -0.62301 -0.393735 0
M  V30 3293 H 324.296 -1.8645 -0.365563 0
M  V30 3294 H 322.446 -2.84629 -2.64421 0
M  V30 3295 H 324.118 -4.56284 -0.67845 0
M  V30 3296 H 322.361 -4.30049 -0.569273 0
M  V30 3297 H 323.032 -5.16106 -1.95803 0
M  V30 3298 H 325.508 -3.316 -2.51357 0
M  V30 3299 H 324.384 -4.09169 -3.65885 0
M  V30 3300 H 324.645 -2.35656 -3.74057 0
M  V30 3301 N 323.704 0.605807 -1.45491 0
M  V30 3302 C 324.667 1.69836 -1.5391 0
M  V30 3303 C 325.667 1.55261 -0.418424 0
M  V30 3304 O 326.857 1.60296 -0.681965 0
M  V30 3305 C 323.989 3.09117 -1.43734 0
M  V30 3306 H 325.182 1.63738 -2.51257 0
M  V30 3307 H 322.735 0.821689 -1.32959 0
M  V30 3308 H 323.47 3.20791 -0.475788 0
M  V30 3309 H 323.255 3.21104 -2.25021 0
M  V30 3310 H 324.745 3.88696 -1.52661 0
M  V30 3311 N 325.182 1.32811 0.848464 0
M  V30 3312 C 326.429 1.23724 1.60308 0
M  V30 3313 C 326.757 -0.1994 1.93475 0
M  V30 3314 O 326.012 -1.15406 1.5805 0
M  V30 3315 C 326.311 2.04831 2.92881 0
M  V30 3316 C 325.977 3.54125 2.79117 0
M  V30 3317 C 324.639 3.94829 2.7507 0
M  V30 3318 C 326.991 4.49036 2.64606 0
M  V30 3319 C 324.319 5.28675 2.544 0
M  V30 3320 C 326.671 5.83033 2.4547 0
M  V30 3321 C 325.335 6.22931 2.39819 0
M  V30 3322 H 324.605 0.452737 0.586609 0
M  V30 3323 H 327.252 1.64301 0.983743 0
M  V30 3324 H 325.557 1.57001 3.58968 0
M  V30 3325 H 327.254 1.95164 3.50303 0
M  V30 3326 H 323.844 3.21801 2.83094 0
M  V30 3327 H 328.028 4.18505 2.66772 0
M  V30 3328 H 323.284 5.58637 2.48465 0
M  V30 3329 H 327.458 6.56186 2.33222 0
M  V30 3330 H 325.085 7.26584 2.23562 0
M  V30 3331 N 326.66 -1.06551 1.16123 0
M  V30 3332 C 327.885 -1.83544 0.965735 0
M  V30 3333 C 328.31 -1.81843 -0.481102 0
M  V30 3334 O 327.668 -1.21732 -1.34354 0
M  V30 3335 C 327.716 -3.28169 1.49457 0
M  V30 3336 O 326.82 -4.0643 0.699157 0
M  V30 3337 H 326.161 -0.568026 0.343864 0
M  V30 3338 H 328.691 -1.34362 1.54299 0
M  V30 3339 H 328.701 -3.78992 1.51092 0
M  V30 3340 H 327.376 -3.28722 2.54784 0
M  V30 3341 H 325.953 -3.65216 0.7531 0
M  V30 3342 N 328.138 -0.959301 -1.25041 0
M  V30 3343 C 329.07 -0.440543 -2.24926 0
M  V30 3344 C 330.083 0.446131 -1.56568 0
M  V30 3345 O 331.272 0.253657 -1.76689 0
M  V30 3346 C 328.372 0.38412 -3.36716 0
M  V30 3347 C 327.545 -0.490658 -4.34639 0
M  V30 3348 C 326.604 0.276587 -5.25473 0
M  V30 3349 O 325.63 -0.326614 -5.68262 0
M  V30 3350 N 326.832 1.56844 -5.5891 0
M  V30 3351 H 329.597 -1.29931 -2.70071 0
M  V30 3352 H 327.158 -0.830181 -1.38995 0
M  V30 3353 H 329.15 0.905228 -3.94446 0
M  V30 3354 H 327.72 1.14377 -2.90924 0
M  V30 3355 H 326.94 -1.19282 -3.7572 0
M  V30 3356 H 328.228 -1.08756 -4.97041 0
M  V30 3357 H 327.626 2.08036 -5.26059 0
M  V30 3358 H 326.183 2.03541 -6.19205 0
M  V30 3359 N 329.616 1.39756 -0.72842 0
M  V30 3360 C 330.864 2.00248 -0.272946 0
M  V30 3361 C 331.185 1.58077 1.14178 0
M  V30 3362 O 330.455 0.826014 1.77634 0
M  V30 3363 H 329.035 0.740554 -0.0979247 0
M  V30 3364 H 331.697 1.70903 -0.936912 0
M  V30 3365 H 330.793 3.10495 -0.316142 0
M  V30 3366 N 331.094 0.475555 1.50254 0
M  V30 3367 C 332.319 -0.0777042 2.07254 0
M  V30 3368 C 332.744 -1.3235 1.3366 0
M  V30 3369 O 332.102 -1.77152 0.385597 0
M  V30 3370 C 332.15 -0.340169 3.58992 0
M  V30 3371 O 331.254 -1.41982 3.87188 0
M  V30 3372 H 330.595 0.0149556 0.663832 0
M  V30 3373 H 333.125 0.667878 1.93392 0
M  V30 3374 H 333.135 -0.579332 4.03866 0
M  V30 3375 H 331.81 0.570167 4.11973 0
M  V30 3376 H 330.387 -1.16762 3.54148 0
M  V30 3377 N 332.573 -1.56217 0.208337 0
M  V30 3378 C 333.819 -1.98242 -0.427552 0
M  V30 3379 C 334.152 -1.09554 -1.60348 0
M  V30 3380 O 333.427 -0.15035 -1.93918 0
M  V30 3381 C 333.71 -3.4931 -0.874907 0
M  V30 3382 C 333.563 -4.48773 0.303751 0
M  V30 3383 C 334.882 -4.04424 -1.73577 0
M  V30 3384 H 332.001 -0.720744 -0.153936 0
M  V30 3385 H 334.643 -1.87586 0.30192 0
M  V30 3386 H 332.793 -3.58522 -1.49648 0
M  V30 3387 H 334.465 -4.51586 0.941682 0
M  V30 3388 H 332.708 -4.23194 0.953375 0
M  V30 3389 H 333.379 -5.51976 -0.0519883 0
M  V30 3390 H 335.855 -3.98075 -1.21143 0
M  V30 3391 H 334.731 -5.1047 -2.01771 0
M  V30 3392 H 334.992 -3.50494 -2.69456 0
M  V30 3393 N 334.051 0.0651679 -1.57465 0
M  V30 3394 C 335.299 0.761555 -1.87202 0
M  V30 3395 C 335.62 1.77778 -0.801243 0
M  V30 3396 O 334.89 1.95166 0.16937 0
M  V30 3397 H 333.47 0.284251 -0.690804 0
M  V30 3398 H 336.132 0.0396827 -1.9486 0
M  V30 3399 H 335.228 1.27365 -2.84929 0
M  V30 3400 N 335.529 1.53961 0.336706 0
M  V30 3401 C 336.776 1.71536 1.07618 0
M  V30 3402 C 337.104 0.482125 1.8843 0
M  V30 3403 O 336.359 -0.536142 1.88213 0
M  V30 3404 C 336.658 2.93493 2.03953 0
M  V30 3405 C 336.324 4.28811 1.39399 0
M  V30 3406 C 334.986 4.65602 1.21523 0
M  V30 3407 C 337.338 5.12844 0.929541 0
M  V30 3408 C 334.666 5.84037 0.558312 0
M  V30 3409 C 337.018 6.31951 0.286505 0
M  V30 3410 C 335.682 6.67432 0.0954869 0
M  V30 3411 H 334.952 0.627696 0.393801 0
M  V30 3412 H 337.599 1.88186 0.354715 0
M  V30 3413 H 335.904 2.71475 2.82504 0
M  V30 3414 H 337.601 3.04285 2.61174 0
M  V30 3415 H 334.191 3.99858 1.54311 0
M  V30 3416 H 338.375 4.84947 1.05548 0
M  V30 3417 H 333.631 6.10097 0.398995 0
M  V30 3418 H 337.805 6.96352 -0.0814376 0
M  V30 3419 H 335.432 7.59063 -0.415579 0
M  V30 3420 N 337.007 -0.598083 1.45811 0
M  V30 3421 C 337.937 -1.71873 1.58057 0
M  V30 3422 C 338.918 -1.64533 0.431615 0
M  V30 3423 O 340.103 -1.82787 0.65595 0
M  V30 3424 C 337.233 -3.10495 1.55597 0
M  V30 3425 C 336.187 -3.32654 2.69305 0
M  V30 3426 C 335.513 -4.71646 2.51902 0
M  V30 3427 C 336.813 -3.21981 4.11248 0
M  V30 3428 H 338.507 -1.61881 2.51863 0
M  V30 3429 H 336.053 -0.777372 1.21214 0
M  V30 3430 H 338.006 -3.88699 1.6276 0
M  V30 3431 H 336.73 -3.2135 0.583255 0
M  V30 3432 H 335.389 -2.56843 2.61586 0
M  V30 3433 H 335.037 -4.79246 1.52748 0
M  V30 3434 H 334.737 -4.87426 3.2816 0
M  V30 3435 H 336.261 -5.52038 2.60933 0
M  V30 3436 H 337.675 -3.90049 4.20161 0
M  V30 3437 H 336.072 -3.49289 4.87972 0
M  V30 3438 H 337.142 -2.1928 4.32486 0
M  V30 3439 N 338.485 -1.33259 -0.841409 0
M  V30 3440 C 339.731 -1.25766 -1.59857 0
M  V30 3441 C 340.086 0.175602 -1.91597 0
M  V30 3442 O 339.379 1.117 -1.55672 0
M  V30 3443 C 339.573 -2.06381 -2.9179 0
M  V30 3444 C 339.402 -3.57401 -2.72937 0
M  V30 3445 C 338.172 -4.26718 -2.70628 0
M  V30 3446 C 340.37 -4.51786 -2.45753 0
M  V30 3447 N 338.352 -5.63705 -2.43125 0
M  V30 3448 C 339.723 -5.76643 -2.27777 0
M  V30 3449 C 341.778 -4.40898 -2.31329 0
M  V30 3450 C 340.481 -6.91842 -1.96841 0
M  V30 3451 C 342.507 -5.55911 -2.01786 0
M  V30 3452 C 341.869 -6.79776 -1.8462 0
M  V30 3453 H 337.968 -0.515406 -0.588117 0
M  V30 3454 H 340.552 -1.67772 -0.987955 0
M  V30 3455 H 338.723 -1.667 -3.50807 0
M  V30 3456 H 340.455 -1.90678 -3.56965 0
M  V30 3457 H 337.21 -3.78968 -2.84043 0
M  V30 3458 H 337.634 -6.35911 -2.32265 0
M  V30 3459 H 342.276 -3.45772 -2.43314 0
M  V30 3460 H 339.994 -7.86968 -1.83594 0
M  V30 3461 H 343.58 -5.49421 -1.91384 0
M  V30 3462 H 342.46 -7.67266 -1.62088 0
M  V30 3463 N 339.963 1.05934 -1.16686 0
M  V30 3464 C 340.91 2.13499 -0.876748 0
M  V30 3465 C 341.88 1.65162 0.176299 0
M  V30 3466 O 343.065 1.90757 0.0407143 0
M  V30 3467 C 340.205 3.42912 -0.387967 0
M  V30 3468 C 339.318 4.04964 -1.50426 0
M  V30 3469 C 338.453 5.22266 -0.970125 0
M  V30 3470 C 337.492 5.76309 -2.06238 0
M  V30 3471 N 336.629 6.84922 -1.54356 0
M  V30 3472 H 341.469 2.37654 -1.7979 0
M  V30 3473 H 339.006 1.16598 -0.896843 0
M  V30 3474 H 340.964 4.17111 -0.086186 0
M  V30 3475 H 339.594 3.18963 0.496235 0
M  V30 3476 H 338.646 3.28277 -1.92193 0
M  V30 3477 H 339.958 4.41122 -2.32836 0
M  V30 3478 H 339.112 6.03506 -0.621743 0
M  V30 3479 H 337.851 4.87564 -0.115377 0
M  V30 3480 H 336.856 4.93704 -2.41942 0
M  V30 3481 H 338.081 6.13062 -2.92115 0
M  V30 3482 H 336.027 6.52131 -0.711406 0
M  V30 3483 H 335.944 7.20043 -2.30379 0
M  V30 3484 H 337.212 7.69832 -1.22387 0
M  V30 3485 N 341.441 0.965919 1.2453 0
M  V30 3486 C 342.666 0.643971 1.97149 0
M  V30 3487 C 343.091 -0.779487 1.71189 0
M  V30 3488 O 342.449 -1.5288 0.974553 0
M  V30 3489 C 342.497 0.922557 3.48599 0
M  V30 3490 O 341.601 0.00707672 4.12399 0
M  V30 3491 H 340.942 0.243647 0.617683 0
M  V30 3492 H 343.472 1.29558 1.58353 0
M  V30 3493 H 343.482 0.853373 3.98976 0
M  V30 3494 H 342.157 1.95996 3.66822 0
M  V30 3495 H 340.734 0.12943 3.72675 0
M  V30 3496 N 342.919 -1.39368 0.735821 0
M  V30 3497 C 343.867 -2.32443 0.0855131 0
M  V30 3498 C 344.861 -1.53104 -0.724954 0
M  V30 3499 O 346.067 -1.68762 -0.626047 0
M  V30 3500 H 342.442 -0.751948 0.00885257 0
M  V30 3501 H 344.413 -2.84916 0.886883 0
M  V30 3502 C 343.162 -3.38206 -0.806983 0
M  V30 3503 H 342.485 -3.99335 -0.19274 0
M  V30 3504 H 343.925 -4.05779 -1.2296 0
M  V30 3505 C 342.384 -2.75321 -1.94165 0
M  V30 3506 O 342.914 -2.63231 -3.03435 0
M  V30 3507 N 341.12 -2.33396 -1.73132 0
M  V30 3508 H 340.667 -2.4343 -0.842596 0
M  V30 3509 H 340.625 -1.91661 -2.49225 0
M  V30 3510 N 344.397 -0.483516 -1.5 0
M  V30 3511 C 345.645 0.067027 -2.01989 0
M  V30 3512 C 345.966 1.3909 -1.36671 0
M  V30 3513 O 345.236 1.88978 -0.516152 0
M  V30 3514 H 343.816 0.0277606 -0.746484 0
M  V30 3515 H 346.478 -0.636773 -1.84204 0
M  V30 3516 H 345.574 0.209484 -3.11396 0
M  V30 3517 N 345.875 1.56104 -0.216619 0
M  V30 3518 C 346.838 2.18819 0.681962 0
M  V30 3519 C 347.838 1.14866 1.12528 0
M  V30 3520 O 349.028 1.40128 1.03488 0
M  V30 3521 C 346.16 2.80756 1.93362 0
M  V30 3522 H 347.353 2.99595 0.135254 0
M  V30 3523 H 344.906 1.56265 0.0330003 0
M  V30 3524 H 345.641 2.03837 2.52232 0
M  V30 3525 H 345.426 3.56876 1.62426 0
M  V30 3526 H 346.916 3.28844 2.57393 0
M  V30 3527 N 347.353 -0.0568162 1.57498 0
M  V30 3528 C 348.583 -0.764515 1.91934 0
M  V30 3529 C 348.991 -1.70877 0.81227 0
M  V30 3530 O 348.334 -1.82351 -0.222213 0
M  V30 3531 C 348.396 -1.5994 3.21962 0
M  V30 3532 C 348.06 -0.822925 4.4953 0
M  V30 3533 C 349.057 -0.135464 5.19723 0
M  V30 3534 C 346.742 -0.785666 4.96117 0
M  V30 3535 C 348.736 0.578861 6.34766 0
M  V30 3536 C 346.423 -0.0675784 6.11063 0
M  V30 3537 C 347.421 0.613471 6.80239 0
M  V30 3538 O 347.109 1.31996 7.92989 0
M  V30 3539 H 346.841 -0.221647 0.63863 0
M  V30 3540 H 349.395 -0.0268218 2.05382 0
M  V30 3541 H 347.625 -2.38026 3.04763 0
M  V30 3542 H 349.314 -2.18715 3.41934 0
M  V30 3543 H 350.08 -0.155458 4.84751 0
M  V30 3544 H 345.959 -1.30524 4.42136 0
M  V30 3545 H 349.503 1.111 6.88696 0
M  V30 3546 H 345.4 -0.0455636 6.45484 0
M  V30 3547 H 346.168 1.23077 8.09194 0
M  V30 3548 N 348.832 -1.54138 -0.328536 0
M  V30 3549 C 349.78 -1.83894 -1.42428 0
M  V30 3550 C 350.774 -0.710478 -1.53781 0
M  V30 3551 O 351.98 -0.894062 -1.56226 0
M  V30 3552 H 348.355 -0.582837 -0.475189 0
M  V30 3553 H 350.326 -2.75537 -1.14552 0
M  V30 3554 C 349.075 -2.07866 -2.78724 0
M  V30 3555 H 348.398 -2.94158 -2.7076 0
M  V30 3556 H 349.838 -2.32644 -3.54476 0
M  V30 3557 C 348.297 -0.868689 -3.25508 0
M  V30 3558 O 348.827 -0.0754908 -4.01629 0
M  V30 3559 N 347.033 -0.681711 -2.82491 0
M  V30 3560 H 346.58 -1.32838 -2.20708 0
M  V30 3561 H 346.538 0.126374 -3.14146 0
M  V30 3562 N 350.31 0.590341 -1.46126 0
M  V30 3563 C 351.559 1.34499 -1.50309 0
M  V30 3564 C 351.872 1.94977 -0.156021 0
M  V30 3565 O 353.078 2.71395 -0.0756037 0
M  V30 3566 C 351.534 2.43723 -2.64815 0
M  V30 3567 C 351.142 1.89582 -4.0591 0
M  V30 3568 C 352.886 3.20579 -2.78262 0
M  V30 3569 C 350.793 2.9639 -5.11769 0
M  V30 3570 H 349.723 0.505593 -0.559368 0
M  V30 3571 H 352.374 0.630848 -1.72315 0
M  V30 3572 H 350.756 3.17902 -2.36124 0
M  V30 3573 H 351.93 1.21997 -4.44357 0
M  V30 3574 H 350.245 1.25418 -3.97063 0
M  V30 3575 H 352.842 4.00276 -3.54519 0
M  V30 3576 H 353.185 3.72684 -1.85505 0
M  V30 3577 H 353.718 2.53505 -3.06562 0
M  V30 3578 H 350.457 2.49181 -6.06291 0
M  V30 3579 H 349.977 3.62487 -4.77873 0
M  V30 3580 H 351.656 3.60474 -5.37278 0
M  V30 3581 N 351.788 1.33704 0.83433 0
M  V30 3582 C 353.035 1.25417 1.58987 0
M  V30 3583 C 353.363 -0.178869 1.93676 0
M  V30 3584 O 352.618 -1.13723 1.59265 0
M  V30 3585 C 352.917 2.07926 2.90692 0
M  V30 3586 C 352.583 3.57066 2.75345 0
M  V30 3587 C 351.245 3.97724 2.70867 0
M  V30 3588 C 353.597 4.51817 2.59828 0
M  V30 3589 C 350.925 5.31344 2.48778 0
M  V30 3590 C 353.277 5.85604 2.39272 0
M  V30 3591 C 351.941 6.25439 2.33199 0
M  V30 3592 H 351.211 0.458934 0.581774 0
M  V30 3593 H 353.858 1.65335 0.966261 0
M  V30 3594 H 352.163 1.608 3.57282 0
M  V30 3595 H 353.86 1.98868 3.48213 0
M  V30 3596 H 350.45 3.24785 2.79665 0
M  V30 3597 H 354.634 4.21311 2.62319 0
M  V30 3598 H 349.89 5.61241 2.42526 0
M  V30 3599 H 354.064 6.58623 2.2625 0
M  V30 3600 H 351.691 7.28914 2.15843 0
M  V30 3601 N 353.266 -1.05314 1.17247 0
M  V30 3602 C 354.229 -2.112 0.890357 0
M  V30 3603 C 355.229 -1.60359 -0.118943 0
M  V30 3604 O 356.419 -1.73833 0.113086 0
M  V30 3605 C 353.551 -3.39266 0.333422 0
M  V30 3606 H 354.744 -2.37659 1.82916 0
M  V30 3607 H 352.297 -1.21538 0.982758 0
M  V30 3608 H 353.032 -3.18462 -0.612587 0
M  V30 3609 H 352.817 -3.77477 1.06082 0
M  V30 3610 H 354.307 -4.17315 0.154322 0
M  V30 3611 N 354.744 -0.972509 -1.24016 0
M  V30 3612 C 355.692 -0.498562 -2.27194 0
M  V30 3613 C 356.686 0.440372 -1.63576 0
M  V30 3614 O 357.892 0.315133 -1.7722 0
M  V30 3615 H 354.267 -0.142775 -0.738322 0
M  V30 3616 H 356.238 -1.38065 -2.64539 0
M  V30 3617 C 354.987 0.191072 -3.47175 0
M  V30 3618 H 354.31 -0.522318 -3.96373 0
M  V30 3619 H 355.75 0.486445 -4.212 0
M  V30 3620 C 354.209 1.41967 -3.05527 0
M  V30 3621 O 354.739 2.51642 -3.13112 0
M  V30 3622 N 352.945 1.28746 -2.60524 0
M  V30 3623 H 352.492 0.395089 -2.54552 0
M  V30 3624 H 352.45 2.11061 -2.33025 0
M  V30 3625 N 356.222 1.38976 -0.743202 0
M  V30 3626 C 357.499 1.94351 -0.220705 0
M  V30 3627 C 357.879 1.67935 1.2791 0
M  V30 3628 O 357.227 1.01211 2.04862 0
M  V30 3629 C 357.437 3.44426 -0.563171 0
M  V30 3630 C 358.785 4.2144 -0.517046 0
M  V30 3631 O 359.809 3.52661 -0.500846 0
M  V30 3632 O 358.668 5.44032 -0.518806 0
M  V30 3633 H 355.762 0.825879 -0.043047 0
M  V30 3634 H 358.308 1.48429 -0.822618 0
M  V30 3635 H 357.08 3.5712 -1.59941 0
M  V30 3636 H 356.703 3.97543 0.0672883 0
M  V30 3637 N 357.7 0.491464 1.49741 0
M  V30 3638 C 359.116 0.146835 1.58923 0
M  V30 3639 C 359.316 -1.34804 1.49767 0
M  V30 3640 O 358.372 -2.12317 1.36667 0
M  V30 3641 C 359.685 0.715157 2.92072 0
M  V30 3642 C 361.233 0.680407 3.05515 0
M  V30 3643 C 361.708 1.22663 4.41269 0
M  V30 3644 N 363.199 1.18691 4.47735 0
M  V30 3645 C 363.934 1.57984 5.51207 0
M  V30 3646 N 363.43 2.04824 6.6183 0
M  V30 3647 N 365.223 1.49459 5.41866 0
M  V30 3648 H 357.374 1.46347 1.53936 0
M  V30 3649 H 359.637 0.606453 0.728642 0
M  V30 3650 H 359.343 1.76317 3.04311 0
M  V30 3651 H 359.217 0.17018 3.76816 0
M  V30 3652 H 361.604 -0.358743 2.92911 0
M  V30 3653 H 361.685 1.26242 2.22478 0
M  V30 3654 H 361.329 2.26451 4.54623 0
M  V30 3655 H 361.259 0.620637 5.2293 0
M  V30 3656 H 363.75 0.843605 3.68364 0
M  V30 3657 H 364.063 2.32901 7.3687 0
M  V30 3658 H 362.408 2.08791 6.62896 0
M  V30 3659 H 365.599 1.12692 4.54333 0
M  V30 3660 H 365.772 1.80406 6.22381 0
M  V30 3661 N 359.178 -1.55987 0.224894 0
M  V30 3662 C 360.088 -2.24066 -0.69511 0
M  V30 3663 C 361.104 -1.24939 -1.21104 0
M  V30 3664 O 362.28 -1.5776 -1.25195 0
M  V30 3665 C 359.345 -2.90983 -1.88493 0
M  V30 3666 C 358.406 -4.05462 -1.41064 0
M  V30 3667 C 357.639 -4.69179 -2.54375 0
M  V30 3668 O 357.862 -4.31895 -3.72589 0
M  V30 3669 O 356.796 -5.58108 -2.25386 0
M  V30 3670 H 360.622 -3.03353 -0.145149 0
M  V30 3671 H 358.207 -1.49399 -0.00569476 0
M  V30 3672 H 360.089 -3.33209 -2.57972 0
M  V30 3673 H 358.764 -2.14653 -2.42293 0
M  V30 3674 H 357.671 -3.67798 -0.683774 0
M  V30 3675 H 359.004 -4.83545 -0.918985 0
M  V30 3676 N 360.656 0.0484629 -1.57525 0
M  V30 3677 C 361.881 0.759177 -1.93006 0
M  V30 3678 C 362.306 1.69125 -0.823317 0
M  V30 3679 O 361.664 1.79931 0.222364 0
M  V30 3680 C 361.712 1.50899 -3.27509 0
M  V30 3681 O 360.816 2.62112 -3.18388 0
M  V30 3682 H 360.157 0.205564 -0.631379 0
M  V30 3683 H 362.687 0.00972959 -2.04598 0
M  V30 3684 H 362.697 1.88317 -3.6194 0
M  V30 3685 H 361.372 0.825269 -4.0763 0
M  V30 3686 H 359.949 2.27379 -2.95556 0
M  V30 3687 N 362.134 1.5431 0.320358 0
M  V30 3688 C 363.38 1.72924 1.05949 0
M  V30 3689 C 363.713 0.503185 1.87568 0
M  V30 3690 O 362.988 -0.499839 1.87968 0
M  V30 3691 C 363.271 3.00676 1.98156 0
M  V30 3692 C 363.124 4.3354 1.19845 0
M  V30 3693 C 364.443 3.24198 2.9763 0
M  V30 3694 H 361.562 0.629195 0.383774 0
M  V30 3695 H 364.204 1.87008 0.335854 0
M  V30 3696 H 362.354 2.888 2.59859 0
M  V30 3697 H 364.026 4.57305 0.605773 0
M  V30 3698 H 362.269 4.309 0.500784 0
M  V30 3699 H 362.94 5.19156 1.87567 0
M  V30 3700 H 365.416 3.35557 2.4605 0
M  V30 3701 H 364.292 4.14938 3.59329 0
M  V30 3702 H 364.553 2.41577 3.7026 0
M  V30 3703 N 363.613 -0.582584 1.46437 0
M  V30 3704 C 364.523 -1.71949 1.59595 0
M  V30 3705 C 365.539 -1.67264 0.479443 0
M  V30 3706 O 366.715 -1.87171 0.743579 0
M  V30 3707 C 363.78 -3.08452 1.58298 0
M  V30 3708 C 362.841 -3.244 2.81182 0
M  V30 3709 C 362.074 -4.54391 2.79937 0
M  V30 3710 O 362.297 -5.38287 1.8869 0
M  V30 3711 O 361.231 -4.73588 3.71481 0
M  V30 3712 H 365.057 -1.63795 2.55744 0
M  V30 3713 H 362.642 -0.749643 1.29231 0
M  V30 3714 H 364.524 -3.89732 1.60271 0
M  V30 3715 H 363.199 -3.17043 0.653094 0
M  V30 3716 H 362.106 -2.42613 2.84763 0
M  V30 3717 H 363.439 -3.20699 3.7338 0
M  V30 3718 N 365.091 -1.34144 -0.827227 0
M  V30 3719 C 366.039 -1.25364 -1.95925 0
M  V30 3720 C 367.033 -0.152608 -1.68711 0
M  V30 3721 O 368.239 -0.317311 -1.77181 0
M  V30 3722 H 364.614 -0.389342 -0.643364 0
M  V30 3723 H 366.585 -2.21045 -2.00454 0
M  V30 3724 C 365.334 -1.02158 -3.32354 0
M  V30 3725 H 364.657 -1.86111 -3.5384 0
M  V30 3726 H 366.097 -1.00048 -4.12027 0
M  V30 3727 C 364.556 0.275244 -3.35774 0
M  V30 3728 O 365.086 1.27806 -3.80826 0
M  V30 3729 N 363.292 0.306853 -2.88975 0
M  V30 3730 H 362.839 -0.509777 -2.52506 0
M  V30 3731 H 362.797 1.17432 -2.91646 0
M  V30 3732 N 366.569 1.04691 -1.17803 0
M  V30 3733 C 367.499 2.14494 -0.92275 0
M  V30 3734 C 368.48 1.69546 0.137179 0
M  V30 3735 O 369.665 1.94195 -0.0141108 0
M  V30 3736 C 366.795 3.44491 -0.440803 0
M  V30 3737 C 365.749 4.03031 -1.4405 0
M  V30 3738 C 365.075 5.28432 -0.81631 0
M  V30 3739 C 366.375 4.39932 -2.81527 0
M  V30 3740 H 368.069 2.36107 -1.84103 0
M  V30 3741 H 365.615 1.1347 -0.886599 0
M  V30 3742 H 367.568 4.2066 -0.249602 0
M  V30 3743 H 366.292 3.22546 0.513025 0
M  V30 3744 H 364.951 3.28937 -1.61853 0
M  V30 3745 H 364.599 5.02792 0.144511 0
M  V30 3746 H 364.299 5.68559 -1.48371 0
M  V30 3747 H 365.823 6.07284 -0.635496 0
M  V30 3748 H 367.237 5.07113 -2.67412 0
M  V30 3749 H 365.634 4.9109 -3.44892 0
M  V30 3750 H 366.704 3.50045 -3.35554 0
M  V30 3751 N 368.047 0.979072 1.23499 0
M  V30 3752 C 369.01 0.523244 2.23147 0
M  V30 3753 C 370.01 -0.386406 1.56088 0
M  V30 3754 O 371.2 -0.180283 1.73265 0
M  V30 3755 C 368.332 -0.240739 3.40049 0
M  V30 3756 H 369.525 1.40432 2.64989 0
M  V30 3757 H 367.078 0.764824 1.36309 0
M  V30 3758 H 367.813 -1.13841 3.03662 0
M  V30 3759 H 367.598 0.412207 3.89927 0
M  V30 3760 H 369.088 -0.548297 4.13985 0
M  V30 3761 N 369.525 -1.3858 0.750561 0
M  V30 3762 C 370.472 -2.30483 0.120835 0
M  V30 3763 C 371.442 -1.50022 -0.712923 0
M  V30 3764 O 372.627 -1.78662 -0.669676 0
M  V30 3765 C 369.767 -3.36431 -0.768666 0
M  V30 3766 C 368.88 -4.31927 0.0793922 0
M  V30 3767 C 368.015 -5.24944 -0.81283 0
M  V30 3768 C 367.054 -6.12088 0.0390447 0
M  V30 3769 N 366.191 -6.97412 -0.809969 0
M  V30 3770 H 371.031 -2.83761 0.91015 0
M  V30 3771 H 368.568 -1.39707 0.460463 0
M  V30 3772 H 370.526 -3.96462 -1.29898 0
M  V30 3773 H 369.156 -2.8457 -1.5238 0
M  V30 3774 H 368.208 -3.73382 0.727303 0
M  V30 3775 H 369.52 -4.93319 0.737401 0
M  V30 3776 H 368.674 -5.90078 -1.41042 0
M  V30 3777 H 367.413 -4.63911 -1.50458 0
M  V30 3778 H 366.418 -5.45952 0.649328 0
M  V30 3779 H 367.643 -6.75189 0.727809 0
M  V30 3780 H 365.589 -6.38931 -1.48672 0
M  V30 3781 H 365.506 -7.55712 -0.208789 0
M  V30 3782 H 366.774 -7.66959 -1.39263 0
M  V30 3783 N 371.003 -0.499398 -1.49478 0
M  V30 3784 C 372.228 0.044722 -2.07352 0
M  V30 3785 C 372.653 1.30207 -1.35749 0
M  V30 3786 O 372.011 1.76516 -0.413732 0
M  V30 3787 C 372.059 0.283013 -3.59488 0
M  V30 3788 O 371.163 1.35804 -3.89398 0
M  V30 3789 H 370.504 -0.0255147 -0.66351 0
M  V30 3790 H 373.034 -0.698561 -1.92305 0
M  V30 3791 H 373.044 0.515007 -4.04737 0
M  V30 3792 H 371.719 -0.635636 -4.11014 0
M  V30 3793 H 370.296 1.11113 -3.55961 0
M  V30 3794 N 372.481 1.55866 -0.233164 0
M  V30 3795 C 373.706 2.03449 0.402906 0
M  V30 3796 C 374.131 1.11166 1.51736 0
M  V30 3797 O 373.489 0.101996 1.81013 0
M  V30 3798 C 373.537 3.49165 0.9009 0
M  V30 3799 O 372.641 3.60019 2.01147 0
M  V30 3800 H 371.982 0.657913 0.0897025 0
M  V30 3801 H 374.512 2.01493 -0.355201 0
M  V30 3802 H 374.522 3.89716 1.2077 0
M  V30 3803 H 373.197 4.15813 0.0852889 0
M  V30 3804 H 371.774 3.3136 1.71042 0
M  V30 3805 N 373.959 -0.0401083 1.57549 0
M  V30 3806 C 374.907 -1.06264 2.06908 0
M  V30 3807 C 375.901 -1.38132 0.980608 0
M  V30 3808 O 377.107 -1.37167 1.16556 0
M  V30 3809 H 373.482 -0.360166 0.660139 0
M  V30 3810 H 375.453 -0.620445 2.91878 0
M  V30 3811 C 374.202 -2.35846 2.55483 0
M  V30 3812 H 373.525 -2.12183 3.38849 0
M  V30 3813 H 374.965 -3.05765 2.93741 0
M  V30 3814 C 373.424 -3.0404 1.45126 0
M  V30 3815 O 373.954 -3.93424 0.811216 0
M  V30 3816 N 372.16 -2.65184 1.18852 0
M  V30 3817 H 371.707 -1.92584 1.71083 0
M  V30 3818 H 371.665 -3.1113 0.452244 0
M  V30 3819 N 375.437 -1.54477 -0.31217 0
M  V30 3820 C 376.662 -1.77526 -1.07235 0
M  V30 3821 C 377.087 -0.527775 -1.80544 0
M  V30 3822 O 376.445 0.52121 -1.73646 0
M  V30 3823 C 376.493 -2.97535 -2.03728 0
M  V30 3824 O 375.597 -2.69878 -3.11833 0
M  V30 3825 H 374.938 -0.58792 -0.30862 0
M  V30 3826 H 377.468 -2.01532 -0.352993 0
M  V30 3827 H 377.478 -3.25198 -2.46395 0
M  V30 3828 H 376.153 -3.87996 -1.49774 0
M  V30 3829 H 374.73 -2.53199 -2.7376 0
M  V30 3830 N 376.915 0.57481 -1.46744 0
M  V30 3831 C 378.163 1.33009 -1.52161 0
M  V30 3832 C 378.484 1.94185 -0.178092 0
M  V30 3833 O 377.754 1.7899 0.796196 0
M  V30 3834 H 376.334 0.493873 -0.560445 0
M  V30 3835 H 378.996 0.672589 -1.82927 0
M  V30 3836 H 378.092 2.13273 -2.27862 0
M  V30 3837 N 378.394 1.34581 0.820102 0
M  V30 3838 C 379.326 1.22236 1.93884 0
M  V30 3839 C 380.339 0.148776 1.62119 0
M  V30 3840 O 381.528 0.400877 1.7394 0
M  V30 3841 C 378.628 0.856542 3.27897 0
M  V30 3842 C 377.801 2.02569 3.87666 0
M  V30 3843 C 376.86 1.63782 5.00062 0
M  V30 3844 O 375.886 2.35477 5.18208 0
M  V30 3845 N 377.088 0.553611 5.77854 0
M  V30 3846 H 379.853 2.18615 2.05006 0
M  V30 3847 H 377.414 1.27573 0.99683 0
M  V30 3848 H 379.406 0.578806 4.0054 0
M  V30 3849 H 377.976 -0.0171518 3.12595 0
M  V30 3850 H 377.196 2.468 3.07382 0
M  V30 3851 H 378.484 2.80752 4.24329 0
M  V30 3852 H 377.882 -0.0423528 5.65684 0
M  V30 3853 H 376.439 0.335614 6.50935 0
M  V30 3854 N 379.872 -1.04064 1.18357 0
M  V30 3855 C 380.804 -2.12114 0.868358 0
M  V30 3856 C 381.817 -1.62247 -0.134045 0
M  V30 3857 O 383.006 -1.78253 0.0937933 0
M  V30 3858 C 380.106 -3.37773 0.276132 0
M  V30 3859 C 379.279 -4.16874 1.3242 0
M  V30 3860 C 378.338 -5.20861 0.747662 0
M  V30 3861 O 377.364 -5.51141 1.42239 0
M  V30 3862 N 378.566 -5.78715 -0.454823 0
M  V30 3863 H 381.331 -2.39748 1.79836 0
M  V30 3864 H 378.892 -1.20258 1.08396 0
M  V30 3865 H 380.884 -4.04513 -0.123133 0
M  V30 3866 H 379.454 -3.07581 -0.557895 0
M  V30 3867 H 378.674 -3.45456 1.89878 0
M  V30 3868 H 379.962 -4.66516 2.03078 0
M  V30 3869 H 379.36 -5.56415 -1.02073 0
M  V30 3870 H 377.917 -6.46921 -0.79601 0
M  V30 3871 N 381.35 -0.985608 -1.22978 0
M  V30 3872 C 382.598 -0.656087 -1.91154 0
M  V30 3873 C 382.919 0.813561 -1.77218 0
M  V30 3874 O 382.189 1.58244 -1.1548 0
M  V30 3875 H 380.769 -0.239674 -0.707506 0
M  V30 3876 H 383.431 -1.25054 -1.49491 0
M  V30 3877 H 382.527 -0.912253 -2.9847 0
M  V30 3878 N 382.828 1.3818 -0.7579 0
M  V30 3879 C 384.074 2.00316 -0.316453 0
M  V30 3880 C 384.407 1.60026 1.10025 0
M  V30 3881 O 383.682 0.839835 1.75434 0
M  V30 3882 C 383.965 3.57349 -0.444245 0
M  V30 3883 C 383.818 4.07591 -1.90236 0
M  V30 3884 C 385.137 4.3981 0.1598 0
M  V30 3885 H 382.256 0.727741 -0.116459 0
M  V30 3886 H 384.898 1.6406 -0.958352 0
M  V30 3887 H 383.048 3.88365 0.102233 0
M  V30 3888 H 384.72 3.87199 -2.50748 0
M  V30 3889 H 382.963 3.60297 -2.41595 0
M  V30 3890 H 383.634 5.16677 -1.94291 0
M  V30 3891 H 386.11 4.14971 -0.306314 0
M  V30 3892 H 384.986 5.48885 0.0401675 0
M  V30 3893 H 385.247 4.24102 1.24859 0
M  V30 3894 N 384.306 0.507319 1.49211 0
M  V30 3895 C 385.552 -0.0269732 2.03382 0
M  V30 3896 C 385.907 -1.34111 1.37957 0
M  V30 3897 O 385.2 -1.84733 0.508351 0
M  V30 3898 C 385.394 -0.229513 3.56662 0
M  V30 3899 C 385.223 1.06344 4.36945 0
M  V30 3900 C 383.993 1.617 4.78729 0
M  V30 3901 C 386.191 1.96833 4.75143 0
M  V30 3902 N 384.173 2.8552 5.43463 0
M  V30 3903 C 385.544 3.0523 5.39661 0
M  V30 3904 C 387.599 1.97434 4.57082 0
M  V30 3905 C 386.302 4.14265 5.88028 0
M  V30 3906 C 388.328 3.05448 5.06414 0
M  V30 3907 C 387.69 4.12564 5.70938 0
M  V30 3908 H 383.789 0.0310673 0.781383 0
M  V30 3909 H 386.373 0.683579 1.82305 0
M  V30 3910 H 384.544 -0.909127 3.7761 0
M  V30 3911 H 386.276 -0.761377 3.97473 0
M  V30 3912 H 383.031 1.16132 4.59141 0
M  V30 3913 H 383.455 3.48499 5.80412 0
M  V30 3914 H 388.097 1.15924 4.06597 0
M  V30 3915 H 385.815 4.96569 6.3753 0
M  V30 3916 H 389.401 3.06941 4.94246 0
M  V30 3917 H 388.281 4.94767 6.0842 0
M  V30 3918 N 385.784 -1.5574 0.241426 0
M  V30 3919 C 387.03 -1.99104 -0.385406 0
M  V30 3920 C 387.363 -1.1293 -1.57988 0
M  V30 3921 O 386.638 -0.191449 -1.93555 0
M  V30 3922 C 386.921 -3.51087 -0.800616 0
M  V30 3923 C 386.774 -4.48028 0.398874 0
M  V30 3924 C 388.093 -4.08015 -1.64959 0
M  V30 3925 H 385.212 -0.723848 -0.138614 0
M  V30 3926 H 387.854 -1.86903 0.341642 0
M  V30 3927 H 386.004 -3.61615 -1.4201 0
M  V30 3928 H 387.676 -4.49487 1.03726 0
M  V30 3929 H 385.919 -4.21077 1.04293 0
M  V30 3930 H 386.59 -5.51962 0.0651056 0
M  V30 3931 H 389.066 -4.00555 -1.12672 0
M  V30 3932 H 387.942 -5.14635 -1.90898 0
M  V30 3933 H 388.203 -3.56131 -2.61961 0
M  V30 3934 N 387.262 0.0317525 -1.57568 0
M  V30 3935 C 388.509 0.723104 -1.89149 0
M  V30 3936 C 388.837 1.75504 -0.838377 0
M  V30 3937 O 388.092 1.95037 0.160982 0
M  V30 3938 C 388.391 1.43167 -3.27472 0
M  V30 3939 C 388.057 0.535972 -4.47703 0
M  V30 3940 C 386.719 0.289262 -4.8033 0
M  V30 3941 C 389.071 -0.0826125 -5.21135 0
M  V30 3942 C 386.399 -0.584853 -5.83778 0
M  V30 3943 C 388.751 -0.944414 -6.25511 0
M  V30 3944 C 387.415 -1.20061 -6.56614 0
M  V30 3945 H 386.685 0.264602 -0.692146 0
M  V30 3946 H 389.332 -0.0169496 -1.91492 0
M  V30 3947 H 387.637 2.24497 -3.21105 0
M  V30 3948 H 389.334 1.97209 -3.49155 0
M  V30 3949 H 385.924 0.738414 -4.22191 0
M  V30 3950 H 390.108 0.0950302 -4.96209 0
M  V30 3951 H 385.364 -0.79168 -6.06253 0
M  V30 3952 H 389.538 -1.43026 -6.81554 0
M  V30 3953 H 387.165 -1.87967 -7.36595 0
M  V30 3954 N 388.74 1.54641 0.303973 0
M  V30 3955 C 389.65 1.88439 1.39743 0
M  V30 3956 C 390.666 0.778239 1.55626 0
M  V30 3957 O 391.842 1.07442 1.70347 0
M  V30 3958 C 388.907 2.12212 2.74166 0
M  V30 3959 C 387.968 3.35936 2.67293 0
M  V30 3960 C 387.201 3.58566 3.95305 0
M  V30 3961 O 387.424 2.84263 4.9452 0
M  V30 3962 O 386.358 4.52078 3.97378 0
M  V30 3963 H 390.184 2.81458 1.14083 0
M  V30 3964 H 387.769 1.40793 0.499768 0
M  V30 3965 H 389.651 2.29067 3.53704 0
M  V30 3966 H 388.326 1.22379 2.99675 0
M  V30 3967 H 387.233 3.24448 1.86237 0
M  V30 3968 H 388.566 4.2589 2.46736 0
M  V30 3969 N 390.218 -0.567019 1.47046 0
M  V30 3970 C 391.467 -1.32091 1.5243 0
M  V30 3971 C 391.78 -1.94704 0.187021 0
M  V30 3972 O 392.986 -2.7124 0.118771 0
M  V30 3973 C 391.442 -2.39479 2.68659 0
M  V30 3974 C 391.05 -1.831 4.08874 0
M  V30 3975 C 392.794 -3.16111 2.83327 0
M  V30 3976 C 390.701 -2.8821 5.16419 0
M  V30 3977 H 389.631 -0.496629 0.56734 0
M  V30 3978 H 392.282 -0.603354 1.73297 0
M  V30 3979 H 390.664 -3.14105 2.41152 0
M  V30 3980 H 391.838 -1.14913 4.46242 0
M  V30 3981 H 390.153 -1.19085 3.99008 0
M  V30 3982 H 392.75 -3.94585 3.60842 0
M  V30 3983 H 393.093 -3.69686 1.91411 0
M  V30 3984 H 393.626 -2.48595 3.10556 0
M  V30 3985 H 390.365 -2.39504 6.10179 0
M  V30 3986 H 389.885 -3.54839 4.8358 0
M  V30 3987 H 391.564 -3.51881 5.42945 0
M  V30 3988 N 391.696 -1.35014 -0.812953 0
M  V30 3989 C 392.944 -1.27678 -1.56661 0
M  V30 3990 C 393.265 0.150359 -1.94419 0
M  V30 3991 O 392.535 1.08532 -1.63088 0
M  V30 3992 H 391.115 -0.469602 -0.580933 0
M  V30 3993 H 393.777 -1.69043 -0.970076 0
M  V30 3994 H 392.873 -1.88833 -2.48492 0
M  V30 3995 N 393.175 1.03435 -1.18907 0
M  V30 3996 C 394.4 1.80919 -1.01406 0
M  V30 3997 C 394.825 1.83055 0.432721 0
M  V30 3998 O 394.183 1.25252 1.31079 0
M  V30 3999 C 394.231 3.24091 -1.58105 0
M  V30 4000 O 393.335 4.04434 -0.806669 0
M  V30 4001 H 392.676 0.558709 -0.358803 0
M  V30 4002 H 395.206 1.30223 -1.57807 0
M  V30 4003 H 395.216 3.74853 -1.61087 0
M  V30 4004 H 393.891 3.21851 -2.6341 0
M  V30 4005 H 392.468 3.63091 -0.849666 0
M  V30 4006 N 394.653 0.992116 1.22453 0
M  V30 4007 C 396.064 0.702776 1.72968 0
M  V30 4008 C 396.415 -0.780399 1.80012 0
M  V30 4009 O 395.54 -1.61007 1.44589 0
M  V30 4010 C 396.135 1.26903 3.14135 0
M  V30 4011 C 394.694 1.02909 3.62059 0
M  V30 4012 C 393.841 1.38969 2.39964 0
M  V30 4013 H 396.792 1.16457 1.07812 0
M  V30 4014 H 396.813 0.647223 3.74955 0
M  V30 4015 H 396.325 2.34851 3.08977 0
M  V30 4016 H 394.426 -0.0337979 3.72585 0
M  V30 4017 H 394.539 1.69191 4.48231 0
M  V30 4018 H 392.903 0.808279 2.41535 0
M  V30 4019 H 393.686 2.4792 2.37467 0
M  V30 4020 N 396.131 -1.37776 0.765217 0
M  V30 4021 C 397.094 -2.28686 0.153416 0
M  V30 4022 C 398.094 -1.47727 -0.635081 0
M  V30 4023 O 399.284 -1.68027 -0.459632 0
M  V30 4024 C 396.416 -3.31608 -0.790495 0
M  V30 4025 H 397.609 -2.84297 0.954723 0
M  V30 4026 H 395.162 -1.46932 0.53299 0
M  V30 4027 H 395.897 -2.81109 -1.61705 0
M  V30 4028 H 395.682 -3.9144 -0.227348 0
M  V30 4029 H 397.172 -3.99559 -1.21419 0
M  V30 4030 N 397.609 -0.515225 -1.4894 0
M  V30 4031 C 398.837 0.0206034 -2.0689 0
M  V30 4032 C 399.252 1.29514 -1.37374 0
M  V30 4033 O 398.609 1.76698 -0.456529 0
M  V30 4034 C 398.66 0.26351 -3.60538 0
M  V30 4035 O 398.381 -0.960517 -4.27441 0
M  V30 4036 C 399.882 0.841383 -4.35242 0
M  V30 4037 H 397.102 -0.0268608 -0.670462 0
M  V30 4038 H 399.646 -0.716651 -1.91532 0
M  V30 4039 H 397.801 0.950777 -3.75552 0
M  V30 4040 H 398.215 -0.73212 -5.19365 0
M  V30 4041 H 399.689 0.96085 -5.43573 0
M  V30 4042 H 400.166 1.8427 -3.98674 0
M  V30 4043 H 400.772 0.191143 -4.2487 0
M  V30 4044 N 399.087 1.5561 -0.249682 0
M  V30 4045 C 400.315 2.03411 0.378352 0
M  V30 4046 C 400.73 1.12886 1.51335 0
M  V30 4047 O 400.087 0.143833 1.81932 0
M  V30 4048 C 400.138 3.50537 0.88351 0
M  V30 4049 O 399.859 4.37614 -0.20626 0
M  V30 4050 C 401.36 4.14113 1.58195 0
M  V30 4051 H 398.58 0.664994 0.08958 0
M  V30 4052 H 401.124 2.01044 -0.374357 0
M  V30 4053 H 399.279 3.5343 1.58639 0
M  V30 4054 H 399.693 5.24199 0.177782 0
M  V30 4055 H 401.167 5.18741 1.8871 0
M  V30 4056 H 401.644 3.60767 2.50487 0
M  V30 4057 H 402.25 4.15151 0.923573 0
M  V30 4058 N 400.565 -0.0233959 1.57583 0
M  V30 4059 C 401.513 -1.04063 2.08023 0
M  V30 4060 C 402.507 -1.37084 0.995204 0
M  V30 4061 O 403.713 -1.35923 1.18004 0
M  V30 4062 H 400.088 -0.353144 0.663922 0
M  V30 4063 H 402.059 -0.589453 2.9252 0
M  V30 4064 C 400.808 -2.33123 2.57971 0
M  V30 4065 H 400.131 -2.08577 3.4108 0
M  V30 4066 H 401.571 -3.02632 2.96967 0
M  V30 4067 C 400.03 -3.02483 1.48342 0
M  V30 4068 O 400.56 -3.92541 0.852898 0
M  V30 4069 N 398.766 -2.63909 1.21658 0
M  V30 4070 H 398.313 -1.90758 1.73116 0
M  V30 4071 H 398.271 -3.10633 0.485218 0
M  V30 4072 N 402.043 -1.548 -0.295768 0
M  V30 4073 C 403.291 -1.73985 -1.02828 0
M  V30 4074 C 403.612 -0.531406 -1.87619 0
M  V30 4075 O 402.882 0.454221 -1.90561 0
M  V30 4076 H 401.462 -0.641556 -0.382642 0
M  V30 4077 H 404.124 -1.92163 -0.325489 0
M  V30 4078 H 403.22 -2.63129 -1.67838 0
M  V30 4079 N 403.521 0.559213 -1.47345 0
M  V30 4080 C 404.767 1.31843 -1.54095 0
M  V30 4081 C 405.1 1.93149 -0.201726 0
M  V30 4082 O 404.375 1.77759 0.789428 0
M  V30 4083 C 404.658 2.43006 -2.65744 0
M  V30 4084 C 404.511 1.86581 -4.09277 0
M  V30 4085 C 405.83 3.44943 -2.73318 0
M  V30 4086 H 402.949 0.478012 -0.560957 0
M  V30 4087 H 405.591 0.625977 -1.79392 0
M  V30 4088 H 403.741 3.02072 -2.44305 0
M  V30 4089 H 405.413 1.31792 -4.42073 0
M  V30 4090 H 403.656 1.17268 -4.17649 0
M  V30 4091 H 404.327 2.66933 -4.83168 0
M  V30 4092 H 406.803 2.95793 -2.92653 0
M  V30 4093 H 405.679 4.20153 -3.53218 0
M  V30 4094 H 405.94 4.03665 -1.80296 0
M  V30 4095 N 404.999 1.35443 0.805782 0
M  V30 4096 C 406.245 1.28952 1.56522 0
M  V30 4097 C 406.578 -0.135597 1.93726 0
M  V30 4098 O 405.853 -1.08516 1.61414 0
M  V30 4099 C 406.136 2.19678 2.85331 0
M  V30 4100 C 405.989 3.7081 2.54598 0
M  V30 4101 C 407.308 2.09495 3.8704 0
M  V30 4102 H 404.427 0.469764 0.567883 0
M  V30 4103 H 407.069 1.65851 0.927001 0
M  V30 4104 H 405.219 1.8834 3.39795 0
M  V30 4105 H 406.891 4.12593 2.06312 0
M  V30 4106 H 405.134 3.91051 1.8778 0
M  V30 4107 H 405.805 4.29679 3.46525 0
M  V30 4108 H 408.281 2.37045 3.41978 0
M  V30 4109 H 407.157 2.75173 4.74943 0
M  V30 4110 H 407.418 1.07714 4.28777 0
M  V30 4111 N 406.477 -1.02803 1.19454 0
M  V30 4112 C 407.888 -1.57667 0.999899 0
M  V30 4113 C 408.239 -1.91041 -0.446956 0
M  V30 4114 O 407.364 -1.70978 -1.32648 0
M  V30 4115 C 407.959 -2.86477 1.80877 0
M  V30 4116 C 406.518 -3.37911 1.65811 0
M  V30 4117 C 405.665 -2.11343 1.79526 0
M  V30 4118 H 408.616 -0.853214 1.33813 0
M  V30 4119 H 408.637 -3.57408 1.30536 0
M  V30 4120 H 408.149 -2.62155 2.86175 0
M  V30 4121 H 406.25 -3.67218 0.63102 0
M  V30 4122 H 406.363 -4.10885 2.46395 0
M  V30 4123 H 404.727 -2.23254 1.22596 0
M  V30 4124 H 405.51 -1.89461 2.86285 0
M  V30 4125 N 407.956 -0.998596 -1.21925 0
M  V30 4126 C 408.919 -0.558679 -2.22287 0
M  V30 4127 C 409.919 0.361525 -1.56683 0
M  V30 4128 O 411.109 0.152695 -1.73529 0
M  V30 4129 C 408.241 0.18661 -3.40389 0
M  V30 4130 H 409.434 -1.4463 -2.62721 0
M  V30 4131 H 406.987 -0.786413 -1.35075 0
M  V30 4132 H 407.722 1.08996 -3.05435 0
M  V30 4133 H 407.507 -0.474188 -3.89222 0
M  V30 4134 H 408.997 0.482367 -4.14805 0
M  V30 4135 N 409.434 1.37368 -0.772513 0
M  V30 4136 C 410.711 1.93839 -0.26188 0
M  V30 4137 C 411.091 1.7061 1.24319 0
M  V30 4138 O 410.439 1.05534 2.02669 0
M  V30 4139 C 410.649 3.43154 -0.636102 0
M  V30 4140 C 411.997 4.20249 -0.606324 0
M  V30 4141 O 413.021 3.5152 -0.575538 0
M  V30 4142 O 411.88 5.42809 -0.634086 0
M  V30 4143 H 408.974 0.82478 -0.0605555 0
M  V30 4144 H 411.52 1.4665 -0.853917 0
M  V30 4145 H 410.292 3.53647 -1.6748 0
M  V30 4146 H 409.915 3.97596 -0.0170516 0
M  V30 4147 N 410.912 0.523116 1.48665 0
M  V30 4148 C 412.158 -0.0134963 2.02796 0
M  V30 4149 C 412.491 -1.34582 1.40004 0
M  V30 4150 O 411.766 -1.86756 0.543381 0
M  V30 4151 C 412.049 -0.14276 3.59817 0
M  V30 4152 C 411.902 1.21425 4.331 0
M  V30 4153 C 413.221 -0.872856 4.31357 0
M  V30 4154 H 410.34 -0.00343074 0.736992 0
M  V30 4155 H 412.982 0.678816 1.7746 0
M  V30 4156 H 411.132 -0.732401 3.81534 0
M  V30 4157 H 412.804 1.84447 4.2282 0
M  V30 4158 H 411.047 1.79791 3.94788 0
M  V30 4159 H 411.718 1.07687 5.41394 0
M  V30 4160 H 414.194 -0.372555 4.14429 0
M  V30 4161 H 413.07 -0.932185 5.40927 0
M  V30 4162 H 413.331 -1.92161 3.98154 0
M  V30 4163 N 412.39 -1.55475 0.257931 0
M  V30 4164 C 413.639 -1.98383 -0.364275 0
M  V30 4165 C 413.952 -1.14952 -1.58258 0
M  V30 4166 O 415.158 -1.47924 -2.27664 0
M  V30 4167 C 413.614 -3.53037 -0.699479 0
M  V30 4168 C 413.222 -4.45223 0.498046 0
M  V30 4169 C 414.966 -4.04575 -1.28526 0
M  V30 4170 C 412.873 -5.91238 0.138383 0
M  V30 4171 H 411.803 -0.740911 -0.13988 0
M  V30 4172 H 414.454 -1.79936 0.359883 0
M  V30 4173 H 412.836 -3.6722 -1.48207 0
M  V30 4174 H 414.01 -4.42803 1.27522 0
M  V30 4175 H 412.325 -4.04226 0.999503 0
M  V30 4176 H 414.922 -5.11196 -1.56788 0
M  V30 4177 H 415.265 -3.5258 -2.21344 0
M  V30 4178 H 415.798 -3.93762 -0.565337 0
M  V30 4179 H 412.537 -6.47294 1.03398 0
M  V30 4180 H 412.057 -5.96768 -0.602374 0
M  V30 4181 H 413.736 -6.46413 -0.27553 0
M  V30 4182 N 413.868 0.0150385 -1.57593 0
M  V30 4183 C 414.798 1.01047 -2.10503 0
M  V30 4184 C 415.779 1.36816 -1.01071 0
M  V30 4185 O 416.964 1.45455 -1.28672 0
M  V30 4186 C 414.094 2.30708 -2.59598 0
M  V30 4187 C 413.048 2.09142 -3.73421 0
M  V30 4188 C 412.374 3.44685 -4.08774 0
M  V30 4189 C 413.674 1.46619 -5.01298 0
M  V30 4190 H 415.368 0.569978 -2.93925 0
M  V30 4191 H 412.914 0.272724 -1.41394 0
M  V30 4192 H 414.867 3.00687 -2.95238 0
M  V30 4193 H 413.591 2.76843 -1.73279 0
M  V30 4194 H 412.25 1.41592 -3.38153 0
M  V30 4195 H 411.898 3.88495 -3.195 0
M  V30 4196 H 411.598 3.31077 -4.8545 0
M  V30 4197 H 413.122 4.16004 -4.4696 0
M  V30 4198 H 414.536 2.06535 -5.34805 0
M  V30 4199 H 412.933 1.43544 -5.82679 0
M  V30 4200 H 414.003 0.433611 -4.82957 0
M  V30 4201 N 415.346 1.54954 0.287554 0
M  V30 4202 C 416.594 1.74528 1.01904 0
M  V30 4203 C 416.915 0.541349 1.87335 0
M  V30 4204 O 416.185 -0.444108 1.908 0
M  V30 4205 H 414.765 0.643576 0.379235 0
M  V30 4206 H 417.427 1.92333 0.315294 0
M  V30 4207 H 416.523 2.64015 1.6644 0
M  V30 4208 N 416.824 -0.551391 1.4764 0
M  V30 4209 C 418.052 -1.33357 1.58189 0
M  V30 4210 C 418.467 -1.87342 0.234199 0
M  V30 4211 O 417.824 -1.65301 -0.77343 0
M  V30 4212 C 417.875 -2.49942 2.61173 0
M  V30 4213 O 417.596 -1.98187 3.90709 0
M  V30 4214 C 419.097 -3.42072 2.8196 0
M  V30 4215 H 416.317 -0.40631 0.533998 0
M  V30 4216 H 418.861 -0.667367 1.93304 0
M  V30 4217 H 417.016 -3.12489 2.28975 0
M  V30 4218 H 417.43 -2.74342 4.47031 0
M  V30 4219 H 418.904 -4.20278 3.57869 0
M  V30 4220 H 419.381 -3.95978 1.89995 0
M  V30 4221 H 419.987 -2.85336 3.15378 0
M  V30 4222 N 418.302 -1.35869 -0.798587 0
M  V30 4223 C 419.212 -1.31578 -1.94228 0
M  V30 4224 C 420.228 -0.21939 -1.72611 0
M  V30 4225 O 421.404 -0.450167 -1.96305 0
M  V30 4226 C 418.469 -1.09528 -3.28944 0
M  V30 4227 C 417.53 -2.28556 -3.63402 0
M  V30 4228 C 416.763 -2.07549 -4.9169 0
M  V30 4229 O 416.986 -1.046 -5.60727 0
M  V30 4230 O 415.92 -2.95106 -5.24591 0
M  V30 4231 H 419.746 -2.27847 -2.00796 0
M  V30 4232 H 417.331 -1.16322 -0.937526 0
M  V30 4233 H 419.213 -0.991127 -4.09579 0
M  V30 4234 H 417.888 -0.16315 -3.23289 0
M  V30 4235 H 416.795 -2.44538 -2.83112 0
M  V30 4236 H 418.128 -3.20244 -3.73771 0
M  V30 4237 N 419.78 1.02168 -1.19998 0
M  V30 4238 C 421.057 1.72816 -0.916191 0
M  V30 4239 C 421.437 2.03081 0.576325 0
M  V30 4240 O 420.785 1.69122 1.53656 0
M  V30 4241 C 420.995 2.9997 -1.78378 0
M  V30 4242 C 422.343 3.73336 -2.02251 0
M  V30 4243 O 423.367 3.09914 -1.75589 0
M  V30 4244 O 422.226 4.87371 -2.47249 0
M  V30 4245 H 419.32 0.752924 -0.342103 0
M  V30 4246 H 421.866 1.08062 -1.30846 0
M  V30 4247 H 420.638 2.73888 -2.79466 0
M  V30 4248 H 420.261 3.72464 -1.39126 0
M  V30 4249 N 421.258 1.00505 1.21394 0
M  V30 4250 C 422.506 0.686415 1.90086 0
M  V30 4251 C 422.827 -0.785264 1.7849 0
M  V30 4252 O 422.097 -1.56387 1.17983 0
M  V30 4253 H 420.677 0.2509 0.703604 0
M  V30 4254 H 423.339 1.27417 1.47482 0
M  V30 4255 H 422.435 0.959621 2.96981 0
M  V30 4256 N 422.737 -1.36956 0.779787 0
M  V30 4257 C 423.7 -2.2851 0.177662 0
M  V30 4258 C 424.7 -1.48393 -0.619377 0
M  V30 4259 O 425.89 -1.68505 -0.441785 0
M  V30 4260 C 423.022 -3.32428 -0.755279 0
M  V30 4261 H 424.215 -2.83269 0.984823 0
M  V30 4262 H 421.768 -1.46358 0.548544 0
M  V30 4263 H 422.503 -2.82808 -1.58714 0
M  V30 4264 H 422.288 -3.91659 -0.185817 0
M  V30 4265 H 423.778 -4.00824 -1.17174 0
M  V30 4266 N 424.215 -0.530993 -1.48385 0
M  V30 4267 C 425.125 0.23503 -2.3342 0
M  V30 4268 C 426.141 0.93801 -1.46552 0
M  V30 4269 O 427.317 0.912745 -1.7953 0
M  V30 4270 C 424.382 1.26778 -3.22689 0
M  V30 4271 C 423.443 0.575038 -4.25431 0
M  V30 4272 C 422.676 1.55858 -5.10435 0
M  V30 4273 O 422.899 2.79129 -4.97437 0
M  V30 4274 O 421.833 1.09742 -5.91811 0
M  V30 4275 H 425.659 -0.461794 -3.00169 0
M  V30 4276 H 423.244 -0.291903 -1.46521 0
M  V30 4277 H 425.126 1.86457 -3.77904 0
M  V30 4278 H 423.801 1.94699 -2.586 0
M  V30 4279 H 422.708 -0.0622782 -3.74048 0
M  V30 4280 H 424.041 -0.062253 -4.92161 0
M  V30 4281 N 425.693 1.55336 -0.266172 0
M  V30 4282 C 426.923 2.03506 0.356239 0
M  V30 4283 C 427.331 1.14426 1.50676 0
M  V30 4284 O 426.674 0.155043 1.83045 0
M  V30 4285 C 426.736 3.47848 0.90785 0
M  V30 4286 C 426.4 4.56861 -0.112888 0
M  V30 4287 C 427.397 5.11528 -0.929264 0
M  V30 4288 C 425.082 5.01704 -0.244546 0
M  V30 4289 C 427.076 6.09549 -1.86357 0
M  V30 4290 C 424.763 5.99553 -1.18234 0
M  V30 4291 C 425.761 6.53356 -1.99036 0
M  V30 4292 O 425.449 7.49293 -2.91231 0
M  V30 4293 H 425.181 0.670444 0.08649 0
M  V30 4294 H 427.735 2.01598 -0.39337 0
M  V30 4295 H 425.965 3.46967 1.70737 0
M  V30 4296 H 427.654 3.79407 1.44239 0
M  V30 4297 H 428.42 4.77701 -0.838237 0
M  V30 4298 H 424.299 4.59477 0.374359 0
M  V30 4299 H 427.843 6.51469 -2.49467 0
M  V30 4300 H 423.74 6.32799 -1.27421 0
M  V30 4301 H 424.508 7.66978 -2.8581 0
M  V30 4302 N 427.171 -0.0066808 1.57599 0
M  V30 4303 C 428.448 -0.729586 1.81484 0
M  V30 4304 C 428.828 -1.92359 0.869558 0
M  V30 4305 O 428.176 -2.28348 -0.0832533 0
M  V30 4306 C 428.386 -1.1416 3.29801 0
M  V30 4307 C 429.734 -1.54823 3.95367 0
M  V30 4308 O 430.758 -1.23558 3.34084 0
M  V30 4309 O 429.617 -2.12937 5.03309 0
M  V30 4310 H 426.711 -0.354674 0.747085 0
M  V30 4311 H 429.257 0.0182609 1.6969 0
M  V30 4312 H 428.029 -0.290231 3.90222 0
M  V30 4313 H 427.652 -1.94876 3.46568 0
M  V30 4314 N 428.649 -1.55105 -0.279332 0
M  V30 4315 C 429.926 -1.66119 -1.03267 0
M  V30 4316 C 430.306 -0.523525 -2.04505 0
M  V30 4317 O 429.654 0.477194 -2.23462 0
M  V30 4318 C 429.864 -3.05067 -1.69515 0
M  V30 4319 C 431.212 -3.62606 -2.20912 0
M  V30 4320 O 432.236 -3.07659 -1.79512 0
M  V30 4321 O 431.095 -4.58861 -2.96831 0
M  V30 4322 H 428.189 -0.674429 -0.478618 0
M  V30 4323 H 430.735 -1.67446 -0.275694 0
M  V30 4324 H 429.507 -3.79311 -0.9612 0
M  V30 4325 H 429.13 -3.07611 -2.51915 0
M  V30 4326 N 430.127 0.543554 -1.4793 0
M  V30 4327 C 431.037 1.67657 -1.64098 0
M  V30 4328 C 432.053 1.65934 -0.523622 0
M  V30 4329 O 433.229 1.85133 -0.792943 0
M  V30 4330 C 430.294 3.04146 -1.66421 0
M  V30 4331 C 429.355 3.16831 -2.89684 0
M  V30 4332 C 428.588 4.46809 -2.91886 0
M  V30 4333 O 428.811 5.33095 -2.02895 0
M  V30 4334 O 427.745 4.63573 -3.83906 0
M  V30 4335 H 431.571 1.56957 -2.59997 0
M  V30 4336 H 429.156 0.715116 -1.31173 0
M  V30 4337 H 431.038 3.85346 -1.70548 0
M  V30 4338 H 429.713 3.152 -0.736923 0
M  V30 4339 H 428.62 2.34977 -2.91095 0
M  V30 4340 H 429.953 3.10687 -3.81752 0
M  V30 4341 N 431.605 1.3629 0.791371 0
M  V30 4342 C 432.882 1.20962 1.53712 0
M  V30 4343 C 433.262 -0.205021 2.10102 0
M  V30 4344 O 432.61 -1.21042 1.93807 0
M  V30 4345 C 432.82 2.29002 2.63361 0
M  V30 4346 C 434.168 2.65572 3.31295 0
M  V30 4347 O 435.192 2.2803 2.73643 0
M  V30 4348 O 434.051 3.3018 4.35481 0
M  V30 4349 H 431.145 0.47086 0.679867 0
M  V30 4350 H 433.691 1.48016 0.830021 0
M  V30 4351 H 432.463 3.2382 2.19674 0
M  V30 4352 H 432.086 2.03303 3.41692 0
M  V30 4353 N 433.083 -1.0153 1.20538 0
M  V30 4354 C 433.993 -2.13557 0.971113 0
M  V30 4355 C 435.009 -1.73845 -0.0734366 0
M  V30 4356 O 436.185 -2.01075 0.114299 0
M  V30 4357 C 433.25 -3.42661 0.527639 0
M  V30 4358 C 432.311 -3.96608 1.64319 0
M  V30 4359 C 431.544 -5.1955 1.22078 0
M  V30 4360 O 431.767 -5.70329 0.0900198 0
M  V30 4361 O 430.701 -5.66681 2.02871 0
M  V30 4362 H 434.527 -2.3619 1.90913 0
M  V30 4363 H 432.112 -1.11946 0.989362 0
M  V30 4364 H 433.994 -4.20404 0.289621 0
M  V30 4365 H 432.669 -3.21441 -0.381779 0
M  V30 4366 H 431.576 -3.20139 1.93551 0
M  V30 4367 H 432.909 -4.22219 2.52966 0
M  V30 4368 N 434.561 -1.01147 -1.20859 0
M  V30 4369 C 435.838 -0.613136 -1.85742 0
M  V30 4370 C 436.218 0.909004 -1.90526 0
M  V30 4371 O 435.566 1.79862 -1.40932 0
M  V30 4372 C 435.776 -1.255 -3.25654 0
M  V30 4373 C 437.124 -1.3672 -4.01986 0
M  V30 4374 O 438.148 -1.21082 -3.34989 0
M  V30 4375 O 437.007 -1.6194 -5.21956 0
M  V30 4376 H 434.101 -0.210878 -0.799662 0
M  V30 4377 H 436.647 -1.10853 -1.2849 0
M  V30 4378 H 435.419 -2.29532 -3.16908 0
M  V30 4379 H 435.042 -0.746369 -3.90532 0
M  V30 4380 N 436.039 1.36541 -0.78704 0
M  V30 4381 C 437.269 2.03266 -0.369662 0
M  V30 4382 C 437.677 1.59481 1.01796 0
M  V30 4383 O 437.02 0.778612 1.66383 0
M  V30 4384 C 437.082 3.57779 -0.351371 0
M  V30 4385 C 436.746 4.24756 -1.68617 0
M  V30 4386 C 437.743 4.47811 -2.64124 0
M  V30 4387 C 435.428 4.62277 -1.96481 0
M  V30 4388 C 437.422 5.07464 -3.85693 0
M  V30 4389 C 435.109 5.21649 -3.18317 0
M  V30 4390 C 436.107 5.44182 -4.12741 0
M  V30 4391 O 435.795 6.02307 -5.32429 0
M  V30 4392 H 435.527 0.658977 -0.150751 0
M  V30 4393 H 438.081 1.75548 -1.0664 0
M  V30 4394 H 436.311 3.84606 0.401847 0
M  V30 4395 H 438 4.05879 0.0410147 0
M  V30 4396 H 438.766 4.19221 -2.43883 0
M  V30 4397 H 434.645 4.44065 -1.23805 0
M  V30 4398 H 438.189 5.24968 -4.59407 0
M  V30 4399 H 434.086 5.49664 -3.38437 0
M  V30 4400 H 434.854 6.20775 -5.33461 0
M  V30 4401 N 437.518 0.538854 1.48102 0
M  V30 4402 C 438.795 -0.0568108 1.95517 0
M  V30 4403 C 439.175 -1.50408 1.48124 0
M  V30 4404 O 438.523 -2.17133 0.711727 0
M  V30 4405 C 438.733 0.0696262 3.48931 0
M  V30 4406 C 440.081 -0.0851202 4.24515 0
M  V30 4407 O 441.105 -0.0037347 3.562 0
M  V30 4408 O 439.964 -0.257025 5.45895 0
M  V30 4409 H 437.058 -0.0743695 0.823649 0
M  V30 4410 H 439.604 0.604081 1.58584 0
M  V30 4411 H 438.376 1.07744 3.76174 0
M  V30 4412 H 437.999 -0.629714 3.92582 0
M  V30 4413 N 438.996 -1.55193 0.274407 0
M  V30 4414 C 439.926 -2.25471 -0.607032 0
M  V30 4415 C 440.907 -1.24461 -1.15946 0
M  V30 4416 O 442.092 -1.53179 -1.19373 0
M  V30 4417 C 439.222 -2.97526 -1.79153 0
M  V30 4418 C 438.176 -4.05459 -1.37067 0
M  V30 4419 C 437.502 -4.65084 -2.6382 0
M  V30 4420 C 438.802 -5.19691 -0.521389 0
M  V30 4421 H 440.496 -2.99393 -0.0209343 0
M  V30 4422 H 438.042 -1.43997 -0.00862866 0
M  V30 4423 H 439.995 -3.45402 -2.41404 0
M  V30 4424 H 438.719 -2.21138 -2.40344 0
M  V30 4425 H 437.378 -3.58393 -0.771355 0
M  V30 4426 H 437.026 -3.85365 -3.23268 0
M  V30 4427 H 436.726 -5.37961 -2.36372 0
M  V30 4428 H 438.25 -5.15708 -3.26921 0
M  V30 4429 H 439.664 -5.63623 -1.04889 0
M  V30 4430 H 438.061 -5.99126 -0.341825 0
M  V30 4431 H 439.131 -4.82713 0.46 0
M  V30 4432 N 440.474 -0.00167713 -1.576 0
M  V30 4433 C 441.437 0.974046 -2.07473 0
M  V30 4434 C 442.437 1.27143 -0.984444 0
M  V30 4435 O 443.627 1.21633 -1.24703 0
M  V30 4436 C 440.759 2.29849 -2.51759 0
M  V30 4437 H 441.952 0.54262 -2.9495 0
M  V30 4438 H 439.505 0.245829 -1.54355 0
M  V30 4439 H 440.24 2.77677 -1.67529 0
M  V30 4440 H 440.025 2.09584 -3.31386 0
M  V30 4441 H 441.515 2.9984 -2.90664 0
M  V30 4442 N 441.952 1.55251 0.271103 0
M  V30 4443 C 443.18 1.79974 1.02064 0
M  V30 4444 C 443.595 0.574003 1.79863 0
M  V30 4445 O 442.952 -0.456962 1.76686 0
M  V30 4446 C 443.003 3.02603 1.97772 0
M  V30 4447 O 442.724 4.20443 1.23124 0
M  V30 4448 C 444.225 3.39944 2.84522 0
M  V30 4449 H 441.445 0.599489 0.301419 0
M  V30 4450 H 443.989 2.02268 0.301313 0
M  V30 4451 H 442.144 2.8243 2.65165 0
M  V30 4452 H 442.558 4.89783 1.87651 0
M  V30 4453 H 444.032 4.28915 3.47471 0
M  V30 4454 H 444.509 2.59432 3.54389 0
M  V30 4455 H 445.115 3.62383 2.22618 0
M  V30 4456 N 443.43 -0.535701 1.48216 0
M  V30 4457 C 444.658 -1.31671 1.59594 0
M  V30 4458 C 445.073 -1.87083 0.254056 0
M  V30 4459 O 444.43 -1.66112 -0.755854 0
M  V30 4460 C 444.481 -2.47158 2.63809 0
M  V30 4461 O 444.202 -1.94032 3.92789 0
M  V30 4462 C 445.703 -3.39062 2.85573 0
M  V30 4463 H 442.923 -0.400623 0.538277 0
M  V30 4464 H 445.467 -0.646827 1.94001 0
M  V30 4465 H 443.622 -3.10043 2.32276 0
M  V30 4466 H 444.036 -2.69585 4.49916 0
M  V30 4467 H 445.51 -4.16459 3.62306 0
M  V30 4468 H 445.987 -3.93941 1.94184 0
M  V30 4469 H 446.593 -2.81975 3.18387 0
M  V30 4470 N 444.908 -1.36708 -0.784132 0
M  V30 4471 C 446.324 -1.17237 -1.08294 0
M  V30 4472 C 446.524 -5.93947e-05 -2.015 0
M  V30 4473 O 445.58 0.663686 -2.43622 0
M  V30 4474 C 446.893 -2.48557 -1.69233 0
M  V30 4475 C 448.441 -2.54968 -1.8155 0
M  V30 4476 C 448.916 -3.86388 -2.45904 0
M  V30 4477 N 450.407 -3.87762 -2.53367 0
M  V30 4478 C 451.142 -4.86191 -3.03983 0
M  V30 4479 N 450.638 -5.95015 -3.54866 0
M  V30 4480 N 452.431 -4.73606 -3.02743 0
M  V30 4481 H 444.582 -2.11758 -0.16501 0
M  V30 4482 H 446.845 -0.93822 -0.135822 0
M  V30 4483 H 446.551 -3.34638 -1.08215 0
M  V30 4484 H 446.425 -2.64748 -2.68679 0
M  V30 4485 H 448.812 -1.69302 -2.41704 0
M  V30 4486 H 448.893 -2.42672 -0.80895 0
M  V30 4487 H 448.537 -4.72462 -1.86392 0
M  V30 4488 H 448.467 -3.95982 -3.4714 0
M  V30 4489 H 450.958 -3.09145 -2.17343 0
M  V30 4490 H 451.271 -6.66086 -3.91854 0
M  V30 4491 H 449.616 -5.98676 -3.53003 0
M  V30 4492 H 452.807 -3.87717 -2.62284 0
M  V30 4493 H 452.98 -5.50473 -3.41881 0
M  V30 4494 N 446.386 1.0089 -1.21074 0
M  V30 4495 C 447.316 2.1145 -0.990523 0
M  V30 4496 C 448.297 1.69897 0.0831699 0
M  V30 4497 O 449.482 1.94052 -0.0758853 0
M  V30 4498 C 446.612 3.42914 -0.550177 0
M  V30 4499 C 445.566 3.98244 -1.56799 0
M  V30 4500 C 444.892 5.25568 -0.984013 0
M  V30 4501 C 446.192 4.30752 -2.95381 0
M  V30 4502 H 447.886 2.3013 -1.91521 0
M  V30 4503 H 445.432 1.10592 -0.92225 0
M  V30 4504 H 447.385 4.19653 -0.383305 0
M  V30 4505 H 446.109 3.24014 0.41015 0
M  V30 4506 H 444.768 3.23621 -1.72236 0
M  V30 4507 H 444.416 5.02998 -0.0155216 0
M  V30 4508 H 444.116 5.63551 -1.66384 0
M  V30 4509 H 445.64 6.04955 -0.828378 0
M  V30 4510 H 447.054 4.98349 -2.8341 0
M  V30 4511 H 445.451 4.79869 -3.60341 0
M  V30 4512 H 446.521 3.39192 -3.46521 0
M  V30 4513 N 447.864 1.01787 1.20321 0
M  V30 4514 C 449.112 0.706538 1.89347 0
M  V30 4515 C 449.433 -0.766289 1.79313 0
M  V30 4516 O 448.703 -1.55126 1.19635 0
M  V30 4517 H 447.283 0.258348 0.700903 0
M  V30 4518 H 449.945 1.28974 1.46122 0
M  V30 4519 H 449.041 0.991066 2.95946 0
M  V30 4520 N 449.342 -1.36122 0.79427 0
M  V30 4521 C 450.272 -2.32551 0.210328 0
M  V30 4522 C 451.253 -1.56884 -0.657386 0
M  V30 4523 O 452.438 -1.85014 -0.590207 0
M  V30 4524 C 449.568 -3.41128 -0.651819 0
M  V30 4525 C 448.522 -4.27842 0.116395 0
M  V30 4526 C 447.848 -5.2763 -0.86666 0
M  V30 4527 C 449.148 -5.05647 1.30837 0
M  V30 4528 H 450.842 -2.81636 1.01594 0
M  V30 4529 H 448.388 -1.35407 0.489981 0
M  V30 4530 H 450.341 -4.07581 -1.07031 0
M  V30 4531 H 449.065 -2.90622 -1.49019 0
M  V30 4532 H 447.724 -3.62952 0.515915 0
M  V30 4533 H 447.372 -4.73395 -1.70019 0
M  V30 4534 H 447.072 -5.86514 -0.35705 0
M  V30 4535 H 448.596 -5.96955 -1.28361 0
M  V30 4536 H 450.01 -5.65113 0.965393 0
M  V30 4537 H 448.407 -5.73967 1.75161 0
M  V30 4538 H 449.477 -4.37006 2.10128 0
M  V30 4539 N 450.82 -0.546701 -1.47814 0
M  V30 4540 C 451.73 0.21026 -2.33656 0
M  V30 4541 C 452.746 0.922413 -1.47538 0
M  V30 4542 O 453.922 0.893652 -1.80488 0
M  V30 4543 C 450.987 1.23348 -3.24016 0
M  V30 4544 C 450.048 0.529883 -4.26017 0
M  V30 4545 C 449.281 1.50435 -5.12059 0
M  V30 4546 O 449.504 2.73837 -5.00369 0
M  V30 4547 O 448.438 1.03459 -5.92942 0
M  V30 4548 H 452.264 -0.493605 -2.99662 0
M  V30 4549 H 449.849 -0.307427 -1.46203 0
M  V30 4550 H 451.731 1.82438 -3.79861 0
M  V30 4551 H 450.406 1.91945 -2.60651 0
M  V30 4552 H 449.313 -0.101948 -3.73961 0
M  V30 4553 H 450.646 -0.11445 -4.92067 0
M  V30 4554 N 452.299 1.55045 -0.282633 0
M  V30 4555 C 453.576 1.9179 0.384166 0
M  V30 4556 C 453.956 1.20778 1.73136 0
M  V30 4557 O 453.304 0.33719 2.25998 0
M  V30 4558 C 453.514 3.45149 0.517014 0
M  V30 4559 C 454.862 4.17064 0.796427 0
M  V30 4560 O 455.886 3.51084 0.601535 0
M  V30 4561 O 454.745 5.33837 1.16962 0
M  V30 4562 H 451.839 0.799483 0.211558 0
M  V30 4563 H 454.385 1.66474 -0.32934 0
M  V30 4564 H 453.157 3.88922 -0.430772 0
M  V30 4565 H 452.78 3.76443 1.2797 0
M  V30 4566 N 453.777 0.010035 1.57597 0
M  V30 4567 C 455.023 -0.673697 1.91283 0
M  V30 4568 C 455.356 -1.72863 0.884979 0
M  V30 4569 O 454.631 -1.94268 -0.0949487 0
M  V30 4570 C 454.914 -1.30766 3.35518 0
M  V30 4571 C 454.767 -0.263578 4.49027 0
M  V30 4572 C 456.086 -2.23105 3.79358 0
M  V30 4573 H 453.205 -0.243439 0.695634 0
M  V30 4574 H 455.847 0.0633864 1.89894 0
M  V30 4575 H 453.997 -1.93588 3.36832 0
M  V30 4576 H 455.669 0.365738 4.59848 0
M  V30 4577 H 453.912 0.413077 4.31829 0
M  V30 4578 H 454.583 -0.746398 5.4693 0
M  V30 4579 H 457.059 -1.70289 3.79659 0
M  V30 4580 H 455.935 -2.64424 4.81011 0
M  V30 4581 H 456.196 -3.11433 3.13787 0
M  V30 4582 N 455.255 -1.55392 -0.262866 0
M  V30 4583 C 456.503 -1.76127 -0.991147 0
M  V30 4584 C 456.824 -0.571083 -1.8645 0
M  V30 4585 O 456.094 0.413698 -1.91482 0
M  V30 4586 H 454.674 -0.649528 -0.368948 0
M  V30 4587 H 457.336 -1.9281 -0.284655 0
M  V30 4588 H 456.432 -2.6663 -1.62219 0
M  V30 4589 N 456.733 0.527833 -1.48498 0
M  V30 4590 C 457.961 1.30823 -1.6029 0
M  V30 4591 C 458.376 1.86945 -0.263974 0
M  V30 4592 O 457.733 1.6651 0.747034 0
M  V30 4593 C 457.784 2.45756 -2.65116 0
M  V30 4594 O 457.505 1.91946 -3.93813 0
M  V30 4595 C 459.006 3.37543 -2.87367 0
M  V30 4596 H 456.226 0.397763 -0.540394 0
M  V30 4597 H 458.77 0.636529 -1.94341 0
M  V30 4598 H 456.925 3.08806 -2.33917 0
M  V30 4599 H 457.339 2.67195 -4.51339 0
M  V30 4600 H 458.813 4.14532 -3.6451 0
M  V30 4601 H 459.29 3.92905 -1.9627 0
M  V30 4602 H 459.896 2.80283 -3.19878 0
M  V30 4603 N 458.211 1.37122 0.776871 0
M  V30 4604 C 459.439 1.3523 1.5659 0
M  V30 4605 C 459.854 -0.0635518 1.88693 0
M  V30 4606 O 459.211 -1.02394 1.51069 0
M  V30 4607 C 459.262 2.18583 2.8793 0
M  V30 4608 O 458.983 3.5465 2.57206 0
M  V30 4609 C 460.484 2.24612 3.82183 0
M  V30 4610 H 457.704 0.4634 0.485285 0
M  V30 4611 H 460.248 1.80392 0.963266 0
M  V30 4612 H 458.403 1.76943 3.4463 0
M  V30 4613 H 458.817 3.98286 3.41275 0
M  V30 4614 H 460.291 2.87267 4.71361 0
M  V30 4615 H 460.768 1.25309 4.20944 0
M  V30 4616 H 461.374 2.66543 3.31414 0
M  V30 4617 N 459.689 -1.00246 1.21608 0
M  V30 4618 C 461.1 -1.55511 1.03312 0
M  V30 4619 C 461.451 -1.91946 -0.406332 0
M  V30 4620 O 460.576 -1.73753 -1.28992 0
M  V30 4621 C 461.171 -2.82576 1.86913 0
M  V30 4622 C 459.73 -3.34318 1.72941 0
M  V30 4623 C 458.877 -2.07487 1.83968 0
M  V30 4624 H 461.828 -0.824638 1.35593 0
M  V30 4625 H 461.849 -3.54559 1.38087 0
M  V30 4626 H 461.361 -2.56026 2.91672 0
M  V30 4627 H 459.462 -3.65797 0.70877 0
M  V30 4628 H 459.575 -4.05566 2.55055 0
M  V30 4629 H 457.939 -2.20603 1.27304 0
M  V30 4630 H 458.722 -1.83346 2.9024 0
M  V30 4631 N 461.167 -1.02423 -1.1978 0
M  V30 4632 C 462.414 -0.717988 -1.89344 0
M  V30 4633 C 462.742 0.753036 -1.79331 0
M  V30 4634 O 461.997 1.56355 -1.17692 0
M  V30 4635 C 462.296 -1.1088 -3.39765 0
M  V30 4636 C 461.962 -2.57731 -3.6998 0
M  V30 4637 C 460.624 -2.97854 -3.77937 0
M  V30 4638 C 462.976 -3.52763 -3.83677 0
M  V30 4639 C 460.304 -4.31931 -3.97054 0
M  V30 4640 C 462.656 -4.86538 -4.04306 0
M  V30 4641 C 461.32 -5.26356 -4.10494 0
M  V30 4642 H 460.59 -0.26273 -0.692859 0
M  V30 4643 H 463.237 -1.28623 -1.41875 0
M  V30 4644 H 461.542 -0.459094 -3.89101 0
M  V30 4645 H 463.239 -0.849432 -3.919 0
M  V30 4646 H 459.829 -2.25646 -3.64393 0
M  V30 4647 H 464.013 -3.2292 -3.76877 0
M  V30 4648 H 459.269 -4.62324 -4.00083 0
M  V30 4649 H 463.443 -5.60093 -4.13846 0
M  V30 4650 H 461.07 -6.3026 -4.2506 0
M  V30 4651 N 462.645 1.35699 -0.801477 0
M  V30 4652 C 463.87 2.03687 -0.390678 0
M  V30 4653 C 464.295 1.60015 0.988778 0
M  V30 4654 O 463.653 0.774357 1.63931 0
M  V30 4655 C 463.701 3.57439 -0.476404 0
M  V30 4656 O 462.805 4.09208 0.512106 0
M  V30 4657 H 462.146 0.64344 -0.163956 0
M  V30 4658 H 464.676 1.73403 -1.08594 0
M  V30 4659 H 464.686 4.06544 -0.344357 0
M  V30 4660 H 463.361 3.88576 -1.48262 0
M  V30 4661 H 461.938 3.7134 0.340721 0
M  V30 4662 N 464.123 0.554532 1.47522 0
M  V30 4663 C 465.353 0.0342074 2.06572 0
M  V30 4664 C 465.761 -1.26375 1.40805 0
M  V30 4665 O 465.104 -1.7683 0.49769 0
M  V30 4666 C 465.166 -0.235096 3.5873 0
M  V30 4667 C 464.83 0.973024 4.46521 0
M  V30 4668 C 465.827 1.8779 4.848 0
M  V30 4669 C 463.512 1.18694 4.88075 0
M  V30 4670 C 465.506 2.98039 5.63428 0
M  V30 4671 C 463.193 2.29254 5.66468 0
M  V30 4672 C 464.191 3.18757 6.04055 0
M  V30 4673 O 463.879 4.27401 6.8087 0
M  V30 4674 H 463.611 0.041587 0.67472 0
M  V30 4675 H 466.165 0.766748 1.90552 0
M  V30 4676 H 464.395 -1.02191 3.72953 0
M  V30 4677 H 466.084 -0.700477 3.9981 0
M  V30 4678 H 466.85 1.72467 4.53299 0
M  V30 4679 H 462.729 0.49947 4.58286 0
M  V30 4680 H 466.273 3.67926 5.92685 0
M  V30 4681 H 462.17 2.4455 5.97382 0
M  V30 4682 H 462.938 4.25415 6.9926 0
M  V30 4683 N 465.601 -1.54893 0.290851 0
M  V30 4684 C 466.548 -2.23138 -0.58974 0
M  V30 4685 C 467.518 -1.21036 -1.13752 0
M  V30 4686 O 468.703 -1.49626 -1.18392 0
M  V30 4687 C 465.843 -2.96811 -1.76061 0
M  V30 4688 C 464.956 -4.13665 -1.24519 0
M  V30 4689 C 464.091 -4.74944 -2.3791 0
M  V30 4690 C 463.13 -5.83963 -1.83451 0
M  V30 4691 N 462.267 -6.39239 -2.90376 0
M  V30 4692 H 467.107 -2.98 -0.00114915 0
M  V30 4693 H 464.644 -1.47096 0.0112006 0
M  V30 4694 H 466.602 -3.37751 -2.44909 0
M  V30 4695 H 465.232 -2.24344 -2.32098 0
M  V30 4696 H 464.284 -3.77737 -0.449288 0
M  V30 4697 H 465.596 -4.92238 -0.806424 0
M  V30 4698 H 464.75 -5.18684 -3.14724 0
M  V30 4699 H 463.489 -3.95682 -2.85109 0
M  V30 4700 H 462.494 -5.39657 -1.05122 0
M  V30 4701 H 463.719 -6.65103 -1.37169 0
M  V30 4702 H 461.665 -5.62864 -3.36927 0
M  V30 4703 H 461.582 -7.13129 -2.50965 0
M  V30 4704 H 462.85 -6.87637 -3.67118 0
M  V30 4705 N 467.08 -0.0183926 -1.57589 0
M  V30 4706 C 468.043 0.951986 -2.08494 0
M  V30 4707 C 469.043 1.26092 -0.997874 0
M  V30 4708 O 470.233 1.20304 -1.25987 0
M  V30 4709 C 467.365 2.27165 -2.54182 0
M  V30 4710 H 468.558 0.511307 -2.95509 0
M  V30 4711 H 466.111 0.229444 -1.54607 0
M  V30 4712 H 466.846 2.75884 -1.70465 0
M  V30 4713 H 466.631 2.06057 -3.33591 0
M  V30 4714 H 468.121 2.9674 -2.93828 0
M  V30 4715 N 468.558 1.5553 0.254621 0
M  V30 4716 C 469.488 1.9268 1.31897 0
M  V30 4717 C 470.469 0.790797 1.506 0
M  V30 4718 O 471.654 1.05045 1.63337 0
M  V30 4719 C 468.784 2.21477 2.67517 0
M  V30 4720 C 467.738 3.37256 2.63519 0
M  V30 4721 C 467.064 3.51576 4.02862 0
M  V30 4722 C 468.364 4.73157 2.21179 0
M  V30 4723 H 470.058 2.81832 1.01051 0
M  V30 4724 H 467.604 1.35599 0.484662 0
M  V30 4725 H 469.557 2.46055 3.42104 0
M  V30 4726 H 468.281 1.29144 2.99982 0
M  V30 4727 H 466.94 3.12675 1.9139 0
M  V30 4728 H 466.588 2.56676 4.32581 0
M  V30 4729 H 466.288 4.2943 4.01078 0
M  V30 4730 H 467.812 3.78467 4.79161 0
M  V30 4731 H 469.226 4.97158 2.85494 0
M  V30 4732 H 467.623 5.54058 2.30521 0
M  V30 4733 H 468.693 4.70739 1.16332 0
M  V30 4734 N 470.036 -0.519951 1.48776 0
M  V30 4735 C 471.452 -0.849418 1.35119 0
M  V30 4736 C 471.652 -1.98077 0.36982 0
M  V30 4737 O 470.708 -2.51664 -0.205359 0
M  V30 4738 C 472.021 -1.20748 2.75391 0
M  V30 4739 C 473.569 -1.31679 2.83954 0
M  V30 4740 C 474.044 -1.70824 4.24951 0
M  V30 4741 N 475.535 -1.77908 4.27672 0
M  V30 4742 C 476.27 -2.09603 5.33717 0
M  V30 4743 N 475.766 -2.39652 6.5003 0
M  V30 4744 N 477.559 -2.10694 5.21119 0
M  V30 4745 H 469.71 0.226377 2.1119 0
M  V30 4746 H 471.973 0.0386519 0.947212 0
M  V30 4747 H 471.679 -0.449703 3.48813 0
M  V30 4748 H 471.553 -2.15534 3.09556 0
M  V30 4749 H 473.94 -2.06532 2.10781 0
M  V30 4750 H 474.021 -0.3499 2.53396 0
M  V30 4751 H 473.665 -0.965282 4.98643 0
M  V30 4752 H 473.595 -2.6858 4.52959 0
M  V30 4753 H 476.086 -1.56923 3.43779 0
M  V30 4754 H 476.399 -2.6297 7.26682 0
M  V30 4755 H 474.744 -2.37149 6.53288 0
M  V30 4756 H 477.935 -1.86682 4.29264 0
M  V30 4757 H 478.108 -2.35062 6.03863 0
M  V30 4758 N 471.514 -1.37532 -0.769588 0
M  V30 4759 C 472.93 -1.18379 -1.07045 0
M  V30 4760 C 473.13 -0.0214312 -2.01489 0
M  V30 4761 O 472.186 0.637809 -2.44312 0
M  V30 4762 C 473.499 -2.50338 -1.66588 0
M  V30 4763 C 475.047 -2.56879 -1.78835 0
M  V30 4764 C 475.522 -3.88974 -2.41792 0
M  V30 4765 N 477.013 -3.90428 -2.4924 0
M  V30 4766 C 477.748 -4.89388 -2.98809 0
M  V30 4767 N 477.244 -5.98745 -3.48535 0
M  V30 4768 N 479.037 -4.76791 -2.97703 0
M  V30 4769 H 471.188 -2.11921 -0.142541 0
M  V30 4770 H 473.451 -0.939608 -0.125863 0
M  V30 4771 H 473.157 -3.35767 -1.0466 0
M  V30 4772 H 473.031 -2.67583 -2.65856 0
M  V30 4773 H 475.418 -1.71856 -2.39895 0
M  V30 4774 H 475.499 -2.43516 -0.783166 0
M  V30 4775 H 475.143 -4.74412 -1.81371 0
M  V30 4776 H 475.073 -3.99641 -3.4292 0
M  V30 4777 H 477.564 -3.11433 -2.14052 0
M  V30 4778 H 477.877 -6.70205 -3.84767 0
M  V30 4779 H 476.222 -6.02387 -3.46634 0
M  V30 4780 H 479.413 -3.90478 -2.58157 0
M  V30 4781 H 479.586 -5.54069 -3.36024 0
M  V30 4782 N 472.992 0.995999 -1.22138 0
M  V30 4783 C 474.24 1.73167 -1.042 0
M  V30 4784 C 474.561 1.90329 0.42423 0
M  V30 4785 O 473.831 1.4607 1.30539 0
M  V30 4786 H 472.411 0.641593 -0.38258 0
M  V30 4787 H 475.073 1.19974 -1.53598 0
M  V30 4788 H 474.169 2.72734 -1.51731 0
M  V30 4789 N 474.47 1.03057 1.19235 0
M  V30 4790 C 475.718 0.726581 1.88587 0
M  V30 4791 C 476.039 -0.747227 1.80115 0
M  V30 4792 O 475.309 -1.53849 1.21274 0
M  V30 4793 H 473.889 0.265768 0.698124 0
M  V30 4794 H 476.551 1.30516 1.44746 0
M  V30 4795 H 475.647 1.0224 2.94879 0
M  V30 4796 N 475.948 -1.35272 0.808662 0
M  V30 4797 C 476.911 -2.28082 0.226093 0
M  V30 4798 C 477.911 -1.49673 -0.587762 0
M  V30 4799 O 479.101 -1.69404 -0.405943 0
M  V30 4800 C 476.233 -3.33955 -0.684596 0
M  V30 4801 H 477.426 -2.81116 1.04469 0
M  V30 4802 H 474.979 -1.45162 0.579466 0
M  V30 4803 H 475.714 -2.86111 -1.5268 0
M  V30 4804 H 475.499 -3.91965 -0.102699 0
M  V30 4805 H 476.989 -4.03219 -1.08646 0
M  V30 4806 N 477.426 -0.562348 -1.47226 0
M  V30 4807 C 478.703 0.0256985 -1.95583 0
M  V30 4808 C 479.083 1.48032 -1.50498 0
M  V30 4809 O 478.431 2.15973 -0.746181 0
M  V30 4810 C 478.641 -0.125129 -3.48776 0
M  V30 4811 C 479.989 0.0175728 -4.24596 0
M  V30 4812 O 481.013 -0.0529341 -3.56161 0
M  V30 4813 O 479.872 0.170145 -5.46235 0
M  V30 4814 H 476.966 0.0612565 -0.824728 0
M  V30 4815 H 479.512 -0.629233 -1.57603 0
M  V30 4816 H 478.284 -1.13715 -3.74412 0
M  V30 4817 H 477.907 0.567178 -3.93534 0
M  V30 4818 N 478.904 1.54736 -0.299062 0
M  V30 4819 C 480.132 2.04512 0.313447 0
M  V30 4820 C 480.547 1.17643 1.47667 0
M  V30 4821 O 479.904 0.20164 1.81383 0
M  V30 4822 C 479.955 3.53171 0.771542 0
M  V30 4823 O 479.676 4.36736 -0.345379 0
M  V30 4824 C 481.177 4.18936 1.4494 0
M  V30 4825 H 478.397 0.667507 0.0683784 0
M  V30 4826 H 480.941 1.99752 -0.438129 0
M  V30 4827 H 479.096 3.58298 1.47314 0
M  V30 4828 H 479.51 5.24499 0.0109219 0
M  V30 4829 H 480.984 5.24482 1.72111 0
M  V30 4830 H 481.461 3.68554 2.38883 0
M  V30 4831 H 482.067 4.17879 0.791028 0
M  V30 4832 N 480.382 0.0267497 1.57577 0
M  V30 4833 C 481.612 -0.6617 1.95717 0
M  V30 4834 C 482.02 -1.66331 0.901706 0
M  V30 4835 O 481.363 -1.83273 -0.125241 0
M  V30 4836 C 481.425 -1.42649 3.29987 0
M  V30 4837 C 481.089 -0.583482 4.5326 0
M  V30 4838 C 482.086 0.140221 5.19711 0
M  V30 4839 C 479.771 -0.521581 4.99585 0
M  V30 4840 C 481.765 0.914523 6.30805 0
M  V30 4841 C 479.452 0.256428 6.10562 0
M  V30 4842 C 480.45 0.973189 6.76031 0
M  V30 4843 O 480.138 1.73845 7.84878 0
M  V30 4844 H 479.87 -0.187483 0.649481 0
M  V30 4845 H 482.424 0.0820847 2.05236 0
M  V30 4846 H 480.654 -2.21536 3.16952 0
M  V30 4847 H 482.343 -2.00282 3.53047 0
M  V30 4848 H 483.109 0.101716 4.84893 0
M  V30 4849 H 478.988 -1.06904 4.48433 0
M  V30 4850 H 482.532 1.4745 6.81839 0
M  V30 4851 H 478.429 0.296657 6.44818 0
M  V30 4852 H 479.197 1.65797 8.01532 0
M  V30 4853 N 481.861 -1.55662 -0.24637 0
M  V30 4854 C 483.086 -1.81914 -0.996093 0
M  V30 4855 C 483.511 -0.603875 -1.78143 0
M  V30 4856 O 482.869 0.447091 -1.75701 0
M  V30 4857 C 482.917 -3.05908 -1.90925 0
M  V30 4858 O 482.021 -2.82861 -3.00105 0
M  V30 4859 H 481.362 -0.600481 -0.283406 0
M  V30 4860 H 483.892 -2.02848 -0.267199 0
M  V30 4861 H 483.902 -3.35356 -2.3238 0
M  V30 4862 H 482.577 -3.93999 -1.33183 0
M  V30 4863 H 481.154 -2.64583 -2.62775 0
M  V30 4864 N 483.339 0.512053 -1.4905 0
M  V30 4865 C 484.585 1.26874 -1.58212 0
M  V30 4866 C 484.918 1.9241 -0.263073 0
M  V30 4867 O 484.193 1.80181 0.732476 0
M  V30 4868 C 484.476 2.34428 -2.73341 0
M  V30 4869 C 484.329 1.73466 -4.15006 0
M  V30 4870 C 485.648 3.36073 -2.84154 0
M  V30 4871 H 482.767 0.459924 -0.575881 0
M  V30 4872 H 485.409 0.568587 -1.81293 0
M  V30 4873 H 483.559 2.94146 -2.53792 0
M  V30 4874 H 485.231 1.17661 -4.46042 0
M  V30 4875 H 483.474 1.03921 -4.21168 0
M  V30 4876 H 484.145 2.51426 -4.91415 0
M  V30 4877 H 486.621 2.86332 -3.01916 0
M  V30 4878 H 485.497 4.08703 -3.66406 0
M  V30 4879 H 485.758 3.97725 -1.93048 0
M  V30 4880 N 484.817 1.37938 0.762283 0
M  V30 4881 C 486.228 1.30094 1.33912 0
M  V30 4882 C 486.579 -0.0472026 1.96143 0
M  V30 4883 O 485.704 -0.94917 1.94473 0
M  V30 4884 C 486.299 2.35592 2.43478 0
M  V30 4885 C 484.858 2.31353 2.96905 0
M  V30 4886 C 484.005 2.18919 1.70205 0
M  V30 4887 H 486.956 1.48423 0.561816 0
M  V30 4888 H 486.977 2.00806 3.23199 0
M  V30 4889 H 486.489 3.33701 1.98155 0
M  V30 4890 H 484.59 1.36799 3.46579 0
M  V30 4891 H 484.703 3.25147 3.51875 0
M  V30 4892 H 483.067 1.65624 1.93496 0
M  V30 4893 H 483.85 3.18956 1.26973 0
M  V30 4894 N 486.295 -0.989507 1.22664 0
M  V30 4895 C 487.52 -1.77031 1.08051 0
M  V30 4896 C 487.945 -1.84535 -0.364483 0
M  V30 4897 O 487.303 -1.3003 -1.2634 0
M  V30 4898 C 487.351 -3.18 1.70024 0
M  V30 4899 O 486.455 -4.01161 0.956216 0
M  V30 4900 H 485.796 -0.545008 0.379292 0
M  V30 4901 H 488.326 -1.24277 1.62531 0
M  V30 4902 H 488.336 -3.68616 1.74888 0
M  V30 4903 H 487.011 -3.11853 2.75174 0
M  V30 4904 H 485.588 -3.59687 0.98384 0
M  V30 4905 N 487.773 -1.03688 -1.18687 0
M  V30 4906 C 489.019 -0.739123 -1.88851 0
M  V30 4907 C 489.352 0.731042 -1.79915 0
M  V30 4908 O 488.627 1.53313 -1.19688 0
M  V30 4909 C 488.91 -1.20106 -3.3948 0
M  V30 4910 C 488.763 -2.73304 -3.57246 0
M  V30 4911 C 490.082 -0.788134 -4.32986 0
M  V30 4912 H 487.201 -0.269978 -0.68577 0
M  V30 4913 H 489.843 -1.28822 -1.3966 0
M  V30 4914 H 487.993 -0.733915 -3.81505 0
M  V30 4915 H 489.665 -3.28027 -3.24339 0
M  V30 4916 H 487.908 -3.13313 -3.00029 0
M  V30 4917 H 488.579 -3.00684 -4.62918 0
M  V30 4918 H 491.055 -1.19005 -3.98719 0
M  V30 4919 H 489.931 -1.13915 -5.36949 0
M  V30 4920 H 490.192 0.308988 -4.41019 0
M  V30 4921 N 489.251 1.34841 -0.815825 0
M  V30 4922 C 490.181 2.32187 -0.247298 0
M  V30 4923 C 491.162 1.5791 0.632344 0
M  V30 4924 O 492.347 1.8593 0.560698 0
M  V30 4925 C 489.477 3.42122 0.597466 0
M  V30 4926 C 488.431 4.27602 -0.184446 0
M  V30 4927 C 487.757 5.28942 0.782609 0
M  V30 4928 C 489.057 5.03502 -1.38865 0
M  V30 4929 H 490.751 2.79985 -1.06061 0
M  V30 4930 H 488.297 1.34611 -0.511461 0
M  V30 4931 H 490.25 4.09232 1.00533 0
M  V30 4932 H 488.974 2.92956 1.44376 0
M  V30 4933 H 487.633 3.62085 -0.573592 0
M  V30 4934 H 487.281 4.7604 1.62466 0
M  V30 4935 H 486.981 5.87008 0.263695 0
M  V30 4936 H 488.505 5.98922 1.18848 0
M  V30 4937 H 489.919 5.63506 -1.05518 0
M  V30 4938 H 488.316 5.71108 -1.8427 0
M  V30 4939 H 489.386 4.33608 -2.17054 0
M  V30 4940 N 490.729 0.570148 1.46925 0
M  V30 4941 C 491.954 0.0542592 2.07329 0
M  V30 4942 C 492.379 -1.23582 1.41806 0
M  V30 4943 O 491.737 -1.74341 0.497479 0
M  V30 4944 C 491.785 -0.111175 3.60429 0
M  V30 4945 O 490.889 -1.17071 3.95434 0
M  V30 4946 H 490.23 0.0571425 0.661537 0
M  V30 4947 H 492.76 0.789516 1.88753 0
M  V30 4948 H 492.77 -0.321315 4.06733 0
M  V30 4949 H 491.445 0.831012 4.07513 0
M  V30 4950 H 490.022 -0.940029 3.60857 0
M  V30 4951 N 492.207 -1.54576 0.307264 0
M  V30 4952 C 493.618 -1.8579 -0.184121 0
M  V30 4953 C 493.969 -1.22914 -1.52927 0
M  V30 4954 O 493.094 -0.529126 -2.09831 0
M  V30 4955 C 493.689 -3.37081 -0.340862 0
M  V30 4956 C 492.248 -3.68304 -0.776465 0
M  V30 4957 C 491.395 -2.77076 0.111503 0
M  V30 4958 H 494.346 -1.49656 0.528078 0
M  V30 4959 H 494.367 -3.61922 -1.17443 0
M  V30 4960 H 493.879 -3.82815 0.638309 0
M  V30 4961 H 491.98 -3.28092 -1.76596 0
M  V30 4962 H 492.093 -4.75434 -0.591512 0
M  V30 4963 H 490.457 -2.51374 -0.410256 0
M  V30 4964 H 491.24 -3.25632 1.08714 0
M  V30 4965 N 493.685 -0.035106 -1.57561 0
M  V30 4966 C 495.101 0.321334 -1.56332 0
M  V30 4967 C 495.301 1.72509 -1.04129 0
M  V30 4968 O 494.357 2.4287 -0.690694 0
M  V30 4969 C 495.67 0.164469 -3.0025 0
M  V30 4970 C 497.218 0.236786 -3.12103 0
M  V30 4971 C 497.693 0.10864 -4.57871 0
M  V30 4972 N 499.184 0.165433 -4.62904 0
M  V30 4973 C 499.919 0.0901506 -5.73329 0
M  V30 4974 N 499.415 -0.0365606 -6.9279 0
M  V30 4975 N 501.208 0.144572 -5.61914 0
M  V30 4976 H 493.359 -0.952976 -1.89821 0
M  V30 4977 H 495.622 -0.368537 -0.873432 0
M  V30 4978 H 495.328 -0.802746 -3.42416 0
M  V30 4979 H 495.202 0.932194 -3.655 0
M  V30 4980 H 497.589 1.19446 -2.69845 0
M  V30 4981 H 497.67 -0.561419 -2.49563 0
M  V30 4982 H 497.314 -0.845644 -5.00811 0
M  V30 4983 H 497.244 0.925786 -5.18398 0
M  V30 4984 H 499.735 0.263269 -3.76982 0
M  V30 4985 H 500.048 -0.0871487 -7.72751 0
M  V30 4986 H 498.393 -0.0714256 -6.94963 0
M  V30 4987 H 501.584 0.242006 -4.67474 0
M  V30 4988 H 501.757 0.0824413 -6.47948 0
M  V30 4989 N 495.163 1.55791 0.238111 0
M  V30 4990 C 496.579 1.48411 0.587045 0
M  V30 4991 C 496.779 0.72702 1.87927 0
M  V30 4992 O 495.835 0.259942 2.51158 0
M  V30 4993 C 497.148 2.92873 0.681623 0
M  V30 4994 C 498.696 3.03295 0.773363 0
M  V30 4995 C 499.171 4.49082 0.899428 0
M  V30 4996 N 500.662 4.53056 0.964075 0
M  V30 4997 C 501.397 5.63117 1.08104 0
M  V30 4998 N 500.893 6.82969 1.16299 0
M  V30 4999 N 502.686 5.50933 1.11488 0
M  V30 5000 H 494.837 2.0345 -0.610076 0
M  V30 5001 H 497.1 0.924034 -0.211813 0
M  V30 5002 H 496.806 3.51142 -0.19802 0
M  V30 5003 H 496.68 3.43851 1.55069 0
M  V30 5004 H 499.067 2.45101 1.64346 0
M  V30 5005 H 499.148 2.55513 -0.121034 0
M  V30 5006 H 498.792 5.07889 0.0338586 0
M  V30 5007 H 498.722 4.94553 1.809 0
M  V30 5008 H 501.213 3.66737 0.91173 0
M  V30 5009 H 501.526 7.62598 1.25155 0
M  V30 5010 H 499.871 6.85712 1.13241 0
M  V30 5011 H 503.062 4.56231 1.0474 0
M  V30 5012 H 503.235 6.36743 1.20259 0
M  V30 5013 N 496.642 -0.504142 1.49319 0
M  V30 5014 C 497.605 -1.5883 1.65244 0
M  V30 5015 C 498.605 -1.52009 0.524386 0
M  V30 5016 O 499.795 -1.55218 0.79077 0
M  V30 5017 C 496.927 -2.98481 1.64687 0
M  V30 5018 H 498.12 -1.4604 2.61939 0
M  V30 5019 H 495.673 -0.728144 1.38303 0
M  V30 5020 H 496.408 -3.16751 0.695644 0
M  V30 5021 H 496.193 -3.0484 2.46607 0
M  V30 5022 H 497.683 -3.77256 1.79075 0
M  V30 5023 N 498.12 -1.38341 -0.754957 0
M  V30 5024 C 499.083 -1.35262 -1.85032 0
M  V30 5025 C 500.083 -0.253393 -1.58791 0
M  V30 5026 O 501.273 -0.510205 -1.66561 0
M  V30 5027 C 498.405 -1.10544 -3.22479 0
M  V30 5028 H 499.598 -2.32712 -1.8917 0
M  V30 5029 H 497.151 -1.23614 -0.956515 0
M  V30 5030 H 497.886 -0.136952 -3.24011 0
M  V30 5031 H 497.671 -1.90127 -3.4292 0
M  V30 5032 H 499.161 -1.11082 -4.02555 0
M  V30 5033 N 499.598 0.982988 -1.23187 0
M  V30 5034 C 500.826 1.75921 -1.08901 0
M  V30 5035 C 501.241 1.85341 0.359719 0
M  V30 5036 O 500.598 1.33072 1.24892 0
M  V30 5037 C 500.649 3.18742 -1.70545 0
M  V30 5038 O 500.37 3.09814 -3.09753 0
M  V30 5039 C 501.871 4.1277 -1.61667 0
M  V30 5040 H 499.091 0.552166 -0.381252 0
M  V30 5041 H 501.635 1.23516 -1.62985 0
M  V30 5042 H 499.79 3.68182 -1.20501 0
M  V30 5043 H 500.204 3.99703 -3.39614 0
M  V30 5044 H 501.678 5.10697 -2.09506 0
M  V30 5045 H 502.155 4.3542 -0.575009 0
M  V30 5046 H 502.761 3.69232 -2.11064 0
M  V30 5047 N 501.076 1.04316 1.18135 0
M  V30 5048 C 501.986 0.646876 2.25505 0
M  V30 5049 C 503.002 -0.328008 1.7088 0
M  V30 5050 O 504.178 -0.182309 2.00573 0
M  V30 5051 C 501.243 0.0185664 3.46695 0
M  V30 5052 C 500.304 1.04277 4.16443 0
M  V30 5053 C 499.537 0.444352 5.31847 0
M  V30 5054 O 499.76 -0.748735 5.65465 0
M  V30 5055 O 498.694 1.17428 5.90334 0
M  V30 5056 H 502.52 1.54147 2.61672 0
M  V30 5057 H 500.105 0.814188 1.25265 0
M  V30 5058 H 501.987 -0.331068 4.20097 0
M  V30 5059 H 500.662 -0.849814 3.12346 0
M  V30 5060 H 499.569 1.44425 3.45098 0
M  V30 5061 H 500.902 1.882 4.54798 0
M  V30 5062 N 502.554 -1.34406 0.822964 0
M  V30 5063 C 503.97 -1.51275 0.508727 0
M  V30 5064 C 504.17 -1.76776 -0.967083 0
M  V30 5065 O 503.226 -1.81871 -1.75155 0
M  V30 5066 C 504.539 -2.67765 1.36829 0
M  V30 5067 C 506.087 -2.81647 1.36542 0
M  V30 5068 C 506.562 -4.01181 2.20947 0
M  V30 5069 N 508.053 -4.08388 2.18571 0
M  V30 5070 C 508.788 -5.00036 2.80627 0
M  V30 5071 N 508.284 -5.96906 3.51674 0
M  V30 5072 N 510.077 -4.92908 2.70181 0
M  V30 5073 H 502.228 -1.16113 1.77852 0
M  V30 5074 H 504.491 -0.56947 0.757897 0
M  V30 5075 H 504.197 -2.55551 2.41633 0
M  V30 5076 H 504.071 -3.62779 1.03303 0
M  V30 5077 H 506.458 -2.93303 0.325163 0
M  V30 5078 H 506.539 -1.87443 1.74066 0
M  V30 5079 H 506.183 -3.90286 3.25022 0
M  V30 5080 H 506.113 -4.94599 1.80774 0
M  V30 5081 H 508.604 -3.39051 1.66891 0
M  V30 5082 H 508.917 -6.63468 3.96271 0
M  V30 5083 H 507.262 -5.9703 3.5578 0
M  V30 5084 H 510.453 -4.1619 2.14251 0
M  V30 5085 H 510.626 -5.64137 3.18831 0
M  V30 5086 N 504.032 -0.577932 -1.46621 0
M  V30 5087 C 505.443 -0.150071 -1.86096 0
M  V30 5088 C 505.794 1.28563 -1.48209 0
M  V30 5089 O 504.919 1.97036 -0.894754 0
M  V30 5090 C 505.514 -0.265576 -3.37758 0
M  V30 5091 C 504.073 0.10738 -3.76247 0
M  V30 5092 C 503.22 -0.603711 -2.70649 0
M  V30 5093 H 506.171 -0.786438 -1.37844 0
M  V30 5094 H 506.192 0.510352 -3.77062 0
M  V30 5095 H 505.704 -1.3106 -3.65301 0
M  V30 5096 H 503.805 1.15272 -3.54321 0
M  V30 5097 H 503.918 -0.26561 -4.78363 0
M  V30 5098 H 502.282 -0.0444884 -2.54661 0
M  V30 5099 H 503.065 -1.65029 -3.01032 0
M  V30 5100 N 505.51 1.54411 -0.315457 0
M  V30 5101 C 506.44 2.27002 0.547039 0
M  V30 5102 C 507.421 1.27492 1.12605 0
M  V30 5103 O 508.606 1.5629 1.15269 0
M  V30 5104 C 505.736 3.02171 1.71201 0
M  V30 5105 C 504.69 4.0895 1.26268 0
M  V30 5106 C 504.016 4.71915 2.51396 0
M  V30 5107 C 505.316 5.20891 0.383419 0
M  V30 5108 H 507.01 2.99343 -0.0584517 0
M  V30 5109 H 504.556 1.4397 -0.0295527 0
M  V30 5110 H 506.509 3.51681 2.32161 0
M  V30 5111 H 505.233 2.27433 2.34397 0
M  V30 5112 H 503.892 3.60312 0.676062 0
M  V30 5113 H 503.54 3.93801 3.12937 0
M  V30 5114 H 503.24 5.44039 2.22026 0
M  V30 5115 H 504.764 5.24195 3.13133 0
M  V30 5116 H 506.178 5.66206 0.899082 0
M  V30 5117 H 504.575 5.99821 0.182857 0
M  V30 5118 H 505.645 4.81324 -0.587821 0
M  V30 5119 N 506.988 0.0434614 1.5754 0
M  V30 5120 C 508.236 -0.630786 1.92004 0
M  V30 5121 C 508.557 -1.71836 0.921807 0
M  V30 5122 O 507.827 -1.9587 -0.034522 0
M  V30 5123 H 506.407 -0.235988 0.708745 0
M  V30 5124 H 509.069 0.0946462 1.9467 0
M  V30 5125 H 508.165 -1.07434 2.93026 0
M  V30 5126 N 508.466 -1.55915 -0.229846 0
M  V30 5127 C 509.877 -1.68809 -0.797531 0
M  V30 5128 C 510.228 -0.643995 -1.8533 0
M  V30 5129 O 509.353 0.206492 -2.15413 0
M  V30 5130 C 509.948 -3.06043 -1.45338 0
M  V30 5131 C 508.507 -3.20819 -1.96856 0
M  V30 5132 C 507.654 -2.6472 -0.825736 0
M  V30 5133 H 510.605 -1.58699 -0.00533733 0
M  V30 5134 H 510.626 -3.01438 -2.32196 0
M  V30 5135 H 510.138 -3.82012 -0.684743 0
M  V30 5136 H 508.239 -2.49704 -2.76548 0
M  V30 5137 H 508.352 -4.27937 -2.15423 0
M  V30 5138 H 506.716 -2.22985 -1.23084 0
M  V30 5139 H 507.499 -3.43229 -0.0699019 0
M  V30 5140 N 509.944 0.496216 -1.49584 0
M  V30 5141 C 511.355 1.07765 -1.52459 0
M  V30 5142 C 511.706 1.93679 -0.31353 0
M  V30 5143 O 510.831 2.08588 0.576186 0
M  V30 5144 C 511.426 1.96111 -2.76271 0
M  V30 5145 C 509.985 2.49409 -2.81908 0
M  V30 5146 C 509.132 1.27142 -2.46435 0
M  V30 5147 H 512.083 0.279914 -1.56212 0
M  V30 5148 H 512.104 2.80862 -2.56704 0
M  V30 5149 H 511.616 1.33555 -3.64396 0
M  V30 5150 H 509.717 3.1559 -1.98074 0
M  V30 5151 H 509.83 2.86234 -3.84196 0
M  V30 5152 H 508.194 1.59818 -1.98319 0
M  V30 5153 H 508.977 0.662866 -3.3684 0
M  V30 5154 N 511.423 1.38739 0.74761 0
M  V30 5155 C 512.651 1.38521 1.53686 0
M  V30 5156 C 513.066 -0.0235129 1.88785 0
M  V30 5157 O 512.423 -0.991662 1.53207 0
M  V30 5158 C 512.474 2.24641 2.83229 0
M  V30 5159 O 512.195 3.60026 2.49625 0
M  V30 5160 C 513.696 2.32669 3.77333 0
M  V30 5161 H 510.916 0.473589 0.475347 0
M  V30 5162 H 513.46 1.82395 0.924786 0
M  V30 5163 H 511.615 1.84213 3.40799 0
M  V30 5164 H 512.029 4.05435 3.3275 0
M  V30 5165 H 513.503 2.97201 4.65162 0
M  V30 5166 H 513.98 1.3421 4.18192 0
M  V30 5167 H 514.586 2.73512 3.25685 0
M  V30 5168 N 512.901 -0.976442 1.23707 0
M  V30 5169 C 513.811 -2.10359 1.03856 0
M  V30 5170 C 514.827 -1.73991 -0.0180919 0
M  V30 5171 O 516.003 -2.0061 0.178211 0
M  V30 5172 C 513.068 -3.40809 0.636387 0
M  V30 5173 C 512.129 -3.91179 1.76854 0
M  V30 5174 C 511.362 -5.15404 1.38546 0
M  V30 5175 O 511.585 -5.69754 0.27142 0
M  V30 5176 O 510.519 -5.5994 2.20797 0
M  V30 5177 H 514.345 -2.29997 1.98331 0
M  V30 5178 H 511.93 -1.08742 1.02448 0
M  V30 5179 H 513.812 -4.19269 0.423223 0
M  V30 5180 H 512.487 -3.22493 -0.279322 0
M  V30 5181 H 511.394 -3.13819 2.03638 0
M  V30 5182 H 512.727 -4.13958 2.6627 0
M  V30 5183 N 514.379 -1.04941 -1.1758 0
M  V30 5184 C 515.795 -0.770282 -1.39781 0
M  V30 5185 C 515.995 0.636417 -1.91186 0
M  V30 5186 O 515.051 1.39923 -2.10185 0
M  V30 5187 C 516.364 -1.82376 -2.3908 0
M  V30 5188 C 517.912 -1.84569 -2.52791 0
M  V30 5189 C 518.387 -2.88933 -3.55361 0
M  V30 5190 N 519.878 -2.8788 -3.62877 0
M  V30 5191 C 520.613 -3.65282 -4.41992 0
M  V30 5192 N 520.109 -4.52461 -5.24643 0
M  V30 5193 N 521.902 -3.53732 -4.36841 0
M  V30 5194 H 514.053 -1.95705 -0.825438 0
M  V30 5195 H 516.316 -0.847284 -0.425222 0
M  V30 5196 H 516.022 -2.83323 -2.08376 0
M  V30 5197 H 515.896 -1.66327 -3.38549 0
M  V30 5198 H 518.283 -0.842879 -2.82807 0
M  V30 5199 H 518.364 -2.04696 -1.53406 0
M  V30 5200 H 518.008 -3.89398 -3.26085 0
M  V30 5201 H 517.938 -2.66059 -4.54445 0
M  V30 5202 H 520.429 -2.24666 -3.03864 0
M  V30 5203 H 520.742 -5.08211 -5.82187 0
M  V30 5204 H 519.087 -4.56524 -5.24033 0
M  V30 5205 H 522.278 -2.85021 -3.71323 0
M  V30 5206 H 522.451 -4.14302 -4.98255 0
M  V30 5207 N 515.857 1.33968 -0.830081 0
M  V30 5208 C 517.085 2.0228 -0.434773 0
M  V30 5209 C 517.5 1.62487 0.961419 0
M  V30 5210 O 516.857 0.833849 1.62337 0
M  V30 5211 C 516.908 3.5751 -0.535625 0
M  V30 5212 O 516.629 3.95864 -1.87679 0
M  V30 5213 C 518.13 4.43091 -0.136137 0
M  V30 5214 H 515.35 0.648151 -0.173613 0
M  V30 5215 H 517.894 1.71089 -1.12022 0
M  V30 5216 H 516.049 3.87266 0.101817 0
M  V30 5217 H 516.463 4.9056 -1.85609 0
M  V30 5218 H 517.937 5.51398 -0.257772 0
M  V30 5219 H 518.414 4.29433 0.921076 0
M  V30 5220 H 519.02 4.18677 -0.747662 0
M  V30 5221 N 517.335 0.585699 1.46312 0
M  V30 5222 C 518.751 0.247607 1.57668 0
M  V30 5223 C 518.951 -1.25007 1.58037 0
M  V30 5224 O 518.007 -2.03196 1.49893 0
M  V30 5225 C 519.32 0.899456 2.86933 0
M  V30 5226 C 520.868 0.873326 3.00569 0
M  V30 5227 C 521.343 1.50477 4.32574 0
M  V30 5228 N 522.834 1.46925 4.3928 0
M  V30 5229 C 523.569 1.92719 5.40044 0
M  V30 5230 N 523.065 2.46499 6.47464 0
M  V30 5231 N 524.858 1.83617 5.31264 0
M  V30 5232 H 517.009 1.55841 1.44317 0
M  V30 5233 H 519.272 0.651564 0.688599 0
M  V30 5234 H 518.978 1.95313 2.92482 0
M  V30 5235 H 518.852 0.409476 3.74971 0
M  V30 5236 H 521.239 -0.171736 2.946 0
M  V30 5237 H 521.32 1.40136 2.13999 0
M  V30 5238 H 520.964 2.54905 4.39302 0
M  V30 5239 H 520.894 0.951944 5.17924 0
M  V30 5240 H 523.385 1.07616 3.62253 0
M  V30 5241 H 523.698 2.79291 7.20567 0
M  V30 5242 H 522.043 2.50526 6.48276 0
M  V30 5243 H 525.234 1.41358 4.46246 0
M  V30 5244 H 525.407 2.19622 6.09648 0
M  V30 5245 N 518.813 -1.54241 0.323641 0
M  V30 5246 C 520.038 -2.05452 -0.283605 0
M  V30 5247 C 520.463 -1.19823 -1.44997 0
M  V30 5248 O 519.821 -0.207358 -1.8011 0
M  V30 5249 C 519.869 -3.53823 -0.695795 0
M  V30 5250 O 518.973 -3.71134 -1.79815 0
M  V30 5251 H 518.314 -0.662024 -0.0511917 0
M  V30 5252 H 520.844 -1.99079 0.472073 0
M  V30 5253 H 520.854 -3.96094 -0.978434 0
M  V30 5254 H 519.529 -4.15602 0.157287 0
M  V30 5255 H 518.106 -3.40768 -1.51431 0
M  V30 5256 N 520.291 -0.0518155 -1.57515 0
M  V30 5257 C 521.538 0.621823 -1.92716 0
M  V30 5258 C 521.866 1.70813 -0.930229 0
M  V30 5259 O 521.121 1.95616 0.0573708 0
M  V30 5260 C 521.42 1.25607 -3.34601 0
M  V30 5261 C 521.086 0.297901 -4.49915 0
M  V30 5262 C 519.748 0.034243 -4.81188 0
M  V30 5263 C 522.1 -0.358738 -5.19964 0
M  V30 5264 C 519.428 -0.893479 -5.79857 0
M  V30 5265 C 521.78 -1.27466 -6.19625 0
M  V30 5266 C 520.444 -1.54698 -6.49326 0
M  V30 5267 H 519.714 0.227541 -0.705199 0
M  V30 5268 H 522.361 -0.118432 -1.91133 0
M  V30 5269 H 520.666 2.07161 -3.32553 0
M  V30 5270 H 522.363 1.78424 -3.59118 0
M  V30 5271 H 518.953 0.513581 -4.25512 0
M  V30 5272 H 523.137 -0.168133 -4.96015 0
M  V30 5273 H 518.393 -1.11193 -6.01204 0
M  V30 5274 H 522.567 -1.78953 -6.73015 0
M  V30 5275 H 520.194 -2.26748 -7.25596 0
M  V30 5276 N 521.769 1.56035 0.221574 0
M  V30 5277 C 522.701 1.889 1.29805 0
M  V30 5278 C 523.714 0.777269 1.43047 0
M  V30 5279 O 524.903 1.05557 1.43945 0
M  V30 5280 C 522.003 2.0825 2.67367 0
M  V30 5281 C 521.176 3.39267 2.76073 0
M  V30 5282 C 520.235 3.48049 3.94649 0
M  V30 5283 O 519.261 4.2108 3.82988 0
M  V30 5284 N 520.463 2.79191 5.08953 0
M  V30 5285 H 523.228 2.81831 1.01938 0
M  V30 5286 H 520.789 1.5658 0.411612 0
M  V30 5287 H 522.781 2.11441 3.45072 0
M  V30 5288 H 521.351 1.21944 2.87834 0
M  V30 5289 H 520.571 3.48175 1.84846 0
M  V30 5290 H 521.859 4.25575 2.7886 0
M  V30 5291 H 521.257 2.19635 5.21322 0
M  V30 5292 H 519.814 2.88043 5.84701 0
M  V30 5293 N 523.247 -0.488276 1.49845 0
M  V30 5294 C 524.177 -1.59675 1.70371 0
M  V30 5295 C 525.158 -1.60878 0.552473 0
M  V30 5296 O 526.343 -1.77417 0.78973 0
M  V30 5297 C 523.473 -2.98098 1.782 0
M  V30 5298 C 522.427 -3.11761 2.93239 0
M  V30 5299 C 521.753 -4.51661 2.86193 0
M  V30 5300 C 523.053 -2.90589 4.33999 0
M  V30 5301 H 524.747 -1.42752 2.63177 0
M  V30 5302 H 522.293 -0.685317 1.26647 0
M  V30 5303 H 524.246 -3.75555 1.91144 0
M  V30 5304 H 522.97 -3.16138 0.820018 0
M  V30 5305 H 521.629 -2.36732 2.79917 0
M  V30 5306 H 521.277 -4.66595 1.87877 0
M  V30 5307 H 520.977 -4.61742 3.63412 0
M  V30 5308 H 522.501 -5.31162 3.01163 0
M  V30 5309 H 523.915 -3.57807 4.47936 0
M  V30 5310 H 522.312 -3.1213 5.12538 0
M  V30 5311 H 523.382 -1.86595 4.4756 0
M  V30 5312 N 524.725 -1.39134 -0.740242 0
M  V30 5313 C 525.688 -1.37217 -1.83587 0
M  V30 5314 C 526.688 -0.270221 -1.58513 0
M  V30 5315 O 527.878 -0.527843 -1.6601 0
M  V30 5316 C 525.01 -1.13959 -3.21288 0
M  V30 5317 H 526.203 -2.34705 -1.86691 0
M  V30 5318 H 523.756 -1.24622 -0.94335 0
M  V30 5319 H 524.491 -0.17131 -3.23847 0
M  V30 5320 H 524.276 -1.93754 -3.40884 0
M  V30 5321 H 525.766 -1.15346 -4.01354 0
M  V30 5322 N 526.204 0.969867 -1.24223 0
M  V30 5323 C 527.45 1.7151 -1.08223 0
M  V30 5324 C 527.783 1.90478 0.37838 0
M  V30 5325 O 527.058 1.4647 1.27971 0
M  V30 5326 C 527.341 3.10714 -1.82013 0
M  V30 5327 C 527.194 2.9925 -3.35811 0
M  V30 5328 C 528.513 4.10332 -1.59108 0
M  V30 5329 H 525.632 0.622499 -0.394543 0
M  V30 5330 H 528.274 1.1284 -1.52863 0
M  V30 5331 H 526.424 3.608 -1.44068 0
M  V30 5332 H 528.096 2.56608 -3.83341 0
M  V30 5333 H 526.339 2.35512 -3.64303 0
M  V30 5334 H 527.01 3.97857 -3.82641 0
M  V30 5335 H 529.486 3.69097 -1.92111 0
M  V30 5336 H 528.362 5.05804 -2.13198 0
M  V30 5337 H 528.623 4.38926 -0.528832 0
M  V30 5338 N 527.682 1.05563 1.17022 0
M  V30 5339 C 528.592 0.670758 2.24807 0
M  V30 5340 C 529.608 -0.309865 1.71219 0
M  V30 5341 O 530.784 -0.161025 2.00755 0
M  V30 5342 C 527.849 0.055337 3.46656 0
M  V30 5343 C 526.91 1.08688 4.15314 0
M  V30 5344 C 526.143 0.500736 5.31346 0
M  V30 5345 O 526.366 -0.688718 5.66227 0
M  V30 5346 O 525.3 1.23683 5.89055 0
M  V30 5347 H 529.126 1.56914 2.60023 0
M  V30 5348 H 526.711 0.827428 1.24395 0
M  V30 5349 H 528.593 -0.286492 4.20425 0
M  V30 5350 H 527.268 -0.816638 3.13229 0
M  V30 5351 H 526.175 1.48077 3.43546 0
M  V30 5352 H 527.508 1.93014 4.52777 0
M  V30 5353 N 529.16 -1.33526 0.837174 0
M  V30 5354 C 530.388 -2.02047 0.445494 0
M  V30 5355 C 530.803 -1.62995 -0.952788 0
M  V30 5356 O 530.16 -0.842447 -1.61892 0
M  V30 5357 C 530.211 -3.57221 0.554577 0
M  V30 5358 O 529.932 -3.94863 1.89776 0
M  V30 5359 C 531.433 -4.43012 0.159634 0
M  V30 5360 H 528.653 -0.647221 0.177048 0
M  V30 5361 H 531.197 -1.70492 1.12928 0
M  V30 5362 H 529.352 -3.87315 -0.0812781 0
M  V30 5363 H 529.766 -4.89569 1.88208 0
M  V30 5364 H 531.24 -5.51253 0.28701 0
M  V30 5365 H 531.717 -4.29916 -0.898289 0
M  V30 5366 H 532.323 -4.18274 0.769855 0
M  V30 5367 N 530.638 -0.59345 -1.46 0
M  V30 5368 C 531.885 -0.0831523 -2.02329 0
M  V30 5369 C 532.213 1.28093 -1.46364 0
M  V30 5370 O 531.468 1.85526 -0.622793 0
M  V30 5371 C 531.767 0.021178 -3.57394 0
M  V30 5372 C 531.433 -1.27671 -4.32448 0
M  V30 5373 C 530.095 -1.63227 -4.5267 0
M  V30 5374 C 532.447 -2.13511 -4.7546 0
M  V30 5375 C 529.775 -2.84401 -5.1316 0
M  V30 5376 C 532.127 -3.33922 -5.37289 0
M  V30 5377 C 530.791 -3.69747 -5.55737 0
M  V30 5378 H 530.061 -0.0304276 -0.740375 0
M  V30 5379 H 532.708 -0.772239 -1.75239 0
M  V30 5380 H 531.013 0.793454 -3.83682 0
M  V30 5381 H 532.71 0.431942 -3.98667 0
M  V30 5382 H 529.3 -0.989937 -4.17011 0
M  V30 5383 H 533.484 -1.87344 -4.59582 0
M  V30 5384 H 528.74 -3.12282 -5.25633 0
M  V30 5385 H 532.914 -4.00698 -5.69574 0
M  V30 5386 H 530.541 -4.6373 -6.02377 0
M  V30 5387 N 532.116 1.54067 -0.331816 0
M  V30 5388 C 533.066 2.21363 0.546101 0
M  V30 5389 C 534.05 1.19698 1.07523 0
M  V30 5390 O 535.242 1.45293 1.01088 0
M  V30 5391 C 532.371 2.98115 1.70242 0
M  V30 5392 C 531.457 4.07127 1.18779 0
M  V30 5393 N 531.848 5.04267 0.393465 0
M  V30 5394 C 530.146 4.21226 1.46576 0
M  V30 5395 C 530.847 5.81585 0.115572 0
M  V30 5396 N 529.823 5.39022 0.703987 0
M  V30 5397 H 533.625 2.93821 -0.0679751 0
M  V30 5398 H 531.139 1.61812 -0.138085 0
M  V30 5399 H 533.136 3.44818 2.34321 0
M  V30 5400 H 531.796 2.27181 2.31989 0
M  V30 5401 H 532.807 5.17888 0.0355757 0
M  V30 5402 H 529.484 3.61509 2.08848 0
M  V30 5403 H 530.874 6.6985 -0.524426 0
M  V30 5404 N 533.594 0.0601682 1.57485 0
M  V30 5405 C 534.526 -0.94047 2.09016 0
M  V30 5406 C 535.539 -1.26897 1.01985 0
M  V30 5407 O 536.728 -1.22819 1.29529 0
M  V30 5408 C 533.828 -2.25955 2.52582 0
M  V30 5409 C 533.001 -2.11163 3.83052 0
M  V30 5410 C 532.06 -3.26273 4.12835 0
M  V30 5411 O 531.086 -3.01779 4.82616 0
M  V30 5412 N 532.288 -4.51022 3.65458 0
M  V30 5413 H 535.053 -0.500578 2.9549 0
M  V30 5414 H 532.614 -0.125852 1.6141 0
M  V30 5415 H 534.606 -3.01846 2.69575 0
M  V30 5416 H 533.176 -2.61481 1.71308 0
M  V30 5417 H 532.396 -1.19808 3.75552 0
M  V30 5418 H 533.684 -1.98517 4.68475 0
M  V30 5419 H 533.082 -4.73811 3.09062 0
M  V30 5420 H 531.639 -5.23978 3.87673 0
M  V30 5421 N 535.072 -1.5615 -0.213296 0
M  V30 5422 C 536.004 -1.89586 -1.28802 0
M  V30 5423 C 537.017 -0.784844 -1.42633 0
M  V30 5424 O 538.206 -1.06319 -1.43383 0
M  V30 5425 C 535.306 -2.09665 -2.66259 0
M  V30 5426 C 534.479 -3.40726 -2.7427 0
M  V30 5427 C 533.538 -3.50137 -3.92798 0
M  V30 5428 O 532.564 -4.23105 -3.8075 0
M  V30 5429 N 533.766 -2.81886 -5.07465 0
M  V30 5430 H 536.531 -2.82368 -1.00442 0
M  V30 5431 H 534.092 -1.56796 -0.403302 0
M  V30 5432 H 536.084 -2.13268 -3.43946 0
M  V30 5433 H 534.654 -1.23469 -2.87183 0
M  V30 5434 H 533.874 -3.4915 -1.82997 0
M  V30 5435 H 535.162 -4.27048 -2.76599 0
M  V30 5436 H 534.56 -2.22397 -5.2015 0
M  V30 5437 H 533.117 -2.91139 -5.83165 0
M  V30 5438 N 536.55 0.480323 -1.50102 0
M  V30 5439 C 537.5 1.57685 -1.6468 0
M  V30 5440 C 538.484 1.52878 -0.5017 0
M  V30 5441 O 539.676 1.60058 -0.755668 0
M  V30 5442 C 536.805 2.96185 -1.73578 0
M  V30 5443 C 535.891 3.0591 -2.93734 0
M  V30 5444 N 536.282 2.85471 -4.1754 0
M  V30 5445 C 534.58 3.37036 -2.92101 0
M  V30 5446 C 535.281 2.99921 -4.9842 0
M  V30 5447 N 534.257 3.29715 -4.32191 0
M  V30 5448 H 538.059 1.40568 -2.58104 0
M  V30 5449 H 535.573 0.686874 -1.47159 0
M  V30 5450 H 537.57 3.75015 -1.82124 0
M  V30 5451 H 536.23 3.14356 -0.813057 0
M  V30 5452 H 537.241 2.61235 -4.47188 0
M  V30 5453 H 533.918 3.61253 -2.09291 0
M  V30 5454 H 535.308 2.88436 -6.06839 0
M  V30 5455 N 538.028 1.39524 0.732853 0
M  V30 5456 C 539.439 1.32905 1.31122 0
M  V30 5457 C 539.79 -0.00558708 1.96199 0
M  V30 5458 O 538.915 -0.907706 1.96443 0
M  V30 5459 C 539.51 2.40704 2.38426 0
M  V30 5460 C 538.069 2.37599 2.91931 0
M  V30 5461 C 537.216 2.2248 1.65523 0
M  V30 5462 H 540.167 1.49581 0.530207 0
M  V30 5463 H 540.188 2.07616 3.18867 0
M  V30 5464 H 539.7 3.37829 1.91033 0
M  V30 5465 H 537.801 1.44119 3.43599 0
M  V30 5466 H 537.914 3.32538 3.44899 0
M  V30 5467 H 536.278 1.69691 1.8994 0
M  V30 5468 H 537.061 3.21577 1.20178 0
M  V30 5469 N 539.506 -0.963266 1.24736 0
M  V30 5470 C 540.438 -2.06162 1.0015 0
M  V30 5471 C 541.451 -1.62771 -0.0305905 0
M  V30 5472 O 542.64 -1.77296 0.206966 0
M  V30 5473 C 539.74 -3.35333 0.490385 0
M  V30 5474 C 538.913 -4.07609 1.58663 0
M  V30 5475 C 537.972 -5.15052 1.0774 0
M  V30 5476 O 536.998 -5.4098 1.77002 0
M  V30 5477 N 538.2 -5.80436 -0.0858605 0
M  V30 5478 H 540.965 -2.27825 1.94719 0
M  V30 5479 H 538.526 -1.13121 1.15825 0
M  V30 5480 H 540.518 -4.04477 0.134371 0
M  V30 5481 H 539.088 -3.10507 -0.361155 0
M  V30 5482 H 538.308 -3.32681 2.11463 0
M  V30 5483 H 539.596 -4.52656 2.32336 0
M  V30 5484 H 538.994 -5.6178 -0.664806 0
M  V30 5485 H 537.551 -6.50674 -0.382981 0
M  V30 5486 N 540.985 -1.06182 -1.16461 0
M  V30 5487 C 542.231 -0.779015 -1.87241 0
M  V30 5488 C 542.564 0.692715 -1.81425 0
M  V30 5489 O 541.839 1.5074 -1.22913 0
M  V30 5490 C 542.122 -1.2728 -3.36856 0
M  V30 5491 C 541.975 -2.80821 -3.51368 0
M  V30 5492 C 543.294 -0.879799 -4.31216 0
M  V30 5493 H 540.413 -0.284464 -0.679889 0
M  V30 5494 H 543.055 -1.31755 -1.36896 0
M  V30 5495 H 541.205 -0.814673 -3.79862 0
M  V30 5496 H 542.877 -3.34833 -3.17308 0
M  V30 5497 H 541.12 -3.19606 -2.93316 0
M  V30 5498 H 541.791 -3.10435 -4.56436 0
M  V30 5499 H 544.267 -1.27436 -3.96105 0
M  V30 5500 H 543.143 -1.25278 -5.34412 0
M  V30 5501 H 543.404 0.215372 -4.41575 0
M  V30 5502 N 542.463 1.3308 -0.844243 0
M  V30 5503 C 543.712 1.96868 -0.438833 0
M  V30 5504 C 544.025 1.67599 1.00846 0
M  V30 5505 O 545.231 2.25043 1.51881 0
M  V30 5506 C 543.687 3.5234 -0.73377 0
M  V30 5507 C 543.295 3.90481 -2.1961 0
M  V30 5508 C 545.039 4.22653 -0.395574 0
M  V30 5509 C 542.946 5.38954 -2.43481 0
M  V30 5510 H 541.876 0.736749 -0.160364 0
M  V30 5511 H 544.527 1.51623 -1.03358 0
M  V30 5512 H 542.909 3.95941 -0.068589 0
M  V30 5513 H 544.083 3.57922 -2.90221 0
M  V30 5514 H 542.398 3.33165 -2.4978 0
M  V30 5515 H 544.995 5.31848 -0.551477 0
M  V30 5516 H 545.338 4.11004 0.661921 0
M  V30 5517 H 545.871 3.84601 -1.01621 0
M  V30 5518 H 542.61 5.55612 -3.47816 0
M  V30 5519 H 542.13 5.72954 -1.77437 0
M  V30 5520 H 543.809 6.05907 -2.26905 0
M  V30 5521 N 543.941 0.601185 1.45683 0
M  V30 5522 C 545.218 0.0261659 1.95582 0
M  V30 5523 C 545.598 -1.4399 1.5437 0
M  V30 5524 O 544.946 -2.13919 0.80318 0
M  V30 5525 C 545.156 0.217557 3.48321 0
M  V30 5526 C 546.504 0.0950076 4.24494 0
M  V30 5527 O 547.528 0.147345 3.55895 0
M  V30 5528 O 546.387 -0.025261 5.46494 0
M  V30 5529 H 543.481 -0.0393688 0.826062 0
M  V30 5530 H 546.027 0.670798 1.55879 0
M  V30 5531 H 544.799 1.23601 3.71266 0
M  V30 5532 H 544.422 -0.46264 3.94899 0
M  V30 5533 N 545.419 -1.53889 0.339982 0
M  V30 5534 C 546.665 -2.01152 -0.258003 0
M  V30 5535 C 546.998 -1.22749 -1.50487 0
M  V30 5536 O 546.273 -0.314156 -1.91946 0
M  V30 5537 C 546.556 -3.55468 -0.575717 0
M  V30 5538 C 546.409 -4.44584 0.682996 0
M  V30 5539 C 547.728 -4.1768 -1.38677 0
M  V30 5540 H 544.847 -0.731198 -0.0922992 0
M  V30 5541 H 547.489 -1.84352 0.459814 0
M  V30 5542 H 545.639 -3.69914 -1.18725 0
M  V30 5543 H 547.311 -4.41981 1.32102 0
M  V30 5544 H 545.554 -4.13592 1.3086 0
M  V30 5545 H 546.225 -5.5043 0.416001 0
M  V30 5546 H 548.701 -4.0691 -0.869705 0
M  V30 5547 H 547.577 -5.25734 -1.57783 0
M  V30 5548 H 547.838 -3.72069 -2.38782 0
M  V30 5549 N 546.897 -0.0685191 -1.57451 0
M  V30 5550 C 548.174 0.642167 -1.84758 0
M  V30 5551 C 548.554 1.87991 -0.960344 0
M  V30 5552 O 547.902 2.28485 -0.0257894 0
M  V30 5553 C 548.112 0.982946 -3.34872 0
M  V30 5554 C 549.46 1.35784 -4.02303 0
M  V30 5555 O 550.484 1.07477 -3.39598 0
M  V30 5556 O 549.343 1.88681 -5.12895 0
M  V30 5557 H 546.437 0.318625 -0.763156 0
M  V30 5558 H 548.983 -0.0992015 -1.6941 0
M  V30 5559 H 547.755 0.10372 -3.91163 0
M  V30 5560 H 547.378 1.78119 -3.55471 0
M  V30 5561 N 548.375 1.56261 0.205012 0
M  V30 5562 C 549.285 1.96944 1.27476 0
M  V30 5563 C 550.301 0.875636 1.50362 0
M  V30 5564 O 551.477 1.18058 1.6317 0
M  V30 5565 C 548.542 2.29219 2.60115 0
M  V30 5566 C 547.603 3.52255 2.45387 0
M  V30 5567 C 546.836 3.8298 3.71701 0
M  V30 5568 O 547.059 3.15138 4.75441 0
M  V30 5569 O 545.993 4.76435 3.67823 0
M  V30 5570 H 549.819 2.88144 0.959527 0
M  V30 5571 H 547.404 1.43686 0.409217 0
M  V30 5572 H 549.286 2.51098 3.3842 0
M  V30 5573 H 547.961 1.4119 2.91285 0
M  V30 5574 H 546.868 3.35635 1.65227 0
M  V30 5575 H 548.201 4.40719 2.19152 0
M  V30 5576 N 549.853 -0.472356 1.50355 0
M  V30 5577 C 551.099 -1.22634 1.6152 0
M  V30 5578 C 551.432 -1.91645 0.313995 0
M  V30 5579 O 550.707 -1.82059 -0.684446 0
M  V30 5580 C 550.99 -2.27099 2.7946 0
M  V30 5581 C 550.843 -1.62402 4.19459 0
M  V30 5582 C 552.162 -3.28421 2.92964 0
M  V30 5583 H 549.281 -0.444494 0.587873 0
M  V30 5584 H 551.923 -0.520321 1.82737 0
M  V30 5585 H 550.073 -2.87314 2.61501 0
M  V30 5586 H 551.745 -1.05793 4.49005 0
M  V30 5587 H 549.988 -0.927184 4.23776 0
M  V30 5588 H 550.659 -2.38309 4.97909 0
M  V30 5589 H 553.135 -2.78227 3.09401 0
M  V30 5590 H 552.011 -3.98845 3.77113 0
M  V30 5591 H 552.272 -3.92467 2.03525 0
M  V30 5592 N 551.331 -1.39911 -0.725443 0
M  V30 5593 C 552.241 -1.41688 -1.8698 0
M  V30 5594 C 553.257 -0.310579 -1.71206 0
M  V30 5595 O 554.433 -0.55359 -1.93642 0
M  V30 5596 C 551.498 -1.26811 -3.22676 0
M  V30 5597 C 550.559 -2.47497 -3.50776 0
M  V30 5598 C 549.792 -2.3332 -4.79997 0
M  V30 5599 O 550.015 -1.34175 -5.54394 0
M  V30 5600 O 548.949 -3.22498 -5.08211 0
M  V30 5601 H 552.775 -2.38171 -1.88436 0
M  V30 5602 H 550.36 -1.21128 -0.874548 0
M  V30 5603 H 552.242 -1.20684 -4.03749 0
M  V30 5604 H 550.917 -0.334289 -3.21969 0
M  V30 5605 H 549.824 -2.59201 -2.69751 0
M  V30 5606 H 551.157 -3.39606 -3.5627 0
M  V30 5607 N 552.809 0.956637 -1.25245 0
M  V30 5608 C 553.719 2.0868 -1.0719 0
M  V30 5609 C 554.735 1.73997 -0.00959074 0
M  V30 5610 O 555.911 2.00301 -0.210104 0
M  V30 5611 C 552.976 3.39754 -0.690526 0
M  V30 5612 C 552.037 3.88316 -1.83055 0
M  V30 5613 C 551.27 5.13134 -1.46728 0
M  V30 5614 O 551.493 5.6925 -0.362029 0
M  V30 5615 O 550.427 5.56356 -2.29677 0
M  V30 5616 H 554.253 2.26813 -2.01965 0
M  V30 5617 H 551.838 1.07098 -1.04165 0
M  V30 5618 H 553.72 4.18543 -0.489871 0
M  V30 5619 H 552.395 3.22896 0.227981 0
M  V30 5620 H 551.302 3.1054 -2.08604 0
M  V30 5621 H 552.635 4.09669 -2.72822 0
M  V30 5622 N 554.287 1.06798 1.15896 0
M  V30 5623 C 555.515 0.808694 1.90441 0
M  V30 5624 C 555.93 -0.637506 1.77711 0
M  V30 5625 O 555.287 -1.43684 1.12522 0
M  V30 5626 C 555.338 1.20068 3.40978 0
M  V30 5627 O 555.059 2.59013 3.53333 0
M  V30 5628 C 556.56 0.96987 4.3256 0
M  V30 5629 H 553.78 0.292809 0.603742 0
M  V30 5630 H 556.324 1.42296 1.46874 0
M  V30 5631 H 554.479 0.630842 3.82229 0
M  V30 5632 H 554.893 2.7485 4.46719 0
M  V30 5633 H 556.367 1.29371 5.36626 0
M  V30 5634 H 556.844 -0.0941209 4.39099 0
M  V30 5635 H 557.45 1.52433 3.97044 0
M  V30 5636 N 555.766 -1.3263 0.851289 0
M  V30 5637 C 557.014 -1.96978 0.452128 0
M  V30 5638 C 557.335 -1.67715 -0.99482 0
M  V30 5639 O 556.605 -0.98259 -1.69476 0
M  V30 5640 H 555.185 -0.72873 0.164202 0
M  V30 5641 H 557.847 -1.61774 1.08698 0
M  V30 5642 H 556.943 -3.06387 0.594407 0
M  V30 5643 N 557.244 -0.608902 -1.45362 0
M  V30 5644 C 558.49 -0.104762 -2.02529 0
M  V30 5645 C 558.823 1.26191 -1.47613 0
M  V30 5646 O 558.098 1.8327 -0.65134 0
M  V30 5647 C 558.381 -0.0672661 -3.60037 0
M  V30 5648 C 558.234 -1.4647 -4.25284 0
M  V30 5649 C 559.553 0.619877 -4.35713 0
M  V30 5650 H 556.672 -0.0395438 -0.735938 0
M  V30 5651 H 559.314 -0.781126 -1.73201 0
M  V30 5652 H 557.464 0.50871 -3.85155 0
M  V30 5653 H 559.136 -2.08785 -4.11347 0
M  V30 5654 H 557.379 -2.02502 -3.83634 0
M  V30 5655 H 558.05 -1.39069 -5.34195 0
M  V30 5656 H 560.526 0.130297 -4.15896 0
M  V30 5657 H 559.402 0.615224 -5.45441 0
M  V30 5658 H 559.663 1.68621 -4.0868 0
M  V30 5659 N 558.722 1.53707 -0.348139 0
M  V30 5660 C 559.968 2.01286 0.247332 0
M  V30 5661 C 560.301 1.23546 1.49834 0
M  V30 5662 O 559.576 0.324331 1.91777 0
M  V30 5663 C 559.859 3.55768 0.556858 0
M  V30 5664 C 559.712 4.44216 -0.706564 0
M  V30 5665 C 561.031 4.1841 1.3646 0
M  V30 5666 H 558.15 0.731677 0.0884201 0
M  V30 5667 H 560.792 1.84106 -0.469584 0
M  V30 5668 H 558.942 3.70539 1.16761 0
M  V30 5669 H 560.614 4.41274 -1.34444 0
M  V30 5670 H 558.857 4.12892 -1.33052 0
M  V30 5671 H 559.528 5.50202 -0.445186 0
M  V30 5672 H 562.004 4.07365 0.848113 0
M  V30 5673 H 560.88 5.26563 1.54992 0
M  V30 5674 H 561.141 3.7333 2.36805 0
M  V30 5675 N 560.2 0.0768682 1.57412 0
M  V30 5676 C 561.447 -0.591085 1.93681 0
M  V30 5677 C 561.775 -1.69311 0.957286 0
M  V30 5678 O 561.03 -1.95682 -0.0262428 0
M  V30 5679 C 561.329 -1.20268 3.36557 0
M  V30 5680 C 560.995 -0.226286 4.50332 0
M  V30 5681 C 559.657 0.0423142 4.81181 0
M  V30 5682 C 562.009 0.441415 5.19327 0
M  V30 5683 C 559.337 0.985616 5.78362 0
M  V30 5684 C 561.689 1.37307 6.17519 0
M  V30 5685 C 560.353 1.65009 6.46783 0
M  V30 5686 H 559.623 -0.216293 0.70873 0
M  V30 5687 H 562.27 0.148824 1.90921 0
M  V30 5688 H 560.575 -2.01844 3.35807 0
M  V30 5689 H 562.272 -1.72688 3.61911 0
M  V30 5690 H 558.862 -0.445821 4.26275 0
M  V30 5691 H 563.046 0.247023 4.95685 0
M  V30 5692 H 558.302 1.20743 5.99359 0
M  V30 5693 H 562.476 1.89637 6.70083 0
M  V30 5694 H 560.103 2.38263 7.21897 0
M  V30 5695 N 561.678 -1.56367 -0.196722 0
M  V30 5696 C 562.903 -1.84991 -0.937714 0
M  V30 5697 C 563.328 -0.660244 -1.76132 0
M  V30 5698 O 562.686 0.390967 -1.77034 0
M  V30 5699 C 562.734 -3.11828 -1.81096 0
M  V30 5700 O 561.838 -2.92266 -2.90955 0
M  V30 5701 H 561.179 -0.609193 -0.264159 0
M  V30 5702 H 563.709 -2.03595 -0.202529 0
M  V30 5703 H 563.719 -3.42579 -2.21594 0
M  V30 5704 H 562.394 -3.98037 -1.2058 0
M  V30 5705 H 560.971 -2.72809 -2.54224 0
M  V30 5706 N 563.156 0.464375 -1.50603 0
M  V30 5707 C 564.386 1.23727 -1.65454 0
M  V30 5708 C 564.794 1.86119 -0.340032 0
M  V30 5709 O 564.137 1.70301 0.688706 0
M  V30 5710 C 564.199 2.38153 -2.69301 0
M  V30 5711 C 563.863 1.96345 -4.12671 0
M  V30 5712 C 564.86 1.48215 -4.98326 0
M  V30 5713 C 562.545 2.04861 -4.58625 0
M  V30 5714 C 564.539 1.09152 -6.27985 0
M  V30 5715 C 562.226 1.65409 -5.88288 0
M  V30 5716 C 563.224 1.17634 -6.72794 0
M  V30 5717 O 562.912 0.787312 -8.00035 0
M  V30 5718 H 562.644 0.380075 -0.559034 0
M  V30 5719 H 565.198 0.559919 -1.97621 0
M  V30 5720 H 563.428 3.09081 -2.32392 0
M  V30 5721 H 565.117 3.00099 -2.73304 0
M  V30 5722 H 565.883 1.41052 -4.64036 0
M  V30 5723 H 561.762 2.40996 -3.92991 0
M  V30 5724 H 565.306 0.717909 -6.93896 0
M  V30 5725 H 561.203 1.72233 -6.22098 0
M  V30 5726 H 561.971 0.915567 -8.13363 0
M  V30 5727 N 564.634 1.40294 0.718013 0
M  V30 5728 C 565.582 1.40536 1.85344 0
M  V30 5729 C 566.576 0.286192 1.66965 0
M  V30 5730 O 567.782 0.457105 1.74099 0
M  V30 5731 H 564.157 0.439236 0.61039 0
M  V30 5732 H 566.128 2.36275 1.82255 0
M  V30 5733 C 564.877 1.28245 3.23185 0
M  V30 5734 H 564.2 2.1364 3.37932 0
M  V30 5735 H 565.64 1.32474 4.02774 0
M  V30 5736 C 564.099 -0.0075503 3.36899 0
M  V30 5737 O 564.629 -0.971391 3.89778 0
M  V30 5738 N 562.835 -0.0762479 2.905 0
M  V30 5739 H 562.382 0.708819 2.47656 0
M  V30 5740 H 562.34 -0.938846 3.00055 0
M  V30 5741 N 566.112 -0.949982 1.2575 0
M  V30 5742 C 567.34 -1.72972 1.13527 0
M  V30 5743 C 567.755 -1.8623 -0.310453 0
M  V30 5744 O 567.112 -1.36336 -1.2132 0
M  V30 5745 C 567.163 -3.14108 1.78936 0
M  V30 5746 O 566.884 -3.01493 3.17858 0
M  V30 5747 C 568.385 -4.08338 1.72554 0
M  V30 5748 H 565.605 -0.541864 0.395758 0
M  V30 5749 H 568.149 -1.19151 1.66202 0
M  V30 5750 H 566.304 -3.64858 1.30221 0
M  V30 5751 H 566.718 -3.90559 3.50092 0
M  V30 5752 H 568.192 -5.04963 2.22973 0
M  V30 5753 H 568.669 -4.33742 0.690251 0
M  V30 5754 H 569.275 -3.63506 2.2078 0
M  V30 5755 N 567.59 -1.07411 -1.15328 0
M  V30 5756 C 568.867 -0.710732 -1.82231 0
M  V30 5757 C 569.247 0.806732 -1.95077 0
M  V30 5758 O 568.595 1.72139 -1.50268 0
M  V30 5759 C 568.805 -1.42586 -3.18544 0
M  V30 5760 C 570.153 -1.57836 -3.94174 0
M  V30 5761 O 571.177 -1.38669 -3.281 0
M  V30 5762 O 570.036 -1.8938 -5.12638 0
M  V30 5763 H 567.13 -0.25297 -0.78736 0
M  V30 5764 H 569.676 -1.17508 -1.22434 0
M  V30 5765 H 568.448 -2.46008 -3.04296 0
M  V30 5766 H 568.071 -0.952332 -3.86026 0
M  V30 5767 N 569.068 1.32177 -0.85831 0
M  V30 5768 C 570.293 2.01847 -0.476718 0
M  V30 5769 C 570.718 1.64065 0.920021 0
M  V30 5770 O 570.076 0.843189 1.60499 0
M  V30 5771 C 570.124 3.55097 -0.627578 0
M  V30 5772 O 569.228 4.11012 0.338086 0
M  V30 5773 H 568.569 0.635907 -0.191099 0
M  V30 5774 H 571.099 1.68641 -1.15851 0
M  V30 5775 H 571.109 4.04718 -0.516476 0
M  V30 5776 H 569.784 3.81938 -1.64609 0
M  V30 5777 H 568.361 3.72451 0.182917 0
M  V30 5778 N 570.547 0.616602 1.45037 0
M  V30 5779 C 571.963 0.280994 1.57107 0
M  V30 5780 C 572.163 -1.21627 1.60653 0
M  V30 5781 O 571.219 -1.9997 1.54169 0
M  V30 5782 C 572.532 0.960116 2.8496 0
M  V30 5783 C 574.08 0.936884 2.98649 0
M  V30 5784 C 574.555 1.59619 4.29285 0
M  V30 5785 N 576.046 1.5621 4.36065 0
M  V30 5786 C 576.781 2.04131 5.35834 0
M  V30 5787 N 576.277 2.60177 6.4209 0
M  V30 5788 N 578.07 1.94845 5.27249 0
M  V30 5789 H 570.221 1.58867 1.40979 0
M  V30 5790 H 572.484 0.666024 0.674623 0
M  V30 5791 H 572.19 2.01473 2.88273 0
M  V30 5792 H 572.064 0.488921 3.74018 0
M  V30 5793 H 574.451 -0.109209 2.94898 0
M  V30 5794 H 574.532 1.44643 2.10979 0
M  V30 5795 H 574.176 2.64166 4.33796 0
M  V30 5796 H 574.106 1.06159 5.15789 0
M  V30 5797 H 576.597 1.15276 3.59889 0
M  V30 5798 H 576.91 2.94513 7.1448 0
M  V30 5799 H 575.255 2.64221 6.42816 0
M  V30 5800 H 578.446 1.50792 4.43147 0
M  V30 5801 H 578.619 2.32504 6.04852 0
M  V30 5802 N 572.025 -1.5352 0.356285 0
M  V30 5803 C 572.957 -2.23009 -0.529127 0
M  V30 5804 C 573.97 -1.241 -1.05371 0
M  V30 5805 O 575.159 -1.50379 -0.961679 0
M  V30 5806 C 572.259 -2.90685 -1.74229 0
M  V30 5807 C 571.432 -4.16019 -1.35081 0
M  V30 5808 C 570.491 -4.66989 -2.42502 0
M  V30 5809 O 569.517 -5.30895 -2.05279 0
M  V30 5810 N 570.719 -4.44006 -3.7395 0
M  V30 5811 H 573.484 -2.99627 0.0660501 0
M  V30 5812 H 571.045 -1.60885 0.181014 0
M  V30 5813 H 573.037 -3.21695 -2.4555 0
M  V30 5814 H 571.607 -2.17575 -2.24454 0
M  V30 5815 H 570.827 -3.91414 -0.467833 0
M  V30 5816 H 572.115 -4.9752 -1.06542 0
M  V30 5817 H 571.513 -3.92924 -4.06973 0
M  V30 5818 H 570.07 -4.7959 -4.41403 0
M  V30 5819 N 573.503 -0.0852151 -1.57369 0
M  V30 5820 C 574.731 0.58946 -1.98325 0
M  V30 5821 C 575.146 1.62333 -0.96403 0
M  V30 5822 O 574.503 1.82438 0.0476395 0
M  V30 5823 C 574.554 1.24604 -3.39347 0
M  V30 5824 O 574.275 0.253532 -4.37366 0
M  V30 5825 C 575.776 2.00726 -3.95252 0
M  V30 5826 H 572.996 0.158783 -0.651942 0
M  V30 5827 H 575.54 -0.161584 -2.03861 0
M  V30 5828 H 573.695 1.94808 -3.34856 0
M  V30 5829 H 574.109 0.726207 -5.19448 0
M  V30 5830 H 575.583 2.42039 -4.96106 0
M  V30 5831 H 576.06 2.86919 -3.32527 0
M  V30 5832 H 576.666 1.3536 -4.03185 0
M  V30 5833 N 574.981 1.5647 0.188427 0
M  V30 5834 C 576.221 1.82803 0.914469 0
M  V30 5835 C 576.585 0.663681 1.80165 0
M  V30 5836 O 577.786 0.807059 2.56398 0
M  V30 5837 C 576.057 3.14187 1.70357 0
M  V30 5838 S 577.616 3.61947 2.48072 0
M  V30 5839 H 574.434 0.641497 0.306599 0
M  V30 5840 H 577.036 1.94694 0.177361 0
M  V30 5841 H 575.74 3.96937 1.04255 0
M  V30 5842 H 575.271 3.05192 2.48237 0
M  V30 5843 H 577.286 3.27913 3.72407 0
M  V30 5844 N 576.459 -0.456382 1.50847 0
M  V30 5845 C 577.422 -1.53493 1.70213 0
M  V30 5846 C 578.422 -1.50264 0.572481 0
M  V30 5847 O 579.612 -1.52623 0.839751 0
M  V30 5848 C 576.744 -2.93091 1.741 0
M  V30 5849 H 577.937 -1.37633 2.66453 0
M  V30 5850 H 575.49 -0.683776 1.4055 0
M  V30 5851 H 576.225 -3.14378 0.796063 0
M  V30 5852 H 576.01 -2.9684 2.5618 0
M  V30 5853 H 577.5 -3.71368 1.90987 0
M  V30 5854 N 577.937 -1.40673 -0.710563 0
M  V30 5855 C 578.885 -1.41517 -1.84596 0
M  V30 5856 C 579.879 -0.295043 -1.66811 0
M  V30 5857 O 581.085 -0.466331 -1.73854 0
M  V30 5858 H 577.46 -0.442467 -0.608052 0
M  V30 5859 H 579.431 -2.37238 -1.80999 0
M  V30 5860 C 578.18 -1.29957 -3.225 0
M  V30 5861 H 577.503 -2.15429 -3.36794 0
M  V30 5862 H 578.943 -1.34608 -4.02066 0
M  V30 5863 C 577.402 -0.0103164 -3.36898 0
M  V30 5864 O 577.932 0.950707 -3.90288 0
M  V30 5865 N 576.138 0.0608409 -2.90536 0
M  V30 5866 H 575.685 -0.721943 -2.47277 0
M  V30 5867 H 575.643 0.92292 -3.00549 0
M  V30 5868 N 579.415 0.9433 -1.26252 0
M  V30 5869 C 580.363 2.06302 -1.07434 0
M  V30 5870 C 581.357 1.694 -0.00189471 0
M  V30 5871 O 582.563 1.79302 -0.158408 0
M  V30 5872 H 578.938 0.675453 -0.330556 0
M  V30 5873 H 580.909 2.19326 -2.02333 0
M  V30 5874 C 579.658 3.40125 -0.721817 0
M  V30 5875 H 578.981 3.68996 -1.5389 0
M  V30 5876 H 580.421 4.19295 -0.629922 0
M  V30 5877 C 578.88 3.31993 0.572902 0
M  V30 5878 O 579.41 3.67945 1.61182 0
M  V30 5879 N 577.616 2.85099 0.562748 0
M  V30 5880 H 577.163 2.5604 -0.283092 0
M  V30 5881 H 577.121 2.80041 1.42915 0
M  V30 5882 N 580.893 1.08022 1.14757 0
M  V30 5883 C 582.309 0.807072 1.3769 0
M  V30 5884 C 582.509 -0.585504 1.92806 0
M  V30 5885 O 581.565 -1.34301 2.13821 0
M  V30 5886 C 582.878 1.88651 2.34161 0
M  V30 5887 C 584.426 1.91206 2.47809 0
M  V30 5888 C 584.901 2.98253 3.47576 0
M  V30 5889 N 586.392 2.974 3.55117 0
M  V30 5890 C 587.127 3.76872 4.32152 0
M  V30 5891 N 586.623 4.66212 5.12463 0
M  V30 5892 N 588.416 3.6519 4.27309 0
M  V30 5893 H 580.567 1.97824 0.77326 0
M  V30 5894 H 582.83 0.85826 0.402608 0
M  V30 5895 H 582.536 2.88749 2.00791 0
M  V30 5896 H 582.41 1.75244 3.3402 0
M  V30 5897 H 584.797 0.917564 2.80472 0
M  V30 5898 H 584.878 2.08691 1.47925 0
M  V30 5899 H 584.522 3.97907 3.15646 0
M  V30 5900 H 584.452 2.78014 4.47231 0
M  V30 5901 H 586.943 2.32643 2.97801 0
M  V30 5902 H 587.256 5.23468 5.68508 0
M  V30 5903 H 585.601 4.70257 5.11745 0
M  V30 5904 H 588.792 2.94765 3.63636 0
M  V30 5905 H 588.965 4.27366 4.87095 0
M  V30 5906 N 582.371 -1.3172 0.865308 0
M  V30 5907 C 583.321 -2.26157 0.289305 0
M  V30 5908 C 584.305 -1.50428 -0.570977 0
M  V30 5909 O 585.497 -1.71978 -0.418617 0
M  V30 5910 C 582.626 -3.39457 -0.512237 0
M  V30 5911 C 581.712 -4.22561 0.361028 0
M  V30 5912 N 582.103 -4.84501 1.45231 0
M  V30 5913 C 580.401 -4.45739 0.152641 0
M  V30 5914 C 581.102 -5.46586 1.99043 0
M  V30 5915 N 580.078 -5.28119 1.28809 0
M  V30 5916 H 583.88 -2.71581 1.12344 0
M  V30 5917 H 581.394 -1.45932 0.712565 0
M  V30 5918 H 583.391 -4.06133 -0.941379 0
M  V30 5919 H 582.051 -2.95577 -1.34404 0
M  V30 5920 H 583.062 -4.84293 1.83524 0
M  V30 5921 H 579.739 -4.1251 -0.643583 0
M  V30 5922 H 581.129 -6.05817 2.90577 0
M  V30 5923 N 583.85 -0.624285 -1.44708 0
M  V30 5924 C 584.782 0.12305 -2.28869 0
M  V30 5925 C 585.795 0.81557 -1.40898 0
M  V30 5926 O 586.984 0.678162 -1.65116 0
M  V30 5927 C 584.084 1.19612 -3.1709 0
M  V30 5928 C 583.257 0.587452 -4.33437 0
M  V30 5929 C 582.316 1.55358 -5.02743 0
M  V30 5930 O 581.341 1.07338 -5.58988 0
M  V30 5931 N 582.543 2.88798 -5.03563 0
M  V30 5932 H 585.308 -0.599193 -2.93649 0
M  V30 5933 H 582.87 -0.464954 -1.5508 0
M  V30 5934 H 584.861 1.84261 -3.60319 0
M  V30 5935 H 583.432 1.82067 -2.54107 0
M  V30 5936 H 582.652 -0.237509 -3.93484 0
M  V30 5937 H 583.94 0.161326 -5.08544 0
M  V30 5938 H 583.338 3.30399 -4.59188 0
M  V30 5939 H 581.894 3.48826 -5.50603 0
M  V30 5940 N 585.328 1.53329 -0.364422 0
M  V30 5941 C 586.568 2.0315 0.22572 0
M  V30 5942 C 586.932 1.24589 1.46087 0
M  V30 5943 O 588.133 1.64411 2.12656 0
M  V30 5944 C 586.404 3.53718 0.511663 0
M  V30 5945 S 587.963 4.25412 1.07564 0
M  V30 5946 H 584.781 0.70795 0.0657843 0
M  V30 5947 H 587.383 1.88811 -0.507019 0
M  V30 5948 H 586.087 4.08497 -0.394784 0
M  V30 5949 H 585.618 3.72217 1.27351 0
M  V30 5950 H 587.633 4.36486 2.35997 0
M  V30 5951 N 586.806 0.0935595 1.57322 0
M  V30 5952 C 588.031 -0.582324 1.99057 0
M  V30 5953 C 588.456 -1.61025 0.972242 0
M  V30 5954 O 587.814 -1.81202 -0.0594622 0
M  V30 5955 C 587.862 -1.20799 3.39765 0
M  V30 5956 O 586.966 -2.32382 3.40694 0
M  V30 5957 H 586.307 -0.147884 0.647323 0
M  V30 5958 H 588.837 0.174516 2.03854 0
M  V30 5959 H 588.847 -1.54966 3.77425 0
M  V30 5960 H 587.522 -0.454914 4.13405 0
M  V30 5961 H 586.099 -1.99845 3.14827 0
M  V30 5962 N 588.284 -1.56567 -0.180126 0
M  V30 5963 C 589.53 -1.81761 -0.899497 0
M  V30 5964 C 589.863 -0.670015 -1.82276 0
M  V30 5965 O 589.138 0.328575 -1.91705 0
M  V30 5966 C 589.421 -3.17296 -1.7028 0
M  V30 5967 C 589.274 -4.4257 -0.803255 0
M  V30 5968 C 590.593 -3.49678 -2.67233 0
M  V30 5969 H 587.712 -0.661192 -0.325567 0
M  V30 5970 H 590.354 -1.89272 -0.16612 0
M  V30 5971 H 588.504 -3.11023 -2.32802 0
M  V30 5972 H 590.176 -4.60902 -0.191585 0
M  V30 5973 H 588.419 -4.33658 -0.110796 0
M  V30 5974 H 589.09 -5.33935 -1.40064 0
M  V30 5975 H 591.566 -3.56347 -2.14839 0
M  V30 5976 H 590.442 -4.45605 -3.20511 0
M  V30 5977 H 590.703 -2.73932 -3.47007 0
M  V30 5978 N 589.762 0.448376 -1.51087 0
M  V30 5979 C 590.712 1.54156 -1.67988 0
M  V30 5980 C 591.696 1.5178 -0.534015 0
M  V30 5981 O 592.888 1.58419 -0.789448 0
M  V30 5982 C 590.017 2.92437 -1.79822 0
M  V30 5983 C 589.103 2.99611 -3.00157 0
M  V30 5984 N 589.494 2.7655 -4.23502 0
M  V30 5985 C 587.792 3.30764 -2.99184 0
M  V30 5986 C 588.493 2.89281 -5.0467 0
M  V30 5987 N 587.469 3.20473 -4.39088 0
M  V30 5988 H 591.271 1.35061 -2.61028 0
M  V30 5989 H 588.785 0.655504 -1.48583 0
M  V30 5990 H 590.782 3.71068 -1.90037 0
M  V30 5991 H 589.442 3.1256 -0.879554 0
M  V30 5992 H 590.453 2.5169 -4.52628 0
M  V30 5993 H 587.13 3.56732 -2.16907 0
M  V30 5994 H 588.52 2.75499 -6.12821 0
M  V30 5995 N 591.24 1.41047 0.703093 0
M  V30 5996 C 592.203 1.42036 1.79884 0
M  V30 5997 C 593.203 0.312153 1.57741 0
M  V30 5998 O 594.393 0.571672 1.64553 0
M  V30 5999 C 591.525 1.22437 3.18154 0
M  V30 6000 H 592.718 2.39572 1.80403 0
M  V30 6001 H 590.271 1.27079 0.909977 0
M  V30 6002 H 591.006 0.257112 3.23279 0
M  V30 6003 H 590.791 2.02723 3.35627 0
M  V30 6004 H 592.281 1.25946 3.98155 0
M  V30 6005 N 592.718 -0.936591 1.26751 0
M  V30 6006 C 593.628 -2.06949 1.10496 0
M  V30 6007 C 594.644 -1.7396 0.037271 0
M  V30 6008 O 595.82 -1.99941 0.241944 0
M  V30 6009 C 592.885 -3.38612 0.744491 0
M  V30 6010 C 591.946 -3.85355 1.89209 0
M  V30 6011 C 591.179 -5.10735 1.54873 0
M  V30 6012 O 591.402 -5.68602 0.452546 0
M  V30 6013 O 590.336 -5.52632 2.38499 0
M  V30 6014 H 594.162 -2.23571 2.05547 0
M  V30 6015 H 591.747 -1.05428 1.05855 0
M  V30 6016 H 593.629 -4.17711 0.556396 0
M  V30 6017 H 592.304 -3.23218 -0.176582 0
M  V30 6018 H 591.211 -3.07182 2.13518 0
M  V30 6019 H 592.544 -4.05277 2.79305 0
M  V30 6020 N 594.196 -1.08629 -1.14182 0
M  V30 6021 C 595.436 -0.826884 -1.86928 0
M  V30 6022 C 595.8 0.635808 -1.81167 0
M  V30 6023 O 597.001 1.0108 -2.49071 0
M  V30 6024 C 595.272 -1.33721 -3.31442 0
M  V30 6025 S 596.831 -1.21045 -4.21774 0
M  V30 6026 H 593.649 -0.299286 -0.644941 0
M  V30 6027 H 596.251 -1.38802 -1.37674 0
M  V30 6028 H 594.955 -2.39617 -3.33184 0
M  V30 6029 H 594.486 -0.771839 -3.85754 0
M  V30 6030 H 596.501 -0.156168 -4.95954 0
M  V30 6031 N 595.674 1.31259 -0.872281 0
M  V30 6032 C 597.09 1.49283 -0.564521 0
M  V30 6033 C 597.29 1.80243 0.900807 0
M  V30 6034 O 596.346 1.88246 1.68284 0
M  V30 6035 C 597.659 2.62503 -1.46673 0
M  V30 6036 C 599.207 2.76386 -1.46901 0
M  V30 6037 C 599.682 3.92705 -2.35684 0
M  V30 6038 N 601.173 3.99995 -2.33577 0
M  V30 6039 C 601.908 4.89276 -2.98992 0
M  V30 6040 N 601.404 5.83443 -3.73585 0
M  V30 6041 N 603.197 4.82541 -2.88289 0
M  V30 6042 H 595.348 1.09432 -1.82039 0
M  V30 6043 H 597.611 0.540949 -0.77851 0
M  V30 6044 H 597.317 2.46407 -2.50951 0
M  V30 6045 H 597.191 3.58695 -1.16696 0
M  V30 6046 H 599.578 2.91894 -0.433796 0
M  V30 6047 H 599.659 1.80853 -1.80903 0
M  V30 6048 H 599.303 3.77954 -3.39283 0
M  V30 6049 H 599.233 4.87549 -1.99006 0
M  V30 6050 H 601.724 3.32624 -1.7936 0
M  V30 6051 H 602.037 6.48303 -4.20622 0
M  V30 6052 H 600.382 5.83415 -3.77694 0
M  V30 6053 H 603.573 4.07951 -2.2955 0
M  V30 6054 H 603.746 5.51916 -3.39549 0
M  V30 6055 N 597.152 0.631951 1.44375 0
M  V30 6056 C 598.429 0.067646 1.95483 0
M  V30 6057 C 598.809 -1.40683 1.57389 0
M  V30 6058 O 598.157 -2.12167 0.848375 0
M  V30 6059 C 598.367 0.291392 3.47781 0
M  V30 6060 C 599.715 0.185028 4.24197 0
M  V30 6061 O 600.739 0.222803 3.55503 0
M  V30 6062 O 599.598 0.0906642 5.46425 0
M  V30 6063 H 596.692 -0.0218379 0.826712 0
M  V30 6064 H 599.238 0.703711 1.54421 0
M  V30 6065 H 598.01 1.31449 3.68561 0
M  V30 6066 H 597.633 -0.378772 3.95792 0
M  V30 6067 N 598.631 -1.53133 0.372548 0
M  V30 6068 C 599.861 -2.05476 -0.215202 0
M  V30 6069 C 600.269 -1.24534 -1.42436 0
M  V30 6070 O 599.612 -0.280771 -1.81542 0
M  V30 6071 C 599.674 -3.53276 -0.666068 0
M  V30 6072 C 599.338 -4.54998 0.427342 0
M  V30 6073 C 600.335 -5.03911 1.27944 0
M  V30 6074 C 598.02 -4.98828 0.589579 0
M  V30 6075 C 600.014 -5.95263 2.27905 0
M  V30 6076 C 597.701 -5.89984 1.59255 0
M  V30 6077 C 598.699 -6.38093 2.43571 0
M  V30 6078 O 598.387 -7.27451 3.42156 0
M  V30 6079 H 598.119 -0.67481 -0.040099 0
M  V30 6080 H 600.673 -1.98409 0.531312 0
M  V30 6081 H 598.903 -3.57904 -1.4643 0
M  V30 6082 H 600.592 -3.88442 -1.1776 0
M  V30 6083 H 601.358 -4.70792 1.16532 0
M  V30 6084 H 597.237 -4.60965 -0.0569456 0
M  V30 6085 H 600.781 -6.32736 2.93753 0
M  V30 6086 H 596.678 -6.22518 1.70711 0
M  V30 6087 H 597.446 -7.45467 3.37967 0
M  V30 6088 N 600.109 -0.101901 -1.5727 0
M  V30 6089 C 601.072 0.840129 -2.13247 0
M  V30 6090 C 602.072 1.20625 -1.06331 0
M  V30 6091 O 603.262 1.13456 -1.32186 0
M  V30 6092 C 600.394 2.13372 -2.65867 0
M  V30 6093 H 601.587 0.353945 -2.97804 0
M  V30 6094 H 599.14 0.147167 -1.55606 0
M  V30 6095 H 599.875 2.66461 -1.84849 0
M  V30 6096 H 599.66 1.88085 -3.44044 0
M  V30 6097 H 601.15 2.80748 -3.09145 0
M  V30 6098 N 601.587 1.56661 0.17182 0
M  V30 6099 C 602.815 1.861 0.904115 0
M  V30 6100 C 603.23 0.687227 1.75848 0
M  V30 6101 O 602.587 -0.343671 1.79235 0
M  V30 6102 C 602.638 3.14568 1.78127 0
M  V30 6103 O 602.359 4.27422 0.961366 0
M  V30 6104 C 603.86 3.5735 2.62327 0
M  V30 6105 H 601.08 0.617445 0.262684 0
M  V30 6106 H 603.624 2.03775 0.172068 0
M  V30 6107 H 601.779 2.98721 2.46666 0
M  V30 6108 H 602.193 5.00725 1.56123 0
M  V30 6109 H 603.667 4.50144 3.1949 0
M  V30 6110 H 604.144 2.81445 3.37173 0
M  V30 6111 H 604.75 3.75807 1.99121 0
M  V30 6112 N 603.065 -0.440357 1.51323 0
M  V30 6113 C 604.313 -1.18769 1.63518 0
M  V30 6114 C 604.634 -1.91793 0.352201 0
M  V30 6115 O 603.904 -1.85432 -0.631811 0
M  V30 6116 H 602.484 -0.441408 0.602634 0
M  V30 6117 H 605.146 -0.505162 1.8824 0
M  V30 6118 H 604.242 -1.91892 2.46138 0
M  V30 6119 N 604.543 -1.41418 -0.695603 0
M  V30 6120 C 605.79 -1.40774 -1.45564 0
M  V30 6121 C 606.118 -0.0168604 -1.94493 0
M  V30 6122 O 605.373 0.971259 -1.69897 0
M  V30 6123 C 605.672 -2.36112 -2.68302 0
M  V30 6124 C 605.338 -3.82952 -2.38031 0
M  V30 6125 C 604 -4.22954 -2.29486 0
M  V30 6126 C 606.352 -4.75662 -2.13061 0
M  V30 6127 C 603.68 -5.53674 -1.94067 0
M  V30 6128 C 606.032 -6.06702 -1.79151 0
M  V30 6129 C 604.696 -6.45725 -1.69102 0
M  V30 6130 H 603.966 -0.515128 -0.532658 0
M  V30 6131 H 606.613 -1.74216 -0.795047 0
M  V30 6132 H 604.918 -1.95924 -3.39295 0
M  V30 6133 H 606.615 -2.32887 -3.26442 0
M  V30 6134 H 603.205 -3.5127 -2.45576 0
M  V30 6135 H 607.389 -4.45561 -2.18608 0
M  V30 6136 H 602.645 -5.8279 -1.8484 0
M  V30 6137 H 606.819 -6.78041 -1.5885 0
M  V30 6138 H 604.446 -7.46929 -1.41426 0
M  V30 6139 N 606.021 0.929856 -1.27246 0
M  V30 6140 C 607.261 1.6919 -1.14691 0
M  V30 6141 C 607.625 1.896 0.302621 0
M  V30 6142 O 608.826 2.63102 0.550543 0
M  V30 6143 C 607.097 3.02291 -1.9067 0
M  V30 6144 S 608.656 3.93436 -1.94303 0
M  V30 6145 H 605.474 0.581248 -0.409477 0
M  V30 6146 H 608.076 1.10722 -1.61124 0
M  V30 6147 H 606.78 2.85125 -2.95181 0
M  V30 6148 H 606.311 3.65813 -1.44723 0
M  V30 6149 H 608.326 4.85224 -1.0379 0
M  V30 6150 N 607.499 1.09233 1.13605 0
M  V30 6151 C 608.739 0.836786 1.86487 0
M  V30 6152 C 609.103 -0.626191 1.81502 0
M  V30 6153 O 610.304 -0.99758 2.49603 0
M  V30 6154 C 608.575 1.35476 3.30728 0
M  V30 6155 S 610.134 1.2328 4.21126 0
M  V30 6156 H 606.952 0.302702 0.643345 0
M  V30 6157 H 609.554 1.3953 1.36936 0
M  V30 6158 H 608.258 2.41381 3.31909 0
M  V30 6159 H 607.789 0.792286 3.85339 0
M  V30 6160 H 609.804 0.182468 4.95864 0
M  V30 6161 N 608.977 -1.30795 0.87923 0
M  V30 6162 C 610.202 -2.01063 0.508769 0
M  V30 6163 C 610.627 -1.65508 -0.893803 0
M  V30 6164 O 609.985 -0.868616 -1.59138 0
M  V30 6165 C 610.033 -3.54054 0.683991 0
M  V30 6166 O 609.137 -4.11498 -0.272654 0
M  V30 6167 H 608.478 -0.632786 0.201191 0
M  V30 6168 H 611.008 -1.66776 1.18519 0
M  V30 6169 H 611.018 -4.03845 0.580798 0
M  V30 6170 H 609.693 -3.79271 1.70665 0
M  V30 6171 H 608.27 -3.72695 -0.12364 0
M  V30 6172 N 610.455 -0.639598 -1.44038 0
M  V30 6173 C 611.695 -0.150902 -2.03842 0
M  V30 6174 C 612.059 1.20744 -1.49281 0
M  V30 6175 O 613.26 1.78875 -2.00642 0
M  V30 6176 C 611.531 -0.146114 -3.57101 0
M  V30 6177 S 613.09 0.276725 -4.37927 0
M  V30 6178 H 609.908 -0.0652447 -0.708 0
M  V30 6179 H 612.51 -0.844886 -1.76301 0
M  V30 6180 H 611.214 -1.13769 -3.94316 0
M  V30 6181 H 610.745 0.568846 -3.89266 0
M  V30 6182 H 612.76 1.51893 -4.7238 0
M  V30 6183 N 611.933 1.52934 -0.380664 0
M  V30 6184 C 613.179 2.01765 0.20458 0
M  V30 6185 C 613.512 1.26696 1.47179 0
M  V30 6186 O 612.787 0.364936 1.91046 0
M  V30 6187 C 613.07 3.56869 0.481269 0
M  V30 6188 C 612.923 4.42617 -0.800629 0
M  V30 6189 C 614.242 4.2121 1.27554 0
M  V30 6190 H 611.361 0.733388 0.0728803 0
M  V30 6191 H 614.003 1.83068 -0.50853 0
M  V30 6192 H 612.153 3.72932 1.08875 0
M  V30 6193 H 613.825 4.38323 -1.43773 0
M  V30 6194 H 612.068 4.09977 -1.4178 0
M  V30 6195 H 612.739 5.49134 -0.561791 0
M  V30 6196 H 615.215 4.09072 0.761514 0
M  V30 6197 H 614.091 5.29732 1.43788 0
M  V30 6198 H 614.352 3.78269 2.28833 0
M  V30 6199 N 613.412 0.11024 1.57214 0
M  V30 6200 C 614.375 -0.828808 2.1369 0
M  V30 6201 C 615.375 -1.20059 1.06969 0
M  V30 6202 O 616.565 -1.12754 1.32786 0
M  V30 6203 C 613.697 -2.11959 2.66994 0
M  V30 6204 H 614.89 -0.338146 2.97988 0
M  V30 6205 H 612.443 -0.138913 1.55681 0
M  V30 6206 H 613.178 -2.65476 1.8626 0
M  V30 6207 H 612.963 -1.86258 3.45037 0
M  V30 6208 H 614.453 -2.79105 3.10629 0
M  V30 6209 N 614.89 -1.56749 -0.16351 0
M  V30 6210 C 616.138 -1.82074 -0.87713 0
M  V30 6211 C 616.459 -0.688503 -1.82441 0
M  V30 6212 O 615.729 0.291085 -1.93725 0
M  V30 6213 H 614.309 -0.671677 -0.326893 0
M  V30 6214 H 616.971 -1.9423 -0.161459 0
M  V30 6215 H 616.067 -2.76407 -1.44934 0
M  V30 6216 N 616.368 0.432326 -1.51554 0
M  V30 6217 C 617.598 1.2019 -1.68042 0
M  V30 6218 C 618.006 1.85356 -0.379434 0
M  V30 6219 O 617.349 1.71724 0.652427 0
M  V30 6220 C 617.411 2.32387 -2.74292 0
M  V30 6221 C 617.075 1.87548 -4.16743 0
M  V30 6222 C 618.072 1.37611 -5.01357 0
M  V30 6223 C 615.757 1.95087 -4.62868 0
M  V30 6224 C 617.751 0.958069 -6.30159 0
M  V30 6225 C 615.438 1.52894 -5.91664 0
M  V30 6226 C 616.436 1.03336 -6.75137 0
M  V30 6227 O 616.124 0.617435 -8.01525 0
M  V30 6228 H 615.856 0.368132 -0.56697 0
M  V30 6229 H 618.41 0.517875 -1.98764 0
M  V30 6230 H 616.64 3.04082 -2.38895 0
M  V30 6231 H 618.329 2.94235 -2.79608 0
M  V30 6232 H 619.095 1.31178 -4.66923 0
M  V30 6233 H 614.974 2.32606 -3.98015 0
M  V30 6234 H 618.518 0.570562 -6.95263 0
M  V30 6235 H 614.415 1.58999 -6.25611 0
M  V30 6236 H 615.183 0.742835 -8.15122 0
M  V30 6237 N 617.846 1.41785 0.688094 0
M  V30 6238 C 619.074 1.44915 1.47673 0
M  V30 6239 C 619.489 0.0565786 1.88715 0
M  V30 6240 O 618.846 -0.92579 1.57275 0
M  V30 6241 C 618.897 2.36452 2.73446 0
M  V30 6242 O 618.618 3.7029 2.34131 0
M  V30 6243 C 620.119 2.48463 3.67125 0
M  V30 6244 H 617.339 0.493324 0.454832 0
M  V30 6245 H 619.883 1.86153 0.846594 0
M  V30 6246 H 618.038 1.98502 3.3268 0
M  V30 6247 H 618.452 4.19183 3.15255 0
M  V30 6248 H 619.926 3.16662 4.52138 0
M  V30 6249 H 620.403 1.51826 4.12123 0
M  V30 6250 H 621.009 2.8708 3.13792 0
M  V30 6251 N 619.324 -0.923095 1.27737 0
M  V30 6252 C 620.572 -1.66797 1.14119 0
M  V30 6253 C 620.893 -1.92479 -0.312541 0
M  V30 6254 O 620.163 -1.53432 -1.218 0
M  V30 6255 H 618.743 -0.618196 0.419336 0
M  V30 6256 H 621.405 -1.10815 1.60331 0
M  V30 6257 H 620.501 -2.63424 1.67374 0
M  V30 6258 N 620.802 -1.09834 -1.13024 0
M  V30 6259 C 621.75 -0.736283 -2.20639 0
M  V30 6260 C 622.744 0.264725 -1.67319 0
M  V30 6261 O 623.95 0.125745 -1.7956 0
M  V30 6262 H 620.325 -0.220136 -0.719058 0
M  V30 6263 H 622.296 -1.65295 -2.48436 0
M  V30 6264 C 621.045 -0.177544 -3.47246 0
M  V30 6265 H 620.368 -0.939009 -3.88616 0
M  V30 6266 H 621.808 0.0378007 -4.23983 0
M  V30 6267 C 620.267 1.08824 -3.1884 0
M  V30 6268 O 620.797 2.1708 -3.37993 0
M  V30 6269 N 619.003 1.00442 -2.7269 0
M  V30 6270 H 618.55 0.123383 -2.57304 0
M  V30 6271 H 618.508 1.85206 -2.5406 0
M  V30 6272 N 622.28 1.30327 -0.886154 0
M  V30 6273 C 623.528 1.9571 -0.504195 0
M  V30 6274 C 623.849 1.70294 0.950003 0
M  V30 6275 O 623.119 1.02718 1.66811 0
M  V30 6276 H 621.699 0.72412 -0.183465 0
M  V30 6277 H 624.361 1.58835 -1.12949 0
M  V30 6278 H 623.457 3.04704 -0.675431 0
M  V30 6279 N 623.758 0.647228 1.43697 0
M  V30 6280 C 625.174 0.314256 1.56476 0
M  V30 6281 C 625.374 -1.18191 1.63196 0
M  V30 6282 O 624.43 -1.96655 1.58376 0
M  V30 6283 C 625.743 1.02034 2.82859 0
M  V30 6284 C 627.291 1.00002 2.96595 0
M  V30 6285 C 627.766 1.68689 4.25803 0
M  V30 6286 N 629.257 1.65424 4.32654 0
M  V30 6287 C 629.992 2.1545 5.31384 0
M  V30 6288 N 629.488 2.73738 6.36427 0
M  V30 6289 N 631.281 2.05985 5.22998 0
M  V30 6290 H 623.432 1.61821 1.37578 0
M  V30 6291 H 625.695 0.680184 0.660344 0
M  V30 6292 H 625.401 2.07542 2.83935 0
M  V30 6293 H 625.275 0.568146 3.72897 0
M  V30 6294 H 627.662 -0.0466319 2.95063 0
M  V30 6295 H 627.743 1.49086 2.07863 0
M  V30 6296 H 627.387 2.73308 4.28095 0
M  V30 6297 H 627.317 1.17076 5.13421 0
M  V30 6298 H 629.808 1.22884 3.57363 0
M  V30 6299 H 630.121 3.09602 7.08072 0
M  V30 6300 H 628.466 2.77796 6.37067 0
M  V30 6301 H 631.657 1.60157 4.39849 0
M  V30 6302 H 631.83 2.45281 5.99784 0
M  V30 6303 N 625.236 -1.5273 0.388769 0
M  V30 6304 C 626.168 -2.24081 -0.481704 0
M  V30 6305 C 627.181 -1.26307 -1.02715 0
M  V30 6306 O 628.37 -1.52386 -0.929565 0
M  V30 6307 C 625.47 -2.94315 -1.68024 0
M  V30 6308 C 624.643 -4.18791 -1.26226 0
M  V30 6309 C 623.702 -4.72028 -2.32542 0
M  V30 6310 O 622.728 -5.35129 -1.93972 0
M  V30 6311 N 623.93 -4.51838 -3.64448 0
M  V30 6312 H 626.695 -2.9942 0.129591 0
M  V30 6313 H 624.256 -1.60465 0.2151 0
M  V30 6314 H 626.248 -3.26831 -2.38671 0
M  V30 6315 H 624.818 -2.22287 -2.19789 0
M  V30 6316 H 624.038 -3.92318 -0.384703 0
M  V30 6317 H 625.326 -4.99668 -0.959647 0
M  V30 6318 H 624.724 -4.01468 -3.98547 0
M  V30 6319 H 623.281 -4.88845 -4.31131 0
M  V30 6320 N 626.714 -0.118576 -1.57153 0
M  V30 6321 C 627.954 0.542618 -1.97066 0
M  V30 6322 C 628.318 1.63874 -1.00046 0
M  V30 6323 O 629.519 2.3588 -1.28895 0
M  V30 6324 C 627.79 1.06196 -3.41258 0
M  V30 6325 S 629.349 1.73174 -4.03183 0
M  V30 6326 H 626.167 0.17638 -0.688775 0
M  V30 6327 H 628.769 -0.203556 -1.94437 0
M  V30 6328 H 627.473 0.253016 -4.09619 0
M  V30 6329 H 627.004 1.84342 -3.47536 0
M  V30 6330 H 629.019 3.01749 -3.93906 0
M  V30 6331 N 628.193 1.56834 0.155195 0
M  V30 6332 C 629.439 1.83169 0.870467 0
M  V30 6333 C 629.772 0.698929 1.81187 0
M  V30 6334 O 629.047 -0.298035 1.92203 0
M  V30 6335 C 629.33 3.19965 1.65211 0
M  V30 6336 C 629.183 4.43792 0.732744 0
M  V30 6337 C 630.502 3.53885 2.61636 0
M  V30 6338 H 627.621 0.666288 0.315006 0
M  V30 6339 H 630.263 1.89513 0.135988 0
M  V30 6340 H 628.413 3.14687 2.27825 0
M  V30 6341 H 630.085 4.61148 0.118236 0
M  V30 6342 H 628.328 4.3378 0.0417906 0
M  V30 6343 H 628.999 5.36095 1.31552 0
M  V30 6344 H 631.475 3.5972 2.09143 0
M  V30 6345 H 630.351 4.50648 3.13381 0
M  V30 6346 H 630.612 2.79418 3.42605 0
M  V30 6347 N 629.671 -0.424282 1.51781 0
M  V30 6348 C 630.634 -1.49848 1.73431 0
M  V30 6349 C 631.634 -1.49016 0.604225 0
M  V30 6350 O 632.824 -1.50808 0.871935 0
M  V30 6351 C 629.956 -2.89332 1.80277 0
M  V30 6352 H 631.149 -1.3195 2.69312 0
M  V30 6353 H 628.702 -0.653809 1.41968 0
M  V30 6354 H 629.437 -3.12618 0.862568 0
M  V30 6355 H 629.222 -2.9134 2.62419 0
M  V30 6356 H 630.712 -3.67233 1.98821 0
M  V30 6357 N 631.149 -1.42148 -0.680565 0
M  V30 6358 C 632.059 -1.47565 -1.82378 0
M  V30 6359 C 633.075 -0.36489 -1.70131 0
M  V30 6360 O 634.251 -0.614916 -1.91783 0
M  V30 6361 C 631.316 -1.37013 -3.18478 0
M  V30 6362 C 630.377 -2.58532 -3.42724 0
M  V30 6363 C 629.61 -2.48473 -4.72331 0
M  V30 6364 O 629.833 -1.51745 -5.49845 0
M  V30 6365 O 628.767 -3.38503 -4.97694 0
M  V30 6366 H 632.593 -2.44045 -1.80764 0
M  V30 6367 H 630.178 -1.23849 -0.835569 0
M  V30 6368 H 632.06 -1.33468 -3.99705 0
M  V30 6369 H 630.735 -0.436552 -3.20743 0
M  V30 6370 H 629.642 -2.67652 -2.61368 0
M  V30 6371 H 630.975 -3.50769 -3.45286 0
M  V30 6372 N 632.627 0.916307 -1.28225 0
M  V30 6373 C 633.875 1.6619 -1.15002 0
M  V30 6374 C 634.196 1.92642 0.302329 0
M  V30 6375 O 633.466 1.54076 1.20985 0
M  V30 6376 H 632.046 0.615964 -0.422608 0
M  V30 6377 H 634.708 1.09963 -1.60917 0
M  V30 6378 H 633.804 2.62533 -1.68769 0
M  V30 6379 N 634.105 1.10431 1.1244 0
M  V30 6380 C 635.33 0.869089 1.88313 0
M  V30 6381 C 635.755 -0.574912 1.79099 0
M  V30 6382 O 635.113 -1.40496 1.14589 0
M  V30 6383 C 635.161 1.32208 3.3549 0
M  V30 6384 O 634.265 0.487092 4.09513 0
M  V30 6385 H 633.606 0.313894 0.585121 0
M  V30 6386 H 636.136 1.47111 1.42195 0
M  V30 6387 H 636.146 1.31201 3.86329 0
M  V30 6388 H 634.821 2.37364 3.41513 0
M  V30 6389 H 633.398 0.562372 3.68635 0
M  V30 6390 N 635.583 -1.29855 0.893053 0
M  V30 6391 C 636.994 -1.77946 0.564998 0
M  V30 6392 C 637.345 -1.73339 -0.919134 0
M  V30 6393 O 636.47 -1.3152 -1.71847 0
M  V30 6394 C 637.065 -3.23118 1.01883 0
M  V30 6395 C 635.624 -3.69013 0.742051 0
M  V30 6396 C 634.771 -2.50121 1.19727 0
M  V30 6397 H 637.722 -1.16611 1.07646 0
M  V30 6398 H 637.743 -3.78875 0.351249 0
M  V30 6399 H 637.255 -3.26439 2.09903 0
M  V30 6400 H 635.356 -3.71173 -0.325816 0
M  V30 6401 H 635.469 -4.60117 1.33527 0
M  V30 6402 H 633.833 -2.47128 0.616418 0
M  V30 6403 H 634.616 -2.56174 2.28538 0
M  V30 6404 N 637.061 -0.65484 -1.43351 0
M  V30 6405 C 637.993 0.0744757 -2.29079 0
M  V30 6406 C 639.006 0.7855 -1.42596 0
M  V30 6407 O 640.195 0.642986 -1.66517 0
M  V30 6408 C 637.295 1.12859 -3.19556 0
M  V30 6409 C 636.468 0.495381 -4.34586 0
M  V30 6410 C 635.527 1.44659 -5.05925 0
M  V30 6411 O 634.553 0.954567 -5.61139 0
M  V30 6412 N 635.755 2.78051 -5.09576 0
M  V30 6413 H 638.52 -0.661346 -2.92312 0
M  V30 6414 H 636.081 -0.497744 -1.54059 0
M  V30 6415 H 638.073 1.76577 -3.64147 0
M  V30 6416 H 636.643 1.76636 -2.57912 0
M  V30 6417 H 635.863 -0.32092 -3.92892 0
M  V30 6418 H 637.151 0.0534203 -5.08772 0
M  V30 6419 H 636.549 3.20584 -4.66093 0
M  V30 6420 H 635.106 3.37068 -5.57878 0
M  V30 6421 N 638.539 1.52521 -0.396863 0
M  V30 6422 C 639.955 1.5953 -0.0471659 0
M  V30 6423 C 640.155 1.41044 1.43906 0
M  V30 6424 O 639.211 1.23122 2.20448 0
M  V30 6425 C 640.524 2.95972 -0.531113 0
M  V30 6426 C 642.072 3.09172 -0.488024 0
M  V30 6427 C 642.547 4.48075 -0.948281 0
M  V30 6428 N 644.038 4.54281 -0.9046 0
M  V30 6429 C 644.773 5.60007 -1.23205 0
M  V30 6430 N 644.269 6.73343 -1.63036 0
M  V30 6431 N 646.062 5.50151 -1.15282 0
M  V30 6432 H 638.213 1.62786 -1.36435 0
M  V30 6433 H 640.476 0.76514 -0.559701 0
M  V30 6434 H 640.182 3.14741 -1.56942 0
M  V30 6435 H 640.056 3.77143 0.0657922 0
M  V30 6436 H 642.443 2.90095 0.541211 0
M  V30 6437 H 642.524 2.29937 -1.12083 0
M  V30 6438 H 642.168 4.67894 -1.97578 0
M  V30 6439 H 642.098 5.25788 -0.292412 0
M  V30 6440 H 644.589 3.72918 -0.6116 0
M  V30 6441 H 644.902 7.49992 -1.86365 0
M  V30 6442 H 643.247 6.74655 -1.66929 0
M  V30 6443 H 646.438 4.6049 -0.840602 0
M  V30 6444 H 646.611 6.32444 -1.41133 0
M  V30 6445 N 640.017 0.126909 1.57088 0
M  V30 6446 C 641.263 -0.529952 1.95753 0
M  V30 6447 C 641.596 -1.65823 1.01077 0
M  V30 6448 O 640.871 -1.94437 0.0494162 0
M  V30 6449 C 641.154 -1.05517 3.44294 0
M  V30 6450 C 641.007 0.0702253 4.49745 0
M  V30 6451 C 642.326 -1.9435 3.94862 0
M  V30 6452 H 639.445 -0.191168 0.711775 0
M  V30 6453 H 642.087 0.204071 1.88901 0
M  V30 6454 H 640.237 -1.68069 3.50264 0
M  V30 6455 H 641.909 0.705834 4.55868 0
M  V30 6456 H 640.152 0.732259 4.27575 0
M  V30 6457 H 640.823 -0.338642 5.5096 0
M  V30 6458 H 643.299 -1.41658 3.91244 0
M  V30 6459 H 642.175 -2.28015 4.993 0
M  V30 6460 H 642.436 -2.87299 3.36024 0
M  V30 6461 N 641.495 -1.56914 -0.146875 0
M  V30 6462 C 642.443 -1.99224 -1.20053 0
M  V30 6463 C 643.437 -0.884661 -1.44465 0
M  V30 6464 O 644.643 -1.06984 -1.44756 0
M  V30 6465 H 641.018 -0.634191 -0.404112 0
M  V30 6466 H 642.989 -2.86998 -0.816987 0
M  V30 6467 C 641.738 -2.38899 -2.52632 0
M  V30 6468 H 641.061 -3.23677 -2.34677 0
M  V30 6469 H 642.501 -2.72326 -3.24984 0
M  V30 6470 C 640.96 -1.2417 -3.13183 0
M  V30 6471 O 641.49 -0.542503 -3.9802 0
M  V30 6472 N 639.696 -1.00592 -2.72635 0
M  V30 6473 H 639.243 -1.57627 -2.03744 0
M  V30 6474 H 639.201 -0.240174 -3.13481 0
M  V30 6475 N 642.974 0.416227 -1.52004 0
M  V30 6476 C 644.222 1.16153 -1.65387 0
M  V30 6477 C 644.543 1.91208 -0.382669 0
M  V30 6478 O 643.813 1.86413 0.602231 0
M  V30 6479 H 642.393 0.431765 -0.60958 0
M  V30 6480 H 645.055 0.475151 -1.89019 0
M  V30 6481 H 644.151 1.87952 -2.4916 0
M  V30 6482 N 644.452 1.42507 0.673017 0
M  V30 6483 C 645.399 1.46124 1.78651 0
M  V30 6484 C 646.369 0.313007 1.63124 0
M  V30 6485 O 647.554 0.517337 1.83653 0
M  V30 6486 C 644.694 1.3711 3.16694 0
M  V30 6487 C 643.807 2.61983 3.43495 0
M  V30 6488 C 642.942 2.45098 4.71275 0
M  V30 6489 C 641.981 3.65336 4.91117 0
M  V30 6490 N 641.118 3.47383 6.10139 0
M  V30 6491 H 645.958 2.4128 1.74895 0
M  V30 6492 H 643.495 1.19788 0.853766 0
M  V30 6493 H 645.453 1.29881 3.96468 0
M  V30 6494 H 644.083 0.45549 3.1957 0
M  V30 6495 H 643.135 2.79571 2.57961 0
M  V30 6496 H 644.447 3.51355 3.5405 0
M  V30 6497 H 643.601 2.35466 5.59143 0
M  V30 6498 H 642.34 1.53219 4.63007 0
M  V30 6499 H 641.345 3.754 4.0169 0
M  V30 6500 H 642.57 4.58199 5.01229 0
M  V30 6501 H 640.516 2.58222 6.0304 0
M  V30 6502 H 640.433 4.30344 6.21563 0
M  V30 6503 H 641.701 3.41565 7.00681 0
M  V30 6504 N 645.93 -0.909495 1.28709 0
M  V30 6505 C 647.176 -1.66151 1.16283 0
M  V30 6506 C 647.509 -1.92067 -0.287069 0
M  V30 6507 O 646.784 -1.52409 -1.20837 0
M  V30 6508 C 647.067 -3.01676 1.9663 0
M  V30 6509 C 646.92 -2.82888 3.49707 0
M  V30 6510 C 648.239 -4.02274 1.78504 0
M  V30 6511 H 645.358 -0.602966 0.423793 0
M  V30 6512 H 648 -1.05418 1.58073 0
M  V30 6513 H 646.15 -3.53515 1.61119 0
M  V30 6514 H 647.822 -2.38026 3.95147 0
M  V30 6515 H 646.065 -2.17862 3.75125 0
M  V30 6516 H 646.736 -3.79147 4.01187 0
M  V30 6517 H 649.212 -3.59511 2.09503 0
M  V30 6518 H 648.088 -4.95056 2.37088 0
M  V30 6519 H 648.349 -4.35903 0.737647 0
M  V30 6520 N 647.408 -1.11026 -1.11852 0
M  V30 6521 C 648.355 -0.764662 -2.17765 0
M  V30 6522 C 649.325 0.261854 -1.64023 0
M  V30 6523 O 650.51 0.139748 -1.90288 0
M  V30 6524 C 647.65 -0.209317 -3.44465 0
M  V30 6525 C 646.763 -1.29187 -4.12231 0
M  V30 6526 C 645.898 -0.697523 -5.266 0
M  V30 6527 C 644.937 -1.76023 -5.86244 0
M  V30 6528 N 644.074 -1.18569 -6.92016 0
M  V30 6529 H 648.914 -1.67202 -2.46673 0
M  V30 6530 H 646.451 -0.835065 -1.21099 0
M  V30 6531 H 648.409 0.130599 -4.16996 0
M  V30 6532 H 647.039 0.661251 -3.15955 0
M  V30 6533 H 646.091 -1.74881 -3.37818 0
M  V30 6534 H 647.403 -2.09607 -4.52622 0
M  V30 6535 H 646.557 -0.307412 -6.05921 0
M  V30 6536 H 645.296 0.138044 -4.87505 0
M  V30 6537 H 644.301 -2.1597 -5.05606 0
M  V30 6538 H 645.526 -2.59875 -6.27409 0
M  V30 6539 H 643.472 -0.371695 -6.54946 0
M  V30 6540 H 643.389 -1.92666 -7.31038 0
M  V30 6541 H 644.657 -0.82233 -7.7515 0
M  V30 6542 N 648.886 1.2938 -0.899927 0
M  V30 6543 C 650.134 1.95164 -0.524924 0
M  V30 6544 C 650.455 1.71292 0.931888 0
M  V30 6545 O 649.725 1.04481 1.65712 0
M  V30 6546 H 648.305 0.722133 -0.191135 0
M  V30 6547 H 650.967 1.57628 -1.14627 0
M  V30 6548 H 650.063 3.0397 -0.707711 0
M  V30 6549 N 650.364 0.662433 1.43002 0
M  V30 6550 C 651.78 0.330835 1.56133 0
M  V30 6551 C 651.98 -1.16454 1.64441 0
M  V30 6552 O 651.036 -1.94964 1.60453 0
M  V30 6553 C 652.349 1.05029 2.81761 0
M  V30 6554 C 653.897 1.03142 2.95518 0
M  V30 6555 C 654.372 1.73196 4.2399 0
M  V30 6556 N 655.863 1.70004 4.30875 0
M  V30 6557 C 656.598 2.21074 5.29069 0
M  V30 6558 N 656.094 2.80473 6.33488 0
M  V30 6559 N 657.887 2.1152 5.20784 0
M  V30 6560 H 650.038 1.63272 1.35853 0
M  V30 6561 H 652.301 0.687149 0.653092 0
M  V30 6562 H 652.007 2.10542 2.81718 0
M  V30 6563 H 651.881 0.607664 3.72273 0
M  V30 6564 H 654.268 -0.0153339 2.95096 0
M  V30 6565 H 654.349 1.51282 2.0627 0
M  V30 6566 H 653.993 2.77833 4.25172 0
M  V30 6567 H 653.923 1.22515 5.1215 0
M  V30 6568 H 656.414 1.26667 3.56039 0
M  V30 6569 H 656.727 3.17094 7.04749 0
M  V30 6570 H 655.072 2.84538 6.34085 0
M  V30 6571 H 658.263 1.64814 4.38126 0
M  V30 6572 H 658.436 2.51629 5.97149 0
M  V30 6573 N 651.842 -1.52309 0.404946 0
M  V30 6574 C 653.091 -2.00952 -0.173529 0
M  V30 6575 C 653.404 -1.29512 -1.46581 0
M  V30 6576 O 654.61 -1.6895 -2.12528 0
M  V30 6577 C 653.066 -3.58097 -0.359801 0
M  V30 6578 C 652.674 -4.38449 0.920138 0
M  V30 6579 C 654.418 -4.14984 -0.893794 0
M  V30 6580 C 652.325 -5.87227 0.701285 0
M  V30 6581 H 651.255 -0.750871 -0.0686244 0
M  V30 6582 H 653.906 -1.75687 0.529749 0
M  V30 6583 H 652.288 -3.79675 -1.12531 0
M  V30 6584 H 653.462 -4.28633 1.69147 0
M  V30 6585 H 651.777 -3.92859 1.38024 0
M  V30 6586 H 654.374 -5.23813 -1.0735 0
M  V30 6587 H 654.717 -3.72072 -1.8673 0
M  V30 6588 H 655.25 -3.97358 -0.187453 0
M  V30 6589 H 651.989 -6.34491 1.64624 0
M  V30 6590 H 651.509 -5.99792 -0.0308288 0
M  V30 6591 H 653.188 -6.46096 0.341846 0
M  V30 6592 N 653.32 -0.135238 -1.57019 0
M  V30 6593 C 654.567 0.518794 -1.95742 0
M  V30 6594 C 654.895 1.65642 -1.01947 0
M  V30 6595 O 654.15 1.95645 -0.0464016 0
M  V30 6596 C 654.449 1.07694 -3.40788 0
M  V30 6597 C 654.115 0.058992 -4.50861 0
M  V30 6598 C 652.777 -0.220872 -4.80693 0
M  V30 6599 C 655.129 -0.633856 -5.17331 0
M  V30 6600 C 652.457 -1.19959 -5.74305 0
M  V30 6601 C 654.809 -1.60131 -6.11997 0
M  V30 6602 C 653.473 -1.889 -6.40213 0
M  V30 6603 H 652.743 0.18984 -0.716269 0
M  V30 6604 H 655.39 -0.219581 -1.90237 0
M  V30 6605 H 653.695 1.89241 -3.43067 0
M  V30 6606 H 655.392 1.59137 -3.68071 0
M  V30 6607 H 651.982 0.287304 -4.27636 0
M  V30 6608 H 656.166 -0.430823 -4.94427 0
M  V30 6609 H 651.422 -1.42905 -5.94465 0
M  V30 6610 H 655.596 -2.14376 -6.62583 0
M  V30 6611 H 653.223 -2.64891 -7.12556 0
M  V30 6612 N 654.798 1.5699 0.138552 0
M  V30 6613 C 656.044 1.84081 0.85099 0
M  V30 6614 C 656.377 0.718107 1.80435 0
M  V30 6615 O 655.652 -0.277633 1.92508 0
M  V30 6616 C 655.935 3.21699 1.61808 0
M  V30 6617 C 655.788 4.44544 0.685633 0
M  V30 6618 C 657.107 3.5664 2.57868 0
M  V30 6619 H 654.226 0.669592 0.307922 0
M  V30 6620 H 656.868 1.89646 0.11588 0
M  V30 6621 H 655.018 3.17086 2.24474 0
M  V30 6622 H 656.69 4.61248 0.0693179 0
M  V30 6623 H 654.933 4.338 -0.00421993 0
M  V30 6624 H 655.604 5.3746 1.25858 0
M  V30 6625 H 658.08 3.61918 2.05316 0
M  V30 6626 H 656.956 4.53946 3.08584 0
M  V30 6627 H 657.217 2.83036 3.39622 0
M  V30 6628 N 656.276 -0.40816 1.52223 0
M  V30 6629 C 657.524 -1.15274 1.66001 0
M  V30 6630 C 657.845 -1.91003 0.392803 0
M  V30 6631 O 657.115 -1.8673 -0.592336 0
M  V30 6632 H 655.695 -0.428526 0.611861 0
M  V30 6633 H 658.357 -0.46512 1.89269 0
M  V30 6634 H 657.453 -1.86628 2.50153 0
M  V30 6635 N 657.755 -1.42862 -0.66545 0
M  V30 6636 C 658.98 -1.47456 -1.45848 0
M  V30 6637 C 659.405 -0.0900312 -1.87884 0
M  V30 6638 O 658.763 0.913587 -1.56599 0
M  V30 6639 C 658.811 -2.41514 -2.67774 0
M  V30 6640 O 657.915 -1.89296 -3.66389 0
M  V30 6641 H 657.256 -0.499236 -0.437789 0
M  V30 6642 H 659.786 -1.8765 -0.815394 0
M  V30 6643 H 659.796 -2.58409 -3.15735 0
M  V30 6644 H 658.471 -3.42099 -2.36519 0
M  V30 6645 H 657.048 -1.82003 -3.25468 0
M  V30 6646 N 659.233 0.902656 -1.29189 0
M  V30 6647 C 660.458 1.69167 -1.19989 0
M  V30 6648 C 660.883 1.86607 0.236495 0
M  V30 6649 O 660.241 1.38425 1.17082 0
M  V30 6650 C 660.289 3.05532 -1.91527 0
M  V30 6651 O 659.393 3.93621 -1.2303 0
M  V30 6652 H 658.734 0.517584 -0.415936 0
M  V30 6653 H 661.264 1.12785 -1.70706 0
M  V30 6654 H 661.274 3.55693 -1.99866 0
M  V30 6655 H 659.949 2.92156 -2.96003 0
M  V30 6656 H 658.526 3.52055 -1.22928 0
M  V30 6657 N 660.711 1.11618 1.11262 0
M  V30 6658 C 661.643 0.734015 2.17129 0
M  V30 6659 C 662.656 -0.235243 1.61091 0
M  V30 6660 O 663.845 -0.0178597 1.78491 0
M  V30 6661 C 660.945 0.0643682 3.38839 0
M  V30 6662 C 660.118 1.06092 4.24339 0
M  V30 6663 C 659.177 0.420482 5.24517 0
M  V30 6664 O 658.203 1.07495 5.58957 0
M  V30 6665 N 659.405 -0.815828 5.74739 0
M  V30 6666 H 662.17 1.64492 2.50524 0
M  V30 6667 H 659.731 1.00664 1.26801 0
M  V30 6668 H 661.723 -0.375851 4.02951 0
M  V30 6669 H 660.293 -0.749147 3.03491 0
M  V30 6670 H 659.513 1.67903 3.56654 0
M  V30 6671 H 660.801 1.73507 4.78302 0
M  V30 6672 H 660.199 -1.36668 5.48943 0
M  V30 6673 H 658.756 -1.199 6.40677 0
M  V30 6674 N 662.189 -1.289 0.906776 0
M  V30 6675 C 663.435 -1.95558 0.53712 0
M  V30 6676 C 663.768 -1.71262 -0.915582 0
M  V30 6677 O 663.043 -1.02961 -1.65013 0
M  V30 6678 C 663.326 -3.50198 0.838645 0
M  V30 6679 C 663.179 -3.83923 2.34357 0
M  V30 6680 C 664.498 -4.38861 0.329988 0
M  V30 6681 H 661.617 -0.710289 0.196617 0
M  V30 6682 H 664.259 -1.52392 1.13475 0
M  V30 6683 H 662.409 -3.87096 0.330024 0
M  V30 6684 H 664.081 -3.56933 2.92227 0
M  V30 6685 H 662.324 -3.31215 2.80141 0
M  V30 6686 H 662.995 -4.91883 2.5051 0
M  V30 6687 H 665.471 -4.08996 0.765609 0
M  V30 6688 H 664.347 -5.45931 0.570105 0
M  V30 6689 H 664.608 -4.35352 -0.769511 0
M  V30 6690 N 663.667 -0.670007 -1.42649 0
M  V30 6691 C 665.078 -0.268118 -1.84765 0
M  V30 6692 C 665.429 1.18877 -1.56086 0
M  V30 6693 O 664.554 1.90947 -1.01825 0
M  V30 6694 C 665.149 -0.47984 -3.35385 0
M  V30 6695 C 663.708 -0.132116 -3.76168 0
M  V30 6696 C 662.855 -0.774611 -2.66261 0
M  V30 6697 H 665.806 -0.872509 -1.32563 0
M  V30 6698 H 665.827 0.269522 -3.79544 0
M  V30 6699 H 665.339 -1.54026 -3.56227 0
M  V30 6700 H 663.44 0.92505 -3.60934 0
M  V30 6701 H 663.553 -0.569294 -4.75706 0
M  V30 6702 H 661.917 -0.206353 -2.53863 0
M  V30 6703 H 662.7 -1.83839 -2.89928 0
M  V30 6704 N 665.145 1.52092 -0.413018 0
M  V30 6705 C 666.394 2.01041 0.16287 0
M  V30 6706 C 666.707 1.30288 1.45892 0
M  V30 6707 O 667.913 1.70075 2.11629 0
M  V30 6708 C 666.369 3.58283 0.340806 0
M  V30 6709 C 665.977 4.37955 -0.943377 0
M  V30 6710 C 667.721 4.15452 0.871774 0
M  V30 6711 C 665.628 5.86847 -0.732417 0
M  V30 6712 H 664.558 0.751224 0.0646414 0
M  V30 6713 H 667.209 1.75404 -0.539059 0
M  V30 6714 H 665.591 3.80266 1.10516 0
M  V30 6715 H 666.765 4.2773 -1.71418 0
M  V30 6716 H 665.08 3.92122 -1.40105 0
M  V30 6717 H 667.677 5.24375 1.0457 0
M  V30 6718 H 668.02 3.73057 1.84755 0
M  V30 6719 H 668.553 3.97452 0.166377 0
M  V30 6720 H 665.292 6.33609 -1.67986 0
M  V30 6721 H 664.812 5.998 -0.000980058 0
M  V30 6722 H 666.491 6.45906 -0.376105 0
M  V30 6723 N 666.623 0.143563 1.56945 0
M  V30 6724 C 667.869 -0.50916 1.96304 0
M  V30 6725 C 668.202 -1.64741 1.0283 0
M  V30 6726 O 667.477 -1.94374 0.0700361 0
M  V30 6727 C 667.76 -1.0186 3.45393 0
M  V30 6728 C 667.613 0.117923 4.49645 0
M  V30 6729 C 668.932 -1.90151 3.96901 0
M  V30 6730 H 666.051 -0.183608 0.713763 0
M  V30 6731 H 668.693 0.224095 1.88674 0
M  V30 6732 H 666.843 -1.64345 3.52027 0
M  V30 6733 H 668.515 0.754145 4.55094 0
M  V30 6734 H 666.758 0.777568 4.26774 0
M  V30 6735 H 667.429 -0.280187 5.51288 0
M  V30 6736 H 669.905 -1.375 3.92725 0
M  V30 6737 H 668.781 -2.22707 5.0169 0
M  V30 6738 H 669.042 -2.83718 3.39052 0
M  V30 6739 N 668.101 -1.57061 -0.130224 0
M  V30 6740 C 669.348 -1.84257 -0.839972 0
M  V30 6741 C 669.676 -0.726986 -1.80403 0
M  V30 6742 O 668.931 0.282632 -1.93648 0
M  V30 6743 C 669.23 -3.17878 -1.63365 0
M  V30 6744 C 668.896 -4.43475 -0.814891 0
M  V30 6745 C 667.558 -4.77581 -0.589066 0
M  V30 6746 C 669.91 -5.20631 -0.243437 0
M  V30 6747 C 667.238 -5.86292 0.218648 0
M  V30 6748 C 669.59 -6.30192 0.551408 0
M  V30 6749 C 668.254 -6.62837 0.787653 0
M  V30 6750 H 667.524 -0.674245 -0.307367 0
M  V30 6751 H 670.171 -1.91224 -0.102832 0
M  V30 6752 H 668.476 -3.06437 -2.44138 0
M  V30 6753 H 670.173 -3.3614 -2.18658 0
M  V30 6754 H 666.763 -4.16747 -1.00098 0
M  V30 6755 H 670.947 -4.94644 -0.405145 0
M  V30 6756 H 666.203 -6.10017 0.411016 0
M  V30 6757 H 670.377 -6.89165 1.00126 0
M  V30 6758 H 668.004 -7.46908 1.41537 0
M  V30 6759 N 669.579 0.400081 -1.52437 0
M  V30 6760 C 670.489 1.51253 -1.79331 0
M  V30 6761 C 671.505 1.60188 -0.679396 0
M  V30 6762 O 672.681 1.76733 -0.965791 0
M  V30 6763 C 669.746 2.869 -1.94652 0
M  V30 6764 C 668.807 2.87777 -3.18564 0
M  V30 6765 C 668.04 4.16954 -3.33145 0
M  V30 6766 O 668.263 5.11329 -2.52783 0
M  V30 6767 O 667.197 4.2487 -4.26343 0
M  V30 6768 H 671.023 1.31461 -2.73773 0
M  V30 6769 H 668.608 0.586834 -1.37392 0
M  V30 6770 H 670.49 3.67336 -2.065 0
M  V30 6771 H 669.165 3.06741 -1.034 0
M  V30 6772 H 668.072 2.06162 -3.12167 0
M  V30 6773 H 669.405 2.72886 -4.09627 0
M  V30 6774 N 671.057 1.43213 0.657864 0
M  V30 6775 C 672.005 1.48271 1.79216 0
M  V30 6776 C 672.999 0.35675 1.65601 0
M  V30 6777 O 674.205 0.530535 1.72004 0
M  V30 6778 H 670.58 0.464729 0.591211 0
M  V30 6779 H 672.551 2.43792 1.7207 0
M  V30 6780 C 671.3 1.41837 3.17455 0
M  V30 6781 H 670.623 2.27781 3.28567 0
M  V30 6782 H 672.063 1.49438 3.96793 0
M  V30 6783 C 670.522 0.135347 3.36628 0
M  V30 6784 O 671.052 -0.805199 3.93547 0
M  V30 6785 N 669.258 0.0470316 2.90562 0
M  V30 6786 H 668.805 0.813221 2.44427 0
M  V30 6787 H 668.763 -0.810737 3.03767 0
M  V30 6788 N 672.536 -0.895792 1.29666 0
M  V30 6789 C 673.764 -1.68001 1.20761 0
M  V30 6790 C 674.179 -1.87379 -0.231187 0
M  V30 6791 O 673.536 -1.41359 -1.15429 0
M  V30 6792 C 673.587 -3.06236 1.92098 0
M  V30 6793 O 673.308 -2.8774 3.30359 0
M  V30 6794 C 674.809 -4.00652 1.89717 0
M  V30 6795 H 672.029 -0.524591 0.418384 0
M  V30 6796 H 674.573 -1.11995 1.71106 0
M  V30 6797 H 672.728 -3.59007 1.45578 0
M  V30 6798 H 673.142 -3.75359 3.66342 0
M  V30 6799 H 674.616 -4.95051 2.44189 0
M  V30 6800 H 675.093 -4.30424 0.873595 0
M  V30 6801 H 675.699 -3.53815 2.35998 0
M  V30 6802 N 674.014 -1.12206 -1.10668 0
M  V30 6803 C 675.291 -0.787382 -1.79052 0
M  V30 6804 C 675.671 0.723267 -1.98323 0
M  V30 6805 O 675.019 1.6561 -1.57434 0
M  V30 6806 C 675.229 -1.55968 -3.1221 0
M  V30 6807 C 676.577 -1.74413 -3.87125 0
M  V30 6808 O 677.601 -1.5246 -3.21923 0
M  V30 6809 O 676.46 -2.10952 -5.04144 0
M  V30 6810 H 673.554 -0.286137 -0.775922 0
M  V30 6811 H 676.1 -1.22595 -1.1734 0
M  V30 6812 H 674.872 -2.58692 -2.93588 0
M  V30 6813 H 674.495 -1.1152 -3.8164 0
M  V30 6814 N 675.492 1.28418 -0.913599 0
M  V30 6815 C 676.422 2.29713 -0.418847 0
M  V30 6816 C 677.403 1.62165 0.513469 0
M  V30 6817 O 678.588 1.89576 0.421235 0
M  V30 6818 C 675.718 3.45612 0.342042 0
M  V30 6819 C 674.672 4.25056 -0.501123 0
M  V30 6820 C 673.998 5.3329 0.388097 0
M  V30 6821 C 675.298 4.91814 -1.75831 0
M  V30 6822 H 676.992 2.71346 -1.26538 0
M  V30 6823 H 674.538 1.30446 -0.609903 0
M  V30 6824 H 676.491 4.15562 0.699 0
M  V30 6825 H 675.215 3.02858 1.22248 0
M  V30 6826 H 673.874 3.56833 -0.840598 0
M  V30 6827 H 673.522 4.8678 1.26707 0
M  V30 6828 H 673.222 5.87347 -0.172459 0
M  V30 6829 H 674.746 6.06088 0.74094 0
M  V30 6830 H 676.16 5.54126 -1.47026 0
M  V30 6831 H 674.557 5.55866 -2.26126 0
M  V30 6832 H 675.627 4.16313 -2.4862 0
M  V30 6833 N 676.97 0.677563 1.42291 0
M  V30 6834 C 677.92 -0.0218641 2.2799 0
M  V30 6835 C 678.904 -0.770816 1.41235 0
M  V30 6836 O 680.096 -0.649273 1.64662 0
M  V30 6837 C 677.225 -0.970449 3.29298 0
M  V30 6838 C 676.311 -0.218695 4.23536 0
M  V30 6839 N 676.702 0.777908 4.99782 0
M  V30 6840 C 675 -0.456748 4.43655 0
M  V30 6841 C 675.701 1.22632 5.68627 0
M  V30 6842 N 674.677 0.55573 5.40752 0
M  V30 6843 H 678.479 0.742516 2.84366 0
M  V30 6844 H 675.993 0.506862 1.54288 0
M  V30 6845 H 677.99 -1.48652 3.89497 0
M  V30 6846 H 676.65 -1.73463 2.74483 0
M  V30 6847 H 677.661 1.15754 5.04798 0
M  V30 6848 H 674.338 -1.20021 3.99877 0
M  V30 6849 H 675.728 2.05231 6.39789 0
M  V30 6850 N 678.448 -1.51871 0.421078 0
M  V30 6851 C 679.673 -2.0684 -0.152371 0
M  V30 6852 C 680.098 -1.28802 -1.37083 0
M  V30 6853 O 679.456 -0.321482 -1.78427 0
M  V30 6854 C 679.504 -3.57532 -0.469368 0
M  V30 6855 O 678.608 -3.81818 -1.55848 0
M  V30 6856 H 677.949 -0.663939 -0.00898586 0
M  V30 6857 H 680.479 -1.95674 0.597724 0
M  V30 6858 H 680.489 -4.01515 -0.724553 0
M  V30 6859 H 679.164 -4.13761 0.421276 0
M  V30 6860 H 677.741 -3.49709 -1.29453 0
M  V30 6861 N 679.926 -0.151884 -1.56866 0
M  V30 6862 C 681.156 0.504081 -2.00356 0
M  V30 6863 C 681.564 1.58639 -1.03103 0
M  V30 6864 O 680.907 1.83688 -0.0207931 0
M  V30 6865 C 680.969 1.15975 -3.40279 0
M  V30 6866 C 680.633 0.221453 -4.56463 0
M  V30 6867 C 681.63 -0.552766 -5.16953 0
M  V30 6868 C 679.315 0.122936 -5.0215 0
M  V30 6869 C 681.309 -1.4129 -6.21543 0
M  V30 6870 C 678.996 -0.740801 -6.06593 0
M  V30 6871 C 679.994 -1.50732 -6.6616 0
M  V30 6872 O 679.682 -2.35666 -7.68581 0
M  V30 6873 H 679.414 0.135279 -0.662326 0
M  V30 6874 H 681.968 -0.244916 -2.03935 0
M  V30 6875 H 680.198 1.95649 -3.33554 0
M  V30 6876 H 681.887 1.71594 -3.67846 0
M  V30 6877 H 682.653 -0.486716 -4.82552 0
M  V30 6878 H 678.532 0.70931 -4.5551 0
M  V30 6879 H 682.076 -2.01166 -6.67966 0
M  V30 6880 H 677.973 -0.808125 -6.40421 0
M  V30 6881 H 678.741 -2.28967 -7.85822 0
M  V30 6882 N 681.404 1.57128 0.121893 0
M  V30 6883 C 682.65 1.84974 0.831418 0
M  V30 6884 C 682.983 0.737204 1.79663 0
M  V30 6885 O 682.258 -0.257199 1.92792 0
M  V30 6886 C 682.541 3.23397 1.58386 0
M  V30 6887 C 682.394 4.45246 0.638445 0
M  V30 6888 C 683.713 3.59355 2.54071 0
M  V30 6889 H 680.832 0.67282 0.300803 0
M  V30 6890 H 683.474 1.89759 0.0957587 0
M  V30 6891 H 681.624 3.19449 2.21098 0
M  V30 6892 H 683.296 4.61295 0.0203925 0
M  V30 6893 H 681.539 4.33771 -0.05023 0
M  V30 6894 H 682.21 5.38765 1.20151 0
M  V30 6895 H 684.686 3.64075 2.01465 0
M  V30 6896 H 683.562 4.57193 3.03752 0
M  V30 6897 H 683.823 2.86622 3.36601 0
M  V30 6898 N 682.882 -0.391992 1.52647 0
M  V30 6899 C 684.128 -1.139 1.67793 0
M  V30 6900 C 684.461 -1.89711 0.41514 0
M  V30 6901 O 683.736 -1.85431 -0.586979 0
M  V30 6902 C 684.019 -2.11966 2.91105 0
M  V30 6903 C 683.872 -1.39939 4.27478 0
M  V30 6904 C 685.191 -3.1243 3.09961 0
M  V30 6905 H 682.31 -0.412707 0.610608 0
M  V30 6906 H 684.952 -0.422725 1.85238 0
M  V30 6907 H 683.102 -2.73048 2.76364 0
M  V30 6908 H 684.774 -0.818439 4.53982 0
M  V30 6909 H 683.017 -0.701246 4.28095 0
M  V30 6910 H 683.688 -2.1158 5.09841 0
M  V30 6911 H 686.164 -2.61435 3.23714 0
M  V30 6912 H 685.04 -3.78294 3.97725 0
M  V30 6913 H 685.301 -3.81127 2.24042 0
M  V30 6914 N 684.36 -1.4356 -0.65026 0
M  V30 6915 C 685.293 -1.434 -1.77515 0
M  V30 6916 C 686.271 -0.295082 -1.599 0
M  V30 6917 O 687.455 -0.489128 -1.82043 0
M  V30 6918 C 684.582 -1.2484 -3.14853 0
M  V30 6919 C 683.628 -2.42046 -3.51163 0
M  V30 6920 S 684.461 -4.04595 -3.50803 0
M  V30 6921 C 685.617 -3.88424 -4.90793 0
M  V30 6922 H 685.85 -2.38586 -1.77381 0
M  V30 6923 H 683.383 -1.30627 -0.823169 0
M  V30 6924 H 685.341 -1.14819 -3.94115 0
M  V30 6925 H 684.002 -0.311977 -3.12547 0
M  V30 6926 H 683.195 -2.24873 -4.51052 0
M  V30 6927 H 682.797 -2.48708 -2.79321 0
M  V30 6928 H 685.089 -3.50932 -5.79528 0
M  V30 6929 H 686.032 -4.88076 -5.13018 0
M  V30 6930 H 686.44 -3.20829 -4.64467 0
M  V30 6931 N 685.838 0.888903 -1.30139 0
M  V30 6932 C 686.786 2.0156 -1.16088 0
M  V30 6933 C 687.78 1.69239 -0.0737413 0
M  V30 6934 O 688.986 1.78468 -0.234313 0
M  V30 6935 H 685.361 0.660825 -0.358907 0
M  V30 6936 H 687.332 2.10547 -2.11453 0
M  V30 6937 C 686.081 3.36758 -0.865426 0
M  V30 6938 H 685.404 3.62137 -1.69402 0
M  V30 6939 H 686.844 4.16246 -0.807192 0
M  V30 6940 C 685.303 3.34124 0.431577 0
M  V30 6941 O 685.833 3.7445 1.45431 0
M  V30 6942 N 684.039 2.87229 0.441321 0
M  V30 6943 H 683.586 2.54609 -0.391433 0
M  V30 6944 H 683.544 2.8585 1.30909 0
M  V30 6945 N 687.317 1.12792 1.10072 0
M  V30 6946 C 688.267 0.768086 2.14673 0
M  V30 6947 C 689.251 -0.234716 1.59179 0
M  V30 6948 O 690.443 -0.039643 1.76956 0
M  V30 6949 C 687.572 0.228472 3.42539 0
M  V30 6950 C 686.658 1.25979 4.04957 0
M  V30 6951 N 687.049 2.4586 4.42025 0
M  V30 6952 C 685.347 1.10602 4.32069 0
M  V30 6953 C 686.048 3.11747 4.9111 0
M  V30 6954 N 685.024 2.39185 4.88151 0
M  V30 6955 H 688.826 1.68029 2.4113 0
M  V30 6956 H 686.34 1.00925 1.27232 0
M  V30 6957 H 688.337 -0.0475216 4.16873 0
M  V30 6958 H 686.997 -0.678136 3.1754 0
M  V30 6959 H 688.008 2.83215 4.33601 0
M  V30 6960 H 684.685 0.257021 4.16708 0
M  V30 6961 H 686.075 4.13862 5.29309 0
M  V30 6962 N 688.795 -1.27931 0.920396 0
M  V30 6963 C 690.043 -1.94304 0.555906 0
M  V30 6964 C 690.364 -1.72753 -0.904519 0
M  V30 6965 O 689.634 -1.07104 -1.64029 0
M  V30 6966 H 688.214 -0.719001 0.202599 0
M  V30 6967 H 690.876 -1.55785 1.1712 0
M  V30 6968 H 689.972 -3.02806 0.755981 0
M  V30 6969 N 690.273 -0.685099 -1.4193 0
M  V30 6970 C 691.689 -0.355632 -1.55587 0
M  V30 6971 C 691.889 1.13823 -1.66273 0
M  V30 6972 O 690.945 1.92387 -1.63534 0
M  V30 6973 C 692.258 -1.09498 -2.80055 0
M  V30 6974 C 693.806 -1.07831 -2.93839 0
M  V30 6975 C 694.281 -1.79919 -4.21181 0
M  V30 6976 N 695.772 -1.76837 -4.28115 0
M  V30 6977 C 696.507 -2.29463 -5.25485 0
M  V30 6978 N 696.003 -2.90516 -6.28945 0
M  V30 6979 N 697.796 -2.19779 -5.17353 0
M  V30 6980 H 689.947 -1.65412 -1.33239 0
M  V30 6981 H 692.21 -0.697453 -0.642078 0
M  V30 6982 H 691.916 -2.14997 -2.78333 0
M  V30 6983 H 691.79 -0.666813 -3.71259 0
M  V30 6984 H 694.177 -0.0316152 -2.95083 0
M  V30 6985 H 694.258 -1.54545 -2.03837 0
M  V30 6986 H 693.902 -2.84562 -4.20698 0
M  V30 6987 H 693.832 -1.30647 -5.10136 0
M  V30 6988 H 696.323 -1.32315 -3.53979 0
M  V30 6989 H 696.636 -3.28266 -6.99615 0
M  V30 6990 H 694.981 -2.94589 -6.29478 0
M  V30 6991 H 698.172 -1.71763 -4.35448 0
M  V30 6992 H 698.345 -2.61097 -5.9307 0
M  V30 6993 N 691.751 1.51645 -0.429126 0
M  V30 6994 C 692.976 2.06917 0.141399 0
M  V30 6995 C 693.401 1.29527 1.36398 0
M  V30 6996 O 692.759 0.33094 1.78254 0
M  V30 6997 C 692.807 3.57776 0.4504 0
M  V30 6998 O 691.911 3.82639 1.53821 0
M  V30 6999 H 691.252 0.663978 0.0054647 0
M  V30 7000 H 693.782 1.95355 -0.608093 0
M  V30 7001 H 693.792 4.01894 0.703249 0
M  V30 7002 H 692.467 4.13532 -0.443213 0
M  V30 7003 H 691.044 3.5039 1.27597 0
M  V30 7004 N 693.229 0.160201 1.56784 0
M  V30 7005 C 694.459 -0.493449 2.00621 0
M  V30 7006 C 694.867 -1.5809 1.03943 0
M  V30 7007 O 694.21 -1.83675 0.0305343 0
M  V30 7008 C 694.272 -1.14169 3.4089 0
M  V30 7009 C 693.936 -0.197243 4.56574 0
M  V30 7010 C 694.933 0.580174 5.16653 0
M  V30 7011 C 692.618 -0.0963038 5.02208 0
M  V30 7012 C 694.612 1.44584 6.20785 0
M  V30 7013 C 692.299 0.772959 6.06192 0
M  V30 7014 C 693.297 1.54263 6.65351 0
M  V30 7015 O 692.985 2.39738 7.67321 0
M  V30 7016 H 692.717 -0.131764 0.663034 0
M  V30 7017 H 695.271 0.255728 2.03802 0
M  V30 7018 H 693.501 -1.93877 3.34587 0
M  V30 7019 H 695.19 -1.69641 3.6875 0
M  V30 7020 H 695.956 0.5123 4.82287 0
M  V30 7021 H 691.835 -0.685143 4.5588 0
M  V30 7022 H 695.379 2.04706 6.66889 0
M  V30 7023 H 691.276 0.842077 6.39984 0
M  V30 7024 H 692.044 2.33131 7.84597 0
M  V30 7025 N 694.707 -1.5719 -0.113559 0
M  V30 7026 C 695.935 -1.89328 -0.834422 0
M  V30 7027 C 696.35 -0.752018 -1.73177 0
M  V30 7028 O 695.707 0.276912 -1.80387 0
M  V30 7029 C 695.758 -3.20962 -1.66329 0
M  V30 7030 O 695.479 -4.30695 -0.802069 0
M  V30 7031 C 696.98 -3.6684 -2.48884 0
M  V30 7032 H 694.2 -0.626769 -0.239587 0
M  V30 7033 H 696.744 -2.04273 -0.0963195 0
M  V30 7034 H 694.899 -3.0767 -2.35409 0
M  V30 7035 H 695.313 -5.06175 -1.37431 0
M  V30 7036 H 696.787 -4.61692 -3.02563 0
M  V30 7037 H 697.264 -2.93765 -3.26495 0
M  V30 7038 H 697.87 -3.82938 -1.85036 0
M  V30 7039 N 696.185 0.383891 -1.52853 0
M  V30 7040 C 697.148 1.45197 -1.77343 0
M  V30 7041 C 698.148 1.47362 -0.643522 0
M  V30 7042 O 699.338 1.48443 -0.911613 0
M  V30 7043 C 696.47 2.8445 -1.87885 0
M  V30 7044 H 697.663 1.24764 -2.72716 0
M  V30 7045 H 695.216 0.615939 -1.43652 0
M  V30 7046 H 695.951 3.10222 -0.94515 0
M  V30 7047 H 695.736 2.8428 -2.70051 0
M  V30 7048 H 697.226 3.61832 -2.08488 0
M  V30 7049 N 697.663 1.43903 0.642637 0
M  V30 7050 C 698.912 1.45362 1.39831 0
M  V30 7051 C 699.225 0.0856289 1.95412 0
M  V30 7052 O 700.431 -0.0222856 2.71491 0
M  V30 7053 C 698.887 2.55857 2.53111 0
M  V30 7054 C 698.495 3.98811 2.04092 0
M  V30 7055 C 700.239 2.66524 3.30402 0
M  V30 7056 C 698.146 5.00751 3.14647 0
M  V30 7057 H 697.076 0.540777 0.52543 0
M  V30 7058 H 699.727 1.69929 0.692559 0
M  V30 7059 H 698.109 2.2451 3.26207 0
M  V30 7060 H 699.283 4.3967 1.37938 0
M  V30 7061 H 697.598 3.92284 1.39651 0
M  V30 7062 H 700.195 3.39858 4.12796 0
M  V30 7063 H 700.538 1.71949 3.79129 0
M  V30 7064 H 701.071 2.97224 2.64392 0
M  V30 7065 H 697.81 5.96914 2.70876 0
M  V30 7066 H 697.33 4.64495 3.79479 0
M  V30 7067 H 699.009 5.23933 3.79609 0
M  V30 7068 N 699.141 -0.881989 1.30609 0
M  V30 7069 C 700.366 -1.67236 1.22665 0
M  V30 7070 C 700.791 -1.8696 -0.206777 0
M  V30 7071 O 700.149 -1.4027 -1.14865 0
M  V30 7072 C 700.197 -3.02446 1.96363 0
M  V30 7073 O 699.301 -3.91614 1.29276 0
M  V30 7074 H 698.642 -0.510902 0.424117 0
M  V30 7075 H 701.172 -1.10055 1.72479 0
M  V30 7076 H 701.182 -3.52468 2.055 0
M  V30 7077 H 699.857 -2.8741 3.00613 0
M  V30 7078 H 698.434 -3.50055 1.28514 0
M  V30 7079 N 700.619 -1.13374 -1.09472 0
M  V30 7080 C 701.847 -0.918351 -1.85402 0
M  V30 7081 C 702.262 0.53281 -1.81126 0
M  V30 7082 O 701.619 1.36879 -1.20708 0
M  V30 7083 C 701.67 -1.39743 -3.33398 0
M  V30 7084 O 701.391 -2.79172 -3.37631 0
M  V30 7085 C 702.892 -1.22042 -4.2617 0
M  V30 7086 H 700.112 -0.327511 -0.585643 0
M  V30 7087 H 702.656 -1.50617 -1.38328 0
M  V30 7088 H 700.811 -0.852619 -3.77901 0
M  V30 7089 H 701.225 -3.00428 -4.29934 0
M  V30 7090 H 702.699 -1.60438 -5.2817 0
M  V30 7091 H 703.176 -0.162047 -4.38901 0
M  V30 7092 H 703.782 -1.75323 -3.87482 0
M  V30 7093 N 702.098 1.27442 -0.927168 0
M  V30 7094 C 703.347 1.93679 -0.563146 0
M  V30 7095 C 703.66 1.73673 0.899837 0
M  V30 7096 O 704.866 2.34247 1.37262 0
M  V30 7097 C 703.322 3.46961 -0.95636 0
M  V30 7098 C 702.93 3.75724 -2.43999 0
M  V30 7099 C 704.674 4.19282 -0.663565 0
M  V30 7100 C 702.581 5.22378 -2.77263 0
M  V30 7101 H 701.511 0.725059 -0.206894 0
M  V30 7102 H 704.162 1.44743 -1.12791 0
M  V30 7103 H 702.544 3.94703 -0.320254 0
M  V30 7104 H 703.718 3.38741 -3.12396 0
M  V30 7105 H 702.033 3.16605 -2.70463 0
M  V30 7106 H 704.63 5.27265 -0.888596 0
M  V30 7107 H 704.973 4.14382 0.399198 0
M  V30 7108 H 705.506 3.7736 -1.25875 0
M  V30 7109 H 702.245 5.32367 -3.82446 0
M  V30 7110 H 701.765 5.6051 -2.13516 0
M  V30 7111 H 703.444 5.9025 -2.64979 0
M  V30 7112 N 703.576 0.692616 1.41565 0
M  V30 7113 C 704.987 0.297478 1.84315 0
M  V30 7114 C 705.338 -1.16379 1.57957 0
M  V30 7115 O 704.463 -1.89303 1.0485 0
M  V30 7116 C 705.058 0.533136 3.34579 0
M  V30 7117 C 703.617 0.191944 3.7591 0
M  V30 7118 C 702.764 0.816873 2.64995 0
M  V30 7119 H 705.715 0.893488 1.31158 0
M  V30 7120 H 705.736 -0.209105 3.79925 0
M  V30 7121 H 705.248 1.59674 3.53731 0
M  V30 7122 H 703.349 -0.867512 3.6236 0
M  V30 7123 H 703.462 0.644902 4.7474 0
M  V30 7124 H 701.826 0.246715 2.53502 0
M  V30 7125 H 702.609 1.88429 2.86966 0
M  V30 7126 N 705.054 -1.51416 0.437162 0
M  V30 7127 C 705.964 -2.31493 -0.380537 0
M  V30 7128 C 706.98 -1.40399 -1.02782 0
M  V30 7129 O 708.156 -1.73471 -1.02323 0
M  V30 7130 C 705.221 -3.1413 -1.46709 0
M  V30 7131 C 704.282 -4.21003 -0.839953 0
M  V30 7132 C 703.515 -4.9969 -1.87473 0
M  V30 7133 O 703.738 -4.79008 -3.09689 0
M  V30 7134 O 702.672 -5.8379 -1.46536 0
M  V30 7135 H 706.498 -3.02469 0.273183 0
M  V30 7136 H 704.083 -1.48059 0.199706 0
M  V30 7137 H 705.965 -3.65505 -2.09724 0
M  V30 7138 H 704.64 -2.45919 -2.10489 0
M  V30 7139 H 703.547 -3.73706 -0.171752 0
M  V30 7140 H 704.88 -4.91587 -0.245638 0
M  V30 7141 N 706.532 -0.168513 -1.56696 0
M  V30 7142 C 707.76 0.483503 -2.01171 0
M  V30 7143 C 708.175 1.56994 -1.04872 0
M  V30 7144 O 707.532 1.82434 -0.0491337 0
M  V30 7145 C 707.583 1.0644 -3.45475 0
M  V30 7146 O 707.304 0.0213375 -4.38095 0
M  V30 7147 C 708.805 1.79493 -4.05336 0
M  V30 7148 H 706.025 0.124002 -0.659443 0
M  V30 7149 H 708.569 -0.269419 -2.02717 0
M  V30 7150 H 706.724 1.76784 -3.44712 0
M  V30 7151 H 707.138 0.449837 -5.22567 0
M  V30 7152 H 708.612 2.15401 -5.08238 0
M  V30 7153 H 709.089 2.68889 -3.47269 0
M  V30 7154 H 709.695 1.13798 -4.09793 0
M  V30 7155 N 708.01 1.57248 0.105221 0
M  V30 7156 C 709.256 1.85845 0.811753 0
M  V30 7157 C 709.589 0.756219 1.78871 0
M  V30 7158 O 708.864 -0.236736 1.93054 0
M  V30 7159 C 709.147 3.25059 1.54947 0
M  V30 7160 C 709 4.45898 0.591185 0
M  V30 7161 C 710.319 3.6203 2.50245 0
M  V30 7162 H 707.438 0.675973 0.293649 0
M  V30 7163 H 710.08 1.89849 0.0756269 0
M  V30 7164 H 708.23 3.21776 2.17698 0
M  V30 7165 H 709.902 4.61291 -0.0285352 0
M  V30 7166 H 708.145 4.33693 -0.0962343 0
M  V30 7167 H 708.816 5.40009 1.1443 0
M  V30 7168 H 711.292 3.66192 1.97593 0
M  V30 7169 H 710.168 4.60389 2.98886 0
M  V30 7170 H 710.429 2.90176 3.33542 0
M  V30 7171 N 709.488 -0.375779 1.53054 0
M  V30 7172 C 710.736 -1.11727 1.68409 0
M  V30 7173 C 711.057 -1.90127 0.43323 0
M  V30 7174 O 710.327 -1.87945 -0.552595 0
M  V30 7175 H 708.907 -0.415451 0.620813 0
M  V30 7176 H 711.569 -0.424869 1.90213 0
M  V30 7177 H 710.665 -1.8128 2.54055 0
M  V30 7178 N 710.966 -1.44241 -0.634997 0
M  V30 7179 C 712.196 -1.50078 -1.41987 0
M  V30 7180 C 712.604 -0.123072 -1.88799 0
M  V30 7181 O 711.947 0.880552 -1.6122 0
M  V30 7182 C 712.009 -2.40033 -2.67628 0
M  V30 7183 C 711.673 -3.87268 -2.42637 0
M  V30 7184 C 712.67 -4.77902 -2.04708 0
M  V30 7185 C 710.355 -4.31933 -2.56396 0
M  V30 7186 C 712.349 -6.11202 -1.80862 0
M  V30 7187 C 710.036 -5.65281 -2.32164 0
M  V30 7188 C 711.034 -6.54734 -1.94455 0
M  V30 7189 O 710.722 -7.85613 -1.7049 0
M  V30 7190 H 710.454 -0.51146 -0.442023 0
M  V30 7191 H 713.008 -1.89843 -0.784138 0
M  V30 7192 H 711.238 -1.95188 -3.33824 0
M  V30 7193 H 712.927 -2.36863 -3.29622 0
M  V30 7194 H 713.693 -4.44668 -1.93638 0
M  V30 7195 H 709.572 -3.62569 -2.84719 0
M  V30 7196 H 713.116 -6.80983 -1.51353 0
M  V30 7197 H 709.013 -5.98078 -2.42843 0
M  V30 7198 H 709.781 -7.97373 -1.84767 0
M  V30 7199 N 712.444 0.87505 -1.31075 0
M  V30 7200 C 713.669 1.66583 -1.23551 0
M  V30 7201 C 714.094 1.87067 0.19686 0
M  V30 7202 O 713.452 1.40877 1.1412 0
M  V30 7203 C 713.5 3.01401 -1.97965 0
M  V30 7204 O 712.604 3.90923 -1.31351 0
M  V30 7205 H 711.945 0.508645 -0.426821 0
M  V30 7206 H 714.475 1.09139 -1.7306 0
M  V30 7207 H 714.485 3.51374 -2.07366 0
M  V30 7208 H 713.16 2.85812 -3.02133 0
M  V30 7209 H 711.737 3.49369 -1.30368 0
M  V30 7210 N 713.922 1.13953 1.08869 0
M  V30 7211 C 714.852 0.844824 2.17681 0
M  V30 7212 C 715.833 -0.198213 1.68941 0
M  V30 7213 O 717.018 -0.0559073 1.9412 0
M  V30 7214 C 714.148 0.316325 3.45856 0
M  V30 7215 C 713.102 1.29426 4.07962 0
M  V30 7216 C 712.428 0.625275 5.31031 0
M  V30 7217 C 713.728 2.65484 4.49795 0
M  V30 7218 H 715.422 1.75471 2.42591 0
M  V30 7219 H 712.968 0.845116 1.16592 0
M  V30 7220 H 714.921 0.0977876 4.21287 0
M  V30 7221 H 713.645 -0.628972 3.20486 0
M  V30 7222 H 712.304 1.49889 3.34558 0
M  V30 7223 H 711.952 -0.325678 5.01945 0
M  V30 7224 H 711.652 1.27777 5.73539 0
M  V30 7225 H 713.176 0.416152 6.0918 0
M  V30 7226 H 714.59 2.48957 5.16424 0
M  V30 7227 H 712.987 3.26963 5.03205 0
M  V30 7228 H 714.057 3.22717 3.61914 0
M  V30 7229 N 715.4 -1.26948 0.933913 0
M  V30 7230 C 716.33 -2.29017 0.45534 0
M  V30 7231 C 717.311 -1.62961 -0.487605 0
M  V30 7232 O 718.496 -1.90223 -0.391022 0
M  V30 7233 C 715.626 -3.46112 -0.287015 0
M  V30 7234 C 714.58 -4.24205 0.568682 0
M  V30 7235 C 713.906 -5.3384 -0.303206 0
M  V30 7236 C 715.206 -4.88954 1.83633 0
M  V30 7237 H 716.9 -2.69298 1.30839 0
M  V30 7238 H 714.446 -1.29459 0.630579 0
M  V30 7239 H 716.399 -4.16622 -0.6328 0
M  V30 7240 H 715.123 -3.04765 -1.17414 0
M  V30 7241 H 713.782 -3.5545 0.897261 0
M  V30 7242 H 713.43 -4.88734 -1.18947 0
M  V30 7243 H 713.13 -5.86998 0.265879 0
M  V30 7244 H 714.654 -6.0719 -0.644423 0
M  V30 7245 H 716.068 -5.51717 1.55823 0
M  V30 7246 H 714.465 -5.52198 2.34941 0
M  V30 7247 H 715.535 -4.12305 2.55211 0
M  V30 7248 N 716.879 -0.700114 -1.41195 0
M  V30 7249 C 718.29 -0.307249 -1.84154 0
M  V30 7250 C 718.641 1.15539 -1.58572 0
M  V30 7251 O 717.766 1.88744 -1.05852 0
M  V30 7252 C 718.361 -0.550872 -3.34292 0
M  V30 7253 C 716.92 -0.211877 -3.75803 0
M  V30 7254 C 716.067 -0.830915 -2.64558 0
M  V30 7255 H 719.018 -0.900431 -1.30683 0
M  V30 7256 H 719.039 0.188954 -3.80031 0
M  V30 7257 H 718.551 -1.61548 -3.5288 0
M  V30 7258 H 716.652 0.848283 -3.62815 0
M  V30 7259 H 716.765 -0.67007 -4.74391 0
M  V30 7260 H 715.129 -0.260155 -2.53368 0
M  V30 7261 H 715.912 -1.89948 -2.85963 0
M  V30 7262 N 718.357 1.51182 -0.445186 0
M  V30 7263 C 719.287 2.30821 0.352686 0
M  V30 7264 C 720.268 1.36576 1.01395 0
M  V30 7265 O 721.453 1.65497 1.01609 0
M  V30 7266 C 718.583 3.15593 1.44976 0
M  V30 7267 C 717.537 4.1818 0.911553 0
M  V30 7268 C 716.863 4.91523 2.10497 0
M  V30 7269 C 718.163 5.22266 -0.059418 0
M  V30 7270 H 719.857 2.97771 -0.311936 0
M  V30 7271 H 717.403 1.43201 -0.151461 0
M  V30 7272 H 719.356 3.70091 2.01521 0
M  V30 7273 H 718.08 2.4648 2.14278 0
M  V30 7274 H 716.739 3.64746 0.368264 0
M  V30 7275 H 716.387 4.18906 2.78437 0
M  V30 7276 H 716.087 5.60898 1.7512 0
M  V30 7277 H 717.611 5.48847 2.6758 0
M  V30 7278 H 719.025 5.71789 0.415985 0
M  V30 7279 H 717.422 5.99213 -0.326152 0
M  V30 7280 H 718.492 4.7461 -0.993631 0
M  V30 7281 N 719.835 0.176821 1.56605 0
M  V30 7282 C 720.798 -0.737429 2.17013 0
M  V30 7283 C 721.798 -1.15414 1.11965 0
M  V30 7284 O 722.988 -1.0702 1.37449 0
M  V30 7285 C 720.12 -2.00445 2.75744 0
M  V30 7286 H 721.313 -0.211455 2.99154 0
M  V30 7287 H 718.866 -0.0727582 1.56131 0
M  V30 7288 H 719.601 -2.57338 1.97352 0
M  V30 7289 H 719.386 -1.71456 3.52626 0
M  V30 7290 H 720.876 -2.65679 3.22187 0
M  V30 7291 N 721.313 -1.57302 -0.09688 0
M  V30 7292 C 722.724 -1.7496 -0.651595 0
M  V30 7293 C 723.075 -0.798746 -1.79205 0
M  V30 7294 O 722.2 0.0231858 -2.16388 0
M  V30 7295 C 722.795 -3.17259 -1.18878 0
M  V30 7296 C 721.354 -3.36348 -1.68958 0
M  V30 7297 C 720.501 -2.70766 -0.598413 0
M  V30 7298 H 723.452 -1.58173 0.12918 0
M  V30 7299 H 723.473 -3.20033 -2.05814 0
M  V30 7300 H 722.985 -3.8644 -0.358523 0
M  V30 7301 H 721.086 -2.72243 -2.5439 0
M  V30 7302 H 721.199 -4.44654 -1.7838 0
M  V30 7303 H 719.563 -2.32615 -1.03743 0
M  V30 7304 H 720.346 -3.42586 0.221238 0
M  V30 7305 N 722.791 0.367657 -1.53252 0
M  V30 7306 C 724.037 1.11216 -1.69584 0
M  V30 7307 C 724.37 1.89026 -0.445269 0
M  V30 7308 O 723.645 1.86342 0.557404 0
M  V30 7309 C 723.928 2.07308 -2.94441 0
M  V30 7310 C 723.781 1.3312 -4.2965 0
M  V30 7311 C 725.1 3.07459 -3.14892 0
M  V30 7312 H 722.219 0.40294 -0.617096 0
M  V30 7313 H 724.861 0.393201 -1.85887 0
M  V30 7314 H 723.011 2.68617 -2.80673 0
M  V30 7315 H 724.683 0.746111 -4.55226 0
M  V30 7316 H 722.926 0.633051 -4.29156 0
M  V30 7317 H 723.597 2.03443 -5.13142 0
M  V30 7318 H 726.073 2.56252 -3.27832 0
M  V30 7319 H 724.949 3.71919 -4.03693 0
M  V30 7320 H 725.21 3.77514 -2.30077 0
M  V30 7321 N 724.269 1.44576 0.627338 0
M  V30 7322 C 725.517 1.47267 1.38408 0
M  V30 7323 C 725.838 0.107971 1.94701 0
M  V30 7324 O 725.108 -0.860206 1.76004 0
M  V30 7325 H 723.688 0.542276 0.513756 0
M  V30 7326 H 726.35 1.80383 0.738099 0
M  V30 7327 H 725.446 2.20025 2.21349 0
M  V30 7328 N 725.747 -0.868086 1.31537 0
M  V30 7329 C 726.995 -1.61807 1.21091 0
M  V30 7330 C 727.316 -1.93631 -0.230623 0
M  V30 7331 O 726.586 -1.5846 -1.15183 0
M  V30 7332 H 725.166 -0.599854 0.445178 0
M  V30 7333 H 727.828 -1.03915 1.64887 0
M  V30 7334 H 726.924 -2.56088 1.78396 0
M  V30 7335 N 727.225 -1.14528 -1.08264 0
M  V30 7336 C 728.474 -0.908992 -1.80056 0
M  V30 7337 C 728.787 0.565859 -1.87236 0
M  V30 7338 O 729.993 0.919454 -2.55457 0
M  V30 7339 C 728.449 -1.57681 -3.23519 0
M  V30 7340 C 728.057 -3.08803 -3.24569 0
M  V30 7341 C 729.801 -1.4217 -3.99985 0
M  V30 7342 C 727.708 -3.68414 -4.62629 0
M  V30 7343 H 726.638 -0.336432 -0.674781 0
M  V30 7344 H 729.289 -1.37437 -1.21587 0
M  V30 7345 H 727.671 -1.03911 -3.82124 0
M  V30 7346 H 728.845 -3.69252 -2.75663 0
M  V30 7347 H 727.16 -3.23968 -2.61598 0
M  V30 7348 H 729.757 -1.84106 -5.02005 0
M  V30 7349 H 730.1 -0.367989 -4.1467 0
M  V30 7350 H 730.633 -1.92984 -3.47853 0
M  V30 7351 H 727.372 -4.73644 -4.53147 0
M  V30 7352 H 726.892 -3.12746 -5.11811 0
M  V30 7353 H 728.571 -3.68793 -5.31602 0
M  V30 7354 N 728.703 1.26451 -0.940633 0
M  V30 7355 C 729.952 1.93071 -0.583656 0
M  V30 7356 C 730.265 1.74618 0.881366 0
M  V30 7357 O 731.471 2.35689 1.34769 0
M  V30 7358 C 729.927 3.45927 -0.993106 0
M  V30 7359 C 729.535 3.73115 -2.4797 0
M  V30 7360 C 731.279 4.18554 -0.707998 0
M  V30 7361 C 729.186 5.19408 -2.82788 0
M  V30 7362 H 728.116 0.722824 -0.214572 0
M  V30 7363 H 730.767 1.43538 -1.1432 0
M  V30 7364 H 729.149 3.94341 -0.362099 0
M  V30 7365 H 730.323 3.35408 -3.15971 0
M  V30 7366 H 728.638 3.13719 -2.73805 0
M  V30 7367 H 731.235 5.26293 -0.94447 0
M  V30 7368 H 731.578 4.14782 0.355225 0
M  V30 7369 H 732.111 3.76003 -1.2987 0
M  V30 7370 H 728.85 5.28281 -3.88071 0
M  V30 7371 H 728.37 5.58214 -2.19449 0
M  V30 7372 H 730.049 5.87407 -2.71224 0
M  V30 7373 N 730.181 0.707592 1.40822 0
M  V30 7374 C 731.429 0.243189 2.00632 0
M  V30 7375 C 731.75 -1.16512 1.56365 0
M  V30 7376 O 731.02 -1.78841 0.799553 0
M  V30 7377 H 729.6 0.0869203 0.741926 0
M  V30 7378 H 732.262 0.911438 1.72275 0
M  V30 7379 H 731.358 0.270014 3.1093 0
M  V30 7380 N 731.66 -1.50943 0.453197 0
M  V30 7381 C 732.906 -2.03153 -0.100277 0
M  V30 7382 C 733.261 -1.33032 -1.38997 0
M  V30 7383 O 732.554 -0.441423 -1.86446 0
M  V30 7384 C 732.748 -3.55603 -0.357944 0
M  V30 7385 C 732.577 -4.40495 0.905223 0
M  V30 7386 C 731.347 -4.84247 1.44337 0
M  V30 7387 C 733.545 -4.81931 1.79575 0
M  V30 7388 N 731.527 -5.53403 2.65742 0
M  V30 7389 C 732.898 -5.50314 2.85577 0
M  V30 7390 C 734.953 -4.63903 1.80828 0
M  V30 7391 C 733.656 -6.02581 3.92797 0
M  V30 7392 C 735.682 -5.17097 2.86993 0
M  V30 7393 C 735.044 -5.8544 3.91713 0
M  V30 7394 H 731.143 -0.781995 0.00287755 0
M  V30 7395 H 733.727 -1.84651 0.617411 0
M  V30 7396 H 731.898 -3.74087 -1.04467 0
M  V30 7397 H 733.63 -3.9447 -0.904175 0
M  V30 7398 H 730.385 -4.63029 0.995045 0
M  V30 7399 H 730.809 -5.92598 3.27348 0
M  V30 7400 H 735.451 -4.10512 1.0119 0
M  V30 7401 H 733.169 -6.55018 4.73262 0
M  V30 7402 H 736.755 -5.0499 2.88923 0
M  V30 7403 H 735.635 -6.25861 4.72512 0
M  V30 7404 N 733.138 -0.185124 -1.56509 0
M  V30 7405 C 734.071 0.77877 -2.145 0
M  V30 7406 C 735.049 1.21649 -1.07891 0
M  V30 7407 O 736.233 1.30579 -1.35946 0
M  V30 7408 C 733.36 2.05048 -2.69579 0
M  V30 7409 C 732.406 1.75569 -3.88687 0
M  V30 7410 S 733.239 0.912642 -5.27666 0
M  V30 7411 C 734.395 2.19471 -5.8616 0
M  V30 7412 H 734.628 0.285751 -2.95924 0
M  V30 7413 H 732.161 0.0297417 -1.54371 0
M  V30 7414 H 734.119 2.78085 -3.01958 0
M  V30 7415 H 732.78 2.51462 -1.88216 0
M  V30 7416 H 731.973 2.69962 -4.25601 0
M  V30 7417 H 731.575 1.10619 -3.57267 0
M  V30 7418 H 733.867 3.14815 -5.99915 0
M  V30 7419 H 734.81 1.87005 -6.8296 0
M  V30 7420 H 735.218 2.31862 -5.14685 0
M  V30 7421 N 734.616 1.57351 0.0885366 0
M  V30 7422 C 735.863 1.86419 0.790824 0
M  V30 7423 C 736.191 0.774561 1.78412 0
M  V30 7424 O 735.446 -0.23119 1.9433 0
M  V30 7425 C 735.745 3.22098 1.5488 0
M  V30 7426 C 735.411 4.4548 0.697025 0
M  V30 7427 C 734.073 4.78975 0.462237 0
M  V30 7428 C 736.425 5.21094 0.105315 0
M  V30 7429 C 733.753 5.85507 -0.374016 0
M  V30 7430 C 736.105 6.28509 -0.718298 0
M  V30 7431 C 734.769 6.60515 -0.963116 0
M  V30 7432 H 734.039 0.682157 0.289383 0
M  V30 7433 H 736.686 1.91429 0.0520961 0
M  V30 7434 H 734.991 3.12803 2.35927 0
M  V30 7435 H 736.688 3.41819 2.09669 0
M  V30 7436 H 733.278 4.19255 0.890137 0
M  V30 7437 H 737.462 4.95544 0.273856 0
M  V30 7438 H 732.718 6.08713 -0.572606 0
M  V30 7439 H 736.892 6.86268 -1.18362 0
M  V30 7440 H 734.519 7.42893 -1.6129 0
M  V30 7441 N 736.094 -0.359525 1.53444 0
M  V30 7442 C 737.057 -1.42357 1.7963 0
M  V30 7443 C 738.057 -1.46319 0.666884 0
M  V30 7444 O 739.247 -1.46974 0.935113 0
M  V30 7445 C 736.379 -2.81425 1.92387 0
M  V30 7446 H 737.572 -1.20409 2.74666 0
M  V30 7447 H 735.125 -0.593007 1.44614 0
M  V30 7448 H 735.86 -3.08679 0.994384 0
M  V30 7449 H 735.645 -2.79947 2.74539 0
M  V30 7450 H 737.135 -3.5847 2.14218 0
M  V30 7451 N 737.572 -1.44907 -0.619662 0
M  V30 7452 C 738.818 -1.48512 -1.38102 0
M  V30 7453 C 739.151 -0.121686 -1.93818 0
M  V30 7454 O 738.426 0.862256 -1.74343 0
M  V30 7455 C 738.709 -2.55469 -2.53787 0
M  V30 7456 C 738.562 -4.01212 -2.03345 0
M  V30 7457 C 739.881 -2.58821 -3.55949 0
M  V30 7458 H 737 -0.540712 -0.500799 0
M  V30 7459 H 739.642 -1.7665 -0.69962 0
M  V30 7460 H 737.792 -2.31606 -3.11915 0
M  V30 7461 H 739.464 -4.36245 -1.49959 0
M  V30 7462 H 737.707 -4.12443 -1.34438 0
M  V30 7463 H 738.378 -4.71717 -2.86683 0
M  V30 7464 H 740.854 -2.80172 -3.07641 0
M  V30 7465 H 739.73 -3.35542 -4.34399 0
M  V30 7466 H 739.991 -1.63451 -4.10775 0
M  V30 7467 N 739.05 0.861098 -1.31996 0
M  V30 7468 C 739.96 2.00154 -1.22374 0
M  V30 7469 C 740.976 1.73447 -0.138631 0
M  V30 7470 O 742.152 1.98191 -0.358104 0
M  V30 7471 C 739.217 3.33696 -0.940645 0
M  V30 7472 C 738.278 3.73668 -2.11355 0
M  V30 7473 C 737.511 5.00837 -1.84386 0
M  V30 7474 O 737.734 5.64996 -0.783287 0
M  V30 7475 O 736.668 5.37787 -2.70313 0
M  V30 7476 H 740.494 2.11207 -2.18233 0
M  V30 7477 H 738.079 0.990768 -1.11822 0
M  V30 7478 H 739.961 4.13756 -0.798987 0
M  V30 7479 H 738.636 3.23698 -0.0121636 0
M  V30 7480 H 737.543 2.94211 -2.31065 0
M  V30 7481 H 738.876 3.88303 -3.02459 0
M  V30 7482 N 740.528 1.15101 1.07655 0
M  V30 7483 C 741.46 0.802722 2.14684 0
M  V30 7484 C 742.473 -0.183874 1.61758 0
M  V30 7485 O 743.662 0.0389349 1.78458 0
M  V30 7486 C 740.762 0.172135 3.38463 0
M  V30 7487 C 739.935 1.19538 4.20749 0
M  V30 7488 C 738.994 0.58714 5.22914 0
M  V30 7489 O 738.02 1.25224 5.55255 0
M  V30 7490 N 739.222 -0.632566 5.77043 0
M  V30 7491 H 741.987 1.72379 2.45164 0
M  V30 7492 H 739.548 1.04647 1.23534 0
M  V30 7493 H 741.54 -0.247465 4.03943 0
M  V30 7494 H 740.11 -0.652214 3.0572 0
M  V30 7495 H 739.33 1.79165 3.51132 0
M  V30 7496 H 740.618 1.88636 4.7254 0
M  V30 7497 H 740.016 -1.19135 5.53013 0
M  V30 7498 H 738.573 -0.994566 6.44167 0
M  V30 7499 N 742.006 -1.2595 0.947325 0
M  V30 7500 C 743.283 -1.88676 0.515824 0
M  V30 7501 C 743.663 -1.85547 -1.00675 0
M  V30 7502 O 743.011 -1.31399 -1.8694 0
M  V30 7503 C 743.221 -3.31734 1.08415 0
M  V30 7504 C 744.569 -4.08545 1.15654 0
M  V30 7505 O 745.593 -3.40826 1.03517 0
M  V30 7506 O 744.452 -5.29663 1.34608 0
M  V30 7507 H 741.546 -0.809537 0.169055 0
M  V30 7508 H 744.092 -1.34075 1.04029 0
M  V30 7509 H 742.864 -3.28404 2.1276 0
M  V30 7510 H 742.487 -3.93882 0.542499 0
M  V30 7511 N 743.484 -0.715051 -1.40445 0
M  V30 7512 C 744.732 -0.253826 -2.005 0
M  V30 7513 C 745.053 1.15681 -1.5698 0
M  V30 7514 O 744.323 1.78414 -0.809027 0
M  V30 7515 H 742.903 -0.0908537 -0.741454 0
M  V30 7516 H 745.565 -0.920561 -1.7179 0
M  V30 7517 H 744.661 -0.286499 -3.10782 0
M  V30 7518 N 744.962 1.50701 -0.461195 0
M  V30 7519 C 746.209 2.02267 0.0971971 0
M  V30 7520 C 746.537 1.34387 1.40608 0
M  V30 7521 O 745.792 0.455254 1.90331 0
M  V30 7522 C 746.091 3.55788 0.33908 0
M  V30 7523 C 745.757 4.42092 -0.886885 0
M  V30 7524 C 744.419 4.65398 -1.22304 0
M  V30 7525 C 746.771 4.92571 -1.70361 0
M  V30 7526 C 744.099 5.36429 -2.37616 0
M  V30 7527 C 746.451 5.64868 -2.84793 0
M  V30 7528 C 745.115 5.86431 -3.18834 0
M  V30 7529 H 744.385 0.740146 0.0355669 0
M  V30 7530 H 747.032 1.81415 -0.61326 0
M  V30 7531 H 745.337 3.751 1.13168 0
M  V30 7532 H 747.034 3.93243 0.784937 0
M  V30 7533 H 743.624 4.24165 -0.614981 0
M  V30 7534 H 747.808 4.74428 -1.4571 0
M  V30 7535 H 743.064 5.51333 -2.64276 0
M  V30 7536 H 747.238 6.02966 -3.48432 0
M  V30 7537 H 744.865 6.41248 -4.08296 0
M  V30 7538 N 746.441 0.193421 1.56409 0
M  V30 7539 C 747.388 -0.728124 2.19014 0
M  V30 7540 C 748.358 -1.21098 1.13686 0
M  V30 7541 O 749.543 -1.27517 1.4193 0
M  V30 7542 C 746.683 -1.94277 2.8522 0
M  V30 7543 C 745.796 -1.50143 4.05069 0
M  V30 7544 C 744.931 -2.67145 4.59137 0
M  V30 7545 C 743.97 -2.19609 5.71348 0
M  V30 7546 N 743.107 -3.29782 6.19829 0
M  V30 7547 H 747.947 -0.187499 2.9741 0
M  V30 7548 H 745.484 -0.0808064 1.46878 0
M  V30 7549 H 747.442 -2.65551 3.21774 0
M  V30 7550 H 746.072 -2.45673 2.09391 0
M  V30 7551 H 745.124 -0.684624 3.74189 0
M  V30 7552 H 746.436 -1.11266 4.86232 0
M  V30 7553 H 745.59 -3.46544 4.97988 0
M  V30 7554 H 744.329 -3.09295 3.77078 0
M  V30 7555 H 743.334 -1.38664 5.32027 0
M  V30 7556 H 744.559 -1.78492 6.55223 0
M  V30 7557 H 742.505 -3.71466 5.40693 0
M  V30 7558 H 742.422 -2.95069 6.96039 0
M  V30 7559 H 743.69 -4.094 6.63334 0
M  V30 7560 N 747.919 -1.57396 -0.0801906 0
M  V30 7561 C 748.867 -2.04136 -1.11495 0
M  V30 7562 C 749.861 -0.945137 -1.40583 0
M  V30 7563 O 751.067 -1.13028 -1.40088 0
M  V30 7564 H 747.442 -0.65076 -0.37685 0
M  V30 7565 H 749.413 -2.90205 -0.694526 0
M  V30 7566 C 748.162 -2.49399 -2.42272 0
M  V30 7567 H 747.485 -3.33339 -2.20737 0
M  V30 7568 H 748.925 -2.85864 -3.13142 0
M  V30 7569 C 747.384 -1.37341 -3.07635 0
M  V30 7570 O 747.914 -0.710829 -3.95361 0
M  V30 7571 N 746.12 -1.12064 -2.68123 0
M  V30 7572 H 745.667 -1.66126 -1.96875 0
M  V30 7573 H 745.625 -0.372916 -3.12181 0
M  V30 7574 N 749.397 0.351382 -1.53633 0
M  V30 7575 C 750.645 1.09034 -1.70165 0
M  V30 7576 C 750.966 1.89413 -0.463422 0
M  V30 7577 O 750.236 1.888 0.522624 0
M  V30 7578 H 748.816 0.405522 -0.627344 0
M  V30 7579 H 751.478 0.394554 -1.90865 0
M  V30 7580 H 750.574 1.77215 -2.56907 0
M  V30 7581 N 750.875 1.45233 0.611969 0
M  V30 7582 C 752.122 1.49021 1.37109 0
M  V30 7583 C 752.45 0.130227 1.94064 0
M  V30 7584 O 751.705 -0.870551 1.75271 0
M  V30 7585 C 752.004 2.51353 2.54079 0
M  V30 7586 C 751.67 3.96178 2.15299 0
M  V30 7587 C 750.332 4.35614 2.04436 0
M  V30 7588 C 752.684 4.87275 1.84966 0
M  V30 7589 C 750.012 5.64047 1.61456 0
M  V30 7590 C 752.364 6.16115 1.43474 0
M  V30 7591 C 751.028 6.54486 1.31167 0
M  V30 7592 H 750.298 0.545307 0.501719 0
M  V30 7593 H 752.945 1.78555 0.692122 0
M  V30 7594 H 751.25 2.15372 3.27295 0
M  V30 7595 H 752.947 2.51523 3.12309 0
M  V30 7596 H 749.537 3.6499 2.24678 0
M  V30 7597 H 753.721 4.57548 1.92258 0
M  V30 7598 H 748.977 5.92575 1.50547 0
M  V30 7599 H 753.151 6.86149 1.19048 0
M  V30 7600 H 750.778 7.53904 0.97637 0
M  V30 7601 N 752.353 -0.854086 1.3245 0
M  V30 7602 C 753.578 -1.64597 1.26185 0
M  V30 7603 C 754.003 -1.87357 -0.167074 0
M  V30 7604 O 753.361 -1.42675 -1.11864 0
M  V30 7605 C 753.409 -2.98213 2.02734 0
M  V30 7606 O 752.513 -3.88784 1.37554 0
M  V30 7607 H 751.854 -0.50179 0.434859 0
M  V30 7608 H 754.384 -1.06372 1.74775 0
M  V30 7609 H 754.394 -3.4803 2.1293 0
M  V30 7610 H 753.069 -2.80969 3.06642 0
M  V30 7611 H 751.646 -3.4725 1.3591 0
M  V30 7612 N 753.831 -1.1567 -1.07043 0
M  V30 7613 C 755.08 -0.928039 -1.79082 0
M  V30 7614 C 755.393 0.545968 -1.87826 0
M  V30 7615 O 756.599 0.892308 -2.56418 0
M  V30 7616 C 755.055 -1.61103 -3.21829 0
M  V30 7617 C 754.663 -3.12228 -3.21275 0
M  V30 7618 C 756.407 -1.46404 -3.98455 0
M  V30 7619 C 754.314 -3.733 -4.58695 0
M  V30 7620 H 753.244 -0.34357 -0.671175 0
M  V30 7621 H 755.895 -1.38718 -1.20123 0
M  V30 7622 H 754.277 -1.07958 -3.81 0
M  V30 7623 H 755.451 -3.72155 -2.71731 0
M  V30 7624 H 753.766 -3.26725 -2.58147 0
M  V30 7625 H 756.363 -1.8942 -5.00024 0
M  V30 7626 H 756.706 -0.41195 -4.14257 0
M  V30 7627 H 757.239 -1.96663 -3.45787 0
M  V30 7628 H 753.978 -4.78423 -4.48098 0
M  V30 7629 H 753.498 -3.18157 -5.08465 0
M  V30 7630 H 755.177 -3.7441 -5.27661 0
M  V30 7631 N 755.309 1.25446 -0.953992 0
M  V30 7632 C 756.537 1.97215 -0.625595 0
M  V30 7633 C 756.952 1.70911 0.802168 0
M  V30 7634 O 756.309 0.984782 1.5365 0
M  V30 7635 C 756.36 3.50777 -0.873943 0
M  V30 7636 O 756.081 3.76173 -2.24556 0
M  V30 7637 C 757.582 4.39776 -0.557845 0
M  V30 7638 H 754.802 0.628652 -0.2346 0
M  V30 7639 H 757.346 1.59632 -1.27819 0
M  V30 7640 H 755.501 3.86474 -0.267765 0
M  V30 7641 H 755.915 4.70636 -2.31522 0
M  V30 7642 H 757.389 5.46431 -0.782157 0
M  V30 7643 H 757.866 4.36257 0.507573 0
M  V30 7644 H 758.472 4.09644 -1.14332 0
M  V30 7645 N 756.787 0.722489 1.40064 0
M  V30 7646 C 758.035 0.264455 2.00362 0
M  V30 7647 C 758.356 -1.14847 1.57592 0
M  V30 7648 O 757.626 -1.77982 0.818477 0
M  V30 7649 H 756.206 0.0947846 0.740962 0
M  V30 7650 H 758.868 0.929659 1.71299 0
M  V30 7651 H 757.964 0.302977 3.10626 0
M  V30 7652 N 758.265 -1.50454 0.469181 0
M  V30 7653 C 759.513 -2.01916 -0.0862982 0
M  V30 7654 C 759.834 -1.35337 -1.40388 0
M  V30 7655 O 759.104 -0.498096 -1.89462 0
M  V30 7656 H 757.684 -0.746185 -0.0348825 0
M  V30 7657 H 760.346 -1.84804 0.619167 0
M  V30 7658 H 759.442 -3.11182 -0.239189 0
M  V30 7659 N 759.743 -0.201713 -1.56304 0
M  V30 7660 C 760.653 0.728296 -2.23009 0
M  V30 7661 C 761.669 1.22945 -1.23128 0
M  V30 7662 O 762.845 1.27523 -1.55884 0
M  V30 7663 C 759.91 1.92792 -2.88153 0
M  V30 7664 C 758.971 1.47068 -4.03323 0
M  V30 7665 C 758.204 2.61312 -4.65351 0
M  V30 7666 O 758.427 3.7896 -4.26317 0
M  V30 7667 O 757.361 2.33646 -5.54701 0
M  V30 7668 H 761.187 0.190166 -3.03104 0
M  V30 7669 H 758.772 0.0278725 -1.49374 0
M  V30 7670 H 760.654 2.6289 -3.29343 0
M  V30 7671 H 759.329 2.45452 -2.11033 0
M  V30 7672 H 758.236 0.738299 -3.66742 0
M  V30 7673 H 759.569 0.990666 -4.82127 0
M  V30 7674 N 761.222 1.57436 0.0718424 0
M  V30 7675 C 762.469 1.87248 0.771007 0
M  V30 7676 C 762.797 0.793441 1.7758 0
M  V30 7677 O 762.052 -0.210565 1.94564 0
M  V30 7678 C 762.351 3.23723 1.51455 0
M  V30 7679 C 762.017 4.46194 0.649736 0
M  V30 7680 C 760.679 4.79438 0.411409 0
M  V30 7681 C 763.031 5.21176 0.05004 0
M  V30 7682 C 760.359 5.85077 -0.436096 0
M  V30 7683 C 762.711 6.27712 -0.784919 0
M  V30 7684 C 761.375 6.59457 -1.03312 0
M  V30 7685 H 760.645 0.685188 0.282132 0
M  V30 7686 H 763.292 1.91474 0.0317896 0
M  V30 7687 H 761.597 3.15287 2.32597 0
M  V30 7688 H 763.294 3.44023 2.06031 0
M  V30 7689 H 759.884 4.20175 0.84562 0
M  V30 7690 H 764.068 4.95806 0.221282 0
M  V30 7691 H 759.324 6.08071 -0.637136 0
M  V30 7692 H 763.498 6.84974 -1.25635 0
M  V30 7693 H 761.125 7.4114 -1.6916 0
M  V30 7694 N 762.7 -0.34323 1.53817 0
M  V30 7695 C 763.928 -1.10348 1.75017 0
M  V30 7696 C 764.343 -1.82345 0.489475 0
M  V30 7697 O 763.7 -1.74362 -0.538886 0
M  V30 7698 C 763.751 -2.11672 2.93048 0
M  V30 7699 O 763.472 -1.42603 4.14241 0
M  V30 7700 C 764.973 -3.0007 3.26301 0
M  V30 7701 H 762.193 -0.329056 0.584776 0
M  V30 7702 H 764.737 -0.395339 2.00642 0
M  V30 7703 H 762.892 -2.78051 2.69753 0
M  V30 7704 H 763.306 -2.10294 4.80496 0
M  V30 7705 H 764.78 -3.67101 4.12239 0
M  V30 7706 H 765.257 -3.66105 2.42618 0
M  V30 7707 H 765.863 -2.3928 3.51604 0
M  V30 7708 N 764.178 -1.45556 -0.604258 0
M  V30 7709 C 765.594 -1.30035 -0.925368 0
M  V30 7710 C 765.794 -0.255833 -1.99869 0
M  V30 7711 O 764.85 0.349076 -2.50075 0
M  V30 7712 C 766.163 -2.68028 -1.36314 0
M  V30 7713 C 767.711 -2.75951 -1.47717 0
M  V30 7714 C 768.186 -4.14476 -1.94868 0
M  V30 7715 N 769.677 -4.16787 -2.02097 0
M  V30 7716 C 770.412 -5.20845 -2.39809 0
M  V30 7717 N 769.908 -6.35246 -2.76467 0
M  V30 7718 N 771.701 -5.08204 -2.40177 0
M  V30 7719 H 763.852 -2.1214 0.10512 0
M  V30 7720 H 766.115 -0.947871 -0.0156303 0
M  V30 7721 H 765.821 -3.45667 -0.648628 0
M  V30 7722 H 765.695 -2.96711 -2.329 0
M  V30 7723 H 768.082 -1.98613 -2.18258 0
M  V30 7724 H 768.163 -2.50977 -0.494371 0
M  V30 7725 H 767.807 -4.923 -1.24912 0
M  V30 7726 H 767.737 -4.36843 -2.94068 0
M  V30 7727 H 770.228 -3.34233 -1.76343 0
M  V30 7728 H 770.541 -7.10438 -3.04134 0
M  V30 7729 H 768.886 -6.38642 -2.74155 0
M  V30 7730 H 772.077 -4.17874 -2.10947 0
M  V30 7731 H 772.25 -5.89417 -2.69242 0
M  V30 7732 N 765.656 0.84705 -1.32902 0
M  V30 7733 C 766.588 1.96308 -1.18304 0
M  V30 7734 C 767.601 1.62386 -0.116082 0
M  V30 7735 O 768.79 1.74713 -0.365751 0
M  V30 7736 C 765.89 3.29556 -0.790305 0
M  V30 7737 C 765.063 3.91668 -1.94717 0
M  V30 7738 C 764.122 5.0326 -1.53674 0
M  V30 7739 O 763.148 5.22847 -2.24989 0
M  V30 7740 N 764.35 5.78852 -0.437075 0
M  V30 7741 H 767.115 2.09369 -2.14441 0
M  V30 7742 H 764.676 1.02233 -1.25539 0
M  V30 7743 H 766.668 4.01624 -0.49799 0
M  V30 7744 H 765.238 3.12497 0.0801286 0
M  V30 7745 H 764.458 3.12292 -2.40557 0
M  V30 7746 H 765.746 4.299 -2.72146 0
M  V30 7747 H 765.144 5.65484 0.156316 0
M  V30 7748 H 763.701 6.51479 -0.204399 0
M  V30 7749 N 767.134 1.16236 1.06428 0
M  V30 7750 C 768.097 0.870163 2.1204 0
M  V30 7751 C 769.097 -0.134239 1.60239 0
M  V30 7752 O 770.287 0.0964932 1.73933 0
M  V30 7753 C 767.419 0.301033 3.39568 0
M  V30 7754 H 768.612 1.8064 2.39394 0
M  V30 7755 H 766.165 0.971116 1.2247 0
M  V30 7756 H 766.9 -0.642948 3.17863 0
M  V30 7757 H 766.685 1.02475 3.78472 0
M  V30 7758 H 768.175 0.114494 4.17443 0
M  V30 7759 N 768.612 -1.24939 0.960631 0
M  V30 7760 C 769.522 -2.29374 0.492435 0
M  V30 7761 C 770.538 -1.68262 -0.443154 0
M  V30 7762 O 771.714 -1.98875 -0.31793 0
M  V30 7763 C 768.779 -3.46023 -0.216626 0
M  V30 7764 C 767.84 -4.22557 0.757915 0
M  V30 7765 C 767.073 -5.33636 0.0825969 0
M  V30 7766 O 767.296 -5.59084 -1.13054 0
M  V30 7767 O 766.23 -5.96939 0.771177 0
M  V30 7768 H 770.056 -2.71525 1.36044 0
M  V30 7769 H 767.641 -1.30499 0.72735 0
M  V30 7770 H 769.523 -4.16885 -0.615241 0
M  V30 7771 H 768.198 -3.05862 -1.05971 0
M  V30 7772 H 767.105 -3.54099 1.20685 0
M  V30 7773 H 768.438 -4.66516 1.5692 0
M  V30 7774 N 770.09 -0.729906 -1.39679 0
M  V30 7775 C 771.336 -0.27603 -2.00913 0
M  V30 7776 C 771.669 1.13227 -1.57776 0
M  V30 7777 O 770.944 1.7709 -0.804319 0
M  V30 7778 C 771.227 -0.372157 -3.58172 0
M  V30 7779 C 771.08 -1.81986 -4.11341 0
M  V30 7780 C 772.399 0.248378 -4.39399 0
M  V30 7781 H 769.518 -0.101773 -0.729939 0
M  V30 7782 H 772.16 -0.925104 -1.65957 0
M  V30 7783 H 770.31 0.180459 -3.88081 0
M  V30 7784 H 771.982 -2.42896 -3.92172 0
M  V30 7785 H 770.225 -2.34287 -3.65092 0
M  V30 7786 H 770.896 -1.83842 -5.20486 0
M  V30 7787 H 773.372 -0.222645 -4.15504 0
M  V30 7788 H 772.248 0.150746 -5.48693 0
M  V30 7789 H 772.509 1.33378 -4.21501 0
M  V30 7790 N 771.568 1.50203 -0.477153 0
M  V30 7791 C 772.796 2.0677 0.0732489 0
M  V30 7792 C 773.211 1.34033 1.32968 0
M  V30 7793 O 772.568 0.411412 1.77802 0
M  V30 7794 C 772.619 3.59751 0.35518 0
M  V30 7795 O 772.34 4.29747 -0.851425 0
M  V30 7796 C 773.841 4.3296 0.951877 0
M  V30 7797 H 771.061 0.670929 -0.00978923 0
M  V30 7798 H 773.605 1.93293 -0.667676 0
M  V30 7799 H 771.76 3.7301 1.04605 0
M  V30 7800 H 772.174 5.2106 -0.599708 0
M  V30 7801 H 773.648 5.40952 1.09888 0
M  V30 7802 H 774.125 3.93856 1.94356 0
M  V30 7803 H 774.731 4.24246 0.299208 0
M  V30 7804 N 773.046 0.209999 1.56195 0
M  V30 7805 C 774.293 -0.424813 1.97994 0
M  V30 7806 C 774.621 -1.60589 1.09733 0
M  V30 7807 O 773.876 -1.95201 0.139693 0
M  V30 7808 C 774.175 -0.91312 3.45539 0
M  V30 7809 C 773.841 0.156187 4.50629 0
M  V30 7810 C 772.503 0.449966 4.79092 0
M  V30 7811 C 774.855 0.879959 5.13718 0
M  V30 7812 C 772.183 1.47223 5.67928 0
M  V30 7813 C 774.535 1.89148 6.0366 0
M  V30 7814 C 773.199 2.1923 6.30472 0
M  V30 7815 H 772.469 -0.15545 0.724511 0
M  V30 7816 H 775.116 0.310095 1.88973 0
M  V30 7817 H 773.421 -1.72658 3.51705 0
M  V30 7818 H 775.118 -1.41395 3.75245 0
M  V30 7819 H 771.708 -0.0829466 4.2852 0
M  V30 7820 H 775.892 0.66623 4.91808 0
M  V30 7821 H 771.148 1.71105 5.86969 0
M  V30 7822 H 775.322 2.45745 6.516 0
M  V30 7823 H 772.949 2.98587 6.99107 0
M  V30 7824 N 774.524 -1.57472 -0.0634922 0
M  V30 7825 C 775.77 -1.87932 -0.762194 0
M  V30 7826 C 776.103 -0.803377 -1.76804 0
M  V30 7827 O 775.378 0.185468 -1.93614 0
M  V30 7828 C 775.661 -3.29053 -1.46275 0
M  V30 7829 C 775.514 -4.47309 -0.472755 0
M  V30 7830 C 776.833 -3.68537 -2.40558 0
M  V30 7831 H 773.952 -0.683521 -0.275624 0
M  V30 7832 H 776.594 -1.89983 -0.0252651 0
M  V30 7833 H 774.744 -3.27435 -2.0909 0
M  V30 7834 H 776.416 -4.61053 0.150828 0
M  V30 7835 H 774.659 -4.33286 0.211187 0
M  V30 7836 H 775.33 -5.42853 -1.00072 0
M  V30 7837 H 777.806 -3.71302 -1.87814 0
M  V30 7838 H 776.682 -4.68152 -2.86574 0
M  V30 7839 H 776.943 -2.98917 -3.25731 0
M  V30 7840 N 776.003 0.335068 -1.53997 0
M  V30 7841 C 777.251 1.07223 -1.71312 0
M  V30 7842 C 777.572 1.88911 -0.483486 0
M  V30 7843 O 776.842 1.89344 0.50257 0
M  V30 7844 H 775.422 0.398846 -0.63161 0
M  V30 7845 H 778.084 0.374288 -1.91272 0
M  V30 7846 H 777.18 1.7448 -2.58772 0
M  V30 7847 N 777.481 1.45874 0.596531 0
M  V30 7848 C 778.431 1.5181 1.70111 0
M  V30 7849 C 779.415 0.380293 1.56341 0
M  V30 7850 O 780.607 0.627849 1.6549 0
M  V30 7851 C 777.736 1.49822 3.08883 0
M  V30 7852 C 776.822 2.68845 3.27998 0
M  V30 7853 N 777.213 3.93873 3.17329 0
M  V30 7854 C 775.511 2.64777 3.589 0
M  V30 7855 C 776.212 4.73371 3.38076 0
M  V30 7856 N 775.188 4.0501 3.62585 0
M  V30 7857 H 778.99 2.46289 1.60372 0
M  V30 7858 H 776.504 1.41321 0.800138 0
M  V30 7859 H 778.501 1.5216 3.8814 0
M  V30 7860 H 777.161 0.564086 3.19763 0
M  V30 7861 H 778.172 4.25329 2.95492 0
M  V30 7862 H 774.849 1.80323 3.7655 0
M  V30 7863 H 776.239 5.82357 3.35127 0
M  V30 7864 N 778.959 -0.83999 1.33349 0
M  V30 7865 C 780.37 -1.41139 1.22216 0
M  V30 7866 C 780.721 -1.95551 -0.159398 0
M  V30 7867 O 779.846 -1.88721 -1.05893 0
M  V30 7868 C 780.441 -2.56564 2.21269 0
M  V30 7869 C 779 -3.09661 2.13979 0
M  V30 7870 C 778.147 -1.82457 2.08818 0
M  V30 7871 H 781.098 -0.645853 1.44964 0
M  V30 7872 H 781.119 -3.34163 1.81976 0
M  V30 7873 H 780.631 -2.16932 3.21811 0
M  V30 7874 H 778.732 -3.53841 1.16736 0
M  V30 7875 H 778.845 -3.6991 3.04472 0
M  V30 7876 H 777.209 -2.0266 1.54276 0
M  V30 7877 H 777.992 -1.45022 3.11165 0
M  V30 7878 N 780.437 -1.16799 -1.0581 0
M  V30 7879 C 781.685 -0.950642 -1.78346 0
M  V30 7880 C 782.006 0.522524 -1.87869 0
M  V30 7881 O 781.276 1.3795 -1.39092 0
M  V30 7882 H 779.856 -0.348736 -0.6606 0
M  V30 7883 H 782.518 -1.47158 -1.27791 0
M  V30 7884 H 781.614 -1.37359 -2.80248 0
M  V30 7885 N 781.915 1.24427 -0.967243 0
M  V30 7886 C 782.863 2.27403 -0.488927 0
M  V30 7887 C 783.857 1.63388 0.447302 0
M  V30 7888 O 785.063 1.77085 0.322643 0
M  V30 7889 H 781.438 0.738921 -0.139643 0
M  V30 7890 H 783.409 2.65122 -1.36942 0
M  V30 7891 C 782.158 3.4709 0.205787 0
M  V30 7892 H 781.481 3.96591 -0.50551 0
M  V30 7893 H 782.921 4.2099 0.504296 0
M  V30 7894 C 781.38 3.04923 1.43261 0
M  V30 7895 O 781.91 3.12043 2.52967 0
M  V30 7896 N 780.116 2.59976 1.29849 0
M  V30 7897 H 779.663 2.54382 0.405876 0
M  V30 7898 H 779.621 2.32128 2.12047 0
M  V30 7899 N 783.393 0.737304 1.3929 0
M  V30 7900 C 784.323 0.113988 2.33222 0
M  V30 7901 C 785.304 -0.721695 1.54031 0
M  V30 7902 O 786.489 -0.666206 1.82415 0
M  V30 7903 C 783.619 -0.792319 3.38141 0
M  V30 7904 C 782.573 -0.0606178 4.27957 0
M  V30 7905 C 781.899 -1.08409 5.23595 0
M  V30 7906 C 783.199 1.09817 5.10625 0
M  V30 7907 H 784.893 0.898611 2.85596 0
M  V30 7908 H 782.439 0.433571 1.37318 0
M  V30 7909 H 784.392 -1.23793 4.02807 0
M  V30 7910 H 783.116 -1.60908 2.84211 0
M  V30 7911 H 781.775 0.365393 3.64775 0
M  V30 7912 H 781.423 -1.89449 4.6596 0
M  V30 7913 H 781.123 -0.599269 5.84536 0
M  V30 7914 H 782.647 -1.52936 5.91137 0
M  V30 7915 H 784.061 0.730892 5.68622 0
M  V30 7916 H 782.458 1.51278 5.80719 0
M  V30 7917 H 783.528 1.91878 4.45321 0
M  V30 7918 N 784.871 -1.49948 0.485112 0
M  V30 7919 C 786.117 -2.02695 -0.0651022 0
M  V30 7920 C 786.45 -1.36534 -1.38102 0
M  V30 7921 O 785.725 -0.495677 -1.88078 0
M  V30 7922 C 786.008 -3.59337 -0.234285 0
M  V30 7923 C 785.861 -4.3605 1.10364 0
M  V30 7924 C 787.18 -4.28996 -0.982351 0
M  V30 7925 H 784.299 -0.736666 -0.0221856 0
M  V30 7926 H 786.941 -1.7913 0.633433 0
M  V30 7927 H 785.091 -3.79546 -0.829262 0
M  V30 7928 H 786.763 -4.27377 1.73627 0
M  V30 7929 H 785.006 -3.99236 1.69686 0
M  V30 7930 H 785.677 -5.43959 0.938743 0
M  V30 7931 H 788.153 -4.13346 -0.477904 0
M  V30 7932 H 787.029 -5.38379 -1.06955 0
M  V30 7933 H 787.29 -3.93135 -2.02231 0
M  V30 7934 N 786.349 -0.21828 -1.56081 0
M  V30 7935 C 787.598 0.414644 -1.97392 0
M  V30 7936 C 787.911 1.61132 -1.10887 0
M  V30 7937 O 789.117 2.31355 -1.42082 0
M  V30 7938 C 787.573 0.789099 -3.51143 0
M  V30 7939 C 787.181 -0.384578 -4.46346 0
M  V30 7940 C 788.925 1.38781 -4.01173 0
M  V30 7941 C 786.832 0.0121288 -5.91399 0
M  V30 7942 H 785.762 0.158691 -0.737111 0
M  V30 7943 H 788.413 -0.313974 -1.80794 0
M  V30 7944 H 786.795 1.57505 -3.6333 0
M  V30 7945 H 787.969 -1.16212 -4.45905 0
M  V30 7946 H 786.284 -0.896306 -4.06639 0
M  V30 7947 H 788.881 1.69746 -5.07041 0
M  V30 7948 H 789.224 2.30245 -3.46833 0
M  V30 7949 H 789.757 0.665364 -3.92196 0
M  V30 7950 H 786.496 -0.868917 -6.49715 0
M  V30 7951 H 786.016 0.754053 -5.95041 0
M  V30 7952 H 787.695 0.439949 -6.45502 0
M  V30 7953 N 787.827 1.57504 0.0551401 0
M  V30 7954 C 788.774 2.04825 1.06373 0
M  V30 7955 C 789.744 0.932108 1.37481 0
M  V30 7956 O 790.929 1.20093 1.48265 0
M  V30 7957 C 788.069 2.51091 2.36743 0
M  V30 7958 C 787.182 3.76392 2.12021 0
M  V30 7959 C 786.317 4.11373 3.36074 0
M  V30 7960 C 785.356 5.29666 3.0679 0
M  V30 7961 N 784.493 5.60205 4.2322 0
M  V30 7962 H 789.333 2.90753 0.653216 0
M  V30 7963 H 786.87 1.43776 0.310951 0
M  V30 7964 H 788.828 2.75973 3.12881 0
M  V30 7965 H 787.458 1.68118 2.75565 0
M  V30 7966 H 786.51 3.58751 1.26498 0
M  V30 7967 H 787.822 4.62662 1.86401 0
M  V30 7968 H 786.976 4.37245 4.20597 0
M  V30 7969 H 785.715 3.23704 3.64784 0
M  V30 7970 H 784.72 5.03574 2.20664 0
M  V30 7971 H 785.945 6.18968 2.79385 0
M  V30 7972 H 783.891 4.75495 4.5193 0
M  V30 7973 H 783.808 6.40928 4.00933 0
M  V30 7974 H 785.076 5.90637 5.08692 0
M  V30 7975 N 789.305 -0.326896 1.54172 0
M  V30 7976 C 790.237 -1.42319 1.79661 0
M  V30 7977 C 791.25 -1.47989 0.678456 0
M  V30 7978 O 792.439 -1.50773 0.955503 0
M  V30 7979 C 789.539 -2.80876 1.89636 0
M  V30 7980 C 788.712 -2.98449 3.19761 0
M  V30 7981 C 787.771 -4.17347 3.2048 0
M  V30 7982 O 786.797 -4.10667 3.94134 0
M  V30 7983 N 787.999 -5.26717 2.44027 0
M  V30 7984 H 790.764 -1.20819 2.74268 0
M  V30 7985 H 788.325 -0.516866 1.53428 0
M  V30 7986 H 790.317 -3.58619 1.87549 0
M  V30 7987 H 788.887 -2.95442 1.02141 0
M  V30 7988 H 788.107 -2.08035 3.34836 0
M  V30 7989 H 789.395 -3.07083 4.05681 0
M  V30 7990 H 788.793 -5.35019 1.8377 0
M  V30 7991 H 787.35 -6.02891 2.47721 0
M  V30 7992 N 790.784 -1.46188 -0.588786 0
M  V30 7993 C 792.2 -1.31009 -0.911524 0
M  V30 7994 C 792.4 -0.277017 -1.99587 0
M  V30 7995 O 791.456 0.322532 -2.50432 0
M  V30 7996 C 792.769 -2.69459 -1.33463 0
M  V30 7997 C 794.317 -2.77502 -1.44782 0
M  V30 7998 C 794.792 -4.1652 -1.90461 0
M  V30 7999 N 796.283 -4.18907 -1.97665 0
M  V30 8000 C 797.018 -5.23359 -2.34271 0
M  V30 8001 N 796.514 -6.38143 -2.69714 0
M  V30 8002 N 798.307 -5.10723 -2.34774 0
M  V30 8003 H 790.458 -2.12016 0.127614 0
M  V30 8004 H 792.721 -0.947984 -0.00557599 0
M  V30 8005 H 792.427 -3.46336 -0.611929 0
M  V30 8006 H 792.301 -2.99165 -2.2974 0
M  V30 8007 H 794.688 -2.00917 -2.1614 0
M  V30 8008 H 794.769 -2.51488 -0.467724 0
M  V30 8009 H 794.413 -4.93597 -1.19684 0
M  V30 8010 H 794.343 -4.39937 -2.89418 0
M  V30 8011 H 796.834 -3.36084 -1.72789 0
M  V30 8012 H 797.147 -7.13624 -2.96582 0
M  V30 8013 H 795.492 -6.41514 -2.67366 0
M  V30 8014 H 798.683 -4.20088 -2.06503 0
M  V30 8015 H 798.856 -5.9224 -2.62975 0
M  V30 8016 N 792.262 0.832906 -1.33792 0
M  V30 8017 C 793.509 1.58853 -1.25586 0
M  V30 8018 C 793.837 1.93695 0.176807 0
M  V30 8019 O 793.092 1.59386 1.13554 0
M  V30 8020 C 793.391 2.9047 -2.08235 0
M  V30 8021 C 793.057 2.74965 -3.57358 0
M  V30 8022 C 791.719 2.70444 -3.98012 0
M  V30 8023 C 794.071 2.59347 -4.52093 0
M  V30 8024 C 791.399 2.48212 -5.31608 0
M  V30 8025 C 793.751 2.38649 -5.85858 0
M  V30 8026 C 792.415 2.32533 -6.25687 0
M  V30 8027 H 791.685 0.581285 -0.459553 0
M  V30 8028 H 794.332 0.964501 -1.65438 0
M  V30 8029 H 792.637 3.57111 -1.6118 0
M  V30 8030 H 794.334 3.48001 -1.99239 0
M  V30 8031 H 790.924 2.79319 -3.25083 0
M  V30 8032 H 795.108 2.6187 -4.2159 0
M  V30 8033 H 790.364 2.41929 -5.61498 0
M  V30 8034 H 794.538 2.25549 -6.58863 0
M  V30 8035 H 792.165 2.15067 -7.29143 0
M  V30 8036 N 793.74 1.17359 1.05189 0
M  V30 8037 C 794.965 0.98709 1.82404 0
M  V30 8038 C 795.39 -0.459848 1.82392 0
M  V30 8039 O 794.748 -1.32924 1.23292 0
M  V30 8040 C 794.796 1.53276 3.26403 0
M  V30 8041 O 793.9 0.746541 4.05587 0
M  V30 8042 H 793.241 0.35047 0.563974 0
M  V30 8043 H 795.771 1.55856 1.32552 0
M  V30 8044 H 795.781 1.55504 3.77203 0
M  V30 8045 H 794.456 2.58603 3.25726 0
M  V30 8046 H 793.033 0.795671 3.64312 0
M  V30 8047 N 795.218 -1.23913 0.973828 0
M  V30 8048 C 796.466 -1.91771 0.637817 0
M  V30 8049 C 796.787 -1.76434 -0.830435 0
M  V30 8050 O 796.057 -1.13965 -1.59339 0
M  V30 8051 H 794.637 -0.709761 0.232912 0
M  V30 8052 H 797.299 -1.50677 1.23622 0
M  V30 8053 H 796.395 -2.99327 0.883731 0
M  V30 8054 N 796.696 -0.74468 -1.38897 0
M  V30 8055 C 797.945 -0.293716 -1.9955 0
M  V30 8056 C 798.258 1.12831 -1.59777 0
M  V30 8057 O 799.464 1.67929 -2.13336 0
M  V30 8058 C 797.92 -0.474188 -3.56762 0
M  V30 8059 C 797.528 -1.90472 -4.05493 0
M  V30 8060 C 799.272 -0.0854875 -4.24414 0
M  V30 8061 C 797.179 -2.03423 -5.55314 0
M  V30 8062 H 796.109 -0.106066 -0.746502 0
M  V30 8063 H 798.76 -0.919948 -1.58774 0
M  V30 8064 H 797.142 0.221092 -3.95382 0
M  V30 8065 H 798.316 -2.63274 -3.78184 0
M  V30 8066 H 796.631 -2.24752 -3.50536 0
M  V30 8067 H 799.228 -0.161133 -5.34457 0
M  V30 8068 H 799.571 0.96066 -4.05064 0
M  V30 8069 H 800.104 -0.732286 -3.91002 0
M  V30 8070 H 796.843 -3.0626 -5.79556 0
M  V30 8071 H 796.363 -1.3507 -5.84394 0
M  V30 8072 H 798.042 -1.81996 -6.20876 0
M  V30 8073 N 798.174 1.49689 -0.493057 0
M  V30 8074 C 799.451 1.9525 0.116907 0
M  V30 8075 C 799.831 1.43429 1.54892 0
M  V30 8076 O 799.179 0.644621 2.19219 0
M  V30 8077 C 799.389 3.4898 0.037705 0
M  V30 8078 C 800.737 4.24052 0.215621 0
M  V30 8079 O 801.761 3.5602 0.113266 0
M  V30 8080 O 800.62 5.44847 0.42477 0
M  V30 8081 H 797.714 0.820973 0.099662 0
M  V30 8082 H 800.26 1.60367 -0.555029 0
M  V30 8083 H 799.032 3.79309 -0.961251 0
M  V30 8084 H 798.655 3.9046 0.750137 0
M  V30 8085 N 799.652 0.226554 1.55963 0
M  V30 8086 C 800.562 -0.692725 2.24139 0
M  V30 8087 C 801.578 -1.20971 1.25068 0
M  V30 8088 O 802.754 -1.25027 1.57893 0
M  V30 8089 C 799.819 -1.88183 2.91184 0
M  V30 8090 C 798.88 -1.40633 4.05612 0
M  V30 8091 C 798.113 -2.53875 4.6945 0
M  V30 8092 O 798.336 -3.72129 4.32292 0
M  V30 8093 O 797.27 -2.24792 5.58348 0
M  V30 8094 H 801.096 -0.141921 3.03368 0
M  V30 8095 H 798.681 -0.0041049 1.49399 0
M  V30 8096 H 800.563 -2.57617 3.33484 0
M  V30 8097 H 799.238 -2.42064 2.14911 0
M  V30 8098 H 798.145 -0.67986 3.67871 0
M  V30 8099 H 799.478 -0.913838 4.83642 0
M  V30 8100 N 801.13 -1.57531 -0.0467866 0
M  V30 8101 C 802.08 -2.01845 -1.06031 0
M  V30 8102 C 803.064 -0.904662 -1.33059 0
M  V30 8103 O 804.256 -1.16858 -1.32941 0
M  V30 8104 C 801.385 -2.48673 -2.36679 0
M  V30 8105 C 800.471 -3.66837 -2.12818 0
M  V30 8106 N 800.862 -4.80172 -1.5896 0
M  V30 8107 C 799.16 -3.73869 -2.43183 0
M  V30 8108 C 799.861 -5.61895 -1.50494 0
M  V30 8109 N 798.837 -5.0648 -1.97431 0
M  V30 8110 H 802.639 -2.869 -0.637623 0
M  V30 8111 H 800.153 -1.6041 -0.253427 0
M  V30 8112 H 802.15 -2.78671 -3.10077 0
M  V30 8113 H 800.81 -1.65016 -2.79642 0
M  V30 8114 H 801.821 -5.01967 -1.27474 0
M  V30 8115 H 798.498 -3.00977 -2.89342 0
M  V30 8116 H 799.888 -6.62918 -1.09494 0
M  V30 8117 N 802.608 0.318715 -1.54344 0
M  V30 8118 C 803.856 1.054 -1.72439 0
M  V30 8119 C 804.177 1.88388 -0.503495 0
M  V30 8120 O 803.447 1.89866 0.48246 0
M  V30 8121 H 802.027 0.392124 -0.635805 0
M  V30 8122 H 804.689 0.35398 -1.91659 0
M  V30 8123 H 803.785 1.71726 -2.60608 0
M  V30 8124 N 804.086 1.46499 0.581025 0
M  V30 8125 C 805.036 1.53606 1.68491 0
M  V30 8126 C 806.02 0.396853 1.55929 0
M  V30 8127 O 807.212 0.645366 1.64815 0
M  V30 8128 C 804.341 1.53089 3.07276 0
M  V30 8129 C 803.427 2.72309 3.25128 0
M  V30 8130 N 803.818 3.97216 3.13134 0
M  V30 8131 C 802.116 2.68568 3.56072 0
M  V30 8132 C 802.817 4.7693 3.33036 0
M  V30 8133 N 801.793 4.08833 3.58269 0
M  V30 8134 H 805.595 2.47976 1.5775 0
M  V30 8135 H 803.109 1.42161 0.785104 0
M  V30 8136 H 805.106 1.56268 3.86505 0
M  V30 8137 H 803.766 0.597969 3.19146 0
M  V30 8138 H 804.777 4.28439 2.90964 0
M  V30 8139 H 801.454 1.84307 3.74616 0
M  V30 8140 H 802.844 5.85879 3.28932 0
M  V30 8141 N 805.565 -0.825799 1.34232 0
M  V30 8142 C 806.495 -1.95151 1.28212 0
M  V30 8143 C 807.476 -1.69345 0.160123 0
M  V30 8144 O 808.661 -1.90983 0.352019 0
M  V30 8145 C 805.791 -3.31554 1.03388 0
M  V30 8146 C 804.745 -3.71793 2.12023 0
M  V30 8147 C 804.071 -5.06147 1.72392 0
M  V30 8148 C 805.371 -3.84193 3.53826 0
M  V30 8149 H 807.065 -2.00445 2.22401 0
M  V30 8150 H 804.611 -0.962996 1.07063 0
M  V30 8151 H 806.564 -4.09889 0.978225 0
M  V30 8152 H 805.288 -3.26551 0.0564142 0
M  V30 8153 H 803.947 -2.95731 2.16654 0
M  V30 8154 H 803.595 -4.97628 0.733137 0
M  V30 8155 H 803.295 -5.34041 2.451 0
M  V30 8156 H 804.819 -5.86943 1.68317 0
M  V30 8157 H 806.233 -4.52806 3.51624 0
M  V30 8158 H 804.63 -4.23538 4.2513 0
M  V30 8159 H 805.7 -2.86272 3.91377 0
M  V30 8160 N 807.043 -1.17915 -1.04565 0
M  V30 8161 C 808.271 -0.99616 -1.8134 0
M  V30 8162 C 808.686 0.455509 -1.83223 0
M  V30 8163 O 808.043 1.31636 -1.26405 0
M  V30 8164 C 808.094 -1.53758 -3.27171 0
M  V30 8165 O 807.815 -2.93241 -3.25486 0
M  V30 8166 C 809.316 -1.40007 -4.2061 0
M  V30 8167 H 806.536 -0.352055 -0.571225 0
M  V30 8168 H 809.08 -1.56349 -1.31815 0
M  V30 8169 H 807.235 -1.01213 -3.73945 0
M  V30 8170 H 807.649 -3.18392 -4.16805 0
M  V30 8171 H 809.123 -1.82695 -5.2089 0
M  V30 8172 H 809.6 -0.348054 -4.37819 0
M  V30 8173 H 810.206 -1.916 -3.79697 0
M  V30 8174 N 808.521 1.23394 -0.980386 0
M  V30 8175 C 809.77 1.91116 -0.644785 0
M  V30 8176 C 810.083 1.77333 0.825367 0
M  V30 8177 O 811.289 2.39858 1.27203 0
M  V30 8178 C 809.745 3.42592 -1.10266 0
M  V30 8179 C 809.353 3.65037 -2.59715 0
M  V30 8180 C 811.097 4.1609 -0.8408 0
M  V30 8181 C 809.004 5.10148 -2.9917 0
M  V30 8182 H 807.934 0.715632 -0.23746 0
M  V30 8183 H 810.585 1.39829 -1.18828 0
M  V30 8184 H 808.967 3.92989 -0.487372 0
M  V30 8185 H 810.141 3.25186 -3.26482 0
M  V30 8186 H 808.456 3.04849 -2.83647 0
M  V30 8187 H 811.053 5.23021 -1.11143 0
M  V30 8188 H 811.396 4.15702 0.223085 0
M  V30 8189 H 811.929 3.71681 -1.41767 0
M  V30 8190 H 808.668 5.15668 -4.04682 0
M  V30 8191 H 808.188 5.50949 -2.37097 0
M  V30 8192 H 809.867 5.7848 -2.89775 0
M  V30 8193 N 809.999 0.752036 1.385 0
M  V30 8194 C 811.276 0.233075 1.94206 0
M  V30 8195 C 811.656 -1.26838 1.68746 0
M  V30 8196 O 811.004 -2.04214 1.02513 0
M  V30 8197 C 811.214 0.58509 3.44061 0
M  V30 8198 C 812.562 0.543871 4.21102 0
M  V30 8199 O 813.586 0.523291 3.52335 0
M  V30 8200 O 812.445 0.553436 5.4369 0
M  V30 8201 H 809.539 0.0483049 0.825588 0
M  V30 8202 H 812.085 0.832053 1.47902 0
M  V30 8203 H 810.857 1.62212 3.56094 0
M  V30 8204 H 810.48 -0.0419738 3.97578 0
M  V30 8205 N 811.477 -1.49425 0.500989 0
M  V30 8206 C 812.705 -2.06861 -0.0403443 0
M  V30 8207 C 813.12 -1.36132 -1.30819 0
M  V30 8208 O 812.477 -0.439647 -1.77125 0
M  V30 8209 C 812.528 -3.6027 -0.297902 0
M  V30 8210 O 812.249 -4.28338 0.919686 0
M  V30 8211 C 813.75 -4.34419 -0.882876 0
M  V30 8212 H 810.97 -0.670688 0.0204619 0
M  V30 8213 H 813.514 -1.92207 0.698342 0
M  V30 8214 H 811.669 -3.74627 -0.98657 0
M  V30 8215 H 812.083 -5.2004 0.682528 0
M  V30 8216 H 813.557 -5.42631 -1.01268 0
M  V30 8217 H 814.034 -3.96898 -1.88066 0
M  V30 8218 H 814.64 -4.24669 -0.231677 0
M  V30 8219 N 812.955 -0.234822 -1.55841 0
M  V30 8220 C 813.865 0.680828 -2.24504 0
M  V30 8221 C 814.881 1.20306 -1.25708 0
M  V30 8222 O 816.057 1.24188 -1.58554 0
M  V30 8223 C 813.122 1.86636 -2.92178 0
M  V30 8224 C 812.183 1.3848 -4.06352 0
M  V30 8225 C 811.416 2.51382 -4.70789 0
M  V30 8226 O 811.639 3.69831 -4.34259 0
M  V30 8227 O 810.573 2.21828 -5.59532 0
M  V30 8228 H 814.399 0.12583 -3.03439 0
M  V30 8229 H 811.984 -0.00381817 -1.494 0
M  V30 8230 H 813.866 2.55845 -3.34845 0
M  V30 8231 H 812.541 2.40921 -2.16192 0
M  V30 8232 H 811.448 0.660341 -3.68226 0
M  V30 8233 H 812.781 0.888177 -4.8412 0
M  V30 8234 N 814.433 1.57553 0.0384317 0
M  V30 8235 C 815.363 2.0898 1.04161 0
M  V30 8236 C 816.344 0.99029 1.38301 0
M  V30 8237 O 817.529 1.26499 1.47349 0
M  V30 8238 C 814.659 2.56145 2.34536 0
M  V30 8239 C 813.613 3.70275 2.14663 0
M  V30 8240 C 812.939 4.03612 3.50715 0
M  V30 8241 C 814.239 4.99067 1.54045 0
M  V30 8242 H 815.933 2.93046 0.613548 0
M  V30 8243 H 813.479 1.40973 0.293684 0
M  V30 8244 H 815.432 2.90741 3.05037 0
M  V30 8245 H 814.156 1.6915 2.79385 0
M  V30 8246 H 812.815 3.36013 1.46597 0
M  V30 8247 H 812.463 3.13698 3.93195 0
M  V30 8248 H 812.163 4.80482 3.38247 0
M  V30 8249 H 813.687 4.40735 4.22593 0
M  V30 8250 H 815.101 5.3168 2.14451 0
M  V30 8251 H 813.498 5.80484 1.52178 0
M  V30 8252 H 814.568 4.8226 0.505259 0
M  V30 8253 N 815.911 -0.310526 1.54511 0
M  V30 8254 C 816.821 -1.4054 1.87844 0
M  V30 8255 C 817.837 -1.55954 0.771635 0
M  V30 8256 O 819.013 -1.70801 1.06719 0
M  V30 8257 C 816.078 -2.75063 2.11048 0
M  V30 8258 C 815.139 -2.68715 3.348 0
M  V30 8259 C 814.372 -3.96821 3.56887 0
M  V30 8260 O 814.595 -4.95721 2.82165 0
M  V30 8261 O 813.529 -3.99291 4.50389 0
M  V30 8262 H 817.355 -1.15275 2.80972 0
M  V30 8263 H 814.94 -0.505732 1.4058 0
M  V30 8264 H 816.822 -3.54671 2.27566 0
M  V30 8265 H 815.497 -3.00191 1.21108 0
M  V30 8266 H 814.404 -1.87611 3.23655 0
M  V30 8267 H 815.737 -2.4854 4.2484 0
M  V30 8268 N 817.389 -1.46805 -0.573248 0
M  V30 8269 C 818.637 -1.52302 -1.32847 0
M  V30 8270 C 818.958 -0.180159 -1.94166 0
M  V30 8271 O 818.228 0.794291 -1.79075 0
M  V30 8272 H 816.808 -0.56097 -0.493276 0
M  V30 8273 H 819.47 -1.82998 -0.670642 0
M  V30 8274 H 818.566 -2.28089 -2.13031 0
M  V30 8275 N 818.867 0.818669 -1.34668 0
M  V30 8276 C 820.283 1.11243 -1.14443 0
M  V30 8277 C 820.483 2.01435 0.0512212 0
M  V30 8278 O 819.539 2.41854 0.725471 0
M  V30 8279 C 820.852 1.75504 -2.4417 0
M  V30 8280 C 822.4 1.8798 -2.50265 0
M  V30 8281 C 822.875 2.55657 -3.80004 0
M  V30 8282 N 824.366 2.63153 -3.81189 0
M  V30 8283 C 825.101 3.16258 -4.78298 0
M  V30 8284 N 824.597 3.69893 -5.85791 0
M  V30 8285 N 826.39 3.14698 -4.65748 0
M  V30 8286 H 818.541 0.218848 -2.1127 0
M  V30 8287 H 820.804 0.159655 -0.934459 0
M  V30 8288 H 820.51 1.16697 -3.31775 0
M  V30 8289 H 820.384 2.75329 -2.57825 0
M  V30 8290 H 822.771 2.45934 -1.63096 0
M  V30 8291 H 822.852 0.870447 -2.40535 0
M  V30 8292 H 822.496 1.98356 -4.67565 0
M  V30 8293 H 822.426 3.57105 -3.87019 0
M  V30 8294 H 824.917 2.2514 -3.03513 0
M  V30 8295 H 825.23 4.08678 -6.55898 0
M  V30 8296 H 823.575 3.68125 -5.89499 0
M  V30 8297 H 826.766 2.72066 -3.80917 0
M  V30 8298 H 826.939 3.5578 -5.41594 0
M  V30 8299 N 820.346 1.18468 1.03938 0
M  V30 8300 C 821.592 0.982286 1.77423 0
M  V30 8301 C 821.925 -0.48679 1.88 0
M  V30 8302 O 821.2 -1.36146 1.38905 0
M  V30 8303 C 821.483 1.63929 3.20623 0
M  V30 8304 C 821.336 3.18132 3.17982 0
M  V30 8305 C 822.655 1.3536 4.18767 0
M  V30 8306 H 819.774 0.358264 0.644062 0
M  V30 8307 H 822.416 1.46154 1.21405 0
M  V30 8308 H 820.566 1.2318 3.68455 0
M  V30 8309 H 822.238 3.68024 2.78129 0
M  V30 8310 H 820.481 3.50225 2.55978 0
M  V30 8311 H 821.152 3.5924 4.19107 0
M  V30 8312 H 823.628 1.70669 3.79488 0
M  V30 8313 H 822.504 1.83896 5.17178 0
M  V30 8314 H 822.765 0.276722 4.41233 0
M  V30 8315 N 821.824 -1.22873 0.986916 0
M  V30 8316 C 823.235 -1.73264 0.695438 0
M  V30 8317 C 823.586 -1.79679 -0.788023 0
M  V30 8318 O 822.711 -1.43905 -1.61618 0
M  V30 8319 C 823.306 -3.14671 1.2557 0
M  V30 8320 C 821.865 -3.62492 1.01373 0
M  V30 8321 C 821.012 -2.40551 1.37951 0
M  V30 8322 H 823.963 -1.08304 1.15999 0
M  V30 8323 H 823.984 -3.75226 0.631322 0
M  V30 8324 H 823.496 -3.0997 2.33539 0
M  V30 8325 H 821.597 -3.72567 -0.0495917 0
M  V30 8326 H 821.71 -4.48944 1.67289 0
M  V30 8327 H 820.074 -2.41875 0.798033 0
M  V30 8328 H 820.857 -2.38516 2.46911 0
M  V30 8329 N 823.302 -0.75937 -1.38099 0
M  V30 8330 C 824.234 -0.0956547 -2.29 0
M  V30 8331 C 825.247 0.677561 -1.4803 0
M  V30 8332 O 826.436 0.517696 -1.70828 0
M  V30 8333 C 823.536 0.88844 -3.27047 0
M  V30 8334 C 822.709 0.171652 -4.37063 0
M  V30 8335 C 821.768 1.06733 -5.15262 0
M  V30 8336 O 820.794 0.535698 -5.66674 0
M  V30 8337 N 821.996 2.39486 -5.28797 0
M  V30 8338 H 824.761 -0.876354 -2.86601 0
M  V30 8339 H 822.322 -0.61065 -1.49942 0
M  V30 8340 H 824.314 1.49079 -3.76241 0
M  V30 8341 H 822.884 1.57018 -2.70304 0
M  V30 8342 H 822.104 -0.611473 -3.89429 0
M  V30 8343 H 823.392 -0.324121 -5.07767 0
M  V30 8344 H 822.79 2.85127 -4.88589 0
M  V30 8345 H 821.347 2.94758 -5.81344 0
M  V30 8346 N 824.78 1.49157 -0.508906 0
M  V30 8347 C 826.029 2.0167 0.0346854 0
M  V30 8348 C 826.342 1.39302 1.37311 0
M  V30 8349 O 827.548 1.83189 2.00385 0
M  V30 8350 C 826.004 3.59725 0.112261 0
M  V30 8351 C 825.612 4.31069 -1.21999 0
M  V30 8352 C 827.356 4.20155 0.605798 0
M  V30 8353 C 825.263 5.81001 -1.10415 0
M  V30 8354 H 824.193 0.753814 0.0167355 0
M  V30 8355 H 826.844 1.7162 -0.649518 0
M  V30 8356 H 825.226 3.86525 0.861087 0
M  V30 8357 H 826.4 4.15962 -1.98273 0
M  V30 8358 H 824.715 3.82418 -1.64759 0
M  V30 8359 H 827.312 5.29964 0.710102 0
M  V30 8360 H 827.655 3.84051 1.60656 0
M  V30 8361 H 828.188 3.97705 -0.0867239 0
M  V30 8362 H 824.927 6.21643 -2.07941 0
M  V30 8363 H 824.447 5.9858 -0.382428 0
M  V30 8364 H 826.126 6.42207 -0.786116 0
M  V30 8365 N 826.258 0.243083 1.55714 0
M  V30 8366 C 827.669 -0.260788 1.8487 0
M  V30 8367 C 828.02 -1.57879 1.16485 0
M  V30 8368 O 827.145 -2.1184 0.441908 0
M  V30 8369 C 827.74 -0.479954 3.35383 0
M  V30 8370 C 826.299 -0.928096 3.64778 0
M  V30 8371 C 825.446 -0.00316416 2.773 0
M  V30 8372 H 828.397 0.465743 1.51712 0
M  V30 8373 H 828.418 -1.32308 3.56756 0
M  V30 8374 H 827.93 0.479468 3.85127 0
M  V30 8375 H 826.031 -1.90012 3.20509 0
M  V30 8376 H 826.144 -0.7876 4.72582 0
M  V30 8377 H 824.508 -0.513849 2.49463 0
M  V30 8378 H 825.291 0.951562 3.29849 0
M  V30 8379 N 827.736 -1.57571 -0.0300757 0
M  V30 8380 C 828.983 -1.89226 -0.721091 0
M  V30 8381 C 829.311 -0.840244 -1.75414 0
M  V30 8382 O 828.566 0.158906 -1.95054 0
M  V30 8383 C 828.865 -3.27624 -1.42818 0
M  V30 8384 C 828.531 -4.4776 -0.531208 0
M  V30 8385 C 827.193 -4.8036 -0.28415 0
M  V30 8386 C 829.545 -5.21125 0.0881582 0
M  V30 8387 C 826.873 -5.83715 0.591065 0
M  V30 8388 C 829.225 -6.2541 0.95107 0
M  V30 8389 C 827.889 -6.56486 1.2076 0
M  V30 8390 H 827.159 -0.692428 -0.263866 0
M  V30 8391 H 829.806 -1.91491 0.0189874 0
M  V30 8392 H 828.111 -3.21343 -2.24155 0
M  V30 8393 H 829.808 -3.49365 -1.96838 0
M  V30 8394 H 826.398 -4.2227 -0.73392 0
M  V30 8395 H 830.582 -4.96219 -0.0897496 0
M  V30 8396 H 825.838 -6.06168 0.798132 0
M  V30 8397 H 830.012 -6.81402 1.43751 0
M  V30 8398 H 827.639 -7.36395 1.88751 0
M  V30 8399 N 829.214 0.302327 -1.54673 0
M  V30 8400 C 830.462 1.03565 -1.73547 0
M  V30 8401 C 830.783 1.87843 -0.523448 0
M  V30 8402 O 830.053 1.90367 0.462295 0
M  V30 8403 H 828.633 0.385358 -0.639928 0
M  V30 8404 H 831.295 0.333632 -1.92023 0
M  V30 8405 H 830.391 1.68952 -2.62415 0
M  V30 8406 N 830.692 1.47107 0.565454 0
M  V30 8407 C 831.917 1.57153 1.35343 0
M  V30 8408 C 832.342 0.219247 1.86818 0
M  V30 8409 O 831.7 -0.803539 1.62521 0
M  V30 8410 C 831.748 2.59387 2.50501 0
M  V30 8411 O 830.852 2.14086 3.52478 0
M  V30 8412 H 830.193 0.528209 0.402357 0
M  V30 8413 H 832.723 1.92821 0.684189 0
M  V30 8414 H 832.733 2.79546 2.97184 0
M  V30 8415 H 831.408 3.57579 2.12391 0
M  V30 8416 H 829.985 2.03991 3.12157 0
M  V30 8417 N 832.17 -0.811516 1.35101 0
M  V30 8418 C 833.395 -1.60499 1.31358 0
M  V30 8419 C 833.82 -1.87793 -0.107383 0
M  V30 8420 O 833.178 -1.46161 -1.07268 0
M  V30 8421 C 833.226 -2.91612 2.12119 0
M  V30 8422 O 832.33 -3.84211 1.49853 0
M  V30 8423 H 831.671 -0.487702 0.450603 0
M  V30 8424 H 834.201 -1.00758 1.7807 0
M  V30 8425 H 834.211 -3.4108 2.23894 0
M  V30 8426 H 832.886 -2.71071 3.15426 0
M  V30 8427 H 831.463 -3.42751 1.46889 0
M  V30 8428 N 833.648 -1.19017 -1.03309 0
M  V30 8429 C 834.894 -0.991681 -1.769 0
M  V30 8430 C 835.227 0.476813 -1.88255 0
M  V30 8431 O 834.502 1.35407 -1.39625 0
M  V30 8432 C 834.785 -1.65627 -3.19749 0
M  V30 8433 C 834.638 -3.19813 -3.1629 0
M  V30 8434 C 835.957 -1.37579 -4.18043 0
M  V30 8435 H 833.076 -0.361674 -0.642153 0
M  V30 8436 H 835.718 -1.46795 -1.20628 0
M  V30 8437 H 833.868 -1.25132 -3.67796 0
M  V30 8438 H 835.54 -3.69494 -2.76174 0
M  V30 8439 H 833.783 -3.51578 -2.54117 0
M  V30 8440 H 834.454 -3.61457 -4.17196 0
M  V30 8441 H 836.93 -1.72679 -3.78578 0
M  V30 8442 H 835.806 -1.86636 -5.16196 0
M  V30 8443 H 836.067 -0.300118 -4.4108 0
M  V30 8444 N 835.127 1.22348 -0.993418 0
M  V30 8445 C 836.077 2.221 -0.515333 0
M  V30 8446 C 837.061 1.55409 0.416762 0
M  V30 8447 O 838.253 1.75317 0.243497 0
M  V30 8448 C 835.382 3.42888 0.168173 0
M  V30 8449 C 834.468 4.16786 -0.784257 0
M  V30 8450 N 834.859 4.67435 -1.93231 0
M  V30 8451 C 833.157 4.41942 -0.600243 0
M  V30 8452 C 833.858 5.23792 -2.53016 0
M  V30 8453 N 832.834 5.12483 -1.8128 0
M  V30 8454 H 836.636 2.58902 -1.39093 0
M  V30 8455 H 834.15 1.38024 -0.855747 0
M  V30 8456 H 836.147 4.13542 0.528069 0
M  V30 8457 H 834.807 3.07598 1.03989 0
M  V30 8458 H 835.818 4.63375 -2.31309 0
M  V30 8459 H 832.495 4.16891 0.225369 0
M  V30 8460 H 833.885 5.73515 -3.50043 0
M  V30 8461 N 836.605 0.766683 1.37694 0
M  V30 8462 C 837.854 0.325425 1.99057 0
M  V30 8463 C 838.167 -1.10275 1.61551 0
M  V30 8464 O 839.373 -1.64513 2.1598 0
M  V30 8465 C 837.829 0.530886 3.55963 0
M  V30 8466 C 837.437 1.96899 4.02411 0
M  V30 8467 C 839.181 0.152997 4.24224 0
M  V30 8468 C 837.088 2.12232 5.52007 0
M  V30 8469 H 836.018 0.117929 0.744721 0
M  V30 8470 H 838.669 0.945091 1.5729 0
M  V30 8471 H 837.051 -0.158162 3.95684 0
M  V30 8472 H 838.225 2.69258 3.73948 0
M  V30 8473 H 836.54 2.303 3.46916 0
M  V30 8474 H 839.137 0.24614 5.34133 0
M  V30 8475 H 839.48 -0.896096 4.06541 0
M  V30 8476 H 840.013 0.794398 3.89787 0
M  V30 8477 H 836.752 3.15442 5.7461 0
M  V30 8478 H 836.272 1.4435 5.82171 0
M  V30 8479 H 837.951 1.9185 6.17902 0
M  V30 8480 N 838.083 -1.48885 0.516809 0
M  V30 8481 C 838.993 -2.33185 -0.257293 0
M  V30 8482 C 840.009 -1.4565 -0.951952 0
M  V30 8483 O 841.185 -1.78651 -0.929834 0
M  V30 8484 C 838.25 -3.21465 -1.29851 0
M  V30 8485 C 837.311 -4.24863 -0.615608 0
M  V30 8486 C 836.544 -5.08925 -1.60722 0
M  V30 8487 O 836.767 -4.9475 -2.83863 0
M  V30 8488 O 835.701 -5.90737 -1.15384 0
M  V30 8489 H 839.527 -3.00596 0.433131 0
M  V30 8490 H 837.112 -1.46792 0.277908 0
M  V30 8491 H 838.994 -3.76108 -1.90055 0
M  V30 8492 H 837.669 -2.5673 -1.97158 0
M  V30 8493 H 836.576 -3.74091 0.0265829 0
M  V30 8494 H 837.909 -4.92198 0.0152871 0
M  V30 8495 N 839.561 -0.251338 -1.55583 0
M  V30 8496 C 840.972 0.25098 -1.85005 0
M  V30 8497 C 841.323 1.57259 -1.17321 0
M  V30 8498 O 840.448 2.11603 -0.453136 0
M  V30 8499 C 841.043 0.462161 -3.35633 0
M  V30 8500 C 839.602 0.908737 -3.65266 0
M  V30 8501 C 838.749 -0.0115418 -2.77298 0
M  V30 8502 H 841.7 -0.473782 -1.51463 0
M  V30 8503 H 841.721 1.30415 -3.57452 0
M  V30 8504 H 841.233 -0.499886 -3.84867 0
M  V30 8505 H 839.334 1.8831 -3.21512 0
M  V30 8506 H 839.447 0.762526 -4.72993 0
M  V30 8507 H 837.811 0.500612 -2.49732 0
M  V30 8508 H 838.594 -0.969042 -3.29339 0
M  V30 8509 N 841.039 1.57585 0.0217189 0
M  V30 8510 C 842.269 1.9359 0.721572 0
M  V30 8511 C 842.677 0.850132 1.69025 0
M  V30 8512 O 842.02 -0.181539 1.82801 0
M  V30 8513 C 842.082 3.25445 1.52729 0
M  V30 8514 C 841.746 4.51251 0.722586 0
M  V30 8515 C 842.743 5.19896 0.0196598 0
M  V30 8516 C 840.428 4.97745 0.674959 0
M  V30 8517 C 842.422 6.33319 -0.720114 0
M  V30 8518 C 840.109 6.11062 -0.068555 0
M  V30 8519 C 841.107 6.78704 -0.764845 0
M  V30 8520 O 840.795 7.89852 -1.49627 0
M  V30 8521 H 840.527 0.643409 0.207366 0
M  V30 8522 H 843.081 2.05391 -0.0189346 0
M  V30 8523 H 841.311 3.0999 2.31178 0
M  V30 8524 H 843 3.46721 2.11044 0
M  V30 8525 H 843.766 4.84977 0.0474394 0
M  V30 8526 H 839.645 4.44934 1.20643 0
M  V30 8527 H 843.189 6.86051 -1.26413 0
M  V30 8528 H 839.086 6.45425 -0.0982318 0
M  V30 8529 H 839.854 8.06251 -1.41071 0
M  V30 8530 N 842.517 -0.29412 1.54831 0
M  V30 8531 C 843.745 -1.04724 1.78439 0
M  V30 8532 C 844.16 -1.80695 0.547239 0
M  V30 8533 O 843.517 -1.75989 -0.483141 0
M  V30 8534 C 843.568 -2.02242 2.99634 0
M  V30 8535 O 843.289 -1.29352 4.18568 0
M  V30 8536 C 844.79 -2.89537 3.35683 0
M  V30 8537 H 842.01 -0.310285 0.594949 0
M  V30 8538 H 844.554 -0.331306 2.01798 0
M  V30 8539 H 842.709 -2.69328 2.78462 0
M  V30 8540 H 843.123 -1.94901 4.86943 0
M  V30 8541 H 844.597 -3.538 4.23709 0
M  V30 8542 H 845.074 -3.58201 2.54143 0
M  V30 8543 H 845.68 -2.27973 3.59038 0
M  V30 8544 N 843.995 -1.47404 -0.557645 0
M  V30 8545 C 844.905 -1.62491 -1.69216 0
M  V30 8546 C 845.921 -0.507764 -1.66426 0
M  V30 8547 O 847.097 -0.775241 -1.85882 0
M  V30 8548 C 844.162 -1.63511 -3.05721 0
M  V30 8549 C 843.223 -2.86648 -3.1958 0
M  V30 8550 C 842.456 -2.87609 -4.49574 0
M  V30 8551 O 842.679 -1.97799 -5.35006 0
M  V30 8552 O 841.613 -3.79465 -4.67215 0
M  V30 8553 H 845.439 -2.58487 -1.59431 0
M  V30 8554 H 843.024 -1.30485 -0.7276 0
M  V30 8555 H 844.906 -1.66863 -3.86956 0
M  V30 8556 H 843.581 -0.706812 -3.15889 0
M  V30 8557 H 842.488 -2.8884 -2.37744 0
M  V30 8558 H 843.821 -3.7877 -3.14316 0
M  V30 8559 N 845.473 0.80434 -1.35529 0
M  V30 8560 C 846.403 1.93086 -1.31301 0
M  V30 8561 C 847.384 1.69068 -0.187044 0
M  V30 8562 O 848.569 1.90399 -0.382359 0
M  V30 8563 C 845.699 3.29867 -1.0865 0
M  V30 8564 C 844.653 3.68373 -2.17911 0
M  V30 8565 C 843.979 5.0334 -1.80423 0
M  V30 8566 C 845.279 3.78516 -3.59893 0
M  V30 8567 H 846.973 1.96882 -2.25561 0
M  V30 8568 H 844.519 0.945841 -1.08581 0
M  V30 8569 H 846.472 4.08281 -1.04331 0
M  V30 8570 H 845.196 3.2642 -0.108359 0
M  V30 8571 H 843.855 2.92247 -2.21331 0
M  V30 8572 H 843.503 4.96399 -0.812213 0
M  V30 8573 H 843.203 5.30074 -2.53565 0
M  V30 8574 H 844.727 5.84191 -1.77633 0
M  V30 8575 H 846.141 4.47155 -3.58783 0
M  V30 8576 H 844.538 4.16721 -4.31814 0
M  V30 8577 H 845.608 2.8001 -3.95882 0
M  V30 8578 N 846.951 1.19563 1.02676 0
M  V30 8579 C 848.181 1.0234 1.79472 0
M  V30 8580 C 848.589 -0.430891 1.84228 0
M  V30 8581 O 847.932 -1.31106 1.28674 0
M  V30 8582 C 847.994 1.51901 3.25832 0
M  V30 8583 C 847.658 3.00045 3.44706 0
M  V30 8584 C 848.655 3.9779 3.34752 0
M  V30 8585 C 846.34 3.38784 3.70851 0
M  V30 8586 C 848.334 5.32267 3.50672 0
M  V30 8587 C 846.021 4.73419 3.86416 0
M  V30 8588 C 847.019 5.69969 3.7633 0
M  V30 8589 O 846.707 7.02165 3.91432 0
M  V30 8590 H 846.439 0.360936 0.571578 0
M  V30 8591 H 848.993 1.58863 1.30198 0
M  V30 8592 H 847.223 0.897546 3.7614 0
M  V30 8593 H 848.912 1.30853 3.84229 0
M  V30 8594 H 849.678 3.69207 3.14502 0
M  V30 8595 H 845.557 2.64183 3.77794 0
M  V30 8596 H 849.101 6.07612 3.42715 0
M  V30 8597 H 844.998 5.01697 4.06165 0
M  V30 8598 H 845.766 7.09268 4.08511 0
M  V30 8599 N 848.429 -1.21819 0.999893 0
M  V30 8600 C 849.379 -2.21823 0.527104 0
M  V30 8601 C 850.363 -1.55628 -0.408515 0
M  V30 8602 O 851.555 -1.75444 -0.234196 0
M  V30 8603 C 848.684 -3.42972 -0.149986 0
M  V30 8604 C 847.77 -4.16364 0.806349 0
M  V30 8605 N 848.161 -4.66403 1.95708 0
M  V30 8606 C 846.459 -4.41618 0.623672 0
M  V30 8607 C 847.16 -5.22443 2.5579 0
M  V30 8608 N 846.136 -5.11514 1.83995 0
M  V30 8609 H 849.938 -2.58161 1.40464 0
M  V30 8610 H 847.452 -1.37569 0.863054 0
M  V30 8611 H 849.449 -4.13816 -0.50613 0
M  V30 8612 H 848.109 -3.08145 -1.02357 0
M  V30 8613 H 849.12 -4.62142 2.33763 0
M  V30 8614 H 845.797 -4.17005 -0.203257 0
M  V30 8615 H 847.187 -5.7165 3.5308 0
M  V30 8616 N 849.908 -0.773975 -1.37286 0
M  V30 8617 C 851.138 -0.350249 -2.03609 0
M  V30 8618 C 851.546 1.03313 -1.58502 0
M  V30 8619 O 850.889 1.67118 -0.7627 0
M  V30 8620 C 850.951 -0.317215 -3.58098 0
M  V30 8621 C 850.615 -1.64556 -4.26345 0
M  V30 8622 C 851.612 -2.59839 -4.50311 0
M  V30 8623 C 849.297 -1.92061 -4.64131 0
M  V30 8624 C 851.291 -3.80833 -5.11122 0
M  V30 8625 C 848.978 -3.13325 -5.24663 0
M  V30 8626 C 849.976 -4.0753 -5.48095 0
M  V30 8627 O 849.664 -5.26658 -6.0736 0
M  V30 8628 H 849.396 -0.144456 -0.660385 0
M  V30 8629 H 851.95 -1.0496 -1.76557 0
M  V30 8630 H 850.18 0.438528 -3.84205 0
M  V30 8631 H 851.869 0.0797428 -4.05822 0
M  V30 8632 H 852.635 -2.39872 -4.21529 0
M  V30 8633 H 848.514 -1.19562 -4.45226 0
M  V30 8634 H 852.058 -4.54377 -5.29327 0
M  V30 8635 H 847.955 -3.33177 -5.52869 0
M  V30 8636 H 848.723 -5.27513 -6.25837 0
M  V30 8637 N 851.386 1.48609 -0.524698 0
M  V30 8638 C 852.611 2.07398 0.00952139 0
M  V30 8639 C 853.036 1.37939 1.27884 0
M  V30 8640 O 852.394 0.443633 1.75788 0
M  V30 8641 C 852.442 3.59916 0.221956 0
M  V30 8642 O 851.546 3.91647 1.29175 0
M  V30 8643 H 850.887 0.662981 -0.0367729 0
M  V30 8644 H 853.417 1.91092 -0.7311 0
M  V30 8645 H 853.427 4.05552 0.446236 0
M  V30 8646 H 852.102 4.09876 -0.705306 0
M  V30 8647 H 850.679 3.57796 1.05055 0
M  V30 8648 N 852.864 0.259585 1.55447 0
M  V30 8649 C 854.092 -0.365392 2.03648 0
M  V30 8650 C 854.507 -1.50613 1.13847 0
M  V30 8651 O 853.864 -1.81837 0.155414 0
M  V30 8652 C 853.915 -0.861172 3.51093 0
M  V30 8653 O 853.636 0.234121 4.37474 0
M  V30 8654 C 855.137 -1.55555 4.15111 0
M  V30 8655 H 852.357 -0.0853439 0.66555 0
M  V30 8656 H 854.901 0.387151 2.00802 0
M  V30 8657 H 853.056 -1.56385 3.54433 0
M  V30 8658 H 853.47 -0.1444 5.24301 0
M  V30 8659 H 854.944 -1.85403 5.19932 0
M  V30 8660 H 855.421 -2.48185 3.62355 0
M  V30 8661 H 856.027 -0.89712 4.15731 0
M  V30 8662 N 854.342 -1.57594 -0.0133615 0
M  V30 8663 C 855.567 -1.94649 -0.715996 0
M  V30 8664 C 855.992 -0.860786 -1.67249 0
M  V30 8665 O 855.35 0.182228 -1.80382 0
M  V30 8666 C 855.398 -3.30789 -1.43566 0
M  V30 8667 O 854.502 -3.24148 -2.54955 0
M  V30 8668 H 853.843 -0.635801 -0.191449 0
M  V30 8669 H 856.373 -2.04569 0.0358478 0
M  V30 8670 H 856.383 -3.66045 -1.80208 0
M  V30 8671 H 855.058 -4.09367 -0.734263 0
M  V30 8672 H 853.635 -3.00548 -2.20739 0
M  V30 8673 N 855.82 0.285905 -1.54985 0
M  V30 8674 C 857.066 1.02071 -1.75241 0
M  V30 8675 C 857.399 1.864 -0.544842 0
M  V30 8676 O 856.674 1.89034 0.457844 0
M  V30 8677 C 856.957 1.91409 -3.05016 0
M  V30 8678 C 856.81 1.10158 -4.36102 0
M  V30 8679 C 858.129 2.90335 -3.30747 0
M  V30 8680 H 855.248 0.369663 -0.637588 0
M  V30 8681 H 857.89 0.294114 -1.8771 0
M  V30 8682 H 856.04 2.53362 -2.94517 0
M  V30 8683 H 857.712 0.503756 -4.58541 0
M  V30 8684 H 855.955 0.404675 -4.31908 0
M  V30 8685 H 856.626 1.75956 -5.23205 0
M  V30 8686 H 859.102 2.38514 -3.40955 0
M  V30 8687 H 857.978 3.49997 -4.2284 0
M  V30 8688 H 858.239 3.64787 -2.49765 0
M  V30 8689 N 857.298 1.47698 0.54982 0
M  V30 8690 C 858.547 1.53961 1.30303 0
M  V30 8691 C 858.86 0.209731 1.94472 0
M  V30 8692 O 860.066 0.150418 2.71083 0
M  V30 8693 C 858.522 2.71436 2.36328 0
M  V30 8694 C 858.13 4.10983 1.78316 0
M  V30 8695 C 859.874 2.86996 3.12783 0
M  V30 8696 C 857.781 5.19747 2.82164 0
M  V30 8697 H 856.711 0.573098 0.489975 0
M  V30 8698 H 859.362 1.73989 0.583089 0
M  V30 8699 H 857.744 2.44801 3.11269 0
M  V30 8700 H 858.918 4.47552 1.09697 0
M  V30 8701 H 857.233 4.00371 1.1442 0
M  V30 8702 H 859.83 3.65422 3.90347 0
M  V30 8703 H 860.173 1.95712 3.67427 0
M  V30 8704 H 860.706 3.13436 2.44954 0
M  V30 8705 H 857.445 6.12932 2.32366 0
M  V30 8706 H 856.965 4.87688 3.49171 0
M  V30 8707 H 858.644 5.47014 3.4552 0
M  V30 8708 N 858.776 -0.797141 1.35954 0
M  V30 8709 C 860.004 -1.5858 1.32891 0
M  V30 8710 C 860.419 -1.88578 -0.0915564 0
M  V30 8711 O 859.776 -1.49532 -1.04625 0
M  V30 8712 C 859.827 -2.91143 2.14284 0
M  V30 8713 O 859.548 -2.62442 3.50793 0
M  V30 8714 C 861.049 -3.85476 2.18914 0
M  V30 8715 H 858.269 -0.492111 0.456144 0
M  V30 8716 H 860.813 -0.98994 1.78943 0
M  V30 8717 H 858.968 -3.47219 1.71807 0
M  V30 8718 H 859.382 -3.4715 3.93175 0
M  V30 8719 H 860.856 -4.75574 2.80238 0
M  V30 8720 H 861.333 -4.22758 1.19047 0
M  V30 8721 H 861.939 -3.35334 2.61593 0
M  V30 8722 N 860.254 -1.20106 -1.0204 0
M  V30 8723 C 861.479 -1.0351 -1.79723 0
M  V30 8724 C 861.904 0.411328 -1.83548 0
M  V30 8725 O 861.262 1.29608 -1.26773 0
M  V30 8726 C 861.31 -1.61876 -3.22224 0
M  V30 8727 O 860.414 -0.853813 -4.03465 0
M  V30 8728 H 859.755 -0.365299 -0.554484 0
M  V30 8729 H 862.285 -1.59316 -1.28373 0
M  V30 8730 H 862.295 -1.65451 -3.72948 0
M  V30 8731 H 860.97 -2.67148 -3.18755 0
M  V30 8732 H 859.547 -0.891983 -3.62075 0
M  V30 8733 N 861.732 1.21287 -1.00634 0
M  V30 8734 C 862.957 1.94925 -0.708441 0
M  V30 8735 C 863.382 1.73659 0.722783 0
M  V30 8736 O 862.74 1.02429 1.49593 0
M  V30 8737 C 862.788 3.45377 -1.03667 0
M  V30 8738 O 861.892 4.12153 -0.142661 0
M  V30 8739 H 861.233 0.609338 -0.263824 0
M  V30 8740 H 863.763 1.54008 -1.34695 0
M  V30 8741 H 863.773 3.95954 -0.984086 0
M  V30 8742 H 862.448 3.6018 -2.0795 0
M  V30 8743 H 861.025 3.72048 -0.251888 0
M  V30 8744 N 863.21 0.781244 1.36873 0
M  V30 8745 C 864.435 0.360398 2.04245 0
M  V30 8746 C 864.86 -1.01242 1.58529 0
M  V30 8747 O 864.218 -1.65063 0.749936 0
M  V30 8748 C 864.266 0.42329 3.58107 0
M  V30 8749 O 863.37 -0.572796 4.08403 0
M  V30 8750 H 862.711 0.154386 0.645803 0
M  V30 8751 H 865.241 1.06008 1.74996 0
M  V30 8752 H 865.251 0.283967 4.07011 0
M  V30 8753 H 863.926 1.42477 3.90734 0
M  V30 8754 H 862.503 -0.395809 3.70793 0
M  V30 8755 N 864.689 -1.48329 0.532571 0
M  V30 8756 C 865.917 -2.069 0.00354299 0
M  V30 8757 C 866.332 -1.38876 -1.27902 0
M  V30 8758 O 865.689 -0.477119 -1.76153 0
M  V30 8759 C 865.74 -3.60821 -0.221416 0
M  V30 8760 O 865.461 -4.26291 1.01034 0
M  V30 8761 C 866.962 -4.36194 -0.790531 0
M  V30 8762 H 864.182 -0.670103 0.0346836 0
M  V30 8763 H 866.726 -1.90682 0.738955 0
M  V30 8764 H 864.881 -3.76636 -0.906884 0
M  V30 8765 H 865.295 -5.18475 0.792683 0
M  V30 8766 H 866.769 -5.44657 -0.897347 0
M  V30 8767 H 867.246 -4.00798 -1.79605 0
M  V30 8768 H 867.852 -4.25064 -0.141546 0
M  V30 8769 N 866.167 -0.267825 -1.55308 0
M  V30 8770 C 867.583 0.0865107 -1.59365 0
M  V30 8771 C 867.783 1.55205 -1.28505 0
M  V30 8772 O 866.839 2.29978 -1.04241 0
M  V30 8773 C 868.152 -0.28155 -2.99379 0
M  V30 8774 C 869.7 -0.227565 -3.12172 0
M  V30 8775 C 870.175 -0.569959 -4.5444 0
M  V30 8776 N 871.666 -0.521238 -4.60258 0
M  V30 8777 C 872.401 -0.759061 -5.68354 0
M  V30 8778 N 871.897 -1.06112 -6.84626 0
M  V30 8779 N 873.69 -0.688351 -5.57869 0
M  V30 8780 H 865.841 -1.22332 -1.73633 0
M  V30 8781 H 868.104 -0.493703 -0.809297 0
M  V30 8782 H 867.81 -1.3005 -3.26772 0
M  V30 8783 H 867.684 0.381192 -3.75269 0
M  V30 8784 H 870.071 0.782093 -2.84548 0
M  V30 8785 H 870.152 -0.924461 -2.38511 0
M  V30 8786 H 869.796 -1.57727 -4.82788 0
M  V30 8787 H 869.726 0.148646 -5.2639 0
M  V30 8788 H 872.217 -0.297359 -3.76728 0
M  V30 8789 H 872.53 -1.22945 -7.62958 0
M  V30 8790 H 870.875 -1.09881 -6.86259 0
M  V30 8791 H 874.066 -0.452268 -4.6591 0
M  V30 8792 H 874.239 -0.877081 -6.42037 0
M  V30 8793 N 867.645 1.57599 0.00500368 0
M  V30 8794 C 868.555 2.11532 1.01446 0
M  V30 8795 C 869.571 1.05941 1.3803 0
M  V30 8796 O 870.747 1.37815 1.46864 0
M  V30 8797 C 867.812 2.60382 2.28915 0
M  V30 8798 C 866.873 3.80554 1.98689 0
M  V30 8799 C 866.106 4.27064 3.20081 0
M  V30 8800 O 866.329 3.72939 4.31593 0
M  V30 8801 O 865.263 5.1927 3.04371 0
M  V30 8802 H 869.089 2.97993 0.586011 0
M  V30 8803 H 866.674 1.47718 0.223519 0
M  V30 8804 H 868.556 2.92024 3.03809 0
M  V30 8805 H 867.231 1.77022 2.71007 0
M  V30 8806 H 866.138 3.53893 1.21286 0
M  V30 8807 H 867.471 4.64972 1.61437 0
M  V30 8808 N 869.123 -0.277682 1.55134 0
M  V30 8809 C 870.353 -1.02677 1.79279 0
M  V30 8810 C 870.761 -1.80599 0.563962 0
M  V30 8811 O 870.104 -1.77416 -0.476378 0
M  V30 8812 C 870.166 -2.03617 2.96277 0
M  V30 8813 C 869.83 -1.44676 4.33495 0
M  V30 8814 C 870.827 -0.864811 5.12657 0
M  V30 8815 C 868.512 -1.47537 4.80144 0
M  V30 8816 C 870.506 -0.319322 6.366 0
M  V30 8817 C 868.193 -0.926016 6.04043 0
M  V30 8818 C 869.191 -0.348988 6.82108 0
M  V30 8819 O 868.879 0.191964 8.03671 0
M  V30 8820 H 868.611 -0.309232 0.601125 0
M  V30 8821 H 871.165 -0.315308 2.02965 0
M  V30 8822 H 869.395 -2.78509 2.68272 0
M  V30 8823 H 871.084 -2.64616 3.07788 0
M  V30 8824 H 871.85 -0.835438 4.7775 0
M  V30 8825 H 867.729 -1.91389 4.19394 0
M  V30 8826 H 871.273 0.131709 6.97476 0
M  V30 8827 H 867.17 -0.952613 6.38432 0
M  V30 8828 H 867.938 0.0808779 8.1846 0
M  V30 8829 N 870.601 -1.47988 -0.541979 0
M  V30 8830 C 871.829 -1.59034 -1.32347 0
M  V30 8831 C 872.244 -0.246123 -1.87189 0
M  V30 8832 O 871.601 0.762889 -1.6579 0
M  V30 8833 C 871.652 -2.62759 -2.48274 0
M  V30 8834 O 871.373 -3.91963 -1.95695 0
M  V30 8835 C 872.874 -2.84133 -3.4027 0
M  V30 8836 H 870.094 -0.536574 -0.402901 0
M  V30 8837 H 872.638 -1.93725 -0.655045 0
M  V30 8838 H 870.793 -2.3096 -3.11025 0
M  V30 8839 H 871.207 -4.48769 -2.7149 0
M  V30 8840 H 872.681 -3.60538 -4.17991 0
M  V30 8841 H 873.158 -1.92512 -3.9476 0
M  V30 8842 H 873.764 -3.17188 -2.83322 0
M  V30 8843 N 872.079 0.78992 -1.36375 0
M  V30 8844 C 873.325 1.55007 -1.3077 0
M  V30 8845 C 873.658 1.93871 0.112979 0
M  V30 8846 O 872.933 1.6267 1.06625 0
M  V30 8847 C 873.216 2.82748 -2.22993 0
M  V30 8848 C 873.069 2.50253 -3.73756 0
M  V30 8849 C 874.388 3.84569 -2.13998 0
M  V30 8850 H 871.507 0.562362 -0.476359 0
M  V30 8851 H 874.149 0.907582 -1.66922 0
M  V30 8852 H 872.299 3.37573 -1.92292 0
M  V30 8853 H 873.971 2.01482 -4.14973 0
M  V30 8854 H 872.214 1.83203 -3.93216 0
M  V30 8855 H 872.885 3.41487 -4.33694 0
M  V30 8856 H 875.361 3.39188 -2.4102 0
M  V30 8857 H 874.237 4.717 -2.80697 0
M  V30 8858 H 874.498 4.27491 -1.12711 0
M  V30 8859 N 873.557 1.20646 1.01402 0
M  V30 8860 C 874.785 1.04389 1.78635 0
M  V30 8861 C 875.2 -0.406771 1.84366 0
M  V30 8862 O 874.557 -1.28239 1.2985 0
M  V30 8863 C 874.608 1.62378 3.22979 0
M  V30 8864 O 874.329 3.01768 3.17597 0
M  V30 8865 C 875.83 1.5111 4.1675 0
M  V30 8866 H 873.05 0.367077 0.56169 0
M  V30 8867 H 875.594 1.59789 1.27624 0
M  V30 8868 H 873.749 1.11092 3.7113 0
M  V30 8869 H 874.163 3.29331 4.08217 0
M  V30 8870 H 875.637 1.96441 5.15863 0
M  V30 8871 H 876.114 0.464011 4.36742 0
M  V30 8872 H 876.72 2.01599 3.74483 0
M  V30 8873 N 875.035 -1.20752 1.01276 0
M  V30 8874 C 875.945 -2.27079 0.589277 0
M  V30 8875 C 876.961 -1.6999 -0.371389 0
M  V30 8876 O 878.137 -2.00044 -0.233294 0
M  V30 8877 C 875.202 -3.4663 -0.0696715 0
M  V30 8878 C 874.263 -4.18962 0.936454 0
M  V30 8879 C 873.496 -5.32806 0.308856 0
M  V30 8880 O 873.719 -5.63376 -0.8924 0
M  V30 8881 O 872.653 -5.93131 1.02367 0
M  V30 8882 H 876.479 -2.6551 1.47438 0
M  V30 8883 H 874.064 -1.27297 0.782045 0
M  V30 8884 H 875.946 -4.19119 -0.437873 0
M  V30 8885 H 874.621 -3.10082 -0.929029 0
M  V30 8886 H 873.528 -3.48661 1.35595 0
M  V30 8887 H 874.861 -4.59441 1.76565 0
M  V30 8888 N 876.513 -0.788492 -1.36457 0
M  V30 8889 C 877.924 -0.423742 -1.81828 0
M  V30 8890 C 878.275 1.05221 -1.65599 0
M  V30 8891 O 877.4 1.8163 -1.17641 0
M  V30 8892 C 877.995 -0.762354 -3.30112 0
M  V30 8893 C 876.554 -0.450445 -3.73695 0
M  V30 8894 C 875.701 -0.997482 -2.58738 0
M  V30 8895 H 878.652 -0.981718 -1.24692 0
M  V30 8896 H 878.673 -0.0531136 -3.80463 0
M  V30 8897 H 878.185 -1.83662 -3.41891 0
M  V30 8898 H 876.286 0.615829 -3.67476 0
M  V30 8899 H 876.399 -0.970408 -4.69169 0
M  V30 8900 H 874.763 -0.420761 -2.51201 0
M  V30 8901 H 875.546 -2.07749 -2.73304 0
M  V30 8902 N 877.991 1.48044 -0.54043 0
M  V30 8903 C 878.901 2.33565 0.220163 0
M  V30 8904 C 879.917 1.47146 0.928659 0
M  V30 8905 O 881.093 1.80107 0.901295 0
M  V30 8906 C 878.158 3.2349 1.2472 0
M  V30 8907 C 877.219 4.25789 0.547938 0
M  V30 8908 C 876.452 5.11417 1.52605 0
M  V30 8909 O 876.675 4.99204 2.75956 0
M  V30 8910 O 875.609 5.92498 1.05972 0
M  V30 8911 H 879.435 2.99868 -0.480898 0
M  V30 8912 H 877.02 1.46332 -0.301226 0
M  V30 8913 H 878.902 3.79084 1.84047 0
M  V30 8914 H 877.577 2.59835 1.93048 0
M  V30 8915 H 876.484 3.74001 -0.0860941 0
M  V30 8916 H 877.817 4.92111 -0.0935896 0
M  V30 8917 N 879.47 0.276058 1.55163 0
M  V30 8918 C 880.886 -0.0780579 1.59409 0
M  V30 8919 C 881.086 -1.54521 1.29327 0
M  V30 8920 O 880.142 -2.29422 1.05459 0
M  V30 8921 C 881.455 0.297422 2.99225 0
M  V30 8922 C 883.003 0.244117 3.12047 0
M  V30 8923 C 883.478 0.594051 4.54131 0
M  V30 8924 N 884.969 0.54564 4.59975 0
M  V30 8925 C 885.704 0.789192 5.67943 0
M  V30 8926 N 885.2 1.09741 6.84053 0
M  V30 8927 N 886.993 0.717926 5.57496 0
M  V30 8928 H 879.144 1.23251 1.72982 0
M  V30 8929 H 881.407 0.497988 0.806667 0
M  V30 8930 H 881.113 1.31782 3.26077 0
M  V30 8931 H 880.987 -0.361286 3.75466 0
M  V30 8932 H 883.374 -0.766992 2.84958 0
M  V30 8933 H 883.455 0.937097 2.38017 0
M  V30 8934 H 883.099 1.60285 4.81945 0
M  V30 8935 H 883.029 -0.120728 5.26462 0
M  V30 8936 H 885.52 0.317334 3.76565 0
M  V30 8937 H 885.833 1.26989 7.62295 0
M  V30 8938 H 884.178 1.13519 6.85666 0
M  V30 8939 H 887.369 0.47697 4.65664 0
M  V30 8940 H 887.542 0.911118 6.41563 0
M  V30 8941 N 880.948 -1.576 0.00335426 0
M  V30 8942 C 882.225 -1.81945 -0.718015 0
M  V30 8943 C 882.605 -0.881788 -1.91801 0
M  V30 8944 O 881.953 0.0687118 -2.28397 0
M  V30 8945 C 882.163 -3.30521 -1.12058 0
M  V30 8946 C 883.511 -3.96345 -1.52303 0
M  V30 8947 O 884.535 -3.34864 -1.21428 0
M  V30 8948 O 883.394 -5.04655 -2.09728 0
M  V30 8949 H 880.488 -0.749328 -0.34991 0
M  V30 8950 H 883.034 -1.69675 0.0290654 0
M  V30 8951 H 881.806 -3.90399 -0.265378 0
M  V30 8952 H 881.429 -3.47802 -1.92665 0
M  V30 8953 N 882.426 0.269451 -1.5528 0
M  V30 8954 C 883.674 0.998604 -1.75705 0
M  V30 8955 C 883.995 1.86691 -0.563175 0
M  V30 8956 O 883.265 1.91305 0.421811 0
M  V30 8957 H 881.845 0.371698 -0.647958 0
M  V30 8958 H 884.507 0.292826 -1.92688 0
M  V30 8959 H 883.603 1.63348 -2.6594 0
M  V30 8960 N 883.904 1.48273 0.534124 0
M  V30 8961 C 884.867 1.6201 1.62127 0
M  V30 8962 C 885.867 0.493653 1.53035 0
M  V30 8963 O 887.057 0.759337 1.56779 0
M  V30 8964 C 884.189 1.5864 3.01739 0
M  V30 8965 H 885.382 2.58944 1.51288 0
M  V30 8966 H 882.935 1.36808 0.755861 0
M  V30 8967 H 883.67 0.631685 3.18088 0
M  V30 8968 H 883.455 2.40415 3.09747 0
M  V30 8969 H 884.945 1.71438 3.80787 0
M  V30 8970 N 885.382 -0.782676 1.36792 0
M  V30 8971 C 886.607 -1.57676 1.34733 0
M  V30 8972 C 887.032 -1.87979 -0.0675253 0
M  V30 8973 O 886.39 -1.48404 -1.04144 0
M  V30 8974 C 886.438 -2.87047 2.18257 0
M  V30 8975 O 885.542 -3.80946 1.57969 0
M  V30 8976 H 884.883 -0.478034 0.460846 0
M  V30 8977 H 887.413 -0.969578 1.80168 0
M  V30 8978 H 887.423 -3.36254 2.31079 0
M  V30 8979 H 886.098 -2.64319 3.21104 0
M  V30 8980 H 884.675 -3.39558 1.54126 0
M  V30 8981 N 886.86 -1.21182 -1.00761 0
M  V30 8982 C 888.271 -1.02652 -1.55947 0
M  V30 8983 C 888.622 0.414466 -1.91772 0
M  V30 8984 O 887.747 1.29727 -1.73204 0
M  V30 8985 C 888.342 -1.85713 -2.83366 0
M  V30 8986 C 886.901 -1.71523 -3.35048 0
M  V30 8987 C 886.048 -1.83087 -2.08265 0
M  V30 8988 H 888.999 -1.35242 -0.830379 0
M  V30 8989 H 889.02 -1.36583 -3.55141 0
M  V30 8990 H 888.532 -2.90584 -2.5726 0
M  V30 8991 H 886.633 -0.693257 -3.66094 0
M  V30 8992 H 886.746 -2.53333 -4.06644 0
M  V30 8993 H 885.11 -1.26367 -2.21141 0
M  V30 8994 H 885.893 -2.8946 -1.84575 0
M  V30 8995 N 888.338 1.20213 -1.01915 0
M  V30 8996 C 889.563 1.94163 -0.729076 0
M  V30 8997 C 889.988 1.74416 0.704323 0
M  V30 8998 O 889.346 1.0401 1.48498 0
M  V30 8999 C 889.394 3.44258 -1.07324 0
M  V30 9000 O 888.498 4.11979 -0.186367 0
M  V30 9001 H 887.839 0.606506 -0.270272 0
M  V30 9002 H 890.369 1.52571 -1.3632 0
M  V30 9003 H 890.379 3.94888 -1.02603 0
M  V30 9004 H 889.054 3.57954 -2.11759 0
M  V30 9005 H 887.631 3.7176 -0.291334 0
M  V30 9006 N 889.816 0.795718 1.36037 0
M  V30 9007 C 891.232 0.478145 1.52269 0
M  V30 9008 C 891.432 -1.0025 1.74792 0
M  V30 9009 O 890.488 -1.78783 1.78305 0
M  V30 9010 C 891.801 1.31406 2.70468 0
M  V30 9011 C 893.349 1.3084 2.84341 0
M  V30 9012 C 893.824 2.12819 4.05551 0
M  V30 9013 N 895.315 2.10298 4.12709 0
M  V30 9014 C 896.05 2.70495 5.05589 0
M  V30 9015 N 895.546 3.39576 6.03871 0
M  V30 9016 N 897.339 2.60195 4.98252 0
M  V30 9017 H 889.49 1.75477 1.19673 0
M  V30 9018 H 891.753 0.74627 0.584624 0
M  V30 9019 H 891.459 2.36435 2.60368 0
M  V30 9020 H 891.333 0.959726 3.64786 0
M  V30 9021 H 893.72 0.266003 2.93899 0
M  V30 9022 H 893.801 1.70254 1.90912 0
M  V30 9023 H 893.445 3.17093 3.96755 0
M  V30 9024 H 893.375 1.70772 4.98141 0
M  V30 9025 H 895.866 1.60026 3.42345 0
M  V30 9026 H 896.179 3.82823 6.71317 0
M  V30 9027 H 894.524 3.43679 6.04077 0
M  V30 9028 H 897.715 2.05823 4.20422 0
M  V30 9029 H 897.888 3.074 5.70447 0
M  V30 9030 N 891.294 -1.47756 0.548274 0
M  V30 9031 C 892.543 -2.01691 0.0187961 0
M  V30 9032 C 892.856 -1.42894 -1.33569 0
M  V30 9033 O 894.062 -1.88438 -1.95457 0
M  V30 9034 C 892.518 -3.59896 -0.016847 0
M  V30 9035 C 892.126 -4.27683 1.33385 0
M  V30 9036 C 893.87 -4.21614 -0.494188 0
M  V30 9037 C 891.777 -5.7787 1.2578 0
M  V30 9038 H 890.707 -0.753993 0.00325648 0
M  V30 9039 H 893.358 -1.69838 0.694792 0
M  V30 9040 H 891.74 -3.88672 -0.758304 0
M  V30 9041 H 892.914 -4.10559 2.09232 0
M  V30 9042 H 891.229 -3.77915 1.7484 0
M  V30 9043 H 893.826 -5.3166 -0.569342 0
M  V30 9044 H 894.169 -3.88176 -1.50417 0
M  V30 9045 H 894.702 -3.97336 0.192138 0
M  V30 9046 H 891.441 -6.15912 2.2435 0
M  V30 9047 H 890.961 -5.97355 0.540997 0
M  V30 9048 H 892.64 -6.39897 0.956109 0
M  V30 9049 N 892.772 -0.284283 -1.55015 0
M  V30 9050 C 894.002 0.332465 -2.03907 0
M  V30 9051 C 894.41 1.49331 -1.16177 0
M  V30 9052 O 893.753 1.82851 -0.176395 0
M  V30 9053 C 893.815 0.867193 -3.48884 0
M  V30 9054 C 893.479 -0.166198 -4.56698 0
M  V30 9055 C 894.476 -0.988898 -5.10408 0
M  V30 9056 C 892.161 -0.303081 -5.01385 0
M  V30 9057 C 894.155 -1.93458 -6.07333 0
M  V30 9058 C 891.842 -1.25223 -5.98133 0
M  V30 9059 C 892.84 -2.06647 -6.50988 0
M  V30 9060 O 892.528 -2.99955 -7.45843 0
M  V30 9061 H 892.26 0.0786597 -0.671408 0
M  V30 9062 H 894.814 -0.416871 -2.01125 0
M  V30 9063 H 893.044 1.66676 -3.48935 0
M  V30 9064 H 894.733 1.39802 -3.81065 0
M  V30 9065 H 895.499 -0.89393 -4.76691 0
M  V30 9066 H 891.378 0.320711 -4.59883 0
M  V30 9067 H 894.922 -2.57053 -6.48513 0
M  V30 9068 H 890.819 -1.34798 -6.31268 0
M  V30 9069 H 891.587 -2.94742 -7.6359 0
M  V30 9070 N 894.251 1.57596 -0.0117121 0
M  V30 9071 C 895.479 1.9536 0.681334 0
M  V30 9072 C 895.894 0.887255 1.66653 0
M  V30 9073 O 895.251 -0.132692 1.82017 0
M  V30 9074 C 895.302 3.33165 1.40298 0
M  V30 9075 O 895.023 4.35707 0.45728 0
M  V30 9076 C 896.524 3.85458 2.18946 0
M  V30 9077 H 893.744 0.643826 0.189023 0
M  V30 9078 H 896.288 2.04392 -0.066311 0
M  V30 9079 H 894.443 3.25404 2.10216 0
M  V30 9080 H 894.857 5.15495 0.96773 0
M  V30 9081 H 896.331 4.84275 2.64918 0
M  V30 9082 H 896.808 3.18781 3.02118 0
M  V30 9083 H 897.414 3.96431 1.5402 0
M  V30 9084 N 895.729 -0.261212 1.5542 0
M  V30 9085 C 896.959 -1.00769 1.80358 0
M  V30 9086 C 897.367 -1.79991 0.583085 0
M  V30 9087 O 896.71 -1.77911 -0.457534 0
M  V30 9088 C 896.772 -2.00463 2.9842 0
M  V30 9089 C 896.436 -1.4007 4.35005 0
M  V30 9090 C 897.433 -0.810388 5.13545 0
M  V30 9091 C 895.118 -1.42436 4.81682 0
M  V30 9092 C 897.112 -0.251784 6.36903 0
M  V30 9093 C 894.799 -0.861897 6.04991 0
M  V30 9094 C 895.797 -0.276622 6.8244 0
M  V30 9095 O 895.485 0.277194 8.03422 0
M  V30 9096 H 895.217 -0.302839 0.604371 0
M  V30 9097 H 897.771 -0.293763 2.03288 0
M  V30 9098 H 896.001 -2.75648 2.71211 0
M  V30 9099 H 897.69 -2.61336 3.10577 0
M  V30 9100 H 898.456 -0.784719 4.7861 0
M  V30 9101 H 894.335 -1.8693 4.214 0
M  V30 9102 H 897.879 0.205678 6.97297 0
M  V30 9103 H 893.776 -0.884846 6.39407 0
M  V30 9104 H 894.544 0.167682 8.18328 0
M  V30 9105 N 897.207 -1.48554 -0.526253 0
M  V30 9106 C 898.139 -1.59446 -1.6465 0
M  V30 9107 C 899.152 -0.478525 -1.55608 0
M  V30 9108 O 900.341 -0.74953 -1.62001 0
M  V30 9109 C 897.441 -1.51164 -3.03319 0
M  V30 9110 C 896.614 -2.77861 -3.37805 0
M  V30 9111 C 895.673 -2.62982 -4.5577 0
M  V30 9112 O 894.699 -3.36876 -4.58806 0
M  V30 9113 N 895.901 -1.72847 -5.5417 0
M  V30 9114 H 898.666 -2.56055 -1.55743 0
M  V30 9115 H 896.227 -1.45325 -0.713606 0
M  V30 9116 H 898.219 -1.389 -3.80117 0
M  V30 9117 H 896.789 -0.625147 -3.06285 0
M  V30 9118 H 896.009 -3.04663 -2.50149 0
M  V30 9119 H 897.297 -3.61908 -3.57632 0
M  V30 9120 H 896.695 -1.12022 -5.54498 0
M  V30 9121 H 895.252 -1.6652 -6.3017 0
M  V30 9122 N 898.685 0.775411 -1.37205 0
M  V30 9123 C 899.931 1.53533 -1.33414 0
M  V30 9124 C 900.286 1.92225 0.0819435 0
M  V30 9125 O 899.579 1.60935 1.03974 0
M  V30 9126 C 899.773 2.81377 -2.20367 0
M  V30 9127 C 899.602 2.5518 -3.70288 0
M  V30 9128 C 898.372 2.49493 -4.3941 0
M  V30 9129 C 900.57 2.23425 -4.63234 0
M  V30 9130 N 898.552 2.15341 -5.74892 0
M  V30 9131 C 899.923 1.99381 -5.87067 0
M  V30 9132 C 901.978 2.09549 -4.51657 0
M  V30 9133 C 900.681 1.62863 -7.0062 0
M  V30 9134 C 902.707 1.74431 -5.65091 0
M  V30 9135 C 902.069 1.51245 -6.87971 0
M  V30 9136 H 898.168 0.562278 -0.543477 0
M  V30 9137 H 900.752 0.90495 -1.72391 0
M  V30 9138 H 898.923 3.42259 -1.83612 0
M  V30 9139 H 900.655 3.4724 -2.07861 0
M  V30 9140 H 897.41 2.65221 -3.9237 0
M  V30 9141 H 897.834 2.00972 -6.46482 0
M  V30 9142 H 902.476 2.26159 -3.57228 0
M  V30 9143 H 900.194 1.44991 -7.94986 0
M  V30 9144 H 903.78 1.64359 -5.58102 0
M  V30 9145 H 902.66 1.24472 -7.74259 0
M  V30 9146 N 900.163 1.21714 1.00117 0
M  V30 9147 C 901.579 0.97532 1.26332 0
M  V30 9148 C 901.779 -0.336029 1.98678 0
M  V30 9149 O 900.835 -1.06073 2.29139 0
M  V30 9150 C 902.148 2.16848 2.0832 0
M  V30 9151 C 903.696 2.21115 2.21533 0
M  V30 9152 C 904.171 3.3996 3.06906 0
M  V30 9153 N 905.662 3.40071 3.14494 0
M  V30 9154 C 906.397 4.28678 3.80818 0
M  V30 9155 N 905.893 5.2749 4.49139 0
M  V30 9156 N 907.686 4.16476 3.77497 0
M  V30 9157 H 899.837 2.06039 0.515897 0
M  V30 9158 H 902.1 0.902423 0.290408 0
M  V30 9159 H 901.806 3.119 1.62515 0
M  V30 9160 H 901.68 2.16226 3.09073 0
M  V30 9161 H 904.067 1.26616 2.66557 0
M  V30 9162 H 904.148 2.2578 1.20238 0
M  V30 9163 H 903.792 4.34755 2.62585 0
M  V30 9164 H 903.722 3.32534 4.08324 0
M  V30 9165 H 906.213 2.68563 2.65861 0
M  V30 9166 H 906.526 5.91397 4.97463 0
M  V30 9167 H 904.871 5.31412 4.47914 0
M  V30 9168 H 908.062 3.38539 3.23278 0
M  V30 9169 H 908.235 4.85739 4.28908 0
M  V30 9170 N 901.641 -1.19671 1.02551 0
M  V30 9171 C 902.573 -2.22215 0.561517 0
M  V30 9172 C 903.586 -1.58751 -0.360821 0
M  V30 9173 O 904.775 -1.77802 -0.157749 0
M  V30 9174 C 901.875 -3.383 -0.201494 0
M  V30 9175 C 901.048 -4.3135 0.724952 0
M  V30 9176 C 900.107 -5.26199 0.00794334 0
M  V30 9177 O 899.133 -5.65665 0.633398 0
M  V30 9178 N 900.335 -5.66573 -1.26394 0
M  V30 9179 H 903.1 -2.6265 1.44343 0
M  V30 9180 H 900.661 -1.34303 0.904122 0
M  V30 9181 H 902.653 -3.98764 -0.690625 0
M  V30 9182 H 901.223 -2.96683 -0.98479 0
M  V30 9183 H 900.443 -3.6872 1.39423 0
M  V30 9184 H 901.731 -4.90433 1.35472 0
M  V30 9185 H 901.129 -5.36538 -1.79287 0
M  V30 9186 H 899.686 -6.29304 -1.69763 0
M  V30 9187 N 903.119 -0.802921 -1.35613 0
M  V30 9188 C 904.347 -0.39393 -2.03115 0
M  V30 9189 C 904.762 0.993961 -1.60517 0
M  V30 9190 O 904.119 1.63984 -0.800973 0
M  V30 9191 C 904.17 -0.463486 -3.58516 0
M  V30 9192 O 903.891 -1.79666 -3.99565 0
M  V30 9193 C 905.392 -0.0468377 -4.43275 0
M  V30 9194 H 902.612 -0.160519 -0.651517 0
M  V30 9195 H 905.156 -1.08552 -1.73311 0
M  V30 9196 H 903.311 0.179821 -3.86982 0
M  V30 9197 H 903.725 -1.75688 -4.942 0
M  V30 9198 H 905.199 -0.146626 -5.51805 0
M  V30 9199 H 905.676 1.00741 -4.2749 0
M  V30 9200 H 906.282 -0.663158 -4.20098 0
M  V30 9201 N 904.597 1.47463 -0.556102 0
M  V30 9202 C 905.846 2.01678 -0.029492 0
M  V30 9203 C 906.159 1.436 1.32809 0
M  V30 9204 O 907.365 1.89472 1.94455 0
M  V30 9205 C 905.821 3.599 -0.00223937 0
M  V30 9206 C 905.429 4.26969 -1.35651 0
M  V30 9207 C 907.173 4.2187 0.471822 0
M  V30 9208 C 905.08 5.77194 -1.28843 0
M  V30 9209 H 904.01 0.753965 -0.00725504 0
M  V30 9210 H 906.661 1.69467 -0.703789 0
M  V30 9211 H 905.043 3.89068 0.737682 0
M  V30 9212 H 906.217 4.09444 -2.11406 0
M  V30 9213 H 904.532 3.76983 -1.76842 0
M  V30 9214 H 907.129 5.31955 0.541139 0
M  V30 9215 H 907.472 3.88968 1.48356 0
M  V30 9216 H 908.005 3.97228 -0.213207 0
M  V30 9217 H 904.744 6.14713 -2.27613 0
M  V30 9218 H 904.264 5.9706 -0.572668 0
M  V30 9219 H 905.943 6.3938 -0.990031 0
M  V30 9220 N 906.075 0.2925 1.54862 0
M  V30 9221 C 907.303 -0.322113 2.04377 0
M  V30 9222 C 907.718 -1.48164 1.17016 0
M  V30 9223 O 907.075 -1.81466 0.19395 0
M  V30 9224 C 907.126 -0.786506 3.5284 0
M  V30 9225 O 906.847 0.326863 4.36879 0
M  V30 9226 C 908.348 -1.46715 4.18318 0
M  V30 9227 H 905.568 -0.0712074 0.667211 0
M  V30 9228 H 908.112 0.429657 1.99935 0
M  V30 9229 H 906.267 -1.48832 3.5767 0
M  V30 9230 H 906.681 -0.0331558 5.2449 0
M  V30 9231 H 908.155 -1.74333 5.23748 0
M  V30 9232 H 908.632 -2.40443 3.67538 0
M  V30 9233 H 909.238 -0.808735 4.1754 0
M  V30 9234 N 907.553 -1.57587 0.0200696 0
M  V30 9235 C 908.8 -1.91424 -0.660525 0
M  V30 9236 C 909.128 -0.895626 -1.72652 0
M  V30 9237 O 908.383 0.096771 -1.95461 0
M  V30 9238 C 908.682 -3.32002 -1.32323 0
M  V30 9239 C 908.348 -4.49223 -0.388487 0
M  V30 9240 C 907.01 -4.81021 -0.131184 0
M  V30 9241 C 909.362 -5.20581 0.253906 0
M  V30 9242 C 906.69 -5.81539 0.776471 0
M  V30 9243 C 909.042 -6.22067 1.14956 0
M  V30 9244 C 907.706 -6.52311 1.41584 0
M  V30 9245 H 906.976 -0.700472 -0.241703 0
M  V30 9246 H 909.623 -1.91333 0.0798991 0
M  V30 9247 H 907.928 -3.28312 -2.13819 0
M  V30 9248 H 909.625 -3.5545 -1.85623 0
M  V30 9249 H 906.215 -4.24391 -0.599207 0
M  V30 9250 H 910.399 -4.96253 0.068164 0
M  V30 9251 H 905.655 -6.03322 0.990575 0
M  V30 9252 H 909.829 -6.76484 1.65357 0
M  V30 9253 H 907.456 -7.30017 2.12083 0
M  V30 9254 N 909.032 0.252966 -1.55557 0
M  V30 9255 C 909.964 1.33585 -1.86246 0
M  V30 9256 C 910.977 1.44584 -0.748291 0
M  V30 9257 O 912.166 1.46042 -1.02635 0
M  V30 9258 C 909.266 2.71509 -2.02821 0
M  V30 9259 C 908.439 2.82853 -3.33636 0
M  V30 9260 C 907.498 4.01581 -3.40028 0
M  V30 9261 O 906.524 3.91394 -4.13278 0
M  V30 9262 N 907.726 5.14474 -2.6888 0
M  V30 9263 H 910.491 1.07596 -2.7972 0
M  V30 9264 H 908.052 0.443075 -1.55719 0
M  V30 9265 H 910.044 3.49262 -2.04445 0
M  V30 9266 H 908.614 2.90232 -1.1612 0
M  V30 9267 H 907.834 1.91823 -3.4438 0
M  V30 9268 H 909.122 2.87378 -4.19871 0
M  V30 9269 H 908.52 5.25641 -2.09087 0
M  V30 9270 H 907.077 5.90385 -2.76204 0
M  V30 9271 N 910.51 1.48831 0.518367 0
M  V30 9272 C 911.42 1.6692 1.64848 0
M  V30 9273 C 912.436 0.551711 1.65022 0
M  V30 9274 O 913.612 0.824251 1.83761 0
M  V30 9275 C 910.677 1.71559 3.01278 0
M  V30 9276 C 909.738 2.9502 3.11868 0
M  V30 9277 C 908.971 2.99428 4.4179 0
M  V30 9278 O 909.194 2.11914 5.29574 0
M  V30 9279 O 908.128 3.91719 4.5699 0
M  V30 9280 H 911.954 2.62623 1.52521 0
M  V30 9281 H 909.539 1.32368 0.692749 0
M  V30 9282 H 911.421 1.77064 3.82396 0
M  V30 9283 H 910.096 0.790316 3.13904 0
M  V30 9284 H 909.003 2.95042 2.30003 0
M  V30 9285 H 910.336 3.8697 3.04163 0
M  V30 9286 N 911.988 -0.768124 1.37614 0
M  V30 9287 C 913.228 -1.53979 1.34424 0
M  V30 9288 C 913.592 -1.91874 -0.0696803 0
M  V30 9289 O 914.793 -2.67845 -0.22633 0
M  V30 9290 C 913.064 -2.76845 2.26034 0
M  V30 9291 S 914.623 -3.66871 2.4073 0
M  V30 9292 H 911.441 -0.527108 0.477157 0
M  V30 9293 H 914.043 -0.902945 1.73399 0
M  V30 9294 H 912.747 -2.47091 3.2768 0
M  V30 9295 H 912.278 -3.45486 1.88157 0
M  V30 9296 H 914.293 -4.6899 1.62057 0
M  V30 9297 N 913.466 -1.22244 -0.994698 0
M  V30 9298 C 914.712 -1.04746 -1.73655 0
M  V30 9299 C 915.045 0.41668 -1.89677 0
M  V30 9300 O 914.32 1.30897 -1.43862 0
M  V30 9301 C 914.603 -1.75716 -3.14318 0
M  V30 9302 C 914.456 -3.29714 -3.05955 0
M  V30 9303 C 915.775 -1.50809 -4.13455 0
M  V30 9304 H 912.894 -0.381921 -0.630322 0
M  V30 9305 H 915.536 -1.50559 -1.15897 0
M  V30 9306 H 913.686 -1.3677 -3.63629 0
M  V30 9307 H 915.358 -3.78093 -2.64279 0
M  V30 9308 H 913.601 -3.59484 -2.42804 0
M  V30 9309 H 914.272 -3.74547 -4.05485 0
M  V30 9310 H 916.748 -1.84636 -3.72892 0
M  V30 9311 H 915.624 -2.02964 -5.09997 0
M  V30 9312 H 915.885 -0.440292 -4.39902 0
M  V30 9313 N 914.944 1.19125 -1.03184 0
M  V30 9314 C 915.894 2.20348 -0.585731 0
M  V30 9315 C 916.878 1.56656 0.367109 0
M  V30 9316 O 918.07 1.76003 0.187598 0
M  V30 9317 C 915.199 3.43249 0.0590006 0
M  V30 9318 C 914.285 4.1408 -0.916457 0
M  V30 9319 N 914.676 4.61051 -2.08005 0
M  V30 9320 C 912.974 4.39809 -0.74054 0
M  V30 9321 C 913.675 5.15477 -2.69552 0
M  V30 9322 N 912.651 5.06456 -1.97493 0
M  V30 9323 H 916.453 2.54346 -1.47259 0
M  V30 9324 H 913.967 1.35232 -0.899225 0
M  V30 9325 H 915.964 4.15013 0.396236 0
M  V30 9326 H 914.624 3.1075 0.941507 0
M  V30 9327 H 915.635 4.55782 -2.45934 0
M  V30 9328 H 912.312 4.17397 0.0926238 0
M  V30 9329 H 913.702 5.62088 -3.68112 0
M  V30 9330 N 916.422 0.810101 1.35185 0
M  V30 9331 C 917.699 0.315235 1.93043 0
M  V30 9332 C 918.079 -1.19567 1.73974 0
M  V30 9333 O 917.427 -1.99682 1.11083 0
M  V30 9334 C 917.637 0.730492 3.41269 0
M  V30 9335 C 918.985 0.721985 4.18417 0
M  V30 9336 O 920.009 0.672258 3.49799 0
M  V30 9337 O 918.868 0.783535 5.40854 0
M  V30 9338 H 915.962 0.0832774 0.822796 0
M  V30 9339 H 918.508 0.894034 1.4424 0
M  V30 9340 H 917.28 1.77169 3.48894 0
M  V30 9341 H 916.903 0.12669 3.97398 0
M  V30 9342 N 917.9 -1.47166 0.563914 0
M  V30 9343 C 919.177 -1.95586 -0.0236172 0
M  V30 9344 C 919.557 -1.50655 -1.47872 0
M  V30 9345 O 918.905 -0.748479 -2.15894 0
M  V30 9346 C 919.115 -3.48762 0.128841 0
M  V30 9347 C 920.463 -4.24598 -0.0130544 0
M  V30 9348 O 921.487 -3.56155 0.0567242 0
M  V30 9349 O 920.346 -5.46253 -0.164332 0
M  V30 9350 H 917.44 -0.824793 -0.0603789 0
M  V30 9351 H 919.986 -1.57536 0.63091 0
M  V30 9352 H 918.758 -3.74291 1.14113 0
M  V30 9353 H 918.381 -3.93594 -0.56299 0
M  V30 9354 N 919.378 -0.300708 -1.54705 0
M  V30 9355 C 920.603 0.314073 -2.05008 0
M  V30 9356 C 921.028 1.46759 -1.17657 0
M  V30 9357 O 920.386 1.80398 -0.180598 0
M  V30 9358 C 920.434 0.748243 -3.52752 0
M  V30 9359 O 919.538 1.85305 -3.68424 0
M  V30 9360 H 918.879 0.0610139 -0.661191 0
M  V30 9361 H 921.409 -0.442467 -1.99758 0
M  V30 9362 H 921.419 1.03713 -3.94598 0
M  V30 9363 H 920.094 -0.095573 -4.1579 0
M  V30 9364 H 918.671 1.56473 -3.38483 0
M  V30 9365 N 920.856 1.57574 -0.0284266 0
M  V30 9366 C 922.272 1.56194 0.327958 0
M  V30 9367 C 922.472 1.03397 1.72949 0
M  V30 9368 O 921.528 0.680392 2.4316 0
M  V30 9369 C 922.841 3.00177 0.177196 0
M  V30 9370 C 924.389 3.12 0.250014 0
M  V30 9371 C 924.864 4.57821 0.128049 0
M  V30 9372 N 926.355 4.6283 0.185054 0
M  V30 9373 C 927.09 5.73286 0.114454 0
M  V30 9374 N 926.586 6.928 -0.00719225 0
M  V30 9375 N 928.379 5.61848 0.16839 0
M  V30 9376 H 920.53 1.90224 -0.944921 0
M  V30 9377 H 922.793 0.874987 -0.364832 0
M  V30 9378 H 922.499 3.42753 -0.788224 0
M  V30 9379 H 922.373 3.65101 0.94768 0
M  V30 9380 H 924.76 2.69337 1.20589 0
M  V30 9381 H 924.841 2.49799 -0.550835 0
M  V30 9382 H 924.485 5.01165 -0.824407 0
M  V30 9383 H 924.415 5.18001 0.947753 0
M  V30 9384 H 926.906 3.76867 0.279247 0
M  V30 9385 H 927.219 7.72781 -0.0543903 0
M  V30 9386 H 925.564 6.94987 -0.0419648 0
M  V30 9387 H 928.755 4.67367 0.261821 0
M  V30 9388 H 928.928 6.47907 0.109908 0
M  V30 9389 N 922.334 -0.244713 1.55689 0
M  V30 9390 C 923.745 -0.813603 1.6804 0
M  V30 9391 C 924.096 -1.85936 0.626281 0
M  V30 9392 O 923.221 -2.15206 -0.227038 0
M  V30 9393 C 923.816 -1.48252 3.04642 0
M  V30 9394 C 922.375 -1.99908 3.18926 0
M  V30 9395 C 921.522 -0.850958 2.6392 0
M  V30 9396 H 924.473 -0.0204805 1.58687 0
M  V30 9397 H 924.494 -2.35062 2.99209 0
M  V30 9398 H 924.006 -0.721164 3.81341 0
M  V30 9399 H 922.107 -2.78918 2.47054 0
M  V30 9400 H 922.22 -2.19497 4.25862 0
M  V30 9401 H 920.584 -1.25206 2.21801 0
M  V30 9402 H 921.367 -0.10265 3.43146 0
M  V30 9403 N 923.813 -1.49104 -0.510467 0
M  V30 9404 C 924.776 -1.64569 -1.59529 0
M  V30 9405 C 925.776 -0.517937 -1.5223 0
M  V30 9406 O 926.966 -0.784183 -1.55551 0
M  V30 9407 C 924.098 -1.6342 -2.99177 0
M  V30 9408 H 925.291 -2.61318 -1.4715 0
M  V30 9409 H 922.844 -1.37993 -0.734001 0
M  V30 9410 H 923.579 -0.68221 -3.17043 0
M  V30 9411 H 923.364 -2.45312 -3.05883 0
M  V30 9412 H 924.854 -1.77474 -3.78011 0
M  V30 9413 N 925.291 0.760815 -1.38019 0
M  V30 9414 C 926.221 1.88811 -1.37377 0
M  V30 9415 C 927.202 1.68388 -0.240737 0
M  V30 9416 O 928.387 1.89086 -0.442739 0
M  V30 9417 C 925.517 3.26244 -1.1909 0
M  V30 9418 C 924.471 3.61254 -2.29521 0
M  V30 9419 C 923.797 4.97346 -1.96345 0
M  V30 9420 C 925.097 3.66874 -3.71753 0
M  V30 9421 H 926.791 1.89606 -2.31711 0
M  V30 9422 H 924.337 0.910818 -1.11535 0
M  V30 9423 H 926.29 4.04755 -1.17267 0
M  V30 9424 H 925.014 3.2591 -0.212152 0
M  V30 9425 H 923.673 2.85057 -2.30517 0
M  V30 9426 H 923.321 4.93564 -0.969728 0
M  V30 9427 H 923.021 5.21739 -2.703 0
M  V30 9428 H 924.545 5.78244 -1.96129 0
M  V30 9429 H 925.959 4.35514 -3.72828 0
M  V30 9430 H 924.356 4.02772 -4.44853 0
M  V30 9431 H 925.426 2.67273 -4.0459 0
M  V30 9432 N 926.769 1.22769 0.988202 0
M  V30 9433 C 928.18 1.0512 1.54294 0
M  V30 9434 C 928.531 -0.383904 1.92407 0
M  V30 9435 O 927.656 -1.26955 1.75246 0
M  V30 9436 C 928.251 1.90198 2.80375 0
M  V30 9437 C 926.81 1.76831 3.32276 0
M  V30 9438 C 925.957 1.86377 2.05326 0
M  V30 9439 H 928.908 1.36546 0.808758 0
M  V30 9440 H 928.929 1.42216 3.52923 0
M  V30 9441 H 928.441 2.9464 2.52605 0
M  V30 9442 H 926.542 0.751412 3.64945 0
M  V30 9443 H 926.655 2.59771 4.02562 0
M  V30 9444 H 925.019 1.2987 2.19103 0
M  V30 9445 H 925.802 2.9236 1.79946 0
M  V30 9446 N 928.247 -1.18576 1.03814 0
M  V30 9447 C 929.472 -1.92978 0.759873 0
M  V30 9448 C 929.897 -1.75514 -0.676486 0
M  V30 9449 O 929.255 -1.06359 -1.46824 0
M  V30 9450 C 929.303 -3.42507 1.12788 0
M  V30 9451 O 928.407 -4.1163 0.251886 0
M  V30 9452 H 927.748 -0.602129 0.279886 0
M  V30 9453 H 930.278 -1.50383 1.3873 0
M  V30 9454 H 930.288 -3.93206 1.08872 0
M  V30 9455 H 928.963 -3.5454 2.17427 0
M  V30 9456 H 927.54 -3.7125 0.350441 0
M  V30 9457 N 929.725 -0.817259 -1.34754 0
M  V30 9458 C 930.953 -0.415451 -2.02686 0
M  V30 9459 C 931.368 0.97688 -1.61563 0
M  V30 9460 O 930.725 1.63125 -0.818321 0
M  V30 9461 C 930.776 -0.501486 -3.58005 0
M  V30 9462 O 930.497 -1.83893 -3.97637 0
M  V30 9463 C 931.998 -0.0938504 -4.43201 0
M  V30 9464 H 929.218 -0.16742 -0.649778 0
M  V30 9465 H 931.762 -1.10384 -1.7215 0
M  V30 9466 H 929.917 0.138766 -3.87151 0
M  V30 9467 H 930.331 -1.8092 -4.92309 0
M  V30 9468 H 931.805 -0.205145 -5.51619 0
M  V30 9469 H 932.282 0.962011 -4.28535 0
M  V30 9470 H 932.888 -0.707677 -4.19371 0
M  V30 9471 N 931.203 1.46865 -0.571711 0
M  V30 9472 C 932.135 2.28277 0.205479 0
M  V30 9473 C 933.148 1.37866 0.865835 0
M  V30 9474 O 934.337 1.62564 0.737247 0
M  V30 9475 C 931.437 3.12572 1.30965 0
M  V30 9476 C 930.61 4.31038 0.743328 0
M  V30 9477 C 929.669 4.96815 1.73382 0
M  V30 9478 O 928.695 5.54755 1.2742 0
M  V30 9479 N 929.897 4.92825 3.06764 0
M  V30 9480 H 932.662 2.95618 -0.49294 0
M  V30 9481 H 930.223 1.56655 -0.408744 0
M  V30 9482 H 932.215 3.53442 1.97131 0
M  V30 9483 H 930.785 2.47378 1.91109 0
M  V30 9484 H 930.005 3.94084 -0.0955004 0
M  V30 9485 H 931.293 5.07632 0.344556 0
M  V30 9486 H 930.691 4.46978 3.46738 0
M  V30 9487 H 929.248 5.3767 3.68449 0
M  V30 9488 N 932.681 0.308908 1.54543 0
M  V30 9489 C 933.613 -0.597453 2.21276 0
M  V30 9490 C 934.626 -1.09137 1.20801 0
M  V30 9491 O 935.815 -1.00747 1.47351 0
M  V30 9492 C 932.915 -1.83085 2.85189 0
M  V30 9493 C 932.088 -1.4781 4.11669 0
M  V30 9494 C 931.147 -2.56748 4.59311 0
M  V30 9495 O 930.173 -2.21507 5.24331 0
M  V30 9496 N 931.375 -3.87427 4.32297 0
M  V30 9497 H 934.14 -0.0261183 2.99689 0
M  V30 9498 H 931.701 0.131456 1.61365 0
M  V30 9499 H 933.693 -2.55326 3.13992 0
M  V30 9500 H 932.263 -2.31039 2.1057 0
M  V30 9501 H 931.483 -0.587974 3.8979 0
M  V30 9502 H 932.771 -1.2179 4.94009 0
M  V30 9503 H 932.169 -4.18863 3.80224 0
M  V30 9504 H 930.726 -4.55942 4.6579 0
M  V30 9505 N 934.159 -1.57557 0.0367827 0
M  V30 9506 C 935.089 -2.13712 -0.940719 0
M  V30 9507 C 936.07 -1.05515 -1.33419 0
M  V30 9508 O 937.255 -1.33385 -1.41146 0
M  V30 9509 C 934.385 -2.67043 -2.22048 0
M  V30 9510 C 933.339 -3.80096 -1.96752 0
M  V30 9511 C 932.665 -4.19886 -3.31059 0
M  V30 9512 C 933.965 -5.05848 -1.30058 0
M  V30 9513 H 935.659 -2.9564 -0.473033 0
M  V30 9514 H 933.205 -1.42214 -0.226089 0
M  V30 9515 H 935.158 -3.04964 -2.90818 0
M  V30 9516 H 933.882 -1.82287 -2.70996 0
M  V30 9517 H 932.541 -3.42625 -1.30398 0
M  V30 9518 H 932.189 -3.32101 -3.77781 0
M  V30 9519 H 931.889 -4.96073 -3.14937 0
M  V30 9520 H 933.413 -4.60395 -4.01084 0
M  V30 9521 H 934.827 -5.41306 -1.8884 0
M  V30 9522 H 933.224 -5.87084 -1.24309 0
M  V30 9523 H 934.294 -4.84122 -0.274591 0
M  V30 9524 N 935.637 0.236453 -1.55816 0
M  V30 9525 C 936.862 0.98449 -1.82545 0
M  V30 9526 C 937.287 1.77755 -0.615206 0
M  V30 9527 O 936.645 1.75982 0.435895 0
M  V30 9528 C 936.693 1.88973 -3.07118 0
M  V30 9529 O 935.797 2.98298 -2.84766 0
M  V30 9530 H 935.138 0.279577 -0.602273 0
M  V30 9531 H 937.668 0.254277 -2.03014 0
M  V30 9532 H 937.678 2.3024 -3.36829 0
M  V30 9533 H 936.353 1.30671 -3.94839 0
M  V30 9534 H 934.93 2.61085 -2.6625 0
M  V30 9535 N 937.115 1.49373 0.502552 0
M  V30 9536 C 938.361 1.59016 1.25864 0
M  V30 9537 C 938.694 0.27532 1.92238 0
M  V30 9538 O 937.969 -0.720988 1.80643 0
M  V30 9539 C 938.252 2.74828 2.32683 0
M  V30 9540 C 938.105 4.16102 1.7082 0
M  V30 9541 C 939.424 2.86288 3.34256 0
M  V30 9542 H 936.543 0.578798 0.456248 0
M  V30 9543 H 939.185 1.81651 0.557032 0
M  V30 9544 H 937.335 2.5566 2.92524 0
M  V30 9545 H 939.007 4.46782 1.14818 0
M  V30 9546 H 937.25 4.21822 1.01238 0
M  V30 9547 H 937.921 4.93006 2.48292 0
M  V30 9548 H 940.397 3.03733 2.84404 0
M  V30 9549 H 939.273 3.69001 4.06362 0
M  V30 9550 H 939.534 1.95576 3.96488 0
M  V30 9551 N 938.594 -0.753485 1.38421 0
M  V30 9552 C 939.871 -1.50318 1.25155 0
M  V30 9553 C 940.251 -2.10588 -0.147003 0
M  V30 9554 O 939.599 -1.97071 -1.15651 0
M  V30 9555 C 939.809 -2.56946 2.36177 0
M  V30 9556 C 941.157 -3.23846 2.74607 0
M  V30 9557 O 942.181 -2.67251 2.3549 0
M  V30 9558 O 941.04 -4.2621 3.42064 0
M  V30 9559 H 938.134 -0.666624 0.48943 0
M  V30 9560 H 940.68 -0.788887 1.50249 0
M  V30 9561 H 939.452 -2.1066 3.29754 0
M  V30 9562 H 939.075 -3.35956 2.12648 0
M  V30 9563 N 940.072 -1.23292 -0.981677 0
M  V30 9564 C 941.297 -1.09176 -1.76339 0
M  V30 9565 C 941.722 0.352726 -1.84763 0
M  V30 9566 O 941.08 1.25509 -1.30832 0
M  V30 9567 C 941.128 -1.72046 -3.16911 0
M  V30 9568 O 940.232 -0.98174 -4.00544 0
M  V30 9569 H 939.573 -0.382755 -0.542581 0
M  V30 9570 H 942.103 -1.63319 -1.23239 0
M  V30 9571 H 942.113 -1.77232 -3.67495 0
M  V30 9572 H 940.788 -2.77154 -3.10095 0
M  V30 9573 H 939.365 -1.00672 -3.59054 0
M  V30 9574 N 941.55 1.18024 -1.04442 0
M  V30 9575 C 942.796 1.88377 -0.751133 0
M  V30 9576 C 943.129 1.80377 0.719571 0
M  V30 9577 O 942.404 1.20662 1.52548 0
M  V30 9578 C 942.687 3.38708 -1.22265 0
M  V30 9579 C 942.54 3.55499 -2.75574 0
M  V30 9580 C 943.859 4.32475 -0.815688 0
M  V30 9581 H 940.978 0.684037 -0.27434 0
M  V30 9582 H 943.62 1.38837 -1.29709 0
M  V30 9583 H 941.77 3.8103 -0.758192 0
M  V30 9584 H 943.442 3.22244 -3.30086 0
M  V30 9585 H 941.685 2.98028 -3.15217 0
M  V30 9586 H 942.356 4.60994 -3.03625 0
M  V30 9587 H 944.832 3.97953 -1.21542 0
M  V30 9588 H 943.708 5.36213 -1.17331 0
M  V30 9589 H 943.969 4.41207 0.280901 0
M  V30 9590 N 943.028 0.824394 1.34319 0
M  V30 9591 C 944.275 0.413167 1.9824 0
M  V30 9592 C 944.603 -1.02412 1.65354 0
M  V30 9593 O 943.858 -1.72831 0.91803 0
M  V30 9594 C 944.157 0.564024 3.52921 0
M  V30 9595 C 943.823 1.96725 4.05722 0
M  V30 9596 C 942.485 2.35111 4.19853 0
M  V30 9597 C 944.837 2.88447 4.34106 0
M  V30 9598 C 942.165 3.64551 4.59695 0
M  V30 9599 C 944.517 4.17353 4.75394 0
M  V30 9600 C 943.181 4.55714 4.8773 0
M  V30 9601 H 942.451 0.151188 0.725412 0
M  V30 9602 H 945.098 1.04863 1.60238 0
M  V30 9603 H 943.403 -0.154816 3.91494 0
M  V30 9604 H 945.1 0.226347 4.00361 0
M  V30 9605 H 941.69 1.65908 3.95187 0
M  V30 9606 H 945.874 2.60034 4.22725 0
M  V30 9607 H 941.13 3.94097 4.67437 0
M  V30 9608 H 945.304 4.88512 4.96315 0
M  V30 9609 H 942.931 5.56064 5.1836 0
M  V30 9610 N 944.506 -1.46559 0.579492 0
M  V30 9611 C 945.752 -2.02699 0.0639363 0
M  V30 9612 C 946.085 -1.4504 -1.29139 0
M  V30 9613 O 945.36 -0.614284 -1.84545 0
M  V30 9614 C 945.643 -3.601 -0.00528618 0
M  V30 9615 C 945.496 -4.28149 1.37871 0
M  V30 9616 C 946.815 -4.34375 -0.707537 0
M  V30 9617 H 943.934 -0.736586 0.0247085 0
M  V30 9618 H 946.576 -1.74739 0.746071 0
M  V30 9619 H 944.726 -3.84052 -0.586206 0
M  V30 9620 H 946.398 -4.1547 2.00455 0
M  V30 9621 H 944.641 -3.87636 1.94732 0
M  V30 9622 H 945.312 -5.36888 1.28278 0
M  V30 9623 H 947.788 -4.15549 -0.214064 0
M  V30 9624 H 946.664 -5.44091 -0.724992 0
M  V30 9625 H 946.925 -4.052 -1.7682 0
M  V30 9626 N 945.984 -0.3171 -1.54377 0
M  V30 9627 C 946.914 0.544623 -2.2706 0
M  V30 9628 C 947.895 1.12469 -1.27611 0
M  V30 9629 O 949.08 1.15103 -1.56413 0
M  V30 9630 C 946.21 1.70879 -3.02353 0
M  V30 9631 C 945.164 1.25833 -4.09084 0
M  V30 9632 C 944.49 2.50894 -4.72182 0
M  V30 9633 C 945.79 0.377876 -5.20931 0
M  V30 9634 H 947.484 -0.0616372 -2.99337 0
M  V30 9635 H 945.03 -0.0310848 -1.43966 0
M  V30 9636 H 946.983 2.31787 -3.51927 0
M  V30 9637 H 945.707 2.34155 -2.27682 0
M  V30 9638 H 944.366 0.672228 -3.60384 0
M  V30 9639 H 944.014 3.12518 -3.94134 0
M  V30 9640 H 943.714 2.21447 -5.44275 0
M  V30 9641 H 945.238 3.12575 -5.24528 0
M  V30 9642 H 946.652 0.893056 -5.66302 0
M  V30 9643 H 945.049 0.176474 -5.9984 0
M  V30 9644 H 946.119 -0.592943 -4.81261 0
M  V30 9645 N 947.462 1.57535 -0.0451378 0
M  V30 9646 C 948.692 1.96476 0.638814 0
M  V30 9647 C 949.1 0.921056 1.65267 0
M  V30 9648 O 948.443 -0.103843 1.83406 0
M  V30 9649 C 948.505 3.31629 1.38788 0
M  V30 9650 C 948.169 4.5391 0.530545 0
M  V30 9651 C 949.166 5.19512 -0.200864 0
M  V30 9652 C 946.851 5.00159 0.463242 0
M  V30 9653 C 948.845 6.29695 -0.988078 0
M  V30 9654 C 946.532 6.10221 -0.327665 0
M  V30 9655 C 947.53 6.74849 -1.05202 0
M  V30 9656 O 947.218 7.82795 -1.82993 0
M  V30 9657 H 946.95 0.651625 0.17989 0
M  V30 9658 H 949.504 2.05126 -0.106031 0
M  V30 9659 H 947.734 3.19516 2.17822 0
M  V30 9660 H 949.423 3.5536 1.96148 0
M  V30 9661 H 950.189 4.84742 -0.158299 0
M  V30 9662 H 946.068 4.49651 1.01663 0
M  V30 9663 H 949.612 6.80072 -1.55397 0
M  V30 9664 H 945.509 6.44428 -0.37189 0
M  V30 9665 H 946.277 7.99542 -1.7514 0
M  V30 9666 N 948.94 -0.228186 1.55939 0
M  V30 9667 C 949.888 -1.30239 1.92719 0
M  V30 9668 C 950.882 -1.48865 0.808424 0
M  V30 9669 O 952.088 -1.50118 0.993204 0
M  V30 9670 H 948.463 -0.436509 0.612343 0
M  V30 9671 H 950.434 -0.964965 2.82367 0
M  V30 9672 C 949.183 -2.647 2.25453 0
M  V30 9673 H 948.506 -2.51173 3.1105 0
M  V30 9674 H 949.946 -3.38691 2.55077 0
M  V30 9675 C 948.405 -3.1921 1.07734 0
M  V30 9676 O 948.935 -4.00301 0.335019 0
M  V30 9677 N 947.141 -2.77492 0.862938 0
M  V30 9678 H 946.688 -2.11657 1.4683 0
M  V30 9679 H 946.646 -3.14306 0.0770119 0
M  V30 9680 N 950.418 -1.49637 -0.494624 0
M  V30 9681 C 951.35 -1.62902 -1.61231 0
M  V30 9682 C 952.363 -0.511425 -1.54558 0
M  V30 9683 O 953.552 -0.783724 -1.60375 0
M  V30 9684 C 950.652 -1.57564 -3.00045 0
M  V30 9685 C 949.825 -2.84964 -3.31835 0
M  V30 9686 C 948.884 -2.72591 -4.5009 0
M  V30 9687 O 947.91 -3.46532 -4.51558 0
M  V30 9688 N 949.112 -1.84563 -5.50379 0
M  V30 9689 H 951.877 -2.59301 -1.50276 0
M  V30 9690 H 949.438 -1.46806 -0.68262 0
M  V30 9691 H 951.43 -1.46932 -3.77085 0
M  V30 9692 H 950 -0.689974 -3.0489 0
M  V30 9693 H 949.22 -3.099 -2.4363 0
M  V30 9694 H 950.508 -3.69412 -3.49875 0
M  V30 9695 H 949.906 -1.23758 -5.51997 0
M  V30 9696 H 948.463 -1.79849 -6.26496 0
M  V30 9697 N 951.896 0.746133 -1.38819 0
M  V30 9698 C 952.806 1.89063 -1.38897 0
M  V30 9699 C 953.822 1.71648 -0.28513 0
M  V30 9700 O 954.998 1.94443 -0.524783 0
M  V30 9701 C 952.063 3.24523 -1.22007 0
M  V30 9702 C 951.124 3.54411 -2.42263 0
M  V30 9703 C 950.357 4.83408 -2.26169 0
M  V30 9704 O 950.58 5.56325 -1.25931 0
M  V30 9705 O 949.514 5.12943 -3.14918 0
M  V30 9706 H 953.34 1.91951 -2.35347 0
M  V30 9707 H 950.925 0.892433 -1.19816 0
M  V30 9708 H 952.807 4.05496 -1.14677 0
M  V30 9709 H 951.482 3.2243 -0.286455 0
M  V30 9710 H 950.389 2.73569 -2.55168 0
M  V30 9711 H 951.722 3.61273 -3.3428 0
M  V30 9712 N 953.375 1.23811 0.975125 0
M  V30 9713 C 954.285 1.0408 2.10249 0
M  V30 9714 C 955.301 -0.0162404 1.73992 0
M  V30 9715 O 956.477 0.180346 2.00591 0
M  V30 9716 C 953.542 0.640013 3.40741 0
M  V30 9717 C 952.603 1.7727 3.90991 0
M  V30 9718 C 951.836 1.39094 5.15256 0
M  V30 9719 O 952.059 0.277483 5.69725 0
M  V30 9720 O 950.993 2.21392 5.59704 0
M  V30 9721 H 954.819 1.98575 2.29786 0
M  V30 9722 H 952.404 1.02563 1.08633 0
M  V30 9723 H 954.286 0.427684 4.19224 0
M  V30 9724 H 952.961 -0.27589 3.22522 0
M  V30 9725 H 951.868 2.03971 3.13602 0
M  V30 9726 H 953.201 2.66711 4.13674 0
M  V30 9727 N 954.853 -1.17469 1.05066 0
M  V30 9728 C 955.8 -2.21443 0.650512 0
M  V30 9729 C 956.77 -1.62441 -0.346702 0
M  V30 9730 O 957.955 -1.89305 -0.238404 0
M  V30 9731 C 955.095 -3.45087 0.0301014 0
M  V30 9732 C 954.208 -4.18385 1.07599 0
M  V30 9733 C 953.343 -5.29513 0.423038 0
M  V30 9734 C 952.382 -5.94596 1.45333 0
M  V30 9735 N 951.519 -6.97241 0.824623 0
M  V30 9736 H 956.359 -2.55025 1.54163 0
M  V30 9737 H 953.896 -1.25274 0.771032 0
M  V30 9738 H 955.854 -4.15754 -0.347032 0
M  V30 9739 H 954.484 -3.12093 -0.824481 0
M  V30 9740 H 953.536 -3.46446 1.57097 0
M  V30 9741 H 954.848 -4.62899 1.85813 0
M  V30 9742 H 954.002 -6.067 -0.00774975 0
M  V30 9743 H 952.741 -4.86129 -0.391092 0
M  V30 9744 H 951.746 -5.16142 1.89415 0
M  V30 9745 H 952.971 -6.40061 2.26934 0
M  V30 9746 H 950.917 -6.55993 0.0309804 0
M  V30 9747 H 950.834 -7.40059 1.54432 0
M  V30 9748 H 952.102 -7.78375 0.418567 0
M  V30 9749 N 956.331 -0.831506 -1.3388 0
M  V30 9750 C 957.58 -0.420028 -1.97278 0
M  V30 9751 C 957.893 1.02441 -1.66629 0
M  V30 9752 O 959.099 1.54021 -2.23584 0
M  V30 9753 C 957.555 -0.700116 -3.53025 0
M  V30 9754 C 957.163 -2.15874 -3.92559 0
M  V30 9755 C 958.907 -0.355226 -4.23011 0
M  V30 9756 C 956.814 -2.38327 -5.41252 0
M  V30 9757 H 955.744 -0.153326 -0.738246 0
M  V30 9758 H 958.395 -1.01906 -1.52602 0
M  V30 9759 H 956.777 -0.0308044 -3.95988 0
M  V30 9760 H 957.951 -2.86792 -3.60675 0
M  V30 9761 H 956.266 -2.4659 -3.35533 0
M  V30 9762 H 958.863 -0.500701 -5.32351 0
M  V30 9763 H 959.206 0.70111 -4.10354 0
M  V30 9764 H 959.739 -0.979466 -3.85553 0
M  V30 9765 H 956.478 -3.42498 -5.58906 0
M  V30 9766 H 955.998 -1.71962 -5.74621 0
M  V30 9767 H 957.677 -2.21113 -6.08045 0
M  V30 9768 N 957.809 1.4625 -0.587256 0
M  V30 9769 C 958.739 2.33132 0.131076 0
M  V30 9770 C 959.72 1.45619 0.879158 0
M  V30 9771 O 960.905 1.74428 0.853723 0
M  V30 9772 C 958.035 3.27975 1.14236 0
M  V30 9773 C 956.989 4.24965 0.508819 0
M  V30 9774 C 956.315 5.09349 1.62689 0
M  V30 9775 C 957.615 5.19322 -0.55694 0
M  V30 9776 H 959.309 2.93442 -0.594333 0
M  V30 9777 H 956.855 1.41106 -0.287263 0
M  V30 9778 H 958.808 3.87614 1.65328 0
M  V30 9779 H 957.532 2.65781 1.8981 0
M  V30 9780 H 956.191 3.66595 0.0189337 0
M  V30 9781 H 955.839 4.43537 2.37242 0
M  V30 9782 H 955.539 5.75036 1.20861 0
M  V30 9783 H 957.063 5.71852 2.14049 0
M  V30 9784 H 958.477 5.73151 -0.130903 0
M  V30 9785 H 956.874 5.93376 -0.895801 0
M  V30 9786 H 957.944 4.62979 -1.44148 0
M  V30 9787 N 959.287 0.325282 1.54207 0
M  V30 9788 C 960.703 -0.0273036 1.59577 0
M  V30 9789 C 960.903 -1.50329 1.34177 0
M  V30 9790 O 959.959 -2.25951 1.12705 0
M  V30 9791 C 961.272 0.392468 2.98128 0
M  V30 9792 C 962.82 0.343269 3.11112 0
M  V30 9793 C 963.295 0.738229 4.52011 0
M  V30 9794 N 964.786 0.691701 4.58006 0
M  V30 9795 C 965.521 0.969479 5.65145 0
M  V30 9796 N 965.017 1.31448 6.80216 0
M  V30 9797 N 966.81 0.894926 5.5493 0
M  V30 9798 H 958.961 1.28692 1.68974 0
M  V30 9799 H 961.224 0.523399 0.790416 0
M  V30 9800 H 960.93 1.42089 3.2172 0
M  V30 9801 H 960.804 -0.241651 3.76425 0
M  V30 9802 H 963.191 -0.675946 2.87254 0
M  V30 9803 H 963.272 1.01235 2.34915 0
M  V30 9804 H 962.916 1.75537 4.76602 0
M  V30 9805 H 962.846 0.0468226 5.26579 0
M  V30 9806 H 965.337 0.436975 3.75365 0
M  V30 9807 H 965.65 1.51177 7.57869 0
M  V30 9808 H 963.995 1.35276 6.81708 0
M  V30 9809 H 967.186 0.624876 4.6391 0
M  V30 9810 H 967.359 1.11476 6.38339 0
M  V30 9811 N 960.765 -1.57509 0.0534917 0
M  V30 9812 C 961.995 -1.96812 -0.628386 0
M  V30 9813 C 962.403 -0.929808 -1.64776 0
M  V30 9814 O 961.746 0.0941155 -1.83459 0
M  V30 9815 C 961.808 -3.32361 -1.37027 0
M  V30 9816 C 961.472 -4.54185 -0.506465 0
M  V30 9817 C 962.469 -5.19398 0.228412 0
M  V30 9818 C 960.154 -5.00398 -0.43671 0
M  V30 9819 C 962.148 -6.29162 1.02146 0
M  V30 9820 C 959.835 -6.10039 0.360022 0
M  V30 9821 C 960.833 -6.74282 1.08779 0
M  V30 9822 O 960.521 -7.81814 1.87142 0
M  V30 9823 H 960.253 -0.65257 -0.176432 0
M  V30 9824 H 962.807 -2.05067 0.116908 0
M  V30 9825 H 961.037 -3.20667 -2.16125 0
M  V30 9826 H 962.726 -3.56395 -1.94261 0
M  V30 9827 H 963.492 -4.84651 0.184003 0
M  V30 9828 H 959.371 -4.50183 -0.992772 0
M  V30 9829 H 962.915 -6.79238 1.59002 0
M  V30 9830 H 958.812 -6.44222 0.406061 0
M  V30 9831 H 959.58 -7.98602 1.79378 0
M  V30 9832 N 962.243 0.219913 -1.56058 0
M  V30 9833 C 963.206 1.25606 -1.91718 0
M  V30 9834 C 964.206 1.39721 -0.795912 0
M  V30 9835 O 965.396 1.37958 -1.06364 0
M  V30 9836 C 962.528 2.62961 -2.16943 0
M  V30 9837 H 963.721 0.951909 -2.84392 0
M  V30 9838 H 961.274 0.460398 -1.49365 0
M  V30 9839 H 962.009 2.98472 -1.26826 0
M  V30 9840 H 961.794 2.54093 -2.98629 0
M  V30 9841 H 963.284 3.37727 -2.45622 0
M  V30 9842 N 963.721 1.49897 0.486681 0
M  V30 9843 C 964.651 1.7054 1.59494 0
M  V30 9844 C 965.632 0.554184 1.60819 0
M  V30 9845 O 966.817 0.791617 1.77333 0
M  V30 9846 C 963.947 1.78517 2.97908 0
M  V30 9847 C 962.901 2.93571 3.11449 0
M  V30 9848 C 962.227 2.86674 4.51356 0
M  V30 9849 C 963.527 4.34308 2.90127 0
M  V30 9850 H 965.221 2.63329 1.42472 0
M  V30 9851 H 962.767 1.2672 0.683969 0
M  V30 9852 H 964.72 1.91544 3.75352 0
M  V30 9853 H 963.444 0.823381 3.16051 0
M  V30 9854 H 962.103 2.80169 2.36433 0
M  V30 9855 H 961.751 1.88373 4.66395 0
M  V30 9856 H 961.451 3.63903 4.61355 0
M  V30 9857 H 962.975 3.01728 5.30841 0
M  V30 9858 H 964.389 4.48317 3.57331 0
M  V30 9859 H 962.786 5.12869 3.11585 0
M  V30 9860 H 963.856 4.47759 1.86119 0
M  V30 9861 N 965.199 -0.738761 1.39212 0
M  V30 9862 C 966.424 -1.5331 1.39681 0
M  V30 9863 C 966.849 -1.88098 -0.00768715 0
M  V30 9864 O 966.207 -1.51642 -0.993699 0
M  V30 9865 C 966.255 -2.79958 2.27279 0
M  V30 9866 O 965.359 -3.75727 1.70008 0
M  V30 9867 H 964.7 -0.463131 0.475821 0
M  V30 9868 H 967.23 -0.911768 1.83161 0
M  V30 9869 H 967.24 -3.28732 2.41659 0
M  V30 9870 H 965.915 -2.5397 3.29351 0
M  V30 9871 H 964.492 -3.34483 1.64851 0
M  V30 9872 N 966.677 -1.24326 -0.968545 0
M  V30 9873 C 967.625 -1.03256 -2.08425 0
M  V30 9874 C 968.619 0.0322356 -1.69369 0
M  V30 9875 O 969.825 -0.122251 -1.79584 0
M  V30 9876 H 966.2 -0.31688 -0.681976 0
M  V30 9877 H 968.171 -1.97873 -2.23358 0
M  V30 9878 C 966.92 -0.653144 -3.4151 0
M  V30 9879 H 966.243 -1.46424 -3.72021 0
M  V30 9880 H 967.683 -0.545316 -4.20479 0
M  V30 9881 C 966.142 0.639674 -3.30771 0
M  V30 9882 O 966.672 1.68563 -3.64622 0
M  V30 9883 N 964.878 0.620074 -2.83907 0
M  V30 9884 H 964.425 -0.231449 -2.56558 0
M  V30 9885 H 964.383 1.48528 -2.77104 0
M  V30 9886 N 968.156 1.1691 -1.05688 0
M  V30 9887 C 969.381 1.91745 -0.790478 0
M  V30 9888 C 969.806 1.76568 0.648478 0
M  V30 9889 O 969.164 1.08682 1.45114 0
M  V30 9890 C 969.212 3.4067 -1.18222 0
M  V30 9891 O 968.316 4.11177 -0.317341 0
M  V30 9892 H 967.657 0.5976 -0.28943 0
M  V30 9893 H 970.187 1.48157 -1.41105 0
M  V30 9894 H 970.197 3.91424 -1.15114 0
M  V30 9895 H 968.872 3.51036 -2.2304 0
M  V30 9896 H 967.449 3.70645 -0.409459 0
M  V30 9897 N 969.634 0.838594 1.33437 0
M  V30 9898 C 970.883 0.430484 1.97053 0
M  V30 9899 C 971.196 -1.01556 1.6717 0
M  V30 9900 O 972.402 -1.52834 2.24397 0
M  V30 9901 C 970.858 0.718828 3.52648 0
M  V30 9902 C 970.466 2.17953 3.91408 0
M  V30 9903 C 972.21 0.377654 4.22817 0
M  V30 9904 C 970.117 2.41194 5.39981 0
M  V30 9905 H 969.047 0.157239 0.737422 0
M  V30 9906 H 971.698 1.02714 1.5206 0
M  V30 9907 H 970.08 0.0518042 3.95966 0
M  V30 9908 H 971.254 2.88701 3.59149 0
M  V30 9909 H 969.569 2.48366 3.34221 0
M  V30 9910 H 972.166 0.528926 5.32077 0
M  V30 9911 H 972.509 -0.679338 4.1072 0
M  V30 9912 H 973.042 0.999899 3.85028 0
M  V30 9913 H 969.781 3.45457 5.57081 0
M  V30 9914 H 969.301 1.75007 5.73701 0
M  V30 9915 H 970.98 2.24334 6.06863 0
M  V30 9916 N 971.112 -1.45937 0.595003 0
M  V30 9917 C 972.36 -2.01921 0.0851368 0
M  V30 9918 C 972.681 -1.46748 -1.28413 0
M  V30 9919 O 971.951 -0.656873 -1.84559 0
M  V30 9920 H 970.531 -0.746457 0.0284826 0
M  V30 9921 H 973.193 -1.78891 0.773561 0
M  V30 9922 H 972.289 -3.1209 0.0254002 0
M  V30 9923 N 972.59 -0.333456 -1.54032 0
M  V30 9924 C 974.001 0.15256 -1.86076 0
M  V30 9925 C 974.352 1.50819 -1.25492 0
M  V30 9926 O 973.477 2.08903 -0.564665 0
M  V30 9927 C 974.072 0.283599 -3.37611 0
M  V30 9928 C 972.631 0.713841 -3.69569 0
M  V30 9929 C 971.778 -0.158515 -2.76847 0
M  V30 9930 H 974.729 -0.553404 -1.48738 0
M  V30 9931 H 974.75 1.11284 -3.63863 0
M  V30 9932 H 974.262 -0.703193 -3.81676 0
M  V30 9933 H 972.363 1.71002 -3.31042 0
M  V30 9934 H 972.476 0.510731 -4.7637 0
M  V30 9935 H 970.84 0.367531 -2.52034 0
M  V30 9936 H 971.623 -1.14226 -3.2374 0
M  V30 9937 N 974.068 1.57479 -0.061844 0
M  V30 9938 C 975.314 1.93395 0.610443 0
M  V30 9939 C 975.647 0.941334 1.6986 0
M  V30 9940 O 974.922 -0.0310262 1.94475 0
M  V30 9941 C 975.205 3.39636 1.19664 0
M  V30 9942 C 975.058 4.49651 0.115805 0
M  V30 9943 C 976.377 3.86488 2.10512 0
M  V30 9944 H 973.496 0.703262 0.220436 0
M  V30 9945 H 976.138 1.89583 -0.125785 0
M  V30 9946 H 974.288 3.43015 1.82409 0
M  V30 9947 H 975.96 4.58397 -0.516728 0
M  V30 9948 H 974.203 4.30237 -0.55483 0
M  V30 9949 H 974.874 5.49089 0.566176 0
M  V30 9950 H 977.35 3.85052 1.57715 0
M  V30 9951 H 976.226 4.89444 2.48466 0
M  V30 9952 H 976.487 3.23856 3.00948 0
M  V30 9953 N 975.546 -0.211634 1.56173 0
M  V30 9954 C 976.962 -0.56177 1.49386 0
M  V30 9955 C 977.162 -1.86666 0.758813 0
M  V30 9956 O 976.218 -2.50681 0.302534 0
M  V30 9957 C 977.531 -0.631815 2.93987 0
M  V30 9958 C 979.079 -0.721773 3.04564 0
M  V30 9959 C 979.554 -0.823075 4.50544 0
M  V30 9960 N 981.045 -0.887038 4.54627 0
M  V30 9961 C 981.78 -0.985304 5.64871 0
M  V30 9962 N 981.276 -1.0469 6.84844 0
M  V30 9963 N 983.069 -1.02121 5.52746 0
M  V30 9964 H 975.22 0.64452 2.02385 0
M  V30 9965 H 977.483 0.227466 0.920306 0
M  V30 9966 H 977.189 0.257592 3.50755 0
M  V30 9967 H 977.063 -1.4921 3.46433 0
M  V30 9968 H 979.45 -1.60162 2.47855 0
M  V30 9969 H 979.531 0.164385 2.55271 0
M  V30 9970 H 979.175 0.0523511 5.07873 0
M  V30 9971 H 979.105 -1.72479 4.97552 0
M  V30 9972 H 981.596 -0.849352 3.68231 0
M  V30 9973 H 981.909 -1.12193 7.64613 0
M  V30 9974 H 980.254 -1.01586 6.87536 0
M  V30 9975 H 983.445 -0.969814 4.57943 0
M  V30 9976 H 983.618 -1.09434 6.38693 0
M  V30 9977 N 977.024 -1.50153 -0.478725 0
M  V30 9978 C 977.934 -1.71232 -1.60364 0
M  V30 9979 C 978.95 -0.595269 -1.63501 0
M  V30 9980 O 980.126 -0.872683 -1.81511 0
M  V30 9981 C 977.191 -1.79487 -2.96623 0
M  V30 9982 C 976.252 -3.03185 -3.03937 0
M  V30 9983 C 975.485 -3.11036 -4.33696 0
M  V30 9984 O 975.708 -2.2588 -5.23769 0
M  V30 9985 O 974.642 -4.03698 -4.46443 0
M  V30 9986 H 978.468 -2.66575 -1.45505 0
M  V30 9987 H 976.053 -1.34158 -0.65741 0
M  V30 9988 H 977.935 -1.8714 -3.77567 0
M  V30 9989 H 976.61 -0.873264 -3.11698 0
M  V30 9990 H 975.517 -3.01036 -2.22099 0
M  V30 9991 H 976.85 -3.94898 -2.93796 0
M  V30 9992 N 978.502 0.731368 -1.39602 0
M  V30 9993 C 979.75 1.48805 -1.36753 0
M  V30 9994 C 980.071 1.94969 0.034676 0
M  V30 9995 O 979.341 1.69243 0.986591 0
M  V30 9996 H 977.921 0.55203 -0.503261 0
M  V30 9997 H 980.583 0.868013 -1.74504 0
M  V30 9998 H 979.679 2.36844 -2.03252 0
M  V30 9999 N 979.98 1.24838 0.961938 0
M  V30 10000 C 981.205 1.11967 1.7458 0
M  V30 10001 C 981.63 -0.323287 1.85301 0
M  V30 10002 O 980.988 -1.23412 1.32812 0
M  V30 10003 C 981.036 1.77066 3.14134 0
M  V30 10004 O 980.14 1.04534 3.98932 0
M  V30 10005 H 979.481 0.391338 0.536424 0
M  V30 10006 H 982.011 1.65259 1.20626 0
M  V30 10007 H 982.021 1.83056 3.64629 0
M  V30 10008 H 980.696 2.82052 3.05646 0
M  V30 10009 H 979.273 1.06372 3.57407 0
M  V30 10010 N 981.458 -1.16348 1.06306 0
M  V30 10011 C 982.869 -1.68491 0.80422 0
M  V30 10012 C 983.22 -1.84327 -0.672159 0
M  V30 10013 O 982.345 -1.53892 -1.52139 0
M  V30 10014 C 982.94 -3.06048 1.45328 0
M  V30 10015 C 981.499 -3.55311 1.24221 0
M  V30 10016 C 980.646 -2.31291 1.5297 0
M  V30 10017 H 983.597 -1.00708 1.22652 0
M  V30 10018 H 983.618 -3.70451 0.868674 0
M  V30 10019 H 983.13 -2.9449 2.52779 0
M  V30 10020 H 981.231 -3.72128 0.187447 0
M  V30 10021 H 981.344 -4.37397 1.95502 0
M  V30 10022 H 979.708 -2.3631 0.950241 0
M  V30 10023 H 980.491 -2.22331 2.6158 0
M  V30 10024 N 982.937 -0.845659 -1.3299 0
M  V30 10025 C 984.214 -0.366306 -1.92139 0
M  V30 10026 C 984.594 1.14912 -1.77083 0
M  V30 10027 O 983.942 1.96667 -1.16338 0
M  V30 10028 C 984.152 -0.820716 -3.39213 0
M  V30 10029 C 985.5 -0.832667 -4.16355 0
M  V30 10030 O 986.524 -0.764764 -3.47893 0
M  V30 10031 O 985.383 -0.926658 -5.38586 0
M  V30 10032 H 982.477 -0.105063 -0.820299 0
M  V30 10033 H 985.023 -0.931962 -1.41819 0
M  V30 10034 H 983.795 -1.86357 -3.44074 0
M  V30 10035 H 983.418 -0.232009 -3.96923 0
M  V30 10036 N 984.415 1.45619 -0.602734 0
M  V30 10037 C 985.378 2.28941 0.108962 0
M  V30 10038 C 986.378 1.39501 0.799762 0
M  V30 10039 O 987.568 1.61673 0.648663 0
M  V30 10040 C 984.7 3.204 1.16432 0
M  V30 10041 H 985.893 2.93346 -0.623534 0
M  V30 10042 H 983.446 1.52061 -0.361565 0
M  V30 10043 H 984.181 2.60785 1.92774 0
M  V30 10044 H 983.966 3.86277 0.673248 0
M  V30 10045 H 985.456 3.83063 1.6629 0
M  V30 10046 N 985.893 0.34162 1.53853 0
M  V30 10047 C 986.823 -0.508431 2.27897 0
M  V30 10048 C 987.804 -1.10425 1.29384 0
M  V30 10049 O 988.989 -1.126 1.58224 0
M  V30 10050 C 986.119 -1.66048 3.05034 0
M  V30 10051 C 985.073 -1.19309 4.11035 0
M  V30 10052 C 984.399 -2.4335 4.76114 0
M  V30 10053 C 985.699 -0.294952 5.21467 0
M  V30 10054 H 987.393 0.109251 2.99201 0
M  V30 10055 H 984.939 0.0539847 1.43899 0
M  V30 10056 H 986.892 -2.26158 3.5557 0
M  V30 10057 H 985.616 -2.30503 2.31379 0
M  V30 10058 H 984.275 -0.614809 3.61408 0
M  V30 10059 H 983.923 -3.06208 3.99056 0
M  V30 10060 H 983.623 -2.1276 5.47729 0
M  V30 10061 H 985.147 -3.0419 5.29434 0
M  V30 10062 H 986.561 -0.80285 5.67651 0
M  V30 10063 H 984.958 -0.0810221 6.00045 0
M  V30 10064 H 986.028 0.669433 4.80257 0
M  V30 10065 N 987.371 -1.57444 0.0701946 0
M  V30 10066 C 988.303 -2.09611 -0.927142 0
M  V30 10067 C 989.316 -1.02791 -1.26245 0
M  V30 10068 O 990.505 -1.30309 -1.21992 0
M  V30 10069 C 987.605 -2.54015 -2.24342 0
M  V30 10070 C 986.778 -3.84389 -2.08719 0
M  V30 10071 C 985.837 -4.14904 -3.23638 0
M  V30 10072 O 984.863 -4.84528 -2.98699 0
M  V30 10073 N 986.065 -3.68322 -4.48686 0
M  V30 10074 H 988.83 -2.95803 -0.481753 0
M  V30 10075 H 986.391 -1.61487 -0.115572 0
M  V30 10076 H 988.383 -2.71492 -3.00124 0
M  V30 10077 H 986.953 -1.72969 -2.60385 0
M  V30 10078 H 986.173 -3.76308 -1.17415 0
M  V30 10079 H 987.461 -4.69729 -1.9553 0
M  V30 10080 H 986.859 -3.12073 -4.71834 0
M  V30 10081 H 985.416 -3.91002 -5.21499 0
M  V30 10082 N 988.849 0.203349 -1.56283 0
M  V30 10083 C 989.797 1.27157 -1.94766 0
M  V30 10084 C 990.791 1.4756 -0.832005 0
M  V30 10085 O 991.997 1.48519 -1.01696 0
M  V30 10086 H 988.372 0.426712 -0.61921 0
M  V30 10087 H 990.343 0.919921 -2.83866 0
M  V30 10088 C 989.092 2.6108 -2.29636 0
M  V30 10089 H 988.415 2.46193 -3.15006 0
M  V30 10090 H 989.855 3.34591 -2.60433 0
M  V30 10091 C 988.314 3.17456 -1.12799 0
M  V30 10092 O 988.844 3.99717 -0.398661 0
M  V30 10093 N 987.05 2.76084 -0.906975 0
M  V30 10094 H 986.597 2.09294 -1.50179 0
M  V30 10095 H 986.555 3.14143 -0.127005 0
M  V30 10096 N 990.327 1.50405 0.470755 0
M  V30 10097 C 991.738 1.54266 1.05162 0
M  V30 10098 C 992.089 0.346359 1.93119 0
M  V30 10099 O 991.214 -0.540699 2.09536 0
M  V30 10100 C 991.809 2.7956 1.91394 0
M  V30 10101 C 990.368 2.86101 2.44588 0
M  V30 10102 C 989.515 2.48557 1.22941 0
M  V30 10103 H 992.466 1.56665 0.253359 0
M  V30 10104 H 992.487 2.61434 2.76464 0
M  V30 10105 H 991.999 3.66611 1.27351 0
M  V30 10106 H 990.1 2.03403 3.12183 0
M  V30 10107 H 990.213 3.88999 2.79672 0
M  V30 10108 H 988.577 2.01003 1.56429 0
M  V30 10109 H 989.36 3.37916 0.605598 0
M  V30 10110 N 991.805 -0.723954 1.39988 0
M  V30 10111 C 993.045 -1.49624 1.39255 0
M  V30 10112 C 993.409 -1.91998 -0.00860198 0
M  V30 10113 O 994.61 -2.6843 -0.141002 0
M  V30 10114 C 992.881 -2.69514 2.34728 0
M  V30 10115 S 994.44 -3.59027 2.5228 0
M  V30 10116 H 991.258 -0.511661 0.493685 0
M  V30 10117 H 993.86 -0.847322 1.76184 0
M  V30 10118 H 992.564 -2.36541 3.35375 0
M  V30 10119 H 992.095 -3.39325 1.99053 0
M  V30 10120 H 994.11 -4.63597 1.76896 0
M  V30 10121 N 993.283 -1.25346 -0.955304 0
M  V30 10122 C 994.513 -1.12629 -1.732 0
M  V30 10123 C 994.921 0.322748 -1.86427 0
M  V30 10124 O 994.264 1.23381 -1.36099 0
M  V30 10125 C 994.326 -1.7064 -3.16421 0
M  V30 10126 C 993.99 -3.19632 -3.26626 0
M  V30 10127 C 994.987 -4.1663 -3.10991 0
M  V30 10128 C 992.672 -3.59829 -3.50468 0
M  V30 10129 C 994.666 -5.51806 -3.19043 0
M  V30 10130 C 992.353 -4.95143 -3.58157 0
M  V30 10131 C 993.351 -5.90941 -3.42459 0
M  V30 10132 O 993.039 -7.23792 -3.49828 0
M  V30 10133 H 992.771 -0.393646 -0.549562 0
M  V30 10134 H 995.325 -1.66184 -1.20715 0
M  V30 10135 H 993.555 -1.11532 -3.70267 0
M  V30 10136 H 995.244 -1.53032 -3.75947 0
M  V30 10137 H 996.01 -3.86915 -2.92441 0
M  V30 10138 H 991.889 -2.8576 -3.61749 0
M  V30 10139 H 995.433 -6.26559 -3.06707 0
M  V30 10140 H 991.33 -5.24525 -3.76224 0
M  V30 10141 H 992.098 -7.31879 -3.66463 0
M  V30 10142 N 994.761 1.15782 -1.06922 0
M  V30 10143 C 996.01 1.85807 -0.784774 0
M  V30 10144 C 996.323 1.82967 0.691551 0
M  V30 10145 O 997.529 2.48632 1.0906 0
M  V30 10146 C 995.985 3.33469 -1.35375 0
M  V30 10147 C 995.593 3.44766 -2.86077 0
M  V30 10148 C 997.337 4.08707 -1.14713 0
M  V30 10149 C 995.244 4.86551 -3.36187 0
M  V30 10150 H 994.174 0.696046 -0.28989 0
M  V30 10151 H 996.825 1.30629 -1.28873 0
M  V30 10152 H 995.207 3.88292 -0.77754 0
M  V30 10153 H 996.381 3.00073 -3.49704 0
M  V30 10154 H 994.696 2.82969 -3.05479 0
M  V30 10155 H 997.293 5.13336 -1.49633 0
M  V30 10156 H 997.636 4.16211 -0.0858868 0
M  V30 10157 H 998.169 3.60142 -1.68946 0
M  V30 10158 H 994.908 4.84229 -4.41818 0
M  V30 10159 H 994.428 5.31844 -2.77312 0
M  V30 10160 H 996.107 5.55392 -3.31887 0
M  V30 10161 N 996.239 0.8527 1.3254 0
M  V30 10162 C 997.487 0.454224 1.96929 0
M  V30 10163 C 997.808 -0.993034 1.67821 0
M  V30 10164 O 997.078 -1.69371 0.984393 0
M  V30 10165 H 995.658 0.164977 0.728554 0
M  V30 10166 H 998.32 1.0887 1.61658 0
M  V30 10167 H 997.416 0.597667 3.06324 0
M  V30 10168 N 997.718 -1.45297 0.610449 0
M  V30 10169 C 998.946 -2.0659 0.113211 0
M  V30 10170 C 999.361 -1.4546 -1.20361 0
M  V30 10171 O 998.718 -0.569823 -1.73376 0
M  V30 10172 C 998.769 -3.61488 -0.0298411 0
M  V30 10173 O 998.49 -4.20336 1.23488 0
M  V30 10174 C 999.991 -4.39772 -0.558202 0
M  V30 10175 H 997.211 -0.667322 0.0701555 0
M  V30 10176 H 999.755 -1.86497 0.838993 0
M  V30 10177 H 997.91 -3.80913 -0.705963 0
M  V30 10178 H 998.324 -5.13545 1.0664 0
M  V30 10179 H 999.798 -5.48648 -0.607375 0
M  V30 10180 H 1000.27 -4.09755 -1.58107 0
M  V30 10181 H 1000.88 -4.25217 0.0839704 0
M  V30 10182 N 999.196 -0.349774 -1.5367 0
M  V30 10183 C 1000.15 0.52023 -2.21986 0
M  V30 10184 C 1001.13 1.06119 -1.20944 0
M  V30 10185 O 1002.32 0.993857 -1.46463 0
M  V30 10186 C 999.451 1.66751 -3.00082 0
M  V30 10187 C 998.537 1.14019 -4.08486 0
M  V30 10188 N 998.928 0.334588 -5.04692 0
M  V30 10189 C 997.226 1.4165 -4.22908 0
M  V30 10190 C 997.927 0.0476906 -5.8168 0
M  V30 10191 N 996.903 0.641032 -5.39807 0
M  V30 10192 H 1000.7 -0.102261 -2.93722 0
M  V30 10193 H 998.219 -0.15696 -1.6164 0
M  V30 10194 H 1000.22 2.30281 -3.47529 0
M  V30 10195 H 998.876 2.29322 -2.29873 0
M  V30 10196 H 999.887 -0.0248665 -5.17894 0
M  V30 10197 H 996.564 2.04615 -3.63922 0
M  V30 10198 H 997.954 -0.602565 -6.69193 0
M  V30 10199 N 1000.67 1.57404 -0.0785433 0
M  V30 10200 C 1001.92 1.93361 0.58786 0
M  V30 10201 C 1002.24 0.959856 1.6974 0
M  V30 10202 O 1001.51 0.0091173 1.95898 0
M  V30 10203 H 1000.09 0.713825 0.220141 0
M  V30 10204 H 1002.75 1.94411 -0.137986 0
M  V30 10205 H 1001.85 2.95346 1.00881 0
M  V30 10206 N 1002.15 -0.195058 1.56388 0
M  V30 10207 C 1003.39 -0.92221 1.82413 0
M  V30 10208 C 1003.76 -1.80444 0.656037 0
M  V30 10209 O 1004.96 -2.56738 0.796182 0
M  V30 10210 C 1003.23 -1.71687 3.13462 0
M  V30 10211 S 1004.79 -2.49604 3.60892 0
M  V30 10212 H 1001.6 -0.309316 0.640191 0
M  V30 10213 H 1004.21 -0.185613 1.94617 0
M  V30 10214 H 1002.91 -1.05936 3.96492 0
M  V30 10215 H 1002.44 -2.49529 3.04137 0
M  V30 10216 H 1004.46 -3.73794 3.26332 0
M  V30 10217 N 1003.63 -1.50653 -0.462772 0
M  V30 10218 C 1004.91 -1.5258 -1.22387 0
M  V30 10219 C 1005.29 -0.275263 -2.09298 0
M  V30 10220 O 1004.63 0.740943 -2.16153 0
M  V30 10221 C 1004.84 -2.82611 -2.04773 0
M  V30 10222 C 1006.19 -3.33592 -2.62681 0
M  V30 10223 O 1007.22 -2.83989 -2.15008 0
M  V30 10224 O 1006.08 -4.20081 -3.49563 0
M  V30 10225 H 1003.17 -0.612367 -0.55582 0
M  V30 10226 H 1005.72 -1.62948 -0.473914 0
M  V30 10227 H 1004.49 -3.65098 -1.40781 0
M  V30 10228 H 1004.11 -2.75286 -2.86886 0
M  V30 10229 N 1005.11 0.71652 -1.4037 0
M  V30 10230 C 1006.34 1.50563 -1.4191 0
M  V30 10231 C 1006.75 1.88791 -0.0185456 0
M  V30 10232 O 1006.11 1.55378 0.957289 0
M  V30 10233 C 1006.16 2.78155 -2.30894 0
M  V30 10234 O 1005.88 2.41543 -3.65497 0
M  V30 10235 C 1007.38 3.72057 -2.41016 0
M  V30 10236 H 1004.6 0.464679 -0.48406 0
M  V30 10237 H 1007.15 0.883927 -1.8441 0
M  V30 10238 H 1005.3 3.36611 -1.91759 0
M  V30 10239 H 1005.71 3.23636 -4.12747 0
M  V30 10240 H 1007.19 4.58426 -3.07489 0
M  V30 10241 H 1007.67 4.15098 -1.43492 0
M  V30 10242 H 1008.27 3.19512 -2.80699 0
M  V30 10243 N 1006.59 1.25851 0.948643 0
M  V30 10244 C 1007.53 1.06559 2.06756 0
M  V30 10245 C 1008.53 -0.00528632 1.69399 0
M  V30 10246 O 1009.73 0.150806 1.79367 0
M  V30 10247 H 1006.11 0.327689 0.676848 0
M  V30 10248 H 1008.08 2.01401 2.20182 0
M  V30 10249 C 1006.83 0.707392 3.40428 0
M  V30 10250 H 1006.15 1.52324 3.69645 0
M  V30 10251 H 1007.59 0.612142 4.19558 0
M  V30 10252 C 1006.05 -0.58697 3.31747 0
M  V30 10253 O 1006.58 -1.62741 3.67258 0
M  V30 10254 N 1004.79 -0.574828 2.84858 0
M  V30 10255 H 1004.33 0.272236 2.56157 0
M  V30 10256 H 1004.29 -1.441 2.79432 0
M  V30 10257 N 1008.06 -1.15214 1.07534 0
M  V30 10258 C 1009.03 -2.18209 0.701237 0
M  V30 10259 C 1010.03 -1.58693 -0.25946 0
M  V30 10260 O 1011.22 -1.74154 -0.0401744 0
M  V30 10261 C 1008.35 -3.40883 0.0338703 0
M  V30 10262 H 1009.54 -2.5282 1.61314 0
M  V30 10263 H 1007.1 -1.29707 0.872105 0
M  V30 10264 H 1007.83 -3.11843 -0.890187 0
M  V30 10265 H 1007.62 -3.85342 0.72486 0
M  V30 10266 H 1009.11 -4.17056 -0.213152 0
M  V30 10267 N 1009.54 -0.859717 -1.32086 0
M  V30 10268 C 1010.51 -0.313005 -2.27053 0
M  V30 10269 C 1011.51 0.530191 -1.51808 0
M  V30 10270 O 1012.7 0.340972 -1.7083 0
M  V30 10271 C 1009.83 0.5566 -3.36325 0
M  V30 10272 H 1011.02 -1.15125 -2.76923 0
M  V30 10273 H 1008.57 -0.634463 -1.42843 0
M  V30 10274 H 1009.31 1.41645 -2.91731 0
M  V30 10275 H 1009.09 -0.0470197 -3.92072 0
M  V30 10276 H 1010.58 0.931725 -4.07073 0
M  V30 10277 N 1011.02 1.44971 -0.618145 0
M  V30 10278 C 1012.26 2.04044 -0.120625 0
M  V30 10279 C 1012.62 1.47472 1.22947 0
M  V30 10280 O 1013.83 1.97965 1.81834 0
M  V30 10281 C 1012.1 3.57279 -0.0930863 0
M  V30 10282 S 1013.66 4.37468 0.341705 0
M  V30 10283 H 1010.47 0.708891 -0.0547272 0
M  V30 10284 H 1013.08 1.77535 -0.818621 0
M  V30 10285 H 1011.78 3.95961 -1.07903 0
M  V30 10286 H 1011.31 3.88378 0.62657 0
M  V30 10287 H 1013.33 4.70073 1.58888 0
M  V30 10288 N 1012.5 0.357919 1.53482 0
M  V30 10289 C 1013.91 0.00655107 1.59599 0
M  V30 10290 C 1014.11 -1.47449 1.37336 0
M  V30 10291 O 1013.17 -2.2351 1.17472 0
M  V30 10292 C 1014.48 0.455617 2.97228 0
M  V30 10293 C 1016.03 0.409183 3.10314 0
M  V30 10294 C 1016.51 0.833941 4.50344 0
M  V30 10295 N 1018 0.788695 4.56436 0
M  V30 10296 C 1018.73 1.08914 5.62961 0
M  V30 10297 N 1018.23 1.45847 6.77274 0
M  V30 10298 N 1020.02 1.01243 5.52907 0
M  V30 10299 H 1012.17 1.32248 1.66206 0
M  V30 10300 H 1014.44 0.540047 0.779136 0
M  V30 10301 H 1014.14 1.48881 3.18634 0
M  V30 10302 H 1014.02 -0.161751 3.76853 0
M  V30 10303 H 1016.4 -0.614863 2.88623 0
M  V30 10304 H 1016.48 1.06195 2.32715 0
M  V30 10305 H 1016.13 1.85607 4.72771 0
M  V30 10306 H 1016.06 0.158507 5.26361 0
M  V30 10307 H 1018.55 0.516497 3.74354 0
M  V30 10308 H 1018.86 1.67218 7.54492 0
M  V30 10309 H 1017.21 1.49705 6.78685 0
M  V30 10310 H 1020.4 0.723137 4.62481 0
M  V30 10311 H 1020.57 1.24991 6.35831 0
M  V30 10312 N 1013.98 -1.5736 0.0868897 0
M  V30 10313 C 1015.39 -1.81356 -0.443499 0
M  V30 10314 C 1015.74 -1.00192 -1.68689 0
M  V30 10315 O 1014.86 -0.228863 -2.15186 0
M  V30 10316 C 1015.46 -3.28941 -0.811387 0
M  V30 10317 C 1014.02 -3.53729 -1.28656 0
M  V30 10318 C 1013.16 -2.75891 -0.279153 0
M  V30 10319 H 1016.12 -1.55594 0.312427 0
M  V30 10320 H 1016.14 -3.41815 -1.6716 0
M  V30 10321 H 1015.65 -3.87987 0.0937598 0
M  V30 10322 H 1013.75 -3.00005 -2.2097 0
M  V30 10323 H 1013.86 -4.62396 -1.25406 0
M  V30 10324 H 1012.23 -2.4311 -0.759595 0
M  V30 10325 H 1013.01 -3.37682 0.618529 0
M  V30 10326 N 1015.45 0.186762 -1.56489 0
M  V30 10327 C 1016.7 0.904063 -1.80752 0
M  V30 10328 C 1017.02 1.83443 -0.661343 0
M  V30 10329 O 1016.29 1.93272 0.319811 0
M  V30 10330 H 1014.87 0.336828 -0.66675 0
M  V30 10331 H 1017.54 0.190275 -1.93969 0
M  V30 10332 H 1016.63 1.49021 -2.74225 0
M  V30 10333 N 1016.93 1.50896 0.454776 0
M  V30 10334 C 1018.34 1.55372 1.0352 0
M  V30 10335 C 1018.69 0.366822 1.9274 0
M  V30 10336 O 1017.82 -0.518444 2.10098 0
M  V30 10337 C 1018.41 2.81574 1.88418 0
M  V30 10338 C 1016.97 2.88679 2.4154 0
M  V30 10339 C 1016.12 2.49847 1.20298 0
M  V30 10340 H 1019.07 1.56924 0.236729 0
M  V30 10341 H 1019.09 2.64352 2.73676 0
M  V30 10342 H 1018.6 3.67941 1.23455 0
M  V30 10343 H 1016.71 2.06702 3.10008 0
M  V30 10344 H 1016.82 3.91944 2.7553 0
M  V30 10345 H 1015.18 2.02651 1.54288 0
M  V30 10346 H 1015.97 3.3854 0.569723 0
M  V30 10347 N 1018.41 -0.709066 1.40748 0
M  V30 10348 C 1019.83 -1.01797 1.22921 0
M  V30 10349 C 1020.03 -2.01205 0.109011 0
M  V30 10350 O 1019.08 -2.46854 -0.530987 0
M  V30 10351 C 1020.4 -1.55546 2.57344 0
M  V30 10352 C 1021.94 -1.67498 2.64412 0
M  V30 10353 C 1022.42 -2.24652 3.99119 0
M  V30 10354 N 1023.91 -2.3203 4.00895 0
M  V30 10355 C 1024.64 -2.7725 5.01917 0
M  V30 10356 N 1024.14 -3.22174 6.13332 0
M  V30 10357 N 1025.93 -2.76692 4.89283 0
M  V30 10358 H 1018.08 -0.0502704 2.12341 0
M  V30 10359 H 1020.35 -0.0848933 0.944191 0
M  V30 10360 H 1020.05 -0.899631 3.39999 0
M  V30 10361 H 1019.93 -2.53971 2.78888 0
M  V30 10362 H 1022.31 -2.32196 1.82123 0
M  V30 10363 H 1022.4 -0.676553 2.46691 0
M  V30 10364 H 1022.04 -1.60573 4.81849 0
M  V30 10365 H 1021.97 -3.25221 4.14173 0
M  V30 10366 H 1024.46 -2.00309 3.20444 0
M  V30 10367 H 1024.77 -3.55265 6.86299 0
M  V30 10368 H 1023.12 -3.20116 6.16888 0
M  V30 10369 H 1026.31 -2.40936 4.01332 0
M  V30 10370 H 1026.48 -3.11617 5.68154 0
M  V30 10371 N 1019.89 -1.26353 -0.941956 0
M  V30 10372 C 1021.12 -1.14626 -1.72245 0
M  V30 10373 C 1021.53 0.298588 -1.86424 0
M  V30 10374 O 1020.89 1.2045 -1.37106 0
M  V30 10375 C 1020.94 -1.80933 -3.12963 0
M  V30 10376 O 1020.66 -3.19771 -2.99463 0
M  V30 10377 C 1022.16 -1.7515 -4.07231 0
M  V30 10378 H 1019.38 -0.3992 -0.539333 0
M  V30 10379 H 1021.93 -1.66958 -1.1809 0
M  V30 10380 H 1020.08 -1.32541 -3.64021 0
M  V30 10381 H 1020.5 -3.52571 -3.88322 0
M  V30 10382 H 1021.97 -2.26183 -5.03533 0
M  V30 10383 H 1022.45 -0.717855 -4.33294 0
M  V30 10384 H 1023.05 -2.2309 -3.62093 0
M  V30 10385 N 1021.37 1.14642 -1.08144 0
M  V30 10386 C 1022.3 2.19283 -0.6669 0
M  V30 10387 C 1023.31 1.60292 0.284668 0
M  V30 10388 O 1024.5 1.78352 0.0727383 0
M  V30 10389 C 1021.6 3.38877 0.0398572 0
M  V30 10390 C 1020.77 4.274 -0.929929 0
M  V30 10391 C 1019.83 5.25562 -0.258991 0
M  V30 10392 O 1018.86 5.61999 -0.902563 0
M  V30 10393 N 1020.06 5.71958 0.992177 0
M  V30 10394 H 1022.83 2.55464 -1.5671 0
M  V30 10395 H 1020.39 1.29836 -0.96717 0
M  V30 10396 H 1022.38 4.01605 0.499583 0
M  V30 10397 H 1020.95 3.01043 0.842118 0
M  V30 10398 H 1020.17 3.61649 -1.56857 0
M  V30 10399 H 1021.46 4.83411 -1.58717 0
M  V30 10400 H 1020.86 5.44481 1.53484 0
M  V30 10401 H 1019.41 6.36687 1.39544 0
M  V30 10402 N 1022.85 0.866709 1.31628 0
M  V30 10403 C 1024.09 0.476026 1.96825 0
M  V30 10404 C 1024.42 -0.970994 1.68529 0
M  V30 10405 O 1023.68 -1.69823 0.97255 0
M  V30 10406 C 1023.97 0.676018 3.50948 0
M  V30 10407 C 1023.64 2.09533 3.99258 0
M  V30 10408 C 1022.3 2.48349 4.1216 0
M  V30 10409 C 1024.65 3.02112 4.24709 0
M  V30 10410 C 1021.98 3.78991 4.47864 0
M  V30 10411 C 1024.33 4.32266 4.61875 0
M  V30 10412 C 1023 4.71 4.72985 0
M  V30 10413 H 1022.27 0.17419 0.720235 0
M  V30 10414 H 1024.92 1.09907 1.5682 0
M  V30 10415 H 1023.22 -0.0301867 3.91788 0
M  V30 10416 H 1024.92 0.353604 3.99438 0
M  V30 10417 H 1021.51 1.78396 3.89709 0
M  V30 10418 H 1025.69 2.73351 4.14238 0
M  V30 10419 H 1020.95 4.08769 4.54663 0
M  V30 10420 H 1025.12 5.04055 4.80522 0
M  V30 10421 H 1022.75 5.72273 5.00407 0
M  V30 10422 N 1024.32 -1.44642 0.625825 0
M  V30 10423 C 1025.55 -2.06458 0.135116 0
M  V30 10424 C 1025.97 -1.46729 -1.18811 0
M  V30 10425 O 1025.32 -0.58818 -1.72762 0
M  V30 10426 C 1025.37 -3.61499 0.00850114 0
M  V30 10427 O 1025.1 -4.19002 1.2794 0
M  V30 10428 C 1026.6 -4.40339 -0.511527 0
M  V30 10429 H 1023.82 -0.666541 0.0772294 0
M  V30 10430 H 1026.36 -1.85597 0.858726 0
M  V30 10431 H 1024.52 -3.81641 -0.665522 0
M  V30 10432 H 1024.93 -5.12385 1.12081 0
M  V30 10433 H 1026.4 -5.49262 -0.549149 0
M  V30 10434 H 1026.88 -4.11409 -1.53752 0
M  V30 10435 H 1027.49 -4.25104 0.129066 0
M  V30 10436 N 1025.8 -0.366053 -1.5329 0
M  V30 10437 C 1027.04 0.223558 -2.03174 0
M  V30 10438 C 1027.41 1.45955 -1.24745 0
M  V30 10439 O 1028.61 2.12481 -1.64637 0
M  V30 10440 C 1026.88 0.507899 -3.53773 0
M  V30 10441 S 1028.44 1.07111 -4.25526 0
M  V30 10442 H 1025.25 0.0650309 -0.70802 0
M  V30 10443 H 1027.86 -0.509028 -1.88757 0
M  V30 10444 H 1026.56 -0.39913 -4.08455 0
M  V30 10445 H 1026.09 1.26954 -3.72352 0
M  V30 10446 H 1028.11 2.35533 -4.36737 0
M  V30 10447 N 1027.28 1.57312 -0.0952337 0
M  V30 10448 C 1028.19 2.17556 0.877877 0
M  V30 10449 C 1029.21 1.14505 1.31014 0
M  V30 10450 O 1030.38 1.46876 1.37802 0
M  V30 10451 C 1027.45 2.74413 2.11892 0
M  V30 10452 C 1026.51 3.92419 1.74085 0
M  V30 10453 C 1025.74 4.46556 2.92273 0
M  V30 10454 O 1025.96 3.99631 4.07002 0
M  V30 10455 O 1024.9 5.37576 2.70732 0
M  V30 10456 H 1028.72 3.01116 0.395312 0
M  V30 10457 H 1026.31 1.48841 0.129123 0
M  V30 10458 H 1028.19 3.10754 2.84622 0
M  V30 10459 H 1026.87 1.93899 2.59201 0
M  V30 10460 H 1025.77 3.6089 0.985346 0
M  V30 10461 H 1027.11 4.74298 1.31539 0
M  V30 10462 N 1028.76 -0.17846 1.56586 0
M  V30 10463 C 1030 -0.90281 1.83381 0
M  V30 10464 C 1030.36 -1.79738 0.675139 0
M  V30 10465 O 1031.56 -2.55879 0.823368 0
M  V30 10466 C 1029.83 -1.68353 3.15265 0
M  V30 10467 S 1031.39 -2.45762 3.6352 0
M  V30 10468 H 1028.21 -0.302508 0.643436 0
M  V30 10469 H 1030.81 -0.164961 1.94803 0
M  V30 10470 H 1029.52 -1.01725 3.97593 0
M  V30 10471 H 1029.05 -2.46289 3.06766 0
M  V30 10472 H 1031.06 -3.70312 3.30278 0
M  V30 10473 N 1030.24 -1.51135 -0.446768 0
M  V30 10474 C 1031.46 -1.67411 -1.22427 0
M  V30 10475 C 1031.89 -0.367009 -1.84485 0
M  V30 10476 O 1031.24 0.67185 -1.68392 0
M  V30 10477 C 1031.29 -2.78473 -2.29096 0
M  V30 10478 O 1030.4 -2.41419 -3.34351 0
M  V30 10479 H 1029.74 -0.558512 -0.359111 0
M  V30 10480 H 1032.27 -1.97648 -0.5288 0
M  V30 10481 H 1032.28 -3.02277 -2.7403 0
M  V30 10482 H 1030.95 -3.73326 -1.83304 0
M  V30 10483 H 1029.53 -2.28152 -2.9496 0
M  V30 10484 N 1031.71 0.701592 -1.41122 0
M  V30 10485 C 1032.96 1.45722 -1.39456 0
M  V30 10486 C 1033.28 1.95599 -0.00475228 0
M  V30 10487 O 1034.48 2.71166 0.134529 0
M  V30 10488 C 1032.94 2.63475 -2.45172 0
M  V30 10489 C 1032.55 2.20409 -3.90031 0
M  V30 10490 C 1034.29 3.4114 -2.52633 0
M  V30 10491 C 1032.2 3.35084 -4.87312 0
M  V30 10492 H 1031.13 0.547341 -0.518588 0
M  V30 10493 H 1033.78 0.762233 -1.6692 0
M  V30 10494 H 1032.16 3.35212 -2.10829 0
M  V30 10495 H 1033.33 1.56 -4.3359 0
M  V30 10496 H 1031.65 1.55752 -3.86174 0
M  V30 10497 H 1034.25 4.26496 -3.22498 0
M  V30 10498 H 1034.59 3.85915 -1.56125 0
M  V30 10499 H 1035.12 2.76456 -2.86037 0
M  V30 10500 H 1031.86 2.95327 -5.85203 0
M  V30 10501 H 1031.38 3.98362 -4.48406 0
M  V30 10502 H 1033.06 4.00949 -5.07788 0
M  V30 10503 N 1033.19 1.2685 0.935242 0
M  V30 10504 C 1034.44 1.12522 1.67878 0
M  V30 10505 C 1034.76 -0.330894 1.92172 0
M  V30 10506 O 1034.03 -1.23259 1.52263 0
M  V30 10507 H 1032.61 0.413418 0.622169 0
M  V30 10508 H 1035.27 1.59267 1.12339 0
M  V30 10509 H 1034.37 1.64853 2.65009 0
M  V30 10510 N 1034.67 -1.14067 1.0875 0
M  V30 10511 C 1035.92 -1.85185 0.819317 0
M  V30 10512 C 1036.25 -1.8314 -0.654969 0
M  V30 10513 O 1035.5 -1.25974 -1.49763 0
M  V30 10514 C 1035.8 -3.33273 1.29089 0
M  V30 10515 C 1035.47 -3.55504 2.77359 0
M  V30 10516 C 1034.13 -3.61279 3.17853 0
M  V30 10517 C 1036.48 -3.64041 3.72992 0
M  V30 10518 C 1033.81 -3.73119 4.52768 0
M  V30 10519 C 1036.16 -3.77407 5.07687 0
M  V30 10520 C 1034.82 -3.81433 5.47782 0
M  V30 10521 H 1034.09 -0.67764 0.299809 0
M  V30 10522 H 1036.74 -1.34713 1.36106 0
M  V30 10523 H 1035.05 -3.86049 0.668811 0
M  V30 10524 H 1036.74 -3.86734 1.06009 0
M  V30 10525 H 1033.33 -3.51659 2.45019 0
M  V30 10526 H 1037.52 -3.58866 3.42825 0
M  V30 10527 H 1032.77 -3.74499 4.83281 0
M  V30 10528 H 1036.95 -3.82956 5.81651 0
M  V30 10529 H 1034.57 -3.9036 6.52321 0
M  V30 10530 N 1036.15 -0.873678 -1.31166 0
M  V30 10531 C 1037.56 -0.566109 -1.49223 0
M  V30 10532 C 1037.76 0.898889 -1.80339 0
M  V30 10533 O 1036.82 1.68084 -1.88425 0
M  V30 10534 C 1038.13 -1.46952 -2.62346 0
M  V30 10535 C 1039.68 -1.47195 -2.76229 0
M  V30 10536 C 1040.16 -2.36102 -3.92454 0
M  V30 10537 N 1041.65 -2.34003 -3.99746 0
M  V30 10538 C 1042.38 -2.99513 -4.88958 0
M  V30 10539 N 1041.88 -3.74206 -5.83045 0
M  V30 10540 N 1043.67 -2.88802 -4.82234 0
M  V30 10541 H 1035.82 -1.82156 -1.09239 0
M  V30 10542 H 1038.09 -0.779086 -0.54012 0
M  V30 10543 H 1037.79 -2.51213 -2.4614 0
M  V30 10544 H 1037.67 -1.17077 -3.5857 0
M  V30 10545 H 1040.05 -0.436902 -2.91848 0
M  V30 10546 H 1040.13 -1.81095 -1.80661 0
M  V30 10547 H 1039.78 -3.39685 -3.77593 0
M  V30 10548 H 1039.71 -1.99524 -4.87337 0
M  V30 10549 H 1042.2 -1.79713 -3.32433 0
M  V30 10550 H 1042.51 -4.21312 -6.47855 0
M  V30 10551 H 1040.86 -3.78314 -5.83012 0
M  V30 10552 H 1044.05 -2.29984 -4.07707 0
M  V30 10553 H 1044.22 -3.40136 -5.51554 0
M  V30 10554 N 1037.63 1.44308 -0.633487 0
M  V30 10555 C 1038.87 2.01624 -0.138643 0
M  V30 10556 C 1039.2 1.50101 1.24477 0
M  V30 10557 O 1038.47 0.705575 1.82752 0
M  V30 10558 H 1037.05 0.745439 -0.0482636 0
M  V30 10559 H 1039.71 1.76777 -0.820719 0
M  V30 10560 H 1038.8 3.11913 -0.108136 0
M  V30 10561 N 1039.1 0.374177 1.53094 0
M  V30 10562 C 1040.38 -0.269632 1.93733 0
M  V30 10563 C 1040.76 -1.6566 1.30843 0
M  V30 10564 O 1040.11 -2.23598 0.470759 0
M  V30 10565 C 1040.32 -0.311204 3.4761 0
M  V30 10566 C 1041.67 -0.547432 4.21056 0
M  V30 10567 O 1042.69 -0.392053 3.54036 0
M  V30 10568 O 1041.55 -0.850645 5.39839 0
M  V30 10569 H 1038.64 -0.163723 0.810632 0
M  V30 10570 H 1041.19 0.427586 1.64225 0
M  V30 10571 H 1039.96 0.660897 3.85678 0
M  V30 10572 H 1039.59 -1.05397 3.83376 0
M  V30 10573 N 1040.58 -1.57259 0.103575 0
M  V30 10574 C 1041.83 -1.94272 -0.557024 0
M  V30 10575 C 1042.15 -0.986739 -1.68192 0
M  V30 10576 O 1041.42 -0.0402818 -1.95859 0
M  V30 10577 H 1040 -0.717237 -0.208757 0
M  V30 10578 H 1042.66 -1.94167 0.168898 0
M  V30 10579 H 1041.76 -2.96914 -0.961691 0
M  V30 10580 N 1042.06 0.170153 -1.56679 0
M  V30 10581 C 1043.48 0.521966 -1.50823 0
M  V30 10582 C 1043.68 1.84589 -0.808037 0
M  V30 10583 O 1042.73 2.49791 -0.368891 0
M  V30 10584 C 1044.05 0.553648 -2.95559 0
M  V30 10585 C 1045.59 0.640769 -3.06371 0
M  V30 10586 C 1046.07 0.703332 -4.52567 0
M  V30 10587 N 1047.56 0.76619 -4.56819 0
M  V30 10588 C 1048.29 0.835192 -5.67285 0
M  V30 10589 N 1047.79 0.864957 -6.87379 0
M  V30 10590 N 1049.58 0.874302 -5.55259 0
M  V30 10591 H 1041.73 -0.697952 -2.00605 0
M  V30 10592 H 1044 -0.251787 -0.913952 0
M  V30 10593 H 1043.7 -0.350498 -3.49949 0
M  V30 10594 H 1043.58 1.39973 -3.50268 0
M  V30 10595 H 1045.96 1.53534 -2.52015 0
M  V30 10596 H 1046.05 -0.232008 -2.54746 0
M  V30 10597 H 1045.69 -0.186986 -5.07556 0
M  V30 10598 H 1045.62 1.59227 -5.0195 0
M  V30 10599 H 1048.11 0.751424 -3.70354 0
M  V30 10600 H 1048.42 0.918814 -7.67318 0
M  V30 10601 H 1046.77 0.833215 -6.89987 0
M  V30 10602 H 1049.96 0.848057 -4.60354 0
M  V30 10603 H 1050.13 0.924615 -6.4137 0
M  V30 10604 N 1043.54 1.5137 0.438746 0
M  V30 10605 C 1044.77 1.67774 1.21077 0
M  V30 10606 C 1045.18 0.374489 1.85049 0
M  V30 10607 O 1044.54 -0.646867 1.70651 0
M  V30 10608 C 1044.59 2.79238 2.29584 0
M  V30 10609 O 1044.31 4.04513 1.68228 0
M  V30 10610 C 1045.81 3.06898 3.19888 0
M  V30 10611 H 1043.03 0.563054 0.364981 0
M  V30 10612 H 1045.58 1.97777 0.520035 0
M  V30 10613 H 1043.73 2.51837 2.94375 0
M  V30 10614 H 1044.14 4.66405 2.3993 0
M  V30 10615 H 1045.62 3.88476 3.92162 0
M  V30 10616 H 1046.1 2.19249 3.80561 0
M  V30 10617 H 1046.7 3.35952 2.60799 0
M  V30 10618 N 1045.02 -0.694098 1.41492 0
M  V30 10619 C 1046.26 -1.46637 1.42398 0
M  V30 10620 C 1046.62 -1.91973 0.0321256 0
M  V30 10621 O 1047.82 -2.68669 -0.0840324 0
M  V30 10622 C 1046.09 -2.64474 2.40392 0
M  V30 10623 S 1047.65 -3.53595 2.59838 0
M  V30 10624 H 1044.47 -0.501074 0.504427 0
M  V30 10625 H 1047.07 -0.809761 1.77941 0
M  V30 10626 H 1045.78 -2.29374 3.40317 0
M  V30 10627 H 1045.31 -3.35026 2.06206 0
M  V30 10628 H 1047.32 -4.59741 1.86689 0
M  V30 10629 N 1046.49 -1.27344 -0.928501 0
M  V30 10630 C 1047.72 -1.16278 -1.70772 0
M  V30 10631 C 1048.13 0.283131 -1.8707 0
M  V30 10632 O 1047.48 1.20466 -1.38685 0
M  V30 10633 C 1047.54 -1.77313 -3.1273 0
M  V30 10634 C 1047.2 -3.26488 -3.19773 0
M  V30 10635 C 1048.2 -4.23133 -3.02083 0
M  V30 10636 C 1045.88 -3.67182 -3.42757 0
M  V30 10637 C 1047.88 -5.5845 -3.07267 0
M  V30 10638 C 1045.56 -5.02629 -3.47574 0
M  V30 10639 C 1046.56 -5.98072 -3.29847 0
M  V30 10640 O 1046.25 -7.3105 -3.34397 0
M  V30 10641 H 1045.98 -0.405215 -0.541089 0
M  V30 10642 H 1048.54 -1.68707 -1.17163 0
M  V30 10643 H 1046.77 -1.19361 -3.67818 0
M  V30 10644 H 1048.46 -1.60972 -3.72616 0
M  V30 10645 H 1049.22 -3.93031 -2.84168 0
M  V30 10646 H 1045.1 -2.93369 -3.55606 0
M  V30 10647 H 1048.64 -6.32924 -2.93348 0
M  V30 10648 H 1044.54 -5.32387 -3.65013 0
M  V30 10649 H 1045.31 -7.39488 -3.50857 0
M  V30 10650 N 1047.97 1.13488 -1.09353 0
M  V30 10651 C 1049.25 1.80998 -0.741559 0
M  V30 10652 C 1049.63 1.96418 0.773505 0
M  V30 10653 O 1048.98 1.53168 1.69563 0
M  V30 10654 C 1049.19 3.16078 -1.47972 0
M  V30 10655 C 1050.54 3.91438 -1.64504 0
M  V30 10656 O 1051.56 3.25699 -1.44218 0
M  V30 10657 O 1050.42 5.0935 -1.98054 0
M  V30 10658 H 1047.51 0.782953 -0.266297 0
M  V30 10659 H 1050.06 1.20422 -1.19569 0
M  V30 10660 H 1048.83 3.00076 -2.51137 0
M  V30 10661 H 1048.45 3.84354 -1.01772 0
M  V30 10662 N 1049.45 0.880621 1.30701 0
M  V30 10663 C 1050.7 0.492957 1.95583 0
M  V30 10664 C 1051.01 -0.961863 1.70316 0
M  V30 10665 O 1052.22 -1.45617 2.29146 0
M  V30 10666 C 1050.68 0.830656 3.50183 0
M  V30 10667 C 1050.28 2.30295 3.84276 0
M  V30 10668 C 1052.03 0.511979 4.21401 0
M  V30 10669 C 1049.93 2.58251 5.32034 0
M  V30 10670 H 1048.86 0.18062 0.732047 0
M  V30 10671 H 1051.52 1.075 1.48715 0
M  V30 10672 H 1049.9 0.177752 3.95601 0
M  V30 10673 H 1051.07 2.99981 3.49783 0
M  V30 10674 H 1049.39 2.58873 3.2615 0
M  V30 10675 H 1051.98 0.697935 5.30125 0
M  V30 10676 H 1052.33 -0.548327 4.12673 0
M  V30 10677 H 1052.86 1.12189 3.81652 0
M  V30 10678 H 1049.6 3.63005 5.45809 0
M  V30 10679 H 1049.12 1.9317 5.67843 0
M  V30 10680 H 1050.8 2.43527 5.99419 0
M  V30 10681 N 1050.93 -1.4397 0.641131 0
M  V30 10682 C 1052.21 -1.95436 0.0800918 0
M  V30 10683 C 1052.59 -1.58282 -1.39678 0
M  V30 10684 O 1051.93 -0.861867 -2.11623 0
M  V30 10685 C 1052.14 -3.47589 0.313531 0
M  V30 10686 C 1053.49 -4.2407 0.212034 0
M  V30 10687 O 1054.52 -3.55353 0.245434 0
M  V30 10688 O 1053.38 -5.46356 0.125455 0
M  V30 10689 H 1050.47 -0.826834 -0.0165735 0
M  V30 10690 H 1053.02 -1.5397 0.71353 0
M  V30 10691 H 1051.79 -3.67716 1.33793 0
M  V30 10692 H 1051.41 -3.96025 -0.353563 0
M  V30 10693 N 1052.41 -0.382291 -1.52893 0
M  V30 10694 C 1053.32 0.463745 -2.29971 0
M  V30 10695 C 1054.33 1.07777 -1.36602 0
M  V30 10696 O 1055.51 1.0851 -1.69669 0
M  V30 10697 C 1052.57 1.57938 -3.08637 0
M  V30 10698 C 1051.64 0.991182 -4.17701 0
M  V30 10699 C 1050.87 2.05365 -4.92606 0
M  V30 10700 O 1051.09 3.26757 -4.67532 0
M  V30 10701 O 1050.03 1.67487 -5.78128 0
M  V30 10702 H 1053.85 -0.163962 -3.03257 0
M  V30 10703 H 1051.44 -0.146199 -1.48683 0
M  V30 10704 H 1053.32 2.22765 -3.57706 0
M  V30 10705 H 1051.99 2.19218 -2.3817 0
M  V30 10706 H 1050.9 0.306364 -3.72843 0
M  V30 10707 H 1052.23 0.422699 -4.90382 0
M  V30 10708 N 1053.89 1.57202 -0.111913 0
M  V30 10709 C 1055.13 1.96834 0.550967 0
M  V30 10710 C 1055.49 0.993502 1.64297 0
M  V30 10711 O 1056.69 1.27894 2.36425 0
M  V30 10712 C 1054.96 3.40805 1.07641 0
M  V30 10713 S 1056.52 4.02445 1.74881 0
M  V30 10714 H 1053.34 0.688021 0.179298 0
M  V30 10715 H 1055.94 1.94522 -0.195312 0
M  V30 10716 H 1054.64 4.09508 0.270377 0
M  V30 10717 H 1054.18 3.46752 1.85814 0
M  V30 10718 H 1056.19 3.92623 3.03416 0
M  V30 10719 N 1055.36 -0.161842 1.56767 0
M  V30 10720 C 1056.59 -0.896274 1.87034 0
M  V30 10721 C 1057.01 -1.74617 0.699314 0
M  V30 10722 O 1056.37 -1.77861 -0.351435 0
M  V30 10723 C 1056.42 -1.74105 3.15784 0
M  V30 10724 O 1055.52 -2.84372 2.98674 0
M  V30 10725 H 1054.86 -0.250523 0.614926 0
M  V30 10726 H 1057.39 -0.157127 2.03996 0
M  V30 10727 H 1057.4 -2.13907 3.4743 0
M  V30 10728 H 1056.08 -1.11684 4.00624 0
M  V30 10729 H 1054.66 -2.48084 2.78404 0
M  V30 10730 N 1056.84 -1.516 -0.430713 0
M  V30 10731 C 1057.75 -1.76247 -1.54836 0
M  V30 10732 C 1058.77 -0.646985 -1.61524 0
M  V30 10733 O 1059.94 -0.929987 -1.78643 0
M  V30 10734 C 1057.01 -1.88833 -2.90763 0
M  V30 10735 C 1056.07 -3.12701 -2.94137 0
M  V30 10736 C 1055.3 -3.24676 -4.23581 0
M  V30 10737 O 1055.53 -2.42429 -5.16318 0
M  V30 10738 O 1054.46 -4.17697 -4.33374 0
M  V30 10739 H 1058.29 -2.71069 -1.3695 0
M  V30 10740 H 1055.87 -1.36182 -0.614396 0
M  V30 10741 H 1057.75 -1.99057 -3.71422 0
M  V30 10742 H 1056.43 -0.971987 -3.08762 0
M  V30 10743 H 1055.33 -3.0795 -2.1241 0
M  V30 10744 H 1056.67 -4.04045 -2.81084 0
M  V30 10745 N 1058.32 0.686584 -1.41858 0
M  V30 10746 C 1059.25 1.81202 -1.40352 0
M  V30 10747 C 1060.26 1.5993 -0.304322 0
M  V30 10748 O 1061.45 1.69267 -0.566643 0
M  V30 10749 C 1058.55 3.18116 -1.16856 0
M  V30 10750 C 1057.73 3.66339 -2.38987 0
M  V30 10751 C 1056.79 4.8195 -2.11212 0
M  V30 10752 O 1055.81 4.93102 -2.84323 0
M  V30 10753 N 1057.01 5.69829 -1.10793 0
M  V30 10754 H 1059.78 1.82983 -2.37355 0
M  V30 10755 H 1057.34 0.869244 -1.36586 0
M  V30 10756 H 1059.33 3.93097 -0.962125 0
M  V30 10757 H 1057.9 3.11306 -0.284186 0
M  V30 10758 H 1057.12 2.82166 -2.75274 0
M  V30 10759 H 1058.41 3.95297 -3.2034 0
M  V30 10760 H 1057.81 5.63459 -0.503012 0
M  V30 10761 H 1056.36 6.44671 -0.961379 0
M  V30 10762 N 1059.8 1.27835 0.921735 0
M  V30 10763 C 1061.21 1.13151 1.48505 0
M  V30 10764 C 1061.56 -0.281373 1.94172 0
M  V30 10765 O 1060.68 -1.17487 1.8173 0
M  V30 10766 C 1061.28 2.04792 2.69899 0
M  V30 10767 C 1059.84 1.94196 3.22436 0
M  V30 10768 C 1058.99 1.96999 1.95158 0
M  V30 10769 H 1061.94 1.40641 0.735241 0
M  V30 10770 H 1061.96 1.60724 3.44889 0
M  V30 10771 H 1061.47 3.07615 2.36631 0
M  V30 10772 H 1059.57 0.943805 3.60448 0
M  V30 10773 H 1059.68 2.80744 3.88226 0
M  V30 10774 H 1058.05 1.41301 2.11911 0
M  V30 10775 H 1058.83 3.01487 1.64196 0
M  V30 10776 N 1061.28 -1.12907 1.09954 0
M  V30 10777 C 1062.5 -1.88679 0.861099 0
M  V30 10778 C 1062.93 -1.78853 -0.582499 0
M  V30 10779 O 1062.28 -1.13992 -1.4098 0
M  V30 10780 C 1062.33 -3.36047 1.30785 0
M  V30 10781 O 1061.44 -4.09716 0.469728 0
M  V30 10782 H 1060.78 -0.586447 0.31141 0
M  V30 10783 H 1063.31 -1.42818 1.46507 0
M  V30 10784 H 1063.32 -3.86882 1.29562 0
M  V30 10785 H 1061.99 -3.42516 2.35914 0
M  V30 10786 H 1060.57 -3.6887 0.54674 0
M  V30 10787 N 1062.75 -0.88754 -1.30232 0
M  V30 10788 C 1064 -0.508031 -1.96334 0
M  V30 10789 C 1064.33 0.940905 -1.69884 0
M  V30 10790 O 1063.61 1.66523 -1.005 0
M  V30 10791 C 1063.89 -0.786566 -3.51405 0
M  V30 10792 C 1063.74 -2.28632 -3.8736 0
M  V30 10793 C 1065.06 -0.264803 -4.39303 0
M  V30 10794 H 1062.18 -0.186051 -0.71313 0
M  V30 10795 H 1064.82 -1.112 -1.5406 0
M  V30 10796 H 1062.97 -0.272523 -3.87543 0
M  V30 10797 H 1064.65 -2.86896 -3.61231 0
M  V30 10798 H 1062.89 -2.75194 -3.35337 0
M  V30 10799 H 1063.56 -2.43181 -4.95547 0
M  V30 10800 H 1066.04 -0.704809 -4.10087 0
M  V30 10801 H 1064.91 -0.488998 -5.46717 0
M  V30 10802 H 1065.17 0.834055 -4.34161 0
M  V30 10803 N 1064.23 1.43628 -0.648757 0
M  V30 10804 C 1065.47 2.03742 -0.163878 0
M  V30 10805 C 1065.84 1.50047 1.19791 0
M  V30 10806 O 1067.04 2.01777 1.77594 0
M  V30 10807 C 1065.31 3.57001 -0.168849 0
M  V30 10808 S 1066.87 4.38094 0.248835 0
M  V30 10809 H 1063.69 0.70757 -0.0697515 0
M  V30 10810 H 1066.29 1.75759 -0.856094 0
M  V30 10811 H 1064.99 3.93583 -1.16277 0
M  V30 10812 H 1064.52 3.8962 0.544048 0
M  V30 10813 H 1066.54 4.73338 1.48882 0
M  V30 10814 N 1065.71 0.390394 1.52688 0
M  V30 10815 C 1066.96 -0.191067 2.01195 0
M  V30 10816 C 1067.28 -1.47229 1.27862 0
M  V30 10817 O 1066.55 -1.91793 0.399007 0
M  V30 10818 H 1065.13 -0.073596 0.743366 0
M  V30 10819 H 1067.79 0.522334 1.8777 0
M  V30 10820 H 1066.89 -0.40051 3.0952 0
M  V30 10821 N 1067.19 -1.57141 0.120249 0
M  V30 10822 C 1068.41 -2.00017 -0.548454 0
M  V30 10823 C 1068.84 -0.999433 -1.59352 0
M  V30 10824 O 1068.2 0.0286978 -1.81277 0
M  V30 10825 C 1068.24 -3.41766 -1.15015 0
M  V30 10826 O 1067.35 -3.44589 -2.26566 0
M  V30 10827 H 1066.69 -0.649739 -0.136875 0
M  V30 10828 H 1069.22 -2.03529 0.209092 0
M  V30 10829 H 1069.23 -3.80001 -1.48537 0
M  V30 10830 H 1067.9 -4.14117 -0.384681 0
M  V30 10831 H 1066.48 -3.18174 -1.94473 0
M  V30 10832 N 1068.67 0.153526 -1.5685 0
M  V30 10833 C 1069.62 1.19478 -1.94188 0
M  V30 10834 C 1070.6 1.38889 -0.812329 0
M  V30 10835 O 1071.79 1.4056 -1.07572 0
M  V30 10836 C 1068.92 2.53 -2.32047 0
M  V30 10837 C 1068.01 2.37209 -3.51557 0
M  V30 10838 N 1068.4 1.91162 -4.68285 0
M  V30 10839 C 1066.7 2.67981 -3.56514 0
M  V30 10840 C 1067.4 1.88259 -5.50394 0
M  V30 10841 N 1066.37 2.31329 -4.91923 0
M  V30 10842 H 1070.18 0.830748 -2.81915 0
M  V30 10843 H 1067.69 0.361643 -1.58322 0
M  V30 10844 H 1069.69 3.28264 -2.56998 0
M  V30 10845 H 1068.35 2.90191 -1.45669 0
M  V30 10846 H 1069.36 1.61227 -4.92165 0
M  V30 10847 H 1066.03 3.0909 -2.80659 0
M  V30 10848 H 1067.42 1.54205 -6.53965 0
M  V30 10849 N 1070.14 1.51827 0.422667 0
M  V30 10850 C 1071.37 1.69049 1.1929 0
M  V30 10851 C 1071.79 0.394095 1.84641 0
M  V30 10852 O 1071.14 -0.628731 1.71328 0
M  V30 10853 C 1071.2 2.81657 2.26609 0
M  V30 10854 O 1070.92 4.06275 1.63929 0
M  V30 10855 C 1072.42 3.10274 3.16615 0
M  V30 10856 H 1069.64 0.566894 0.358988 0
M  V30 10857 H 1072.18 1.98318 0.499029 0
M  V30 10858 H 1070.34 2.54945 2.91688 0
M  V30 10859 H 1070.75 4.68924 2.3497 0
M  V30 10860 H 1072.22 3.92613 3.88019 0
M  V30 10861 H 1072.7 2.23273 3.78214 0
M  V30 10862 H 1073.31 3.387 2.57221 0
M  V30 10863 N 1071.62 -0.679052 1.4222 0
M  V30 10864 C 1072.87 -1.43485 1.41757 0
M  V30 10865 C 1073.18 -1.95567 0.0358698 0
M  V30 10866 O 1074.39 -2.71346 -0.0913713 0
M  V30 10867 C 1072.85 -2.59541 2.49332 0
M  V30 10868 C 1072.45 -2.14176 3.93488 0
M  V30 10869 C 1074.2 -3.37078 2.58029 0
M  V30 10870 C 1072.11 -3.27289 4.92581 0
M  V30 10871 H 1071.04 -0.539022 0.52723 0
M  V30 10872 H 1073.69 -0.735581 1.68111 0
M  V30 10873 H 1072.07 -3.31815 2.16135 0
M  V30 10874 H 1073.24 -1.49082 4.36017 0
M  V30 10875 H 1071.56 -1.49589 3.88603 0
M  V30 10876 H 1074.15 -4.21312 3.29242 0
M  V30 10877 H 1074.5 -3.83383 1.62245 0
M  V30 10878 H 1075.03 -2.7187 2.90399 0
M  V30 10879 H 1071.77 -2.8598 5.89827 0
M  V30 10880 H 1071.29 -3.91178 4.54687 0
M  V30 10881 H 1072.97 -3.9282 5.14103 0
M  V30 10882 N 1073.1 -1.28322 -0.914942 0
M  V30 10883 C 1074.34 -1.16657 -1.6784 0
M  V30 10884 C 1074.7 0.280473 -1.8994 0
M  V30 10885 O 1075.91 0.519801 -2.63726 0
M  V30 10886 C 1074.18 -1.94185 -3.00045 0
M  V30 10887 S 1075.74 -1.98881 -3.91141 0
M  V30 10888 H 1072.55 -0.416232 -0.57643 0
M  V30 10889 H 1075.16 -1.62405 -1.08834 0
M  V30 10890 H 1073.86 -2.98488 -2.81661 0
M  V30 10891 H 1073.39 -1.48982 -3.64099 0
M  V30 10892 H 1075.41 -1.09445 -4.8398 0
M  V30 10893 N 1074.58 1.12322 -1.10551 0
M  V30 10894 C 1075.53 2.20166 -0.750317 0
M  V30 10895 C 1076.52 1.67484 0.254066 0
M  V30 10896 O 1077.73 1.79637 0.114309 0
M  V30 10897 H 1074.1 0.717642 -0.22471 0
M  V30 10898 H 1076.07 2.47378 -1.66873 0
M  V30 10899 C 1074.82 3.47126 -0.199651 0
M  V30 10900 H 1074.14 3.88011 -0.963735 0
M  V30 10901 H 1075.58 4.23999 0.0108033 0
M  V30 10902 C 1074.04 3.19526 1.06792 0
M  V30 10903 O 1074.57 3.39368 2.14923 0
M  V30 10904 N 1072.78 2.73324 0.987032 0
M  V30 10905 H 1072.33 2.57378 0.106997 0
M  V30 10906 H 1072.28 2.55234 1.83584 0
M  V30 10907 N 1076.06 0.894434 1.2976 0
M  V30 10908 C 1077 0.357958 2.29829 0
M  V30 10909 C 1078 -0.540093 1.6056 0
M  V30 10910 O 1079.2 -0.423478 1.74948 0
M  V30 10911 H 1075.58 0.0971183 0.745702 0
M  V30 10912 H 1077.55 1.21542 2.72526 0
M  V30 10913 C 1076.3 -0.404126 3.45343 0
M  V30 10914 H 1075.62 0.277671 3.98835 0
M  V30 10915 H 1077.06 -0.744446 4.17413 0
M  V30 10916 C 1075.52 -1.6048 2.96222 0
M  V30 10917 O 1076.05 -2.70414 2.97051 0
M  V30 10918 N 1074.26 -1.44517 2.52117 0
M  V30 10919 H 1073.8 -0.55082 2.51642 0
M  V30 10920 H 1073.76 -2.24987 2.1961 0
M  V30 10921 N 1077.53 -1.43282 0.656365 0
M  V30 10922 C 1078.48 -2.27932 -0.0557069 0
M  V30 10923 C 1079.47 -1.40075 -0.791698 0
M  V30 10924 O 1080.66 -1.6368 -0.673646 0
M  V30 10925 C 1077.79 -3.27821 -1.01923 0
M  V30 10926 C 1076.88 -4.23164 -0.281545 0
M  V30 10927 N 1077.27 -5.00882 0.703629 0
M  V30 10928 C 1075.56 -4.42928 -0.522558 0
M  V30 10929 C 1076.27 -5.70384 1.14177 0
M  V30 10930 N 1075.24 -5.41517 0.475394 0
M  V30 10931 H 1079.04 -2.85437 0.70022 0
M  V30 10932 H 1076.56 -1.55023 0.483902 0
M  V30 10933 H 1078.55 -3.87248 -1.54418 0
M  V30 10934 H 1077.21 -2.71878 -1.77518 0
M  V30 10935 H 1078.23 -5.06461 1.08247 0
M  V30 10936 H 1074.9 -3.98051 -1.25944 0
M  V30 10937 H 1076.29 -6.42765 1.95711 0
M  V30 10938 N 1079.01 -0.398486 -1.52479 0
M  V30 10939 C 1080.42 0.0735015 -1.86555 0
M  V30 10940 C 1080.78 1.45361 -1.31775 0
M  V30 10941 O 1079.9 2.0632 -0.652759 0
M  V30 10942 C 1080.5 0.140152 -3.3851 0
M  V30 10943 C 1079.05 0.556451 -3.72264 0
M  V30 10944 C 1078.2 -0.275792 -2.75925 0
M  V30 10945 H 1081.15 -0.615991 -1.46257 0
M  V30 10946 H 1081.17 0.957507 -3.68255 0
M  V30 10947 H 1080.69 -0.864442 -3.7835 0
M  V30 10948 H 1078.79 1.56808 -3.37997 0
M  V30 10949 H 1078.9 0.308227 -4.78107 0
M  V30 10950 H 1077.26 0.260304 -2.53366 0
M  V30 10951 H 1078.05 -1.27854 -3.18604 0
M  V30 10952 N 1080.49 1.57075 -0.12858 0
M  V30 10953 C 1081.74 1.95134 0.526046 0
M  V30 10954 C 1082.06 1.01337 1.66601 0
M  V30 10955 O 1081.33 0.0714361 1.9577 0
M  V30 10956 H 1079.91 0.720468 0.19732 0
M  V30 10957 H 1082.57 1.93874 -0.199767 0
M  V30 10958 H 1081.67 2.98406 0.914332 0
M  V30 10959 N 1081.97 -0.145205 1.5693 0
M  V30 10960 C 1083.2 -0.872398 1.87608 0
M  V30 10961 C 1083.61 -1.74657 0.716975 0
M  V30 10962 O 1082.97 -1.79792 -0.3132 0
M  V30 10963 C 1083.02 -1.72762 3.17546 0
M  V30 10964 O 1082.74 -0.888681 4.28992 0
M  V30 10965 C 1084.24 -2.56224 3.61751 0
M  V30 10966 H 1081.46 -0.252166 0.621815 0
M  V30 10967 H 1084.01 -0.137456 2.04038 0
M  V30 10968 H 1082.16 -2.41561 3.02865 0
M  V30 10969 H 1082.58 -1.47601 5.03303 0
M  V30 10970 H 1084.05 -3.11804 4.55502 0
M  V30 10971 H 1084.53 -3.32347 2.87127 0
M  V30 10972 H 1085.13 -1.92714 3.79133 0
M  V30 10973 N 1083.45 -1.52049 -0.414609 0
M  V30 10974 C 1084.69 -1.65838 -1.16206 0
M  V30 10975 C 1085.02 -0.385623 -1.90639 0
M  V30 10976 O 1084.28 0.631214 -1.85241 0
M  V30 10977 C 1084.58 -2.82735 -2.18622 0
M  V30 10978 C 1084.24 -4.21163 -1.61037 0
M  V30 10979 C 1082.9 -4.58816 -1.45056 0
M  V30 10980 C 1085.26 -5.0745 -1.18928 0
M  V30 10981 C 1082.58 -5.8044 -0.854761 0
M  V30 10982 C 1084.94 -6.29674 -0.607686 0
M  V30 10983 C 1083.6 -6.66081 -0.434968 0
M  V30 10984 H 1082.87 -0.606845 -0.425229 0
M  V30 10985 H 1085.52 -1.86137 -0.450009 0
M  V30 10986 H 1083.82 -2.56749 -2.95952 0
M  V30 10987 H 1085.52 -2.90601 -2.76319 0
M  V30 10988 H 1082.11 -3.91488 -1.74457 0
M  V30 10989 H 1086.29 -4.78948 -1.30086 0
M  V30 10990 H 1081.55 -6.07276 -0.70891 0
M  V30 10991 H 1085.72 -6.95865 -0.272988 0
M  V30 10992 H 1083.35 -7.60195 0.0288116 0
M  V30 10993 N 1084.93 0.6715 -1.42579 0
M  V30 10994 C 1086.34 0.985019 -1.25577 0
M  V30 10995 C 1086.54 2.00845 -0.162319 0
M  V30 10996 O 1085.6 2.48175 0.465352 0
M  V30 10997 C 1086.91 1.48668 -2.61377 0
M  V30 10998 C 1088.46 1.60429 -2.68759 0
M  V30 10999 C 1088.93 2.13991 -4.04935 0
M  V30 11000 N 1090.42 2.21319 -4.06906 0
M  V30 11001 C 1091.16 2.63845 -5.09091 0
M  V30 11002 N 1090.66 3.05799 -6.21658 0
M  V30 11003 N 1092.45 2.63623 -4.96447 0
M  V30 11004 H 1084.6 -0.00604561 -2.12399 0
M  V30 11005 H 1086.86 0.0598299 -0.94611 0
M  V30 11006 H 1086.57 0.80917 -3.42265 0
M  V30 11007 H 1086.44 2.46487 -2.85524 0
M  V30 11008 H 1088.83 2.27286 -1.88216 0
M  V30 11009 H 1088.91 0.610909 -2.48398 0
M  V30 11010 H 1088.55 1.47741 -4.85937 0
M  V30 11011 H 1088.48 3.14126 -4.2265 0
M  V30 11012 H 1090.98 1.91743 -3.25643 0
M  V30 11013 H 1091.29 3.36944 -6.95477 0
M  V30 11014 H 1089.63 3.03648 -6.25158 0
M  V30 11015 H 1092.82 2.30211 -4.07579 0
M  V30 11016 H 1093 2.96444 -5.76216 0
M  V30 11017 N 1086.4 1.28806 0.908124 0
M  V30 11018 C 1087.64 1.17546 1.67219 0
M  V30 11019 C 1088.01 -0.270396 1.90086 0
M  V30 11020 O 1089.21 -0.505808 2.63998 0
M  V30 11021 C 1087.48 1.95774 2.99011 0
M  V30 11022 S 1089.04 2.00953 3.90081 0
M  V30 11023 H 1085.86 0.419283 0.574215 0
M  V30 11024 H 1088.46 1.6298 1.07971 0
M  V30 11025 H 1087.16 2.99978 2.80074 0
M  V30 11026 H 1086.69 1.50911 3.63303 0
M  V30 11027 H 1088.71 1.1201 4.83392 0
M  V30 11028 N 1087.88 -1.11734 1.11145 0
M  V30 11029 C 1088.79 -2.21267 0.779607 0
M  V30 11030 C 1089.81 -1.72526 -0.225986 0
M  V30 11031 O 1090.98 -2.01302 -0.0629166 0
M  V30 11032 C 1088.05 -3.45973 0.22435 0
M  V30 11033 C 1087.11 -4.09518 1.28816 0
M  V30 11034 C 1086.34 -5.28271 0.7593 0
M  V30 11035 O 1086.57 -5.68912 -0.411725 0
M  V30 11036 O 1085.5 -5.82322 1.52266 0
M  V30 11037 H 1089.33 -2.5206 1.6941 0
M  V30 11038 H 1086.91 -1.20211 0.887115 0
M  V30 11039 H 1088.79 -4.21322 -0.0810921 0
M  V30 11040 H 1087.47 -3.1684 -0.662891 0
M  V30 11041 H 1086.37 -3.35915 1.64657 0
M  V30 11042 H 1087.71 -4.42824 2.14868 0
M  V30 11043 N 1089.36 -0.901303 -1.29284 0
M  V30 11044 C 1090.6 -0.534971 -1.97275 0
M  V30 11045 C 1090.96 0.902226 -1.69481 0
M  V30 11046 O 1092.16 1.37551 -2.3094 0
M  V30 11047 C 1090.44 -0.821095 -3.4784 0
M  V30 11048 S 1091.99 -0.559312 -4.35221 0
M  V30 11049 H 1088.81 -0.198409 -0.682755 0
M  V30 11050 H 1091.41 -1.16408 -1.57065 0
M  V30 11051 H 1090.12 -1.86527 -3.65562 0
M  V30 11052 H 1089.65 -0.18016 -3.92987 0
M  V30 11053 H 1091.66 0.59494 -4.9262 0
M  V30 11054 N 1090.84 1.42931 -0.663954 0
M  V30 11055 C 1092.08 2.01982 -0.182007 0
M  V30 11056 C 1092.42 1.52323 1.20463 0
M  V30 11057 O 1091.69 0.720834 1.80649 0
M  V30 11058 C 1091.97 3.59518 -0.204671 0
M  V30 11059 C 1091.83 4.19382 -1.62599 0
M  V30 11060 C 1093.15 4.37762 0.45308 0
M  V30 11061 H 1090.27 0.733892 -0.0676115 0
M  V30 11062 H 1092.91 1.70092 -0.84668 0
M  V30 11063 H 1091.06 3.86816 0.361295 0
M  V30 11064 H 1092.73 4.03076 -2.24337 0
M  V30 11065 H 1090.97 3.75623 -2.17001 0
M  V30 11066 H 1091.64 5.28496 -1.59362 0
M  V30 11067 H 1094.12 4.1609 -0.0285774 0
M  V30 11068 H 1093 5.47392 0.406538 0
M  V30 11069 H 1093.26 4.1482 1.52895 0
M  V30 11070 N 1092.32 0.406567 1.52266 0
M  V30 11071 C 1093.23 -0.4271 2.30679 0
M  V30 11072 C 1094.24 -1.0559 1.383 0
M  V30 11073 O 1095.42 -1.05797 1.71374 0
M  V30 11074 C 1092.48 -1.53008 3.1111 0
M  V30 11075 C 1091.54 -0.924604 4.19225 0
M  V30 11076 C 1090.78 -1.97502 4.95811 0
M  V30 11077 O 1091 -3.19277 4.72671 0
M  V30 11078 O 1089.93 -1.58268 5.80719 0
M  V30 11079 H 1093.76 0.212187 3.02958 0
M  V30 11080 H 1091.34 0.169835 1.48432 0
M  V30 11081 H 1093.23 -2.17046 3.61205 0
M  V30 11082 H 1091.9 -2.15401 2.41628 0
M  V30 11083 H 1090.81 -0.247009 3.73284 0
M  V30 11084 H 1092.14 -0.34463 4.90992 0
M  V30 11085 N 1093.79 -1.57004 0.136909 0
M  V30 11086 C 1095.04 -1.9541 -0.51569 0
M  V30 11087 C 1095.36 -1.02219 -1.66061 0
M  V30 11088 O 1094.63 -0.0818172 -1.95729 0
M  V30 11089 H 1093.21 -0.721504 -0.193497 0
M  V30 11090 H 1095.88 -1.93765 0.210046 0
M  V30 11091 H 1094.97 -2.98887 -0.898494 0
M  V30 11092 N 1095.27 0.136881 -1.57004 0
M  V30 11093 C 1096.5 0.861186 -1.87796 0
M  V30 11094 C 1096.91 1.74788 -0.724272 0
M  V30 11095 O 1096.25 1.80984 0.31471 0
M  V30 11096 C 1096.32 1.76115 -3.13407 0
M  V30 11097 C 1095.98 1.05059 -4.4476 0
M  V30 11098 C 1096.98 0.399736 -5.18361 0
M  V30 11099 C 1094.66 1.03709 -4.91477 0
M  V30 11100 C 1096.66 -0.255127 -6.36889 0
M  V30 11101 C 1094.34 0.378414 -6.09927 0
M  V30 11102 C 1095.34 -0.266555 -6.8248 0
M  V30 11103 O 1095.03 -0.914757 -7.98679 0
M  V30 11104 H 1094.76 0.253855 -0.626525 0
M  V30 11105 H 1097.31 0.131291 -2.0498 0
M  V30 11106 H 1095.54 2.53224 -2.92257 0
M  V30 11107 H 1097.23 2.3583 -3.30362 0
M  V30 11108 H 1098 0.401909 -4.83332 0
M  V30 11109 H 1093.88 1.52852 -4.34922 0
M  V30 11110 H 1097.42 -0.759135 -6.93457 0
M  V30 11111 H 1093.32 0.373942 -6.44416 0
M  V30 11112 H 1094.09 -0.817437 -8.14408 0
M  V30 11113 N 1096.75 1.52266 0.40654 0
M  V30 11114 C 1097.68 1.72025 1.51459 0
M  V30 11115 C 1098.7 0.600667 1.51314 0
M  V30 11116 O 1099.88 0.875894 1.55532 0
M  V30 11117 C 1096.98 1.7479 2.90348 0
M  V30 11118 C 1096.16 3.03826 3.14656 0
M  V30 11119 C 1095.22 2.98369 4.33431 0
M  V30 11120 O 1094.24 3.7227 4.30586 0
M  V30 11121 N 1095.44 2.16338 5.38682 0
M  V30 11122 H 1098.21 2.67622 1.34903 0
M  V30 11123 H 1095.77 1.50536 0.595867 0
M  V30 11124 H 1097.76 1.68667 3.67877 0
M  V30 11125 H 1096.33 0.86656 3.00349 0
M  V30 11126 H 1095.55 3.23577 2.25148 0
M  V30 11127 H 1096.84 3.89182 3.27742 0
M  V30 11128 H 1096.24 1.55731 5.43842 0
M  V30 11129 H 1094.8 2.1607 6.14945 0
M  V30 11130 N 1098.23 -0.663929 1.42933 0
M  V30 11131 C 1099.48 -1.42393 1.43981 0
M  V30 11132 C 1099.8 -1.94407 0.0601802 0
M  V30 11133 O 1099.06 -1.72019 -0.933172 0
M  V30 11134 C 1099.36 -2.62976 2.4203 0
M  V30 11135 C 1099.02 -2.29441 3.88159 0
M  V30 11136 C 1097.69 -2.20007 4.27961 0
M  V30 11137 C 1100.04 -2.02413 4.8029 0
M  V30 11138 C 1097.37 -1.81686 5.57859 0
M  V30 11139 C 1099.72 -1.65592 6.10542 0
M  V30 11140 C 1098.38 -1.54676 6.49332 0
M  V30 11141 H 1097.65 -0.521051 0.526865 0
M  V30 11142 H 1100.3 -0.756042 1.75944 0
M  V30 11143 H 1098.6 -3.34847 2.03433 0
M  V30 11144 H 1100.3 -3.21174 2.40101 0
M  V30 11145 H 1096.89 -2.3769 3.56653 0
M  V30 11146 H 1101.07 -2.08628 4.5032 0
M  V30 11147 H 1096.33 -1.71812 5.86763 0
M  V30 11148 H 1100.5 -1.43707 6.81411 0
M  V30 11149 H 1098.13 -1.24752 7.49894 0
M  V30 11150 N 1099.71 -1.29285 -0.901281 0
M  V30 11151 C 1100.93 -1.20169 -1.69039 0
M  V30 11152 C 1101.36 0.234509 -1.86632 0
M  V30 11153 O 1100.71 1.16935 -1.38549 0
M  V30 11154 C 1100.76 -1.91852 -3.05328 0
M  V30 11155 O 1099.87 -1.23448 -3.9349 0
M  V30 11156 H 1099.21 -0.416486 -0.517141 0
M  V30 11157 H 1101.74 -1.70826 -1.12603 0
M  V30 11158 H 1101.75 -2.00244 -3.5548 0
M  V30 11159 H 1100.42 -2.96313 -2.91841 0
M  V30 11160 H 1099 -1.23303 -3.51924 0
M  V30 11161 N 1101.18 1.11143 -1.11736 0
M  V30 11162 C 1102.46 1.79384 -0.779785 0
M  V30 11163 C 1102.84 1.98015 0.731668 0
M  V30 11164 O 1102.19 1.56731 1.66276 0
M  V30 11165 C 1102.4 3.12868 -1.54643 0
M  V30 11166 C 1103.75 3.8786 -1.7277 0
M  V30 11167 O 1104.77 3.22566 -1.51094 0
M  V30 11168 O 1103.63 5.05034 -2.08813 0
M  V30 11169 H 1100.72 0.777128 -0.282845 0
M  V30 11170 H 1103.27 1.17858 -1.22096 0
M  V30 11171 H 1102.04 2.94682 -2.57446 0
M  V30 11172 H 1101.67 3.82109 -1.09901 0
M  V30 11173 N 1102.66 0.908147 1.28804 0
M  V30 11174 C 1103.57 0.397167 2.31214 0
M  V30 11175 C 1104.59 -0.512352 1.66286 0
M  V30 11176 O 1105.76 -0.399893 1.9739 0
M  V30 11177 C 1102.83 -0.359522 3.44831 0
M  V30 11178 C 1101.89 0.582539 4.25329 0
M  V30 11179 C 1101.12 -0.138133 5.33521 0
M  V30 11180 O 1101.35 -1.36076 5.53931 0
M  V30 11181 O 1100.28 0.523682 5.99618 0
M  V30 11182 H 1104.11 1.247 2.76918 0
M  V30 11183 H 1101.69 0.672766 1.33395 0
M  V30 11184 H 1103.57 -0.787098 4.13984 0
M  V30 11185 H 1102.25 -1.18528 3.01219 0
M  V30 11186 H 1101.16 1.0594 3.58786 0
M  V30 11187 H 1102.49 1.37495 4.72605 0
M  V30 11188 N 1104.14 -1.42577 0.671525 0
M  V30 11189 C 1105.39 -2.01185 0.192051 0
M  V30 11190 C 1105.71 -1.53349 -1.20454 0
M  V30 11191 O 1104.98 -0.753781 -1.80817 0
M  V30 11192 H 1103.56 -0.743898 0.0680106 0
M  V30 11193 H 1106.22 -1.74539 0.8673 0
M  V30 11194 H 1105.32 -3.11516 0.190796 0
M  V30 11195 N 1105.62 -0.414636 -1.52048 0
M  V30 11196 C 1106.85 0.158686 -2.06291 0
M  V30 11197 C 1107.26 1.38397 -1.2842 0
M  V30 11198 O 1106.62 1.79351 -0.337539 0
M  V30 11199 C 1106.67 0.503634 -3.57975 0
M  V30 11200 O 1106.39 -0.672996 -4.329 0
M  V30 11201 C 1107.89 1.13009 -4.28653 0
M  V30 11202 H 1105.11 0.0179622 -0.67076 0
M  V30 11203 H 1107.66 -0.587177 -1.95889 0
M  V30 11204 H 1105.81 1.19939 -3.68366 0
M  V30 11205 H 1106.22 -0.383735 -5.23094 0
M  V30 11206 H 1107.7 1.32162 -5.35945 0
M  V30 11207 H 1108.18 2.10476 -3.85482 0
M  V30 11208 H 1108.78 0.474379 -4.22646 0
M  V30 11209 N 1107.1 1.56929 -0.145233 0
M  V30 11210 C 1108.34 1.97959 0.509092 0
M  V30 11211 C 1108.7 1.02813 1.62153 0
M  V30 11212 O 1109.9 1.3288 2.33659 0
M  V30 11213 C 1108.17 3.43012 1.00388 0
M  V30 11214 S 1109.73 4.06064 1.66305 0
M  V30 11215 H 1106.55 0.69167 0.164663 0
M  V30 11216 H 1109.15 1.94064 -0.236529 0
M  V30 11217 H 1107.86 4.0999 0.183454 0
M  V30 11218 H 1107.39 3.50615 1.78417 0
M  V30 11219 H 1109.4 3.98971 2.9502 0
M  V30 11220 N 1108.58 -0.128553 1.57075 0
M  V30 11221 C 1109.82 -0.839252 1.8462 0
M  V30 11222 C 1110.15 -1.79974 0.729582 0
M  V30 11223 O 1109.43 -1.92681 -0.265369 0
M  V30 11224 C 1109.71 -1.59756 3.22723 0
M  V30 11225 C 1109.57 -0.657313 4.44971 0
M  V30 11226 C 1110.88 -2.55592 3.58275 0
M  V30 11227 H 1108 -0.303652 0.671539 0
M  V30 11228 H 1110.65 -0.103802 1.89716 0
M  V30 11229 H 1108.8 -2.22451 3.18509 0
M  V30 11230 H 1110.47 -0.0399471 4.61283 0
M  V30 11231 H 1108.71 0.0318416 4.33788 0
M  V30 11232 H 1109.38 -1.22433 5.38251 0
M  V30 11233 H 1111.86 -2.03007 3.63218 0
M  V30 11234 H 1110.73 -3.05687 4.55902 0
M  V30 11235 H 1110.99 -3.37813 2.85193 0
M  V30 11236 N 1110.05 -1.5248 -0.398459 0
M  V30 11237 C 1111.02 -1.75949 -1.46883 0
M  V30 11238 C 1112.02 -0.629431 -1.47969 0
M  V30 11239 O 1113.21 -0.897407 -1.49306 0
M  V30 11240 C 1110.34 -1.85162 -2.8623 0
M  V30 11241 H 1111.53 -2.71513 -1.2736 0
M  V30 11242 H 1109.08 -1.43058 -0.629619 0
M  V30 11243 H 1109.82 -0.915505 -3.11109 0
M  V30 11244 H 1109.6 -2.67326 -2.86844 0
M  V30 11245 H 1111.09 -2.05025 -3.63805 0
M  V30 11246 N 1111.53 0.65634 -1.43283 0
M  V30 11247 C 1112.78 1.41837 -1.44949 0
M  V30 11248 C 1113.11 1.94065 -0.0723212 0
M  V30 11249 O 1112.39 1.72092 0.906346 0
M  V30 11250 C 1112.67 2.60206 -2.48927 0
M  V30 11251 C 1112.52 2.1349 -3.95907 0
M  V30 11252 C 1113.84 3.62421 -2.49678 0
M  V30 11253 H 1110.96 0.514398 -0.527792 0
M  V30 11254 H 1113.6 0.74435 -1.74813 0
M  V30 11255 H 1111.75 3.17708 -2.23592 0
M  V30 11256 H 1113.42 1.61012 -4.32288 0
M  V30 11257 H 1111.67 1.4489 -4.08888 0
M  V30 11258 H 1112.34 2.98596 -4.64268 0
M  V30 11259 H 1114.81 3.14671 -2.72252 0
M  V30 11260 H 1113.69 4.42798 -3.24378 0
M  V30 11261 H 1113.95 4.14802 -1.52944 0
M  V30 11262 N 1113.01 1.29761 0.894412 0
M  V30 11263 C 1114.26 1.18214 1.64782 0
M  V30 11264 C 1114.59 -0.264635 1.92388 0
M  V30 11265 O 1113.86 -1.19051 1.53809 0
M  V30 11266 C 1114.15 2.00138 2.99361 0
M  V30 11267 C 1114 3.52984 2.78787 0
M  V30 11268 C 1115.32 1.83187 4.00163 0
M  V30 11269 H 1112.44 0.430802 0.597979 0
M  V30 11270 H 1115.08 1.59292 1.03566 0
M  V30 11271 H 1113.23 1.65233 3.51611 0
M  V30 11272 H 1114.9 3.97898 2.33398 0
M  V30 11273 H 1113.14 3.77642 2.13469 0
M  V30 11274 H 1113.82 4.05585 3.7444 0
M  V30 11275 H 1116.29 2.13684 3.57041 0
M  V30 11276 H 1115.17 2.42849 4.92255 0
M  V30 11277 H 1115.43 0.788469 4.35012 0
M  V30 11278 N 1114.49 -1.10549 1.12324 0
M  V30 11279 C 1115.76 -1.78968 0.789287 0
M  V30 11280 C 1116.14 -1.984 -0.721156 0
M  V30 11281 O 1115.49 -1.5761 -1.65443 0
M  V30 11282 C 1115.7 -3.12044 1.563 0
M  V30 11283 C 1117.05 -3.86939 1.74825 0
M  V30 11284 O 1118.07 -3.21761 1.52802 0
M  V30 11285 O 1116.93 -5.0392 2.11488 0
M  V30 11286 H 1114.03 -0.775617 0.286962 0
M  V30 11287 H 1116.57 -1.17209 1.2272 0
M  V30 11288 H 1115.35 -2.93313 2.59005 0
M  V30 11289 H 1114.97 -3.81521 1.11926 0
M  V30 11290 N 1115.97 -0.914965 -1.28321 0
M  V30 11291 C 1116.9 -0.361578 -2.2633 0
M  V30 11292 C 1117.91 0.500637 -1.54911 0
M  V30 11293 O 1119.1 0.31532 -1.75693 0
M  V30 11294 C 1116.2 0.501693 -3.35166 0
M  V30 11295 C 1115.37 -0.338289 -4.3609 0
M  V30 11296 C 1114.43 0.460267 -5.24183 0
M  V30 11297 O 1113.46 -0.127594 -5.69057 0
M  V30 11298 N 1114.66 1.76302 -5.5308 0
M  V30 11299 H 1117.42 -1.20402 -2.74451 0
M  V30 11300 H 1114.99 -0.781042 -1.41814 0
M  V30 11301 H 1116.98 1.04268 -3.91037 0
M  V30 11302 H 1115.55 1.24485 -2.86744 0
M  V30 11303 H 1114.77 -1.06064 -3.79663 0
M  V30 11304 H 1116.06 -0.912996 -5.00542 0
M  V30 11305 H 1115.45 2.26314 -5.18458 0
M  V30 11306 H 1114.01 2.25081 -6.11704 0
M  V30 11307 N 1117.44 1.42219 -0.679077 0
M  V30 11308 C 1118.86 1.55737 -0.349034 0
M  V30 11309 C 1119.06 1.65789 1.14527 0
M  V30 11310 O 1118.12 1.62717 1.93079 0
M  V30 11311 C 1119.43 2.80516 -1.0831 0
M  V30 11312 C 1120.98 2.94294 -1.06584 0
M  V30 11313 C 1121.45 4.2194 -1.78132 0
M  V30 11314 N 1122.94 4.28861 -1.75021 0
M  V30 11315 C 1123.68 5.26453 -2.27234 0
M  V30 11316 N 1123.17 6.30171 -2.87847 0
M  V30 11317 N 1124.97 5.1828 -2.17584 0
M  V30 11318 H 1117.12 1.33939 -1.64846 0
M  V30 11319 H 1119.38 0.645029 -0.694725 0
M  V30 11320 H 1119.09 2.79241 -2.13816 0
M  V30 11321 H 1118.96 3.71539 -0.651069 0
M  V30 11322 H 1121.35 2.95094 -0.0191061 0
M  V30 11323 H 1121.43 2.04491 -1.53679 0
M  V30 11324 H 1121.07 4.21901 -2.82776 0
M  V30 11325 H 1121 5.10685 -1.28483 0
M  V30 11326 H 1123.49 3.54537 -1.30814 0
M  V30 11327 H 1123.81 7.01 -3.25298 0
M  V30 11328 H 1122.15 6.30721 -2.91918 0
M  V30 11329 H 1125.34 4.36172 -1.69916 0
M  V30 11330 H 1125.52 5.94172 -2.58581 0
M  V30 11331 N 1118.92 0.422693 1.51826 0
M  V30 11332 C 1120.33 -0.0438129 1.86649 0
M  V30 11333 C 1120.68 -1.43246 1.34071 0
M  V30 11334 O 1119.81 -2.05256 0.685501 0
M  V30 11335 C 1120.4 -0.0862802 3.3869 0
M  V30 11336 C 1118.96 -0.497157 3.73102 0
M  V30 11337 C 1118.11 0.319655 2.75451 0
M  V30 11338 H 1121.06 0.639181 1.45259 0
M  V30 11339 H 1121.08 -0.8988 3.69732 0
M  V30 11340 H 1120.59 0.924525 3.76927 0
M  V30 11341 H 1118.69 -1.51411 3.40449 0
M  V30 11342 H 1118.81 -0.232125 4.78537 0
M  V30 11343 H 1117.17 -0.219963 2.53748 0
M  V30 11344 H 1117.95 1.32906 3.16529 0
M  V30 11345 N 1120.4 -1.5685 0.153553 0
M  V30 11346 C 1121.65 -1.95509 -0.495911 0
M  V30 11347 C 1121.96 -1.04129 -1.65579 0
M  V30 11348 O 1123.17 -1.32394 -2.37032 0
M  V30 11349 C 1121.62 -3.47579 -0.933622 0
M  V30 11350 C 1121.23 -4.47555 0.199684 0
M  V30 11351 C 1122.98 -3.95092 -1.55251 0
M  V30 11352 C 1120.88 -5.90843 -0.256663 0
M  V30 11353 H 1119.81 -0.729919 -0.189035 0
M  V30 11354 H 1122.46 -1.81938 0.238947 0
M  V30 11355 H 1120.85 -3.56506 -1.72394 0
M  V30 11356 H 1122.02 -4.50329 0.976744 0
M  V30 11357 H 1120.33 -4.09997 0.727394 0
M  V30 11358 H 1122.93 -4.99588 -1.90567 0
M  V30 11359 H 1123.27 -3.37015 -2.4439 0
M  V30 11360 H 1123.81 -3.89109 -0.826969 0
M  V30 11361 H 1120.55 -6.52753 0.599515 0
M  V30 11362 H 1120.07 -5.91414 -0.999458 0
M  V30 11363 H 1121.75 -6.43131 -0.70649 0
M  V30 11364 N 1121.88 0.120221 -1.57141 0
M  V30 11365 C 1122.83 1.16654 -2.01233 0
M  V30 11366 C 1123.82 1.42943 -0.909053 0
M  V30 11367 O 1125.03 1.4292 -1.09426 0
M  V30 11368 H 1121.4 0.393289 -0.640958 0
M  V30 11369 H 1123.37 0.768156 -2.88343 0
M  V30 11370 C 1122.12 2.4854 -2.43152 0
M  V30 11371 H 1121.44 2.29149 -3.27614 0
M  V30 11372 H 1122.88 3.20315 -2.77802 0
M  V30 11373 C 1121.34 3.1103 -1.29468 0
M  V30 11374 O 1121.87 3.97042 -0.609982 0
M  V30 11375 N 1120.08 2.70888 -1.05205 0
M  V30 11376 H 1119.63 2.01039 -1.61062 0
M  V30 11377 H 1119.58 3.13028 -0.293347 0
M  V30 11378 N 1123.36 1.52689 0.390367 0
M  V30 11379 C 1124.59 1.71292 1.1551 0
M  V30 11380 C 1124.99 0.430405 1.84239 0
M  V30 11381 O 1124.34 -0.604823 1.73458 0
M  V30 11382 C 1124.4 2.80597 2.24735 0
M  V30 11383 C 1124.06 4.21757 1.75984 0
M  V30 11384 C 1125.06 5.04961 1.23733 0
M  V30 11385 C 1122.75 4.68071 1.82248 0
M  V30 11386 C 1124.74 6.32561 0.783926 0
M  V30 11387 C 1122.43 5.95656 1.36519 0
M  V30 11388 C 1123.42 6.7773 0.846786 0
M  V30 11389 O 1123.11 8.02923 0.396164 0
M  V30 11390 H 1122.84 0.576906 0.352356 0
M  V30 11391 H 1125.4 2.00117 0.462865 0
M  V30 11392 H 1123.63 2.4719 2.97378 0
M  V30 11393 H 1125.32 2.87616 2.86412 0
M  V30 11394 H 1126.08 4.70363 1.18251 0
M  V30 11395 H 1121.96 4.04278 2.21541 0
M  V30 11396 H 1125.51 6.96572 0.378612 0
M  V30 11397 H 1121.4 6.29758 1.41686 0
M  V30 11398 H 1122.17 8.16861 0.517766 0
M  V30 11399 N 1124.83 -0.648732 1.43629 0
M  V30 11400 C 1126.07 -1.42032 1.46991 0
M  V30 11401 C 1126.44 -1.91774 0.0931841 0
M  V30 11402 O 1127.64 -2.688 0.00148504 0
M  V30 11403 C 1125.91 -2.56693 2.48684 0
M  V30 11404 S 1127.47 -3.45149 2.70956 0
M  V30 11405 H 1124.29 -0.484772 0.520113 0
M  V30 11406 H 1126.89 -0.75274 1.80427 0
M  V30 11407 H 1125.59 -2.18431 3.47442 0
M  V30 11408 H 1125.12 -3.28296 2.1676 0
M  V30 11409 H 1127.14 -4.53569 2.01221 0
M  V30 11410 N 1126.31 -1.30234 -0.887518 0
M  V30 11411 C 1127.22 -1.18316 -2.02579 0
M  V30 11412 C 1128.24 -0.103658 -1.73691 0
M  V30 11413 O 1129.41 -0.3181 -1.98872 0
M  V30 11414 C 1126.48 -0.873222 -3.35523 0
M  V30 11415 C 1125.54 -2.03783 -3.7785 0
M  V30 11416 C 1124.77 -1.74258 -5.0445 0
M  V30 11417 O 1125 -0.669295 -5.6646 0
M  V30 11418 O 1123.93 -2.59423 -5.43124 0
M  V30 11419 H 1127.76 -2.13933 -2.15561 0
M  V30 11420 H 1125.34 -1.09803 -1.0131 0
M  V30 11421 H 1127.22 -0.715463 -4.15282 0
M  V30 11422 H 1125.9 0.053056 -3.23657 0
M  V30 11423 H 1124.81 -2.2509 -2.98806 0
M  V30 11424 H 1126.14 -2.94574 -3.94318 0
M  V30 11425 N 1127.79 1.09952 -1.12909 0
M  V30 11426 C 1129.02 1.8579 -0.910483 0
M  V30 11427 C 1129.43 1.80898 0.540484 0
M  V30 11428 O 1128.79 1.20126 1.3739 0
M  V30 11429 C 1128.84 3.33987 -1.38329 0
M  V30 11430 O 1128.56 3.38811 -2.77739 0
M  V30 11431 C 1130.06 4.26683 -1.20234 0
M  V30 11432 H 1127.28 0.587026 -0.325025 0
M  V30 11433 H 1129.83 1.38965 -1.5003 0
M  V30 11434 H 1127.98 3.78259 -0.836592 0
M  V30 11435 H 1128.4 4.31204 -2.98603 0
M  V30 11436 H 1129.87 5.28846 -1.58197 0
M  V30 11437 H 1130.35 4.38966 -0.14344 0
M  V30 11438 H 1130.95 3.88221 -1.73679 0
M  V30 11439 N 1129.27 0.921757 1.27833 0
M  V30 11440 C 1130.52 0.557974 1.94245 0
M  V30 11441 C 1130.84 -0.90268 1.72849 0
M  V30 11442 O 1130.11 -1.63915 1.07279 0
M  V30 11443 H 1128.69 0.203364 0.718785 0
M  V30 11444 H 1131.35 1.17286 1.5566 0
M  V30 11445 H 1130.45 0.759202 3.02725 0
M  V30 11446 N 1130.75 -1.41857 0.686609 0
M  V30 11447 C 1131.68 -2.33481 0.0298353 0
M  V30 11448 C 1132.66 -1.51329 -0.776756 0
M  V30 11449 O 1133.84 -1.79895 -0.731535 0
M  V30 11450 C 1130.97 -3.35065 -0.913707 0
M  V30 11451 C 1129.93 -4.2746 -0.214861 0
M  V30 11452 C 1129.25 -5.19346 -1.27215 0
M  V30 11453 C 1130.55 -5.14252 0.913367 0
M  V30 11454 H 1132.25 -2.8865 0.795067 0
M  V30 11455 H 1129.79 -1.38792 0.383785 0
M  V30 11456 H 1131.75 -3.98082 -1.38234 0
M  V30 11457 H 1130.47 -2.78226 -1.7105 0
M  V30 11458 H 1129.13 -3.65855 0.233651 0
M  V30 11459 H 1128.78 -4.58827 -2.06124 0
M  V30 11460 H 1128.48 -5.81996 -0.80961 0
M  V30 11461 H 1130 -5.85239 -1.74147 0
M  V30 11462 H 1131.41 -5.70887 0.525424 0
M  V30 11463 H 1129.81 -5.85796 1.30244 0
M  V30 11464 H 1130.88 -4.51949 1.75699 0
M  V30 11465 N 1132.22 -0.430739 -1.51599 0
M  V30 11466 C 1133.17 0.401828 -2.24431 0
M  V30 11467 C 1134.16 0.995588 -1.264 0
M  V30 11468 O 1135.35 0.914822 -1.51526 0
M  V30 11469 C 1132.48 1.5061 -3.08499 0
M  V30 11470 C 1131.57 0.922059 -4.13955 0
M  V30 11471 N 1131.96 0.0665912 -5.05756 0
M  V30 11472 C 1130.25 1.19034 -4.29822 0
M  V30 11473 C 1130.96 -0.260713 -5.81115 0
M  V30 11474 N 1129.93 0.353991 -5.42446 0
M  V30 11475 H 1133.73 -0.257813 -2.92767 0
M  V30 11476 H 1131.25 -0.242421 -1.6058 0
M  V30 11477 H 1133.24 2.11535 -3.59247 0
M  V30 11478 H 1131.9 2.16815 -2.41706 0
M  V30 11479 H 1132.92 -0.299356 -5.17034 0
M  V30 11480 H 1129.59 1.85036 -3.74256 0
M  V30 11481 H 1130.98 -0.956442 -6.65058 0
M  V30 11482 N 1133.7 1.56767 -0.161869 0
M  V30 11483 C 1134.65 2.18807 0.789074 0
M  V30 11484 C 1135.64 1.14934 1.24445 0
M  V30 11485 O 1136.85 1.33154 1.2112 0
M  V30 11486 H 1133.23 0.700808 0.272713 0
M  V30 11487 H 1135.2 2.97419 0.241766 0
M  V30 11488 C 1133.95 2.83568 2.01207 0
M  V30 11489 H 1133.27 3.63219 1.67068 0
M  V30 11490 H 1134.71 3.3046 2.65654 0
M  V30 11491 C 1133.17 1.82846 2.82964 0
M  V30 11492 O 1133.7 1.30809 3.79805 0
M  V30 11493 N 1131.9 1.51815 2.47791 0
M  V30 11494 H 1131.45 1.94325 1.69103 0
M  V30 11495 H 1131.41 0.846742 3.02783 0
M  V30 11496 N 1135.18 -0.111886 1.57202 0
M  V30 11497 C 1136.42 -0.82422 1.87045 0
M  V30 11498 C 1136.78 -1.76713 0.750765 0
M  V30 11499 O 1137.99 -2.52157 0.931154 0
M  V30 11500 C 1136.26 -1.5483 3.22122 0
M  V30 11501 S 1137.82 -2.30123 3.73616 0
M  V30 11502 H 1134.63 -0.274945 0.655687 0
M  V30 11503 H 1137.24 -0.0821899 1.95327 0
M  V30 11504 H 1135.94 -0.847704 4.0155 0
M  V30 11505 H 1135.47 -2.33056 3.16936 0
M  V30 11506 H 1137.49 -3.5597 3.45687 0
M  V30 11507 N 1136.66 -1.52894 -0.382264 0
M  V30 11508 C 1137.94 -1.58853 -1.14127 0
M  V30 11509 C 1138.32 -0.38582 -2.07544 0
M  V30 11510 O 1137.66 0.625323 -2.19777 0
M  V30 11511 C 1137.87 -2.93068 -1.89504 0
M  V30 11512 C 1139.22 -3.47048 -2.44629 0
M  V30 11513 O 1140.25 -2.94987 -1.99652 0
M  V30 11514 O 1139.1 -4.3802 -3.26804 0
M  V30 11515 H 1136.2 -0.640969 -0.522578 0
M  V30 11516 H 1138.74 -1.65231 -0.386873 0
M  V30 11517 H 1137.52 -3.72047 -1.2123 0
M  V30 11518 H 1137.14 -2.90106 -2.7189 0
M  V30 11519 N 1138.14 0.641106 -1.43971 0
M  V30 11520 C 1139.39 1.39676 -1.45511 0
M  V30 11521 C 1139.7 1.95403 -0.0877084 0
M  V30 11522 O 1140.91 2.71493 0.0193965 0
M  V30 11523 C 1139.36 2.52839 -2.56126 0
M  V30 11524 C 1138.97 2.03668 -3.99028 0
M  V30 11525 C 1140.71 3.30118 -2.66875 0
M  V30 11526 C 1138.62 3.14114 -5.01085 0
M  V30 11527 H 1137.55 0.524854 -0.541336 0
M  V30 11528 H 1140.2 0.69075 -1.70003 0
M  V30 11529 H 1138.58 3.25968 -2.24857 0
M  V30 11530 H 1139.76 1.3747 -4.39817 0
M  V30 11531 H 1138.07 1.39233 -3.92432 0
M  V30 11532 H 1140.67 4.12434 -3.40297 0
M  V30 11533 H 1141.01 3.78946 -1.72353 0
M  V30 11534 H 1141.55 2.64075 -2.97505 0
M  V30 11535 H 1138.28 2.70241 -5.97202 0
M  V30 11536 H 1137.8 3.78985 -4.64898 0
M  V30 11537 H 1139.48 3.79051 -5.24337 0
M  V30 11538 N 1139.62 1.30703 0.880598 0
M  V30 11539 C 1141.03 1.17818 1.4483 0
M  V30 11540 C 1141.38 -0.219456 1.94969 0
M  V30 11541 O 1140.5 -1.11646 1.85375 0
M  V30 11542 C 1141.1 2.13275 2.63247 0
M  V30 11543 C 1139.66 2.04356 3.16094 0
M  V30 11544 C 1138.8 2.03108 1.88792 0
M  V30 11545 H 1141.75 1.42909 0.690125 0
M  V30 11546 H 1141.78 1.71615 3.39601 0
M  V30 11547 H 1141.29 3.14988 2.26725 0
M  V30 11548 H 1139.39 1.058 3.57263 0
M  V30 11549 H 1139.5 2.92953 3.79098 0
M  V30 11550 H 1137.87 1.47971 2.07308 0
M  V30 11551 H 1138.65 3.06558 1.54521 0
M  V30 11552 N 1141.09 -1.09351 1.1349 0
M  V30 11553 C 1142.03 -2.15852 0.770763 0
M  V30 11554 C 1143.04 -1.61468 -0.207866 0
M  V30 11555 O 1144.23 -1.78496 0.0124385 0
M  V30 11556 C 1141.33 -3.38681 0.121871 0
M  V30 11557 C 1140.5 -4.22477 1.13279 0
M  V30 11558 C 1139.56 -5.23728 0.509448 0
M  V30 11559 O 1138.59 -5.57052 1.16967 0
M  V30 11560 N 1139.79 -5.76041 -0.718159 0
M  V30 11561 H 1142.55 -2.47696 1.6872 0
M  V30 11562 H 1140.11 -1.25074 1.02801 0
M  V30 11563 H 1142.11 -4.03531 -0.307404 0
M  V30 11564 H 1140.68 -3.04718 -0.697527 0
M  V30 11565 H 1139.9 -3.53753 1.73933 0
M  V30 11566 H 1141.18 -4.75288 1.81601 0
M  V30 11567 H 1140.58 -5.51183 -1.27331 0
M  V30 11568 H 1139.14 -6.4262 -1.09008 0
M  V30 11569 N 1142.57 -0.928524 -1.27343 0
M  V30 11570 C 1143.99 -0.62889 -1.46687 0
M  V30 11571 C 1144.19 0.821592 -1.83989 0
M  V30 11572 O 1143.24 1.59941 -1.95385 0
M  V30 11573 C 1144.56 -1.57947 -2.55878 0
M  V30 11574 C 1146.1 -1.58778 -2.69738 0
M  V30 11575 C 1146.58 -2.52535 -3.82087 0
M  V30 11576 N 1148.07 -2.50747 -3.89462 0
M  V30 11577 C 1148.81 -3.19981 -4.75814 0
M  V30 11578 N 1148.3 -3.98598 -5.66649 0
M  V30 11579 N 1150.09 -3.08996 -4.69551 0
M  V30 11580 H 1142.25 -1.86625 -1.01414 0
M  V30 11581 H 1144.51 -0.801293 -0.50659 0
M  V30 11582 H 1144.21 -2.61427 -2.35264 0
M  V30 11583 H 1144.09 -1.3218 -3.53282 0
M  V30 11584 H 1146.48 -0.560292 -2.89732 0
M  V30 11585 H 1146.56 -1.88594 -1.72817 0
M  V30 11586 H 1146.2 -3.55395 -3.62846 0
M  V30 11587 H 1146.13 -2.20015 -4.78436 0
M  V30 11588 H 1148.62 -1.93651 -3.24511 0
M  V30 11589 H 1148.93 -4.4841 -6.29403 0
M  V30 11590 H 1147.28 -4.02701 -5.66442 0
M  V30 11591 H 1150.47 -2.4707 -3.97585 0
M  V30 11592 H 1150.64 -3.63223 -5.36631 0
M  V30 11593 N 1144.05 1.41491 -0.694123 0
M  V30 11594 C 1145.01 2.2917 -0.0368562 0
M  V30 11595 C 1146.01 1.44305 0.709426 0
M  V30 11596 O 1147.2 1.6547 0.544533 0
M  V30 11597 C 1144.33 3.27156 0.958201 0
M  V30 11598 H 1145.53 2.88787 -0.808829 0
M  V30 11599 H 1143.08 1.49453 -0.457538 0
M  V30 11600 H 1143.82 2.72516 1.75799 0
M  V30 11601 H 1143.6 3.89776 0.426227 0
M  V30 11602 H 1145.09 3.92863 1.41592 0
M  V30 11603 N 1145.53 0.438773 1.51369 0
M  V30 11604 C 1146.46 -0.407771 2.25543 0
M  V30 11605 C 1147.47 -0.985065 1.29616 0
M  V30 11606 O 1148.66 -0.878961 1.55359 0
M  V30 11607 C 1145.76 -1.58257 2.9968 0
M  V30 11608 C 1144.93 -1.12389 4.22714 0
M  V30 11609 C 1143.99 -2.16897 4.79418 0
M  V30 11610 O 1143.02 -1.76273 5.41218 0
M  V30 11611 N 1144.22 -3.49396 4.63576 0
M  V30 11612 H 1146.99 0.227963 2.98832 0
M  V30 11613 H 1144.55 0.267741 1.59671 0
M  V30 11614 H 1146.54 -2.27796 3.34501 0
M  V30 11615 H 1145.11 -2.12362 2.29393 0
M  V30 11616 H 1144.33 -0.255509 3.93371 0
M  V30 11617 H 1145.62 -0.794848 5.02553 0
M  V30 11618 H 1145.02 -3.85132 4.14355 0
M  V30 11619 H 1143.57 -4.14826 5.02755 0
M  V30 11620 N 1147.01 -1.56678 0.170181 0
M  V30 11621 C 1148.25 -1.98743 -0.477534 0
M  V30 11622 C 1148.61 -1.0538 -1.60497 0
M  V30 11623 O 1149.81 -1.3658 -2.31515 0
M  V30 11624 C 1148.08 -3.44565 -0.949186 0
M  V30 11625 S 1149.64 -4.08658 -1.59824 0
M  V30 11626 H 1146.46 -0.694202 -0.153639 0
M  V30 11627 H 1149.06 -1.93663 0.267373 0
M  V30 11628 H 1147.76 -4.1023 -0.118205 0
M  V30 11629 H 1147.3 -3.53409 -1.72816 0
M  V30 11630 H 1149.31 -4.03614 -2.88635 0
M  V30 11631 N 1148.48 0.103547 -1.57259 0
M  V30 11632 C 1149.73 0.807231 -1.84842 0
M  V30 11633 C 1150.05 1.80308 -0.758181 0
M  V30 11634 O 1151.25 2.55406 -0.920877 0
M  V30 11635 C 1149.71 1.4864 -3.27771 0
M  V30 11636 C 1149.32 0.53075 -4.44845 0
M  V30 11637 C 1151.06 2.17431 -3.64587 0
M  V30 11638 C 1148.97 1.21403 -5.78805 0
M  V30 11639 H 1147.9 0.305212 -0.689465 0
M  V30 11640 H 1150.55 0.0600855 -1.83402 0
M  V30 11641 H 1148.93 2.28071 -3.23728 0
M  V30 11642 H 1150.1 -0.231455 -4.60218 0
M  V30 11643 H 1148.42 -0.0510078 -4.16369 0
M  V30 11644 H 1151.02 2.6927 -4.6195 0
M  V30 11645 H 1151.36 2.9594 -2.92789 0
M  V30 11646 H 1151.89 1.4487 -3.70483 0
M  V30 11647 H 1148.63 0.469918 -6.53813 0
M  V30 11648 H 1148.15 1.94787 -5.6729 0
M  V30 11649 H 1149.83 1.74289 -6.23083 0
M  V30 11650 N 1149.96 1.53094 0.37415 0
M  V30 11651 C 1151.19 1.72508 1.13687 0
M  V30 11652 C 1151.6 0.449922 1.83773 0
M  V30 11653 O 1150.94 -0.586391 1.74089 0
M  V30 11654 C 1151 2.82965 2.21746 0
M  V30 11655 C 1150.67 4.23599 1.71501 0
M  V30 11656 C 1151.67 5.06245 1.1837 0
M  V30 11657 C 1149.35 4.69978 1.77273 0
M  V30 11658 C 1151.34 6.33357 0.71679 0
M  V30 11659 C 1149.03 5.9707 1.30194 0
M  V30 11660 C 1150.03 6.7859 0.774856 0
M  V30 11661 O 1149.72 8.03298 0.310981 0
M  V30 11662 H 1149.45 0.580611 0.346218 0
M  V30 11663 H 1152 2.00596 0.441614 0
M  V30 11664 H 1150.23 2.5033 2.9474 0
M  V30 11665 H 1151.92 2.90638 2.83345 0
M  V30 11666 H 1152.69 4.71591 1.13256 0
M  V30 11667 H 1148.57 4.06605 2.17241 0
M  V30 11668 H 1152.11 6.96934 0.30471 0
M  V30 11669 H 1148.01 6.31225 1.34999 0
M  V30 11670 H 1148.78 8.17364 0.431098 0
M  V30 11671 N 1151.44 -0.633461 1.44309 0
M  V30 11672 C 1152.67 -1.42033 1.50447 0
M  V30 11673 C 1153.08 -1.88362 0.128585 0
M  V30 11674 O 1152.44 -1.60695 -0.865071 0
M  V30 11675 C 1152.49 -2.6422 2.46719 0
M  V30 11676 O 1152.21 -2.19823 3.78958 0
M  V30 11677 C 1153.71 -3.57372 2.62298 0
M  V30 11678 H 1150.93 -0.435667 0.510329 0
M  V30 11679 H 1153.48 -0.774907 1.8925 0
M  V30 11680 H 1151.63 -3.24859 2.11058 0
M  V30 11681 H 1152.05 -2.99022 4.30913 0
M  V30 11682 H 1153.52 -4.39719 3.33693 0
M  V30 11683 H 1154 -4.06026 1.67449 0
M  V30 11684 H 1154.6 -3.02603 2.9885 0
M  V30 11685 N 1152.92 -1.31168 -0.873655 0
M  V30 11686 C 1154.17 -1.20404 -1.62319 0
M  V30 11687 C 1154.49 0.238829 -1.93532 0
M  V30 11688 O 1153.76 1.15854 -1.57971 0
M  V30 11689 H 1152.34 -0.442632 -0.601736 0
M  V30 11690 H 1155 -1.64445 -1.04613 0
M  V30 11691 H 1154.1 -1.77309 -2.56842 0
M  V30 11692 N 1154.4 1.08748 -1.14068 0
M  V30 11693 C 1155.64 1.80707 -0.904947 0
M  V30 11694 C 1155.97 1.86478 0.570167 0
M  V30 11695 O 1155.24 1.35536 1.41445 0
M  V30 11696 H 1153.82 0.669261 -0.331811 0
M  V30 11697 H 1156.48 1.31494 -1.43859 0
M  V30 11698 H 1155.57 2.83653 -1.30182 0
M  V30 11699 N 1155.87 0.935264 1.26849 0
M  V30 11700 C 1157.1 0.595704 1.98661 0
M  V30 11701 C 1157.52 -0.821001 1.69237 0
M  V30 11702 O 1156.88 -1.55211 0.936982 0
M  V30 11703 C 1156.93 0.837275 3.50745 0
M  V30 11704 O 1156.03 -0.0934914 4.12294 0
M  V30 11705 H 1155.38 0.228512 0.623441 0
M  V30 11706 H 1157.91 1.25658 1.61466 0
M  V30 11707 H 1157.92 0.755827 4.00938 0
M  V30 11708 H 1156.59 1.86993 3.71492 0
M  V30 11709 H 1155.17 0.0385124 3.7288 0
M  V30 11710 N 1157.35 -1.41121 0.701616 0
M  V30 11711 C 1158.58 -2.05973 0.242896 0
M  V30 11712 C 1159 -1.52474 -1.10151 0
M  V30 11713 O 1158.36 -0.654224 -1.69085 0
M  V30 11714 C 1158.41 -3.59943 0.217614 0
M  V30 11715 O 1157.51 -4.04454 -0.805629 0
M  V30 11716 H 1156.85 -0.653581 0.117166 0
M  V30 11717 H 1159.38 -1.80777 0.958175 0
M  V30 11718 H 1159.39 -4.07969 0.0505267 0
M  V30 11719 H 1158.07 -3.98249 1.19877 0
M  V30 11720 H 1156.65 -3.6792 -0.607404 0
M  V30 11721 N 1158.83 -0.446794 -1.51134 0
M  V30 11722 C 1160.06 0.114727 -2.06281 0
M  V30 11723 C 1160.47 1.36192 -1.31333 0
M  V30 11724 O 1159.81 1.79956 -0.368982 0
M  V30 11725 C 1159.87 0.492968 -3.56104 0
M  V30 11726 C 1159.54 -0.648755 -4.52372 0
M  V30 11727 C 1160.53 -1.52369 -4.97071 0
M  V30 11728 C 1158.22 -0.832177 -4.95359 0
M  V30 11729 C 1160.21 -2.56667 -5.83439 0
M  V30 11730 C 1157.9 -1.87841 -5.81514 0
M  V30 11731 C 1158.9 -2.74404 -6.25453 0
M  V30 11732 O 1158.59 -3.7723 -7.09896 0
M  V30 11733 H 1158.32 0.007138 -0.675962 0
M  V30 11734 H 1160.87 -0.627452 -1.95582 0
M  V30 11735 H 1159.1 1.28799 -3.6462 0
M  V30 11736 H 1160.79 0.986739 -3.93724 0
M  V30 11737 H 1161.56 -1.39356 -4.64548 0
M  V30 11738 H 1157.44 -0.167954 -4.60694 0
M  V30 11739 H 1160.98 -3.24264 -6.17656 0
M  V30 11740 H 1156.88 -2.00871 -6.1345 0
M  V30 11741 H 1157.65 -3.73924 -7.28095 0
M  V30 11742 N 1160.31 1.56586 -0.178487 0
M  V30 11743 C 1161.54 2.01475 0.470684 0
M  V30 11744 C 1161.95 1.0587 1.56323 0
M  V30 11745 O 1161.31 0.060749 1.82399 0
M  V30 11746 C 1161.36 3.46145 1.04238 0
M  V30 11747 O 1161.08 4.381 -0.0065582 0
M  V30 11748 C 1162.58 4.06471 1.76908 0
M  V30 11749 H 1159.8 0.660219 0.119801 0
M  V30 11750 H 1162.35 2.02542 -0.282322 0
M  V30 11751 H 1160.5 3.45831 1.74585 0
M  V30 11752 H 1160.91 5.22843 0.416554 0
M  V30 11753 H 1162.39 5.096 2.12161 0
M  V30 11754 H 1162.87 3.48974 2.66672 0
M  V30 11755 H 1163.47 4.10509 1.11186 0
M  V30 11756 N 1161.79 -0.095206 1.57312 0
M  V30 11757 C 1163.03 -0.804335 1.87909 0
M  V30 11758 C 1163.39 -1.75907 0.769465 0
M  V30 11759 O 1164.59 -2.51155 0.957846 0
M  V30 11760 C 1162.86 -1.51405 3.23746 0
M  V30 11761 S 1164.42 -2.26147 3.76036 0
M  V30 11762 H 1161.24 -0.267976 0.658567 0
M  V30 11763 H 1163.84 -0.0614682 1.95403 0
M  V30 11764 H 1162.55 -0.805066 4.02426 0
M  V30 11765 H 1162.08 -2.29681 3.1939 0
M  V30 11766 H 1164.09 -3.52284 3.49443 0
M  V30 11767 N 1163.26 -1.53291 -0.366026 0
M  V30 11768 C 1164.49 -1.73665 -1.13381 0
M  V30 11769 C 1164.91 -0.464284 -1.8228 0
M  V30 11770 O 1164.27 0.581645 -1.71717 0
M  V30 11771 C 1164.32 -2.90225 -2.14013 0
M  V30 11772 O 1163.42 -2.58803 -3.21084 0
M  V30 11773 H 1162.77 -0.576762 -0.329 0
M  V30 11774 H 1165.3 -2.00174 -0.423287 0
M  V30 11775 H 1165.31 -3.16378 -2.57622 0
M  V30 11776 H 1163.98 -3.82518 -1.63257 0
M  V30 11777 H 1162.56 -2.43466 -2.82451 0
M  V30 11778 N 1164.74 0.6258 -1.44643 0
M  V30 11779 C 1165.98 1.39676 -1.49232 0
M  V30 11780 C 1166.35 1.91601 -0.123682 0
M  V30 11781 O 1167.55 2.68764 -0.0442486 0
M  V30 11782 C 1165.82 2.52704 -2.52736 0
M  V30 11783 S 1167.38 3.40795 -2.76413 0
M  V30 11784 H 1164.2 0.476436 -0.527759 0
M  V30 11785 H 1166.8 0.72394 -1.81602 0
M  V30 11786 H 1165.5 2.12876 -3.50873 0
M  V30 11787 H 1165.03 3.24806 -2.21956 0
M  V30 11788 H 1167.05 4.5031 -2.08412 0
M  V30 11789 N 1166.22 1.31629 0.866686 0
M  V30 11790 C 1167.15 1.22151 1.99001 0
M  V30 11791 C 1168.13 0.107972 1.69757 0
M  V30 11792 O 1169.32 0.293125 1.91975 0
M  V30 11793 C 1166.45 0.93144 3.34577 0
M  V30 11794 C 1165.4 2.0049 3.78137 0
M  V30 11795 C 1164.73 1.56747 5.11209 0
M  V30 11796 C 1166.03 3.41844 3.94892 0
M  V30 11797 H 1167.72 2.16132 2.0719 0
M  V30 11798 H 1165.27 1.04051 0.995463 0
M  V30 11799 H 1167.22 0.851719 4.12703 0
M  V30 11800 H 1165.94 -0.0440289 3.2657 0
M  V30 11801 H 1164.6 2.07457 3.02253 0
M  V30 11802 H 1164.25 0.579767 4.99648 0
M  V30 11803 H 1163.95 2.28562 5.41326 0
M  V30 11804 H 1165.47 1.50188 5.91841 0
M  V30 11805 H 1166.89 3.37534 4.63405 0
M  V30 11806 H 1165.29 4.11905 4.36411 0
M  V30 11807 H 1166.36 3.82389 2.98172 0
M  V30 11808 N 1167.7 -1.08142 1.14644 0
M  V30 11809 C 1169.11 -1.62061 0.926986 0
M  V30 11810 C 1169.46 -1.88805 -0.533578 0
M  V30 11811 O 1168.59 -1.64753 -1.40305 0
M  V30 11812 C 1169.18 -2.94425 1.67629 0
M  V30 11813 C 1167.74 -3.45118 1.50235 0
M  V30 11814 C 1166.89 -2.19307 1.69705 0
M  V30 11815 H 1169.84 -0.913326 1.29785 0
M  V30 11816 H 1169.86 -3.62987 1.14107 0
M  V30 11817 H 1169.37 -2.74928 2.73927 0
M  V30 11818 H 1167.47 -3.69713 0.462967 0
M  V30 11819 H 1167.59 -4.2169 2.27408 0
M  V30 11820 H 1165.95 -2.28611 1.12291 0
M  V30 11821 H 1166.73 -2.02315 2.77351 0
M  V30 11822 N 1169.18 -0.941978 -1.26351 0
M  V30 11823 C 1170.43 -0.588806 -1.93333 0
M  V30 11824 C 1170.75 0.875067 -1.74263 0
M  V30 11825 O 1170.02 1.62187 -1.09873 0
M  V30 11826 H 1168.6 -0.214774 -0.715459 0
M  V30 11827 H 1171.26 -1.19747 -1.53774 0
M  V30 11828 H 1170.35 -0.807267 -3.01479 0
M  V30 11829 N 1170.66 1.40747 -0.709091 0
M  V30 11830 C 1171.9 2.01003 -0.24581 0
M  V30 11831 C 1172.23 1.56203 1.15891 0
M  V30 11832 O 1171.49 0.770166 1.79908 0
M  V30 11833 C 1171.78 3.56404 -0.266685 0
M  V30 11834 C 1171.45 4.20762 -1.6208 0
M  V30 11835 C 1170.11 4.38056 -1.99148 0
M  V30 11836 C 1172.46 4.56723 -2.51105 0
M  V30 11837 C 1169.79 4.88591 -3.248 0
M  V30 11838 C 1172.14 5.08654 -3.76103 0
M  V30 11839 C 1170.81 5.24158 -4.13297 0
M  V30 11840 H 1170.08 0.73552 -0.0899481 0
M  V30 11841 H 1172.73 1.68451 -0.910844 0
M  V30 11842 H 1171.03 3.88825 0.481915 0
M  V30 11843 H 1172.73 4.0085 0.109509 0
M  V30 11844 H 1169.32 4.07685 -1.32252 0
M  V30 11845 H 1173.5 4.43004 -2.23744 0
M  V30 11846 H 1168.76 4.98779 -3.53595 0
M  V30 11847 H 1172.93 5.35457 -4.45262 0
M  V30 11848 H 1170.56 5.63079 -5.10731 0
M  V30 11849 N 1172.13 0.454803 1.50895 0
M  V30 11850 C 1173.36 -0.106259 2.07128 0
M  V30 11851 C 1173.78 -1.3418 1.31823 0
M  V30 11852 O 1173.14 -1.77667 0.361147 0
M  V30 11853 C 1173.19 -0.389609 3.58489 0
M  V30 11854 O 1172.29 -1.47305 3.85195 0
M  V30 11855 H 1171.63 0.00580588 0.663975 0
M  V30 11856 H 1174.16 0.641163 1.94294 0
M  V30 11857 H 1174.17 -0.634934 4.03029 0
M  V30 11858 H 1172.85 0.513338 4.1272 0
M  V30 11859 H 1171.43 -1.21631 3.52506 0
M  V30 11860 N 1173.61 -1.56489 0.186789 0
M  V30 11861 C 1174.86 -1.96952 -0.453261 0
M  V30 11862 C 1175.18 -1.07451 -1.62725 0
M  V30 11863 O 1174.45 -0.144046 -1.9537 0
M  V30 11864 H 1173.03 -0.727295 -0.170445 0
M  V30 11865 H 1175.69 -1.92999 0.271584 0
M  V30 11866 H 1174.79 -3.01594 -0.802951 0
M  V30 11867 N 1175.09 0.086862 -1.5736 0
M  V30 11868 C 1176.37 0.820984 -1.77537 0
M  V30 11869 C 1176.75 1.96534 -0.770554 0
M  V30 11870 O 1176.09 2.27629 0.199334 0
M  V30 11871 C 1176.3 1.30793 -3.23565 0
M  V30 11872 C 1177.65 1.7474 -3.86977 0
M  V30 11873 O 1178.68 1.40396 -3.27364 0
M  V30 11874 O 1177.54 2.38271 -4.91822 0
M  V30 11875 H 1174.63 0.392228 -0.72807 0
M  V30 11876 H 1177.18 0.0681051 -1.69563 0
M  V30 11877 H 1175.95 0.488409 -3.8824 0
M  V30 11878 H 1175.57 2.12258 -3.36203 0
M  V30 11879 N 1176.57 1.53483 0.357892 0
M  V30 11880 C 1177.82 1.69701 1.09754 0
M  V30 11881 C 1178.14 0.455389 1.89608 0
M  V30 11882 O 1177.41 -0.530623 1.88577 0
M  V30 11883 H 1175.99 0.62562 0.408178 0
M  V30 11884 H 1178.65 1.90696 0.402641 0
M  V30 11885 H 1177.74 2.56154 1.78302 0
M  V30 11886 N 1178.05 -0.61812 1.44973 0
M  V30 11887 C 1178.98 -1.74299 1.48837 0
M  V30 11888 C 1179.99 -1.58296 0.38028 0
M  V30 11889 O 1181.18 -1.66371 0.646757 0
M  V30 11890 C 1178.28 -3.12179 1.31901 0
M  V30 11891 C 1177.45 -3.54519 2.56193 0
M  V30 11892 C 1176.51 -4.71324 2.33966 0
M  V30 11893 O 1175.54 -4.78975 3.07525 0
M  V30 11894 N 1176.74 -5.63894 1.37854 0
M  V30 11895 H 1179.5 -1.7145 2.45815 0
M  V30 11896 H 1177.07 -0.803087 1.40578 0
M  V30 11897 H 1179.06 -3.88059 1.14858 0
M  V30 11898 H 1177.63 -3.09595 0.43239 0
M  V30 11899 H 1176.85 -2.68711 2.88423 0
M  V30 11900 H 1178.14 -3.79563 3.38835 0
M  V30 11901 H 1177.53 -5.60418 0.771273 0
M  V30 11902 H 1176.09 -6.3935 1.26787 0
M  V30 11903 N 1179.52 -1.32087 -0.859693 0
M  V30 11904 C 1180.49 -1.20546 -1.94939 0
M  V30 11905 C 1181.49 -0.12982 -1.60275 0
M  V30 11906 O 1182.68 -0.379853 -1.70008 0
M  V30 11907 C 1179.81 -0.852717 -3.30063 0
M  V30 11908 H 1181 -2.17384 -2.06602 0
M  V30 11909 H 1178.55 -1.15846 -1.04926 0
M  V30 11910 H 1179.29 0.114059 -3.24099 0
M  V30 11911 H 1179.07 -1.63035 -3.56598 0
M  V30 11912 H 1180.56 -0.796145 -4.09941 0
M  V30 11913 N 1181 1.07532 -1.15215 0
M  V30 11914 C 1182.24 1.81689 -0.936396 0
M  V30 11915 C 1182.61 1.84622 0.527136 0
M  V30 11916 O 1183.81 2.54632 0.861159 0
M  V30 11917 C 1182.08 3.22919 -1.53161 0
M  V30 11918 S 1183.64 4.13845 -1.4587 0
M  V30 11919 H 1180.45 0.626036 -0.337045 0
M  V30 11920 H 1183.06 1.29191 -1.4673 0
M  V30 11921 H 1181.76 3.18372 -2.58974 0
M  V30 11922 H 1181.29 3.80492 -0.999482 0
M  V30 11923 H 1183.31 4.94152 -0.450317 0
M  V30 11924 N 1182.48 0.948665 1.2585 0
M  V30 11925 C 1183.41 0.421458 2.25292 0
M  V30 11926 C 1184.43 -0.459389 1.56184 0
M  V30 11927 O 1185.61 -0.268627 1.76467 0
M  V30 11928 C 1182.71 -0.412653 3.36378 0
M  V30 11929 C 1181.89 0.453792 4.3504 0
M  V30 11930 C 1180.95 -0.321127 5.25219 0
M  V30 11931 O 1179.97 0.278424 5.68519 0
M  V30 11932 N 1181.17 -1.61576 5.5756 0
M  V30 11933 H 1183.94 1.27636 2.71162 0
M  V30 11934 H 1181.5 0.818367 1.39694 0
M  V30 11935 H 1183.49 -0.938637 3.93664 0
M  V30 11936 H 1182.06 -1.16839 2.89944 0
M  V30 11937 H 1181.28 1.16093 3.76718 0
M  V30 11938 H 1182.57 1.04538 4.97945 0
M  V30 11939 H 1181.97 -2.12488 5.24276 0
M  V30 11940 H 1180.53 -2.08783 6.17457 0
M  V30 11941 N 1183.96 -1.40369 0.716545 0
M  V30 11942 C 1185.24 -1.94737 0.183576 0
M  V30 11943 C 1185.62 -1.65464 -1.31092 0
M  V30 11944 O 1184.96 -0.972832 -2.06756 0
M  V30 11945 C 1185.17 -3.45438 0.497339 0
M  V30 11946 C 1186.52 -4.2235 0.436526 0
M  V30 11947 O 1187.55 -3.53553 0.433454 0
M  V30 11948 O 1186.4 -5.44923 0.41489 0
M  V30 11949 H 1183.5 -0.82655 0.0272785 0
M  V30 11950 H 1186.04 -1.49972 0.794143 0
M  V30 11951 H 1184.82 -3.60107 1.53097 0
M  V30 11952 H 1184.44 -3.97342 -0.143141 0
M  V30 11953 N 1185.44 -0.462799 -1.50652 0
M  V30 11954 C 1186.68 0.0951853 -2.02576 0
M  V30 11955 C 1187.02 1.40113 -1.34469 0
M  V30 11956 O 1186.29 1.88793 -0.467702 0
M  V30 11957 C 1186.57 0.287603 -3.5895 0
M  V30 11958 C 1186.43 -1.03878 -4.37641 0
M  V30 11959 C 1187.75 1.04593 -4.27491 0
M  V30 11960 H 1184.86 0.0331191 -0.736255 0
M  V30 11961 H 1187.51 -0.606772 -1.80051 0
M  V30 11962 H 1185.66 0.885514 -3.78274 0
M  V30 11963 H 1187.33 -1.67263 -4.29908 0
M  V30 11964 H 1185.57 -1.6374 -4.01711 0
M  V30 11965 H 1186.24 -0.857889 -5.45293 0
M  V30 11966 H 1188.72 0.539213 -4.12591 0
M  V30 11967 H 1187.59 1.14935 -5.36732 0
M  V30 11968 H 1187.86 2.08045 -3.90089 0
M  V30 11969 N 1186.91 1.56388 -0.195085 0
M  V30 11970 C 1188.19 1.89329 0.491303 0
M  V30 11971 C 1188.57 1.10861 1.79647 0
M  V30 11972 O 1187.92 0.209696 2.27536 0
M  V30 11973 C 1188.13 3.417 0.710096 0
M  V30 11974 C 1189.48 4.11931 1.02947 0
M  V30 11975 O 1190.5 3.4715 0.797817 0
M  V30 11976 O 1189.36 5.26423 1.46767 0
M  V30 11977 H 1186.45 0.786335 0.256137 0
M  V30 11978 H 1189 1.68061 -0.235298 0
M  V30 11979 H 1187.77 3.90727 -0.211604 0
M  V30 11980 H 1187.4 3.6866 1.48916 0
M  V30 11981 N 1188.39 -0.0785156 1.57404 0
M  V30 11982 C 1189.3 -1.11203 2.0657 0
M  V30 11983 C 1190.32 -1.42822 0.993872 0
M  V30 11984 O 1191.49 -1.53133 1.30814 0
M  V30 11985 C 1188.56 -2.40812 2.4942 0
M  V30 11986 C 1187.62 -2.16225 3.70871 0
M  V30 11987 C 1186.85 -3.39654 4.11668 0
M  V30 11988 O 1187.08 -4.48521 3.524 0
M  V30 11989 O 1186.01 -3.28263 5.04507 0
M  V30 11990 H 1189.84 -0.724381 2.94935 0
M  V30 11991 H 1187.42 -0.292184 1.46515 0
M  V30 11992 H 1189.3 -3.17101 2.77534 0
M  V30 11993 H 1187.98 -2.7897 1.64187 0
M  V30 11994 H 1186.89 -1.37663 3.4785 0
M  V30 11995 H 1188.22 -1.82951 4.56935 0
M  V30 11996 N 1189.87 -1.5367 -0.349747 0
M  V30 11997 C 1191.11 -1.72329 -1.09919 0
M  V30 11998 C 1191.47 -0.473178 -1.86078 0
M  V30 11999 O 1192.68 -0.53669 -2.63388 0
M  V30 12000 C 1190.95 -2.94817 -2.02034 0
M  V30 12001 S 1192.51 -3.34257 -2.84285 0
M  V30 12002 H 1189.32 -0.606225 -0.3715 0
M  V30 12003 H 1191.93 -1.91803 -0.378399 0
M  V30 12004 H 1190.63 -3.83979 -1.44874 0
M  V30 12005 H 1190.16 -2.7779 -2.78561 0
M  V30 12006 H 1192.18 -2.87506 -4.04419 0
M  V30 12007 N 1191.35 0.610423 -1.45298 0
M  V30 12008 C 1192.28 1.73507 -1.4976 0
M  V30 12009 C 1193.29 1.58092 -0.38867 0
M  V30 12010 O 1194.48 1.66026 -0.655571 0
M  V30 12011 C 1191.58 3.11475 -1.33554 0
M  V30 12012 C 1190.76 3.53156 -2.5807 0
M  V30 12013 C 1189.81 4.70076 -2.36463 0
M  V30 12014 O 1188.84 4.77337 -3.10061 0
M  V30 12015 N 1190.04 5.63155 -1.40843 0
M  V30 12016 H 1192.81 1.70144 -2.46721 0
M  V30 12017 H 1190.37 0.79562 -1.41002 0
M  V30 12018 H 1192.36 3.87444 -1.16914 0
M  V30 12019 H 1190.93 3.09361 -0.448803 0
M  V30 12020 H 1190.15 2.67178 -2.89844 0
M  V30 12021 H 1191.44 3.77761 -3.40843 0
M  V30 12022 H 1190.84 5.60001 -0.800982 0
M  V30 12023 H 1189.39 6.38669 -1.30175 0
M  V30 12024 N 1192.83 1.32541 0.852676 0
M  V30 12025 C 1194.24 1.20863 1.42299 0
M  V30 12026 C 1194.59 -0.178051 1.9539 0
M  V30 12027 O 1193.71 -1.07689 1.87702 0
M  V30 12028 C 1194.31 2.18811 2.58664 0
M  V30 12029 C 1192.87 2.11015 3.11689 0
M  V30 12030 C 1192.01 2.07067 1.84441 0
M  V30 12031 H 1194.97 1.44341 0.659657 0
M  V30 12032 H 1194.99 1.78779 3.35884 0
M  V30 12033 H 1194.5 3.19726 2.19993 0
M  V30 12034 H 1192.6 1.13354 3.54939 0
M  V30 12035 H 1192.71 3.00929 3.72799 0
M  V30 12036 H 1191.08 1.52335 2.04123 0
M  V30 12037 H 1191.86 3.09767 1.47984 0
M  V30 12038 N 1194.3 -1.0692 1.15784 0
M  V30 12039 C 1195.53 -1.83849 0.959903 0
M  V30 12040 C 1195.95 -1.8169 -0.486873 0
M  V30 12041 O 1195.31 -1.21305 -1.34739 0
M  V30 12042 C 1195.36 -3.28642 1.48414 0
M  V30 12043 O 1194.46 -4.0665 0.686249 0
M  V30 12044 H 1193.81 -0.569115 0.342059 0
M  V30 12045 H 1196.34 -1.34851 1.53871 0
M  V30 12046 H 1196.35 -3.7947 1.49888 0
M  V30 12047 H 1195.02 -3.29529 2.53739 0
M  V30 12048 H 1193.6 -3.65453 0.741501 0
M  V30 12049 N 1195.78 -0.955326 -1.25345 0
M  V30 12050 C 1197.2 -0.659863 -1.4532 0
M  V30 12051 C 1197.4 0.78238 -1.85691 0
M  V30 12052 O 1196.45 1.5576 -1.98734 0
M  V30 12053 C 1197.77 -1.63339 -2.5247 0
M  V30 12054 C 1199.32 -1.64464 -2.66309 0
M  V30 12055 C 1199.79 -2.60583 -3.76644 0
M  V30 12056 N 1201.28 -2.58951 -3.84055 0
M  V30 12057 C 1202.02 -3.30002 -4.6892 0
M  V30 12058 N 1201.51 -4.10528 -5.58067 0
M  V30 12059 N 1203.31 -3.18886 -4.62891 0
M  V30 12060 H 1195.46 -1.88734 -0.97433 0
M  V30 12061 H 1197.72 -0.811858 -0.48948 0
M  V30 12062 H 1197.43 -2.66358 -2.29665 0
M  V30 12063 H 1197.3 -1.39644 -3.50399 0
M  V30 12064 H 1199.69 -0.621622 -2.88479 0
M  V30 12065 H 1199.77 -1.92218 -1.68778 0
M  V30 12066 H 1199.41 -3.63011 -3.55226 0
M  V30 12067 H 1199.34 -2.30113 -4.73662 0
M  V30 12068 H 1201.83 -2.00491 -3.20331 0
M  V30 12069 H 1202.15 -4.6166 -6.1975 0
M  V30 12070 H 1200.49 -4.14626 -5.57773 0
M  V30 12071 H 1203.68 -2.55447 -3.92255 0
M  V30 12072 H 1203.85 -3.74524 -5.28806 0
M  V30 12073 N 1197.26 1.39987 -0.723979 0
M  V30 12074 C 1198.5 2.02587 -0.271647 0
M  V30 12075 C 1198.87 1.56186 1.11669 0
M  V30 12076 O 1200.07 2.10907 1.66648 0
M  V30 12077 C 1198.34 3.55604 -0.357851 0
M  V30 12078 S 1199.9 4.38797 0.0162614 0
M  V30 12079 H 1196.71 0.702878 -0.10716 0
M  V30 12080 H 1199.32 1.70974 -0.948057 0
M  V30 12081 H 1198.02 3.86866 -1.36977 0
M  V30 12082 H 1197.55 3.91956 0.336754 0
M  V30 12083 H 1199.57 4.80564 1.23582 0
M  V30 12084 N 1198.74 0.470782 1.50404 0
M  V30 12085 C 1199.69 -0.342183 2.25418 0
M  V30 12086 C 1200.67 -0.961726 1.28995 0
M  V30 12087 O 1201.87 -0.874327 1.53898 0
M  V30 12088 C 1198.99 -1.42378 3.12383 0
M  V30 12089 C 1198.08 -0.811982 4.16254 0
M  V30 12090 N 1198.47 0.0675245 5.05755 0
M  V30 12091 C 1196.77 -1.07596 4.32827 0
M  V30 12092 C 1197.47 0.414693 5.8022 0
M  V30 12093 N 1196.45 -0.210047 5.43194 0
M  V30 12094 H 1200.25 0.335344 2.91981 0
M  V30 12095 H 1197.76 0.284911 1.59881 0
M  V30 12096 H 1199.76 -2.01936 3.64729 0
M  V30 12097 H 1198.42 -2.1033 2.47369 0
M  V30 12098 H 1199.43 0.436333 5.16059 0
M  V30 12099 H 1196.11 -1.75048 3.79031 0
M  V30 12100 H 1197.5 1.13243 6.62288 0
M  V30 12101 N 1200.22 -1.56282 0.203376 0
M  V30 12102 C 1201.63 -1.84146 -0.307752 0
M  V30 12103 C 1201.98 -1.12429 -1.60792 0
M  V30 12104 O 1201.1 -0.387852 -2.12896 0
M  V30 12105 C 1201.7 -3.34053 -0.565152 0
M  V30 12106 C 1200.26 -3.62298 -1.02063 0
M  V30 12107 C 1199.41 -2.77202 -0.0737343 0
M  V30 12108 H 1202.36 -1.52848 0.426983 0
M  V30 12109 H 1202.38 -3.53273 -1.41345 0
M  V30 12110 H 1201.89 -3.86222 0.381301 0
M  V30 12111 H 1199.99 -3.1557 -1.98107 0
M  V30 12112 H 1200.1 -4.70424 -0.907614 0
M  V30 12113 H 1198.47 -2.48074 -0.577169 0
M  V30 12114 H 1199.25 -3.32164 0.86731 0
M  V30 12115 N 1201.7 0.070167 -1.57444 0
M  V30 12116 C 1202.97 0.802108 -1.78397 0
M  V30 12117 C 1203.35 1.95706 -0.791356 0
M  V30 12118 O 1202.7 2.27827 0.17518 0
M  V30 12119 C 1202.91 1.27354 -3.24934 0
M  V30 12120 C 1204.26 1.70626 -3.88808 0
M  V30 12121 O 1205.28 1.36916 -3.28835 0
M  V30 12122 O 1204.14 2.33041 -4.94322 0
M  V30 12123 H 1201.24 0.384483 -0.73219 0
M  V30 12124 H 1203.78 0.0501168 -1.69626 0
M  V30 12125 H 1202.55 0.447204 -3.88736 0
M  V30 12126 H 1202.18 2.0868 -3.38435 0
M  V30 12127 N 1203.17 1.53854 0.341593 0
M  V30 12128 C 1204.14 1.8128 1.40251 0
M  V30 12129 C 1205.14 0.683915 1.45531 0
M  V30 12130 O 1206.33 0.952202 1.45872 0
M  V30 12131 C 1203.46 1.95658 2.79161 0
M  V30 12132 H 1204.65 2.76053 1.17195 0
M  V30 12133 H 1202.2 1.45296 0.57609 0
M  V30 12134 H 1202.94 1.03034 3.07497 0
M  V30 12135 H 1202.72 2.77788 2.76724 0
M  V30 12136 H 1204.21 2.18387 3.55945 0
M  V30 12137 N 1204.65 -0.602709 1.4562 0
M  V30 12138 C 1205.9 -1.36158 1.49891 0
M  V30 12139 C 1206.23 -1.93977 0.142581 0
M  V30 12140 O 1205.48 -1.75822 -0.859374 0
M  V30 12141 C 1205.78 -2.52474 2.52966 0
M  V30 12142 C 1205.45 -2.12772 3.97541 0
M  V30 12143 C 1204.11 -2.01658 4.36907 0
M  V30 12144 C 1206.46 -1.8186 4.88443 0
M  V30 12145 C 1203.79 -1.57862 5.65063 0
M  V30 12146 C 1206.14 -1.39548 6.17016 0
M  V30 12147 C 1204.8 -1.26997 6.55308 0
M  V30 12148 H 1204.07 -0.498236 0.54849 0
M  V30 12149 H 1206.72 -0.680738 1.78992 0
M  V30 12150 H 1205.03 -3.25917 2.17452 0
M  V30 12151 H 1206.72 -3.10701 2.53507 0
M  V30 12152 H 1203.31 -2.22349 3.66413 0
M  V30 12153 H 1207.5 -1.89341 4.58763 0
M  V30 12154 H 1202.75 -1.46771 5.93522 0
M  V30 12155 H 1206.93 -1.14677 6.86893 0
M  V30 12156 H 1204.55 -0.928346 7.5451 0
M  V30 12157 N 1206.13 -1.32992 -0.845635 0
M  V30 12158 C 1207.37 -1.2539 -1.61421 0
M  V30 12159 C 1207.73 0.179395 -1.9116 0
M  V30 12160 O 1208.93 0.379275 -2.66111 0
M  V30 12161 C 1207.21 -2.09817 -2.8933 0
M  V30 12162 S 1208.76 -2.19335 -3.80049 0
M  V30 12163 H 1205.58 -0.446202 -0.553556 0
M  V30 12164 H 1208.18 -1.67946 -1.00072 0
M  V30 12165 H 1206.89 -3.12999 -2.65443 0
M  V30 12166 H 1206.42 -1.68073 -3.5569 0
M  V30 12167 H 1208.43 -1.34946 -4.77498 0
M  V30 12168 N 1207.61 1.06304 -1.1635 0
M  V30 12169 C 1208.84 1.82534 -0.967725 0
M  V30 12170 C 1209.25 1.82816 0.487338 0
M  V30 12171 O 1208.59 1.24581 1.35001 0
M  V30 12172 C 1208.65 3.30349 -1.4181 0
M  V30 12173 C 1208.31 3.53769 -2.89303 0
M  V30 12174 C 1209.31 3.46826 -3.87308 0
M  V30 12175 C 1207 3.81094 -3.2722 0
M  V30 12176 C 1208.99 3.66874 -5.21232 0
M  V30 12177 C 1206.68 4.00792 -4.61313 0
M  V30 12178 C 1207.68 3.93679 -5.58127 0
M  V30 12179 O 1207.36 4.12839 -6.89796 0
M  V30 12180 H 1207.1 0.582407 -0.343189 0
M  V30 12181 H 1209.65 1.35022 -1.54784 0
M  V30 12182 H 1207.88 3.78722 -0.781456 0
M  V30 12183 H 1209.57 3.88072 -1.18976 0
M  V30 12184 H 1210.33 3.25706 -3.59361 0
M  V30 12185 H 1206.21 3.85739 -2.5244 0
M  V30 12186 H 1209.76 3.61238 -5.96786 0
M  V30 12187 H 1205.65 4.214 -4.8897 0
M  V30 12188 H 1206.42 4.30128 -6.96371 0
M  V30 12189 N 1209.09 0.96196 1.24836 0
M  V30 12190 C 1210.03 0.479282 2.27609 0
M  V30 12191 C 1211.03 -0.454224 1.63197 0
M  V30 12192 O 1212.23 -0.330146 1.76946 0
M  V30 12193 H 1208.61 0.13651 0.739506 0
M  V30 12194 H 1210.58 1.35817 2.657 0
M  V30 12195 C 1209.33 -0.220499 3.47 0
M  V30 12196 H 1208.65 0.488694 3.96802 0
M  V30 12197 H 1210.09 -0.522137 4.20773 0
M  V30 12198 C 1208.55 -1.44552 3.04313 0
M  V30 12199 O 1209.08 -2.54287 3.10967 0
M  V30 12200 N 1207.29 -1.3095 2.59423 0
M  V30 12201 H 1206.83 -0.416656 2.54208 0
M  V30 12202 H 1206.79 -2.13029 2.31227 0
M  V30 12203 N 1210.56 -1.39601 0.731392 0
M  V30 12204 C 1211.79 -2.04887 0.28789 0
M  V30 12205 C 1212.21 -1.55138 -1.076 0
M  V30 12206 O 1211.56 -0.71471 -1.67923 0
M  V30 12207 C 1211.61 -3.6044 0.276629 0
M  V30 12208 O 1211.34 -4.08358 1.58668 0
M  V30 12209 C 1212.84 -4.4292 -0.183485 0
M  V30 12210 H 1210.06 -0.658976 0.126459 0
M  V30 12211 H 1212.6 -1.78716 0.994031 0
M  V30 12212 H 1210.76 -3.85526 -0.380597 0
M  V30 12213 H 1211.17 -5.02659 1.4978 0
M  V30 12214 H 1212.64 -5.51822 -0.140207 0
M  V30 12215 H 1213.12 -4.2168 -1.22811 0
M  V30 12216 H 1213.73 -4.22976 0.444042 0
M  V30 12217 N 1212.04 -0.478751 -1.50152 0
M  V30 12218 C 1213.45 -0.0254907 -1.86683 0
M  V30 12219 C 1213.8 1.38171 -1.39295 0
M  V30 12220 O 1212.93 2.0257 -0.761207 0
M  V30 12221 C 1213.52 -0.0394819 -3.38777 0
M  V30 12222 C 1212.08 0.35834 -3.7469 0
M  V30 12223 C 1211.23 -0.421667 -2.74075 0
M  V30 12224 H 1214.18 -0.692653 -1.42787 0
M  V30 12225 H 1214.2 0.760957 -3.72813 0
M  V30 12226 H 1213.71 -1.06378 -3.73236 0
M  V30 12227 H 1211.82 1.38671 -3.45834 0
M  V30 12228 H 1211.93 0.0543589 -4.79069 0
M  V30 12229 H 1210.29 0.125634 -2.5439 0
M  V30 12230 H 1211.08 -1.44562 -3.11379 0
M  V30 12231 N 1213.52 1.56172 -0.211661 0
M  V30 12232 C 1214.77 1.97648 0.421871 0
M  V30 12233 C 1215.09 1.10026 1.60995 0
M  V30 12234 O 1214.36 0.175109 1.95116 0
M  V30 12235 H 1212.94 0.729914 0.158852 0
M  V30 12236 H 1215.6 1.92542 -0.302254 0
M  V30 12237 H 1214.7 3.02834 0.754868 0
M  V30 12238 N 1215 -0.0618163 1.57479 0
M  V30 12239 C 1216.22 -0.775513 1.92355 0
M  V30 12240 C 1216.65 -1.69816 0.808949 0
M  V30 12241 O 1216.01 -1.79736 -0.23761 0
M  V30 12242 C 1216.05 -1.5367 3.26218 0
M  V30 12243 O 1215.16 -2.64802 3.16155 0
M  V30 12244 H 1214.5 -0.210909 0.629614 0
M  V30 12245 H 1217.03 -0.0270752 2.04582 0
M  V30 12246 H 1217.04 -1.91379 3.6033 0
M  V30 12247 H 1215.71 -0.859798 4.06916 0
M  V30 12248 H 1214.29 -2.29876 2.93618 0
M  V30 12249 N 1216.48 -1.54033 -0.333429 0
M  V30 12250 C 1217.72 -1.71765 -1.07252 0
M  V30 12251 C 1218.05 -0.486135 -1.88327 0
M  V30 12252 O 1217.31 0.532135 -1.88326 0
M  V30 12253 C 1217.61 -2.93926 -2.03328 0
M  V30 12254 C 1217.27 -4.29107 -1.38486 0
M  V30 12255 C 1215.93 -4.6586 -1.20532 0
M  V30 12256 C 1218.29 -5.13041 -0.918624 0
M  V30 12257 C 1215.61 -5.84155 -0.545881 0
M  V30 12258 C 1217.97 -6.3201 -0.273055 0
M  V30 12259 C 1216.63 -6.67451 -0.0812815 0
M  V30 12260 H 1215.9 -0.628532 -0.392464 0
M  V30 12261 H 1218.55 -1.88261 -0.350709 0
M  V30 12262 H 1216.85 -2.72075 -2.81926 0
M  V30 12263 H 1218.55 -3.0484 -2.60526 0
M  V30 12264 H 1215.14 -4.00185 -1.5346 0
M  V30 12265 H 1219.32 -4.8517 -1.04515 0
M  V30 12266 H 1214.58 -6.1018 -0.386009 0
M  V30 12267 H 1218.75 -6.96333 0.0962582 0
M  V30 12268 H 1216.38 -7.58973 0.431734 0
M  V30 12269 N 1217.95 0.594978 -1.45938 0
M  V30 12270 C 1219.18 1.37994 -1.5416 0
M  V30 12271 C 1219.6 1.87954 -0.17848 0
M  V30 12272 O 1218.95 1.62932 0.822161 0
M  V30 12273 C 1219.01 2.57586 -2.53637 0
M  V30 12274 O 1218.73 2.09698 -3.84653 0
M  V30 12275 C 1220.23 3.50292 -2.71681 0
M  V30 12276 H 1217.45 0.421983 -0.5217 0
M  V30 12277 H 1219.99 0.724459 -1.91238 0
M  V30 12278 H 1218.15 3.19149 -2.19597 0
M  V30 12279 H 1218.56 2.87492 -4.3869 0
M  V30 12280 H 1220.03 4.30717 -3.45234 0
M  V30 12281 H 1220.51 4.01444 -1.78156 0
M  V30 12282 H 1221.12 2.94573 -3.06768 0
M  V30 12283 N 1219.43 1.33438 0.838571 0
M  V30 12284 C 1220.67 1.26245 1.60753 0
M  V30 12285 C 1221.04 -0.169255 1.91253 0
M  V30 12286 O 1222.24 -0.365157 2.66308 0
M  V30 12287 C 1220.51 2.11348 2.88213 0
M  V30 12288 S 1222.07 2.21348 3.78881 0
M  V30 12289 H 1218.89 0.449132 0.551182 0
M  V30 12290 H 1221.49 1.68474 0.991798 0
M  V30 12291 H 1220.19 3.14402 2.63779 0
M  V30 12292 H 1219.72 1.69957 3.54793 0
M  V30 12293 H 1221.74 1.37477 4.76775 0
M  V30 12294 N 1220.91 -1.05686 1.16912 0
M  V30 12295 C 1221.84 -2.1329 0.839044 0
M  V30 12296 C 1222.86 -1.62047 -0.156392 0
M  V30 12297 O 1224.04 -1.78366 0.0692192 0
M  V30 12298 C 1221.14 -3.38122 0.229558 0
M  V30 12299 C 1220.32 -4.18659 1.26662 0
M  V30 12300 C 1219.38 -5.21842 0.675811 0
M  V30 12301 O 1218.4 -5.53049 1.3463 0
M  V30 12302 N 1219.6 -5.78034 -0.534532 0
M  V30 12303 H 1222.37 -2.42203 1.76515 0
M  V30 12304 H 1219.93 -1.2174 1.06729 0
M  V30 12305 H 1221.92 -4.04305 -0.178868 0
M  V30 12306 H 1220.49 -3.06783 -0.60023 0
M  V30 12307 H 1219.71 -3.4804 1.85099 0
M  V30 12308 H 1221 -4.6927 1.9663 0
M  V30 12309 H 1220.4 -5.54955 -1.09731 0
M  V30 12310 H 1218.96 -6.45763 -0.885087 0
M  V30 12311 N 1222.39 -0.968567 -1.24324 0
M  V30 12312 C 1223.63 -0.63879 -1.94162 0
M  V30 12313 C 1223.99 0.81112 -1.74025 0
M  V30 12314 O 1225.19 1.25116 -2.37906 0
M  V30 12315 C 1223.46 -1.00432 -3.42999 0
M  V30 12316 S 1225.02 -0.789227 -4.31644 0
M  V30 12317 H 1221.84 -0.234322 -0.671278 0
M  V30 12318 H 1224.44 -1.2457 -1.50673 0
M  V30 12319 H 1223.15 -2.05643 -3.55161 0
M  V30 12320 H 1222.68 -0.388221 -3.9148 0
M  V30 12321 H 1224.69 0.332976 -4.95082 0
M  V30 12322 N 1223.87 1.39211 -0.738786 0
M  V30 12323 C 1224.81 2.30578 -0.10129 0
M  V30 12324 C 1225.78 1.49412 0.725616 0
M  V30 12325 O 1226.97 1.78087 0.684799 0
M  V30 12326 C 1224.11 3.35767 0.797161 0
M  V30 12327 C 1223.22 4.31979 -0.0427701 0
M  V30 12328 C 1222.36 5.24236 0.857306 0
M  V30 12329 C 1221.4 6.12099 0.0128501 0
M  V30 12330 N 1220.53 6.96701 0.869067 0
M  V30 12331 H 1225.37 2.84522 -0.88606 0
M  V30 12332 H 1222.91 1.40093 -0.448602 0
M  V30 12333 H 1224.87 3.95347 1.33255 0
M  V30 12334 H 1223.5 2.83268 1.54787 0
M  V30 12335 H 1222.55 3.73986 -0.695622 0
M  V30 12336 H 1223.86 4.93927 -0.69555 0
M  V30 12337 H 1223.02 5.88861 1.4604 0
M  V30 12338 H 1221.75 4.62619 1.54386 0
M  V30 12339 H 1220.76 5.46483 -0.603018 0
M  V30 12340 H 1221.98 6.75781 -0.67054 0
M  V30 12341 H 1219.93 6.37647 1.54084 0
M  V30 12342 H 1219.85 7.55507 0.272852 0
M  V30 12343 H 1221.12 7.65751 1.4576 0
M  V30 12344 N 1225.34 0.486708 1.49896 0
M  V30 12345 C 1226.76 0.0353906 1.86666 0
M  V30 12346 C 1227.11 -1.3743 1.40026 0
M  V30 12347 O 1226.23 -2.02163 0.77194 0
M  V30 12348 C 1226.83 0.0574475 3.38751 0
M  V30 12349 C 1225.39 -0.338464 3.74875 0
M  V30 12350 C 1224.53 0.436196 2.73848 0
M  V30 12351 H 1227.48 0.700215 1.42417 0
M  V30 12352 H 1227.5 -0.741175 3.73212 0
M  V30 12353 H 1227.02 1.08356 3.72667 0
M  V30 12354 H 1225.12 -1.36835 3.46565 0
M  V30 12355 H 1225.23 -0.0289519 4.79091 0
M  V30 12356 H 1223.59 -0.112141 2.54453 0
M  V30 12357 H 1224.38 1.46212 3.10608 0
M  V30 12358 N 1226.82 -1.56058 0.219941 0
M  V30 12359 C 1228.07 -1.97869 -0.411383 0
M  V30 12360 C 1228.39 -1.10878 -1.60409 0
M  V30 12361 O 1227.66 -0.185454 -1.9502 0
M  V30 12362 H 1226.24 -0.730747 -0.154979 0
M  V30 12363 H 1228.9 -1.92379 0.312461 0
M  V30 12364 H 1228 -3.0323 -0.738798 0
M  V30 12365 N 1228.3 0.053464 -1.57509 0
M  V30 12366 C 1229.53 0.760429 -1.92096 0
M  V30 12367 C 1229.94 1.70703 -0.815905 0
M  V30 12368 O 1229.28 1.82398 0.218332 0
M  V30 12369 C 1229.34 1.59255 -3.22301 0
M  V30 12370 C 1229.01 0.813355 -4.49704 0
M  V30 12371 C 1230.01 0.124402 -5.19751 0
M  V30 12372 C 1227.69 0.775106 -4.96284 0
M  V30 12373 C 1229.68 -0.59237 -6.34641 0
M  V30 12374 C 1227.37 0.0545728 -6.11076 0
M  V30 12375 C 1228.37 -0.627948 -6.80107 0
M  V30 12376 O 1228.06 -1.33683 -7.92707 0
M  V30 12377 H 1227.79 0.220287 -0.639101 0
M  V30 12378 H 1230.34 0.0224505 -2.05388 0
M  V30 12379 H 1228.57 2.37376 -3.05269 0
M  V30 12380 H 1230.26 2.17987 -3.42398 0
M  V30 12381 H 1231.03 0.145141 -4.84783 0
M  V30 12382 H 1226.91 1.29583 -4.42413 0
M  V30 12383 H 1230.45 -1.12565 -6.88458 0
M  V30 12384 H 1226.35 0.0318254 -6.45492 0
M  V30 12385 H 1227.12 -1.24799 -8.0893 0
M  V30 12386 N 1229.78 1.54207 0.325255 0
M  V30 12387 C 1230.71 1.79812 1.42128 0
M  V30 12388 C 1231.72 0.68003 1.47917 0
M  V30 12389 O 1232.91 0.957107 1.50671 0
M  V30 12390 C 1230.01 1.89935 2.80674 0
M  V30 12391 C 1229.19 3.20078 2.98108 0
M  V30 12392 C 1228.25 3.20924 4.17006 0
M  V30 12393 O 1227.27 3.94571 4.10247 0
M  V30 12394 N 1228.47 2.44588 5.26457 0
M  V30 12395 H 1231.24 2.74396 1.20527 0
M  V30 12396 H 1228.8 1.53483 0.515233 0
M  V30 12397 H 1230.79 1.8793 3.58419 0
M  V30 12398 H 1229.36 1.02455 2.95333 0
M  V30 12399 H 1228.58 3.35057 2.07679 0
M  V30 12400 H 1229.87 4.06008 3.06651 0
M  V30 12401 H 1229.27 1.8434 5.34823 0
M  V30 12402 H 1227.82 2.48363 6.02627 0
M  V30 12403 N 1231.26 -0.58723 1.46251 0
M  V30 12404 C 1232.51 -1.34294 1.51028 0
M  V30 12405 C 1232.83 -1.94329 0.161623 0
M  V30 12406 O 1232.1 -1.78309 -0.811342 0
M  V30 12407 H 1230.68 -0.498607 0.556238 0
M  V30 12408 H 1233.34 -0.688074 1.8235 0
M  V30 12409 H 1232.43 -2.15197 2.26045 0
M  V30 12410 N 1232.74 -1.33881 -0.831482 0
M  V30 12411 C 1234.01 -1.16346 -1.57236 0
M  V30 12412 C 1234.39 0.267304 -2.09401 0
M  V30 12413 O 1233.74 1.26742 -1.90128 0
M  V30 12414 C 1233.95 -2.21082 -2.70044 0
M  V30 12415 C 1235.3 -2.5562 -3.39033 0
M  V30 12416 O 1236.32 -2.19806 -2.80292 0
M  V30 12417 O 1235.18 -3.17106 -4.45091 0
M  V30 12418 H 1232.28 -0.450469 -0.693546 0
M  V30 12419 H 1234.82 -1.45487 -0.873597 0
M  V30 12420 H 1233.59 -3.17155 -2.2919 0
M  V30 12421 H 1233.22 -1.9307 -3.47577 0
M  V30 12422 N 1234.21 1.05064 -1.1747 0
M  V30 12423 C 1235.46 1.77737 -0.961979 0
M  V30 12424 C 1235.78 1.88198 0.510551 0
M  V30 12425 O 1235.05 1.39968 1.37062 0
M  V30 12426 H 1233.63 0.658366 -0.352935 0
M  V30 12427 H 1236.29 1.26851 -1.47969 0
M  V30 12428 H 1235.39 2.79368 -1.39141 0
M  V30 12429 N 1235.69 0.975146 1.23809 0
M  V30 12430 C 1236.94 0.641124 1.92083 0
M  V30 12431 C 1237.27 -0.824671 1.76152 0
M  V30 12432 O 1236.52 -1.6097 1.11298 0
M  V30 12433 C 1236.82 0.971016 3.43956 0
M  V30 12434 C 1236.49 2.42616 3.80063 0
M  V30 12435 C 1235.15 2.82386 3.8963 0
M  V30 12436 C 1237.5 3.37019 3.97577 0
M  V30 12437 C 1234.83 4.15585 4.14133 0
M  V30 12438 C 1237.18 4.69855 4.23579 0
M  V30 12439 C 1235.84 5.09391 4.31366 0
M  V30 12440 H 1235.11 0.234604 0.702881 0
M  V30 12441 H 1237.76 1.22803 1.46941 0
M  V30 12442 H 1236.07 0.301965 3.90635 0
M  V30 12443 H 1237.76 0.690858 3.95004 0
M  V30 12444 H 1234.35 2.10782 3.73187 0
M  V30 12445 H 1238.54 3.07474 3.89581 0
M  V30 12446 H 1233.79 4.45831 4.18383 0
M  V30 12447 H 1237.97 5.42966 4.36074 0
M  V30 12448 H 1235.59 6.12624 4.50106 0
M  V30 12449 N 1237.17 -1.38817 0.746158 0
M  V30 12450 C 1238.59 -1.53894 0.42294 0
M  V30 12451 C 1238.79 -1.71064 -1.06486 0
M  V30 12452 O 1237.84 -1.71744 -1.85095 0
M  V30 12453 C 1239.15 -2.75029 1.2157 0
M  V30 12454 C 1240.7 -2.88873 1.20504 0
M  V30 12455 C 1241.18 -4.1296 1.9806 0
M  V30 12456 N 1242.67 -4.20022 1.95283 0
M  V30 12457 C 1243.4 -5.15011 2.52093 0
M  V30 12458 N 1242.9 -6.1572 3.17586 0
M  V30 12459 N 1244.69 -5.07308 2.42064 0
M  V30 12460 H 1236.84 -1.25921 1.71049 0
M  V30 12461 H 1239.11 -0.611148 0.724708 0
M  V30 12462 H 1238.81 -2.68722 2.26895 0
M  V30 12463 H 1238.69 -3.68009 0.827593 0
M  V30 12464 H 1241.07 -2.94667 0.159877 0
M  V30 12465 H 1241.15 -1.96925 1.63261 0
M  V30 12466 H 1240.8 -4.07929 3.02583 0
M  V30 12467 H 1240.73 -5.03974 1.52702 0
M  V30 12468 H 1243.22 -3.47892 1.4758 0
M  V30 12469 H 1243.53 -6.84682 3.58373 0
M  V30 12470 H 1241.88 -6.16075 3.21678 0
M  V30 12471 H 1245.07 -4.27569 1.90532 0
M  V30 12472 H 1245.24 -5.81158 2.86635 0
M  V30 12473 N 1238.65 -0.49465 -1.49636 0
M  V30 12474 C 1239.89 0.0505629 -2.04337 0
M  V30 12475 C 1240.25 1.34858 -1.36665 0
M  V30 12476 O 1241.45 1.97763 -1.82052 0
M  V30 12477 C 1239.72 0.206247 -3.56804 0
M  V30 12478 S 1241.28 0.706624 -4.33073 0
M  V30 12479 H 1238.1 0.00479193 -0.710984 0
M  V30 12480 H 1240.7 -0.667169 -1.83764 0
M  V30 12481 H 1239.41 -0.743862 -4.03602 0
M  V30 12482 H 1238.94 0.949406 -3.81772 0
M  V30 12483 H 1240.95 1.97672 -4.55127 0
M  V30 12484 N 1240.13 1.55939 -0.228214 0
M  V30 12485 C 1241.37 1.9877 0.402272 0
M  V30 12486 C 1241.7 1.11587 1.5894 0
M  V30 12487 O 1240.98 0.175032 1.93711 0
M  V30 12488 C 1241.26 3.50396 0.830353 0
M  V30 12489 C 1241.12 4.4835 -0.360876 0
M  V30 12490 C 1242.43 4.06602 1.68413 0
M  V30 12491 H 1239.55 0.722646 0.144746 0
M  V30 12492 H 1242.2 1.87186 -0.325784 0
M  V30 12493 H 1240.35 3.60398 1.4507 0
M  V30 12494 H 1242.02 4.5035 -0.999113 0
M  V30 12495 H 1240.26 4.21946 -1.00719 0
M  V30 12496 H 1240.93 5.51997 -0.0183074 0
M  V30 12497 H 1243.41 3.99585 1.16064 0
M  V30 12498 H 1242.28 5.12998 1.95254 0
M  V30 12499 H 1242.54 3.53897 2.64971 0
M  V30 12500 N 1241.6 -0.0451101 1.57535 0
M  V30 12501 C 1243.02 -0.59372 1.77008 0
M  V30 12502 C 1243.37 -1.76482 0.857233 0
M  V30 12503 O 1242.49 -2.16347 0.0479703 0
M  V30 12504 C 1243.09 -1.08383 3.20996 0
M  V30 12505 C 1241.65 -1.57808 3.41721 0
M  V30 12506 C 1240.79 -0.509067 2.72587 0
M  V30 12507 H 1243.74 0.181114 1.57663 0
M  V30 12508 H 1243.76 -1.95181 3.26626 0
M  V30 12509 H 1243.28 -0.231276 3.8741 0
M  V30 12510 H 1241.38 -2.45302 2.8046 0
M  V30 12511 H 1241.49 -1.63664 4.50279 0
M  V30 12512 H 1239.85 -0.960389 2.359 0
M  V30 12513 H 1240.64 0.333753 3.41674 0
M  V30 12514 N 1243.08 -1.54377 -0.317073 0
M  V30 12515 C 1244.33 -1.72551 -1.05216 0
M  V30 12516 C 1244.65 -0.5055 -1.88334 0
M  V30 12517 O 1243.92 0.480439 -1.89917 0
M  V30 12518 H 1242.5 -0.636222 -0.391447 0
M  V30 12519 H 1245.16 -1.91696 -0.35194 0
M  V30 12520 H 1244.26 -2.60791 -1.71448 0
M  V30 12521 N 1244.56 0.579466 -1.4656 0
M  V30 12522 C 1245.47 1.71609 -1.59961 0
M  V30 12523 C 1246.49 1.67162 -0.483002 0
M  V30 12524 O 1247.66 1.87012 -0.747561 0
M  V30 12525 C 1244.73 3.08114 -1.58954 0
M  V30 12526 C 1243.79 3.238 -2.81872 0
M  V30 12527 C 1243.02 4.53794 -2.80904 0
M  V30 12528 O 1243.24 5.37884 -1.89835 0
M  V30 12529 O 1242.18 4.72796 -3.72488 0
M  V30 12530 H 1246 1.6325 -2.56092 0
M  V30 12531 H 1243.59 0.746891 -1.2939 0
M  V30 12532 H 1245.47 3.8939 -1.611 0
M  V30 12533 H 1244.15 3.16903 -0.65984 0
M  V30 12534 H 1243.05 2.42006 -2.85279 0
M  V30 12535 H 1244.39 3.19904 -3.74062 0
M  V30 12536 N 1246.04 1.3432 0.824371 0
M  V30 12537 C 1247.28 1.26783 1.58284 0
M  V30 12538 C 1247.62 -0.162282 1.93521 0
M  V30 12539 O 1246.89 -1.1073 1.59903 0
M  V30 12540 C 1247.18 2.15725 2.88331 0
M  V30 12541 C 1247.03 3.67266 2.59684 0
M  V30 12542 C 1248.35 2.04141 3.8989 0
M  V30 12543 H 1245.47 0.461893 0.574303 0
M  V30 12544 H 1248.11 1.64558 0.949769 0
M  V30 12545 H 1246.26 1.83639 3.42358 0
M  V30 12546 H 1247.93 4.09711 2.11978 0
M  V30 12547 H 1246.17 3.88426 1.93151 0
M  V30 12548 H 1246.84 4.24863 3.52414 0
M  V30 12549 H 1249.32 2.3231 3.45212 0
M  V30 12550 H 1248.2 2.68601 4.7869 0
M  V30 12551 H 1248.46 1.01795 4.30221 0
M  V30 12552 N 1247.52 -1.0444 1.18026 0
M  V30 12553 C 1248.43 -2.15862 0.918747 0
M  V30 12554 C 1249.44 -1.73614 -0.115808 0
M  V30 12555 O 1250.62 -2.01294 0.0652312 0
M  V30 12556 C 1247.68 -3.43846 0.443922 0
M  V30 12557 C 1246.74 -4.00497 1.54599 0
M  V30 12558 C 1245.98 -5.22373 1.09372 0
M  V30 12559 O 1246.2 -5.70379 -0.049085 0
M  V30 12560 O 1245.13 -5.71459 1.88992 0
M  V30 12561 H 1248.96 -2.40776 1.85097 0
M  V30 12562 H 1246.55 -1.14326 0.961769 0
M  V30 12563 H 1248.43 -4.20985 0.187017 0
M  V30 12564 H 1247.1 -3.20414 -0.460051 0
M  V30 12565 H 1246.01 -3.24764 1.85686 0
M  V30 12566 H 1247.34 -4.28262 2.42595 0
M  V30 12567 N 1248.99 -0.981699 -1.2329 0
M  V30 12568 C 1249.94 -0.52269 -2.24803 0
M  V30 12569 C 1250.91 0.439116 -1.6019 0
M  V30 12570 O 1252.1 0.346372 -1.8763 0
M  V30 12571 C 1249.24 0.167477 -3.44693 0
M  V30 12572 C 1248.35 -0.834744 -4.23858 0
M  V30 12573 C 1247.48 -0.119249 -5.31066 0
M  V30 12574 C 1246.52 -1.1106 -6.0194 0
M  V30 12575 N 1245.66 -0.424167 -7.00818 0
M  V30 12576 H 1250.5 -1.39312 -2.63431 0
M  V30 12577 H 1248.04 -0.698061 -1.29482 0
M  V30 12578 H 1250 0.584442 -4.13086 0
M  V30 12579 H 1248.63 1.00177 -3.06862 0
M  V30 12580 H 1247.68 -1.37009 -3.5487 0
M  V30 12581 H 1248.99 -1.59012 -4.72776 0
M  V30 12582 H 1248.14 0.355015 -6.0566 0
M  V30 12583 H 1246.88 0.668714 -4.83094 0
M  V30 12584 H 1245.89 -1.5956 -5.26138 0
M  V30 12585 H 1247.11 -1.89924 -6.52001 0
M  V30 12586 H 1245.06 0.344564 -6.55094 0
M  V30 12587 H 1244.98 -1.11817 -7.47685 0
M  V30 12588 H 1246.24 0.0276655 -7.79495 0
M  V30 12589 N 1250.47 1.3842 -0.753509 0
M  V30 12590 C 1251.7 2.04403 -0.320449 0
M  V30 12591 C 1252.12 1.5683 1.05118 0
M  V30 12592 O 1251.47 0.741335 1.66765 0
M  V30 12593 C 1251.52 3.59954 -0.333937 0
M  V30 12594 O 1251.24 4.05782 -1.65144 0
M  V30 12595 C 1252.75 4.43156 0.112997 0
M  V30 12596 H 1249.97 0.656881 -0.136927 0
M  V30 12597 H 1252.51 1.77112 -1.02234 0
M  V30 12598 H 1250.66 3.86083 0.319215 0
M  V30 12599 H 1251.08 5.00213 -1.57757 0
M  V30 12600 H 1252.55 5.51975 0.0523995 0
M  V30 12601 H 1253.03 4.23581 1.16087 0
M  V30 12602 H 1253.64 4.22216 -0.511278 0
M  V30 12603 N 1251.95 0.502579 1.49372 0
M  V30 12604 C 1253.37 0.158641 1.5881 0
M  V30 12605 C 1253.57 -1.33688 1.50764 0
M  V30 12606 O 1252.62 -2.11295 1.38241 0
M  V30 12607 C 1253.94 0.736843 2.91532 0
M  V30 12608 C 1255.48 0.703093 3.05001 0
M  V30 12609 C 1255.96 1.25938 4.40345 0
M  V30 12610 N 1257.45 1.22015 4.46841 0
M  V30 12611 C 1258.18 1.62076 5.50017 0
M  V30 12612 N 1257.68 2.09736 6.6029 0
M  V30 12613 N 1259.47 1.53482 5.4074 0
M  V30 12614 H 1251.62 1.47487 1.52844 0
M  V30 12615 H 1253.89 0.611851 0.724115 0
M  V30 12616 H 1253.59 1.78573 3.02992 0
M  V30 12617 H 1253.47 0.198178 3.76679 0
M  V30 12618 H 1255.85 -0.336965 2.9317 0
M  V30 12619 H 1255.94 1.27892 2.21534 0
M  V30 12620 H 1255.58 2.29823 4.52928 0
M  V30 12621 H 1255.51 0.659481 5.22454 0
M  V30 12622 H 1258 0.870957 3.67726 0
M  V30 12623 H 1258.31 2.3837 7.35119 0
M  V30 12624 H 1256.66 2.13712 6.61326 0
M  V30 12625 H 1259.85 1.16065 4.53483 0
M  V30 12626 H 1260.02 1.85026 6.21023 0
M  V30 12627 N 1253.43 -1.55816 0.23648 0
M  V30 12628 C 1254.67 -2.0059 -0.39281 0
M  V30 12629 C 1255.03 -1.12092 -1.55883 0
M  V30 12630 O 1256.23 -1.46277 -2.25514 0
M  V30 12631 C 1254.5 -3.48281 -0.80219 0
M  V30 12632 S 1256.06 -4.15069 -1.42348 0
M  V30 12633 H 1252.88 -0.700093 -0.124057 0
M  V30 12634 H 1255.48 -1.92355 0.349272 0
M  V30 12635 H 1254.19 -4.10362 0.0558941 0
M  V30 12636 H 1253.72 -3.60421 -1.57671 0
M  V30 12637 H 1255.73 -4.15493 -2.71257 0
M  V30 12638 N 1254.91 0.036755 -1.57557 0
M  V30 12639 C 1255.84 1.06718 -2.0284 0
M  V30 12640 C 1256.85 1.32926 -0.939917 0
M  V30 12641 O 1258.04 1.30549 -1.21734 0
M  V30 12642 C 1255.14 2.41054 -2.38214 0
M  V30 12643 C 1254.31 2.3431 -3.69347 0
M  V30 12644 C 1253.37 3.51034 -3.91997 0
M  V30 12645 O 1252.4 3.30875 -4.63152 0
M  V30 12646 N 1253.6 4.72634 -3.37042 0
M  V30 12647 H 1256.37 0.681275 -2.91854 0
M  V30 12648 H 1253.93 0.224836 -1.60331 0
M  V30 12649 H 1255.92 3.17847 -2.5051 0
M  V30 12650 H 1254.49 2.71517 -1.5491 0
M  V30 12651 H 1253.71 1.42668 -3.67477 0
M  V30 12652 H 1255 2.2694 -4.55385 0
M  V30 12653 H 1254.39 4.91914 -2.79352 0
M  V30 12654 H 1252.95 5.46818 -3.5473 0
M  V30 12655 N 1256.39 1.54543 0.308881 0
M  V30 12656 C 1257.34 1.81332 1.38212 0
M  V30 12657 C 1258.32 0.670056 1.46284 0
M  V30 12658 O 1259.51 0.930476 1.50569 0
M  V30 12659 C 1256.64 2.05713 2.7484 0
M  V30 12660 C 1255.73 3.26202 2.71023 0
M  V30 12661 N 1256.12 4.46933 2.36822 0
M  V30 12662 C 1254.42 3.28071 3.02135 0
M  V30 12663 C 1255.12 5.28923 2.42106 0
M  V30 12664 N 1254.09 4.66455 2.79143 0
M  V30 12665 H 1257.89 2.72246 1.10722 0
M  V30 12666 H 1255.41 1.53936 0.51743 0
M  V30 12667 H 1257.41 2.23049 3.52214 0
M  V30 12668 H 1256.07 1.16062 3.03249 0
M  V30 12669 H 1257.08 4.73674 2.09413 0
M  V30 12670 H 1253.75 2.48501 3.3549 0
M  V30 12671 H 1255.14 6.35369 2.1853 0
M  V30 12672 N 1257.86 -0.571685 1.46866 0
M  V30 12673 C 1258.77 -1.70758 1.60869 0
M  V30 12674 C 1259.79 -1.66903 0.49186 0
M  V30 12675 O 1260.97 -1.86613 0.757468 0
M  V30 12676 C 1258.03 -3.07267 1.60586 0
M  V30 12677 C 1257.09 -3.22301 2.83585 0
M  V30 12678 C 1256.32 -4.52298 2.83306 0
M  V30 12679 O 1256.55 -5.36869 1.92685 0
M  V30 12680 O 1255.48 -4.70814 3.7499 0
M  V30 12681 H 1259.31 -1.6189 2.56954 0
M  V30 12682 H 1256.89 -0.740018 1.29785 0
M  V30 12683 H 1258.77 -3.8853 1.63163 0
M  V30 12684 H 1257.45 -3.16549 0.676637 0
M  V30 12685 H 1256.36 -2.4049 2.86558 0
M  V30 12686 H 1257.69 -3.17916 3.75753 0
M  V30 12687 N 1259.34 -1.34755 -0.817236 0
M  V30 12688 C 1260.76 -1.14561 -1.11121 0
M  V30 12689 C 1260.96 0.0490776 -2.0144 0
M  V30 12690 O 1260.01 0.722897 -2.41931 0
M  V30 12691 C 1261.33 -2.44356 -1.75244 0
M  V30 12692 C 1262.87 -2.50465 -1.87713 0
M  V30 12693 C 1263.35 -3.80276 -2.55253 0
M  V30 12694 N 1264.84 -3.81468 -2.62747 0
M  V30 12695 C 1265.58 -4.78634 -3.15749 0
M  V30 12696 N 1265.07 -5.86184 -3.6927 0
M  V30 12697 N 1266.86 -4.66083 -3.14203 0
M  V30 12698 H 1259.02 -2.11293 -0.2166 0
M  V30 12699 H 1261.28 -0.934629 -0.158661 0
M  V30 12700 H 1260.98 -3.31899 -1.16344 0
M  V30 12701 H 1260.86 -2.58117 -2.75055 0
M  V30 12702 H 1263.25 -1.63358 -2.45761 0
M  V30 12703 H 1263.33 -2.40627 -0.867887 0
M  V30 12704 H 1262.97 -4.67776 -1.97858 0
M  V30 12705 H 1262.9 -3.87399 -3.56693 0
M  V30 12706 H 1265.39 -3.03753 -2.24817 0
M  V30 12707 H 1265.7 -6.56332 -4.0798 0
M  V30 12708 H 1264.05 -5.8989 -3.67498 0
M  V30 12709 H 1267.24 -3.81206 -2.7166 0
M  V30 12710 H 1267.41 -5.41973 -3.55203 0
M  V30 12711 N 1260.82 1.03812 -1.18578 0
M  V30 12712 C 1261.73 2.15371 -0.930182 0
M  V30 12713 C 1262.75 1.73673 0.106599 0
M  V30 12714 O 1263.92 2.01257 -0.0759054 0
M  V30 12715 C 1260.99 3.43606 -0.462151 0
M  V30 12716 C 1260.05 3.99671 -1.5672 0
M  V30 12717 C 1259.28 5.21785 -1.12141 0
M  V30 12718 O 1259.5 5.70397 0.0188357 0
M  V30 12719 O 1258.44 5.70449 -1.9202 0
M  V30 12720 H 1262.26 2.39791 -1.86371 0
M  V30 12721 H 1259.85 1.13814 -0.967819 0
M  V30 12722 H 1261.73 4.2088 -0.20934 0
M  V30 12723 H 1260.41 3.20654 0.443052 0
M  V30 12724 H 1259.31 3.23774 -1.87406 0
M  V30 12725 H 1260.65 4.2697 -2.44862 0
M  V30 12726 N 1262.3 0.988223 1.22768 0
M  V30 12727 C 1263.25 0.505913 2.22316 0
M  V30 12728 C 1264.23 -0.423346 1.55231 0
M  V30 12729 O 1265.42 -0.250927 1.75212 0
M  V30 12730 C 1262.55 -0.182707 3.42813 0
M  V30 12731 C 1261.64 0.766582 4.17114 0
M  V30 12732 N 1262.03 1.91248 4.6825 0
M  V30 12733 C 1260.33 0.581503 4.42193 0
M  V30 12734 C 1261.03 2.50793 5.2486 0
M  V30 12735 N 1260 1.79106 5.13247 0
M  V30 12736 H 1263.81 1.37994 2.5949 0
M  V30 12737 H 1261.32 0.849888 1.38386 0
M  V30 12738 H 1263.32 -0.545595 4.13315 0
M  V30 12739 H 1261.98 -1.05292 3.07154 0
M  V30 12740 H 1262.99 2.29342 4.64352 0
M  V30 12741 H 1259.67 -0.243039 4.16792 0
M  V30 12742 H 1261.06 3.47609 5.74994 0
M  V30 12743 N 1263.78 -1.38018 0.760839 0
M  V30 12744 C 1265.02 -1.99194 0.316984 0
M  V30 12745 C 1265.34 -1.61083 -1.10958 0
M  V30 12746 O 1266.54 -2.15281 -1.65428 0
M  V30 12747 C 1265 -3.56185 0.515792 0
M  V30 12748 C 1264.61 -4.03242 1.95191 0
M  V30 12749 C 1266.35 -4.24285 0.135013 0
M  V30 12750 C 1264.26 -5.52902 2.0989 0
M  V30 12751 H 1263.19 -0.745214 0.114771 0
M  V30 12752 H 1265.84 -1.5769 0.938415 0
M  V30 12753 H 1264.22 -3.95613 -0.174934 0
M  V30 12754 H 1265.4 -3.75086 2.6767 0
M  V30 12755 H 1263.71 -3.47889 2.28827 0
M  V30 12756 H 1266.31 -5.34233 0.223495 0
M  V30 12757 H 1266.65 -4.06158 -0.913322 0
M  V30 12758 H 1267.18 -3.90121 0.777868 0
M  V30 12759 H 1263.92 -5.75942 3.13003 0
M  V30 12760 H 1263.44 -5.82778 1.41881 0
M  V30 12761 H 1265.12 -6.18709 1.89229 0
M  V30 12762 N 1265.25 -0.510493 -1.49103 0
M  V30 12763 C 1266.18 0.251999 -2.32136 0
M  V30 12764 C 1267.16 0.953613 -1.40855 0
M  V30 12765 O 1268.35 0.943178 -1.69758 0
M  V30 12766 C 1265.48 1.31118 -3.21598 0
M  V30 12767 C 1264.43 0.72888 -4.21748 0
M  V30 12768 C 1263.76 1.88928 -5.0021 0
M  V30 12769 C 1265.06 -0.286425 -5.21514 0
M  V30 12770 H 1266.75 -0.441102 -2.96133 0
M  V30 12771 H 1264.3 -0.213577 -1.42407 0
M  V30 12772 H 1266.25 1.8524 -3.78503 0
M  V30 12773 H 1264.98 2.0336 -2.55563 0
M  V30 12774 H 1263.64 0.209336 -3.66002 0
M  V30 12775 H 1263.28 2.59961 -4.30615 0
M  V30 12776 H 1262.98 1.50568 -5.67981 0
M  V30 12777 H 1264.51 2.43465 -5.59962 0
M  V30 12778 H 1265.92 0.166997 -5.73057 0
M  V30 12779 H 1264.32 -0.586361 -5.97228 0
M  V30 12780 H 1265.39 -1.19904 -4.69842 0
M  V30 12781 N 1266.73 1.55688 -0.24474 0
M  V30 12782 C 1267.98 1.98498 0.379852 0
M  V30 12783 C 1268.3 1.13416 1.58625 0
M  V30 12784 O 1267.57 0.216456 1.947 0
M  V30 12785 H 1266.15 0.73312 0.143334 0
M  V30 12786 H 1268.81 1.91858 -0.343027 0
M  V30 12787 H 1267.91 3.04367 0.690463 0
M  V30 12788 N 1268.21 -0.0283989 1.57574 0
M  V30 12789 C 1269.17 -1.01346 2.05576 0
M  V30 12790 C 1270.17 -1.28999 0.960001 0
M  V30 12791 O 1271.36 -1.23991 1.2236 0
M  V30 12792 C 1268.49 -2.34611 2.47327 0
M  V30 12793 H 1269.69 -0.598809 2.93861 0
M  V30 12794 H 1267.24 -0.27524 1.53857 0
M  V30 12795 H 1267.98 -2.80823 1.622 0
M  V30 12796 H 1267.76 -2.1587 3.27326 0
M  V30 12797 H 1269.25 -3.05332 2.84889 0
M  V30 12798 N 1269.69 -1.54705 -0.300681 0
M  V30 12799 C 1270.65 -1.84934 -1.35395 0
M  V30 12800 C 1271.65 -0.72226 -1.43666 0
M  V30 12801 O 1272.84 -0.990543 -1.43296 0
M  V30 12802 C 1269.97 -2.02991 -2.73875 0
M  V30 12803 H 1271.17 -2.79063 -1.09835 0
M  V30 12804 H 1268.72 -1.46772 -0.537365 0
M  V30 12805 H 1269.45 -1.11151 -3.04657 0
M  V30 12806 H 1269.24 -2.85027 -2.69262 0
M  V30 12807 H 1270.73 -2.27747 -3.5003 0
M  V30 12808 N 1271.17 0.563888 -1.47167 0
M  V30 12809 C 1272.41 1.31875 -1.53145 0
M  V30 12810 C 1272.74 1.94047 -0.192518 0
M  V30 12811 O 1272.01 1.79577 0.782872 0
M  V30 12812 H 1270.59 0.489694 -0.5641 0
M  V30 12813 H 1273.25 0.658976 -1.83422 0
M  V30 12814 H 1272.34 2.11574 -2.2944 0
M  V30 12815 N 1272.64 1.35187 0.810078 0
M  V30 12816 C 1273.61 1.27698 1.90331 0
M  V30 12817 C 1274.61 0.189216 1.59683 0
M  V30 12818 O 1275.8 0.442689 1.68481 0
M  V30 12819 C 1272.93 0.974631 3.26671 0
M  V30 12820 H 1274.12 2.24902 1.98392 0
M  V30 12821 H 1271.68 1.1966 1.00554 0
M  V30 12822 H 1272.41 0.0063068 3.24299 0
M  V30 12823 H 1272.2 1.76158 3.50301 0
M  V30 12824 H 1273.69 0.947743 4.06703 0
M  V30 12825 N 1274.12 -1.03182 1.19127 0
M  V30 12826 C 1275.35 -1.80165 1.01726 0
M  V30 12827 C 1275.77 -1.83742 -0.434095 0
M  V30 12828 O 1275.12 -1.27932 -1.30152 0
M  V30 12829 C 1275.17 -3.25354 1.57566 0
M  V30 12830 O 1274.89 -3.22042 2.9702 0
M  V30 12831 C 1276.4 -4.18948 1.44906 0
M  V30 12832 H 1273.62 -0.567078 0.358698 0
M  V30 12833 H 1276.16 -1.29982 1.57877 0
M  V30 12834 H 1274.31 -3.72738 1.0557 0
M  V30 12835 H 1274.73 -4.13061 3.23235 0
M  V30 12836 H 1276.2 -5.18723 1.88762 0
M  V30 12837 H 1276.68 -4.37383 0.399125 0
M  V30 12838 H 1277.29 -3.77435 1.96018 0
M  V30 12839 N 1275.6 -0.99472 -1.22242 0
M  V30 12840 C 1276.88 -0.587481 -1.86569 0
M  V30 12841 C 1277.26 0.935174 -1.89256 0
M  V30 12842 O 1276.61 1.81787 -1.3844 0
M  V30 12843 C 1276.82 -1.21001 -3.27353 0
M  V30 12844 C 1278.16 -1.31167 -4.03832 0
M  V30 12845 O 1279.19 -1.16454 -3.36626 0
M  V30 12846 O 1278.05 -1.54731 -5.24138 0
M  V30 12847 H 1275.14 -0.199838 -0.802492 0
M  V30 12848 H 1277.69 -1.09071 -1.30006 0
M  V30 12849 H 1276.46 -2.25143 -3.20041 0
M  V30 12850 H 1276.08 -0.692479 -3.91523 0
M  V30 12851 N 1277.08 1.37613 -0.768148 0
M  V30 12852 C 1278.49 1.82437 -0.396703 0
M  V30 12853 C 1278.84 1.64019 1.07668 0
M  V30 12854 O 1277.97 1.14932 1.83356 0
M  V30 12855 C 1278.56 3.31207 -0.713265 0
M  V30 12856 C 1277.12 3.74323 -0.39492 0
M  V30 12857 C 1276.27 2.60191 -0.958962 0
M  V30 12858 H 1279.22 1.26135 -0.963099 0
M  V30 12859 H 1279.24 3.805 0.00337228 0
M  V30 12860 H 1278.75 3.4458 -1.78567 0
M  V30 12861 H 1276.85 3.66521 0.670313 0
M  V30 12862 H 1276.96 4.70558 -0.900653 0
M  V30 12863 H 1275.33 2.51797 -0.383423 0
M  V30 12864 H 1276.11 2.76358 -2.03669 0
M  V30 12865 N 1278.56 0.518393 1.4883 0
M  V30 12866 C 1279.49 -0.287642 2.27388 0
M  V30 12867 C 1280.5 -0.914974 1.34655 0
M  V30 12868 O 1281.69 -0.795373 1.598 0
M  V30 12869 C 1278.79 -1.42149 3.07647 0
M  V30 12870 C 1277.96 -0.898238 4.28078 0
M  V30 12871 C 1277.02 -1.91179 4.90242 0
M  V30 12872 O 1276.05 -1.47337 5.498 0
M  V30 12873 N 1277.25 -3.24331 4.81445 0
M  V30 12874 H 1280.02 0.386047 2.97203 0
M  V30 12875 H 1277.58 0.352002 1.58027 0
M  V30 12876 H 1279.57 -2.09745 3.46106 0
M  V30 12877 H 1278.14 -1.99903 2.40328 0
M  V30 12878 H 1277.36 -0.0466326 3.94172 0
M  V30 12879 H 1278.65 -0.527338 5.0606 0
M  V30 12880 H 1278.04 -3.62627 4.34187 0
M  V30 12881 H 1276.6 -3.87593 5.24037 0
M  V30 12882 N 1280.03 -1.55556 0.252993 0
M  V30 12883 C 1281.45 -1.59276 -0.101714 0
M  V30 12884 C 1281.65 -1.27018 -1.56424 0
M  V30 12885 O 1280.71 -1.02042 -2.30963 0
M  V30 12886 C 1282.02 -2.99634 0.252969 0
M  V30 12887 C 1283.57 -3.12375 0.197767 0
M  V30 12888 C 1284.04 -4.54963 0.52657 0
M  V30 12889 N 1285.53 -4.60734 0.477296 0
M  V30 12890 C 1286.27 -5.69052 0.704793 0
M  V30 12891 N 1285.76 -6.85607 0.99574 0
M  V30 12892 N 1287.56 -5.58501 0.635086 0
M  V30 12893 H 1279.71 -1.74793 1.2067 0
M  V30 12894 H 1281.97 -0.813971 0.485958 0
M  V30 12895 H 1281.68 -3.27998 1.26926 0
M  V30 12896 H 1281.55 -3.74888 -0.416984 0
M  V30 12897 H 1283.94 -2.83788 -0.809209 0
M  V30 12898 H 1284.02 -2.39382 0.901659 0
M  V30 12899 H 1283.66 -4.84271 1.53113 0
M  V30 12900 H 1283.59 -5.26224 -0.198869 0
M  V30 12901 H 1286.08 -3.76995 0.261398 0
M  V30 12902 H 1286.4 -7.64096 1.15659 0
M  V30 12903 H 1284.74 -6.87276 1.03328 0
M  V30 12904 H 1287.93 -4.6632 0.407789 0
M  V30 12905 H 1288.11 -6.42845 0.815777 0
M  V30 12906 N 1281.51 0.0200419 -1.57587 0
M  V30 12907 C 1282.92 0.565484 -1.7793 0
M  V30 12908 C 1283.27 1.75096 -0.885201 0
M  V30 12909 O 1282.4 2.16243 -0.0823831 0
M  V30 12910 C 1282.99 1.03263 -3.2268 0
M  V30 12911 C 1281.55 1.52352 -3.44189 0
M  V30 12912 C 1280.7 0.465637 -2.73363 0
M  V30 12913 H 1283.65 -0.206174 -1.57355 0
M  V30 12914 H 1283.67 1.89959 -3.2969 0
M  V30 12915 H 1283.18 0.169613 -3.87729 0
M  V30 12916 H 1281.29 2.40809 -2.84327 0
M  V30 12917 H 1281.4 1.5648 -4.52825 0
M  V30 12918 H 1279.76 0.922738 -2.37398 0
M  V30 12919 H 1280.55 -0.388068 -3.411 0
M  V30 12920 N 1282.99 1.54862 0.292472 0
M  V30 12921 C 1284.24 1.73756 1.02429 0
M  V30 12922 C 1284.55 0.535164 1.88137 0
M  V30 12923 O 1285.76 0.606092 2.64648 0
M  V30 12924 C 1284.21 3.0745 1.8709 0
M  V30 12925 C 1283.82 4.35195 1.06343 0
M  V30 12926 C 1285.57 3.357 2.59819 0
M  V30 12927 C 1283.47 5.59936 1.9033 0
M  V30 12928 H 1282.4 0.647617 0.386145 0
M  V30 12929 H 1285.05 1.81338 0.28086 0
M  V30 12930 H 1283.44 2.93855 2.65453 0
M  V30 12931 H 1284.61 4.5965 0.325335 0
M  V30 12932 H 1282.93 4.13944 0.451574 0
M  V30 12933 H 1285.52 4.26099 3.23023 0
M  V30 12934 H 1285.87 2.54956 3.29094 0
M  V30 12935 H 1286.4 3.50304 1.88499 0
M  V30 12936 H 1283.14 6.43372 1.25509 0
M  V30 12937 H 1282.66 5.39654 2.61789 0
M  V30 12938 H 1284.34 5.97512 2.48171 0
M  V30 12939 N 1284.47 -0.556076 1.47464 0
M  V30 12940 C 1285.88 -1.1382 1.47993 0
M  V30 12941 C 1286.23 -1.94785 0.235249 0
M  V30 12942 O 1285.36 -2.06098 -0.659752 0
M  V30 12943 C 1285.95 -2.07082 2.68146 0
M  V30 12944 C 1284.51 -2.60564 2.71631 0
M  V30 12945 C 1283.66 -1.36967 2.41113 0
M  V30 12946 H 1286.61 -0.34262 1.54957 0
M  V30 12947 H 1286.63 -2.90975 2.45181 0
M  V30 12948 H 1286.14 -1.48127 3.5872 0
M  V30 12949 H 1284.24 -3.23314 1.852 0
M  V30 12950 H 1284.35 -3.0148 3.72353 0
M  V30 12951 H 1282.72 -1.67678 1.91719 0
M  V30 12952 H 1283.5 -0.79803 3.33896 0
M  V30 12953 N 1285.95 -1.35615 -0.802897 0
M  V30 12954 C 1287.36 -1.26062 -1.37715 0
M  V30 12955 C 1287.71 0.105411 -1.95917 0
M  V30 12956 O 1286.83 1.00648 -1.91569 0
M  V30 12957 C 1287.43 -2.28261 -2.50365 0
M  V30 12958 C 1285.99 -2.22437 -3.03642 0
M  V30 12959 C 1285.14 -2.1377 -1.76629 0
M  V30 12960 H 1288.09 -1.46689 -0.605631 0
M  V30 12961 H 1288.11 -1.91122 -3.29017 0
M  V30 12962 H 1287.62 -3.27671 -2.07975 0
M  V30 12963 H 1285.72 -1.2645 -3.50487 0
M  V30 12964 H 1285.83 -3.14558 -3.61373 0
M  V30 12965 H 1284.2 -1.59806 -1.98328 0
M  V30 12966 H 1284.98 -3.15046 -1.36385 0
M  V30 12967 N 1287.43 1.02549 -1.19673 0
M  V30 12968 C 1288.67 1.75656 -0.999463 0
M  V30 12969 C 1288.99 1.89238 0.470517 0
M  V30 12970 O 1288.26 1.42843 1.34062 0
M  V30 12971 H 1286.84 0.650732 -0.366821 0
M  V30 12972 H 1289.51 1.23684 -1.50627 0
M  V30 12973 H 1288.6 2.76353 -1.45035 0
M  V30 12974 N 1288.9 1.00119 1.21713 0
M  V30 12975 C 1289.83 0.578504 2.2622 0
M  V30 12976 C 1290.81 -0.398777 1.6536 0
M  V30 12977 O 1292 -0.287596 1.92059 0
M  V30 12978 C 1289.13 -0.0994508 3.47158 0
M  V30 12979 C 1288.08 0.79722 4.2051 0
M  V30 12980 C 1287.41 -0.0141125 5.34698 0
M  V30 12981 C 1288.71 2.09802 4.7831 0
M  V30 12982 H 1290.4 1.45208 2.6183 0
M  V30 12983 H 1287.95 0.699656 1.2586 0
M  V30 12984 H 1289.9 -0.406605 4.19434 0
M  V30 12985 H 1288.63 -1.00763 3.10667 0
M  V30 12986 H 1287.29 1.08814 3.50079 0
M  V30 12987 H 1286.93 -0.923468 4.9445 0
M  V30 12988 H 1286.63 0.582883 5.84702 0
M  V30 12989 H 1288.16 -0.31517 6.09786 0
M  V30 12990 H 1289.57 1.85427 5.42485 0
M  V30 12991 H 1287.97 2.64455 5.38687 0
M  V30 12992 H 1289.04 2.77132 3.97902 0
M  V30 12993 N 1290.38 -1.37203 0.775435 0
M  V30 12994 C 1291.63 -1.99601 0.341431 0
M  V30 12995 C 1291.96 -1.61555 -1.08306 0
M  V30 12996 O 1291.21 -0.855126 -1.76029 0
M  V30 12997 C 1291.51 -3.54725 0.436426 0
M  V30 12998 C 1291.18 -4.1255 1.8197 0
M  V30 12999 C 1289.84 -4.28056 2.19822 0
M  V30 13000 C 1292.19 -4.44222 2.7261 0
M  V30 13001 C 1289.52 -4.72538 3.47742 0
M  V30 13002 C 1291.87 -4.90131 3.99943 0
M  V30 13003 C 1290.53 -5.03842 4.37835 0
M  V30 13004 H 1289.8 -0.730391 0.124938 0
M  V30 13005 H 1292.45 -1.63914 0.990177 0
M  V30 13006 H 1290.76 -3.90681 -0.295852 0
M  V30 13007 H 1292.45 -4.00916 0.0818664 0
M  V30 13008 H 1289.04 -4.00911 1.51553 0
M  V30 13009 H 1293.23 -4.31824 2.44625 0
M  V30 13010 H 1288.48 -4.81341 3.76989 0
M  V30 13011 H 1292.66 -5.13604 4.70302 0
M  V30 13012 H 1290.28 -5.3807 5.37015 0
M  V30 13013 N 1291.86 -0.526279 -1.48553 0
M  V30 13014 C 1293.11 0.00918008 -2.02798 0
M  V30 13015 C 1293.44 1.34284 -1.4029 0
M  V30 13016 O 1292.71 1.86639 -0.547355 0
M  V30 13017 C 1293 0.135102 -3.59846 0
M  V30 13018 C 1292.85 -1.22347 -4.32841 0
M  V30 13019 C 1294.17 0.863673 -4.31542 0
M  V30 13020 H 1291.29 0.00186216 -0.736998 0
M  V30 13021 H 1293.93 -0.682591 -1.77315 0
M  V30 13022 H 1292.08 0.724279 -3.81689 0
M  V30 13023 H 1293.75 -1.85347 -4.22427 0
M  V30 13024 H 1291.99 -1.80631 -3.94405 0
M  V30 13025 H 1292.67 -1.08839 -5.41164 0
M  V30 13026 H 1295.14 0.363734 -4.14507 0
M  V30 13027 H 1294.02 0.92067 -5.41124 0
M  V30 13028 H 1294.28 1.91313 -3.98562 0
M  V30 13029 N 1293.34 1.5542 -0.261239 0
M  V30 13030 C 1294.75 1.85161 0.239195 0
M  V30 13031 C 1295.1 1.18319 1.56509 0
M  V30 13032 O 1294.22 0.4666 2.1131 0
M  V30 13033 C 1294.82 3.3592 0.440781 0
M  V30 13034 C 1293.38 3.65837 0.885461 0
M  V30 13035 C 1292.53 2.77285 -0.0291982 0
M  V30 13036 H 1295.48 1.51158 -0.483417 0
M  V30 13037 H 1295.5 3.58276 1.28136 0
M  V30 13038 H 1295.01 3.84541 -0.524382 0
M  V30 13039 H 1293.11 3.22705 1.86259 0
M  V30 13040 H 1293.22 4.73469 0.732394 0
M  V30 13041 H 1291.59 2.50045 0.484701 0
M  V30 13042 H 1292.37 3.28716 -0.989992 0
M  V30 13043 N 1294.82 -0.0116844 1.57596 0
M  V30 13044 C 1295.73 -1.02342 2.111 0
M  V30 13045 C 1296.74 -1.38478 1.05355 0
M  V30 13046 O 1297.92 -1.47447 1.37191 0
M  V30 13047 C 1294.98 -2.30016 2.5941 0
M  V30 13048 C 1294.04 -2.003 3.79708 0
M  V30 13049 C 1293.28 -3.21888 4.25704 0
M  V30 13050 O 1293.5 -4.33171 3.71106 0
M  V30 13051 O 1292.43 -3.0657 5.17975 0
M  V30 13052 H 1296.26 -0.598637 2.97742 0
M  V30 13053 H 1293.84 -0.229779 1.47622 0
M  V30 13054 H 1295.73 -3.05044 2.90733 0
M  V30 13055 H 1294.4 -2.71755 1.75871 0
M  V30 13056 H 1293.31 -1.22785 3.53376 0
M  V30 13057 H 1294.64 -1.63406 4.64284 0
M  V30 13058 N 1296.29 -1.55015 -0.284256 0
M  V30 13059 C 1297.53 -1.76836 -1.02511 0
M  V30 13060 C 1297.9 -0.551675 -1.83904 0
M  V30 13061 O 1299.1 -0.647919 -2.60874 0
M  V30 13062 C 1297.37 -3.0312 -1.89348 0
M  V30 13063 S 1298.93 -3.46013 -2.69852 0
M  V30 13064 H 1295.75 -0.621436 -0.345453 0
M  V30 13065 H 1298.35 -1.93235 -0.296708 0
M  V30 13066 H 1297.05 -3.89778 -1.28458 0
M  V30 13067 H 1296.58 -2.89355 -2.66528 0
M  V30 13068 H 1298.6 -3.044 -3.91861 0
M  V30 13069 N 1297.77 0.548248 -1.47757 0
M  V30 13070 C 1299.05 1.3092 -1.45325 0
M  V30 13071 C 1299.43 2.1053 -0.155008 0
M  V30 13072 O 1298.78 2.11558 0.863455 0
M  V30 13073 C 1298.99 2.20614 -2.70426 0
M  V30 13074 C 1300.33 2.81345 -3.18009 0
M  V30 13075 O 1301.36 2.30911 -2.71216 0
M  V30 13076 O 1300.22 3.73036 -3.99383 0
M  V30 13077 H 1297.31 0.58996 -0.579548 0
M  V30 13078 H 1299.86 0.56641 -1.59968 0
M  V30 13079 H 1298.63 1.61449 -3.56441 0
M  V30 13080 H 1298.25 3.02173 -2.58413 0
M  V30 13081 N 1299.25 1.36039 0.795694 0
M  V30 13082 C 1300.21 1.29709 1.88966 0
M  V30 13083 C 1301.21 0.206142 1.59473 0
M  V30 13084 O 1302.4 0.460534 1.68002 0
M  V30 13085 C 1299.53 1.00922 3.25619 0
M  V30 13086 H 1300.73 2.26993 1.95995 0
M  V30 13087 H 1298.28 1.2072 0.992791 0
M  V30 13088 H 1299.02 0.0407027 3.24274 0
M  V30 13089 H 1298.8 1.79863 3.48413 0
M  V30 13090 H 1300.29 0.990826 4.05675 0
M  V30 13091 N 1300.73 -1.01913 1.20215 0
M  V30 13092 C 1301.68 -2.08774 0.916367 0
M  V30 13093 C 1302.66 -1.60431 -0.122796 0
M  V30 13094 O 1303.85 -1.76799 0.0842336 0
M  V30 13095 C 1300.98 -3.40102 0.467517 0
M  V30 13096 C 1300.07 -3.95153 1.53997 0
M  V30 13097 N 1300.46 -4.23745 2.76178 0
M  V30 13098 C 1298.76 -4.23274 1.40554 0
M  V30 13099 C 1299.46 -4.681 3.45336 0
M  V30 13100 N 1298.44 -4.70224 2.72745 0
M  V30 13101 H 1302.24 -2.28786 1.84484 0
M  V30 13102 H 1299.75 -1.19861 1.09577 0
M  V30 13103 H 1301.75 -4.16184 0.244195 0
M  V30 13104 H 1300.41 -3.21505 -0.454358 0
M  V30 13105 H 1301.42 -4.12728 3.12852 0
M  V30 13106 H 1298.1 -4.1389 0.547877 0
M  V30 13107 H 1299.49 -4.99063 4.49873 0
M  V30 13108 N 1302.21 -1.00763 -1.2118 0
M  V30 13109 C 1303.45 -0.690459 -1.8994 0
M  V30 13110 C 1303.78 0.781464 -1.78656 0
M  V30 13111 O 1303.05 1.56135 -1.18316 0
M  V30 13112 H 1301.63 -0.252397 -0.703068 0
M  V30 13113 H 1304.29 -1.2773 -1.47211 0
M  V30 13114 H 1303.38 -0.96594 -2.96776 0
M  V30 13115 N 1303.68 1.3679 -0.7827 0
M  V30 13116 C 1304.63 2.27508 -0.149734 0
M  V30 13117 C 1305.62 1.46634 0.662368 0
M  V30 13118 O 1306.81 1.6908 0.523544 0
M  V30 13119 C 1303.94 3.35666 0.719939 0
M  V30 13120 C 1303.03 4.23981 -0.100588 0
M  V30 13121 N 1303.42 4.92513 -1.15173 0
M  V30 13122 C 1301.71 4.45834 0.121653 0
M  V30 13123 C 1302.42 5.57788 -1.65067 0
M  V30 13124 N 1301.39 5.35038 -0.96101 0
M  V30 13125 H 1305.19 2.77973 -0.954365 0
M  V30 13126 H 1302.71 1.50037 -0.62151 0
M  V30 13127 H 1304.7 3.99578 1.18926 0
M  V30 13128 H 1303.36 2.86756 1.52319 0
M  V30 13129 H 1304.38 4.94658 -1.53406 0
M  V30 13130 H 1301.05 4.07773 0.895945 0
M  V30 13131 H 1302.44 6.22534 -2.52787 0
M  V30 13132 N 1305.16 0.53415 1.48272 0
M  V30 13133 C 1306.39 0.00573642 2.06599 0
M  V30 13134 C 1306.8 -1.28303 1.3905 0
M  V30 13135 O 1306.14 -1.77499 0.473274 0
M  V30 13136 C 1306.21 -0.28451 3.58372 0
M  V30 13137 C 1305.87 0.911397 4.4782 0
M  V30 13138 C 1306.87 1.81091 4.87342 0
M  V30 13139 C 1304.55 1.11957 4.89664 0
M  V30 13140 C 1306.55 2.90246 5.67482 0
M  V30 13141 C 1304.23 2.21426 5.69573 0
M  V30 13142 C 1305.23 3.10403 6.08391 0
M  V30 13143 O 1304.92 4.17977 6.86695 0
M  V30 13144 H 1304.65 0.0322847 0.675229 0
M  V30 13145 H 1307.2 0.740415 1.91591 0
M  V30 13146 H 1305.43 -1.07321 3.71509 0
M  V30 13147 H 1307.12 -0.755508 3.98807 0
M  V30 13148 H 1307.89 1.66204 4.55633 0
M  V30 13149 H 1303.77 0.436266 4.58931 0
M  V30 13150 H 1307.31 3.59724 5.97699 0
M  V30 13151 H 1303.21 2.36295 6.00695 0
M  V30 13152 H 1303.98 4.15738 7.05056 0
M  V30 13153 N 1306.64 -1.55279 0.269478 0
M  V30 13154 C 1307.6 -2.21008 -0.607299 0
M  V30 13155 C 1308.6 -1.18619 -1.08564 0
M  V30 13156 O 1309.79 -1.4356 -0.986721 0
M  V30 13157 C 1306.93 -2.87157 -1.83721 0
M  V30 13158 H 1308.12 -2.99881 -0.0334894 0
M  V30 13159 H 1305.67 -1.56287 0.0200573 0
M  V30 13160 H 1306.41 -2.12281 -2.45168 0
M  V30 13161 H 1306.19 -3.62183 -1.5022 0
M  V30 13162 H 1307.68 -3.37391 -2.46083 0
M  V30 13163 N 1308.12 0.00332656 -1.576 0
M  V30 13164 C 1309.53 0.546581 -1.7852 0
M  V30 13165 C 1309.88 1.74147 -0.903722 0
M  V30 13166 O 1309.01 2.16144 -0.105314 0
M  V30 13167 C 1309.6 0.998344 -3.23757 0
M  V30 13168 C 1308.16 1.48693 -3.45785 0
M  V30 13169 C 1307.31 0.436617 -2.73841 0
M  V30 13170 H 1310.26 -0.222852 -1.57128 0
M  V30 13171 H 1310.28 1.86452 -3.31686 0
M  V30 13172 H 1309.79 0.128479 -3.87887 0
M  V30 13173 H 1307.89 2.3778 -2.86865 0
M  V30 13174 H 1308 1.51668 -4.5446 0
M  V30 13175 H 1306.37 0.897506 -2.38363 0
M  V30 13176 H 1307.15 -0.424225 -3.40669 0
M  V30 13177 N 1309.6 1.55164 0.276031 0
M  V30 13178 C 1310.82 1.79649 1.02635 0
M  V30 13179 C 1311.24 0.568289 1.80044 0
M  V30 13180 O 1310.6 -0.462569 1.7654 0
M  V30 13181 C 1310.65 3.01974 1.98731 0
M  V30 13182 O 1310.37 4.2005 1.24459 0
M  V30 13183 C 1311.87 3.39039 2.856 0
M  V30 13184 H 1309.09 0.598529 0.303321 0
M  V30 13185 H 1311.63 2.02171 0.307733 0
M  V30 13186 H 1309.79 2.81586 2.6606 0
M  V30 13187 H 1310.2 4.89185 1.89205 0
M  V30 13188 H 1311.68 4.27809 3.48831 0
M  V30 13189 H 1312.15 2.58306 3.55211 0
M  V30 13190 H 1312.76 3.61674 2.23767 0
M  V30 13191 N 1311.07 -0.540404 1.48045 0
M  V30 13192 C 1312.01 -1.66164 1.57867 0
M  V30 13193 C 1313.02 -1.56058 0.463655 0
M  V30 13194 O 1314.21 -1.62709 0.734038 0
M  V30 13195 C 1311.31 -3.04748 1.48263 0
M  V30 13196 C 1310.48 -3.40441 2.74625 0
M  V30 13197 C 1309.54 -4.58259 2.58621 0
M  V30 13198 O 1308.57 -4.62 3.32482 0
M  V30 13199 N 1309.77 -5.55794 1.67551 0
M  V30 13200 H 1312.53 -1.58179 2.54557 0
M  V30 13201 H 1310.09 -0.727441 1.44637 0
M  V30 13202 H 1312.09 -3.81425 1.35267 0
M  V30 13203 H 1310.66 -3.06868 0.595892 0
M  V30 13204 H 1309.88 -2.53044 3.02262 0
M  V30 13205 H 1311.16 -3.61069 3.58478 0
M  V30 13206 H 1310.56 -5.55541 1.06725 0
M  V30 13207 H 1309.12 -6.3173 1.60499 0
M  V30 13208 N 1312.55 -1.36459 -0.788468 0
M  V30 13209 C 1313.79 -1.32124 -1.55957 0
M  V30 13210 C 1314.16 0.0981565 -1.91749 0
M  V30 13211 O 1315.36 0.266067 -2.6748 0
M  V30 13212 C 1313.63 -2.219 -2.8017 0
M  V30 13213 S 1315.19 -2.35257 -3.70405 0
M  V30 13214 H 1312.01 -0.469279 -0.534133 0
M  V30 13215 H 1314.61 -1.72039 -0.928587 0
M  V30 13216 H 1313.31 -3.23976 -2.51928 0
M  V30 13217 H 1312.84 -1.83008 -3.48241 0
M  V30 13218 H 1314.86 -1.55077 -4.71344 0
M  V30 13219 N 1314.03 1.01274 -1.20754 0
M  V30 13220 C 1314.98 2.08285 -0.927426 0
M  V30 13221 C 1315.96 1.60494 0.114286 0
M  V30 13222 O 1317.16 1.76752 -0.0936086 0
M  V30 13223 C 1314.29 3.39849 -0.485546 0
M  V30 13224 C 1313.37 3.94331 -1.5609 0
M  V30 13225 N 1313.76 4.22274 -2.78421 0
M  V30 13226 C 1312.06 4.22522 -1.42797 0
M  V30 13227 C 1312.76 4.66262 -3.47813 0
M  V30 13228 N 1311.74 4.68771 -2.75235 0
M  V30 13229 H 1315.54 2.27804 -1.85695 0
M  V30 13230 H 1313.05 1.19278 -1.10211 0
M  V30 13231 H 1315.05 4.16049 -0.266263 0
M  V30 13232 H 1313.71 3.21742 0.437301 0
M  V30 13233 H 1314.72 4.11063 -3.15036 0
M  V30 13234 H 1311.4 4.13593 -0.569819 0
M  V30 13235 H 1312.79 4.9667 -4.52513 0
M  V30 13236 N 1315.51 1.01404 1.20644 0
M  V30 13237 C 1316.76 0.700523 1.89571 0
M  V30 13238 C 1317.08 -0.771978 1.79068 0
M  V30 13239 O 1316.35 -1.55506 1.19142 0
M  V30 13240 H 1314.93 0.256122 0.70172 0
M  V30 13241 H 1317.59 1.28509 1.46531 0
M  V30 13242 H 1316.69 0.981665 2.9626 0
M  V30 13243 N 1316.99 -1.36373 0.789944 0
M  V30 13244 C 1318.21 -2.04011 0.373396 0
M  V30 13245 C 1318.64 -1.59171 -1.00231 0
M  V30 13246 O 1318 -0.760431 -1.64582 0
M  V30 13247 C 1318.04 -3.5783 0.446083 0
M  V30 13248 O 1317.15 -4.08759 -0.54678 0
M  V30 13249 H 1316.49 -0.644807 0.158495 0
M  V30 13250 H 1319.02 -1.74317 1.0712 0
M  V30 13251 H 1319.03 -4.06822 0.309877 0
M  V30 13252 H 1317.7 -3.89819 1.44962 0
M  V30 13253 H 1316.28 -3.71038 -0.372192 0
M  V30 13254 N 1318.47 -0.542005 -1.47987 0
M  V30 13255 C 1319.69 -0.016717 -2.06893 0
M  V30 13256 C 1320.11 1.27015 -1.39687 0
M  V30 13257 O 1319.47 1.75845 -0.488326 0
M  V30 13258 C 1319.52 0.198437 -3.60955 0
M  V30 13259 O 1319.24 -1.03746 -4.25639 0
M  V30 13260 C 1320.74 0.762741 -4.36689 0
M  V30 13261 H 1317.96 -0.0389497 -0.669869 0
M  V30 13262 H 1320.5 -0.751082 -1.90208 0
M  V30 13263 H 1318.66 0.882884 -3.77205 0
M  V30 13264 H 1319.07 -0.82568 -5.1796 0
M  V30 13265 H 1320.55 0.862649 -5.45218 0
M  V30 13266 H 1321.02 1.77049 -4.01933 0
M  V30 13267 H 1321.63 0.114478 -4.25146 0
M  V30 13268 N 1319.94 1.55134 -0.277709 0
M  V30 13269 C 1321.19 1.99259 0.337662 0
M  V30 13270 C 1321.51 1.16755 1.56183 0
M  V30 13271 O 1320.78 0.257707 1.94198 0
M  V30 13272 H 1319.36 0.735995 0.127751 0
M  V30 13273 H 1322.02 1.91087 -0.383646 0
M  V30 13274 H 1321.12 3.05763 0.625747 0
M  V30 13275 N 1321.42 0.00503138 1.57599 0
M  V30 13276 C 1322.65 -0.688609 1.94786 0
M  V30 13277 C 1323.06 -1.67558 0.878698 0
M  V30 13278 O 1322.4 -1.83083 -0.150486 0
M  V30 13279 C 1322.46 -1.47183 3.2799 0
M  V30 13280 C 1322.13 -0.64589 4.52413 0
M  V30 13281 C 1323.13 0.0685859 5.19855 0
M  V30 13282 C 1320.81 -0.590379 4.98818 0
M  V30 13283 C 1322.8 0.827505 6.32006 0
M  V30 13284 C 1320.49 0.172262 6.10857 0
M  V30 13285 C 1321.49 0.879932 6.77308 0
M  V30 13286 O 1321.18 1.63012 7.87199 0
M  V30 13287 H 1320.91 -0.196416 0.646836 0
M  V30 13288 H 1323.46 0.0537933 2.0533 0
M  V30 13289 H 1321.69 -2.25883 3.13869 0
M  V30 13290 H 1323.38 -2.05129 3.50253 0
M  V30 13291 H 1324.15 0.0348834 4.84987 0
M  V30 13292 H 1320.03 -1.13074 4.46918 0
M  V30 13293 H 1323.57 1.3804 6.83806 0
M  V30 13294 H 1319.47 0.207767 6.45166 0
M  V30 13295 H 1320.24 1.54736 8.03741 0
M  V30 13296 N 1322.9 -1.55308 -0.267798 0
M  V30 13297 C 1324.14 -1.77913 -1.0063 0
M  V30 13298 C 1324.5 -0.571149 -1.83308 0
M  V30 13299 O 1325.7 -0.675552 -2.60173 0
M  V30 13300 C 1323.98 -3.05112 -1.86123 0
M  V30 13301 S 1325.53 -3.48856 -2.66167 0
M  V30 13302 H 1322.35 -0.625065 -0.338843 0
M  V30 13303 H 1324.95 -1.93539 -0.276196 0
M  V30 13304 H 1323.66 -3.91118 -1.24317 0
M  V30 13305 H 1323.19 -2.92165 -2.63444 0
M  V30 13306 H 1325.2 -3.0854 -3.8861 0
M  V30 13307 N 1324.38 0.532545 -1.4833 0
M  V30 13308 C 1325.62 1.28795 -1.57427 0
M  V30 13309 C 1325.98 1.90848 -0.243885 0
M  V30 13310 O 1325.27 1.76183 0.753 0
M  V30 13311 C 1325.47 2.40117 -2.64724 0
M  V30 13312 C 1325.29 1.88976 -4.08066 0
M  V30 13313 C 1324.06 1.71696 -4.75235 0
M  V30 13314 C 1326.26 1.41979 -4.94314 0
M  V30 13315 N 1324.24 1.15154 -6.03003 0
M  V30 13316 C 1325.62 0.973661 -6.12307 0
M  V30 13317 C 1327.67 1.30258 -4.80559 0
M  V30 13318 C 1326.37 0.42195 -7.18061 0
M  V30 13319 C 1328.4 0.764867 -5.86433 0
M  V30 13320 C 1327.76 0.328799 -7.03632 0
M  V30 13321 H 1323.86 0.462412 -0.630634 0
M  V30 13322 H 1326.44 0.600796 -1.85199 0
M  V30 13323 H 1324.62 3.06332 -2.38779 0
M  V30 13324 H 1326.35 3.07146 -2.63521 0
M  V30 13325 H 1323.1 1.95143 -4.31528 0
M  V30 13326 H 1323.53 0.888999 -6.71138 0
M  V30 13327 H 1328.17 1.62578 -3.90293 0
M  V30 13328 H 1325.89 0.0864233 -8.08054 0
M  V30 13329 H 1329.47 0.677391 -5.77843 0
M  V30 13330 H 1328.35 -0.0808116 -7.84158 0
M  V30 13331 N 1325.86 1.36875 0.78122 0
M  V30 13332 C 1327.1 1.32949 1.55254 0
M  V30 13333 C 1327.46 -0.0879862 1.91798 0
M  V30 13334 O 1328.66 -0.251878 2.67617 0
M  V30 13335 C 1326.93 2.23382 2.78989 0
M  V30 13336 S 1328.49 2.37218 3.69152 0
M  V30 13337 H 1325.31 0.472105 0.531637 0
M  V30 13338 H 1327.91 1.72529 0.91945 0
M  V30 13339 H 1326.61 3.25307 2.50207 0
M  V30 13340 H 1326.15 1.84852 3.47266 0
M  V30 13341 H 1328.16 1.57575 4.70515 0
M  V30 13342 N 1327.33 -1.00632 1.21289 0
M  V30 13343 C 1328.58 -1.74647 1.03084 0
M  V30 13344 C 1328.91 -1.89271 -0.43476 0
M  V30 13345 O 1328.19 -1.42607 -1.32263 0
M  V30 13346 C 1328.47 -3.15981 1.72709 0
M  V30 13347 C 1328.32 -3.09088 3.2678 0
M  V30 13348 C 1329.64 -4.14875 1.46857 0
M  V30 13349 H 1326.76 -0.633938 0.375889 0
M  V30 13350 H 1329.4 -1.17328 1.49446 0
M  V30 13351 H 1327.55 -3.64918 1.33294 0
M  V30 13352 H 1329.23 -2.67875 3.75554 0
M  V30 13353 H 1327.47 -2.46223 3.57151 0
M  V30 13354 H 1328.14 -4.09041 3.70661 0
M  V30 13355 H 1330.62 -3.74637 1.81069 0
M  V30 13356 H 1329.49 -5.1191 1.98088 0
M  V30 13357 H 1329.75 -4.40302 0.398296 0
M  V30 13358 N 1328.81 -1.02043 -1.20104 0
M  V30 13359 C 1330.09 -0.626922 -1.85281 0
M  V30 13360 C 1330.47 0.894819 -1.91197 0
M  V30 13361 O 1329.82 1.7881 -1.42265 0
M  V30 13362 C 1330.03 -1.27917 -3.24713 0
M  V30 13363 C 1331.37 -1.39704 -4.00959 0
M  V30 13364 O 1332.4 -1.23568 -3.3408 0
M  V30 13365 O 1331.26 -1.65814 -5.20738 0
M  V30 13366 H 1328.35 -0.216815 -0.798073 0
M  V30 13367 H 1330.9 -1.11804 -1.27663 0
M  V30 13368 H 1329.67 -2.3188 -3.15194 0
M  V30 13369 H 1329.29 -0.775371 -3.89966 0
M  V30 13370 N 1330.29 1.35952 -0.797165 0
M  V30 13371 C 1331.71 1.52218 -0.479765 0
M  V30 13372 C 1331.91 1.74898 1.00064 0
M  V30 13373 O 1330.96 1.78495 1.78594 0
M  V30 13374 C 1332.28 2.70328 -1.31694 0
M  V30 13375 C 1333.82 2.84202 -1.31142 0
M  V30 13376 C 1334.3 4.05325 -2.13251 0
M  V30 13377 N 1335.79 4.12485 -2.10737 0
M  V30 13378 C 1336.52 5.053 -2.71033 0
M  V30 13379 N 1336.02 6.03509 -3.40219 0
M  V30 13380 N 1337.81 4.97975 -2.60725 0
M  V30 13381 H 1329.96 1.19486 -1.75604 0
M  V30 13382 H 1332.23 0.58383 -0.746892 0
M  V30 13383 H 1331.93 2.60116 -2.36712 0
M  V30 13384 H 1331.81 3.64684 -0.963607 0
M  V30 13385 H 1334.19 2.9387 -0.269131 0
M  V30 13386 H 1334.28 1.9073 -1.70457 0
M  V30 13387 H 1333.92 3.96417 -3.17515 0
M  V30 13388 H 1333.85 4.97959 -1.71302 0
M  V30 13389 H 1336.34 3.42174 -1.6039 0
M  V30 13390 H 1336.65 6.70909 -3.83537 0
M  V30 13391 H 1335 6.03711 -3.44322 0
M  V30 13392 H 1338.19 4.20203 -2.0627 0
M  V30 13393 H 1338.36 5.70119 -3.08007 0
M  V30 13394 N 1331.77 0.549846 1.47697 0
M  V30 13395 C 1333.05 -0.0422793 1.95554 0
M  V30 13396 C 1333.43 -1.49303 1.49238 0
M  V30 13397 O 1332.77 -2.16598 0.727844 0
M  V30 13398 C 1332.98 0.0955552 3.48869 0
M  V30 13399 C 1334.33 -0.0535698 4.24566 0
M  V30 13400 O 1335.36 0.0227365 3.56193 0
M  V30 13401 O 1334.21 -0.21645 5.46071 0
M  V30 13402 H 1331.31 -0.0682465 0.824179 0
M  V30 13403 H 1333.85 0.615849 1.58131 0
M  V30 13404 H 1332.63 1.10536 3.75363 0
M  V30 13405 H 1332.25 -0.600522 3.93039 0
M  V30 13406 N 1333.25 -1.54984 0.285932 0
M  V30 13407 C 1334.49 -1.99436 -0.32709 0
M  V30 13408 C 1334.82 -1.17582 -1.55562 0
M  V30 13409 O 1334.09 -0.268002 -1.94058 0
M  V30 13410 H 1332.67 -0.736662 -0.123846 0
M  V30 13411 H 1335.33 -1.90881 0.393774 0
M  V30 13412 H 1334.42 -3.0609 -0.609523 0
M  V30 13413 N 1334.72 -0.0133892 -1.57594 0
M  V30 13414 C 1336.14 0.342848 -1.55874 0
M  V30 13415 C 1336.34 1.73928 -1.01742 0
M  V30 13416 O 1335.4 2.43798 -0.657158 0
M  V30 13417 C 1336.71 0.205831 -2.99995 0
M  V30 13418 C 1338.26 0.279774 -3.11747 0
M  V30 13419 C 1338.73 0.171729 -4.57678 0
M  V30 13420 N 1340.22 0.22921 -4.62633 0
M  V30 13421 C 1340.96 0.169153 -5.7315 0
M  V30 13422 N 1340.45 0.0589166 -6.92775 0
M  V30 13423 N 1342.25 0.221995 -5.61661 0
M  V30 13424 H 1334.4 -0.926727 -1.91117 0
M  V30 13425 H 1336.66 -0.356466 -0.878428 0
M  V30 13426 H 1336.37 -0.755482 -3.4349 0
M  V30 13427 H 1336.24 0.982476 -3.6418 0
M  V30 13428 H 1338.63 1.23154 -2.68174 0
M  V30 13429 H 1338.71 -0.526974 -2.50313 0
M  V30 13430 H 1338.35 -0.776547 -5.01928 0
M  V30 13431 H 1338.28 0.997138 -5.17073 0
M  V30 13432 H 1340.77 0.315196 -3.76583 0
M  V30 13433 H 1341.09 0.0193526 -7.72798 0
M  V30 13434 H 1339.43 0.0243543 -6.94996 0
M  V30 13435 H 1342.62 0.306406 -4.67096 0
M  V30 13436 H 1342.8 0.171727 -6.47772 0
M  V30 13437 N 1336.2 1.55448 0.259558 0
M  V30 13438 C 1337.11 1.92364 1.34289 0
M  V30 13439 C 1338.13 0.822492 1.53333 0
M  V30 13440 O 1339.3 1.12277 1.672 0
M  V30 13441 C 1336.37 2.19978 2.67975 0
M  V30 13442 C 1335.43 3.43454 2.57562 0
M  V30 13443 C 1334.66 3.69741 3.84873 0
M  V30 13444 O 1334.89 2.9831 4.86176 0
M  V30 13445 O 1333.82 4.63274 3.84267 0
M  V30 13446 H 1337.65 2.8461 1.05975 0
M  V30 13447 H 1335.23 1.42167 0.459239 0
M  V30 13448 H 1337.11 2.39104 3.46998 0
M  V30 13449 H 1335.79 1.30912 2.96047 0
M  V30 13450 H 1334.7 3.29649 1.76869 0
M  V30 13451 H 1336.03 4.32782 2.34437 0
M  V30 13452 N 1337.68 -0.524672 1.4861 0
M  V30 13453 C 1338.93 -1.28211 1.5713 0
M  V30 13454 C 1339.26 -1.92626 0.246751 0
M  V30 13455 O 1338.53 -1.79553 -0.747725 0
M  V30 13456 C 1338.82 -2.36737 2.71344 0
M  V30 13457 C 1338.67 -1.76978 4.1352 0
M  V30 13458 C 1339.99 -3.3847 2.81294 0
M  V30 13459 H 1337.11 -0.46479 0.571961 0
M  V30 13460 H 1339.75 -0.583937 1.80804 0
M  V30 13461 H 1337.9 -2.96287 2.51289 0
M  V30 13462 H 1339.57 -1.21438 4.45029 0
M  V30 13463 H 1337.82 -1.07488 4.20272 0
M  V30 13464 H 1338.49 -2.55583 4.89266 0
M  V30 13465 H 1340.96 -2.88882 2.99477 0
M  V30 13466 H 1339.84 -4.11795 3.62928 0
M  V30 13467 H 1340.1 -3.99347 1.89669 0
M  V30 13468 N 1339.16 -1.37287 -0.77395 0
M  V30 13469 C 1340.07 -1.35059 -1.91823 0
M  V30 13470 C 1341.08 -0.250489 -1.72188 0
M  V30 13471 O 1342.26 -0.485501 -1.95461 0
M  V30 13472 C 1339.33 -1.15444 -3.26915 0
M  V30 13473 C 1338.39 -2.35073 -3.5922 0
M  V30 13474 C 1337.62 -2.16384 -4.87867 0
M  V30 13475 O 1337.84 -1.14696 -5.58749 0
M  V30 13476 O 1336.78 -3.0452 -5.19183 0
M  V30 13477 H 1340.6 -2.31432 -1.96654 0
M  V30 13478 H 1338.19 -1.17994 -0.916392 0
M  V30 13479 H 1340.07 -1.06484 -4.07724 0
M  V30 13480 H 1338.74 -0.221435 -3.22942 0
M  V30 13481 H 1337.65 -2.49604 -2.78655 0
M  V30 13482 H 1338.98 -3.26933 -3.67934 0
M  V30 13483 N 1340.64 0.999871 -1.21821 0
M  V30 13484 C 1341.88 1.73497 -1.0365 0
M  V30 13485 C 1342.21 1.90194 0.430271 0
M  V30 13486 O 1341.48 1.45655 1.31002 0
M  V30 13487 H 1340.06 0.642804 -0.380541 0
M  V30 13488 H 1342.72 1.20461 -1.53216 0
M  V30 13489 H 1341.81 2.73215 -1.50864 0
M  V30 13490 N 1342.11 1.02678 1.19562 0
M  V30 13491 C 1343.34 0.741569 1.93154 0
M  V30 13492 C 1343.76 -0.699292 1.75372 0
M  V30 13493 O 1343.11 -1.47533 1.07426 0
M  V30 13494 C 1343.17 1.08064 3.4497 0
M  V30 13495 O 1342.89 2.46492 3.62179 0
M  V30 13496 C 1344.39 0.817935 4.35689 0
M  V30 13497 H 1341.61 0.271506 0.613617 0
M  V30 13498 H 1344.15 1.3707 1.51763 0
M  V30 13499 H 1342.31 0.496723 3.84202 0
M  V30 13500 H 1342.72 2.59053 4.56061 0
M  V30 13501 H 1344.19 1.10517 5.40823 0
M  V30 13502 H 1344.67 -0.247693 4.38501 0
M  V30 13503 H 1345.28 1.38449 4.02134 0
M  V30 13504 N 1343.59 -1.35528 0.804364 0
M  V30 13505 C 1345.01 -1.51962 0.487831 0
M  V30 13506 C 1345.21 -1.75426 -0.991353 0
M  V30 13507 O 1344.26 -1.7944 -1.77644 0
M  V30 13508 C 1345.58 -2.69626 1.33126 0
M  V30 13509 C 1347.13 -2.83502 1.32648 0
M  V30 13510 C 1347.6 -4.04188 2.15397 0
M  V30 13511 N 1349.09 -4.11362 2.12922 0
M  V30 13512 C 1349.83 -5.03856 2.73709 0
M  V30 13513 N 1349.32 -6.01696 3.43415 0
M  V30 13514 N 1351.12 -4.96585 2.63363 0
M  V30 13515 H 1343.27 -1.18553 1.76235 0
M  V30 13516 H 1345.53 -0.57986 0.749977 0
M  V30 13517 H 1345.24 -2.58857 2.38088 0
M  V30 13518 H 1345.11 -3.64168 0.982934 0
M  V30 13519 H 1347.5 -2.93723 0.284712 0
M  V30 13520 H 1347.58 -1.89824 1.71466 0
M  V30 13521 H 1347.22 -3.94728 3.19613 0
M  V30 13522 H 1347.15 -4.97044 1.7394 0
M  V30 13523 H 1349.64 -3.41319 1.62203 0
M  V30 13524 H 1349.96 -6.68866 3.8709 0
M  V30 13525 H 1348.3 -6.01877 3.47519 0
M  V30 13526 H 1351.49 -4.19103 2.08496 0
M  V30 13527 H 1351.66 -5.68478 3.11026 0
M  V30 13528 N 1345.07 -0.557671 -1.47404 0
M  V30 13529 C 1346.3 -0.0386599 -2.06864 0
M  V30 13530 C 1346.71 1.25527 -1.41027 0
M  V30 13531 O 1346.07 1.75318 -0.506949 0
M  V30 13532 C 1346.12 0.160141 -3.61145 0
M  V30 13533 O 1345.84 -1.08255 -4.24515 0
M  V30 13534 C 1347.34 0.716381 -4.37473 0
M  V30 13535 H 1344.56 -0.0460523 -0.669418 0
M  V30 13536 H 1347.11 -0.771214 -1.894 0
M  V30 13537 H 1345.26 0.842826 -3.78121 0
M  V30 13538 H 1345.68 -0.88057 -5.17055 0
M  V30 13539 H 1347.15 0.804773 -5.46102 0
M  V30 13540 H 1347.63 1.72776 -4.03788 0
M  V30 13541 H 1348.23 0.0693787 -4.25243 0
M  V30 13542 N 1346.55 1.54831 -0.294147 0
M  V30 13543 C 1347.97 1.59489 0.0594489 0
M  V30 13544 C 1348.17 1.31121 1.53002 0
M  V30 13545 O 1347.22 1.08129 2.28176 0
M  V30 13546 C 1348.53 2.98858 -0.332323 0
M  V30 13547 C 1350.08 3.1174 -0.280518 0
M  V30 13548 C 1350.56 4.53407 -0.64701 0
M  V30 13549 N 1352.05 4.59307 -0.599284 0
M  V30 13550 C 1352.78 5.66983 -0.85542 0
M  V30 13551 N 1352.28 6.82726 -1.17717 0
M  V30 13552 N 1354.07 5.56621 -0.78294 0
M  V30 13553 H 1346.22 1.71532 -1.25262 0
M  V30 13554 H 1348.49 0.800801 -0.507368 0
M  V30 13555 H 1348.19 3.24517 -1.35578 0
M  V30 13556 H 1348.07 3.75862 0.317443 0
M  V30 13557 H 1350.45 2.85834 0.733683 0
M  V30 13558 H 1350.53 2.36907 -0.96481 0
M  V30 13559 H 1350.18 4.80042 -1.65899 0
M  V30 13560 H 1350.11 5.26567 0.0592796 0
M  V30 13561 H 1352.6 3.76169 -0.361259 0
M  V30 13562 H 1352.91 7.60761 -1.35877 0
M  V30 13563 H 1351.26 6.84295 -1.21513 0
M  V30 13564 H 1354.45 4.65075 -0.531282 0
M  V30 13565 H 1354.62 6.40456 -0.985929 0
M  V30 13566 N 1348.03 0.0217466 1.57585 0
M  V30 13567 C 1349.44 -0.51811 1.79367 0
M  V30 13568 C 1349.79 -1.72688 0.931313 0
M  V30 13569 O 1348.91 -2.15949 0.139687 0
M  V30 13570 C 1349.51 -0.946711 3.25304 0
M  V30 13571 C 1348.07 -1.43173 3.48107 0
M  V30 13572 C 1347.22 -0.392996 2.74501 0
M  V30 13573 H 1350.17 0.247822 1.56753 0
M  V30 13574 H 1350.19 -1.81152 3.34611 0
M  V30 13575 H 1349.7 -0.0667536 3.88043 0
M  V30 13576 H 1347.8 -2.33186 2.90612 0
M  V30 13577 H 1347.91 -1.44419 4.56815 0
M  V30 13578 H 1346.28 -0.859471 2.39761 0
M  V30 13579 H 1347.06 0.478368 3.39951 0
M  V30 13580 N 1349.51 -1.55583 -0.251311 0
M  V30 13581 C 1350.75 -1.76859 -0.978031 0
M  V30 13582 C 1351.07 -0.584924 -1.86021 0
M  V30 13583 O 1350.34 0.399456 -1.91784 0
M  V30 13584 H 1348.92 -0.652252 -0.364111 0
M  V30 13585 H 1351.59 -1.93016 -0.270319 0
M  V30 13586 H 1350.68 -2.67828 -1.60233 0
M  V30 13587 N 1350.98 0.516783 -1.48886 0
M  V30 13588 C 1351.92 1.63715 -1.58974 0
M  V30 13589 C 1352.89 1.56547 -0.439513 0
M  V30 13590 O 1354.08 1.76831 -0.652924 0
M  V30 13591 C 1351.21 3.02172 -1.53002 0
M  V30 13592 C 1350.25 3.27655 -2.73029 0
M  V30 13593 S 1351.08 3.12489 -4.34869 0
M  V30 13594 C 1352.24 4.53369 -4.31517 0
M  V30 13595 H 1352.47 1.5491 -2.53752 0
M  V30 13596 H 1350.01 0.700754 -1.37582 0
M  V30 13597 H 1351.96 3.82017 -1.50243 0
M  V30 13598 H 1350.63 3.08405 -0.59539 0
M  V30 13599 H 1349.82 4.28693 -2.65026 0
M  V30 13600 H 1349.42 2.55504 -2.73119 0
M  V30 13601 H 1351.71 5.45151 -4.02264 0
M  V30 13602 H 1352.66 4.66425 -5.32779 0
M  V30 13603 H 1353.06 4.3331 -3.61804 0
M  V30 13604 N 1352.46 1.37696 0.766659 0
M  V30 13605 C 1353.69 1.3639 1.55581 0
M  V30 13606 C 1354.1 -0.0495272 1.88735 0
M  V30 13607 O 1353.46 -1.01268 1.51826 0
M  V30 13608 C 1353.51 2.20717 2.86298 0
M  V30 13609 O 1353.23 3.56552 2.54563 0
M  V30 13610 C 1354.73 2.27446 3.80504 0
M  V30 13611 H 1351.95 0.466993 0.481828 0
M  V30 13612 H 1354.5 1.81103 0.949834 0
M  V30 13613 H 1352.65 1.79499 3.43306 0
M  V30 13614 H 1353.07 4.00811 3.38306 0
M  V30 13615 H 1354.54 2.90762 4.69214 0
M  V30 13616 H 1355.02 1.28434 4.20002 0
M  V30 13617 H 1355.62 2.68998 3.29424 0
M  V30 13618 N 1353.94 -0.993397 1.22349 0
M  V30 13619 C 1355.35 -1.54739 1.04465 0
M  V30 13620 C 1355.7 -1.92243 -0.392057 0
M  V30 13621 O 1354.83 -1.74707 -1.27697 0
M  V30 13622 C 1355.42 -2.81179 1.89007 0
M  V30 13623 C 1353.98 -3.33023 1.75421 0
M  V30 13624 C 1353.13 -2.06114 1.85505 0
M  V30 13625 H 1356.08 -0.814539 1.36202 0
M  V30 13626 H 1356.1 -3.53523 1.40718 0
M  V30 13627 H 1355.61 -2.53851 2.93566 0
M  V30 13628 H 1353.71 -3.6526 0.735935 0
M  V30 13629 H 1353.83 -4.03659 2.58062 0
M  V30 13630 H 1352.19 -2.19651 1.2894 0
M  V30 13631 H 1352.97 -1.81184 2.91594 0
M  V30 13632 N 1355.42 -1.03311 -1.19015 0
M  V30 13633 C 1356.83 -0.761079 -1.70483 0
M  V30 13634 C 1357.18 0.718851 -1.82557 0
M  V30 13635 O 1356.3 1.56006 -1.4997 0
M  V30 13636 C 1356.9 -1.37492 -3.09647 0
M  V30 13637 C 1355.46 -1.15138 -3.58358 0
M  V30 13638 C 1354.61 -1.47034 -2.35109 0
M  V30 13639 H 1357.56 -1.2005 -1.03797 0
M  V30 13640 H 1357.58 -0.774115 -3.72542 0
M  V30 13641 H 1357.09 -2.45203 -3.00828 0
M  V30 13642 H 1355.19 -0.0926822 -3.72485 0
M  V30 13643 H 1355.3 -1.84307 -4.4223 0
M  V30 13644 H 1353.67 -0.889794 -2.38652 0
M  V30 13645 H 1354.45 -2.55837 -2.28916 0
M  V30 13646 N 1356.9 1.35099 -0.81154 0
M  V30 13647 C 1358.14 2.00449 -0.399935 0
M  V30 13648 C 1358.5 1.62971 1.0151 0
M  V30 13649 O 1359.7 2.21078 1.52898 0
M  V30 13650 C 1357.97 3.52608 -0.583277 0
M  V30 13651 S 1359.53 4.38012 -0.26283 0
M  V30 13652 H 1356.35 0.69464 -0.151644 0
M  V30 13653 H 1358.95 1.64599 -1.05487 0
M  V30 13654 H 1357.65 3.77372 -1.61303 0
M  V30 13655 H 1357.19 3.93304 0.0868032 0
M  V30 13656 H 1359.2 4.87451 0.927696 0
M  V30 13657 N 1358.37 0.56548 1.47106 0
M  V30 13658 C 1359.3 -0.16567 2.32912 0
M  V30 13659 C 1360.28 -0.900678 1.44298 0
M  V30 13660 O 1361.47 -0.879523 1.73142 0
M  V30 13661 C 1358.6 -1.19092 3.26243 0
M  V30 13662 C 1357.55 -0.571849 4.24163 0
M  V30 13663 C 1356.88 -1.70233 5.06878 0
M  V30 13664 C 1358.18 0.479785 5.20092 0
M  V30 13665 H 1359.87 0.550705 2.94292 0
M  V30 13666 H 1357.42 0.266284 1.41517 0
M  V30 13667 H 1359.37 -1.71064 3.85117 0
M  V30 13668 H 1358.1 -1.93734 2.62934 0
M  V30 13669 H 1356.76 -0.073353 3.66527 0
M  V30 13670 H 1356.4 -2.438 4.39967 0
M  V30 13671 H 1356.1 -1.29384 5.73178 0
M  V30 13672 H 1357.63 -2.22515 5.68612 0
M  V30 13673 H 1359.04 0.0458042 5.73282 0
M  V30 13674 H 1357.44 0.807615 5.94641 0
M  V30 13675 H 1358.51 1.37259 4.65068 0
M  V30 13676 N 1359.85 -1.54672 0.302354 0
M  V30 13677 C 1361.08 -2.05041 -0.311891 0
M  V30 13678 C 1361.5 -1.17814 -1.46634 0
M  V30 13679 O 1360.86 -0.182517 -1.80379 0
M  V30 13680 C 1360.91 -3.52831 -0.744489 0
M  V30 13681 O 1360.01 -3.68621 -1.84913 0
M  V30 13682 H 1359.35 -0.661255 -0.0603102 0
M  V30 13683 H 1361.88 -1.99711 0.444593 0
M  V30 13684 H 1361.89 -3.94708 -1.03293 0
M  V30 13685 H 1360.57 -4.1578 0.0999976 0
M  V30 13686 H 1359.15 -3.38649 -1.56113 0
M  V30 13687 N 1361.33 -0.0301034 -1.57571 0
M  V30 13688 C 1362.56 0.658488 -1.96142 0
M  V30 13689 C 1362.97 1.65606 -0.906644 0
M  V30 13690 O 1362.33 1.82159 0.111441 0
M  V30 13691 C 1362.38 1.364 -3.34779 0
M  V30 13692 O 1362.1 0.4064 -4.36211 0
M  V30 13693 C 1363.6 2.14432 -3.87987 0
M  V30 13694 H 1360.82 0.181496 -0.645988 0
M  V30 13695 H 1363.37 -0.09016 -2.04301 0
M  V30 13696 H 1361.52 2.06404 -3.27836 0
M  V30 13697 H 1361.94 0.907503 -5.16589 0
M  V30 13698 H 1363.41 2.59248 -4.87334 0
M  V30 13699 H 1363.89 2.98377 -3.22285 0
M  V30 13700 H 1364.49 1.49383 -3.98202 0
M  V30 13701 N 1362.81 1.55714 0.243056 0
M  V30 13702 C 1364.05 1.77989 0.971993 0
M  V30 13703 C 1364.39 0.596038 1.84827 0
M  V30 13704 O 1363.66 -0.40554 1.90225 0
M  V30 13705 C 1363.95 3.10178 1.82925 0
M  V30 13706 C 1363.8 4.38974 0.9809 0
M  V30 13707 C 1365.12 3.38628 2.81103 0
M  V30 13708 H 1362.24 0.64754 0.35194 0
M  V30 13709 H 1364.88 1.88449 0.242237 0
M  V30 13710 H 1363.03 3.01392 2.45143 0
M  V30 13711 H 1364.7 4.59756 0.377113 0
M  V30 13712 H 1362.94 4.3286 0.285414 0
M  V30 13713 H 1363.61 5.27858 1.61461 0
M  V30 13714 H 1366.09 3.47403 2.29021 0
M  V30 13715 H 1364.97 4.32331 3.38203 0
M  V30 13716 H 1365.23 2.5973 3.57761 0
M  V30 13717 N 1364.29 -0.50888 1.49158 0
M  V30 13718 C 1365.25 -1.59354 1.64739 0
M  V30 13719 C 1366.25 -1.52175 0.519557 0
M  V30 13720 O 1367.44 -1.55468 0.785838 0
M  V30 13721 C 1364.57 -2.99002 1.63739 0
M  V30 13722 H 1365.76 -1.46871 2.61474 0
M  V30 13723 H 1363.32 -0.732532 1.38071 0
M  V30 13724 H 1364.05 -3.1697 0.685583 0
M  V30 13725 H 1363.84 -3.05622 2.45637 0
M  V30 13726 H 1365.33 -3.77822 1.77877 0
M  V30 13727 N 1365.76 -1.381 -0.759346 0
M  V30 13728 C 1367.18 -1.30379 -1.33635 0
M  V30 13729 C 1367.53 0.0430279 -1.96153 0
M  V30 13730 O 1366.65 0.945029 -1.94675 0
M  V30 13731 C 1367.25 -2.3611 -2.42976 0
M  V30 13732 C 1365.81 -2.31985 -2.96412 0
M  V30 13733 C 1364.95 -2.19281 -1.69739 0
M  V30 13734 H 1367.9 -1.48542 -0.558656 0
M  V30 13735 H 1367.92 -2.01493 -3.22771 0
M  V30 13736 H 1367.44 -3.34122 -1.97445 0
M  V30 13737 H 1365.54 -1.37536 -3.46287 0
M  V30 13738 H 1365.65 -3.25895 -3.51183 0
M  V30 13739 H 1364.01 -1.66035 -1.93144 0
M  V30 13740 H 1364.8 -3.19225 -1.26293 0
M  V30 13741 N 1367.24 0.986894 -1.22875 0
M  V30 13742 C 1368.65 1.54182 -1.05284 0
M  V30 13743 C 1369 1.92448 0.381856 0
M  V30 13744 O 1368.13 1.75381 1.26769 0
M  V30 13745 C 1368.72 2.80173 -1.90496 0
M  V30 13746 C 1367.28 3.32088 -1.77185 0
M  V30 13747 C 1366.43 2.05128 -1.86596 0
M  V30 13748 H 1369.38 0.807304 -1.36632 0
M  V30 13749 H 1369.4 3.52772 -1.42591 0
M  V30 13750 H 1368.91 2.52291 -2.94908 0
M  V30 13751 H 1367.02 3.64864 -0.755295 0
M  V30 13752 H 1367.13 4.02285 -2.60199 0
M  V30 13753 H 1365.49 2.18964 -1.30103 0
M  V30 13754 H 1366.28 1.79635 -2.92551 0
M  V30 13755 N 1368.72 1.0394 1.18466 0
M  V30 13756 C 1369.97 0.737233 1.87744 0
M  V30 13757 C 1370.28 -0.737891 1.81148 0
M  V30 13758 O 1371.49 -1.15353 2.45776 0
M  V30 13759 C 1369.94 1.26844 3.36806 0
M  V30 13760 C 1369.55 2.7721 3.51935 0
M  V30 13761 C 1371.3 1.04274 4.11494 0
M  V30 13762 C 1369.2 3.23696 4.9495 0
M  V30 13763 H 1368.13 0.272082 0.703198 0
M  V30 13764 H 1370.78 1.25507 1.33866 0
M  V30 13765 H 1369.17 0.67847 3.90145 0
M  V30 13766 H 1370.34 3.41954 3.08875 0
M  V30 13767 H 1368.66 2.98179 2.90652 0
M  V30 13768 H 1371.25 1.3652 5.16978 0
M  V30 13769 H 1371.6 -0.0200645 4.16295 0
M  V30 13770 H 1372.13 1.59726 3.64325 0
M  V30 13771 H 1368.87 4.29351 4.95316 0
M  V30 13772 H 1368.39 2.63687 5.38729 0
M  V30 13773 H 1370.07 3.17645 5.63658 0
M  V30 13774 N 1370.2 -1.34667 0.818693 0
M  V30 13775 C 1371.15 -2.27031 0.210001 0
M  V30 13776 C 1372.13 -1.48338 -0.623258 0
M  V30 13777 O 1373.32 -1.70409 -0.478531 0
M  V30 13778 C 1370.45 -3.37457 -0.63069 0
M  V30 13779 C 1369.54 -4.23565 0.212964 0
M  V30 13780 N 1369.93 -4.89286 1.28191 0
M  V30 13781 C 1368.23 -4.46 -0.00340477 0
M  V30 13782 C 1368.93 -5.53216 1.79798 0
M  V30 13783 N 1367.91 -5.32302 1.10253 0
M  V30 13784 H 1371.71 -2.75345 1.02773 0
M  V30 13785 H 1369.22 -1.48336 0.661071 0
M  V30 13786 H 1371.22 -4.0259 -1.0829 0
M  V30 13787 H 1369.88 -2.90694 -1.44663 0
M  V30 13788 H 1370.89 -4.90417 1.66467 0
M  V30 13789 H 1367.57 -4.10005 -0.787516 0
M  V30 13790 H 1368.96 -6.15613 2.69203 0
M  V30 13791 N 1371.68 -0.573274 -1.46804 0
M  V30 13792 C 1372.61 0.20305 -2.28299 0
M  V30 13793 C 1373.62 0.864367 -1.37958 0
M  V30 13794 O 1374.81 0.735516 -1.62642 0
M  V30 13795 C 1371.91 1.30633 -3.12711 0
M  V30 13796 C 1371.08 0.738741 -4.31116 0
M  V30 13797 C 1370.14 1.72853 -4.96999 0
M  V30 13798 O 1369.17 1.2683 -5.5489 0
M  V30 13799 N 1370.37 3.06239 -4.93151 0
M  V30 13800 H 1373.14 -0.496086 -2.95566 0
M  V30 13801 H 1370.7 -0.410411 -1.56612 0
M  V30 13802 H 1372.69 1.96755 -3.53652 0
M  V30 13803 H 1371.26 1.90846 -2.47581 0
M  V30 13804 H 1370.48 -0.0996941 -3.94074 0
M  V30 13805 H 1371.77 0.339154 -5.07668 0
M  V30 13806 H 1371.16 3.46262 -4.47347 0
M  V30 13807 H 1369.72 3.67876 -5.38062 0
M  V30 13808 N 1373.15 1.5451 -0.310553 0
M  V30 13809 C 1374.4 1.99931 0.29532 0
M  V30 13810 C 1374.72 1.20042 1.53672 0
M  V30 13811 O 1373.99 0.298841 1.93607 0
M  V30 13812 H 1372.57 0.738539 0.112111 0
M  V30 13813 H 1375.24 1.9023 -0.424092 0
M  V30 13814 H 1374.33 3.07021 0.560749 0
M  V30 13815 N 1374.63 0.0384594 1.57553 0
M  V30 13816 C 1376.04 -0.499057 1.79906 0
M  V30 13817 C 1376.4 -1.7169 0.949577 0
M  V30 13818 O 1375.52 -2.15788 0.162584 0
M  V30 13819 C 1376.12 -0.912155 3.2629 0
M  V30 13820 C 1374.67 -1.39473 3.49606 0
M  V30 13821 C 1373.82 -0.363859 2.74902 0
M  V30 13822 H 1376.77 0.264433 1.56481 0
M  V30 13823 H 1376.79 -1.77592 3.36513 0
M  V30 13824 H 1376.31 -0.0255928 3.88092 0
M  V30 13825 H 1374.41 -2.3009 2.93068 0
M  V30 13826 H 1374.52 -1.39566 4.58321 0
M  V30 13827 H 1372.88 -0.833993 2.40659 0
M  V30 13828 H 1373.67 0.514398 3.39424 0
M  V30 13829 N 1376.11 -1.55841 -0.234795 0
M  V30 13830 C 1377.07 -1.9051 -1.2743 0
M  V30 13831 C 1378.07 -0.782543 -1.40474 0
M  V30 13832 O 1379.26 -1.05043 -1.38966 0
M  V30 13833 C 1376.4 -2.14424 -2.65019 0
M  V30 13834 H 1377.59 -2.83471 -0.979003 0
M  V30 13835 H 1375.14 -1.48919 -0.47463 0
M  V30 13836 H 1375.88 -1.23972 -2.99669 0
M  V30 13837 H 1375.66 -2.96191 -2.56931 0
M  V30 13838 H 1377.15 -2.42388 -3.40056 0
M  V30 13839 N 1377.59 0.500963 -1.49426 0
M  V30 13840 C 1378.84 1.25694 -1.5915 0
M  V30 13841 C 1379.17 1.92209 -0.277365 0
M  V30 13842 O 1378.44 1.8072 0.719065 0
M  V30 13843 C 1378.73 2.32391 -2.75076 0
M  V30 13844 C 1378.58 1.70377 -4.16283 0
M  V30 13845 C 1379.9 3.33952 -2.86643 0
M  V30 13846 H 1377.02 0.455631 -0.579283 0
M  V30 13847 H 1379.66 0.555099 -1.8171 0
M  V30 13848 H 1377.81 2.92252 -2.55971 0
M  V30 13849 H 1379.48 1.14343 -4.46904 0
M  V30 13850 H 1377.72 1.00789 -4.21929 0
M  V30 13851 H 1378.4 2.47767 -4.9327 0
M  V30 13852 H 1380.87 2.84081 -3.04035 0
M  V30 13853 H 1379.75 4.05969 -3.69433 0
M  V30 13854 H 1380.01 3.96279 -1.95998 0
M  V30 13855 N 1379.07 1.38501 0.752011 0
M  V30 13856 C 1380.48 1.31086 1.32941 0
M  V30 13857 C 1380.83 -0.0326248 1.96173 0
M  V30 13858 O 1379.95 -0.934692 1.95173 0
M  V30 13859 C 1380.55 2.37395 2.41721 0
M  V30 13860 C 1379.11 2.33553 2.95177 0
M  V30 13861 C 1378.26 2.20178 1.68573 0
M  V30 13862 H 1381.21 1.48836 0.550771 0
M  V30 13863 H 1381.23 2.03202 3.21697 0
M  V30 13864 H 1380.74 3.35164 1.9567 0
M  V30 13865 H 1378.84 1.39371 3.45553 0
M  V30 13866 H 1378.95 3.27753 3.49449 0
M  V30 13867 H 1377.32 1.67057 1.9226 0
M  V30 13868 H 1378.1 3.19891 1.24599 0
M  V30 13869 N 1380.55 -0.980364 1.23396 0
M  V30 13870 C 1381.77 -1.75689 1.09275 0
M  V30 13871 C 1382.19 -1.85418 -0.355773 0
M  V30 13872 O 1381.55 -1.33337 -1.24609 0
M  V30 13873 C 1381.6 -3.18378 1.71223 0
M  V30 13874 O 1381.32 -3.09154 3.10411 0
M  V30 13875 C 1382.82 -4.12425 1.62545 0
M  V30 13876 H 1380.04 -0.551354 0.382427 0
M  V30 13877 H 1382.58 -1.23169 1.63247 0
M  V30 13878 H 1380.74 -3.67925 1.21285 0
M  V30 13879 H 1381.15 -3.9898 3.40464 0
M  V30 13880 H 1382.63 -5.1025 2.10592 0
M  V30 13881 H 1383.1 -4.35296 0.584275 0
M  V30 13882 H 1383.71 -3.68782 2.1185 0
M  V30 13883 N 1382.02 -1.04567 -1.17913 0
M  V30 13884 C 1382.99 -0.645476 -2.19923 0
M  V30 13885 C 1383.99 0.299763 -1.57981 0
M  V30 13886 O 1385.18 0.0844825 -1.73995 0
M  V30 13887 C 1382.31 0.0528935 -3.40859 0
M  V30 13888 H 1383.5 -1.54828 -2.56843 0
M  V30 13889 H 1381.05 -0.838812 -1.31885 0
M  V30 13890 H 1381.79 0.969261 -3.09477 0
M  V30 13891 H 1381.57 -0.626558 -3.87062 0
M  V30 13892 H 1383.06 0.319221 -4.16378 0
M  V30 13893 N 1383.5 1.34231 -0.825823 0
M  V30 13894 C 1384.75 1.9849 -0.415891 0
M  V30 13895 C 1385.08 1.6531 1.01913 0
M  V30 13896 O 1384.36 0.926223 1.7103 0
M  V30 13897 C 1384.64 3.54691 -0.621785 0
M  V30 13898 C 1384.49 3.97603 -2.10313 0
M  V30 13899 C 1385.81 4.4006 -0.0595871 0
M  V30 13900 H 1382.93 0.721032 -0.152582 0
M  V30 13901 H 1385.57 1.5908 -1.03892 0
M  V30 13902 H 1383.72 3.88392 -0.0914439 0
M  V30 13903 H 1385.39 3.74221 -2.69733 0
M  V30 13904 H 1383.64 3.47809 -2.59251 0
M  V30 13905 H 1384.31 5.06352 -2.19799 0
M  V30 13906 H 1386.78 4.12929 -0.512743 0
M  V30 13907 H 1385.66 5.48403 -0.233431 0
M  V30 13908 H 1385.92 4.29798 1.03568 0
M  V30 13909 N 1384.98 0.581051 1.46498 0
M  V30 13910 C 1386.23 0.0637189 2.01599 0
M  V30 13911 C 1386.54 -1.30353 1.45834 0
M  V30 13912 O 1387.75 -1.91211 1.92745 0
M  V30 13913 C 1386.2 0.0633254 3.59844 0
M  V30 13914 C 1385.81 1.42879 4.24605 0
M  V30 13915 C 1387.56 -0.400149 4.2261 0
M  V30 13916 C 1385.46 1.38621 5.74924 0
M  V30 13917 H 1384.39 0.0200512 0.753733 0
M  V30 13918 H 1387.04 0.732451 1.68248 0
M  V30 13919 H 1385.43 -0.671538 3.90264 0
M  V30 13920 H 1386.6 2.18325 4.05796 0
M  V30 13921 H 1384.91 1.83215 3.73927 0
M  V30 13922 H 1387.51 -0.450771 5.32797 0
M  V30 13923 H 1387.85 -1.41733 3.9143 0
M  V30 13924 H 1388.39 0.280598 3.96809 0
M  V30 13925 H 1385.13 2.38014 6.10761 0
M  V30 13926 H 1384.65 0.673926 5.96002 0
M  V30 13927 H 1386.33 1.09841 6.37608 0
M  V30 13928 N 1386.46 -1.54343 0.318742 0
M  V30 13929 C 1387.87 -1.85922 -0.170309 0
M  V30 13930 C 1388.22 -1.24047 -1.52009 0
M  V30 13931 O 1387.34 -0.544705 -2.09432 0
M  V30 13932 C 1387.94 -3.37325 -0.315802 0
M  V30 13933 C 1386.5 -3.68871 -0.749073 0
M  V30 13934 C 1385.65 -2.76985 0.13209 0
M  V30 13935 H 1388.6 -1.4926 0.539185 0
M  V30 13936 H 1388.62 -3.62784 -1.14751 0
M  V30 13937 H 1388.13 -3.8233 0.66674 0
M  V30 13938 H 1386.23 -3.29396 -1.74153 0
M  V30 13939 H 1386.34 -4.75861 -0.556164 0
M  V30 13940 H 1384.71 -2.51672 -0.391564 0
M  V30 13941 H 1385.49 -3.24815 1.11131 0
M  V30 13942 N 1387.94 -0.0468143 -1.5753 0
M  V30 13943 C 1388.87 0.927092 -2.14306 0
M  V30 13944 C 1389.85 1.32745 -1.06362 0
M  V30 13945 O 1391.03 1.40293 -1.34281 0
M  V30 13946 C 1388.16 2.20343 -2.68452 0
M  V30 13947 C 1387.12 1.94328 -3.81341 0
M  V30 13948 C 1386.44 3.28379 -4.21985 0
M  V30 13949 C 1387.74 1.26835 -5.06666 0
M  V30 13950 H 1389.44 0.454199 -2.95935 0
M  V30 13951 H 1386.98 0.217029 -1.42355 0
M  V30 13952 H 1388.93 2.8887 -3.0681 0
M  V30 13953 H 1387.66 2.6983 -1.84009 0
M  V30 13954 H 1386.32 1.28214 -3.43448 0
M  V30 13955 H 1385.97 3.75658 -3.34499 0
M  V30 13956 H 1385.67 3.11772 -4.98068 0
M  V30 13957 H 1387.19 3.98145 -4.6294 0
M  V30 13958 H 1388.6 1.85389 -5.42498 0
M  V30 13959 H 1387 1.20569 -5.87863 0
M  V30 13960 H 1388.07 0.243759 -4.84287 0
M  V30 13961 N 1389.41 1.55964 0.226527 0
M  V30 13962 C 1390.83 1.68978 0.793936 0
M  V30 13963 C 1391.18 0.647938 1.85192 0
M  V30 13964 O 1390.3 -0.201907 2.15456 0
M  V30 13965 C 1390.9 3.06351 1.44687 0
M  V30 13966 C 1389.46 3.21237 1.96173 0
M  V30 13967 C 1388.6 2.64896 0.8201 0
M  V30 13968 H 1391.55 1.587 0.00195967 0
M  V30 13969 H 1391.57 3.01932 2.31554 0
M  V30 13970 H 1391.09 3.82156 0.676611 0
M  V30 13971 H 1389.19 2.50292 2.76016 0
M  V30 13972 H 1389.3 4.28394 2.14512 0
M  V30 13973 H 1387.66 2.23247 1.22609 0
M  V30 13974 H 1388.45 3.43243 0.0625967 0
M  V30 13975 N 1390.89 -0.493031 1.4969 0
M  V30 13976 C 1392.3 -1.0744 1.52688 0
M  V30 13977 C 1392.65 -1.93612 0.317652 0
M  V30 13978 O 1391.78 -2.0871 -0.571745 0
M  V30 13979 C 1392.37 -1.95523 2.76688 0
M  V30 13980 C 1390.93 -2.48808 2.82438 0
M  V30 13981 C 1390.08 -1.26617 2.46705 0
M  V30 13982 H 1393.03 -0.276589 1.56271 0
M  V30 13983 H 1393.05 -2.80315 2.57301 0
M  V30 13984 H 1392.56 -1.32779 3.6468 0
M  V30 13985 H 1390.67 -3.15168 1.98746 0
M  V30 13986 H 1390.78 -2.85416 3.84805 0
M  V30 13987 H 1389.14 -1.59396 1.98658 0
M  V30 13988 H 1389.93 -0.655695 3.3698 0
M  V30 13989 N 1392.37 -1.38898 -0.744656 0
M  V30 13990 C 1393.62 -1.35327 -1.50104 0
M  V30 13991 C 1393.94 0.0532788 -1.94927 0
M  V30 13992 O 1393.21 1.0027 -1.68294 0
M  V30 13993 H 1391.79 -0.49797 -0.556808 0
M  V30 13994 H 1394.45 -1.73667 -0.884625 0
M  V30 13995 H 1393.55 -2.00983 -2.38773 0
M  V30 13996 N 1393.85 0.973806 -1.23914 0
M  V30 13997 C 1395.08 1.75107 -1.10206 0
M  V30 13998 C 1395.49 1.85604 0.345935 0
M  V30 13999 O 1394.85 1.33996 1.239 0
M  V30 14000 C 1394.9 3.17466 -1.72909 0
M  V30 14001 O 1394.62 3.07504 -3.12047 0
M  V30 14002 C 1396.12 4.11557 -1.6473 0
M  V30 14003 H 1393.34 0.549318 -0.385345 0
M  V30 14004 H 1395.89 1.22301 -1.63898 0
M  V30 14005 H 1394.04 3.67277 -1.23234 0
M  V30 14006 H 1394.45 3.97169 -3.42575 0
M  V30 14007 H 1395.93 5.09126 -2.13295 0
M  V30 14008 H 1396.41 4.3498 -0.607352 0
M  V30 14009 H 1397.01 3.67653 -2.13802 0
M  V30 14010 N 1395.33 1.05191 1.17357 0
M  V30 14011 C 1396.28 0.623047 2.19322 0
M  V30 14012 C 1397.26 -0.340467 1.57257 0
M  V30 14013 O 1398.45 -0.157698 1.76296 0
M  V30 14014 C 1395.58 -0.000731889 3.433 0
M  V30 14015 C 1394.67 0.986608 4.12464 0
M  V30 14016 N 1395.06 2.158 4.57454 0
M  V30 14017 C 1393.36 0.815082 4.38489 0
M  V30 14018 C 1394.06 2.78262 5.10828 0
M  V30 14019 N 1393.03 2.0606 5.03031 0
M  V30 14020 H 1396.84 1.51555 2.5181 0
M  V30 14021 H 1394.35 0.922048 1.33686 0
M  V30 14022 H 1396.35 -0.325738 4.15625 0
M  V30 14023 H 1395.01 -0.888627 3.12304 0
M  V30 14024 H 1396.02 2.53634 4.51542 0
M  V30 14025 H 1392.69 -0.021765 4.17494 0
M  V30 14026 H 1394.08 3.77599 5.55759 0
M  V30 14027 N 1396.8 -1.33791 0.83293 0
M  V30 14028 C 1397.73 -2.31853 0.276846 0
M  V30 14029 C 1398.72 -1.58702 -0.612184 0
M  V30 14030 O 1399.9 -1.86629 -0.536975 0
M  V30 14031 C 1397.03 -3.42855 -0.55385 0
M  V30 14032 C 1395.98 -4.27333 0.238884 0
M  V30 14033 C 1395.31 -5.29895 -0.715187 0
M  V30 14034 C 1396.61 -5.01692 1.45265 0
M  V30 14035 H 1398.3 -2.78611 1.09618 0
M  V30 14036 H 1395.85 -1.33949 0.528562 0
M  V30 14037 H 1397.8 -4.10479 -0.953133 0
M  V30 14038 H 1396.53 -2.94771 -1.40634 0
M  V30 14039 H 1395.19 -3.61325 0.619656 0
M  V30 14040 H 1394.83 -4.7807 -1.56391 0
M  V30 14041 H 1394.53 -5.87296 -0.188921 0
M  V30 14042 H 1396.06 -6.00387 -1.11211 0
M  V30 14043 H 1397.47 -5.62117 1.12685 0
M  V30 14044 H 1395.87 -5.68715 1.91528 0
M  V30 14045 H 1396.94 -4.30809 2.22558 0
M  V30 14046 N 1398.28 -0.588812 -1.46187 0
M  V30 14047 C 1399.21 0.128595 -2.33146 0
M  V30 14048 C 1400.19 0.877608 -1.45712 0
M  V30 14049 O 1401.38 0.851866 -1.74519 0
M  V30 14050 C 1398.51 1.13886 -3.28096 0
M  V30 14051 C 1397.46 0.504296 -4.25019 0
M  V30 14052 C 1396.79 1.62147 -5.09522 0
M  V30 14053 C 1398.09 -0.562466 -5.19263 0
M  V30 14054 H 1399.78 -0.597455 -2.93378 0
M  V30 14055 H 1397.33 -0.288764 -1.41075 0
M  V30 14056 H 1399.28 1.64916 -3.8779 0
M  V30 14057 H 1398.01 1.89527 -2.65983 0
M  V30 14058 H 1396.66 0.0150325 -3.66597 0
M  V30 14059 H 1396.31 2.36769 -4.4379 0
M  V30 14060 H 1396.01 1.20249 -5.75164 0
M  V30 14061 H 1397.54 2.13441 -5.7208 0
M  V30 14062 H 1398.95 -0.137003 -5.73136 0
M  V30 14063 H 1397.35 -0.902115 -5.93281 0
M  V30 14064 H 1398.42 -1.4464 -4.62825 0
M  V30 14065 N 1399.76 1.54172 -0.326923 0
M  V30 14066 C 1401.01 2.00629 0.274641 0
M  V30 14067 C 1401.34 1.21505 1.51878 0
M  V30 14068 O 1400.59 0.286164 1.93596 0
M  V30 14069 C 1400.89 3.51429 0.650553 0
M  V30 14070 C 1400.56 4.48177 -0.494792 0
M  V30 14071 C 1399.22 4.74348 -0.809153 0
M  V30 14072 C 1401.57 5.05641 -1.26398 0
M  V30 14073 C 1398.9 5.55241 -1.89536 0
M  V30 14074 C 1401.25 5.87718 -2.34031 0
M  V30 14075 C 1399.91 6.1219 -2.66045 0
M  V30 14076 H 1399.18 0.734153 0.100498 0
M  V30 14077 H 1401.83 1.86104 -0.451397 0
M  V30 14078 H 1400.14 3.63699 1.45706 0
M  V30 14079 H 1401.83 3.84819 1.12761 0
M  V30 14080 H 1398.42 4.27929 -0.239701 0
M  V30 14081 H 1402.61 4.85401 -1.03437 0
M  V30 14082 H 1397.86 5.72432 -2.14783 0
M  V30 14083 H 1402.04 6.31264 -2.94074 0
M  V30 14084 H 1399.66 6.7466 -3.5034 0
M  V30 14085 N 1401.24 0.0551678 1.57503 0
M  V30 14086 C 1402.2 -0.903065 2.10659 0
M  V30 14087 C 1403.2 -1.23728 1.02703 0
M  V30 14088 O 1404.39 -1.17331 1.2876 0
M  V30 14089 C 1401.52 -2.21171 2.59415 0
M  V30 14090 H 1402.72 -0.442197 2.96622 0
M  V30 14091 H 1400.27 -0.193297 1.551 0
M  V30 14092 H 1401 -2.71831 1.76858 0
M  V30 14093 H 1400.79 -1.98216 3.38309 0
M  V30 14094 H 1402.28 -2.89802 3.00674 0
M  V30 14095 N 1402.72 -1.56081 -0.218252 0
M  V30 14096 C 1403.65 -1.89176 -1.29403 0
M  V30 14097 C 1404.66 -0.780312 -1.42881 0
M  V30 14098 O 1405.85 -1.05863 -1.4372 0
M  V30 14099 C 1402.95 -2.08818 -2.66923 0
M  V30 14100 C 1402.12 -3.39854 -2.75351 0
M  V30 14101 C 1401.18 -3.48889 -3.93908 0
M  V30 14102 O 1400.21 -4.21894 -3.82091 0
M  V30 14103 N 1401.41 -2.80273 -5.08357 0
M  V30 14104 H 1404.18 -2.82047 -1.01338 0
M  V30 14105 H 1401.74 -1.56667 -0.408278 0
M  V30 14106 H 1403.73 -2.12175 -3.44622 0
M  V30 14107 H 1402.3 -1.22557 -2.87574 0
M  V30 14108 H 1401.52 -3.48568 -1.84104 0
M  V30 14109 H 1402.81 -4.26168 -2.77954 0
M  V30 14110 H 1402.2 -2.20744 -5.20854 0
M  V30 14111 H 1400.76 -2.89286 -5.84086 0
M  V30 14112 N 1404.2 0.485086 -1.49949 0
M  V30 14113 C 1405.42 1.26179 -1.63971 0
M  V30 14114 C 1405.84 1.86113 -0.317408 0
M  V30 14115 O 1405.2 1.68581 0.699038 0
M  V30 14116 C 1405.25 2.38062 -2.72046 0
M  V30 14117 O 1404.97 1.80588 -3.99149 0
M  V30 14118 C 1406.47 3.29174 -2.96916 0
M  V30 14119 H 1403.69 0.382122 -0.551565 0
M  V30 14120 H 1406.23 0.580607 -1.96085 0
M  V30 14121 H 1404.39 3.0198 -2.42666 0
M  V30 14122 H 1404.8 2.54159 -4.58807 0
M  V30 14123 H 1406.28 4.03922 -3.76233 0
M  V30 14124 H 1406.75 3.87123 -2.07443 0
M  V30 14125 H 1407.36 2.71006 -3.27774 0
M  V30 14126 N 1405.67 1.39291 0.737279 0
M  V30 14127 C 1406.92 1.36121 1.49384 0
M  V30 14128 C 1407.24 -0.0429406 1.94953 0
M  V30 14129 O 1406.51 -0.993756 1.68823 0
M  V30 14130 H 1405.09 0.500916 0.554159 0
M  V30 14131 H 1407.75 1.74134 0.875402 0
M  V30 14132 H 1406.85 2.02246 2.37704 0
M  V30 14133 N 1407.15 -0.967221 1.24429 0
M  V30 14134 C 1408.1 -2.06187 1.03709 0
M  V30 14135 C 1409.07 -1.66025 -0.0497665 0
M  V30 14136 O 1410.25 -1.90511 0.104951 0
M  V30 14137 C 1407.39 -3.38952 0.648477 0
M  V30 14138 C 1406.51 -3.92306 1.80886 0
M  V30 14139 C 1405.64 -5.13342 1.36579 0
M  V30 14140 C 1404.68 -5.58893 2.49609 0
M  V30 14141 N 1403.82 -6.71148 2.06165 0
M  V30 14142 H 1408.66 -2.23244 1.97399 0
M  V30 14143 H 1406.19 -1.09415 0.983192 0
M  V30 14144 H 1408.15 -4.15237 0.40419 0
M  V30 14145 H 1406.78 -3.21819 -0.25142 0
M  V30 14146 H 1405.83 -3.12656 2.1668 0
M  V30 14147 H 1407.15 -4.22071 2.65815 0
M  V30 14148 H 1406.3 -5.97003 1.0804 0
M  V30 14149 H 1405.04 -4.85262 0.487051 0
M  V30 14150 H 1404.04 -4.73805 2.78906 0
M  V30 14151 H 1405.27 -5.88987 3.3804 0
M  V30 14152 H 1403.22 -6.44802 1.20691 0
M  V30 14153 H 1403.13 -7.00366 2.84647 0
M  V30 14154 H 1404.4 -7.5825 1.80769 0
M  V30 14155 N 1408.63 -1.05812 -1.16797 0
M  V30 14156 C 1409.88 -0.767008 -1.86547 0
M  V30 14157 C 1410.19 0.708979 -1.82299 0
M  V30 14158 O 1411.4 1.11428 -2.4758 0
M  V30 14159 C 1409.85 -1.32186 -3.34746 0
M  V30 14160 C 1409.46 -2.82774 -3.4748 0
M  V30 14161 C 1411.21 -1.10808 -4.09783 0
M  V30 14162 C 1409.11 -3.31529 -4.89737 0
M  V30 14163 H 1408.04 -0.283235 -0.698781 0
M  V30 14164 H 1410.69 -1.27621 -1.31853 0
M  V30 14165 H 1409.08 -0.740453 -3.89016 0
M  V30 14166 H 1410.25 -3.46825 -3.03396 0
M  V30 14167 H 1408.56 -3.02765 -2.85871 0
M  V30 14168 H 1411.16 -1.44728 -5.14741 0
M  V30 14169 H 1411.5 -0.046167 -4.16274 0
M  V30 14170 H 1412.04 -1.65502 -3.61737 0
M  V30 14171 H 1408.78 -4.37177 -4.88422 0
M  V30 14172 H 1408.3 -2.72224 -5.34466 0
M  V30 14173 H 1409.98 -3.26572 -5.58534 0
M  V30 14174 N 1410.11 1.33347 -0.840014 0
M  V30 14175 C 1411.02 2.32965 -0.276527 0
M  V30 14176 C 1412.03 1.634 0.598037 0
M  V30 14177 O 1413.21 1.95046 0.501888 0
M  V30 14178 C 1410.27 3.42498 0.53816 0
M  V30 14179 C 1409.34 4.27781 -0.360814 0
M  V30 14180 C 1408.57 5.32083 0.415085 0
M  V30 14181 O 1408.79 5.46115 1.64666 0
M  V30 14182 O 1407.73 6.01528 -0.211503 0
M  V30 14183 H 1411.55 2.83022 -1.10147 0
M  V30 14184 H 1409.14 1.3671 -0.602566 0
M  V30 14185 H 1411.02 4.09336 1.00108 0
M  V30 14186 H 1409.69 2.94655 1.34015 0
M  V30 14187 H 1408.6 3.63805 -0.871598 0
M  V30 14188 H 1409.93 4.7911 -1.1276 0
M  V30 14189 N 1411.59 0.596556 1.45873 0
M  V30 14190 C 1413 0.259317 1.57479 0
M  V30 14191 C 1413.2 -1.23829 1.58961 0
M  V30 14192 O 1412.26 -2.02076 1.51399 0
M  V30 14193 C 1413.57 0.920755 2.86256 0
M  V30 14194 C 1415.12 0.895638 2.99912 0
M  V30 14195 C 1415.59 1.53688 4.31444 0
M  V30 14196 N 1417.08 1.50186 4.38176 0
M  V30 14197 C 1417.82 1.96727 5.38596 0
M  V30 14198 N 1417.32 2.51304 6.45615 0
M  V30 14199 N 1419.11 1.87561 5.29884 0
M  V30 14200 H 1411.26 1.56909 1.43155 0
M  V30 14201 H 1413.52 0.656664 0.683737 0
M  V30 14202 H 1413.23 1.97481 2.91023 0
M  V30 14203 H 1413.1 0.437331 3.74656 0
M  V30 14204 H 1415.49 -0.149838 2.94719 0
M  V30 14205 H 1415.57 1.41722 2.12952 0
M  V30 14206 H 1415.21 2.58163 4.37395 0
M  V30 14207 H 1415.14 0.990408 5.17203 0
M  V30 14208 H 1417.64 1.10305 3.61443 0
M  V30 14209 H 1417.95 2.84639 7.18471 0
M  V30 14210 H 1416.29 2.55337 6.46396 0
M  V30 14211 H 1419.48 1.4467 4.45183 0
M  V30 14212 H 1419.66 2.24146 6.07999 0
M  V30 14213 N 1413.06 -1.53996 0.335095 0
M  V30 14214 C 1413.99 -2.2768 -0.518087 0
M  V30 14215 C 1414.97 -1.28915 -1.10972 0
M  V30 14216 O 1416.16 -1.57745 -1.1327 0
M  V30 14217 C 1413.29 -3.04327 -1.67339 0
M  V30 14218 C 1412.24 -4.10525 -1.2105 0
M  V30 14219 C 1411.57 -4.75078 -2.45366 0
M  V30 14220 C 1412.87 -5.21337 -0.317055 0
M  V30 14221 H 1414.56 -2.99244 0.0965669 0
M  V30 14222 H 1412.11 -1.4392 0.0478842 0
M  V30 14223 H 1414.06 -3.54608 -2.27664 0
M  V30 14224 H 1412.79 -2.30399 -2.31481 0
M  V30 14225 H 1411.45 -3.61144 -0.630124 0
M  V30 14226 H 1411.09 -3.97754 -3.07897 0
M  V30 14227 H 1410.79 -5.46822 -2.1508 0
M  V30 14228 H 1412.32 -5.2814 -3.06432 0
M  V30 14229 H 1413.73 -5.67305 -0.826905 0
M  V30 14230 H 1412.13 -6.00006 -0.106458 0
M  V30 14231 H 1413.2 -4.80536 0.649068 0
M  V30 14232 N 1414.54 -0.0635198 -1.57472 0
M  V30 14233 C 1415.95 0.470372 -1.80678 0
M  V30 14234 C 1416.3 1.70158 -0.976771 0
M  V30 14235 O 1415.43 2.15502 -0.196893 0
M  V30 14236 C 1416.02 0.860129 -3.277 0
M  V30 14237 C 1414.58 1.33893 -3.51781 0
M  V30 14238 C 1413.73 0.320078 -2.75447 0
M  V30 14239 H 1416.68 -0.289295 -1.56041 0
M  V30 14240 H 1416.7 1.72216 -3.39296 0
M  V30 14241 H 1416.21 -0.0361525 -3.88083 0
M  V30 14242 H 1414.31 2.25399 -2.96692 0
M  V30 14243 H 1414.43 1.32257 -4.60483 0
M  V30 14244 H 1412.79 0.795601 -2.41955 0
M  V30 14245 H 1413.57 -0.568332 -3.38563 0
M  V30 14246 N 1416.02 1.56195 0.209972 0
M  V30 14247 C 1416.95 1.96378 1.26324 0
M  V30 14248 C 1417.93 0.833606 1.48273 0
M  V30 14249 O 1419.12 1.0968 1.60262 0
M  V30 14250 C 1416.25 2.29048 2.61064 0
M  V30 14251 C 1415.2 3.44665 2.53752 0
M  V30 14252 C 1414.53 3.6297 3.92628 0
M  V30 14253 C 1415.83 4.79297 2.07536 0
M  V30 14254 H 1417.52 2.8461 0.929379 0
M  V30 14255 H 1415.07 1.36931 0.445627 0
M  V30 14256 H 1417.02 2.55752 3.34916 0
M  V30 14257 H 1415.74 1.37682 2.96161 0
M  V30 14258 H 1414.4 3.18028 1.82356 0
M  V30 14259 H 1414.05 2.68961 4.25052 0
M  V30 14260 H 1413.75 4.40741 3.88614 0
M  V30 14261 H 1415.27 3.92035 4.68125 0
M  V30 14262 H 1416.69 5.05131 2.71138 0
M  V30 14263 H 1415.08 5.60433 2.14557 0
M  V30 14264 H 1416.15 4.73877 1.02802 0
M  V30 14265 N 1417.5 -0.477127 1.50204 0
M  V30 14266 C 1418.41 -1.60182 1.71403 0
M  V30 14267 C 1419.42 -1.63437 0.597009 0
M  V30 14268 O 1420.6 -1.81418 0.874614 0
M  V30 14269 C 1417.66 -2.96432 1.79802 0
M  V30 14270 C 1416.73 -3.03614 3.03508 0
M  V30 14271 C 1415.96 -4.33365 3.11497 0
M  V30 14272 O 1416.18 -5.23529 2.26438 0
M  V30 14273 O 1415.12 -4.46013 4.04173 0
M  V30 14274 H 1418.94 -1.45221 2.66729 0
M  V30 14275 H 1416.53 -0.655982 1.34228 0
M  V30 14276 H 1418.41 -3.77367 1.87542 0
M  V30 14277 H 1417.08 -3.11605 0.876581 0
M  V30 14278 H 1415.99 -2.21779 3.01272 0
M  V30 14279 H 1417.32 -2.93376 3.95211 0
M  V30 14280 N 1418.98 -1.3968 -0.729882 0
M  V30 14281 C 1420.22 -1.36911 -1.4866 0
M  V30 14282 C 1420.55 0.0326011 -1.94973 0
M  V30 14283 O 1419.82 0.984789 -1.69348 0
M  V30 14284 H 1418.4 -0.503848 -0.551495 0
M  V30 14285 H 1421.06 -1.74596 -0.866155 0
M  V30 14286 H 1420.15 -2.03504 -2.36628 0
M  V30 14287 N 1420.45 0.960609 -1.2494 0
M  V30 14288 C 1421.4 2.07763 -1.04581 0
M  V30 14289 C 1422.4 1.69386 0.0214505 0
M  V30 14290 O 1423.6 1.79503 -0.133683 0
M  V30 14291 H 1419.98 0.679944 -0.321216 0
M  V30 14292 H 1421.95 2.22094 -1.99291 0
M  V30 14293 C 1420.7 3.41088 -0.674876 0
M  V30 14294 H 1420.02 3.71082 -1.4879 0
M  V30 14295 H 1421.46 4.20123 -0.572079 0
M  V30 14296 C 1419.92 3.31172 0.6186 0
M  V30 14297 O 1420.45 3.65688 1.66238 0
M  V30 14298 N 1418.66 2.84297 0.601984 0
M  V30 14299 H 1418.2 2.56406 -0.24778 0
M  V30 14300 H 1418.16 2.78045 1.4676 0
M  V30 14301 N 1421.93 1.0643 1.16234 0
M  V30 14302 C 1423.16 0.802644 1.90697 0
M  V30 14303 C 1423.58 -0.643145 1.77508 0
M  V30 14304 O 1422.93 -1.4404 1.12065 0
M  V30 14305 C 1422.98 1.18984 3.41358 0
M  V30 14306 O 1422.7 2.5789 3.54153 0
M  V30 14307 C 1424.21 0.956132 4.32866 0
M  V30 14308 H 1421.43 0.290891 0.604668 0
M  V30 14309 H 1423.97 1.41829 1.47325 0
M  V30 14310 H 1422.12 0.618703 3.82428 0
M  V30 14311 H 1422.54 2.73431 4.47589 0
M  V30 14312 H 1424.01 1.27667 5.37034 0
M  V30 14313 H 1424.49 -0.108062 4.39067 0
M  V30 14314 H 1425.1 1.51172 3.97526 0
M  V30 14315 N 1423.41 -1.329 0.847073 0
M  V30 14316 C 1424.34 -2.27027 0.231111 0
M  V30 14317 C 1425.32 -1.50045 -0.626524 0
M  V30 14318 O 1426.51 -1.79193 -0.58499 0
M  V30 14319 C 1423.63 -3.31911 -0.67472 0
M  V30 14320 C 1422.68 -4.26362 0.108531 0
M  V30 14321 S 1423.51 -5.14874 1.4719 0
M  V30 14322 C 1424.67 -6.23285 0.571586 0
M  V30 14323 H 1424.9 -2.78922 1.02906 0
M  V30 14324 H 1422.43 -1.40315 0.64428 0
M  V30 14325 H 1424.39 -3.92821 -1.19172 0
M  V30 14326 H 1423.05 -2.78815 -1.44641 0
M  V30 14327 H 1422.25 -5.00639 -0.581079 0
M  V30 14328 H 1421.85 -3.69831 0.556863 0
M  V30 14329 H 1424.14 -6.77119 -0.227261 0
M  V30 14330 H 1425.08 -6.96347 1.28477 0
M  V30 14331 H 1425.49 -5.64303 0.149291 0
M  V30 14332 N 1424.89 -0.604284 -1.45555 0
M  V30 14333 C 1426.3 -0.267665 -1.57339 0
M  V30 14334 C 1426.5 1.22984 -1.59616 0
M  V30 14335 O 1425.56 2.0127 -1.52468 0
M  V30 14336 C 1426.87 -0.935923 -2.85764 0
M  V30 14337 C 1428.42 -0.911531 -2.99433 0
M  V30 14338 C 1428.9 -1.55974 -4.30623 0
M  V30 14339 N 1430.39 -1.52507 -4.37374 0
M  V30 14340 C 1431.12 -1.9958 -5.37546 0
M  V30 14341 N 1430.62 -2.54724 -6.44273 0
M  V30 14342 N 1432.41 -1.90368 -5.28882 0
M  V30 14343 H 1424.56 -1.57666 -1.42321 0
M  V30 14344 H 1426.83 -0.66028 -0.680245 0
M  V30 14345 H 1426.53 -1.99022 -2.89971 0
M  V30 14346 H 1426.41 -0.457194 -3.74419 0
M  V30 14347 H 1428.79 0.134206 -2.94795 0
M  V30 14348 H 1428.87 -1.42849 -2.12197 0
M  V30 14349 H 1428.52 -2.60479 -4.3602 0
M  V30 14350 H 1428.45 -1.01782 -5.1667 0
M  V30 14351 H 1430.94 -1.12221 -3.60853 0
M  V30 14352 H 1431.25 -2.88445 -7.16951 0
M  V30 14353 H 1429.6 -2.58761 -6.45033 0
M  V30 14354 H 1432.79 -1.47029 -4.4441 0
M  V30 14355 H 1432.96 -2.27367 -6.06802 0
M  V30 14356 N 1426.37 1.53816 -0.343257 0
M  V30 14357 C 1427.31 2.25011 0.513664 0
M  V30 14358 C 1428.28 1.24827 1.09578 0
M  V30 14359 O 1429.47 1.53558 1.13245 0
M  V30 14360 C 1426.61 3.02616 1.65885 0
M  V30 14361 C 1425.72 4.17653 1.10406 0
M  V30 14362 C 1424.86 4.82746 2.21653 0
M  V30 14363 C 1423.9 5.89853 1.63524 0
M  V30 14364 N 1423.03 6.48726 2.68512 0
M  V30 14365 H 1427.87 2.97832 -0.099997 0
M  V30 14366 H 1425.41 1.46973 -0.0611206 0
M  V30 14367 H 1427.37 3.45868 2.33304 0
M  V30 14368 H 1426 2.32092 2.2435 0
M  V30 14369 H 1425.05 3.79045 0.320819 0
M  V30 14370 H 1426.36 4.94691 0.638887 0
M  V30 14371 H 1425.52 5.29068 2.96938 0
M  V30 14372 H 1424.25 4.05131 2.71515 0
M  V30 14373 H 1423.26 5.42914 0.86745 0
M  V30 14374 H 1424.48 6.69375 1.14515 0
M  V30 14375 H 1422.43 5.73975 3.17629 0
M  V30 14376 H 1422.35 7.21236 2.26616 0
M  V30 14377 H 1423.62 6.99701 3.43567 0
M  V30 14378 N 1427.84 0.0718701 1.57436 0
M  V30 14379 C 1429.07 -0.606253 1.97819 0
M  V30 14380 C 1429.49 -1.63144 0.950233 0
M  V30 14381 O 1428.84 -1.82391 -0.0631051 0
M  V30 14382 C 1428.9 -1.27476 3.38278 0
M  V30 14383 O 1428.62 -0.290603 4.37135 0
M  V30 14384 C 1430.12 -2.0407 3.93536 0
M  V30 14385 H 1427.34 -0.164305 0.650573 0
M  V30 14386 H 1429.88 0.144295 2.0399 0
M  V30 14387 H 1428.04 -1.97639 3.33193 0
M  V30 14388 H 1428.45 -0.77022 5.18814 0
M  V30 14389 H 1429.92 -2.46237 4.94036 0
M  V30 14390 H 1430.4 -2.89728 3.30083 0
M  V30 14391 H 1431.01 -1.38773 4.02022 0
M  V30 14392 N 1429.32 -1.56304 -0.201686 0
M  V30 14393 C 1430.23 -1.97215 -1.27057 0
M  V30 14394 C 1431.25 -0.878834 -1.50175 0
M  V30 14395 O 1432.42 -1.18405 -1.62918 0
M  V30 14396 C 1429.49 -2.29772 -2.59626 0
M  V30 14397 C 1428.55 -3.52776 -2.44637 0
M  V30 14398 C 1427.78 -3.83771 -3.70885 0
M  V30 14399 O 1428.01 -3.16149 -4.7477 0
M  V30 14400 O 1426.94 -4.77216 -3.66808 0
M  V30 14401 H 1430.77 -2.88347 -0.953393 0
M  V30 14402 H 1428.35 -1.43773 -0.406158 0
M  V30 14403 H 1430.23 -2.51817 -3.37885 0
M  V30 14404 H 1428.91 -1.41809 -2.90984 0
M  V30 14405 H 1427.82 -3.35986 -1.64512 0
M  V30 14406 H 1429.15 -4.41184 -2.18214 0
M  V30 14407 N 1430.8 0.469154 -1.50455 0
M  V30 14408 C 1431.76 1.5493 -1.68906 0
M  V30 14409 C 1432.76 1.50744 -0.559721 0
M  V30 14410 O 1433.95 1.5333 -0.826781 0
M  V30 14411 C 1431.09 2.94556 -1.71609 0
M  V30 14412 H 1432.28 1.39887 -2.65276 0
M  V30 14413 H 1429.83 0.695667 -1.39965 0
M  V30 14414 H 1430.57 3.15041 -0.769382 0
M  V30 14415 H 1430.35 2.99002 -2.53654 0
M  V30 14416 H 1431.84 3.72973 -1.87831 0
M  V30 14417 N 1432.28 1.40065 0.722464 0
M  V30 14418 C 1433.23 1.39784 1.83655 0
M  V30 14419 C 1434.2 0.255743 1.64119 0
M  V30 14420 O 1435.38 0.452766 1.8535 0
M  V30 14421 C 1432.52 1.25946 3.21297 0
M  V30 14422 C 1431.63 2.49805 3.52451 0
M  V30 14423 C 1430.77 2.2846 4.79562 0
M  V30 14424 C 1429.81 3.4793 5.03598 0
M  V30 14425 N 1428.94 3.25823 6.21919 0
M  V30 14426 H 1433.78 2.35013 1.83229 0
M  V30 14427 H 1431.32 1.16728 0.895154 0
M  V30 14428 H 1433.28 1.15931 4.00769 0
M  V30 14429 H 1431.91 0.343402 3.20968 0
M  V30 14430 H 1430.96 2.70375 2.67585 0
M  V30 14431 H 1432.27 3.38753 3.66126 0
M  V30 14432 H 1431.43 2.15758 5.67039 0
M  V30 14433 H 1430.17 1.36926 4.68084 0
M  V30 14434 H 1429.17 3.61116 4.14579 0
M  V30 14435 H 1430.4 4.40382 5.16953 0
M  V30 14436 H 1428.34 2.36965 6.11705 0
M  V30 14437 H 1428.26 4.08333 6.36239 0
M  V30 14438 H 1429.53 3.16841 7.12202 0
M  V30 14439 N 1433.76 -0.95397 1.25448 0
M  V30 14440 C 1434.72 -2.03231 1.0597 0
M  V30 14441 C 1435.72 -1.60795 0.0122855 0
M  V30 14442 O 1436.91 -1.7233 0.254533 0
M  V30 14443 C 1434.04 -3.35414 0.609105 0
M  V30 14444 H 1435.24 -2.21943 2.01696 0
M  V30 14445 H 1432.79 -1.13115 1.07864 0
M  V30 14446 H 1433.52 -3.22398 -0.350723 0
M  V30 14447 H 1433.31 -3.67564 1.36526 0
M  V30 14448 H 1434.8 -4.14664 0.49428 0
M  V30 14449 N 1435.24 -1.07045 -1.15668 0
M  V30 14450 C 1436.48 -0.791735 -1.86381 0
M  V30 14451 C 1436.81 0.682084 -1.82148 0
M  V30 14452 O 1436.07 1.51617 -1.23737 0
M  V30 14453 C 1436.36 -1.24127 -3.35153 0
M  V30 14454 C 1436.03 -2.72051 -3.59582 0
M  V30 14455 C 1434.69 -3.12455 -3.65958 0
M  V30 14456 C 1437.04 -3.67547 -3.69538 0
M  V30 14457 C 1434.37 -4.4718 -3.79799 0
M  V30 14458 C 1436.72 -5.02029 -3.84902 0
M  V30 14459 C 1435.39 -5.42059 -3.89523 0
M  V30 14460 H 1434.66 -0.289717 -0.682016 0
M  V30 14461 H 1437.31 -1.34091 -1.36718 0
M  V30 14462 H 1435.61 -0.611428 -3.87 0
M  V30 14463 H 1437.31 -1.00256 -3.88265 0
M  V30 14464 H 1433.9 -2.39771 -3.55257 0
M  V30 14465 H 1438.08 -3.3746 -3.63915 0
M  V30 14466 H 1433.34 -4.77668 -3.81632 0
M  V30 14467 H 1437.51 -5.75902 -3.91548 0
M  V30 14468 H 1435.14 -6.46455 -4 0
M  V30 14469 N 1436.71 1.32449 -0.85411 0
M  V30 14470 C 1437.64 2.31383 -0.313697 0
M  V30 14471 C 1438.62 1.59656 0.586858 0
M  V30 14472 O 1439.81 1.87459 0.507216 0
M  V30 14473 C 1436.94 3.43693 0.499235 0
M  V30 14474 C 1435.89 4.26899 -0.306839 0
M  V30 14475 C 1435.22 5.30966 0.630795 0
M  V30 14476 C 1436.52 4.99318 -1.53229 0
M  V30 14477 H 1438.21 2.76832 -1.14037 0
M  V30 14478 H 1435.76 1.33091 -0.549805 0
M  V30 14479 H 1437.71 4.11944 0.887709 0
M  V30 14480 H 1436.44 2.96971 1.35926 0
M  V30 14481 H 1435.1 3.60294 -0.677061 0
M  V30 14482 H 1434.74 4.80498 1.48765 0
M  V30 14483 H 1434.44 5.87522 0.0954635 0
M  V30 14484 H 1435.97 6.0208 1.01646 0
M  V30 14485 H 1437.38 5.60253 -1.21614 0
M  V30 14486 H 1435.78 5.65596 -2.00552 0
M  V30 14487 H 1436.85 4.27213 -2.29383 0
M  V30 14488 N 1438.19 0.611994 1.45232 0
M  V30 14489 C 1439.14 -0.125771 2.27653 0
M  V30 14490 C 1440.13 -0.834397 1.37574 0
M  V30 14491 O 1441.32 -0.72366 1.61531 0
M  V30 14492 C 1438.45 -1.11955 3.24532 0
M  V30 14493 C 1437.53 -0.411537 4.22099 0
M  V30 14494 N 1437.92 0.549272 5.02809 0
M  V30 14495 C 1436.22 -0.658514 4.41112 0
M  V30 14496 C 1436.92 0.965836 5.73626 0
M  V30 14497 N 1435.9 0.308649 5.42723 0
M  V30 14498 H 1439.7 0.612115 2.87455 0
M  V30 14499 H 1437.21 0.436003 1.56438 0
M  V30 14500 H 1439.21 -1.66253 3.82316 0
M  V30 14501 H 1437.87 -1.85795 2.6629 0
M  V30 14502 H 1438.88 0.926222 5.0955 0
M  V30 14503 H 1435.56 -1.38125 3.9399 0
M  V30 14504 H 1436.95 1.75853 6.48479 0
M  V30 14505 N 1439.67 -1.53632 0.351409 0
M  V30 14506 C 1440.92 -2.01338 -0.243047 0
M  V30 14507 C 1441.25 -1.23864 -1.4957 0
M  V30 14508 O 1440.52 -0.328412 -1.91707 0
M  V30 14509 C 1440.81 -3.55886 -0.549284 0
M  V30 14510 C 1440.66 -4.44064 0.716016 0
M  V30 14511 C 1441.98 -4.18699 -1.35569 0
M  V30 14512 H 1439.1 -0.731863 -0.0868627 0
M  V30 14513 H 1441.74 -1.84005 0.473501 0
M  V30 14514 H 1439.89 -3.70787 -1.15972 0
M  V30 14515 H 1441.56 -4.40987 1.35383 0
M  V30 14516 H 1439.8 -4.12608 1.3393 0
M  V30 14517 H 1440.48 -5.50106 0.456895 0
M  V30 14518 H 1442.95 -4.07545 -0.839441 0
M  V30 14519 H 1441.83 -5.26892 -1.53871 0
M  V30 14520 H 1442.09 -3.73834 -2.3601 0
M  V30 14521 N 1441.15 -0.0802183 -1.57396 0
M  V30 14522 C 1442.56 0.451183 -1.81166 0
M  V30 14523 C 1442.91 1.69112 -0.994764 0
M  V30 14524 O 1442.03 2.15281 -0.219739 0
M  V30 14525 C 1442.63 0.825324 -3.28594 0
M  V30 14526 C 1441.19 1.30154 -3.53181 0
M  V30 14527 C 1440.34 0.290846 -2.75771 0
M  V30 14528 H 1443.29 -0.305829 -1.55725 0
M  V30 14529 H 1443.31 1.68608 -3.41104 0
M  V30 14530 H 1442.82 -0.0773119 -3.88023 0
M  V30 14531 H 1440.92 2.22239 -2.99066 0
M  V30 14532 H 1441.03 1.27365 -4.6186 0
M  V30 14533 H 1439.4 0.769894 -2.42785 0
M  V30 14534 H 1440.18 -0.604209 -3.37941 0
M  V30 14535 N 1442.63 1.56409 0.193394 0
M  V30 14536 C 1443.59 1.93822 1.22334 0
M  V30 14537 C 1444.59 0.819513 1.3835 0
M  V30 14538 O 1445.78 1.0869 1.36132 0
M  V30 14539 C 1442.91 2.21375 2.59241 0
M  V30 14540 H 1444.1 2.85967 0.903502 0
M  V30 14541 H 1441.66 1.50125 0.43498 0
M  V30 14542 H 1442.39 1.31874 2.96277 0
M  V30 14543 H 1442.18 3.02899 2.48988 0
M  V30 14544 H 1443.67 2.51319 3.33509 0
M  V30 14545 N 1444.1 -0.461169 1.50702 0
M  V30 14546 C 1445.05 -1.5579 1.70288 0
M  V30 14547 C 1446.02 -1.5693 0.544251 0
M  V30 14548 O 1447.21 -1.74308 0.77597 0
M  V30 14549 C 1444.35 -2.93694 1.81212 0
M  V30 14550 C 1443.46 -3.02267 3.0864 0
M  V30 14551 C 1442.59 -4.31147 3.103 0
M  V30 14552 C 1441.63 -4.33498 4.32141 0
M  V30 14553 N 1440.77 -5.53864 4.31484 0
M  V30 14554 H 1445.61 -1.38393 2.63915 0
M  V30 14555 H 1443.15 -0.6727 1.30817 0
M  V30 14556 H 1445.1 -3.73679 1.85526 0
M  V30 14557 H 1443.73 -3.09703 0.91015 0
M  V30 14558 H 1442.79 -2.15093 3.1375 0
M  V30 14559 H 1444.1 -2.99864 3.98601 0
M  V30 14560 H 1443.25 -5.19487 3.13398 0
M  V30 14561 H 1441.99 -4.36172 2.18186 0
M  V30 14562 H 1441 -3.43554 4.29245 0
M  V30 14563 H 1442.22 -4.30156 5.25493 0
M  V30 14564 H 1440.17 -5.59657 3.42229 0
M  V30 14565 H 1440.08 -5.53244 5.15225 0
M  V30 14566 H 1441.35 -6.44302 4.38742 0
M  V30 14567 N 1445.58 -1.40446 -0.715026 0
M  V30 14568 C 1446.83 -1.3896 -1.47709 0
M  V30 14569 C 1447.16 0.00798698 -1.94198 0
M  V30 14570 O 1446.44 0.976732 -1.68197 0
M  V30 14571 C 1446.72 -2.37955 -2.70277 0
M  V30 14572 C 1446.57 -3.8674 -2.29678 0
M  V30 14573 C 1447.89 -2.34478 -3.72435 0
M  V30 14574 H 1445.01 -0.50607 -0.535782 0
M  V30 14575 H 1447.65 -1.71585 -0.815999 0
M  V30 14576 H 1445.8 -2.10264 -3.26682 0
M  V30 14577 H 1447.47 -4.2526 -1.7875 0
M  V30 14578 H 1445.72 -4.02547 -1.61674 0
M  V30 14579 H 1446.39 -4.51524 -3.17538 0
M  V30 14580 H 1448.86 -2.59007 -3.2566 0
M  V30 14581 H 1447.74 -3.05791 -4.55832 0
M  V30 14582 H 1448 -1.35661 -4.20771 0
M  V30 14583 N 1447.06 0.947303 -1.25952 0
M  V30 14584 C 1448.31 1.68721 -1.10527 0
M  V30 14585 C 1448.62 1.92403 0.352215 0
M  V30 14586 O 1449.83 2.6416 0.627036 0
M  V30 14587 C 1448.28 3.03785 -1.92983 0
M  V30 14588 C 1447.89 2.87873 -3.43268 0
M  V30 14589 C 1449.64 3.81509 -1.86149 0
M  V30 14590 C 1447.54 4.18373 -4.17993 0
M  V30 14591 H 1446.47 0.632774 -0.410016 0
M  V30 14592 H 1449.12 1.054 -1.5021 0
M  V30 14593 H 1447.51 3.68052 -1.46128 0
M  V30 14594 H 1448.68 2.32493 -3.97848 0
M  V30 14595 H 1446.99 2.23598 -3.51273 0
M  V30 14596 H 1449.59 4.78179 -2.39267 0
M  V30 14597 H 1449.93 4.07923 -0.83091 0
M  V30 14598 H 1450.47 3.24005 -2.30794 0
M  V30 14599 H 1447.21 3.97145 -5.21494 0
M  V30 14600 H 1446.73 4.7349 -3.68194 0
M  V30 14601 H 1448.41 4.86869 -4.26108 0
M  V30 14602 N 1448.54 1.07657 1.15099 0
M  V30 14603 C 1449.79 0.796589 1.85303 0
M  V30 14604 C 1450.1 -0.679887 1.83404 0
M  V30 14605 O 1451.31 -1.07475 2.49322 0
M  V30 14606 C 1449.76 1.37495 3.326 0
M  V30 14607 C 1449.37 2.88267 3.42938 0
M  V30 14608 C 1451.11 1.17313 4.07968 0
M  V30 14609 C 1449.02 3.39278 4.84401 0
M  V30 14610 H 1447.95 0.294316 0.694186 0
M  V30 14611 H 1450.6 1.29702 1.29806 0
M  V30 14612 H 1448.98 0.802248 3.87789 0
M  V30 14613 H 1450.16 3.51608 2.9784 0
M  V30 14614 H 1448.47 3.07275 2.81018 0
M  V30 14615 H 1451.07 1.52899 5.12373 0
M  V30 14616 H 1451.41 0.112387 4.16148 0
M  V30 14617 H 1451.95 1.71236 3.59059 0
M  V30 14618 H 1448.69 4.44892 4.81406 0
M  V30 14619 H 1448.21 2.80692 5.30068 0
M  V30 14620 H 1449.88 3.35416 5.53267 0
M  V30 14621 N 1450.02 -1.31994 0.861122 0
M  V30 14622 C 1451.26 -1.96636 0.466754 0
M  V30 14623 C 1451.59 -1.6845 -0.982328 0
M  V30 14624 O 1450.86 -0.995157 -1.68741 0
M  V30 14625 H 1449.44 -0.727489 0.169613 0
M  V30 14626 H 1452.1 -1.60962 1.09897 0
M  V30 14627 H 1451.19 -3.05937 0.61716 0
M  V30 14628 N 1451.49 -0.619688 -1.44906 0
M  V30 14629 C 1452.42 0.0791121 -2.33366 0
M  V30 14630 C 1453.41 0.846503 -1.47541 0
M  V30 14631 O 1454.59 0.814657 -1.76287 0
M  V30 14632 C 1451.72 1.06901 -3.30438 0
M  V30 14633 C 1450.67 0.41403 -4.25993 0
M  V30 14634 C 1450 1.51303 -5.12846 0
M  V30 14635 C 1451.3 -0.672483 -5.17953 0
M  V30 14636 H 1452.99 -0.659551 -2.92045 0
M  V30 14637 H 1450.54 -0.318623 -1.40431 0
M  V30 14638 H 1452.49 1.56653 -3.912 0
M  V30 14639 H 1451.22 1.83842 -2.69944 0
M  V30 14640 H 1449.88 -0.0627315 -3.66546 0
M  V30 14641 H 1449.52 2.27303 -4.48712 0
M  V30 14642 H 1449.22 1.08022 -5.77586 0
M  V30 14643 H 1450.75 2.01258 -5.76479 0
M  V30 14644 H 1452.16 -0.258542 -5.72717 0
M  V30 14645 H 1450.56 -1.02776 -5.91234 0
M  V30 14646 H 1451.63 -1.54425 -4.59653 0
M  V30 14647 N 1452.97 1.53444 -0.359552 0
M  V30 14648 C 1453.94 2.24173 0.477412 0
M  V30 14649 C 1454.94 1.24747 1.01464 0
M  V30 14650 O 1456.13 1.49069 0.901343 0
M  V30 14651 C 1453.26 2.9738 1.66667 0
M  V30 14652 H 1454.45 2.99566 -0.141407 0
M  V30 14653 H 1452 1.55904 -0.111143 0
M  V30 14654 H 1452.74 2.26214 2.32374 0
M  V30 14655 H 1452.52 3.70325 1.28848 0
M  V30 14656 H 1454.01 3.51165 2.25994 0
M  V30 14657 N 1454.45 0.0885642 1.57351 0
M  V30 14658 C 1455.7 -0.576675 1.94115 0
M  V30 14659 C 1456.03 -1.68595 0.969842 0
M  V30 14660 O 1455.28 -1.95697 -0.0116998 0
M  V30 14661 C 1455.58 -1.17764 3.37441 0
M  V30 14662 C 1455.25 -0.192813 4.50488 0
M  V30 14663 C 1453.91 0.0780722 4.81137 0
M  V30 14664 C 1456.26 0.479997 5.18985 0
M  V30 14665 C 1453.59 1.02857 5.77613 0
M  V30 14666 C 1455.94 1.41892 6.16481 0
M  V30 14667 C 1454.6 1.69811 6.45539 0
M  V30 14668 H 1453.87 -0.21102 0.710318 0
M  V30 14669 H 1456.52 0.163009 1.90805 0
M  V30 14670 H 1454.83 -1.99343 3.37298 0
M  V30 14671 H 1456.52 -1.69994 3.63185 0
M  V30 14672 H 1453.11 -0.41413 4.26595 0
M  V30 14673 H 1457.3 0.283854 4.95488 0
M  V30 14674 H 1452.55 1.25194 5.98445 0
M  V30 14675 H 1456.73 1.94612 6.68655 0
M  V30 14676 H 1454.35 2.43621 7.20106 0
M  V30 14677 N 1455.93 -1.56509 -0.185096 0
M  V30 14678 C 1457.21 -1.72055 -0.930398 0
M  V30 14679 C 1457.59 -0.646145 -2.00968 0
M  V30 14680 O 1456.93 0.34129 -2.25937 0
M  V30 14681 C 1457.14 -3.14752 -1.50771 0
M  V30 14682 C 1458.49 -3.75292 -1.98597 0
M  V30 14683 O 1459.52 -3.17944 -1.60593 0
M  V30 14684 O 1458.37 -4.7596 -2.68561 0
M  V30 14685 H 1455.47 -0.702118 -0.436989 0
M  V30 14686 H 1458.01 -1.68806 -0.174007 0
M  V30 14687 H 1456.79 -3.84426 -0.730236 0
M  V30 14688 H 1456.41 -3.22272 -2.32866 0
M  V30 14689 N 1457.41 0.45317 -1.50944 0
M  V30 14690 C 1458.65 1.21354 -1.64476 0
M  V30 14691 C 1459.01 1.88859 -0.345879 0
M  V30 14692 O 1460.21 2.66421 -0.356808 0
M  V30 14693 C 1458.48 2.21565 -2.80435 0
M  V30 14694 S 1460.04 3.06302 -3.14205 0
M  V30 14695 H 1456.86 0.411762 -0.579632 0
M  V30 14696 H 1459.46 0.50762 -1.88795 0
M  V30 14697 H 1458.17 1.70585 -3.73268 0
M  V30 14698 H 1457.7 2.96761 -2.58257 0
M  V30 14699 H 1459.71 4.22988 -2.59414 0
M  V30 14700 N 1458.88 1.40823 0.707568 0
M  V30 14701 C 1460.13 1.39741 1.4697 0
M  V30 14702 C 1460.46 0.00231194 1.942 0
M  V30 14703 O 1459.74 -0.967798 1.68713 0
M  V30 14704 C 1460.02 2.39385 2.69011 0
M  V30 14705 C 1459.87 3.87953 2.27624 0
M  V30 14706 C 1461.19 2.3645 3.71186 0
M  V30 14707 H 1458.31 0.508904 0.533091 0
M  V30 14708 H 1460.95 1.72015 0.806888 0
M  V30 14709 H 1459.1 2.11993 3.25563 0
M  V30 14710 H 1460.78 4.26202 1.76492 0
M  V30 14711 H 1459.02 4.03399 1.59537 0
M  V30 14712 H 1459.69 4.53201 3.15139 0
M  V30 14713 H 1462.17 2.60731 3.24282 0
M  V30 14714 H 1461.04 3.08204 4.54204 0
M  V30 14715 H 1461.3 1.3789 4.20046 0
M  V30 14716 N 1460.36 -0.94061 1.26453 0
M  V30 14717 C 1461.64 -1.66421 1.02779 0
M  V30 14718 C 1462.02 -2.06429 -0.441614 0
M  V30 14719 O 1461.37 -1.78854 -1.42209 0
M  V30 14720 C 1461.58 -2.87599 1.97707 0
M  V30 14721 C 1462.93 -3.59237 2.26349 0
M  V30 14722 O 1463.95 -2.97704 1.95577 0
M  V30 14723 O 1462.81 -4.70068 2.78744 0
M  V30 14724 H 1459.9 -0.728813 0.390846 0
M  V30 14725 H 1462.45 -0.99229 1.37665 0
M  V30 14726 H 1461.22 -2.54929 2.96862 0
M  V30 14727 H 1460.84 -3.62516 1.63303 0
M  V30 14728 N 1461.84 -1.08266 -1.14527 0
M  V30 14729 C 1462.79 -0.711332 -2.19565 0
M  V30 14730 C 1463.76 0.301774 -1.63336 0
M  V30 14731 O 1464.94 0.186109 -1.8989 0
M  V30 14732 C 1462.08 -0.125255 -3.44873 0
M  V30 14733 C 1461.2 -1.19096 -4.15259 0
M  V30 14734 C 1460.33 -0.568901 -5.28145 0
M  V30 14735 C 1459.37 -1.61675 -5.90362 0
M  V30 14736 N 1458.51 -1.01659 -6.94701 0
M  V30 14737 H 1463.35 -1.61137 -2.50677 0
M  V30 14738 H 1460.88 -0.805286 -1.231 0
M  V30 14739 H 1462.84 0.232247 -4.16553 0
M  V30 14740 H 1461.47 0.738101 -3.14248 0
M  V30 14741 H 1460.52 -1.66591 -3.41982 0
M  V30 14742 H 1461.84 -1.98508 -4.57598 0
M  V30 14743 H 1460.99 -0.159563 -6.0649 0
M  V30 14744 H 1459.73 0.256884 -4.87023 0
M  V30 14745 H 1458.73 -2.03576 -5.10722 0
M  V30 14746 H 1459.96 -2.44498 -6.33559 0
M  V30 14747 H 1457.9 -0.211872 -6.55658 0
M  V30 14748 H 1457.82 -1.74781 -7.35518 0
M  V30 14749 H 1459.09 -0.63306 -7.76925 0
M  V30 14750 N 1463.32 1.31536 -0.86811 0
M  V30 14751 C 1464.25 2.2663 -0.2672 0
M  V30 14752 C 1465.23 1.51023 0.602574 0
M  V30 14753 O 1466.41 1.80101 0.556408 0
M  V30 14754 C 1463.54 3.32943 0.62183 0
M  V30 14755 C 1462.59 4.26135 -0.176348 0
M  V30 14756 S 1463.42 5.12467 -1.55363 0
M  V30 14757 C 1464.58 6.22296 -0.670673 0
M  V30 14758 H 1464.81 2.7725 -1.07331 0
M  V30 14759 H 1462.34 1.39273 -0.666521 0
M  V30 14760 H 1464.3 3.94667 1.12908 0
M  V30 14761 H 1462.96 2.81081 1.40187 0
M  V30 14762 H 1462.15 5.015 0.501358 0
M  V30 14763 H 1461.76 3.68898 -0.61563 0
M  V30 14764 H 1464.05 6.77395 0.119508 0
M  V30 14765 H 1464.99 6.94215 -1.39539 0
M  V30 14766 H 1465.4 5.63994 -0.239048 0
M  V30 14767 N 1464.8 0.627364 1.44575 0
M  V30 14768 C 1466.04 0.130545 2.02379 0
M  V30 14769 C 1466.38 -1.24301 1.49208 0
M  V30 14770 O 1465.65 -1.82425 0.674626 0
M  V30 14771 C 1465.93 0.11311 3.59922 0
M  V30 14772 C 1465.79 1.51874 4.23385 0
M  V30 14773 C 1467.11 -0.564341 4.36467 0
M  V30 14774 H 1464.23 0.0489125 0.735375 0
M  V30 14775 H 1466.87 0.803118 1.72192 0
M  V30 14776 H 1465.02 -0.459621 3.85772 0
M  V30 14777 H 1466.69 2.14007 4.08655 0
M  V30 14778 H 1464.93 2.07371 3.81024 0
M  V30 14779 H 1465.6 1.4586 5.3238 0
M  V30 14780 H 1468.08 -0.0773244 4.16028 0
M  V30 14781 H 1466.96 -0.545715 5.46181 0
M  V30 14782 H 1467.22 -1.63403 4.10794 0
M  V30 14783 N 1466.28 -1.53251 0.367684 0
M  V30 14784 C 1467.51 -2.05407 -0.221725 0
M  V30 14785 C 1467.91 -1.24081 -1.4283 0
M  V30 14786 O 1467.26 -0.275005 -1.8163 0
M  V30 14787 C 1467.32 -3.53063 -0.677281 0
M  V30 14788 C 1466.98 -4.55131 0.412894 0
M  V30 14789 C 1467.98 -5.04315 1.26343 0
M  V30 14790 C 1465.66 -4.99013 0.573739 0
M  V30 14791 C 1467.66 -5.95984 2.26014 0
M  V30 14792 C 1465.35 -5.90487 1.57381 0
M  V30 14793 C 1466.34 -6.38863 2.41544 0
M  V30 14794 O 1466.03 -7.28533 3.39845 0
M  V30 14795 H 1465.76 -0.674679 -0.0422413 0
M  V30 14796 H 1468.32 -1.98577 0.52501 0
M  V30 14797 H 1466.55 -3.57437 -1.47565 0
M  V30 14798 H 1468.24 -3.88066 -1.18993 0
M  V30 14799 H 1469 -4.7116 1.15037 0
M  V30 14800 H 1464.88 -4.60944 -0.0715806 0
M  V30 14801 H 1468.43 -6.33666 2.91742 0
M  V30 14802 H 1464.32 -6.23056 1.68734 0
M  V30 14803 H 1465.09 -7.46536 3.35598 0
M  V30 14804 N 1467.75 -0.0969077 -1.57302 0
M  V30 14805 C 1469 0.561074 -1.95508 0
M  V30 14806 C 1469.35 1.6568 -0.97816 0
M  V30 14807 O 1468.65 1.91599 -0.00445428 0
M  V30 14808 C 1468.84 1.15972 -3.38061 0
M  V30 14809 C 1468.67 0.123524 -4.4953 0
M  V30 14810 C 1467.44 -0.30062 -5.04405 0
M  V30 14811 C 1469.64 -0.649001 -5.10189 0
M  V30 14812 N 1467.62 -1.3249 -5.99433 0
M  V30 14813 C 1468.99 -1.52506 -6.00951 0
M  V30 14814 C 1471.05 -0.70232 -4.92922 0
M  V30 14815 C 1469.75 -2.44976 -6.76298 0
M  V30 14816 C 1471.78 -1.61463 -5.68932 0
M  V30 14817 C 1471.14 -2.47831 -6.59363 0
M  V30 14818 H 1467.24 0.175591 -0.762031 0
M  V30 14819 H 1469.82 -0.179896 -1.93867 0
M  V30 14820 H 1467.99 1.87051 -3.40392 0
M  V30 14821 H 1469.72 1.78022 -3.63442 0
M  V30 14822 H 1466.48 0.0874763 -4.73519 0
M  V30 14823 H 1466.9 -1.8353 -6.51648 0
M  V30 14824 H 1471.54 -0.0487412 -4.22772 0
M  V30 14825 H 1469.26 -3.11358 -7.45709 0
M  V30 14826 H 1472.85 -1.66104 -5.57585 0
M  V30 14827 H 1471.73 -3.17278 -7.1715 0
M  V30 14828 N 1469.23 1.56605 0.176793 0
M  V30 14829 C 1470.46 1.85812 0.910019 0
M  V30 14830 C 1470.87 0.68164 1.76066 0
M  V30 14831 O 1470.23 -0.34936 1.79125 0
M  V30 14832 C 1470.28 3.14001 1.79125 0
M  V30 14833 O 1470 4.27114 0.974931 0
M  V30 14834 C 1471.5 3.56516 2.6346 0
M  V30 14835 H 1468.72 0.616608 0.264643 0
M  V30 14836 H 1471.27 2.03719 0.178537 0
M  V30 14837 H 1469.42 2.97937 2.47613 0
M  V30 14838 H 1469.84 5.00227 1.57711 0
M  V30 14839 H 1471.31 4.49128 3.20918 0
M  V30 14840 H 1471.79 2.80373 3.38065 0
M  V30 14841 H 1472.39 3.75173 2.00313 0
M  V30 14842 N 1470.71 -0.445159 1.51182 0
M  V30 14843 C 1471.99 -1.20598 1.53998 0
M  V30 14844 C 1472.37 -2.08962 0.29967 0
M  V30 14845 O 1471.71 -2.17003 -0.715666 0
M  V30 14846 C 1471.92 -2.01461 2.84982 0
M  V30 14847 C 1473.27 -2.5877 3.36635 0
M  V30 14848 O 1474.3 -2.11679 2.86479 0
M  V30 14849 O 1473.16 -3.44637 4.24132 0
M  V30 14850 H 1470.25 -0.548635 0.618812 0
M  V30 14851 H 1472.8 -0.454865 1.6349 0
M  V30 14852 H 1471.57 -1.36511 3.66716 0
M  V30 14853 H 1471.19 -2.83654 2.78615 0
M  V30 14854 N 1472.19 -1.41197 -0.700089 0
M  V30 14855 C 1473.44 -1.39611 -1.45574 0
M  V30 14856 C 1473.75 -0.00683378 -1.95599 0
M  V30 14857 O 1474.96 0.131643 -2.71181 0
M  V30 14858 C 1473.41 -2.45452 -2.63214 0
M  V30 14859 C 1473.02 -3.90265 -2.19993 0
M  V30 14860 C 1474.76 -2.52996 -3.40871 0
M  V30 14861 C 1472.67 -4.87668 -3.34565 0
M  V30 14862 H 1471.6 -0.51917 -0.546789 0
M  V30 14863 H 1474.25 -1.67001 -0.760456 0
M  V30 14864 H 1472.63 -2.11186 -3.34987 0
M  V30 14865 H 1473.81 -4.33756 -1.55539 0
M  V30 14866 H 1472.12 -3.86339 -1.55341 0
M  V30 14867 H 1474.72 -3.22952 -4.26153 0
M  V30 14868 H 1475.06 -1.56536 -3.85749 0
M  V30 14869 H 1475.6 -2.86331 -2.76151 0
M  V30 14870 H 1472.33 -5.85517 -2.94704 0
M  V30 14871 H 1471.85 -4.4883 -3.97884 0
M  V30 14872 H 1473.53 -5.08215 -4.00409 0
M  V30 14873 N 1473.67 0.933891 -1.2695 0
M  V30 14874 C 1474.89 1.71512 -1.15721 0
M  V30 14875 C 1475.31 1.8661 0.286712 0
M  V30 14876 O 1474.67 1.3787 1.19574 0
M  V30 14877 C 1474.72 3.11804 -1.82922 0
M  V30 14878 O 1474.44 2.97421 -3.21672 0
M  V30 14879 C 1475.94 4.06108 -1.7774 0
M  V30 14880 H 1473.16 0.53678 -0.402626 0
M  V30 14881 H 1475.7 1.17025 -1.67706 0
M  V30 14882 H 1473.86 3.6317 -1.34856 0
M  V30 14883 H 1474.27 3.86069 -3.55037 0
M  V30 14884 H 1475.75 5.02082 -2.29385 0
M  V30 14885 H 1476.22 4.32828 -0.74543 0
M  V30 14886 H 1476.83 3.60665 -2.25391 0
M  V30 14887 N 1475.14 1.08871 1.13951 0
M  V30 14888 C 1476.05 0.734869 2.22793 0
M  V30 14889 C 1477.07 -0.260699 1.72036 0
M  V30 14890 O 1478.25 -0.103461 2.01134 0
M  V30 14891 C 1475.31 0.154599 3.46355 0
M  V30 14892 C 1474.37 1.20539 4.1203 0
M  V30 14893 C 1473.6 0.652712 5.29694 0
M  V30 14894 O 1473.83 -0.526264 5.67967 0
M  V30 14895 O 1472.76 1.40503 5.85271 0
M  V30 14896 H 1476.59 1.64297 2.55422 0
M  V30 14897 H 1474.17 0.862716 1.21974 0
M  V30 14898 H 1476.05 -0.165962 4.21073 0
M  V30 14899 H 1474.73 -0.726592 3.1544 0
M  V30 14900 H 1473.64 1.57855 3.39164 0
M  V30 14901 H 1474.97 2.05902 4.47063 0
M  V30 14902 N 1476.62 -1.31073 0.875073 0
M  V30 14903 C 1478.03 -1.78707 0.540422 0
M  V30 14904 C 1478.38 -1.72056 -0.942935 0
M  V30 14905 O 1477.51 -1.29139 -1.73643 0
M  V30 14906 C 1478.1 -3.24491 0.974203 0
M  V30 14907 C 1476.66 -3.70001 0.691127 0
M  V30 14908 C 1475.81 -2.51748 1.16269 0
M  V30 14909 H 1478.76 -1.18083 1.06029 0
M  V30 14910 H 1478.78 -3.79323 0.299003 0
M  V30 14911 H 1478.29 -3.29301 2.05384 0
M  V30 14912 H 1476.39 -3.70688 -0.376937 0
M  V30 14913 H 1476.51 -4.61913 1.27173 0
M  V30 14914 H 1474.87 -2.47954 0.582302 0
M  V30 14915 H 1475.65 -2.59299 2.24986 0
M  V30 14916 N 1478.1 -0.635022 -1.4424 0
M  V30 14917 C 1479.33 -0.146549 -2.06882 0
M  V30 14918 C 1479.75 1.17143 -1.4717 0
M  V30 14919 O 1479.11 1.71952 -0.574636 0
M  V30 14920 C 1479.16 -0.0494694 -3.60566 0
M  V30 14921 O 1478.26 0.993423 -4.00256 0
M  V30 14922 H 1477.6 -0.0865505 -0.658335 0
M  V30 14923 H 1480.13 -0.872803 -1.85049 0
M  V30 14924 H 1480.14 0.139839 -4.0776 0
M  V30 14925 H 1478.82 -1.01169 -4.03407 0
M  V30 14926 H 1477.39 0.778372 -3.64686 0
M  V30 14927 N 1479.58 1.53054 -0.375806 0
M  V30 14928 C 1480.83 2.00584 0.211847 0
M  V30 14929 C 1481.14 1.26692 1.49025 0
M  V30 14930 O 1482.35 1.64863 2.15713 0
M  V30 14931 C 1480.8 3.57345 0.428074 0
M  V30 14932 C 1480.41 4.40125 -0.836299 0
M  V30 14933 C 1482.15 4.13203 0.972825 0
M  V30 14934 C 1480.06 5.88459 -0.589093 0
M  V30 14935 H 1478.99 0.749424 0.0829412 0
M  V30 14936 H 1481.64 1.76666 -0.496126 0
M  V30 14937 H 1480.02 3.77458 1.19756 0
M  V30 14938 H 1481.2 4.31782 -1.60936 0
M  V30 14939 H 1479.51 3.95422 -1.30501 0
M  V30 14940 H 1482.11 5.21669 1.17326 0
M  V30 14941 H 1482.45 3.68441 1.93797 0
M  V30 14942 H 1482.99 3.96928 0.263249 0
M  V30 14943 H 1479.73 6.37517 -1.52485 0
M  V30 14944 H 1479.25 5.99624 0.145285 0
M  V30 14945 H 1480.92 6.46631 -0.218485 0
M  V30 14946 N 1481.06 0.105248 1.57248 0
M  V30 14947 C 1482.3 -0.554956 1.94331 0
M  V30 14948 C 1482.63 -1.68087 0.988528 0
M  V30 14949 O 1481.9 -1.95854 0.042366 0
M  V30 14950 H 1480.48 -0.207994 0.717459 0
M  V30 14951 H 1483.14 0.170964 1.94149 0
M  V30 14952 H 1482.23 -0.95853 2.97016 0
M  V30 14953 N 1482.53 -1.56697 -0.168486 0
M  V30 14954 C 1483.95 -1.50879 -0.52036 0
M  V30 14955 C 1484.15 -0.810001 -1.84503 0
M  V30 14956 O 1483.21 -0.371549 -2.49751 0
M  V30 14957 C 1484.52 -2.95618 -0.550502 0
M  V30 14958 C 1486.07 -3.06439 -0.637508 0
M  V30 14959 C 1486.54 -4.52642 -0.698516 0
M  V30 14960 N 1488.03 -4.569 -0.761328 0
M  V30 14961 C 1488.77 -5.67373 -0.829155 0
M  V30 14962 N 1488.26 -6.87471 -0.857642 0
M  V30 14963 N 1490.06 -5.55352 -0.868392 0
M  V30 14964 H 1482.21 -2.00531 0.700087 0
M  V30 14965 H 1484.47 -0.913683 0.252759 0
M  V30 14966 H 1484.18 -3.49912 0.354222 0
M  V30 14967 H 1484.05 -3.50416 -1.396 0
M  V30 14968 H 1486.44 -2.52178 -1.53266 0
M  V30 14969 H 1486.52 -2.54721 0.234719 0
M  V30 14970 H 1486.16 -5.07535 0.192387 0
M  V30 14971 H 1486.09 -5.0212 -1.58693 0
M  V30 14972 H 1488.58 -3.70434 -0.747482 0
M  V30 14973 H 1488.9 -7.67416 -0.910648 0
M  V30 14974 H 1487.24 -6.90076 -0.825872 0
M  V30 14975 H 1490.43 -4.60444 -0.843158 0
M  V30 14976 H 1490.61 -6.41468 -0.917789 0
M  V30 14977 N 1484.01 0.437135 -1.51416 0
M  V30 14978 C 1484.98 1.51313 -1.72154 0
M  V30 14979 C 1485.98 1.49523 -0.59157 0
M  V30 14980 O 1487.17 1.51541 -0.859118 0
M  V30 14981 C 1484.3 2.9085 -1.77818 0
M  V30 14982 H 1485.49 1.34229 -2.68184 0
M  V30 14983 H 1483.04 0.665822 -1.41409 0
M  V30 14984 H 1483.78 3.13338 -0.836033 0
M  V30 14985 H 1483.56 2.93554 -2.59939 0
M  V30 14986 H 1485.05 3.68905 -1.957 0
M  V30 14987 N 1485.49 1.41566 0.692592 0
M  V30 14988 C 1486.72 1.44646 1.48635 0
M  V30 14989 C 1487.14 0.0541597 1.88022 0
M  V30 14990 O 1486.5 -0.943305 1.54827 0
M  V30 14991 C 1486.55 2.3636 2.72335 0
M  V30 14992 O 1485.65 1.8227 3.69934 0
M  V30 14993 H 1484.99 0.490791 0.447236 0
M  V30 14994 H 1487.52 1.8606 0.851056 0
M  V30 14995 H 1487.53 2.52337 3.20609 0
M  V30 14996 H 1486.21 3.37523 2.43004 0
M  V30 14997 H 1484.78 1.75759 3.28882 0
M  V30 14998 N 1486.97 -0.927146 1.27443 0
M  V30 14999 C 1487.9 -2.04483 1.12735 0
M  V30 15000 C 1488.88 -1.70076 0.0286662 0
M  V30 15001 O 1490.06 -1.93133 0.203252 0
M  V30 15002 C 1487.19 -3.38557 0.774352 0
M  V30 15003 C 1486.15 -3.87078 1.82632 0
M  V30 15004 C 1485.47 -5.17964 1.32729 0
M  V30 15005 C 1486.77 -4.10409 3.23051 0
M  V30 15006 H 1488.47 -2.17046 2.06231 0
M  V30 15007 H 1486.01 -1.04292 0.992937 0
M  V30 15008 H 1487.97 -4.16227 0.658273 0
M  V30 15009 H 1486.69 -3.26009 -0.196321 0
M  V30 15010 H 1485.35 -3.11602 1.93132 0
M  V30 15011 H 1485 -5.01808 0.346059 0
M  V30 15012 H 1484.7 -5.51398 2.03061 0
M  V30 15013 H 1486.22 -5.98203 1.22416 0
M  V30 15014 H 1487.64 -4.78646 3.15549 0
M  V30 15015 H 1486.03 -4.5515 3.91099 0
M  V30 15016 H 1487.1 -3.15685 3.68064 0
M  V30 15017 N 1488.45 -1.09474 -1.13372 0
M  V30 15018 C 1489.4 -0.704018 -2.16858 0
M  V30 15019 C 1490.38 0.281867 -1.58412 0
M  V30 15020 O 1491.57 0.0921582 -1.7676 0
M  V30 15021 C 1488.7 -0.126682 -3.43066 0
M  V30 15022 C 1487.79 -1.13901 -4.08518 0
M  V30 15023 N 1488.18 -2.3263 -4.49129 0
M  V30 15024 C 1486.48 -0.977263 -4.35162 0
M  V30 15025 C 1487.18 -2.9703 -5.00148 0
M  V30 15026 N 1486.15 -2.24588 -4.95037 0
M  V30 15027 H 1489.96 -1.60796 -2.46012 0
M  V30 15028 H 1487.47 -0.97103 -1.30172 0
M  V30 15029 H 1489.47 0.171257 -4.16548 0
M  V30 15030 H 1488.13 0.772105 -3.15386 0
M  V30 15031 H 1489.14 -2.70218 -4.41817 0
M  V30 15032 H 1485.81 -0.1332 -4.17287 0
M  V30 15033 H 1487.2 -3.97966 -5.41362 0
M  V30 15034 N 1489.92 1.30607 -0.882012 0
M  V30 15035 C 1491.17 1.95869 -0.497978 0
M  V30 15036 C 1491.49 1.69991 0.955405 0
M  V30 15037 O 1490.76 1.02188 1.67136 0
M  V30 15038 H 1489.34 0.724699 -0.181165 0
M  V30 15039 H 1492.01 1.59193 -1.12444 0
M  V30 15040 H 1491.1 3.04917 -0.665754 0
M  V30 15041 N 1491.4 0.642663 1.43901 0
M  V30 15042 C 1492.65 0.151478 2.01532 0
M  V30 15043 C 1492.97 -1.23519 1.50891 0
M  V30 15044 O 1492.24 -1.82299 0.717197 0
M  V30 15045 H 1490.82 0.0530091 0.745117 0
M  V30 15046 H 1493.48 0.831958 1.76251 0
M  V30 15047 H 1492.58 0.127995 3.11837 0
M  V30 15048 N 1492.88 -1.52852 0.383918 0
M  V30 15049 C 1493.79 -2.3002 -0.461298 0
M  V30 15050 C 1494.81 -1.36717 -1.07631 0
M  V30 15051 O 1495.98 -1.69784 -1.08329 0
M  V30 15052 C 1493.05 -3.08804 -1.57609 0
M  V30 15053 C 1492.11 -4.17806 -0.986737 0
M  V30 15054 C 1491.34 -4.92825 -2.04841 0
M  V30 15055 O 1491.57 -4.67879 -3.26259 0
M  V30 15056 O 1490.5 -5.78306 -1.66871 0
M  V30 15057 H 1494.33 -3.03239 0.167189 0
M  V30 15058 H 1491.91 -1.48667 0.147781 0
M  V30 15059 H 1493.79 -3.57943 -2.22384 0
M  V30 15060 H 1492.47 -2.38404 -2.18964 0
M  V30 15061 H 1491.37 -3.72876 -0.302396 0
M  V30 15062 H 1492.71 -4.90426 -0.417481 0
M  V30 15063 N 1494.36 -0.113586 -1.5719 0
M  V30 15064 C 1495.77 0.412653 -1.82083 0
M  V30 15065 C 1496.12 1.66964 -1.03041 0
M  V30 15066 O 1495.25 2.14767 -0.265354 0
M  V30 15067 C 1495.84 0.755439 -3.3027 0
M  V30 15068 C 1494.4 1.22634 -3.55862 0
M  V30 15069 C 1493.55 0.232285 -2.76325 0
M  V30 15070 H 1496.5 -0.338792 -1.55042 0
M  V30 15071 H 1496.52 1.61335 -3.44603 0
M  V30 15072 H 1496.03 -0.1596 -3.87772 0
M  V30 15073 H 1494.13 2.15846 -3.03713 0
M  V30 15074 H 1494.25 1.1754 -4.64458 0
M  V30 15075 H 1492.61 0.718222 -2.44364 0
M  V30 15076 H 1493.39 -0.675756 -3.36583 0
M  V30 15077 N 1495.84 1.56784 0.160173 0
M  V30 15078 C 1497.07 1.86767 0.89026 0
M  V30 15079 C 1497.48 0.700276 1.75333 0
M  V30 15080 O 1496.84 -0.330342 1.79485 0
M  V30 15081 C 1496.89 3.15883 1.75784 0
M  V30 15082 O 1496.61 4.28124 0.929575 0
M  V30 15083 C 1498.11 3.5929 2.59664 0
M  V30 15084 H 1495.33 0.61938 0.258088 0
M  V30 15085 H 1497.87 2.03897 0.156919 0
M  V30 15086 H 1496.03 3.00546 2.4444 0
M  V30 15087 H 1496.44 5.01872 1.52397 0
M  V30 15088 H 1497.92 4.52506 3.16136 0
M  V30 15089 H 1498.39 2.83943 3.35072 0
M  V30 15090 H 1499 3.77277 1.96323 0
M  V30 15091 N 1497.32 -0.429099 1.51646 0
M  V30 15092 C 1498.54 -1.20006 1.68541 0
M  V30 15093 C 1498.96 -1.84806 0.386264 0
M  V30 15094 O 1498.32 -1.7106 -0.635988 0
M  V30 15095 C 1498.37 -2.27801 2.80694 0
M  V30 15096 O 1498.09 -1.65649 4.05576 0
M  V30 15097 C 1499.59 -3.17927 3.08929 0
M  V30 15098 H 1496.81 -0.361388 0.565367 0
M  V30 15099 H 1499.35 -0.507432 1.98104 0
M  V30 15100 H 1497.51 -2.92766 2.53706 0
M  V30 15101 H 1497.92 -2.36955 4.67924 0
M  V30 15102 H 1499.4 -3.8968 3.90965 0
M  V30 15103 H 1499.87 -3.79157 2.21668 0
M  V30 15104 H 1500.48 -2.58654 3.37606 0
M  V30 15105 N 1498.79 -1.41931 -0.685074 0
M  V30 15106 C 1500.04 -1.41147 -1.44085 0
M  V30 15107 C 1500.36 -0.0275793 -1.95581 0
M  V30 15108 O 1501.56 0.102873 -2.71305 0
M  V30 15109 C 1500.02 -2.4823 -2.60596 0
M  V30 15110 C 1499.63 -3.92576 -2.15842 0
M  V30 15111 C 1501.37 -2.56597 -3.38169 0
M  V30 15112 C 1499.28 -4.91189 -3.29374 0
M  V30 15113 H 1498.21 -0.52494 -0.541252 0
M  V30 15114 H 1500.86 -1.67798 -0.7427 0
M  V30 15115 H 1499.24 -2.14727 -3.32729 0
M  V30 15116 H 1500.41 -4.35381 -1.50929 0
M  V30 15117 H 1498.73 -3.87965 -1.51235 0
M  V30 15118 H 1501.33 -3.27453 -4.22704 0
M  V30 15119 H 1501.67 -1.60618 -3.84067 0
M  V30 15120 H 1502.2 -2.89244 -2.73099 0
M  V30 15121 H 1498.94 -5.88609 -2.88477 0
M  V30 15122 H 1498.46 -4.53024 -3.93102 0
M  V30 15123 H 1500.14 -5.12433 -3.94996 0
M  V30 15124 N 1500.27 0.920374 -1.27933 0
M  V30 15125 C 1501.52 1.66338 -1.14081 0
M  V30 15126 C 1501.83 1.93107 0.311324 0
M  V30 15127 O 1503.04 2.65431 0.570862 0
M  V30 15128 C 1501.5 2.99624 -1.99383 0
M  V30 15129 C 1501.1 2.80527 -3.49297 0
M  V30 15130 C 1502.85 3.77474 -1.94199 0
M  V30 15131 C 1500.75 4.09413 -4.26773 0
M  V30 15132 H 1499.68 0.623935 -0.423346 0
M  V30 15133 H 1502.34 1.0219 -1.52412 0
M  V30 15134 H 1500.72 3.6487 -1.53902 0
M  V30 15135 H 1501.89 2.24002 -4.02691 0
M  V30 15136 H 1500.21 2.16097 -3.55937 0
M  V30 15137 H 1502.8 4.72997 -2.49356 0
M  V30 15138 H 1503.15 4.06069 -0.917249 0
M  V30 15139 H 1503.68 3.19036 -2.37614 0
M  V30 15140 H 1500.42 3.85994 -5.29801 0
M  V30 15141 H 1499.94 4.65574 -3.78155 0
M  V30 15142 H 1501.62 4.77721 -4.36339 0
M  V30 15143 N 1501.75 1.10074 1.1279 0
M  V30 15144 C 1503.17 0.831776 1.36212 0
M  V30 15145 C 1503.37 -0.550632 1.93831 0
M  V30 15146 O 1502.42 -1.30422 2.16209 0
M  V30 15147 C 1503.73 1.92844 2.3072 0
M  V30 15148 C 1505.28 1.95645 2.4432 0
M  V30 15149 C 1505.76 3.04474 3.4214 0
M  V30 15150 N 1507.25 3.03756 3.49695 0
M  V30 15151 C 1507.98 3.84605 4.25284 0
M  V30 15152 N 1507.48 4.7538 5.0397 0
M  V30 15153 N 1509.27 3.72838 4.20652 0
M  V30 15154 H 1501.42 1.99187 0.737452 0
M  V30 15155 H 1503.69 0.865383 0.387062 0
M  V30 15156 H 1503.39 2.92323 1.9555 0
M  V30 15157 H 1503.27 1.81241 3.30805 0
M  V30 15158 H 1505.65 0.968004 2.78772 0
M  V30 15159 H 1505.73 2.11325 1.44136 0
M  V30 15160 H 1505.38 4.03536 3.08418 0
M  V30 15161 H 1505.31 2.86036 4.42144 0
M  V30 15162 H 1507.8 2.37977 2.93556 0
M  V30 15163 H 1508.11 5.33637 5.58974 0
M  V30 15164 H 1506.46 4.79411 5.0318 0
M  V30 15165 H 1509.65 3.01276 3.5826 0
M  V30 15166 H 1509.82 4.36083 4.79308 0
M  V30 15167 N 1503.23 -1.30138 0.888926 0
M  V30 15168 C 1504.16 -2.27013 0.315904 0
M  V30 15169 C 1505.17 -1.53871 -0.531746 0
M  V30 15170 O 1506.36 -1.75022 -0.350654 0
M  V30 15171 C 1503.46 -3.34087 -0.569119 0
M  V30 15172 C 1502.63 -4.36683 0.250359 0
M  V30 15173 C 1501.69 -5.23149 -0.565783 0
M  V30 15174 O 1500.72 -5.69199 0.0129167 0
M  V30 15175 N 1501.92 -5.49416 -1.8741 0
M  V30 15176 H 1504.69 -2.76821 1.14848 0
M  V30 15177 H 1502.25 -1.43359 0.752311 0
M  V30 15178 H 1504.24 -3.88857 -1.12125 0
M  V30 15179 H 1502.81 -2.84178 -1.30237 0
M  V30 15180 H 1502.03 -3.81723 0.983931 0
M  V30 15181 H 1503.32 -5.02279 0.811964 0
M  V30 15182 H 1502.72 -5.13793 -2.36713 0
M  V30 15183 H 1501.27 -6.07045 -2.37359 0
M  V30 15184 N 1504.71 -0.650285 -1.43559 0
M  V30 15185 C 1505.98 -0.0925343 -1.95381 0
M  V30 15186 C 1506.36 1.38668 -1.59168 0
M  V30 15187 O 1505.71 2.11069 -0.875324 0
M  V30 15188 C 1505.92 -0.335657 -3.47382 0
M  V30 15189 C 1507.27 -0.239032 -4.23927 0
M  V30 15190 O 1508.29 -0.268056 -3.5519 0
M  V30 15191 O 1507.15 -0.160241 -5.46265 0
M  V30 15192 H 1504.25 0.0113084 -0.826923 0
M  V30 15193 H 1506.79 -0.723319 -1.53513 0
M  V30 15194 H 1505.56 -1.36132 -3.66857 0
M  V30 15195 H 1505.19 0.328339 -3.96242 0
M  V30 15196 N 1506.18 1.52647 -0.392018 0
M  V30 15197 C 1507.11 2.29446 0.433228 0
M  V30 15198 C 1508.09 1.32945 1.06111 0
M  V30 15199 O 1509.28 1.61841 1.07337 0
M  V30 15200 C 1506.41 3.10328 1.55929 0
M  V30 15201 C 1505.36 4.14735 1.05731 0
M  V30 15202 C 1504.69 4.83858 2.27565 0
M  V30 15203 C 1505.99 5.22154 0.123346 0
M  V30 15204 H 1507.68 2.9868 -0.207563 0
M  V30 15205 H 1505.23 1.43643 -0.101266 0
M  V30 15206 H 1507.18 3.62814 2.14346 0
M  V30 15207 H 1505.91 2.38832 2.22771 0
M  V30 15208 H 1504.57 3.63234 0.495653 0
M  V30 15209 H 1504.21 4.08907 2.92923 0
M  V30 15210 H 1503.91 5.54428 1.94637 0
M  V30 15211 H 1505.44 5.39149 2.86619 0
M  V30 15212 H 1506.85 5.69983 0.615784 0
M  V30 15213 H 1505.25 5.99987 -0.116304 0
M  V30 15214 H 1506.32 4.77796 -0.826969 0
M  V30 15215 N 1507.66 0.121921 1.57128 0
M  V30 15216 C 1508.91 -0.534313 1.94909 0
M  V30 15217 C 1509.23 -1.67029 1.0063 0
M  V30 15218 O 1508.5 -1.95798 0.0631366 0
M  V30 15219 H 1507.08 -0.200372 0.719625 0
M  V30 15220 H 1509.74 0.191546 1.93956 0
M  V30 15221 H 1508.84 -0.926974 2.98016 0
M  V30 15222 N 1509.14 -1.56867 -0.151857 0
M  V30 15223 C 1510.37 -1.87601 -0.884347 0
M  V30 15224 C 1510.79 -0.710419 -1.74168 0
M  V30 15225 O 1510.15 0.340103 -1.78081 0
M  V30 15226 C 1510.2 -3.16887 -1.72091 0
M  V30 15227 O 1509.3 -3.00479 -2.82464 0
M  V30 15228 H 1508.64 -0.616509 -0.246603 0
M  V30 15229 H 1511.17 -2.04092 -0.144135 0
M  V30 15230 H 1511.18 -3.48785 -2.11691 0
M  V30 15231 H 1509.86 -4.01327 -1.09131 0
M  V30 15232 H 1508.43 -2.79978 -2.46306 0
M  V30 15233 N 1510.62 0.421051 -1.51871 0
M  V30 15234 C 1512.03 1.00033 -1.5764 0
M  V30 15235 C 1512.38 1.91875 -0.409665 0
M  V30 15236 O 1511.51 2.11201 0.471516 0
M  V30 15237 C 1512.1 1.82099 -2.85701 0
M  V30 15238 C 1510.66 2.35049 -2.93988 0
M  V30 15239 C 1509.81 1.14703 -2.52465 0
M  V30 15240 H 1512.76 0.201715 -1.57413 0
M  V30 15241 H 1512.78 2.67719 -2.70382 0
M  V30 15242 H 1512.29 1.15229 -3.706 0
M  V30 15243 H 1510.39 3.05327 -2.13556 0
M  V30 15244 H 1510.5 2.66731 -3.97984 0
M  V30 15245 H 1508.87 1.49736 -2.06037 0
M  V30 15246 H 1509.65 0.494171 -3.39725 0
M  V30 15247 N 1512.1 1.42293 0.677538 0
M  V30 15248 C 1513.01 1.47953 1.82063 0
M  V30 15249 C 1514.02 0.36851 1.70053 0
M  V30 15250 O 1515.2 0.618996 1.91652 0
M  V30 15251 C 1512.26 1.3769 3.18186 0
M  V30 15252 C 1511.32 2.59261 3.42173 0
M  V30 15253 C 1510.56 2.49478 4.71801 0
M  V30 15254 O 1510.78 1.52915 5.49521 0
M  V30 15255 O 1509.71 3.39562 4.96972 0
M  V30 15256 H 1513.54 2.4443 1.80244 0
M  V30 15257 H 1511.13 1.24027 0.832932 0
M  V30 15258 H 1513.01 1.34319 3.9942 0
M  V30 15259 H 1511.68 0.443377 3.20649 0
M  V30 15260 H 1510.59 2.68207 2.60798 0
M  V30 15261 H 1511.92 3.51503 3.44538 0
M  V30 15262 N 1513.57 -0.913576 1.28419 0
M  V30 15263 C 1514.82 -1.65944 1.15355 0
M  V30 15264 C 1515.14 -1.92706 -0.298228 0
M  V30 15265 O 1514.41 -1.54333 -1.20657 0
M  V30 15266 H 1512.99 -0.615063 0.423919 0
M  V30 15267 H 1515.66 -1.0962 1.6115 0
M  V30 15268 H 1514.75 -2.62173 1.69327 0
M  V30 15269 N 1515.05 -1.1067 -1.12204 0
M  V30 15270 C 1516.3 -0.845439 -1.83126 0
M  V30 15271 C 1516.61 0.631022 -1.85142 0
M  V30 15272 O 1517.82 1.00827 -2.52084 0
M  V30 15273 C 1516.28 -1.46265 -3.28838 0
M  V30 15274 C 1515.88 -2.97258 -3.35174 0
M  V30 15275 C 1517.63 -1.28088 -4.04714 0
M  V30 15276 C 1515.54 -3.52002 -4.75235 0
M  V30 15277 H 1514.47 -0.312617 -0.686139 0
M  V30 15278 H 1517.12 -1.33098 -1.26321 0
M  V30 15279 H 1515.5 -0.904781 -3.85525 0
M  V30 15280 H 1516.67 -3.59381 -2.88413 0
M  V30 15281 H 1514.99 -3.14617 -2.72773 0
M  V30 15282 H 1517.58 -1.6643 -5.08139 0
M  V30 15283 H 1517.93 -0.222682 -4.15704 0
M  V30 15284 H 1518.46 -1.80696 -3.54392 0
M  V30 15285 H 1515.2 -4.57499 -4.69441 0
M  V30 15286 H 1514.72 -2.94648 -5.22439 0
M  V30 15287 H 1516.4 -3.49967 -5.4418 0
M  V30 15288 N 1516.53 1.29665 -0.895815 0
M  V30 15289 C 1517.49 2.26103 -0.3755 0
M  V30 15290 C 1518.49 1.53212 0.488126 0
M  V30 15291 O 1519.68 1.71706 0.293733 0
M  V30 15292 C 1516.82 3.37732 0.46364 0
M  V30 15293 H 1518.01 2.73643 -1.22718 0
M  V30 15294 H 1515.56 1.4104 -0.673613 0
M  V30 15295 H 1516.3 2.95526 1.33546 0
M  V30 15296 H 1516.08 3.91793 -0.155123 0
M  V30 15297 H 1517.57 4.09488 0.819112 0
M  V30 15298 N 1518.01 0.657889 1.43212 0
M  V30 15299 C 1519.25 0.173443 2.02057 0
M  V30 15300 C 1519.59 -1.21108 1.51811 0
M  V30 15301 O 1518.86 -1.80953 0.71317 0
M  V30 15302 C 1519.15 0.189429 3.59601 0
M  V30 15303 C 1519 1.6082 4.20068 0
M  V30 15304 C 1520.32 -0.471633 4.37566 0
M  V30 15305 H 1517.44 0.0644999 0.734172 0
M  V30 15306 H 1520.08 0.839462 1.7045 0
M  V30 15307 H 1518.23 -0.377689 3.8666 0
M  V30 15308 H 1519.9 2.22627 4.04024 0
M  V30 15309 H 1518.14 2.15407 3.7654 0
M  V30 15310 H 1518.81 1.5712 5.29167 0
M  V30 15311 H 1521.29 0.0109387 4.16099 0
M  V30 15312 H 1520.17 -0.429739 5.47215 0
M  V30 15313 H 1520.43 -1.54652 4.14168 0
M  V30 15314 N 1519.49 -1.52437 0.400108 0
M  V30 15315 C 1520.76 -1.94162 -0.23671 0
M  V30 15316 C 1521.14 -1.33636 -1.63416 0
M  V30 15317 O 1520.49 -0.508643 -2.22767 0
M  V30 15318 C 1520.7 -3.48088 -0.252159 0
M  V30 15319 C 1522.05 -4.21925 -0.475887 0
M  V30 15320 O 1523.07 -3.5465 -0.331905 0
M  V30 15321 O 1521.93 -5.41205 -0.758895 0
M  V30 15322 H 1519.03 -0.813294 -0.14994 0
M  V30 15323 H 1521.57 -1.63475 0.455399 0
M  V30 15324 H 1520.34 -3.84501 0.726263 0
M  V30 15325 H 1519.97 -3.8511 -0.988742 0
M  V30 15326 N 1520.96 -0.130252 -1.57061 0
M  V30 15327 C 1521.91 0.827158 -2.12467 0
M  V30 15328 C 1522.9 1.22069 -1.04824 0
M  V30 15329 O 1524.09 1.1899 -1.31036 0
M  V30 15330 C 1521.22 2.07284 -2.73657 0
M  V30 15331 C 1520.31 1.70317 -3.88398 0
M  V30 15332 N 1520.7 1.04082 -4.94975 0
M  V30 15333 C 1518.99 1.99701 -3.98793 0
M  V30 15334 C 1519.7 0.865016 -5.75232 0
M  V30 15335 N 1518.67 1.39359 -5.25433 0
M  V30 15336 H 1522.47 0.311706 -2.92242 0
M  V30 15337 H 1519.99 0.0718523 -1.62241 0
M  V30 15338 H 1521.98 2.76854 -3.11701 0
M  V30 15339 H 1520.64 2.59363 -1.95349 0
M  V30 15340 H 1521.66 0.703501 -5.131 0
M  V30 15341 H 1518.33 2.53747 -3.3154 0
M  V30 15342 H 1519.72 0.344255 -6.71018 0
M  V30 15343 N 1522.44 1.56945 0.143535 0
M  V30 15344 C 1523.37 2.0156 1.17881 0
M  V30 15345 C 1524.35 0.895744 1.44604 0
M  V30 15346 O 1525.54 1.16379 1.55466 0
M  V30 15347 C 1522.67 2.39915 2.51114 0
M  V30 15348 C 1521.62 3.55117 2.38905 0
M  V30 15349 C 1520.95 3.79296 3.7688 0
M  V30 15350 C 1522.25 4.87668 1.87021 0
M  V30 15351 H 1523.94 2.88296 0.80783 0
M  V30 15352 H 1521.49 1.38698 0.387149 0
M  V30 15353 H 1523.44 2.69727 3.23767 0
M  V30 15354 H 1522.17 1.5012 2.90055 0
M  V30 15355 H 1520.83 3.25476 1.68703 0
M  V30 15356 H 1520.47 2.86747 4.13262 0
M  V30 15357 H 1520.17 4.56827 3.69571 0
M  V30 15358 H 1521.7 4.11537 4.51076 0
M  V30 15359 H 1523.11 5.16176 2.4947 0
M  V30 15360 H 1521.51 5.69029 1.90594 0
M  V30 15361 H 1522.58 4.77811 0.82611 0
M  V30 15362 N 1523.92 -0.412991 1.52093 0
M  V30 15363 C 1525.17 -1.15801 1.65634 0
M  V30 15364 C 1525.49 -1.91127 0.386737 0
M  V30 15365 O 1524.76 -1.86541 -0.598262 0
M  V30 15366 H 1523.34 -0.430467 0.610498 0
M  V30 15367 H 1526 -0.471127 1.8912 0
M  V30 15368 H 1525.1 -1.87421 2.49559 0
M  V30 15369 N 1525.4 -1.4265 -0.669982 0
M  V30 15370 C 1526.82 -1.25682 -0.983682 0
M  V30 15371 C 1527.02 -0.164456 -2.00828 0
M  V30 15372 O 1526.07 0.462711 -2.48224 0
M  V30 15373 C 1527.38 -2.61536 -1.4839 0
M  V30 15374 C 1528.93 -2.6893 -1.60143 0
M  V30 15375 C 1529.41 -4.05162 -2.1356 0
M  V30 15376 N 1530.9 -4.07141 -2.20886 0
M  V30 15377 C 1531.63 -5.09371 -2.63303 0
M  V30 15378 N 1531.13 -6.21983 -3.05137 0
M  V30 15379 N 1532.92 -4.96727 -2.63094 0
M  V30 15380 H 1525.07 -2.12398 0.0083059 0
M  V30 15381 H 1527.34 -0.946173 -0.058823 0
M  V30 15382 H 1527.04 -3.42351 -0.805527 0
M  V30 15383 H 1526.92 -2.85786 -2.46183 0
M  V30 15384 H 1529.3 -1.88457 -2.27085 0
M  V30 15385 H 1529.38 -2.48463 -0.608266 0
M  V30 15386 H 1529.03 -4.86094 -1.47224 0
M  V30 15387 H 1528.96 -4.22984 -3.13676 0
M  V30 15388 H 1531.45 -3.25846 -1.91396 0
M  V30 15389 H 1531.76 -6.95835 -3.36204 0
M  V30 15390 H 1530.11 -6.25481 -3.02983 0
M  V30 15391 H 1533.3 -4.07824 -2.29777 0
M  V30 15392 H 1533.47 -5.76531 -2.95831 0
M  V30 15393 N 1526.88 0.906753 -1.28902 0
M  V30 15394 C 1527.83 2.03141 -1.13299 0
M  V30 15395 C 1528.82 1.69325 -0.0504114 0
M  V30 15396 O 1530.03 1.78774 -0.209696 0
M  V30 15397 H 1526.4 0.665709 -0.349766 0
M  V30 15398 H 1528.37 2.13441 -2.08531 0
M  V30 15399 C 1527.12 3.37918 -0.818935 0
M  V30 15400 H 1526.44 3.64437 -1.64395 0
M  V30 15401 H 1527.88 4.17318 -0.749753 0
M  V30 15402 C 1526.34 3.33498 0.477582 0
M  V30 15403 O 1526.87 3.7241 1.50578 0
M  V30 15404 N 1525.08 2.86594 0.480862 0
M  V30 15405 H 1524.63 2.55124 -0.356308 0
M  V30 15406 H 1524.58 2.84019 1.34835 0
M  V30 15407 N 1528.36 1.11264 1.11616 0
M  V30 15408 C 1529.6 0.855139 1.82675 0
M  V30 15409 C 1529.92 -0.621194 1.85474 0
M  V30 15410 O 1531.12 -0.994886 2.52615 0
M  V30 15411 C 1529.58 1.48007 3.28058 0
M  V30 15412 C 1529.19 2.99031 3.33593 0
M  V30 15413 C 1530.93 1.30233 4.04029 0
M  V30 15414 C 1528.84 3.54517 4.73362 0
M  V30 15415 H 1527.77 0.316252 0.684471 0
M  V30 15416 H 1530.42 1.33766 1.25614 0
M  V30 15417 H 1528.8 0.925214 3.8504 0
M  V30 15418 H 1529.98 3.60905 2.86503 0
M  V30 15419 H 1528.29 3.16059 2.711 0
M  V30 15420 H 1530.89 1.69122 5.07249 0
M  V30 15421 H 1531.23 0.244724 4.1558 0
M  V30 15422 H 1531.76 1.82573 3.53429 0
M  V30 15423 H 1528.5 4.59982 4.67008 0
M  V30 15424 H 1528.02 2.97414 5.20869 0
M  V30 15425 H 1529.7 3.52848 5.42316 0
M  V30 15426 N 1529.83 -1.29188 0.902679 0
M  V30 15427 C 1531.08 -1.95438 0.530124 0
M  V30 15428 C 1531.41 -1.71142 -0.924149 0
M  V30 15429 O 1530.66 -1.01901 -1.67077 0
M  V30 15430 C 1530.96 -3.48951 0.772542 0
M  V30 15431 C 1530.63 -3.93328 2.20464 0
M  V30 15432 C 1529.29 -4.05155 2.59621 0
M  V30 15433 C 1531.64 -4.16216 3.13709 0
M  V30 15434 C 1528.97 -4.37242 3.91198 0
M  V30 15435 C 1531.32 -4.49779 4.44839 0
M  V30 15436 C 1529.99 -4.59817 4.83865 0
M  V30 15437 H 1529.26 -0.715158 0.193986 0
M  V30 15438 H 1531.9 -1.5373 1.1419 0
M  V30 15439 H 1530.21 -3.91723 0.0778683 0
M  V30 15440 H 1531.91 -3.98311 0.463623 0
M  V30 15441 H 1528.5 -3.84641 1.89075 0
M  V30 15442 H 1532.68 -4.06542 2.8467 0
M  V30 15443 H 1527.94 -4.43217 4.21152 0
M  V30 15444 H 1532.11 -4.66439 5.17115 0
M  V30 15445 H 1529.74 -4.84435 5.85856 0
M  V30 15446 N 1531.31 -0.665475 -1.42861 0
M  V30 15447 C 1532.56 -0.192802 -2.02484 0
M  V30 15448 C 1532.91 1.18429 -1.51632 0
M  V30 15449 O 1532.21 1.78164 -0.704859 0
M  V30 15450 C 1532.4 -0.156963 -3.57055 0
M  V30 15451 C 1532.23 -1.52904 -4.22907 0
M  V30 15452 C 1531 -2.12449 -4.58469 0
M  V30 15453 C 1533.2 -2.46989 -4.51111 0
M  V30 15454 N 1531.18 -3.42535 -5.09454 0
M  V30 15455 C 1532.55 -3.6172 -5.03546 0
M  V30 15456 C 1534.6 -2.45637 -4.3309 0
M  V30 15457 C 1533.31 -4.75339 -5.39856 0
M  V30 15458 C 1535.33 -3.58346 -4.7047 0
M  V30 15459 C 1534.7 -4.71803 -5.2305 0
M  V30 15460 H 1530.79 -0.115261 -0.773459 0
M  V30 15461 H 1533.38 -0.87644 -1.73858 0
M  V30 15462 H 1531.55 0.496057 -3.85219 0
M  V30 15463 H 1533.28 0.327722 -4.03371 0
M  V30 15464 H 1530.04 -1.65033 -4.43916 0
M  V30 15465 H 1530.46 -4.09135 -5.39386 0
M  V30 15466 H 1535.1 -1.59152 -3.91702 0
M  V30 15467 H 1532.82 -5.62508 -5.80182 0
M  V30 15468 H 1536.41 -3.58516 -4.58211 0
M  V30 15469 H 1535.29 -5.57573 -5.51436 0
M  V30 15470 N 1532.79 1.52222 -0.408187 0
M  V30 15471 C 1534.02 2.06221 0.16743 0
M  V30 15472 C 1534.43 1.27832 1.3894 0
M  V30 15473 O 1533.79 0.329933 1.79493 0
M  V30 15474 C 1533.84 3.57758 0.518804 0
M  V30 15475 O 1533.56 4.33181 -0.654639 0
M  V30 15476 C 1535.06 4.28171 1.14825 0
M  V30 15477 H 1532.28 0.670677 0.0208054 0
M  V30 15478 H 1534.83 1.96136 -0.578868 0
M  V30 15479 H 1532.98 3.67854 1.215 0
M  V30 15480 H 1533.4 5.23252 -0.361558 0
M  V30 15481 H 1534.87 5.3538 1.34433 0
M  V30 15482 H 1535.35 3.84586 2.12108 0
M  V30 15483 H 1535.95 4.22441 0.492291 0
M  V30 15484 N 1534.27 0.138579 1.5699 0
M  V30 15485 C 1535.54 -0.559239 1.87435 0
M  V30 15486 C 1535.92 -1.83527 1.04312 0
M  V30 15487 O 1535.27 -2.28144 0.127531 0
M  V30 15488 C 1535.48 -0.83282 3.38918 0
M  V30 15489 C 1536.83 -1.1773 4.07952 0
M  V30 15490 O 1537.85 -0.92245 3.44048 0
M  V30 15491 O 1536.71 -1.6565 5.2079 0
M  V30 15492 H 1533.81 -0.284318 0.77659 0
M  V30 15493 H 1536.35 0.174558 1.688 0
M  V30 15494 H 1535.13 0.0706054 3.91236 0
M  V30 15495 H 1534.75 -1.62109 3.63051 0
M  V30 15496 N 1535.75 -1.57019 -0.13521 0
M  V30 15497 C 1536.97 -1.88528 -0.864399 0
M  V30 15498 C 1537.4 -0.728852 -1.73405 0
M  V30 15499 O 1536.75 0.321196 -1.78432 0
M  V30 15500 C 1536.8 -3.18694 -1.6872 0
M  V30 15501 O 1535.91 -3.03458 -2.79262 0
M  V30 15502 H 1535.25 -0.61909 -0.24005 0
M  V30 15503 H 1537.78 -2.04233 -0.12248 0
M  V30 15504 H 1537.79 -3.51011 -2.0798 0
M  V30 15505 H 1536.46 -4.02462 -1.04868 0
M  V30 15506 H 1535.04 -2.82575 -2.43323 0
M  V30 15507 N 1537.22 0.404919 -1.52309 0
M  V30 15508 C 1538.17 1.51412 -1.7657 0
M  V30 15509 C 1539.17 1.5713 -0.632983 0
M  V30 15510 O 1540.37 1.60486 -0.815121 0
M  V30 15511 H 1536.75 0.503636 -0.55844 0
M  V30 15512 H 1538.72 1.28137 -2.69488 0
M  V30 15513 C 1537.47 2.88733 -1.93722 0
M  V30 15514 H 1536.79 2.85078 -2.80304 0
M  V30 15515 H 1538.23 3.65626 -2.14695 0
M  V30 15516 C 1536.69 3.29431 -0.705444 0
M  V30 15517 O 1537.22 4.01506 0.124693 0
M  V30 15518 N 1535.43 2.85536 -0.540128 0
M  V30 15519 H 1534.97 2.27052 -1.21677 0
M  V30 15520 H 1534.93 3.13126 0.282723 0
M  V30 15521 N 1538.7 1.43003 0.662408 0
M  V30 15522 C 1539.63 1.50248 1.78739 0
M  V30 15523 C 1540.61 0.357934 1.66291 0
M  V30 15524 O 1541.8 0.573919 1.85526 0
M  V30 15525 C 1538.93 1.41618 3.17114 0
M  V30 15526 C 1537.88 2.54228 3.44314 0
M  V30 15527 C 1537.21 2.30653 4.82393 0
M  V30 15528 C 1538.51 3.96505 3.39972 0
M  V30 15529 H 1540.2 2.44406 1.72934 0
M  V30 15530 H 1537.75 1.17633 0.830569 0
M  V30 15531 H 1539.7 1.45293 3.9556 0
M  V30 15532 H 1538.43 0.439605 3.23628 0
M  V30 15533 H 1537.08 2.49891 2.68235 0
M  V30 15534 H 1536.73 1.3126 4.85572 0
M  V30 15535 H 1536.43 3.06134 5.01554 0
M  V30 15536 H 1537.96 2.36096 5.63108 0
M  V30 15537 H 1539.37 4.02378 4.08368 0
M  V30 15538 H 1537.77 4.71937 3.70668 0
M  V30 15539 H 1538.84 4.22295 2.38318 0
M  V30 15540 N 1540.18 -0.899904 1.29381 0
M  V30 15541 C 1541.46 -1.63067 1.08021 0
M  V30 15542 C 1541.84 -2.0773 -0.375716 0
M  V30 15543 O 1541.19 -1.83288 -1.36447 0
M  V30 15544 C 1541.4 -2.81163 2.06757 0
M  V30 15545 C 1542.74 -3.51854 2.37664 0
M  V30 15546 O 1543.77 -2.91332 2.0495 0
M  V30 15547 O 1542.63 -4.60962 2.93558 0
M  V30 15548 H 1539.72 -0.71601 0.413835 0
M  V30 15549 H 1542.27 -0.947991 1.40752 0
M  V30 15550 H 1541.04 -2.45355 3.04822 0
M  V30 15551 H 1540.66 -3.57137 1.74754 0
M  V30 15552 N 1541.66 -1.11854 -1.11024 0
M  V30 15553 C 1543.07 -0.853341 -1.34871 0
M  V30 15554 C 1543.27 0.519725 -1.94682 0
M  V30 15555 O 1542.33 1.26966 -2.18256 0
M  V30 15556 C 1543.64 -1.9649 -2.27623 0
M  V30 15557 C 1545.19 -1.99507 -2.41176 0
M  V30 15558 C 1545.67 -3.09879 -3.37253 0
M  V30 15559 N 1547.16 -3.09281 -3.44818 0
M  V30 15560 C 1547.89 -3.91322 -4.19111 0
M  V30 15561 N 1547.39 -4.83337 -4.96344 0
M  V30 15562 N 1549.18 -3.79483 -4.14667 0
M  V30 15563 H 1541.33 -2.00335 -0.70567 0
M  V30 15564 H 1543.6 -0.871431 -0.373245 0
M  V30 15565 H 1543.3 -2.95397 -1.90875 0
M  V30 15566 H 1543.18 -1.86481 -3.27879 0
M  V30 15567 H 1545.56 -1.01223 -2.77196 0
M  V30 15568 H 1545.64 -2.13592 -1.40756 0
M  V30 15569 H 1545.29 -4.08391 -3.01959 0
M  V30 15570 H 1545.22 -2.93033 -4.37537 0
M  V30 15571 H 1547.71 -2.42617 -2.89733 0
M  V30 15572 H 1548.02 -5.42462 -5.50413 0
M  V30 15573 H 1546.37 -4.87356 -4.95489 0
M  V30 15574 H 1549.56 -3.06938 -3.53421 0
M  V30 15575 H 1549.73 -4.43653 -4.72309 0
M  V30 15576 N 1543.14 1.28707 -0.909517 0
M  V30 15577 C 1544.39 1.94437 -0.536401 0
M  V30 15578 C 1544.7 1.72416 0.923685 0
M  V30 15579 O 1545.9 2.32333 1.40477 0
M  V30 15580 C 1544.36 3.48246 -0.908455 0
M  V30 15581 C 1543.97 3.79051 -2.38798 0
M  V30 15582 C 1545.71 4.20156 -0.605721 0
M  V30 15583 C 1543.62 5.2615 -2.70038 0
M  V30 15584 H 1542.55 0.727842 -0.196882 0
M  V30 15585 H 1545.2 1.46283 -1.10786 0
M  V30 15586 H 1543.58 3.95107 -0.265829 0
M  V30 15587 H 1544.76 3.43014 -3.07698 0
M  V30 15588 H 1543.07 3.20303 -2.66074 0
M  V30 15589 H 1545.67 5.28439 -0.815849 0
M  V30 15590 H 1546.01 4.13792 0.456266 0
M  V30 15591 H 1546.54 3.79059 -1.20662 0
M  V30 15592 H 1543.28 5.37587 -3.75073 0
M  V30 15593 H 1542.8 5.63399 -2.05771 0
M  V30 15594 H 1544.48 5.93846 -2.56819 0
M  V30 15595 N 1544.61 0.673042 1.42506 0
M  V30 15596 C 1545.52 -0.00648572 2.34599 0
M  V30 15597 C 1546.54 -0.790758 1.54994 0
M  V30 15598 O 1547.72 -0.733482 1.87569 0
M  V30 15599 C 1544.78 -0.94734 3.33506 0
M  V30 15600 C 1543.84 -0.157795 4.2901 0
M  V30 15601 C 1543.08 -1.05384 5.23192 0
M  V30 15602 O 1543.3 -2.29334 5.22266 0
M  V30 15603 O 1542.23 -0.515584 5.99688 0
M  V30 15604 H 1546.06 0.752059 2.94241 0
M  V30 15605 H 1543.64 0.433272 1.42979 0
M  V30 15606 H 1545.53 -1.4875 3.94273 0
M  V30 15607 H 1544.2 -1.68577 2.7634 0
M  V30 15608 H 1543.11 0.426426 3.71662 0
M  V30 15609 H 1544.44 0.54148 4.89212 0
M  V30 15610 N 1546.09 -1.52004 0.416254 0
M  V30 15611 C 1547.34 -2.02188 -0.157434 0
M  V30 15612 C 1547.67 -1.30097 -1.44182 0
M  V30 15613 O 1546.95 -0.409426 -1.90142 0
M  V30 15614 C 1547.23 -3.57896 -0.397847 0
M  V30 15615 C 1547.08 -4.40628 0.903715 0
M  V30 15616 C 1548.4 -4.24072 -1.17689 0
M  V30 15617 H 1545.52 -0.734889 -0.0557437 0
M  V30 15618 H 1548.16 -1.81831 0.551118 0
M  V30 15619 H 1546.31 -3.75372 -1.00142 0
M  V30 15620 H 1547.98 -4.34848 1.53964 0
M  V30 15621 H 1546.23 -4.06556 1.5131 0
M  V30 15622 H 1546.9 -5.47673 0.689802 0
M  V30 15623 H 1549.37 -4.10738 -0.665832 0
M  V30 15624 H 1548.25 -5.32944 -1.31386 0
M  V30 15625 H 1548.51 -3.83507 -2.19942 0
M  V30 15626 N 1547.57 -0.146903 -1.56914 0
M  V30 15627 C 1548.53 0.778709 -2.15566 0
M  V30 15628 C 1549.53 1.1753 -1.09742 0
M  V30 15629 O 1550.72 1.09624 -1.35382 0
M  V30 15630 C 1547.86 2.0567 -2.71869 0
M  V30 15631 H 1549.05 0.268506 -2.98696 0
M  V30 15632 H 1546.6 0.10254 -1.55963 0
M  V30 15633 H 1547.34 2.61057 -1.92405 0
M  V30 15634 H 1547.12 1.78154 -3.4929 0
M  V30 15635 H 1548.61 2.71779 -3.17059 0
M  V30 15636 N 1549.05 1.57088 0.126881 0
M  V30 15637 C 1550 1.99764 1.15599 0
M  V30 15638 C 1550.97 0.868468 1.41587 0
M  V30 15639 O 1552.15 1.13209 1.53585 0
M  V30 15640 C 1549.29 2.40038 2.47943 0
M  V30 15641 C 1548.4 3.66336 2.28958 0
M  V30 15642 C 1547.54 3.95626 3.54477 0
M  V30 15643 C 1546.58 5.15131 3.30616 0
M  V30 15644 N 1545.71 5.4033 4.48317 0
M  V30 15645 H 1550.55 2.87473 0.785078 0
M  V30 15646 H 1548.09 1.42209 0.376169 0
M  V30 15647 H 1550.05 2.61423 3.25136 0
M  V30 15648 H 1548.68 1.55382 2.82942 0
M  V30 15649 H 1547.73 3.52612 1.4272 0
M  V30 15650 H 1549.04 4.53684 2.07298 0
M  V30 15651 H 1548.2 4.17617 4.40092 0
M  V30 15652 H 1546.94 3.06738 3.79161 0
M  V30 15653 H 1545.94 4.92992 2.43391 0
M  V30 15654 H 1547.17 6.05588 3.0731 0
M  V30 15655 H 1545.11 4.54399 4.73136 0
M  V30 15656 H 1545.03 6.21985 4.29733 0
M  V30 15657 H 1546.3 5.66835 5.35088 0
M  V30 15658 N 1550.53 -0.396836 1.52522 0
M  V30 15659 C 1551.46 -1.49088 1.79708 0
M  V30 15660 C 1552.44 -1.57246 0.648678 0
M  V30 15661 O 1553.62 -1.72321 0.895495 0
M  V30 15662 C 1550.75 -2.86785 1.95887 0
M  V30 15663 C 1549.71 -2.93472 3.11542 0
M  V30 15664 C 1549.03 -4.33542 3.12963 0
M  V30 15665 C 1550.33 -2.63832 4.50766 0
M  V30 15666 H 1552.03 -1.26588 2.71322 0
M  V30 15667 H 1549.57 -0.607535 1.30557 0
M  V30 15668 H 1551.53 -3.63319 2.13489 0
M  V30 15669 H 1550.25 -3.10605 1.00955 0
M  V30 15670 H 1548.91 -2.19384 2.93711 0
M  V30 15671 H 1548.56 -4.5439 2.15729 0
M  V30 15672 H 1548.26 -4.38938 3.9065 0
M  V30 15673 H 1549.78 -5.11993 3.32709 0
M  V30 15674 H 1551.19 -3.30086 4.68739 0
M  V30 15675 H 1549.59 -2.80589 5.30462 0
M  V30 15676 H 1550.66 -1.59209 4.58018 0
M  V30 15677 N 1552.01 -1.43353 -0.654814 0
M  V30 15678 C 1553.28 -1.35363 -1.41195 0
M  V30 15679 C 1553.66 -0.000661523 -2.111 0
M  V30 15680 O 1553.01 1.01583 -2.04678 0
M  V30 15681 C 1553.22 -2.53572 -2.39796 0
M  V30 15682 C 1554.57 -2.96587 -3.03844 0
M  V30 15683 O 1555.59 -2.53607 -2.50124 0
M  V30 15684 O 1554.45 -3.71039 -4.01239 0
M  V30 15685 H 1551.55 -0.534861 -0.630756 0
M  V30 15686 H 1554.09 -1.55399 -0.681857 0
M  V30 15687 H 1552.86 -3.43682 -1.87078 0
M  V30 15688 H 1552.49 -2.35628 -3.20258 0
M  V30 15689 N 1553.48 0.89303 -1.29857 0
M  V30 15690 C 1554.73 1.64088 -1.17981 0
M  V30 15691 C 1555.05 1.93156 0.267533 0
M  V30 15692 O 1554.32 1.56233 1.18186 0
M  V30 15693 H 1552.9 0.608241 -0.43365 0
M  V30 15694 H 1555.56 1.07042 -1.62874 0
M  V30 15695 H 1554.66 2.59446 -1.73477 0
M  V30 15696 N 1554.96 1.12442 1.10429 0
M  V30 15697 C 1556.19 0.902599 1.86174 0
M  V30 15698 C 1556.6 -0.548147 1.80668 0
M  V30 15699 O 1555.96 -1.37898 1.19543 0
M  V30 15700 C 1556.01 1.36912 3.34571 0
M  V30 15701 O 1555.73 2.763 3.39985 0
M  V30 15702 C 1557.23 1.18424 4.27189 0
M  V30 15703 H 1554.45 0.322534 0.588399 0
M  V30 15704 H 1557 1.49439 1.396 0
M  V30 15705 H 1555.15 0.82055 3.7861 0
M  V30 15706 H 1555.57 2.96772 4.32466 0
M  V30 15707 H 1557.04 1.55954 5.29511 0
M  V30 15708 H 1557.52 0.12483 4.39023 0
M  V30 15709 H 1558.12 1.72032 3.88954 0
M  V30 15710 N 1556.44 -1.28223 0.91633 0
M  V30 15711 C 1557.37 -2.26291 0.363986 0
M  V30 15712 C 1558.38 -1.54964 -0.498988 0
M  V30 15713 O 1559.57 -1.75726 -0.31345 0
M  V30 15714 C 1556.67 -3.35219 -0.498126 0
M  V30 15715 C 1555.85 -4.36054 0.34293 0
M  V30 15716 C 1554.91 -5.24232 -0.454688 0
M  V30 15717 O 1553.93 -5.69043 0.133649 0
M  V30 15718 N 1555.13 -5.53268 -1.75714 0
M  V30 15719 H 1557.9 -2.74323 1.20694 0
M  V30 15720 H 1555.46 -1.41731 0.782551 0
M  V30 15721 H 1557.45 -3.91148 -1.03852 0
M  V30 15722 H 1556.02 -2.86876 -1.2418 0
M  V30 15723 H 1555.24 -3.7955 1.06468 0
M  V30 15724 H 1556.53 -5.00444 0.918322 0
M  V30 15725 H 1555.93 -5.18698 -2.25762 0
M  V30 15726 H 1554.48 -6.11943 -2.2443 0
M  V30 15727 N 1557.92 -0.68059 -1.42147 0
M  V30 15728 C 1559.33 -0.350691 -1.55699 0
M  V30 15729 C 1559.53 1.1435 -1.6591 0
M  V30 15730 O 1558.59 1.92905 -1.62923 0
M  V30 15731 C 1559.9 -1.08608 -2.80401 0
M  V30 15732 C 1561.45 -1.06897 -2.9418 0
M  V30 15733 C 1561.93 -1.78581 -4.2175 0
M  V30 15734 N 1563.42 -1.75477 -4.28675 0
M  V30 15735 C 1564.15 -2.27794 -5.26211 0
M  V30 15736 N 1563.65 -2.88518 -6.29865 0
M  V30 15737 N 1565.44 -2.18135 -5.18048 0
M  V30 15738 H 1557.59 -1.64988 -1.33763 0
M  V30 15739 H 1559.85 -0.695411 -0.644289 0
M  V30 15740 H 1559.56 -2.14113 -2.79014 0
M  V30 15741 H 1559.43 -0.655022 -3.71469 0
M  V30 15742 H 1561.82 -0.0222464 -2.95092 0
M  V30 15743 H 1561.9 -1.53897 -2.04327 0
M  V30 15744 H 1561.55 -2.83225 -4.21599 0
M  V30 15745 H 1561.48 -1.29027 -5.10548 0
M  V30 15746 H 1563.97 -1.31191 -3.54397 0
M  V30 15747 H 1564.28 -3.26043 -7.00654 0
M  V30 15748 H 1562.63 -2.92589 -6.3041 0
M  V30 15749 H 1565.82 -1.7038 -4.35991 0
M  V30 15750 H 1565.99 -2.59213 -5.93896 0
M  V30 15751 N 1559.4 1.51781 -0.424309 0
M  V30 15752 C 1560.81 1.59419 -0.0759329 0
M  V30 15753 C 1561.01 1.43616 1.41339 0
M  V30 15754 O 1560.07 1.27078 2.18191 0
M  V30 15755 C 1561.38 2.94966 -0.584411 0
M  V30 15756 C 1562.93 3.08241 -0.54371 0
M  V30 15757 C 1563.4 4.46292 -1.02895 0
M  V30 15758 N 1564.89 4.52575 -0.986392 0
M  V30 15759 C 1565.63 5.57694 -1.33286 0
M  V30 15760 N 1565.13 6.70293 -1.75154 0
M  V30 15761 N 1566.92 5.47983 -1.25186 0
M  V30 15762 H 1559.07 1.60299 -1.39349 0
M  V30 15763 H 1561.33 0.75492 -0.573411 0
M  V30 15764 H 1561.04 3.11859 -1.62593 0
M  V30 15765 H 1560.91 3.772 -0.00224435 0
M  V30 15766 H 1563.3 2.91024 0.488798 0
M  V30 15767 H 1563.38 2.27878 -1.16212 0
M  V30 15768 H 1563.02 4.64255 -2.05986 0
M  V30 15769 H 1562.95 5.25175 -0.387202 0
M  V30 15770 H 1565.45 3.71754 -0.678765 0
M  V30 15771 H 1565.76 7.46508 -1.99863 0
M  V30 15772 H 1564.1 6.71535 -1.79071 0
M  V30 15773 H 1567.29 4.58899 -0.923525 0
M  V30 15774 H 1567.47 6.29796 -1.52517 0
M  V30 15775 N 1560.87 0.155222 1.56834 0
M  V30 15776 C 1562.12 -0.494557 1.96677 0
M  V30 15777 C 1562.45 -1.63973 1.04051 0
M  V30 15778 O 1561.73 -1.94316 0.0844791 0
M  V30 15779 C 1562.01 -0.992902 3.46141 0
M  V30 15780 C 1561.86 0.151335 4.49545 0
M  V30 15781 C 1563.18 -1.87197 3.98303 0
M  V30 15782 H 1560.3 -0.178298 0.715107 0
M  V30 15783 H 1562.94 0.23811 1.88502 0
M  V30 15784 H 1561.09 -1.61724 3.53239 0
M  V30 15785 H 1562.77 0.787945 4.54521 0
M  V30 15786 H 1561.01 0.809262 4.26185 0
M  V30 15787 H 1561.68 -0.23921 5.51481 0
M  V30 15788 H 1564.16 -1.34578 3.93736 0
M  V30 15789 H 1563.03 -2.18972 5.03331 0
M  V30 15790 H 1563.29 -2.81191 3.41151 0
M  V30 15791 N 1562.35 -1.57153 -0.118549 0
M  V30 15792 C 1563.28 -2.03409 -1.1466 0
M  V30 15793 C 1564.26 -0.918636 -1.43161 0
M  V30 15794 O 1565.45 -1.18838 -1.53594 0
M  V30 15795 C 1562.58 -2.43879 -2.47265 0
M  V30 15796 C 1561.53 -3.58873 -2.33225 0
M  V30 15797 C 1560.86 -3.85244 -3.70798 0
M  V30 15798 C 1562.16 -4.90582 -1.79239 0
M  V30 15799 H 1563.85 -2.89545 -0.761862 0
M  V30 15800 H 1561.4 -1.39296 -0.365034 0
M  V30 15801 H 1563.35 -2.74844 -3.19435 0
M  V30 15802 H 1562.07 -1.54715 -2.8763 0
M  V30 15803 H 1560.73 -3.28119 -1.63504 0
M  V30 15804 H 1560.38 -2.93285 -4.08648 0
M  V30 15805 H 1560.08 -4.62649 -3.62257 0
M  V30 15806 H 1561.61 -4.18661 -4.44472 0
M  V30 15807 H 1563.02 -5.20079 -2.41227 0
M  V30 15808 H 1561.42 -5.71989 -1.81518 0
M  V30 15809 H 1562.49 -4.79065 -0.74999 0
M  V30 15810 N 1563.83 0.388742 -1.5273 0
M  V30 15811 C 1565.08 1.13375 -1.67787 0
M  V30 15812 C 1565.4 1.89957 -0.417925 0
M  V30 15813 O 1564.66 1.86286 0.599682 0
M  V30 15814 C 1564.96 2.13792 -2.86405 0
M  V30 15815 C 1564.62 1.53865 -4.23835 0
M  V30 15816 C 1563.29 1.37248 -4.61212 0
M  V30 15817 C 1565.64 1.10298 -5.09395 0
M  V30 15818 C 1562.97 0.756119 -5.81807 0
M  V30 15819 C 1565.32 0.500723 -6.30615 0
M  V30 15820 C 1563.98 0.321851 -6.66724 0
M  V30 15821 H 1563.25 0.414868 -0.613975 0
M  V30 15822 H 1565.9 0.418351 -1.86874 0
M  V30 15823 H 1564.2 2.91551 -2.61735 0
M  V30 15824 H 1565.9 2.71346 -2.95249 0
M  V30 15825 H 1562.49 1.67787 -3.94393 0
M  V30 15826 H 1566.68 1.21938 -4.81087 0
M  V30 15827 H 1561.93 0.605734 -6.08392 0
M  V30 15828 H 1566.11 0.154839 -6.96228 0
M  V30 15829 H 1563.73 -0.157836 -7.60036 0
M  V30 15830 N 1565.31 1.43698 0.647203 0
M  V30 15831 C 1566.22 1.51781 1.78884 0
M  V30 15832 C 1567.23 0.404498 1.69233 0
M  V30 15833 O 1568.41 0.659509 1.90296 0
M  V30 15834 C 1565.47 1.44408 3.15194 0
M  V30 15835 C 1564.54 2.6646 3.36597 0
M  V30 15836 C 1563.77 2.59429 4.66403 0
M  V30 15837 O 1563.99 1.64537 5.46154 0
M  V30 15838 O 1562.93 3.50027 4.89658 0
M  V30 15839 H 1566.75 2.48198 1.75019 0
M  V30 15840 H 1564.34 1.25766 0.806436 0
M  V30 15841 H 1566.22 1.42761 3.96481 0
M  V30 15842 H 1564.89 0.511292 3.19637 0
M  V30 15843 H 1563.8 2.73679 2.5505 0
M  V30 15844 H 1565.13 3.58732 3.37005 0
M  V30 15845 N 1566.79 -0.886131 1.30328 0
M  V30 15846 C 1568.01 -1.67099 1.22007 0
M  V30 15847 C 1568.43 -1.87546 -0.217255 0
M  V30 15848 O 1567.79 -1.42213 -1.14375 0
M  V30 15849 C 1567.84 -3.048 1.94368 0
M  V30 15850 O 1567.56 -2.85277 3.32489 0
M  V30 15851 C 1569.06 -3.99231 1.9269 0
M  V30 15852 H 1566.28 -0.521467 0.422271 0
M  V30 15853 H 1568.82 -1.1072 1.71934 0
M  V30 15854 H 1566.98 -3.57915 1.48242 0
M  V30 15855 H 1567.39 -3.72626 3.69121 0
M  V30 15856 H 1568.87 -4.93223 2.47861 0
M  V30 15857 H 1569.34 -4.29763 0.905558 0
M  V30 15858 H 1569.95 -3.52051 2.38621 0
M  V30 15859 N 1568.26 -1.13026 -1.09832 0
M  V30 15860 C 1569.54 -0.800667 -1.78462 0
M  V30 15861 C 1569.92 0.708508 -1.98855 0
M  V30 15862 O 1569.27 1.64436 -1.58661 0
M  V30 15863 C 1569.48 -1.58284 -3.11042 0
M  V30 15864 C 1570.83 -1.77285 -3.85818 0
M  V30 15865 O 1571.85 -1.54848 -3.20781 0
M  V30 15866 O 1570.71 -2.14693 -5.02563 0
M  V30 15867 H 1567.8 -0.291895 -0.773774 0
M  V30 15868 H 1570.35 -1.23464 -1.16425 0
M  V30 15869 H 1569.12 -2.60867 -2.91657 0
M  V30 15870 H 1568.75 -1.14353 -3.80801 0
M  V30 15871 N 1569.74 1.27735 -0.923117 0
M  V30 15872 C 1570.67 2.29395 -0.435907 0
M  V30 15873 C 1571.65 1.62542 0.501403 0
M  V30 15874 O 1572.84 1.89884 0.407135 0
M  V30 15875 C 1569.97 3.45856 0.316348 0
M  V30 15876 C 1568.92 4.24672 -0.532697 0
M  V30 15877 C 1568.25 5.33563 0.348454 0
M  V30 15878 C 1569.55 4.90494 -1.79481 0
M  V30 15879 H 1571.24 2.70398 -1.28551 0
M  V30 15880 H 1568.79 1.29989 -0.619581 0
M  V30 15881 H 1570.74 4.1607 0.668098 0
M  V30 15882 H 1569.47 3.03758 1.19994 0
M  V30 15883 H 1568.12 3.56198 -0.867093 0
M  V30 15884 H 1567.77 4.87708 1.23086 0
M  V30 15885 H 1567.47 5.87202 -0.216104 0
M  V30 15886 H 1569 6.06622 0.695878 0
M  V30 15887 H 1570.41 5.53019 -1.5114 0
M  V30 15888 H 1568.81 5.5417 -2.30251 0
M  V30 15889 H 1569.88 4.14454 -2.51707 0
M  V30 15890 N 1571.22 0.688118 1.41784 0
M  V30 15891 C 1572.47 0.216263 2.01644 0
M  V30 15892 C 1572.8 -1.17861 1.54345 0
M  V30 15893 O 1572.07 -1.794 0.751392 0
M  V30 15894 C 1572.36 0.265663 3.59119 0
M  V30 15895 C 1572.21 1.69694 4.16562 0
M  V30 15896 C 1573.53 -0.378713 4.38468 0
M  V30 15897 H 1570.65 0.0800582 0.732639 0
M  V30 15898 H 1573.29 0.875428 1.68631 0
M  V30 15899 H 1571.44 -0.295588 3.87374 0
M  V30 15900 H 1573.11 2.31146 3.9921 0
M  V30 15901 H 1571.36 2.23345 3.71886 0
M  V30 15902 H 1572.03 1.68309 5.25715 0
M  V30 15903 H 1574.5 0.0991969 4.15982 0
M  V30 15904 H 1573.38 -0.31357 5.48004 0
M  V30 15905 H 1573.64 -1.45832 4.17355 0
M  V30 15906 N 1572.7 -1.51554 0.432352 0
M  V30 15907 C 1573.65 -2.29204 -0.396044 0
M  V30 15908 C 1574.64 -1.34846 -1.02532 0
M  V30 15909 O 1575.85 -1.52209 -0.960861 0
M  V30 15910 H 1572.22 -0.737587 -0.146525 0
M  V30 15911 H 1574.19 -2.97085 0.279781 0
M  V30 15912 C 1572.94 -3.1427 -1.4876 0
M  V30 15913 H 1572.26 -3.8676 -1.01274 0
M  V30 15914 H 1573.7 -3.71667 -2.04058 0
M  V30 15915 C 1572.16 -2.29322 -2.46806 0
M  V30 15916 O 1572.69 -1.94941 -3.51228 0
M  V30 15917 N 1570.9 -1.92641 -2.17573 0
M  V30 15918 H 1570.45 -2.208 -1.32685 0
M  V30 15919 H 1570.4 -1.361 -2.83415 0
M  V30 15920 N 1574.18 -0.163538 -1.56749 0
M  V30 15921 C 1575.59 0.354516 -1.83303 0
M  V30 15922 C 1575.94 1.63601 -1.08301 0
M  V30 15923 O 1575.06 2.13814 -0.333546 0
M  V30 15924 C 1575.66 0.649983 -3.32507 0
M  V30 15925 C 1574.22 1.1125 -3.59584 0
M  V30 15926 C 1573.36 0.144257 -2.76925 0
M  V30 15927 H 1576.32 -0.387945 -1.53885 0
M  V30 15928 H 1576.34 1.5029 -3.49562 0
M  V30 15929 H 1575.85 -0.282886 -3.87068 0
M  V30 15930 H 1573.95 2.06074 -3.10426 0
M  V30 15931 H 1574.06 1.02704 -4.67962 0
M  V30 15932 H 1572.43 0.640116 -2.46525 0
M  V30 15933 H 1573.21 -0.782495 -3.34263 0
M  V30 15934 N 1575.65 1.57214 0.110213 0
M  V30 15935 C 1577.07 1.52706 0.464004 0
M  V30 15936 C 1577.27 0.87792 1.81369 0
M  V30 15937 O 1576.33 0.463987 2.482 0
M  V30 15938 C 1577.64 2.97457 0.440406 0
M  V30 15939 C 1579.19 3.08594 0.523336 0
M  V30 15940 C 1579.66 4.54923 0.53004 0
M  V30 15941 N 1581.15 4.59411 0.591228 0
M  V30 15942 C 1581.89 5.7006 0.618007 0
M  V30 15943 N 1581.38 6.9018 0.601901 0
M  V30 15944 N 1583.18 5.58192 0.661679 0
M  V30 15945 H 1575.33 1.97794 -0.77403 0
M  V30 15946 H 1577.59 0.903673 -0.286496 0
M  V30 15947 H 1577.3 3.48356 -0.483845 0
M  V30 15948 H 1577.17 3.55356 1.26498 0
M  V30 15949 H 1579.56 2.57692 1.43801 0
M  V30 15950 H 1579.64 2.53674 -0.329095 0
M  V30 15951 H 1579.28 5.06472 -0.380623 0
M  V30 15952 H 1579.21 5.07663 1.39948 0
M  V30 15953 H 1581.7 3.72953 0.609483 0
M  V30 15954 H 1582.02 7.70267 0.6252 0
M  V30 15955 H 1580.36 6.92665 0.569186 0
M  V30 15956 H 1583.55 4.63256 0.671686 0
M  V30 15957 H 1583.73 6.44432 0.67908 0
M  V30 15958 N 1577.13 -0.380637 1.52934 0
M  V30 15959 C 1578.38 -1.12261 1.68053 0
M  V30 15960 C 1578.7 -1.90263 0.427191 0
M  V30 15961 O 1577.97 -1.87768 -0.558559 0
M  V30 15962 H 1576.55 -0.41742 0.619491 0
M  V30 15963 H 1579.21 -0.430906 1.90077 0
M  V30 15964 H 1578.31 -1.82085 2.53479 0
M  V30 15965 N 1578.61 -1.44039 -0.639573 0
M  V30 15966 C 1579.86 -1.4566 -1.39521 0
M  V30 15967 C 1580.17 -0.0897878 -1.95394 0
M  V30 15968 O 1581.38 0.0165074 -2.71495 0
M  V30 15969 C 1579.83 -2.56395 -2.52566 0
M  V30 15970 C 1579.44 -3.99245 -2.03243 0
M  V30 15971 C 1581.19 -2.67226 -3.29834 0
M  V30 15972 C 1579.09 -5.01419 -3.1358 0
M  V30 15973 H 1578.02 -0.541894 -0.524277 0
M  V30 15974 H 1580.67 -1.70076 -0.688941 0
M  V30 15975 H 1579.06 -2.25204 -3.25729 0
M  V30 15976 H 1580.23 -4.39963 -1.37002 0
M  V30 15977 H 1578.55 -3.9258 -1.38816 0
M  V30 15978 H 1581.14 -3.40736 -4.12072 0
M  V30 15979 H 1581.49 -1.72756 -3.78763 0
M  V30 15980 H 1582.02 -2.97786 -2.63758 0
M  V30 15981 H 1578.76 -5.97489 -2.69605 0
M  V30 15982 H 1578.28 -4.65301 -3.7849 0
M  V30 15983 H 1579.96 -5.2474 -3.78493 0
M  V30 15984 N 1580.09 0.879207 -1.30796 0
M  V30 15985 C 1581.33 1.63392 -1.20129 0
M  V30 15986 C 1581.67 1.92684 0.242164 0
M  V30 15987 O 1580.94 1.55188 1.17247 0
M  V30 15988 C 1581.23 2.97005 -2.03618 0
M  V30 15989 C 1581.08 2.74649 -3.56214 0
M  V30 15990 C 1582.4 3.97998 -1.87845 0
M  V30 15991 H 1579.52 0.592911 -0.437751 0
M  V30 15992 H 1582.16 1.017 -1.6049 0
M  V30 15993 H 1580.31 3.49659 -1.69326 0
M  V30 15994 H 1581.98 2.28738 -4.00595 0
M  V30 15995 H 1580.22 2.09048 -3.80107 0
M  V30 15996 H 1580.89 3.69681 -4.09927 0
M  V30 15997 H 1583.37 3.54523 -2.17836 0
M  V30 15998 H 1582.25 4.89388 -2.48578 0
M  V30 15999 H 1582.51 4.34062 -0.839183 0
M  V30 16000 N 1581.57 1.13606 1.09231 0
M  V30 16001 C 1582.8 0.922295 1.85206 0
M  V30 16002 C 1583.21 -0.528954 1.81239 0
M  V30 16003 O 1582.57 -1.36622 1.20999 0
M  V30 16004 C 1582.62 1.40453 3.331 0
M  V30 16005 O 1582.34 2.7989 3.37036 0
M  V30 16006 C 1583.84 1.22948 4.25909 0
M  V30 16007 H 1581.06 0.328757 0.584945 0
M  V30 16008 H 1583.6 1.50911 1.38007 0
M  V30 16009 H 1581.76 0.86066 3.77719 0
M  V30 16010 H 1582.17 3.01342 4.29294 0
M  V30 16011 H 1583.65 1.61562 5.27827 0
M  V30 16012 H 1584.12 0.171387 4.38865 0
M  V30 16013 H 1584.73 1.76147 3.87108 0
M  V30 16014 N 1583.05 -1.27244 0.929878 0
M  V30 16015 C 1584.32 -1.89369 0.489774 0
M  V30 16016 C 1584.7 -1.84142 -1.03222 0
M  V30 16017 O 1584.05 -1.2881 -1.88733 0
M  V30 16018 C 1584.26 -3.33196 1.03833 0
M  V30 16019 C 1585.61 -4.101 1.10013 0
M  V30 16020 O 1586.63 -3.42221 0.988106 0
M  V30 16021 O 1585.49 -5.31468 1.27296 0
M  V30 16022 H 1582.59 -0.811789 0.157882 0
M  V30 16023 H 1585.13 -1.35496 1.02171 0
M  V30 16024 H 1583.9 -3.31304 2.08214 0
M  V30 16025 H 1583.53 -3.94592 0.488167 0
M  V30 16026 N 1584.52 -0.695628 -1.41417 0
M  V30 16027 C 1585.75 -0.234163 -2.06074 0
M  V30 16028 C 1586.17 1.10796 -1.52006 0
M  V30 16029 O 1585.53 1.6936 -0.64705 0
M  V30 16030 C 1585.58 -0.202353 -3.60032 0
M  V30 16031 O 1584.68 0.822767 -4.04109 0
M  V30 16032 H 1584.02 -0.114395 -0.654072 0
M  V30 16033 H 1586.55 -0.950503 -1.81181 0
M  V30 16034 H 1586.56 -0.0332321 -4.07986 0
M  V30 16035 H 1585.24 -1.18188 -3.98754 0
M  V30 16036 H 1583.82 0.622995 -3.67659 0
M  V30 16037 N 1586 1.51322 -0.440383 0
M  V30 16038 C 1587.25 2.02413 0.125248 0
M  V30 16039 C 1587.58 1.32374 1.42094 0
M  V30 16040 O 1586.86 0.439624 1.89467 0
M  V30 16041 C 1587.14 3.58483 0.340858 0
M  V30 16042 C 1586.99 4.39134 -0.973701 0
M  V30 16043 C 1588.31 4.25891 1.10927 0
M  V30 16044 H 1585.43 0.735683 0.0440452 0
M  V30 16045 H 1588.07 1.80932 -0.579976 0
M  V30 16046 H 1586.22 3.76917 0.941572 0
M  V30 16047 H 1587.89 4.32343 -1.60863 0
M  V30 16048 H 1586.14 4.04097 -1.57759 0
M  V30 16049 H 1586.81 5.46506 -0.776845 0
M  V30 16050 H 1589.28 4.11746 0.600403 0
M  V30 16051 H 1588.16 5.34967 1.2289 0
M  V30 16052 H 1588.42 3.86958 2.13813 0
M  V30 16053 N 1587.48 0.171848 1.5666 0
M  V30 16054 C 1588.9 -0.184312 1.58532 0
M  V30 16055 C 1589.1 -1.62811 1.18721 0
M  V30 16056 O 1588.15 -2.35951 0.899066 0
M  V30 16057 C 1589.46 0.0969826 3.00544 0
M  V30 16058 C 1591.01 0.0352364 3.1298 0
M  V30 16059 C 1591.49 0.289528 4.57084 0
M  V30 16060 N 1592.98 0.237322 4.62592 0
M  V30 16061 C 1593.71 0.408247 5.71945 0
M  V30 16062 N 1593.21 0.638256 6.89854 0
M  V30 16063 N 1595 0.344115 5.61046 0
M  V30 16064 H 1587.15 1.11427 1.80825 0
M  V30 16065 H 1589.42 0.44302 0.838115 0
M  V30 16066 H 1589.12 1.09717 3.34148 0
M  V30 16067 H 1589 -0.611157 3.72216 0
M  V30 16068 H 1591.38 -0.955531 2.79202 0
M  V30 16069 H 1591.46 0.776095 2.43743 0
M  V30 16070 H 1591.11 1.27751 4.91571 0
M  V30 16071 H 1591.04 -0.471948 5.24481 0
M  V30 16072 H 1593.53 0.0652142 3.77844 0
M  V30 16073 H 1593.84 0.758116 7.69072 0
M  V30 16074 H 1592.19 0.674877 6.91716 0
M  V30 16075 H 1595.38 0.165008 4.67809 0
M  V30 16076 H 1595.55 0.480749 6.46214 0
M  V30 16077 N 1588.96 -1.5727 -0.101874 0
M  V30 16078 C 1590.21 -1.85375 -0.805007 0
M  V30 16079 C 1590.53 -0.759564 -1.79599 0
M  V30 16080 O 1589.8 0.21484 -1.94718 0
M  V30 16081 H 1588.38 -0.683987 -0.300284 0
M  V30 16082 H 1591.04 -1.94714 -0.0851166 0
M  V30 16083 H 1590.13 -2.81881 -1.33976 0
M  V30 16084 N 1590.44 0.372521 -1.53134 0
M  V30 16085 C 1591.38 1.47633 -1.79742 0
M  V30 16086 C 1592.38 1.55752 -0.66617 0
M  V30 16087 O 1593.58 1.58721 -0.848979 0
M  V30 16088 H 1589.96 0.491677 -0.568997 0
M  V30 16089 H 1591.93 1.22392 -2.72145 0
M  V30 16090 C 1590.68 2.84559 -1.99803 0
M  V30 16091 H 1590 2.79069 -2.86288 0
M  V30 16092 H 1591.44 3.60989 -2.22402 0
M  V30 16093 C 1589.9 3.27861 -0.775162 0
M  V30 16094 O 1590.43 4.01681 0.0394991 0
M  V30 16095 N 1588.64 2.84326 -0.600573 0
M  V30 16096 H 1588.18 2.2442 -1.26466 0
M  V30 16097 H 1588.14 3.13655 0.216241 0
M  V30 16098 N 1591.91 1.44376 0.631925 0
M  V30 16099 C 1592.84 1.54005 1.75512 0
M  V30 16100 C 1593.82 0.393126 1.65495 0
M  V30 16101 O 1595.01 0.613143 1.84267 0
M  V30 16102 C 1592.14 1.48313 3.14039 0
M  V30 16103 C 1591.09 2.61474 3.38844 0
M  V30 16104 C 1590.42 2.40834 4.77392 0
M  V30 16105 C 1591.72 4.03627 3.31485 0
M  V30 16106 H 1593.41 2.48019 1.6771 0
M  V30 16107 H 1590.96 1.19368 0.80543 0
M  V30 16108 H 1592.91 1.5365 3.9239 0
M  V30 16109 H 1591.64 0.508152 3.22623 0
M  V30 16110 H 1590.3 2.55525 2.62874 0
M  V30 16111 H 1589.94 1.4153 4.82678 0
M  V30 16112 H 1589.64 3.16703 4.94947 0
M  V30 16113 H 1591.17 2.47988 5.57974 0
M  V30 16114 H 1592.58 4.1095 3.99741 0
M  V30 16115 H 1590.98 4.79694 3.60574 0
M  V30 16116 H 1592.05 4.27255 2.29307 0
M  V30 16117 N 1593.39 -0.872258 1.31261 0
M  V30 16118 C 1594.62 -1.65555 1.23593 0
M  V30 16119 C 1595.03 -1.88124 -0.201532 0
M  V30 16120 O 1594.37 -1.43792 -1.14323 0
M  V30 16121 C 1594.43 -3.04726 1.90742 0
M  V30 16122 C 1594.1 -3.05276 3.40082 0
M  V30 16123 C 1595.1 -2.83401 4.35867 0
M  V30 16124 C 1592.78 -3.26469 3.81737 0
M  V30 16125 C 1594.77 -2.82697 5.71281 0
M  V30 16126 C 1592.46 -3.25393 5.17265 0
M  V30 16127 C 1593.46 -3.03533 6.11847 0
M  V30 16128 O 1593.15 -3.02297 7.44897 0
M  V30 16129 H 1592.88 -0.52296 0.428356 0
M  V30 16130 H 1595.43 -1.09717 1.73641 0
M  V30 16131 H 1593.66 -3.62281 1.35239 0
M  V30 16132 H 1595.35 -3.65265 1.7702 0
M  V30 16133 H 1596.12 -2.66812 4.05014 0
M  V30 16134 H 1592 -3.42515 3.08552 0
M  V30 16135 H 1595.54 -2.65553 6.45079 0
M  V30 16136 H 1591.44 -3.41522 5.47753 0
M  V30 16137 H 1592.21 -3.18375 7.54042 0
M  V30 16138 N 1594.87 -1.14184 -1.08627 0
M  V30 16139 C 1596.12 -0.919966 -1.81406 0
M  V30 16140 C 1596.47 0.547709 -1.84439 0
M  V30 16141 O 1595.76 1.40044 -1.30761 0
M  V30 16142 C 1595.96 -1.4519 -3.2658 0
M  V30 16143 C 1595.79 -2.96977 -3.37691 0
M  V30 16144 C 1594.56 -3.65402 -3.49012 0
M  V30 16145 C 1596.75 -3.94858 -3.29532 0
M  V30 16146 N 1594.74 -5.05122 -3.48891 0
M  V30 16147 C 1596.11 -5.20818 -3.36376 0
M  V30 16148 C 1598.16 -3.87009 -3.13254 0
M  V30 16149 C 1596.87 -6.39846 -3.28618 0
M  V30 16150 C 1598.89 -5.05581 -3.06825 0
M  V30 16151 C 1598.25 -6.30408 -3.14269 0
M  V30 16152 H 1594.35 -0.390144 -0.677725 0
M  V30 16153 H 1596.94 -1.45155 -1.29761 0
M  V30 16154 H 1595.11 -0.947121 -3.76675 0
M  V30 16155 H 1596.84 -1.17018 -3.87413 0
M  V30 16156 H 1593.59 -3.15948 -3.52809 0
M  V30 16157 H 1594.02 -5.78056 -3.52392 0
M  V30 16158 H 1598.66 -2.91379 -3.06363 0
M  V30 16159 H 1596.38 -7.35723 -3.34271 0
M  V30 16160 H 1599.96 -5.01256 -2.95354 0
M  V30 16161 H 1598.84 -7.20618 -3.09321 0
M  V30 16162 N 1596.35 1.26749 -0.936613 0
M  V30 16163 C 1597.58 1.98059 -0.598357 0
M  V30 16164 C 1597.99 1.6979 0.825646 0
M  V30 16165 O 1597.35 0.963514 1.54992 0
M  V30 16166 C 1597.4 3.51948 -0.825519 0
M  V30 16167 O 1597.12 3.79232 -2.19351 0
M  V30 16168 C 1598.62 4.40503 -0.497186 0
M  V30 16169 H 1595.84 0.631826 -0.225914 0
M  V30 16170 H 1598.39 1.61379 -1.25607 0
M  V30 16171 H 1596.54 3.86806 -0.214479 0
M  V30 16172 H 1596.95 4.73782 -2.25014 0
M  V30 16173 H 1598.43 5.47457 -0.706779 0
M  V30 16174 H 1598.91 4.35516 0.567645 0
M  V30 16175 H 1599.51 4.11181 -1.08675 0
M  V30 16176 N 1597.83 0.703118 1.41046 0
M  V30 16177 C 1599.1 0.164985 1.94903 0
M  V30 16178 C 1599.48 -1.32665 1.64205 0
M  V30 16179 O 1598.83 -2.07675 0.953058 0
M  V30 16180 C 1599.04 0.464354 3.45897 0
M  V30 16181 C 1600.39 0.396205 4.22747 0
M  V30 16182 O 1601.41 0.399698 3.5395 0
M  V30 16183 O 1600.27 0.362874 5.45294 0
M  V30 16184 H 1597.37 0.0193901 0.826773 0
M  V30 16185 H 1599.91 0.779796 1.50722 0
M  V30 16186 H 1598.68 1.49653 3.61552 0
M  V30 16187 H 1598.31 -0.18105 3.97188 0
M  V30 16188 N 1599.3 -1.51086 0.448402 0
M  V30 16189 C 1600.55 -2.0312 -0.106726 0
M  V30 16190 C 1600.91 -1.3259 -1.39419 0
M  V30 16191 O 1600.2 -0.435501 -1.86585 0
M  V30 16192 C 1600.39 -3.55488 -0.369232 0
M  V30 16193 C 1600.22 -4.4078 0.891233 0
M  V30 16194 C 1598.99 -4.84703 1.42798 0
M  V30 16195 C 1601.19 -4.82498 1.78044 0
M  V30 16196 N 1599.17 -5.54243 2.63984 0
M  V30 16197 C 1600.54 -5.51218 2.83828 0
M  V30 16198 C 1602.6 -4.64474 1.79354 0
M  V30 16199 C 1601.3 -6.03825 3.90881 0
M  V30 16200 C 1603.33 -5.18005 2.8535 0
M  V30 16201 C 1602.69 -5.86681 3.89853 0
M  V30 16202 H 1598.79 -0.782 0.000394759 0
M  V30 16203 H 1601.37 -1.84846 0.611546 0
M  V30 16204 H 1599.54 -3.73754 -1.05654 0
M  V30 16205 H 1601.27 -3.94181 -0.916694 0
M  V30 16206 H 1598.03 -4.63343 0.980339 0
M  V30 16207 H 1598.45 -5.93634 3.25465 0
M  V30 16208 H 1603.1 -4.10832 0.998865 0
M  V30 16209 H 1600.81 -6.56517 4.7118 0
M  V30 16210 H 1604.4 -5.05905 2.87318 0
M  V30 16211 H 1603.28 -6.27358 4.70522 0
M  V30 16212 N 1600.78 -0.180154 -1.56567 0
M  V30 16213 C 1601.73 0.763484 -2.19713 0
M  V30 16214 C 1602.72 1.23095 -1.16378 0
M  V30 16215 O 1603.93 1.19558 -1.34558 0
M  V30 16216 H 1600.31 0.264515 -0.703943 0
M  V30 16217 H 1602.28 0.207039 -2.97681 0
M  V30 16218 C 1601.03 1.97884 -2.85897 0
M  V30 16219 H 1600.35 1.62818 -3.65144 0
M  V30 16220 H 1601.79 2.61779 -3.33538 0
M  V30 16221 C 1600.25 2.80811 -1.86136 0
M  V30 16222 O 1600.78 3.78253 -1.35232 0
M  V30 16223 N 1598.98 2.46003 -1.54697 0
M  V30 16224 H 1598.53 1.66823 -1.96285 0
M  V30 16225 H 1598.49 3.01774 -0.88202 0
M  V30 16226 N 1602.26 1.57322 0.0935319 0
M  V30 16227 C 1603.68 1.5319 0.447781 0
M  V30 16228 C 1603.88 0.897107 1.80428 0
M  V30 16229 O 1602.93 0.490285 2.47694 0
M  V30 16230 C 1604.25 2.97908 0.408832 0
M  V30 16231 C 1605.79 3.09132 0.490576 0
M  V30 16232 C 1606.27 4.55459 0.481759 0
M  V30 16233 N 1607.76 4.60013 0.542468 0
M  V30 16234 C 1608.49 5.70683 0.557509 0
M  V30 16235 N 1607.99 6.9078 0.528664 0
M  V30 16236 N 1609.78 5.58862 0.602438 0
M  V30 16237 H 1601.93 1.96962 -0.794965 0
M  V30 16238 H 1604.2 0.900583 -0.296064 0
M  V30 16239 H 1603.9 3.47823 -0.520766 0
M  V30 16240 H 1603.78 3.56678 1.22722 0
M  V30 16241 H 1606.16 2.59203 1.41059 0
M  V30 16242 H 1606.25 2.53311 -0.355982 0
M  V30 16243 H 1605.89 5.0604 -0.43432 0
M  V30 16244 H 1605.82 5.09119 1.34555 0
M  V30 16245 H 1608.31 3.73578 0.569892 0
M  V30 16246 H 1608.62 7.70887 0.543467 0
M  V30 16247 H 1606.97 6.9323 0.495687 0
M  V30 16248 H 1610.16 4.63942 0.622514 0
M  V30 16249 H 1610.33 6.45116 0.610691 0
M  V30 16250 N 1603.74 -0.364395 1.53329 0
M  V30 16251 C 1605.02 -1.12265 1.60174 0
M  V30 16252 C 1605.4 -2.0708 0.410015 0
M  V30 16253 O 1604.74 -2.20492 -0.599631 0
M  V30 16254 C 1604.95 -1.86071 2.9526 0
M  V30 16255 C 1606.3 -2.40562 3.49879 0
M  V30 16256 O 1607.33 -1.96196 2.97297 0
M  V30 16257 O 1606.18 -3.2167 4.41804 0
M  V30 16258 H 1603.28 -0.515062 0.647024 0
M  V30 16259 H 1605.82 -0.367563 1.65672 0
M  V30 16260 H 1604.6 -1.1688 3.73436 0
M  V30 16261 H 1604.22 -2.68486 2.93259 0
M  V30 16262 N 1605.22 -1.44709 -0.62426 0
M  V30 16263 C 1606.16 -1.52413 -1.75707 0
M  V30 16264 C 1607.16 -0.395303 -1.64723 0
M  V30 16265 O 1608.36 -0.570535 -1.70719 0
M  V30 16266 H 1604.74 -0.478401 -0.580204 0
M  V30 16267 H 1606.71 -2.47742 -1.66333 0
M  V30 16268 C 1605.46 -1.49208 -3.14058 0
M  V30 16269 H 1604.78 -2.35387 -3.23161 0
M  V30 16270 H 1606.22 -1.58658 -3.93197 0
M  V30 16271 C 1604.68 -0.213877 -3.3622 0
M  V30 16272 O 1605.21 0.713128 -3.95319 0
M  V30 16273 N 1603.42 -0.114834 -2.90373 0
M  V30 16274 H 1602.96 -0.870047 -2.42462 0
M  V30 16275 H 1602.92 0.739619 -3.05576 0
M  V30 16276 N 1606.69 0.865285 -1.31722 0
M  V30 16277 C 1608.11 1.43445 -1.195 0
M  V30 16278 C 1608.46 1.95212 0.196688 0
M  V30 16279 O 1607.58 1.86666 1.09475 0
M  V30 16280 C 1608.18 2.6074 -2.16333 0
M  V30 16281 C 1606.74 3.13688 -2.08031 0
M  V30 16282 C 1605.88 1.86409 -2.05298 0
M  V30 16283 H 1608.83 0.6734 -1.43705 0
M  V30 16284 H 1608.85 3.37575 -1.75566 0
M  V30 16285 H 1608.37 2.23033 -3.17612 0
M  V30 16286 H 1606.47 3.56004 -1.09962 0
M  V30 16287 H 1606.58 3.75653 -2.97358 0
M  V30 16288 H 1604.94 2.05567 -1.50381 0
M  V30 16289 H 1605.73 1.50933 -3.08341 0
M  V30 16290 N 1608.17 1.14759 1.0802 0
M  V30 16291 C 1609.12 0.838134 2.15044 0
M  V30 16292 C 1610.09 -0.206031 1.64817 0
M  V30 16293 O 1611.27 -0.0750812 1.90652 0
M  V30 16294 C 1608.41 0.326112 3.43556 0
M  V30 16295 C 1607.53 1.43104 4.07609 0
M  V30 16296 C 1606.66 0.875857 5.2393 0
M  V30 16297 C 1605.7 1.9582 5.79932 0
M  V30 16298 N 1604.84 1.41989 6.87593 0
M  V30 16299 H 1609.68 1.75478 2.40856 0
M  V30 16300 H 1607.22 0.875686 1.18195 0
M  V30 16301 H 1609.17 0.0110103 4.17199 0
M  V30 16302 H 1607.8 -0.55363 3.18017 0
M  V30 16303 H 1606.86 1.86247 3.31687 0
M  V30 16304 H 1608.17 2.24849 4.45246 0
M  V30 16305 H 1607.32 0.512893 6.04528 0
M  V30 16306 H 1606.06 0.0275017 4.87692 0
M  V30 16307 H 1605.07 2.33006 4.97984 0
M  V30 16308 H 1606.29 2.81021 6.18227 0
M  V30 16309 H 1604.24 0.593779 6.53307 0
M  V30 16310 H 1604.15 2.17367 7.24077 0
M  V30 16311 H 1605.42 1.08495 7.71913 0
M  V30 16312 N 1609.65 -1.26251 0.943322 0
M  V30 16313 C 1610.9 -1.92946 0.587764 0
M  V30 16314 C 1611.21 -1.74805 -0.877647 0
M  V30 16315 O 1612.42 -2.35976 -1.34267 0
M  V30 16316 C 1610.87 -3.45715 1.00047 0
M  V30 16317 C 1610.48 -3.72586 2.48764 0
M  V30 16318 C 1612.23 -4.18403 0.716905 0
M  V30 16319 C 1610.13 -5.18805 2.83893 0
M  V30 16320 H 1609.06 -0.722366 0.21611 0
M  V30 16321 H 1611.71 -1.43295 1.14625 0
M  V30 16322 H 1610.1 -3.94263 0.370491 0
M  V30 16323 H 1611.27 -3.34735 3.16684 0
M  V30 16324 H 1609.59 -3.13136 2.74472 0
M  V30 16325 H 1612.18 -5.2609 0.955669 0
M  V30 16326 H 1612.53 -4.14856 -0.346396 0
M  V30 16327 H 1613.06 -3.75726 1.3067 0
M  V30 16328 H 1609.8 -5.27454 3.89195 0
M  V30 16329 H 1609.32 -5.57745 2.20636 0
M  V30 16330 H 1611 -5.86828 2.72474 0
M  V30 16331 N 1611.13 -0.710588 -1.40671 0
M  V30 16332 C 1612.04 -0.0557164 -2.34534 0
M  V30 16333 C 1613.06 0.749387 -1.57036 0
M  V30 16334 O 1614.23 0.683493 -1.89447 0
M  V30 16335 C 1611.3 0.858583 -3.35901 0
M  V30 16336 C 1610.36 0.043995 -4.29277 0
M  V30 16337 C 1609.59 0.91475 -5.25802 0
M  V30 16338 O 1609.81 2.15407 -5.28163 0
M  V30 16339 O 1608.75 0.356407 -6.00844 0
M  V30 16340 H 1612.57 -0.829807 -2.92144 0
M  V30 16341 H 1610.16 -0.471028 -1.4178 0
M  V30 16342 H 1612.04 1.38244 -3.98079 0
M  V30 16343 H 1610.72 1.61191 -2.80712 0
M  V30 16344 H 1609.62 -0.524815 -3.704 0
M  V30 16345 H 1610.96 -0.670996 -4.87605 0
M  V30 16346 N 1612.61 1.50847 -0.456408 0
M  V30 16347 C 1613.84 2.0665 0.101737 0
M  V30 16348 C 1614.25 1.32188 1.34803 0
M  V30 16349 O 1613.61 0.38687 1.78352 0
M  V30 16350 C 1613.66 3.59227 0.404724 0
M  V30 16351 O 1613.38 4.30879 -0.79212 0
M  V30 16352 C 1614.88 4.31607 1.01145 0
M  V30 16353 H 1612.1 0.671 -0.000542219 0
M  V30 16354 H 1614.64 1.94195 -0.640974 0
M  V30 16355 H 1612.8 3.71533 1.09735 0
M  V30 16356 H 1613.21 5.21837 -0.527843 0
M  V30 16357 H 1614.69 5.39386 1.17332 0
M  V30 16358 H 1615.16 3.9114 1.99765 0
M  V30 16359 H 1615.77 4.23794 0.357645 0
M  V30 16360 N 1614.09 0.188454 1.56469 0
M  V30 16361 C 1615.31 -0.460975 2.02212 0
M  V30 16362 C 1615.74 -1.54856 1.06777 0
M  V30 16363 O 1615.09 -1.81231 0.0501425 0
M  V30 16364 C 1615.14 -1.00047 3.46443 0
M  V30 16365 O 1614.25 -2.1137 3.54114 0
M  V30 16366 H 1613.59 -0.108497 0.655076 0
M  V30 16367 H 1616.12 0.297381 2.02427 0
M  V30 16368 H 1616.13 -1.31876 3.86099 0
M  V30 16369 H 1614.8 -0.204273 4.15398 0
M  V30 16370 H 1613.38 -1.80456 3.26328 0
M  V30 16371 N 1615.56 -1.5737 -0.0851874 0
M  V30 16372 C 1616.79 -1.90525 -0.798977 0
M  V30 16373 C 1617.2 -0.781347 -1.72313 0
M  V30 16374 O 1616.54 0.255036 -1.81921 0
M  V30 16375 C 1616.61 -3.19027 -1.65716 0
M  V30 16376 C 1616.27 -4.47974 -0.903795 0
M  V30 16377 C 1617.27 -5.19395 -0.229094 0
M  V30 16378 C 1614.95 -4.94621 -0.874937 0
M  V30 16379 C 1616.95 -6.35706 0.464385 0
M  V30 16380 C 1614.63 -6.10842 -0.177678 0
M  V30 16381 C 1615.63 -6.81234 0.490795 0
M  V30 16382 O 1615.32 -7.95239 1.17685 0
M  V30 16383 H 1615.05 -0.634533 -0.233119 0
M  V30 16384 H 1617.61 -2.05301 -0.0638265 0
M  V30 16385 H 1615.84 -3.00425 -2.43479 0
M  V30 16386 H 1617.52 -3.37937 -2.24841 0
M  V30 16387 H 1618.29 -4.84392 -0.242783 0
M  V30 16388 H 1614.17 -4.39712 -1.3847 0
M  V30 16389 H 1617.71 -6.90586 0.986719 0
M  V30 16390 H 1613.61 -6.45297 -0.16187 0
M  V30 16391 H 1614.38 -8.1128 1.08476 0
M  V30 16392 N 1617.04 0.356258 -1.53521 0
M  V30 16393 C 1617.97 1.45965 -1.75413 0
M  V30 16394 C 1618.95 1.51015 -0.602774 0
M  V30 16395 O 1620.14 1.68925 -0.836459 0
M  V30 16396 C 1617.26 2.84276 -1.84132 0
M  V30 16397 C 1616.31 2.96909 -3.06182 0
M  V30 16398 S 1617.14 2.64695 -4.65507 0
M  V30 16399 C 1618.3 4.05138 -4.77089 0
M  V30 16400 H 1618.53 1.27176 -2.68726 0
M  V30 16401 H 1616.06 0.551163 -1.44227 0
M  V30 16402 H 1618.02 3.63965 -1.89842 0
M  V30 16403 H 1616.68 3.00369 -0.918542 0
M  V30 16404 H 1615.88 3.98226 -3.08921 0
M  V30 16405 H 1615.48 2.25154 -2.98633 0
M  V30 16406 H 1617.77 4.99502 -4.57717 0
M  V30 16407 H 1618.71 4.074 -5.79164 0
M  V30 16408 H 1619.12 3.92572 -4.05644 0
M  V30 16409 N 1618.52 1.45038 0.616577 0
M  V30 16410 C 1619.8 1.39059 1.37557 0
M  V30 16411 C 1620.18 0.0566307 2.11024 0
M  V30 16412 O 1619.52 -0.961203 2.073 0
M  V30 16413 C 1619.73 2.59841 2.32989 0
M  V30 16414 C 1621.08 3.04539 2.95874 0
M  V30 16415 O 1622.11 2.6015 2.43312 0
M  V30 16416 O 1620.97 3.81547 3.9126 0
M  V30 16417 H 1618.06 0.551396 0.616353 0
M  V30 16418 H 1620.61 1.57152 0.640416 0
M  V30 16419 H 1619.38 3.48521 1.779 0
M  V30 16420 H 1619 2.44036 3.13899 0
M  V30 16421 N 1620 -0.858287 1.32179 0
M  V30 16422 C 1621.25 -1.60902 1.2229 0
M  V30 16423 C 1621.57 -1.93797 -0.216227 0
M  V30 16424 O 1620.84 -1.59312 -1.14002 0
M  V30 16425 H 1619.42 -0.596529 0.449624 0
M  V30 16426 H 1622.08 -1.02686 1.65655 0
M  V30 16427 H 1621.17 -2.54755 1.80295 0
M  V30 16428 N 1621.48 -1.1533 -1.07409 0
M  V30 16429 C 1622.7 -0.951643 -1.83715 0
M  V30 16430 C 1623.12 0.500054 -1.82057 0
M  V30 16431 O 1622.48 1.3468 -1.23157 0
M  V30 16432 C 1622.53 -1.45734 -3.30823 0
M  V30 16433 O 1622.25 -2.85217 -3.3254 0
M  V30 16434 C 1623.75 -1.29709 -4.23899 0
M  V30 16435 H 1620.97 -0.338021 -0.57964 0
M  V30 16436 H 1623.51 -1.53088 -1.35589 0
M  V30 16437 H 1621.67 -0.920643 -3.76302 0
M  V30 16438 H 1622.08 -3.08134 -4.24445 0
M  V30 16439 H 1623.56 -1.69938 -5.2519 0
M  V30 16440 H 1624.03 -0.241185 -4.38537 0
M  V30 16441 H 1624.64 -1.82283 -3.84256 0
M  V30 16442 N 1622.95 1.25748 -0.950004 0
M  V30 16443 C 1623.9 2.28056 -0.457542 0
M  V30 16444 C 1624.9 1.62756 0.469776 0
M  V30 16445 O 1626.1 1.76623 0.347016 0
M  V30 16446 H 1622.48 0.740775 -0.129447 0
M  V30 16447 H 1624.45 2.66984 -1.33275 0
M  V30 16448 C 1623.2 3.46774 0.2536 0
M  V30 16449 H 1622.52 3.9725 -0.450808 0
M  V30 16450 H 1623.96 4.20255 0.562264 0
M  V30 16451 C 1622.42 3.02919 1.4745 0
M  V30 16452 O 1622.95 3.08527 2.57243 0
M  V30 16453 N 1621.15 2.58162 1.33419 0
M  V30 16454 H 1620.7 2.53799 0.440894 0
M  V30 16455 H 1620.66 2.29184 2.15226 0
M  V30 16456 N 1624.43 0.718038 1.40292 0
M  V30 16457 C 1625.85 0.391848 1.54715 0
M  V30 16458 C 1626.05 -1.09911 1.68884 0
M  V30 16459 O 1625.1 -1.88518 1.6798 0
M  V30 16460 C 1626.42 1.16005 2.77423 0
M  V30 16461 C 1627.96 1.14659 2.91243 0
M  V30 16462 C 1628.44 1.897 4.16867 0
M  V30 16463 N 1629.93 1.86781 4.23872 0
M  V30 16464 C 1630.67 2.41665 5.19986 0
M  V30 16465 N 1630.16 3.05116 6.21994 0
M  V30 16466 N 1631.95 2.31794 5.12082 0
M  V30 16467 H 1624.11 1.68477 1.29342 0
M  V30 16468 H 1626.37 0.712248 0.625625 0
M  V30 16469 H 1626.07 2.21435 2.73239 0
M  V30 16470 H 1625.95 0.75328 3.69602 0
M  V30 16471 H 1628.34 0.100477 2.94929 0
M  V30 16472 H 1628.42 1.5926 2.00175 0
M  V30 16473 H 1628.06 2.94303 4.13942 0
M  V30 16474 H 1627.99 1.42518 5.06948 0
M  V30 16475 H 1630.48 1.40541 3.50794 0
M  V30 16476 H 1630.79 3.44505 6.91763 0
M  V30 16477 H 1629.14 3.09201 6.22431 0
M  V30 16478 H 1632.33 1.81879 4.31321 0
M  V30 16479 H 1632.5 2.74868 5.86815 0
M  V30 16480 N 1625.91 -1.50602 0.464402 0
M  V30 16481 C 1627.33 -1.59162 0.118173 0
M  V30 16482 C 1627.53 -1.47313 -1.37481 0
M  V30 16483 O 1626.58 -1.32819 -2.14745 0
M  V30 16484 C 1627.9 -2.93313 0.662411 0
M  V30 16485 C 1629.44 -3.06692 0.625244 0
M  V30 16486 C 1629.92 -4.43407 1.14691 0
M  V30 16487 N 1631.41 -4.49801 1.10604 0
M  V30 16488 C 1632.14 -5.53964 1.48026 0
M  V30 16489 N 1631.64 -6.65413 1.92865 0
M  V30 16490 N 1633.43 -5.44471 1.39671 0
M  V30 16491 H 1625.58 -1.56548 1.4355 0
M  V30 16492 H 1627.85 -0.739451 0.593225 0
M  V30 16493 H 1627.55 -3.07439 1.70805 0
M  V30 16494 H 1627.43 -3.77061 0.102251 0
M  V30 16495 H 1629.81 -2.92217 -0.411466 0
M  V30 16496 H 1629.9 -2.24717 1.22213 0
M  V30 16497 H 1629.54 -4.5863 2.18222 0
M  V30 16498 H 1629.47 -5.23963 0.526306 0
M  V30 16499 H 1631.96 -3.69824 0.77709 0
M  V30 16500 H 1632.27 -7.40947 2.19585 0
M  V30 16501 H 1630.62 -6.66551 1.96812 0
M  V30 16502 H 1633.81 -4.56289 1.04487 0
M  V30 16503 H 1633.98 -6.25531 1.69161 0
M  V30 16504 N 1627.39 -0.19675 -1.56367 0
M  V30 16505 C 1628.64 0.441807 -1.96802 0
M  V30 16506 C 1628.95 1.62645 -1.08656 0
M  V30 16507 O 1630.16 2.33291 -1.3888 0
M  V30 16508 C 1628.61 0.837415 -3.50022 0
M  V30 16509 C 1628.22 -0.323031 -4.46834 0
M  V30 16510 C 1629.96 1.44296 -3.99223 0
M  V30 16511 C 1627.87 0.0936285 -5.91326 0
M  V30 16512 H 1626.8 0.168834 -0.734854 0
M  V30 16513 H 1629.45 -0.289029 -1.81209 0
M  V30 16514 H 1627.83 1.62497 -3.61124 0
M  V30 16515 H 1629.01 -1.10056 -4.47464 0
M  V30 16516 H 1627.32 -0.840182 -4.07836 0
M  V30 16517 H 1629.92 1.76718 -5.04653 0
M  V30 16518 H 1630.26 2.35003 -3.43627 0
M  V30 16519 H 1630.8 0.71935 -3.91242 0
M  V30 16520 H 1627.54 -0.779297 -6.50851 0
M  V30 16521 H 1627.06 0.835984 -5.93946 0
M  V30 16522 H 1628.73 0.528864 -6.44835 0
M  V30 16523 N 1628.87 1.57413 0.0768405 0
M  V30 16524 C 1629.8 2.06378 1.09226 0
M  V30 16525 C 1630.78 0.956269 1.40675 0
M  V30 16526 O 1631.96 1.22868 1.5039 0
M  V30 16527 C 1629.09 2.50349 2.40712 0
M  V30 16528 C 1628.05 3.64931 2.23628 0
M  V30 16529 C 1627.37 3.9494 3.60453 0
M  V30 16530 C 1628.67 4.95162 1.66169 0
M  V30 16531 H 1630.37 2.91463 0.684827 0
M  V30 16532 H 1627.91 1.40215 0.327974 0
M  V30 16533 H 1629.87 2.83216 3.12036 0
M  V30 16534 H 1628.59 1.62287 2.83426 0
M  V30 16535 H 1627.25 3.32339 1.54747 0
M  V30 16536 H 1626.9 3.04016 4.00728 0
M  V30 16537 H 1626.6 4.72091 3.49863 0
M  V30 16538 H 1628.12 4.30299 4.33215 0
M  V30 16539 H 1629.53 5.26292 2.27353 0
M  V30 16540 H 1627.93 5.76601 1.66289 0
M  V30 16541 H 1629 4.80885 0.62271 0
M  V30 16542 N 1630.34 -0.348112 1.53707 0
M  V30 16543 C 1631.59 -1.09048 1.70987 0
M  V30 16544 C 1631.92 -1.88444 0.469305 0
M  V30 16545 O 1631.2 -1.87037 -0.533629 0
M  V30 16546 C 1631.48 -2.03542 2.97057 0
M  V30 16547 C 1631.33 -1.27638 4.3131 0
M  V30 16548 C 1632.65 -3.03424 3.18782 0
M  V30 16549 H 1629.77 -0.395049 0.622178 0
M  V30 16550 H 1632.41 -0.369498 1.86373 0
M  V30 16551 H 1630.56 -2.65021 2.8407 0
M  V30 16552 H 1632.24 -0.688079 4.56139 0
M  V30 16553 H 1630.48 -0.578349 4.29927 0
M  V30 16554 H 1631.15 -1.96891 5.15692 0
M  V30 16555 H 1633.63 -2.52056 3.31069 0
M  V30 16556 H 1632.5 -3.66748 4.08396 0
M  V30 16557 H 1632.76 -3.74553 2.34866 0
M  V30 16558 N 1631.82 -1.45363 -0.608876 0
M  V30 16559 C 1632.75 -1.49944 -1.73348 0
M  V30 16560 C 1633.77 -0.390352 -1.58051 0
M  V30 16561 O 1634.96 -0.657338 -1.65956 0
M  V30 16562 C 1632.06 -1.33886 -3.11332 0
M  V30 16563 C 1631.23 -2.58445 -3.52881 0
M  V30 16564 C 1630.29 -2.36963 -4.69825 0
M  V30 16565 O 1629.31 -3.10569 -4.77007 0
M  V30 16566 N 1630.52 -1.41442 -5.63005 0
M  V30 16567 H 1633.28 -2.46902 -1.69882 0
M  V30 16568 H 1630.84 -1.41086 -0.794119 0
M  V30 16569 H 1632.83 -1.17327 -3.8732 0
M  V30 16570 H 1631.4 -0.452095 -3.09314 0
M  V30 16571 H 1630.62 -2.90129 -2.66869 0
M  V30 16572 H 1631.91 -3.41245 -3.77398 0
M  V30 16573 H 1631.31 -0.806941 -5.59915 0
M  V30 16574 H 1629.87 -1.30855 -6.3853 0
M  V30 16575 N 1633.3 0.851265 -1.32632 0
M  V30 16576 C 1634.58 1.58945 -1.13999 0
M  V30 16577 C 1634.96 2.08981 0.29836 0
M  V30 16578 O 1634.31 1.88226 1.2955 0
M  V30 16579 C 1634.52 2.73296 -2.17049 0
M  V30 16580 C 1635.86 3.42791 -2.50559 0
M  V30 16581 O 1636.89 2.83524 -2.15621 0
M  V30 16582 O 1635.75 4.49749 -3.10464 0
M  V30 16583 H 1632.84 0.700157 -0.440124 0
M  V30 16584 H 1635.39 0.895098 -1.44174 0
M  V30 16585 H 1634.16 2.33873 -3.13718 0
M  V30 16586 H 1633.78 3.50405 -1.87888 0
M  V30 16587 N 1634.78 1.15898 1.06796 0
M  V30 16588 C 1636.06 0.847701 1.76276 0
M  V30 16589 C 1636.44 -0.655537 2.00664 0
M  V30 16590 O 1635.78 -1.60171 1.62964 0
M  V30 16591 C 1635.99 1.66475 3.06736 0
M  V30 16592 C 1637.34 1.87452 3.80982 0
M  V30 16593 O 1638.37 1.63298 3.16563 0
M  V30 16594 O 1637.22 2.27942 4.96694 0
M  V30 16595 H 1634.32 0.312308 0.765763 0
M  V30 16596 H 1636.86 1.26507 1.13111 0
M  V30 16597 H 1635.64 2.68508 2.84638 0
M  V30 16598 H 1635.26 1.24409 3.77635 0
M  V30 16599 N 1636.26 -1.25243 0.956659 0
M  V30 16600 C 1637.19 -2.28159 0.496574 0
M  V30 16601 C 1638.17 -1.63814 -0.458132 0
M  V30 16602 O 1639.35 -1.90897 -0.356648 0
M  V30 16603 C 1636.48 -3.46573 -0.22454 0
M  V30 16604 C 1635.44 -4.2311 0.645104 0
M  V30 16605 C 1634.76 -5.343 -0.206867 0
M  V30 16606 C 1636.06 -4.85562 1.92422 0
M  V30 16607 H 1637.76 -2.66895 1.35675 0
M  V30 16608 H 1635.3 -1.28301 0.653827 0
M  V30 16609 H 1637.26 -4.17695 -0.55755 0
M  V30 16610 H 1635.98 -3.06833 -1.11898 0
M  V30 16611 H 1634.64 -3.53774 0.961228 0
M  V30 16612 H 1634.29 -4.908 -1.10112 0
M  V30 16613 H 1633.99 -5.86423 0.371714 0
M  V30 16614 H 1635.51 -6.08253 -0.534798 0
M  V30 16615 H 1636.92 -5.48817 1.65749 0
M  V30 16616 H 1635.32 -5.47871 2.44862 0
M  V30 16617 H 1636.39 -4.07634 2.62607 0
M  V30 16618 N 1637.73 -0.725468 -1.3991 0
M  V30 16619 C 1638.98 -0.268719 -2.00306 0
M  V30 16620 C 1639.3 1.14511 -1.57836 0
M  V30 16621 O 1638.57 1.77808 -0.822263 0
M  V30 16622 H 1637.15 -0.0963614 -0.740759 0
M  V30 16623 H 1639.82 -0.933303 -1.71101 0
M  V30 16624 H 1638.91 -0.309587 -3.10561 0
M  V30 16625 N 1639.21 1.50354 -0.472382 0
M  V30 16626 C 1640.14 2.3142 0.310995 0
M  V30 16627 C 1641.12 1.38383 0.989151 0
M  V30 16628 O 1642.31 1.67303 0.986074 0
M  V30 16629 C 1639.44 3.18157 1.3926 0
M  V30 16630 C 1638.39 4.19756 0.835977 0
M  V30 16631 C 1637.72 4.9524 2.01597 0
M  V30 16632 C 1639.02 5.22074 -0.15361 0
M  V30 16633 H 1640.71 2.97159 -0.365595 0
M  V30 16634 H 1638.26 1.42905 -0.177266 0
M  V30 16635 H 1640.21 3.73666 1.94813 0
M  V30 16636 H 1638.94 2.50305 2.09798 0
M  V30 16637 H 1637.59 3.65351 0.302414 0
M  V30 16638 H 1637.24 4.2386 2.70836 0
M  V30 16639 H 1636.94 5.63966 1.64974 0
M  V30 16640 H 1638.47 5.53584 2.57637 0
M  V30 16641 H 1639.88 5.72446 0.312783 0
M  V30 16642 H 1638.28 5.98527 -0.43418 0
M  V30 16643 H 1639.35 4.72741 -1.07908 0
M  V30 16644 N 1640.69 0.205039 1.56261 0
M  V30 16645 C 1642.1 -0.305792 1.84179 0
M  V30 16646 C 1642.45 -1.60672 1.126 0
M  V30 16647 O 1641.58 -2.12855 0.390118 0
M  V30 16648 C 1642.17 -0.561596 3.34113 0
M  V30 16649 C 1640.73 -1.01677 3.62407 0
M  V30 16650 C 1639.88 -0.0707844 2.7721 0
M  V30 16651 H 1642.83 0.428609 1.52803 0
M  V30 16652 H 1642.85 -1.40969 3.53423 0
M  V30 16653 H 1642.36 0.38541 3.86182 0
M  V30 16654 H 1640.46 -1.97771 3.1578 0
M  V30 16655 H 1640.58 -0.902607 4.70521 0
M  V30 16656 H 1638.94 -0.574529 2.48136 0
M  V30 16657 H 1639.72 0.870844 3.32071 0
M  V30 16658 N 1642.17 -1.57451 -0.0684915 0
M  V30 16659 C 1643.12 -2.04959 -1.09975 0
M  V30 16660 C 1644.11 -0.955558 -1.39877 0
M  V30 16661 O 1645.32 -1.14066 -1.39245 0
M  V30 16662 H 1641.69 -0.653542 -0.372003 0
M  V30 16663 H 1643.66 -2.90713 -0.67294 0
M  V30 16664 C 1642.41 -2.51192 -2.40412 0
M  V30 16665 H 1641.74 -3.3497 -2.18254 0
M  V30 16666 H 1643.18 -2.88183 -3.11008 0
M  V30 16667 C 1641.63 -1.39624 -3.06605 0
M  V30 16668 O 1642.16 -0.740191 -3.94822 0
M  V30 16669 N 1640.37 -1.14054 -2.67283 0
M  V30 16670 H 1639.92 -1.67585 -1.95635 0
M  V30 16671 H 1639.88 -0.396106 -3.11895 0
M  V30 16672 N 1643.65 0.339955 -1.5389 0
M  V30 16673 C 1644.9 1.07766 -1.7097 0
M  V30 16674 C 1645.22 1.89064 -0.477486 0
M  V30 16675 O 1644.49 1.89183 0.508579 0
M  V30 16676 H 1643.07 0.400849 -0.630341 0
M  V30 16677 H 1645.73 0.380359 -1.91153 0
M  V30 16678 H 1644.82 1.75301 -2.58217 0
M  V30 16679 N 1645.13 1.45684 0.601159 0
M  V30 16680 C 1646.06 1.57694 1.72206 0
M  V30 16681 C 1647.04 0.428141 1.64624 0
M  V30 16682 O 1648.22 0.65209 1.82925 0
M  V30 16683 C 1645.35 1.54941 3.10822 0
M  V30 16684 C 1644.31 2.68603 3.33222 0
M  V30 16685 C 1643.63 2.50906 4.72176 0
M  V30 16686 C 1644.93 4.10568 3.22849 0
M  V30 16687 H 1646.63 2.51521 1.62412 0
M  V30 16688 H 1644.17 1.2105 0.779929 0
M  V30 16689 H 1646.12 1.61939 3.89042 0
M  V30 16690 H 1644.85 0.576471 3.21472 0
M  V30 16691 H 1643.51 2.61043 2.57394 0
M  V30 16692 H 1643.16 1.51736 4.79568 0
M  V30 16693 H 1642.86 3.27131 4.88118 0
M  V30 16694 H 1644.38 2.59767 5.52588 0
M  V30 16695 H 1645.79 4.19336 3.90935 0
M  V30 16696 H 1644.19 4.87234 3.50318 0
M  V30 16697 H 1645.26 4.32022 2.20192 0
M  V30 16698 N 1646.6 -0.84422 1.33082 0
M  V30 16699 C 1647.83 -1.63133 1.27261 0
M  V30 16700 C 1648.25 -1.88142 -0.157479 0
M  V30 16701 O 1647.6 -1.4578 -1.09793 0
M  V30 16702 C 1647.65 -2.98462 2.03967 0
M  V30 16703 O 1647.38 -2.74555 3.41396 0
M  V30 16704 C 1648.88 -3.92899 2.05293 0
M  V30 16705 H 1646.1 -0.507769 0.438647 0
M  V30 16706 H 1648.64 -1.05194 1.75369 0
M  V30 16707 H 1646.8 -3.53017 1.59554 0
M  V30 16708 H 1647.21 -3.60694 3.80789 0
M  V30 16709 H 1648.68 -4.85088 2.63427 0
M  V30 16710 H 1649.16 -4.26665 1.04183 0
M  V30 16711 H 1649.77 -3.44281 2.49701 0
M  V30 16712 N 1648.08 -1.16463 -1.0618 0
M  V30 16713 C 1649.33 -0.946846 -1.79 0
M  V30 16714 C 1649.66 0.525259 -1.87273 0
M  V30 16715 O 1648.91 1.40584 -1.36142 0
M  V30 16716 C 1649.21 -1.52085 -3.23427 0
M  V30 16717 C 1648.88 -3.01547 -3.35232 0
M  V30 16718 C 1647.54 -3.42346 -3.38161 0
M  V30 16719 C 1649.89 -3.97543 -3.37059 0
M  V30 16720 C 1647.22 -4.77759 -3.40534 0
M  V30 16721 C 1649.57 -5.32843 -3.4097 0
M  V30 16722 C 1648.23 -5.73121 -3.42182 0
M  V30 16723 H 1647.5 -0.346475 -0.655008 0
M  V30 16724 H 1650.15 -1.45195 -1.24862 0
M  V30 16725 H 1648.46 -0.937212 -3.80426 0
M  V30 16726 H 1650.15 -1.32801 -3.78371 0
M  V30 16727 H 1646.74 -2.69017 -3.33658 0
M  V30 16728 H 1650.93 -3.67088 -3.34006 0
M  V30 16729 H 1646.18 -5.08293 -3.39777 0
M  V30 16730 H 1650.36 -6.07014 -3.41332 0
M  V30 16731 H 1647.98 -6.78029 -3.43774 0
M  V30 16732 N 1649.56 1.24734 -0.963288 0
M  V30 16733 C 1650.84 1.88004 -0.539809 0
M  V30 16734 C 1651.22 1.86814 0.983035 0
M  V30 16735 O 1650.56 1.33769 1.85251 0
M  V30 16736 C 1650.77 3.30326 -1.1263 0
M  V30 16737 C 1652.12 4.07039 -1.20848 0
M  V30 16738 O 1653.15 3.3948 -1.07849 0
M  V30 16739 O 1652.01 5.27906 -1.41342 0
M  V30 16740 H 1649.1 0.807318 -0.17935 0
M  V30 16741 H 1651.65 1.3274 -1.05727 0
M  V30 16742 H 1650.42 3.25668 -2.16925 0
M  V30 16743 H 1650.04 3.93159 -0.592614 0
M  V30 16744 N 1651.04 0.732878 1.39523 0
M  V30 16745 C 1652 0.10004 2.28982 0
M  V30 16746 C 1653 -0.669361 1.46206 0
M  V30 16747 O 1654.19 -0.498694 1.66909 0
M  V30 16748 C 1651.32 -0.867616 3.29674 0
M  V30 16749 H 1652.52 0.88816 2.86447 0
M  V30 16750 H 1650.07 0.498578 1.48135 0
M  V30 16751 H 1650.8 -1.68217 2.77261 0
M  V30 16752 H 1650.59 -0.318577 3.90804 0
M  V30 16753 H 1652.08 -1.30704 3.96618 0
M  V30 16754 N 1652.52 -1.50101 0.480349 0
M  V30 16755 C 1653.76 -2.02374 -0.0714315 0
M  V30 16756 C 1654.09 -1.36166 -1.38885 0
M  V30 16757 O 1653.35 -0.479455 -1.89736 0
M  V30 16758 C 1653.64 -3.56191 -0.293745 0
M  V30 16759 C 1653.31 -4.40927 0.943111 0
M  V30 16760 C 1651.97 -4.63803 1.2822 0
M  V30 16761 C 1654.32 -4.90362 1.7662 0
M  V30 16762 C 1651.65 -5.33359 2.44428 0
M  V30 16763 C 1654 -5.61195 2.91963 0
M  V30 16764 C 1652.67 -5.82323 3.26276 0
M  V30 16765 H 1651.94 -0.740539 -0.0261386 0
M  V30 16766 H 1654.59 -1.80619 0.636313 0
M  V30 16767 H 1652.89 -3.76511 -1.08382 0
M  V30 16768 H 1654.59 -3.9421 -0.734796 0
M  V30 16769 H 1651.18 -4.23347 0.668947 0
M  V30 16770 H 1655.36 -4.72534 1.5174 0
M  V30 16771 H 1650.62 -5.47923 2.71275 0
M  V30 16772 H 1654.79 -5.9848 3.56082 0
M  V30 16773 H 1652.42 -6.35996 4.16428 0
M  V30 16774 N 1653.99 -0.213323 -1.5615 0
M  V30 16775 C 1655.22 0.428746 -2.0292 0
M  V30 16776 C 1655.64 1.53137 -1.09227 0
M  V30 16777 O 1655 1.81128 -0.0789684 0
M  V30 16778 C 1655.05 0.945231 -3.47991 0
M  V30 16779 O 1654.15 2.05709 -3.57432 0
M  V30 16780 H 1653.49 0.0980619 -0.656719 0
M  V30 16781 H 1656.02 -0.329548 -2.01929 0
M  V30 16782 H 1656.03 1.25717 -3.88149 0
M  V30 16783 H 1654.71 0.138161 -4.1567 0
M  V30 16784 H 1653.29 1.75242 -3.29158 0
M  V30 16785 N 1655.47 1.57485 0.0601405 0
M  V30 16786 C 1656.7 1.92438 0.773466 0
M  V30 16787 C 1657.12 0.810755 1.6973 0
M  V30 16788 O 1656.48 -0.235697 1.79761 0
M  V30 16789 C 1656.53 3.26381 1.53323 0
M  V30 16790 O 1655.63 3.16436 2.64465 0
M  V30 16791 H 1654.97 0.629838 0.210239 0
M  V30 16792 H 1657.5 2.04585 0.0248981 0
M  V30 16793 H 1657.51 3.60534 1.90996 0
M  V30 16794 H 1656.19 4.07007 0.855468 0
M  V30 16795 H 1654.77 2.93862 2.29564 0
M  V30 16796 N 1656.95 -0.331789 1.54068 0
M  V30 16797 C 1657.88 -1.42889 1.79208 0
M  V30 16798 C 1658.9 -1.48204 0.673754 0
M  V30 16799 O 1660.08 -1.51075 0.950712 0
M  V30 16800 C 1657.18 -2.81477 1.88743 0
M  V30 16801 C 1656.36 -2.99463 3.18812 0
M  V30 16802 C 1655.42 -4.18363 3.19154 0
M  V30 16803 O 1654.44 -4.11916 3.92828 0
M  V30 16804 N 1655.64 -5.27489 2.42354 0
M  V30 16805 H 1658.41 -1.21689 2.73883 0
M  V30 16806 H 1655.97 -0.521735 1.53263 0
M  V30 16807 H 1657.96 -3.59213 1.86409 0
M  V30 16808 H 1656.53 -2.95765 1.01202 0
M  V30 16809 H 1655.75 -2.09097 3.34174 0
M  V30 16810 H 1657.04 -3.0837 4.04704 0
M  V30 16811 H 1656.44 -5.35599 1.82071 0
M  V30 16812 H 1655 -6.03674 2.45806 0
M  V30 16813 N 1658.43 -1.46001 -0.593424 0
M  V30 16814 C 1659.36 -1.58605 -1.71367 0
M  V30 16815 C 1660.34 -0.436866 -1.64394 0
M  V30 16816 O 1661.52 -0.661782 -1.82576 0
M  V30 16817 C 1658.65 -1.56587 -3.09996 0
M  V30 16818 C 1657.61 -2.70366 -3.31792 0
M  V30 16819 C 1656.93 -2.53406 -4.70839 0
M  V30 16820 C 1658.23 -4.12274 -3.20667 0
M  V30 16821 H 1659.93 -2.52379 -1.61076 0
M  V30 16822 H 1657.47 -1.21462 -0.773499 0
M  V30 16823 H 1659.43 -1.64 -3.88178 0
M  V30 16824 H 1658.15 -0.593511 -3.21162 0
M  V30 16825 H 1656.81 -2.62405 -2.56006 0
M  V30 16826 H 1656.46 -1.54278 -4.78756 0
M  V30 16827 H 1656.16 -3.29715 -4.86376 0
M  V30 16828 H 1657.68 -2.62694 -5.51203 0
M  V30 16829 H 1659.1 -4.21404 -3.88705 0
M  V30 16830 H 1657.49 -4.89085 -3.47729 0
M  V30 16831 H 1658.56 -4.33184 -2.17898 0
M  V30 16832 N 1659.91 0.83715 -1.33527 0
M  V30 16833 C 1661.15 1.60619 -1.26416 0
M  V30 16834 C 1661.51 1.9127 0.16722 0
M  V30 16835 O 1662.71 2.66347 0.362323 0
M  V30 16836 C 1660.98 2.87988 -2.11655 0
M  V30 16837 S 1662.54 3.78645 -2.21751 0
M  V30 16838 H 1659.36 0.550704 -0.449718 0
M  V30 16839 H 1661.96 0.990005 -1.6858 0
M  V30 16840 H 1660.67 2.63444 -3.14683 0
M  V30 16841 H 1660.2 3.54612 -1.70334 0
M  V30 16842 H 1662.21 4.76629 -1.37984 0
M  V30 16843 N 1661.38 1.17024 1.05561 0
M  V30 16844 C 1662.63 0.967739 1.78903 0
M  V30 16845 C 1662.99 -0.498615 1.85827 0
M  V30 16846 O 1662.28 -1.36528 1.34428 0
M  V30 16847 C 1662.47 1.53798 3.22616 0
M  V30 16848 C 1662.3 3.05826 3.29698 0
M  V30 16849 C 1661.07 3.74527 3.39201 0
M  V30 16850 C 1663.27 4.03456 3.18947 0
M  V30 16851 N 1661.25 5.14195 3.35376 0
M  V30 16852 C 1662.62 5.29553 3.22449 0
M  V30 16853 C 1664.68 3.95179 3.02883 0
M  V30 16854 C 1663.38 6.48333 3.11538 0
M  V30 16855 C 1665.41 5.13538 2.93313 0
M  V30 16856 C 1664.77 6.38519 2.97444 0
M  V30 16857 H 1660.87 0.407976 0.667143 0
M  V30 16858 H 1663.45 1.48545 1.25867 0
M  V30 16859 H 1661.62 1.04666 3.74032 0
M  V30 16860 H 1663.35 1.27248 3.84174 0
M  V30 16861 H 1660.11 3.25191 3.44308 0
M  V30 16862 H 1660.53 5.87196 3.36942 0
M  V30 16863 H 1665.18 2.99399 2.9853 0
M  V30 16864 H 1662.89 7.44327 3.14647 0
M  V30 16865 H 1666.48 5.08911 2.8196 0
M  V30 16866 H 1665.36 7.28566 2.90107 0
M  V30 16867 N 1662.86 -1.24221 0.969889 0
M  V30 16868 C 1664.11 -1.92638 0.633913 0
M  V30 16869 C 1664.44 -1.75612 -0.829092 0
M  V30 16870 O 1663.72 -1.11057 -1.59677 0
M  V30 16871 C 1664 -3.45583 1.01213 0
M  V30 16872 C 1663.85 -3.71766 2.53199 0
M  V30 16873 C 1665.17 -4.36671 0.548294 0
M  V30 16874 H 1662.29 -0.699608 0.231772 0
M  V30 16875 H 1664.93 -1.46548 1.20929 0
M  V30 16876 H 1663.08 -3.8497 0.522531 0
M  V30 16877 H 1664.75 -3.41925 3.09653 0
M  V30 16878 H 1663 -3.16842 2.963 0
M  V30 16879 H 1663.67 -4.78787 2.74713 0
M  V30 16880 H 1666.14 -4.04672 0.968489 0
M  V30 16881 H 1665.02 -5.42412 0.841472 0
M  V30 16882 H 1665.28 -4.38646 -0.551588 0
M  V30 16883 N 1664.34 -0.740267 -1.39132 0
M  V30 16884 C 1665.62 -0.216602 -1.94397 0
M  V30 16885 C 1666 1.28264 -1.67665 0
M  V30 16886 O 1665.35 2.05075 -1.00778 0
M  V30 16887 C 1665.56 -0.555899 -3.44544 0
M  V30 16888 C 1666.9 -0.50815 -4.21548 0
M  V30 16889 O 1667.93 -0.493401 -3.52766 0
M  V30 16890 O 1666.79 -0.507321 -5.4414 0
M  V30 16891 H 1663.88 -0.0413037 -0.825968 0
M  V30 16892 H 1666.43 -0.819483 -1.48602 0
M  V30 16893 H 1665.2 -1.59187 -3.57457 0
M  V30 16894 H 1664.82 0.0756793 -3.97528 0
M  V30 16895 N 1665.82 1.49844 -0.488302 0
M  V30 16896 C 1666.78 2.27412 0.285706 0
M  V30 16897 C 1667.78 1.32897 0.905261 0
M  V30 16898 O 1668.97 1.56171 0.771763 0
M  V30 16899 C 1666.1 3.10435 1.40864 0
M  V30 16900 H 1667.3 2.9729 -0.394782 0
M  V30 16901 H 1664.85 1.54401 -0.242873 0
M  V30 16902 H 1665.58 2.45094 2.12367 0
M  V30 16903 H 1665.37 3.79913 0.969991 0
M  V30 16904 H 1666.86 3.69054 1.95419 0
M  V30 16905 N 1667.3 0.221601 1.56034 0
M  V30 16906 C 1668.54 -0.409277 1.97912 0
M  V30 16907 C 1668.87 -1.60291 1.11049 0
M  V30 16908 O 1668.14 -1.95 0.187529 0
M  V30 16909 H 1666.72 -0.154201 0.730911 0
M  V30 16910 H 1669.38 0.314508 1.92346 0
M  V30 16911 H 1668.47 -0.73557 3.03308 0
M  V30 16912 N 1668.77 -1.57515 -0.0517878 0
M  V30 16913 C 1670 -1.92456 -0.759485 0
M  V30 16914 C 1670.42 -0.819396 -1.70092 0
M  V30 16915 O 1669.77 0.205913 -1.81335 0
M  V30 16916 C 1669.83 -3.27242 -1.53606 0
M  V30 16917 O 1669.55 -4.33511 -0.632441 0
M  V30 16918 C 1671.05 -3.76324 -2.34297 0
M  V30 16919 H 1668.27 -0.635688 -0.214807 0
M  V30 16920 H 1670.81 -2.04494 -0.0160862 0
M  V30 16921 H 1668.97 -3.16671 -2.23155 0
M  V30 16922 H 1669.38 -5.11178 -1.17462 0
M  V30 16923 H 1670.85 -4.73209 -2.84213 0
M  V30 16924 H 1671.33 -3.06351 -3.14716 0
M  V30 16925 H 1671.94 -3.89904 -1.69866 0
M  V30 16926 N 1670.25 0.323614 -1.54242 0
M  V30 16927 C 1671.2 1.4184 -1.84348 0
M  V30 16928 C 1672.2 1.53553 -0.715384 0
M  V30 16929 O 1673.4 1.5594 -0.899045 0
M  V30 16930 H 1669.78 0.473326 -0.584352 0
M  V30 16931 H 1671.75 1.13672 -2.75901 0
M  V30 16932 C 1670.5 2.78059 -2.08755 0
M  V30 16933 H 1669.82 2.69819 -2.95021 0
M  V30 16934 H 1671.26 3.53731 -2.33774 0
M  V30 16935 C 1669.72 3.25229 -0.879076 0
M  V30 16936 O 1670.25 4.01603 -0.0883125 0
M  V30 16937 N 1668.45 2.82272 -0.690726 0
M  V30 16938 H 1668 2.20283 -1.33542 0
M  V30 16939 H 1667.96 3.14185 0.116344 0
M  V30 16940 N 1671.73 1.46313 0.585673 0
M  V30 16941 C 1673.15 1.31203 0.908733 0
M  V30 16942 C 1673.35 0.281265 1.99527 0
M  V30 16943 O 1672.4 -0.317202 2.505 0
M  V30 16944 C 1673.72 2.69742 1.3289 0
M  V30 16945 C 1675.26 2.77809 1.44191 0
M  V30 16946 C 1675.74 4.16924 1.89574 0
M  V30 16947 N 1677.23 4.19327 1.96773 0
M  V30 16948 C 1677.97 5.23856 2.33157 0
M  V30 16949 N 1677.46 6.38716 2.68355 0
M  V30 16950 N 1679.25 5.11221 2.33686 0
M  V30 16951 H 1671.41 2.11989 -0.132126 0
M  V30 16952 H 1673.67 0.947993 0.00355835 0
M  V30 16953 H 1673.37 3.46465 0.604557 0
M  V30 16954 H 1673.25 2.99653 2.29102 0
M  V30 16955 H 1675.64 2.01377 2.15712 0
M  V30 16956 H 1675.72 2.51587 0.46237 0
M  V30 16957 H 1675.36 4.93851 1.18633 0
M  V30 16958 H 1675.29 4.40552 2.88481 0
M  V30 16959 H 1677.78 3.36451 1.72073 0
M  V30 16960 H 1678.09 7.14253 2.95063 0
M  V30 16961 H 1676.44 6.42082 2.66 0
M  V30 16962 H 1679.63 4.20527 2.05609 0
M  V30 16963 H 1679.8 5.92798 2.61714 0
M  V30 16964 N 1673.21 -0.830057 1.33969 0
M  V30 16965 C 1674.17 -1.92206 1.24858 0
M  V30 16966 C 1675.17 -1.59946 0.16549 0
M  V30 16967 O 1676.36 -1.6912 0.417629 0
M  V30 16968 C 1673.49 -3.28082 0.926029 0
M  V30 16969 H 1674.69 -2.01708 2.21932 0
M  V30 16970 H 1672.24 -1.02319 1.18154 0
M  V30 16971 H 1672.98 -3.24273 -0.0418364 0
M  V30 16972 H 1672.76 -3.52878 1.70938 0
M  V30 16973 H 1674.25 -4.08065 0.887263 0
M  V30 16974 N 1674.69 -1.17582 -1.04939 0
M  V30 16975 C 1675.6 -0.909588 -2.16249 0
M  V30 16976 C 1676.61 0.123166 -1.73564 0
M  V30 16977 O 1677.79 -0.0566976 -2.0132 0
M  V30 16978 C 1674.85 -0.429342 -3.44031 0
M  V30 16979 C 1673.92 -1.529 -4.01149 0
M  V30 16980 C 1673.15 -1.07157 -5.22832 0
M  V30 16981 O 1673.37 0.0732634 -5.70353 0
M  V30 16982 O 1672.31 -1.86567 -5.72255 0
M  V30 16983 H 1676.13 -1.84074 -2.41558 0
M  V30 16984 H 1673.72 -0.956914 -1.14732 0
M  V30 16985 H 1675.6 -0.16917 -4.2106 0
M  V30 16986 H 1674.27 0.473629 -3.20216 0
M  V30 16987 H 1673.18 -1.84308 -3.25548 0
M  V30 16988 H 1674.51 -2.40777 -4.29287 0
M  V30 16989 N 1676.17 1.23705 -0.976463 0
M  V30 16990 C 1677.41 1.93751 -0.65114 0
M  V30 16991 C 1677.77 1.74538 0.800022 0
M  V30 16992 O 1678.97 2.38698 1.23599 0
M  V30 16993 C 1677.24 3.42352 -1.02614 0
M  V30 16994 S 1678.8 4.31133 -0.816695 0
M  V30 16995 H 1675.62 0.669772 -0.238591 0
M  V30 16996 H 1678.22 1.49877 -1.25527 0
M  V30 16997 H 1676.92 3.53844 -2.079 0
M  V30 16998 H 1676.46 3.91225 -0.41314 0
M  V30 16999 H 1678.47 4.95284 0.301446 0
M  V30 17000 N 1677.64 0.747635 1.38738 0
M  V30 17001 C 1678.57 0.131317 2.3313 0
M  V30 17002 C 1679.55 -0.710229 1.54563 0
M  V30 17003 O 1680.74 -0.652631 1.82905 0
M  V30 17004 C 1677.87 -0.767168 3.38721 0
M  V30 17005 C 1676.82 -0.0288124 4.2799 0
M  V30 17006 C 1676.15 -1.04515 5.24386 0
M  V30 17007 C 1677.45 1.13608 5.09795 0
M  V30 17008 H 1679.14 0.91981 2.84921 0
M  V30 17009 H 1676.69 0.443764 1.36992 0
M  V30 17010 H 1678.64 -1.20796 4.03716 0
M  V30 17011 H 1677.37 -1.58792 2.85399 0
M  V30 17012 H 1676.03 0.392491 3.64493 0
M  V30 17013 H 1675.67 -1.8598 4.67355 0
M  V30 17014 H 1675.37 -0.555813 5.84965 0
M  V30 17015 H 1676.9 -1.48538 5.92257 0
M  V30 17016 H 1678.31 0.773129 5.68063 0
M  V30 17017 H 1676.71 1.55589 5.79579 0
M  V30 17018 H 1677.78 1.95182 4.43883 0
M  V30 17019 N 1679.12 -1.49583 0.496242 0
M  V30 17020 C 1680.07 -2.30677 -0.298474 0
M  V30 17021 C 1681.06 -1.39074 -0.967207 0
M  V30 17022 O 1682.27 -1.56147 -0.895439 0
M  V30 17023 H 1678.64 -0.743138 -0.11511 0
M  V30 17024 H 1680.62 -2.95632 0.405533 0
M  V30 17025 C 1679.36 -3.20297 -1.35297 0
M  V30 17026 H 1678.69 -3.90708 -0.847789 0
M  V30 17027 H 1680.13 -3.79987 -1.88111 0
M  V30 17028 C 1678.59 -2.39584 -2.36857 0
M  V30 17029 O 1679.12 -2.09662 -3.42644 0
M  V30 17030 N 1677.32 -2.01695 -2.09206 0
M  V30 17031 H 1676.87 -2.26229 -1.23201 0
M  V30 17032 H 1676.83 -1.47998 -2.77388 0
M  V30 17033 N 1680.6 -0.229873 -1.55915 0
M  V30 17034 C 1682.01 0.276452 -1.84642 0
M  V30 17035 C 1682.36 1.58861 -1.15142 0
M  V30 17036 O 1681.49 2.12207 -0.423932 0
M  V30 17037 C 1682.08 0.508371 -3.34964 0
M  V30 17038 C 1680.64 0.958989 -3.63979 0
M  V30 17039 C 1679.79 0.0266738 -2.77287 0
M  V30 17040 H 1682.74 -0.452864 -1.52101 0
M  V30 17041 H 1682.76 1.35328 -3.55621 0
M  V30 17042 H 1682.27 -0.4468 -3.8552 0
M  V30 17043 H 1680.37 1.92722 -3.18887 0
M  V30 17044 H 1680.49 0.827637 -4.71897 0
M  V30 17045 H 1678.85 0.53498 -2.49018 0
M  V30 17046 H 1679.63 -0.923563 -3.30644 0
M  V30 17047 N 1682.08 1.5754 0.0434337 0
M  V30 17048 C 1683.3 1.93247 0.753012 0
M  V30 17049 C 1683.73 0.828712 1.68861 0
M  V30 17050 O 1683.09 -0.216618 1.80001 0
M  V30 17051 C 1683.13 3.27989 1.49852 0
M  V30 17052 O 1682.24 3.19223 2.61094 0
M  V30 17053 H 1681.58 0.632032 0.203547 0
M  V30 17054 H 1684.11 2.046 0.00319776 0
M  V30 17055 H 1684.12 3.62539 1.87161 0
M  V30 17056 H 1682.79 4.07891 0.812251 0
M  V30 17057 H 1681.37 2.9628 2.26434 0
M  V30 17058 N 1683.56 -0.31543 1.54411 0
M  V30 17059 C 1684.49 -1.4098 1.80713 0
M  V30 17060 C 1685.5 -1.47481 0.689435 0
M  V30 17061 O 1686.69 -1.50058 0.966682 0
M  V30 17062 C 1683.79 -2.79459 1.91718 0
M  V30 17063 C 1682.96 -2.96064 3.2197 0
M  V30 17064 C 1682.02 -4.14954 3.23573 0
M  V30 17065 O 1681.05 -4.07726 3.97175 0
M  V30 17066 N 1682.25 -5.24889 2.47935 0
M  V30 17067 H 1685.01 -1.18778 2.75158 0
M  V30 17068 H 1682.58 -0.50545 1.53808 0
M  V30 17069 H 1684.57 -3.57215 1.90209 0
M  V30 17070 H 1683.14 -2.94675 1.04333 0
M  V30 17071 H 1682.36 -2.05541 3.36372 0
M  V30 17072 H 1683.65 -3.0406 4.07952 0
M  V30 17073 H 1683.04 -5.33638 1.87741 0
M  V30 17074 H 1681.6 -6.01033 2.52195 0
M  V30 17075 N 1685.03 -1.46622 -0.577906 0
M  V30 17076 C 1686.45 -1.46287 -1.16004 0
M  V30 17077 C 1686.8 -0.206307 -1.95112 0
M  V30 17078 O 1685.92 0.690275 -2.05096 0
M  V30 17079 C 1686.52 -2.65042 -2.1104 0
M  V30 17080 C 1685.08 -2.67733 -2.64567 0
M  V30 17081 C 1684.22 -2.39053 -1.40531 0
M  V30 17082 H 1687.17 -1.54432 -0.365585 0
M  V30 17083 H 1687.19 -2.40834 -2.94583 0
M  V30 17084 H 1686.71 -3.56481 -1.53436 0
M  V30 17085 H 1684.81 -1.80379 -3.26028 0
M  V30 17086 H 1684.92 -3.67836 -3.06974 0
M  V30 17087 H 1683.28 -1.89209 -1.70506 0
M  V30 17088 H 1684.07 -3.32674 -0.847509 0
M  V30 17089 N 1686.51 0.822941 -1.34408 0
M  V30 17090 C 1687.74 1.61607 -1.29992 0
M  V30 17091 C 1688.16 1.87695 0.123301 0
M  V30 17092 O 1687.52 1.45247 1.08504 0
M  V30 17093 C 1687.57 2.934 -2.09639 0
M  V30 17094 O 1686.67 3.85467 -1.4659 0
M  V30 17095 H 1686.01 0.491504 -0.446452 0
M  V30 17096 H 1688.54 1.02264 -1.7721 0
M  V30 17097 H 1688.55 3.42966 -2.20994 0
M  V30 17098 H 1687.23 2.73736 -3.13116 0
M  V30 17099 H 1685.81 3.43984 -1.43978 0
M  V30 17100 N 1687.99 1.18137 1.04314 0
M  V30 17101 C 1689.41 0.930523 1.29667 0
M  V30 17102 C 1689.61 -0.405336 1.97381 0
M  V30 17103 O 1688.66 -1.14025 2.25288 0
M  V30 17104 C 1689.98 2.09427 2.1578 0
M  V30 17105 C 1691.52 2.13229 2.29134 0
M  V30 17106 C 1692 3.29014 3.18612 0
M  V30 17107 N 1693.49 3.28859 3.26199 0
M  V30 17108 C 1694.22 4.15092 3.95583 0
M  V30 17109 N 1693.72 5.11453 4.67319 0
M  V30 17110 N 1695.51 4.03014 3.91837 0
M  V30 17111 H 1687.66 2.04108 0.587669 0
M  V30 17112 H 1689.93 0.89171 0.321804 0
M  V30 17113 H 1689.63 3.06023 1.73328 0
M  V30 17114 H 1689.51 2.0528 3.16449 0
M  V30 17115 H 1691.89 1.17212 2.70823 0
M  V30 17116 H 1691.98 2.21435 1.28064 0
M  V30 17117 H 1691.62 4.25302 2.77635 0
M  V30 17118 H 1691.55 3.18045 4.19708 0
M  V30 17119 H 1694.04 2.59097 2.75095 0
M  V30 17120 H 1694.35 5.7363 5.1785 0
M  V30 17121 H 1692.7 5.15415 4.66232 0
M  V30 17122 H 1695.89 3.27021 3.34925 0
M  V30 17123 H 1696.06 4.70435 4.4564 0
M  V30 17124 N 1689.47 -1.23186 0.98301 0
M  V30 17125 C 1690.88 -1.43814 0.69207 0
M  V30 17126 C 1691.08 -1.87387 -0.740823 0
M  V30 17127 O 1690.14 -2.02154 -1.51295 0
M  V30 17128 C 1691.45 -2.48769 1.68922 0
M  V30 17129 C 1693 -2.62579 1.70356 0
M  V30 17130 C 1693.48 -3.70746 2.68908 0
M  V30 17131 N 1694.97 -3.78192 2.67442 0
M  V30 17132 C 1695.7 -4.61453 3.40366 0
M  V30 17133 N 1695.2 -5.48784 4.22857 0
M  V30 17134 N 1696.99 -4.55673 3.29118 0
M  V30 17135 H 1689.14 -0.932046 1.90858 0
M  V30 17136 H 1691.41 -0.471274 0.82256 0
M  V30 17137 H 1691.11 -2.23675 2.71408 0
M  V30 17138 H 1690.99 -3.47201 1.47415 0
M  V30 17139 H 1693.37 -2.87022 0.685728 0
M  V30 17140 H 1693.45 -1.64454 1.9593 0
M  V30 17141 H 1693.1 -3.47051 3.70834 0
M  V30 17142 H 1693.03 -4.68418 2.40607 0
M  V30 17143 H 1695.52 -3.15785 2.07577 0
M  V30 17144 H 1695.83 -6.09312 4.75351 0
M  V30 17145 H 1694.18 -5.48398 4.26948 0
M  V30 17146 H 1697.37 -3.86468 2.64122 0
M  V30 17147 H 1697.54 -5.20332 3.8621 0
M  V30 17148 N 1690.95 -0.754982 -1.38339 0
M  V30 17149 C 1691.89 -0.128193 -2.30444 0
M  V30 17150 C 1692.86 0.70813 -1.50249 0
M  V30 17151 O 1694.05 0.663969 -1.78875 0
M  V30 17152 C 1691.19 0.757921 -3.36674 0
M  V30 17153 C 1690.3 -0.093181 -4.31899 0
M  V30 17154 C 1689.44 0.796067 -5.25201 0
M  V30 17155 C 1688.48 -0.0585854 -6.12072 0
M  V30 17156 N 1687.61 0.7877 -6.97667 0
M  V30 17157 H 1692.45 -0.919204 -2.83469 0
M  V30 17158 H 1689.99 -0.464921 -1.3956 0
M  V30 17159 H 1691.95 1.28632 -3.96875 0
M  V30 17160 H 1690.58 1.5147 -2.85055 0
M  V30 17161 H 1689.63 -0.73922 -3.73148 0
M  V30 17162 H 1690.94 -0.753146 -4.93081 0
M  V30 17163 H 1690.1 1.39158 -5.90525 0
M  V30 17164 H 1688.83 1.48976 -4.64389 0
M  V30 17165 H 1687.84 -0.666754 -5.45742 0
M  V30 17166 H 1689.06 -0.749361 -6.74953 0
M  V30 17167 H 1687.01 1.46632 -6.39402 0
M  V30 17168 H 1686.93 0.184662 -7.55774 0
M  V30 17169 H 1688.2 1.36814 -7.674 0
M  V30 17170 N 1692.42 1.49318 -0.504168 0
M  V30 17171 C 1693.39 2.27703 0.26157 0
M  V30 17172 C 1694.39 1.3385 0.891114 0
M  V30 17173 O 1695.58 1.56981 0.755156 0
M  V30 17174 C 1692.71 3.11912 1.37564 0
M  V30 17175 H 1693.9 2.96855 -0.426292 0
M  V30 17176 H 1691.46 1.54135 -0.259236 0
M  V30 17177 H 1692.19 2.47332 2.09755 0
M  V30 17178 H 1691.98 3.8092 0.929641 0
M  V30 17179 H 1693.47 3.71106 1.91494 0
M  V30 17180 N 1693.9 0.238138 1.5579 0
M  V30 17181 C 1694.83 -0.659451 2.23994 0
M  V30 17182 C 1695.81 -1.18817 1.21723 0
M  V30 17183 O 1697 -1.22913 1.50353 0
M  V30 17184 C 1694.13 -1.86043 2.93267 0
M  V30 17185 C 1693.08 -1.46485 4.02152 0
M  V30 17186 C 1692.41 -2.74595 4.58805 0
M  V30 17187 C 1693.71 -0.642448 5.18334 0
M  V30 17188 H 1695.4 -0.0907522 2.99262 0
M  V30 17189 H 1692.95 -0.042209 1.43938 0
M  V30 17190 H 1694.9 -2.49393 3.39678 0
M  V30 17191 H 1693.63 -2.45436 2.15473 0
M  V30 17192 H 1692.28 -0.854729 3.56497 0
M  V30 17193 H 1691.93 -3.32168 3.77721 0
M  V30 17194 H 1691.63 -2.48854 5.32302 0
M  V30 17195 H 1693.16 -3.38859 5.07944 0
M  V30 17196 H 1694.57 -1.18005 5.61024 0
M  V30 17197 H 1692.97 -0.481458 5.98166 0
M  V30 17198 H 1694.04 0.347298 4.83655 0
M  V30 17199 N 1695.38 -1.57561 -0.0350783 0
M  V30 17200 C 1696.29 -2.09558 -1.05464 0
M  V30 17201 C 1697.31 -1.03288 -1.40027 0
M  V30 17202 O 1698.48 -1.34987 -1.49467 0
M  V30 17203 C 1695.55 -2.55966 -2.33842 0
M  V30 17204 C 1694.61 -3.76693 -2.05915 0
M  V30 17205 C 1693.84 -4.20878 -3.28172 0
M  V30 17206 O 1694.06 -3.64634 -4.38632 0
M  V30 17207 O 1693 -5.13367 -3.14225 0
M  V30 17208 H 1696.82 -2.9682 -0.642771 0
M  V30 17209 H 1694.41 -1.47265 -0.251668 0
M  V30 17210 H 1696.29 -2.86173 -3.09327 0
M  V30 17211 H 1694.97 -1.71818 -2.74336 0
M  V30 17212 H 1693.87 -3.51514 -1.28018 0
M  V30 17213 H 1695.21 -4.61807 -1.70281 0
M  V30 17214 N 1696.86 0.307236 -1.54576 0
M  V30 17215 C 1698.11 1.04115 -1.73218 0
M  V30 17216 C 1698.43 1.88008 -0.517482 0
M  V30 17217 O 1697.7 1.90219 0.468336 0
M  V30 17218 H 1696.28 0.387388 -0.638701 0
M  V30 17219 H 1698.94 0.339727 -1.91916 0
M  V30 17220 H 1698.04 1.69784 -2.61877 0
M  V30 17221 N 1698.34 1.46926 0.570122 0
M  V30 17222 C 1699.27 1.61311 1.68822 0
M  V30 17223 C 1700.25 0.462964 1.63678 0
M  V30 17224 O 1701.43 0.690745 1.815 0
M  V30 17225 C 1698.56 1.61499 3.07466 0
M  V30 17226 C 1697.52 2.7561 3.27449 0
M  V30 17227 C 1696.84 2.60865 4.66748 0
M  V30 17228 C 1698.14 4.17324 3.14067 0
M  V30 17229 H 1699.84 2.54909 1.5704 0
M  V30 17230 H 1697.38 1.22677 0.754077 0
M  V30 17231 H 1699.34 1.70155 3.8552 0
M  V30 17232 H 1698.06 0.64453 3.20177 0
M  V30 17233 H 1696.72 2.66444 2.51799 0
M  V30 17234 H 1696.37 1.61875 4.76241 0
M  V30 17235 H 1696.07 3.37411 4.81069 0
M  V30 17236 H 1697.59 2.7143 5.46954 0
M  V30 17237 H 1699 4.27534 3.81952 0
M  V30 17238 H 1697.4 4.94555 3.39905 0
M  V30 17239 H 1698.47 4.36596 2.10979 0
M  V30 17240 N 1699.82 -0.815801 1.34842 0
M  V30 17241 C 1700.75 -1.93493 1.22854 0
M  V30 17242 C 1701.76 -1.6207 0.15395 0
M  V30 17243 O 1702.95 -1.73811 0.406428 0
M  V30 17244 C 1700.05 -3.27622 0.867006 0
M  V30 17245 C 1699.22 -3.87017 2.03806 0
M  V30 17246 C 1698.28 -4.99536 1.65378 0
M  V30 17247 O 1697.31 -5.17453 2.37131 0
M  V30 17248 N 1698.51 -5.77674 0.572056 0
M  V30 17249 H 1701.27 -2.04307 2.19269 0
M  V30 17250 H 1698.84 -0.992752 1.27891 0
M  V30 17251 H 1700.83 -4.00353 0.59159 0
M  V30 17252 H 1699.4 -3.12599 -0.00717215 0
M  V30 17253 H 1698.62 -3.06592 2.4778 0
M  V30 17254 H 1699.91 -4.23431 2.82106 0
M  V30 17255 H 1699.3 -5.65695 -0.0242931 0
M  V30 17256 H 1697.86 -6.50825 0.356394 0
M  V30 17257 N 1701.29 -1.18689 -1.03686 0
M  V30 17258 C 1702.52 -1.00814 -1.80333 0
M  V30 17259 C 1702.93 0.446495 -1.83856 0
M  V30 17260 O 1702.27 1.32192 -1.27558 0
M  V30 17261 C 1702.34 -1.49133 -3.27108 0
M  V30 17262 C 1702 -2.97112 -3.47237 0
M  V30 17263 C 1703 -3.94938 -3.38113 0
M  V30 17264 C 1700.68 -3.35628 -3.7371 0
M  V30 17265 C 1702.68 -5.29274 -3.55172 0
M  V30 17266 C 1700.36 -4.70126 -3.90416 0
M  V30 17267 C 1701.36 -5.66758 -3.81148 0
M  V30 17268 O 1701.05 -6.98821 -3.97371 0
M  V30 17269 H 1700.78 -0.356077 -0.574617 0
M  V30 17270 H 1703.34 -1.57754 -1.31541 0
M  V30 17271 H 1701.57 -0.865624 -3.76887 0
M  V30 17272 H 1703.25 -1.27591 -3.85325 0
M  V30 17273 H 1704.02 -3.66527 -3.17621 0
M  V30 17274 H 1699.9 -2.6097 -3.8002 0
M  V30 17275 H 1703.44 -6.04684 -3.47854 0
M  V30 17276 H 1699.34 -4.98236 -4.10404 0
M  V30 17277 H 1700.11 -7.05779 -4.14509 0
M  V30 17278 N 1702.77 1.22662 -0.989529 0
M  V30 17279 C 1704.18 1.73116 -0.699124 0
M  V30 17280 C 1704.53 1.79847 0.784197 0
M  V30 17281 O 1703.66 1.44248 1.61311 0
M  V30 17282 C 1704.25 3.14403 -1.2624 0
M  V30 17283 C 1702.81 3.62275 -1.02144 0
M  V30 17284 C 1701.96 2.40257 -1.38463 0
M  V30 17285 H 1704.91 1.08057 -1.1623 0
M  V30 17286 H 1704.93 3.75091 -0.639307 0
M  V30 17287 H 1704.44 3.09472 -2.34198 0
M  V30 17288 H 1702.54 3.72577 0.0416622 0
M  V30 17289 H 1702.66 4.48587 -1.68245 0
M  V30 17290 H 1701.02 2.41705 -0.803179 0
M  V30 17291 H 1701.8 2.3799 -2.47418 0
M  V30 17292 N 1704.25 0.762308 1.37937 0
M  V30 17293 C 1705.5 0.322369 1.99918 0
M  V30 17294 C 1705.82 -1.09843 1.60514 0
M  V30 17295 O 1705.08 -1.76837 0.83829 0
M  V30 17296 C 1705.38 0.402558 3.55126 0
M  V30 17297 C 1705.04 1.78025 4.14268 0
M  V30 17298 C 1703.71 2.15727 4.30134 0
M  V30 17299 C 1706.06 2.68359 4.46803 0
M  V30 17300 C 1703.39 3.43217 4.75835 0
M  V30 17301 C 1705.74 3.95248 4.93925 0
M  V30 17302 C 1704.4 4.33007 5.07997 0
M  V30 17303 H 1703.67 0.117963 0.73155 0
M  V30 17304 H 1706.32 0.974491 1.64851 0
M  V30 17305 H 1704.62 -0.333119 3.90381 0
M  V30 17306 H 1706.32 0.0436064 4.00976 0
M  V30 17307 H 1702.91 1.4772 4.02339 0
M  V30 17308 H 1707.1 2.40493 4.34139 0
M  V30 17309 H 1702.35 3.72379 4.84916 0
M  V30 17310 H 1706.53 4.6538 5.18068 0
M  V30 17311 H 1704.15 5.31856 5.4317 0
M  V30 17312 N 1705.73 -1.49049 0.51208 0
M  V30 17313 C 1706.69 -2.27838 -0.249491 0
M  V30 17314 C 1707.69 -1.34321 -0.884004 0
M  V30 17315 O 1708.88 -1.57379 -0.74682 0
M  V30 17316 C 1706.01 -3.12637 -1.35908 0
M  V30 17317 H 1707.21 -2.96625 0.442029 0
M  V30 17318 H 1704.76 -1.53996 0.267406 0
M  V30 17319 H 1705.49 -2.48441 -2.0844 0
M  V30 17320 H 1705.28 -3.81408 -0.909427 0
M  V30 17321 H 1706.77 -3.72117 -1.89523 0
M  V30 17322 N 1707.21 -0.246397 -1.55662 0
M  V30 17323 C 1708.45 0.379047 -1.99226 0
M  V30 17324 C 1708.78 1.57627 -1.13434 0
M  V30 17325 O 1708.06 1.93493 -0.197627 0
M  V30 17326 C 1708.34 0.789403 -3.51341 0
M  V30 17327 C 1708.2 -0.413176 -4.47898 0
M  V30 17328 C 1709.51 1.63656 -4.0854 0
M  V30 17329 H 1706.63 0.136302 -0.724286 0
M  V30 17330 H 1709.28 -0.347607 -1.86793 0
M  V30 17331 H 1707.43 1.40854 -3.62067 0
M  V30 17332 H 1709.1 -1.0516 -4.49154 0
M  V30 17333 H 1707.34 -1.05636 -4.20741 0
M  V30 17334 H 1708.01 -0.0827267 -5.51938 0
M  V30 17335 H 1710.49 1.11393 -4.00912 0
M  V30 17336 H 1709.36 1.89254 -5.15242 0
M  V30 17337 H 1709.62 2.60823 -3.56965 0
M  V30 17338 N 1708.68 1.57577 0.026722 0
M  V30 17339 C 1709.91 1.9364 0.728771 0
M  V30 17340 C 1710.33 0.846352 1.68767 0
M  V30 17341 O 1709.68 -0.177038 1.81639 0
M  V30 17342 C 1709.73 3.29644 1.48381 0
M  V30 17343 O 1709.46 4.34462 0.563393 0
M  V30 17344 C 1710.96 3.80004 2.2828 0
M  V30 17345 H 1708.18 0.639025 0.204666 0
M  V30 17346 H 1710.72 2.04493 -0.016449 0
M  V30 17347 H 1708.88 3.20181 2.18089 0
M  V30 17348 H 1709.29 5.12982 1.09315 0
M  V30 17349 H 1710.76 4.77671 2.76649 0
M  V30 17350 H 1711.24 3.11319 3.09802 0
M  V30 17351 H 1711.85 3.92558 1.63642 0
M  V30 17352 N 1710.16 -0.299034 1.54737 0
M  V30 17353 C 1711.39 -1.05723 1.7843 0
M  V30 17354 C 1711.81 -1.80089 0.543094 0
M  V30 17355 O 1711.17 -1.74083 -0.506438 0
M  V30 17356 C 1711.22 -2.01193 2.99255 0
M  V30 17357 O 1710.32 -3.09528 2.72518 0
M  V30 17358 H 1709.66 -0.303614 0.590521 0
M  V30 17359 H 1712.19 -0.335859 2.01825 0
M  V30 17360 H 1712.2 -2.43623 3.27279 0
M  V30 17361 H 1710.88 -1.46472 3.89254 0
M  V30 17362 H 1709.45 -2.71599 2.55516 0
M  V30 17363 N 1711.64 -1.47227 -0.562322 0
M  V30 17364 C 1712.87 -1.56968 -1.34331 0
M  V30 17365 C 1713.28 -0.217012 -1.87951 0
M  V30 17366 O 1712.62 0.79911 -1.65408 0
M  V30 17367 C 1712.68 -2.53072 -2.55332 0
M  V30 17368 C 1712.35 -3.98879 -2.23035 0
M  V30 17369 C 1713.34 -4.87511 -1.80636 0
M  V30 17370 C 1711.03 -4.44174 -2.34551 0
M  V30 17371 C 1713.02 -6.19456 -1.50176 0
M  V30 17372 C 1710.71 -5.76149 -2.03704 0
M  V30 17373 C 1711.71 -6.63611 -1.61584 0
M  V30 17374 O 1711.4 -7.93134 -1.31125 0
M  V30 17375 H 1711.13 -0.532854 -0.415984 0
M  V30 17376 H 1713.68 -1.93515 -0.688552 0
M  V30 17377 H 1711.91 -2.11582 -3.23682 0
M  V30 17378 H 1713.6 -2.52996 -3.17408 0
M  V30 17379 H 1714.37 -4.53766 -1.71236 0
M  V30 17380 H 1710.25 -3.76308 -2.66295 0
M  V30 17381 H 1713.79 -6.8768 -1.17227 0
M  V30 17382 H 1709.69 -6.09438 -2.12735 0
M  V30 17383 H 1710.45 -8.0559 -1.44799 0
M  V30 17384 N 1713.12 0.808639 -1.35273 0
M  V30 17385 C 1714.37 1.56253 -1.28177 0
M  V30 17386 C 1714.69 1.94466 0.144151 0
M  V30 17387 O 1713.96 1.63433 1.08011 0
M  V30 17388 H 1712.54 0.579431 -0.471454 0
M  V30 17389 H 1715.2 0.964675 -1.69352 0
M  V30 17390 H 1714.29 2.47888 -1.89625 0
M  V30 17391 N 1714.6 1.19237 1.03055 0
M  V30 17392 C 1715.54 0.928588 2.11296 0
M  V30 17393 C 1716.51 -0.135941 1.65543 0
M  V30 17394 O 1717.7 0.00584847 1.90799 0
M  V30 17395 C 1714.84 0.471532 3.41863 0
M  V30 17396 C 1713.95 1.60264 4.01173 0
M  V30 17397 C 1713.09 1.09729 5.19743 0
M  V30 17398 C 1712.13 2.2024 5.71105 0
M  V30 17399 N 1711.26 1.71024 6.80952 0
M  V30 17400 H 1716.1 1.85536 2.33196 0
M  V30 17401 H 1713.64 0.925029 1.14375 0
M  V30 17402 H 1715.6 0.187949 4.16776 0
M  V30 17403 H 1714.23 -0.41825 3.20079 0
M  V30 17404 H 1713.28 2.00147 3.23489 0
M  V30 17405 H 1714.59 2.43531 4.35309 0
M  V30 17406 H 1713.75 0.768832 6.01809 0
M  V30 17407 H 1712.48 0.234324 4.87137 0
M  V30 17408 H 1711.49 2.53918 4.87653 0
M  V30 17409 H 1712.71 3.06989 6.05751 0
M  V30 17410 H 1710.66 0.870334 6.50201 0
M  V30 17411 H 1710.58 2.47882 7.14206 0
M  V30 17412 H 1711.85 1.41137 7.66616 0
M  V30 17413 N 1716.07 -1.22136 0.99602 0
M  V30 17414 C 1717.02 -2.262 0.541868 0
M  V30 17415 C 1718.02 -1.64387 -0.409047 0
M  V30 17416 O 1719.22 -1.7779 -0.281224 0
M  V30 17417 H 1715.6 -0.73546 0.156851 0
M  V30 17418 H 1717.57 -2.61853 1.43092 0
M  V30 17419 C 1716.32 -3.47476 -0.124723 0
M  V30 17420 H 1715.64 -3.95303 0.597934 0
M  V30 17421 H 1717.08 -4.22053 -0.405902 0
M  V30 17422 C 1715.54 -3.08183 -1.36105 0
M  V30 17423 O 1716.07 -3.17862 -2.45615 0
M  V30 17424 N 1714.28 -2.62936 -1.23746 0
M  V30 17425 H 1713.82 -2.5526 -0.346394 0
M  V30 17426 H 1713.78 -2.37014 -2.06572 0
M  V30 17427 N 1717.55 -0.769612 -1.37531 0
M  V30 17428 C 1718.48 -0.168389 -2.32892 0
M  V30 17429 C 1719.46 0.685549 -1.55673 0
M  V30 17430 O 1720.65 0.62345 -1.8392 0
M  V30 17431 C 1717.78 0.713183 -3.39898 0
M  V30 17432 C 1716.73 -0.0392808 -4.27982 0
M  V30 17433 C 1716.06 0.961596 -5.25982 0
M  V30 17434 C 1717.36 -1.21704 -5.07923 0
M  V30 17435 H 1719.05 -0.965022 -2.83421 0
M  V30 17436 H 1716.6 -0.465502 -1.36268 0
M  V30 17437 H 1718.55 1.14358 -4.05586 0
M  V30 17438 H 1717.28 1.54231 -2.87889 0
M  V30 17439 H 1715.93 -0.450429 -3.63822 0
M  V30 17440 H 1715.58 1.78522 -4.70254 0
M  V30 17441 H 1715.28 0.462679 -5.85776 0
M  V30 17442 H 1716.81 1.39097 -5.94545 0
M  V30 17443 H 1718.22 -0.863405 -5.66761 0
M  V30 17444 H 1716.62 -1.6479 -5.77031 0
M  V30 17445 H 1717.69 -2.02219 -4.40722 0
M  V30 17446 N 1719.03 1.48775 -0.519977 0
M  V30 17447 C 1720.26 2.06595 0.013978 0
M  V30 17448 C 1720.67 1.37819 1.29624 0
M  V30 17449 O 1720.01 0.456315 1.77942 0
M  V30 17450 C 1720.07 3.58085 0.318694 0
M  V30 17451 C 1719.74 4.48669 -0.868623 0
M  V30 17452 C 1720.73 4.89048 -1.76432 0
M  V30 17453 C 1718.42 4.9071 -1.07279 0
M  V30 17454 C 1720.41 5.70226 -2.84818 0
M  V30 17455 C 1718.1 5.7166 -2.15981 0
M  V30 17456 C 1719.1 6.11325 -3.04583 0
M  V30 17457 O 1718.79 6.90653 -4.11405 0
M  V30 17458 H 1718.52 0.675506 -0.02584 0
M  V30 17459 H 1721.07 1.92289 -0.722099 0
M  V30 17460 H 1719.3 3.70468 1.10861 0
M  V30 17461 H 1720.99 3.98068 0.793529 0
M  V30 17462 H 1721.76 4.57198 -1.61848 0
M  V30 17463 H 1717.64 4.59326 -0.392454 0
M  V30 17464 H 1721.18 6.01105 -3.54004 0
M  V30 17465 H 1717.08 6.02923 -2.30552 0
M  V30 17466 H 1717.85 7.08991 -4.08992 0
M  V30 17467 N 1720.51 0.254649 1.55529 0
M  V30 17468 C 1721.76 -0.367932 1.99129 0
M  V30 17469 C 1722.08 -1.5738 1.14288 0
M  V30 17470 O 1721.34 -1.94721 0.195543 0
M  V30 17471 C 1721.64 -0.813781 3.48012 0
M  V30 17472 C 1721.3 0.285187 4.49997 0
M  V30 17473 C 1719.97 0.586996 4.77606 0
M  V30 17474 C 1722.32 1.02673 5.10987 0
M  V30 17475 C 1719.65 1.63429 5.63478 0
M  V30 17476 C 1722 2.0636 5.97995 0
M  V30 17477 C 1720.66 2.37197 6.23934 0
M  V30 17478 H 1719.93 -0.134636 0.728666 0
M  V30 17479 H 1722.58 0.364091 1.88007 0
M  V30 17480 H 1720.88 -1.62514 3.56506 0
M  V30 17481 H 1722.58 -1.3059 3.7914 0
M  V30 17482 H 1719.17 0.0398187 4.28582 0
M  V30 17483 H 1723.35 0.806814 4.89698 0
M  V30 17484 H 1718.61 1.87846 5.81828 0
M  V30 17485 H 1722.78 2.64306 6.44294 0
M  V30 17486 H 1720.41 3.18487 6.90268 0
M  V30 17487 N 1721.99 -1.57589 -0.0183649 0
M  V30 17488 C 1723.21 -1.94024 -0.718491 0
M  V30 17489 C 1723.63 -0.85529 -1.68316 0
M  V30 17490 O 1722.99 0.167403 -1.81731 0
M  V30 17491 C 1723.04 -3.30427 -1.4663 0
M  V30 17492 O 1722.76 -4.34755 -0.540345 0
M  V30 17493 C 1724.26 -3.81209 -2.26262 0
M  V30 17494 H 1721.48 -0.640101 -0.201275 0
M  V30 17495 H 1724.02 -2.04482 0.0272935 0
M  V30 17496 H 1722.18 -3.21333 -2.16388 0
M  V30 17497 H 1722.59 -5.13554 -1.06593 0
M  V30 17498 H 1724.07 -4.79131 -2.74112 0
M  V30 17499 H 1724.54 -3.12957 -3.08147 0
M  V30 17500 H 1725.15 -3.9342 -1.61558 0
M  V30 17501 N 1723.46 0.290824 -1.54893 0
M  V30 17502 C 1724.74 1.04495 -1.65348 0
M  V30 17503 C 1725.12 2.04888 -0.508348 0
M  V30 17504 O 1724.47 2.23102 0.493749 0
M  V30 17505 C 1724.68 1.71772 -3.03801 0
M  V30 17506 C 1726.03 2.23595 -3.60958 0
M  V30 17507 O 1727.05 1.81788 -3.06319 0
M  V30 17508 O 1725.91 3.00225 -4.56648 0
M  V30 17509 H 1723 0.483605 -0.670862 0
M  V30 17510 H 1725.55 0.288101 -1.67237 0
M  V30 17511 H 1724.32 0.989296 -3.78588 0
M  V30 17512 H 1723.95 2.54188 -3.05735 0
M  V30 17513 N 1724.94 1.47523 0.554506 0
M  V30 17514 C 1726.19 1.55498 1.31118 0
M  V30 17515 C 1726.54 0.215527 1.91189 0
M  V30 17516 O 1725.84 -0.779071 1.75046 0
M  V30 17517 C 1726.03 2.6113 2.4402 0
M  V30 17518 C 1725.86 4.05216 1.95013 0
M  V30 17519 C 1724.63 4.72634 1.78732 0
M  V30 17520 C 1726.83 4.92152 1.49301 0
M  V30 17521 N 1724.81 6.01227 1.24093 0
M  V30 17522 C 1726.18 6.10794 1.06445 0
M  V30 17523 C 1728.24 4.78573 1.37378 0
M  V30 17524 C 1726.94 7.17356 0.5285 0
M  V30 17525 C 1728.96 5.85233 0.851839 0
M  V30 17526 C 1728.33 7.03067 0.433218 0
M  V30 17527 H 1724.43 0.6237 0.471723 0
M  V30 17528 H 1727.01 1.84286 0.628223 0
M  V30 17529 H 1725.18 2.34205 3.09843 0
M  V30 17530 H 1726.91 2.58933 3.11024 0
M  V30 17531 H 1723.67 4.28583 2.01528 0
M  V30 17532 H 1724.09 6.69744 0.988532 0
M  V30 17533 H 1728.73 3.87836 1.68354 0
M  V30 17534 H 1726.45 8.07836 0.20637 0
M  V30 17535 H 1730.04 5.76774 0.763097 0
M  V30 17536 H 1728.92 7.84192 0.0356063 0
M  V30 17537 N 1726.42 -0.801453 1.357 0
M  V30 17538 C 1727.37 -1.91355 1.29043 0
M  V30 17539 C 1728.34 -1.65314 0.161381 0
M  V30 17540 O 1729.52 -1.87638 0.345928 0
M  V30 17541 C 1726.66 -3.27979 1.07348 0
M  V30 17542 C 1725.78 -3.66172 2.29221 0
M  V30 17543 C 1724.91 -4.91853 2.00635 0
M  V30 17544 C 1723.95 -5.22688 3.18533 0
M  V30 17545 N 1723.09 -6.3955 2.8969 0
M  V30 17546 H 1727.93 -1.96381 2.24139 0
M  V30 17547 H 1725.46 -0.960502 1.11413 0
M  V30 17548 H 1727.42 -4.06748 0.928002 0
M  V30 17549 H 1726.05 -3.22408 0.159115 0
M  V30 17550 H 1725.1 -2.82623 2.54615 0
M  V30 17551 H 1726.42 -3.84916 3.1724 0
M  V30 17552 H 1725.57 -5.78459 1.82947 0
M  V30 17553 H 1724.31 -4.75154 1.09908 0
M  V30 17554 H 1723.31 -4.34569 3.36793 0
M  V30 17555 H 1724.54 -5.41313 4.10069 0
M  V30 17556 H 1722.48 -6.24266 2.01562 0
M  V30 17557 H 1722.4 -6.58569 3.71245 0
M  V30 17558 H 1723.67 -7.29171 2.75555 0
M  V30 17559 N 1727.9 -1.19782 -1.02421 0
M  V30 17560 C 1728.83 -0.883119 -2.10419 0
M  V30 17561 C 1729.81 0.161733 -1.61794 0
M  V30 17562 O 1730.99 0.037003 -1.88464 0
M  V30 17563 C 1728.12 -0.322524 -3.37161 0
M  V30 17564 C 1727.17 -1.34717 -4.04665 0
M  V30 17565 S 1728 -2.9094 -4.49571 0
M  V30 17566 C 1729.16 -2.36436 -5.79525 0
M  V30 17567 H 1729.39 -1.79772 -2.36789 0
M  V30 17568 H 1726.92 -1.02546 -1.15428 0
M  V30 17569 H 1728.88 -0.00561772 -4.105 0
M  V30 17570 H 1727.54 0.570462 -3.08876 0
M  V30 17571 H 1726.73 -0.904136 -4.95824 0
M  V30 17572 H 1726.34 -1.61116 -3.37517 0
M  V30 17573 H 1728.63 -1.75722 -6.54315 0
M  V30 17574 H 1729.57 -3.25961 -6.28614 0
M  V30 17575 H 1729.98 -1.78841 -5.35421 0
M  V30 17576 N 1729.38 1.21606 -1.00248 0
M  V30 17577 C 1730.33 2.2591 -0.553856 0
M  V30 17578 C 1731.32 1.64602 0.400323 0
M  V30 17579 O 1732.53 1.77936 0.271792 0
M  V30 17580 H 1728.9 0.734618 -0.160749 0
M  V30 17581 H 1730.87 2.61091 -1.44479 0
M  V30 17582 C 1729.62 3.47537 0.106293 0
M  V30 17583 H 1728.94 3.94981 -0.61889 0
M  V30 17584 H 1730.38 4.22262 0.383514 0
M  V30 17585 C 1728.84 3.08901 1.34469 0
M  V30 17586 O 1729.37 3.1916 2.43926 0
M  V30 17587 N 1727.58 2.63588 1.2235 0
M  V30 17588 H 1727.13 2.55441 0.332852 0
M  V30 17589 H 1727.08 2.38106 2.05312 0
M  V30 17590 N 1730.86 0.776895 1.37121 0
M  V30 17591 C 1732.08 0.353911 2.04358 0
M  V30 17592 C 1732.51 -1.01745 1.58207 0
M  V30 17593 O 1731.86 -1.653 0.744691 0
M  V30 17594 C 1731.91 0.411918 3.5824 0
M  V30 17595 O 1731.02 -0.58576 4.08219 0
M  V30 17596 H 1730.36 0.152335 0.64629 0
M  V30 17597 H 1732.89 1.05452 1.75331 0
M  V30 17598 H 1732.9 0.271043 4.07099 0
M  V30 17599 H 1731.57 1.41236 3.91185 0
M  V30 17600 H 1730.15 -0.40758 3.70666 0
M  V30 17601 N 1732.33 -1.48497 0.527859 0
M  V30 17602 C 1733.58 -2.02799 -0.00702196 0
M  V30 17603 C 1733.91 -1.40433 -1.34135 0
M  V30 17604 O 1733.19 -0.54934 -1.86581 0
M  V30 17605 C 1733.47 -3.59861 -0.131272 0
M  V30 17606 C 1733.32 -4.32711 1.22807 0
M  V30 17607 C 1734.64 -4.31634 -0.85908 0
M  V30 17608 H 1731.76 -0.736999 -0.00107787 0
M  V30 17609 H 1734.4 -1.77242 0.684478 0
M  V30 17610 H 1732.55 -3.81766 -0.720216 0
M  V30 17611 H 1734.23 -4.22229 1.85796 0
M  V30 17612 H 1732.47 -3.94212 1.8105 0
M  V30 17613 H 1733.14 -5.41047 1.09415 0
M  V30 17614 H 1735.62 -4.14546 -0.359322 0
M  V30 17615 H 1734.49 -5.41221 -0.914911 0
M  V30 17616 H 1734.75 -3.98765 -1.90889 0
M  V30 17617 N 1733.81 -0.262893 -1.55392 0
M  V30 17618 C 1735.06 0.357895 -1.99617 0
M  V30 17619 C 1735.39 1.56415 -1.151 0
M  V30 17620 O 1734.67 1.93273 -0.218139 0
M  V30 17621 C 1734.95 0.752095 -3.52158 0
M  V30 17622 C 1734.8 -0.460658 -4.47435 0
M  V30 17623 C 1736.12 1.59314 -4.10253 0
M  V30 17624 H 1733.24 0.128612 -0.725691 0
M  V30 17625 H 1735.88 -0.367399 -1.86414 0
M  V30 17626 H 1734.03 1.37006 -3.6354 0
M  V30 17627 H 1735.7 -1.09918 -4.48013 0
M  V30 17628 H 1733.95 -1.10093 -4.19597 0
M  V30 17629 H 1734.62 -0.141262 -5.51819 0
M  V30 17630 H 1737.09 1.07135 -4.02071 0
M  V30 17631 H 1735.97 1.83779 -5.1722 0
M  V30 17632 H 1736.23 2.57022 -3.59711 0
M  V30 17633 N 1735.29 1.57597 0.0100073 0
M  V30 17634 C 1736.25 2.06745 0.989401 0
M  V30 17635 C 1737.25 0.97499 1.27869 0
M  V30 17636 O 1738.44 1.23798 1.22555 0
M  V30 17637 C 1735.57 2.50048 2.31709 0
M  V30 17638 H 1736.77 2.9454 0.564473 0
M  V30 17639 H 1734.32 1.54168 0.257266 0
M  V30 17640 H 1735.06 1.65466 2.78911 0
M  V30 17641 H 1734.84 3.29823 2.12035 0
M  V30 17642 H 1736.33 2.88433 3.01987 0
M  V30 17643 N 1736.77 -0.282606 1.55045 0
M  V30 17644 C 1737.7 -1.35347 1.90272 0
M  V30 17645 C 1738.68 -1.52001 0.763532 0
M  V30 17646 O 1739.86 -1.65204 1.02085 0
M  V30 17647 C 1736.99 -2.71464 2.16621 0
M  V30 17648 C 1735.95 -2.69554 3.32453 0
M  V30 17649 C 1735.27 -4.09132 3.4426 0
M  V30 17650 C 1736.57 -2.29669 4.69094 0
M  V30 17651 H 1738.27 -1.06113 2.79965 0
M  V30 17652 H 1735.81 -0.509018 1.34703 0
M  V30 17653 H 1737.77 -3.46482 2.39851 0
M  V30 17654 H 1736.49 -3.02261 1.23717 0
M  V30 17655 H 1735.15 -1.96993 3.09175 0
M  V30 17656 H 1734.8 -4.37136 2.4884 0
M  V30 17657 H 1734.5 -4.08751 4.22133 0
M  V30 17658 H 1736.02 -4.85903 3.69771 0
M  V30 17659 H 1737.44 -2.94407 4.91932 0
M  V30 17660 H 1735.83 -2.40467 5.49814 0
M  V30 17661 H 1736.9 -1.24796 4.68566 0
M  V30 17662 N 1738.25 -1.47815 -0.546675 0
M  V30 17663 C 1739.52 -1.45464 -1.30765 0
M  V30 17664 C 1739.9 -0.157249 -2.10514 0
M  V30 17665 O 1739.25 0.861203 -2.1165 0
M  V30 17666 C 1739.46 -2.70661 -2.20326 0
M  V30 17667 C 1740.81 -3.18309 -2.81007 0
M  V30 17668 O 1741.83 -2.71462 -2.30623 0
M  V30 17669 O 1740.69 -3.9978 -3.7261 0
M  V30 17670 H 1737.79 -0.580175 -0.589343 0
M  V30 17671 H 1740.33 -1.60029 -0.564707 0
M  V30 17672 H 1739.1 -3.56612 -1.61069 0
M  V30 17673 H 1738.73 -2.58734 -3.01898 0
M  V30 17674 N 1739.72 0.794246 -1.36123 0
M  V30 17675 C 1740.65 1.92105 -1.32732 0
M  V30 17676 C 1741.63 1.68925 -0.199603 0
M  V30 17677 O 1742.82 1.90109 -0.396498 0
M  V30 17678 C 1739.95 3.29051 -1.11098 0
M  V30 17679 C 1738.9 3.66743 -2.20643 0
M  V30 17680 C 1738.23 5.01986 -1.84159 0
M  V30 17681 C 1739.53 3.75831 -3.62696 0
M  V30 17682 H 1741.22 1.952 -2.27018 0
M  V30 17683 H 1738.77 0.937746 -1.09281 0
M  V30 17684 H 1740.72 4.07494 -1.07362 0
M  V30 17685 H 1739.45 3.26331 -0.132614 0
M  V30 17686 H 1738.11 2.90594 -2.23497 0
M  V30 17687 H 1737.75 4.95782 -0.849081 0
M  V30 17688 H 1737.45 5.28175 -2.57497 0
M  V30 17689 H 1738.98 5.82855 -1.8197 0
M  V30 17690 H 1740.39 4.44476 -3.62096 0
M  V30 17691 H 1738.79 4.135 -4.34899 0
M  V30 17692 H 1739.86 2.7706 -3.97952 0
M  V30 17693 N 1741.2 1.20323 1.01785 0
M  V30 17694 C 1742.16 0.9527 2.08462 0
M  V30 17695 C 1743.16 -0.0712564 1.60642 0
M  V30 17696 O 1744.35 0.164672 1.7342 0
M  V30 17697 C 1741.49 0.434052 3.38125 0
M  V30 17698 H 1742.68 1.89895 2.32121 0
M  V30 17699 H 1740.23 1.01843 1.18565 0
M  V30 17700 H 1740.97 -0.51772 3.20141 0
M  V30 17701 H 1740.75 1.17248 3.74159 0
M  V30 17702 H 1742.24 0.278215 4.16672 0
M  V30 17703 N 1742.68 -1.21073 1.00892 0
M  V30 17704 C 1743.93 -1.89559 0.689214 0
M  V30 17705 C 1744.24 -1.79211 -0.783753 0
M  V30 17706 O 1745.45 -2.42761 -1.2157 0
M  V30 17707 C 1743.9 -3.39925 1.18232 0
M  V30 17708 C 1743.51 -3.58876 2.68164 0
M  V30 17709 C 1745.26 -4.14014 0.937683 0
M  V30 17710 C 1743.16 -5.03027 3.10995 0
M  V30 17711 H 1742.09 -0.709895 0.254098 0
M  V30 17712 H 1744.74 -1.37017 1.2206 0
M  V30 17713 H 1743.13 -3.91745 0.578961 0
M  V30 17714 H 1744.3 -3.17478 3.33983 0
M  V30 17715 H 1742.61 -2.98146 2.90685 0
M  V30 17716 H 1745.21 -5.20285 1.23319 0
M  V30 17717 H 1745.55 -4.16109 -0.126003 0
M  V30 17718 H 1746.09 -3.68271 1.50403 0
M  V30 17719 H 1742.83 -5.06082 4.16607 0
M  V30 17720 H 1742.35 -5.45266 2.49891 0
M  V30 17721 H 1744.03 -5.7156 3.03197 0
M  V30 17722 N 1744.16 -0.784156 -1.36707 0
M  V30 17723 C 1745.38 -0.364744 -2.04168 0
M  V30 17724 C 1745.81 1.00905 -1.58745 0
M  V30 17725 O 1745.17 1.64903 -0.753447 0
M  V30 17726 C 1745.21 -0.43091 -3.58016 0
M  V30 17727 O 1744.32 0.564103 -4.08524 0
M  V30 17728 H 1743.66 -0.15576 -0.645473 0
M  V30 17729 H 1746.19 -1.0638 -1.74769 0
M  V30 17730 H 1746.2 -0.292629 -4.06949 0
M  V30 17731 H 1744.87 -1.43308 -3.9043 0
M  V30 17732 H 1743.45 0.387917 -3.70877 0
M  V30 17733 N 1745.64 1.48215 -0.535727 0
M  V30 17734 C 1746.58 2.29711 0.223891 0
M  V30 17735 C 1747.55 1.37727 0.928471 0
M  V30 17736 O 1748.74 1.66691 0.928375 0
M  V30 17737 C 1745.88 3.21224 1.26131 0
M  V30 17738 C 1744.99 4.2829 0.564985 0
M  V30 17739 C 1744.13 5.06976 1.58583 0
M  V30 17740 C 1743.17 6.05838 0.873288 0
M  V30 17741 N 1742.3 6.77562 1.83994 0
M  V30 17742 H 1747.14 2.94154 -0.477242 0
M  V30 17743 H 1744.68 1.45008 -0.247186 0
M  V30 17744 H 1746.64 3.72685 1.87514 0
M  V30 17745 H 1745.27 2.58693 1.93075 0
M  V30 17746 H 1744.32 3.80051 -0.162916 0
M  V30 17747 H 1745.63 4.988 0.00578231 0
M  V30 17748 H 1744.79 5.6248 2.27379 0
M  V30 17749 H 1743.52 4.36319 2.17893 0
M  V30 17750 H 1742.53 5.49533 0.171286 0
M  V30 17751 H 1743.75 6.78497 0.286219 0
M  V30 17752 H 1741.7 6.09651 2.42202 0
M  V30 17753 H 1741.62 7.44167 1.33233 0
M  V30 17754 H 1742.89 7.37652 2.51971 0
M  V30 17755 N 1747.11 0.27113 1.5525 0
M  V30 17756 C 1748.02 -0.628245 2.26031 0
M  V30 17757 C 1749.04 -1.17339 1.28481 0
M  V30 17758 O 1750.22 -1.20453 1.61409 0
M  V30 17759 C 1747.28 -1.79766 2.96454 0
M  V30 17760 C 1746.34 -1.28958 4.09473 0
M  V30 17761 C 1745.58 -2.40326 4.76528 0
M  V30 17762 O 1745.8 -3.59595 4.42772 0
M  V30 17763 O 1744.73 -2.08708 5.64557 0
M  V30 17764 H 1748.56 -0.0549756 3.0365 0
M  V30 17765 H 1746.14 0.0386859 1.4935 0
M  V30 17766 H 1748.03 -2.4796 3.40725 0
M  V30 17767 H 1746.7 -2.35809 2.21756 0
M  V30 17768 H 1745.61 -0.57422 3.69667 0
M  V30 17769 H 1746.94 -0.774945 4.86061 0
M  V30 17770 N 1748.59 -1.576 -0.00164943 0
M  V30 17771 C 1749.82 -1.94775 -0.697872 0
M  V30 17772 C 1750.24 -0.873094 -1.67399 0
M  V30 17773 O 1749.59 0.148119 -1.81898 0
M  V30 17774 C 1749.64 -3.31963 -1.43117 0
M  V30 17775 O 1749.36 -4.35304 -0.494203 0
M  V30 17776 C 1750.87 -3.83588 -2.22206 0
M  V30 17777 H 1748.09 -0.6422 -0.194474 0
M  V30 17778 H 1750.63 -2.04441 0.04898 0
M  V30 17779 H 1748.78 -3.2361 -2.12967 0
M  V30 17780 H 1749.2 -5.14656 -1.0114 0
M  V30 17781 H 1750.67 -4.82012 -2.69014 0
M  V30 17782 H 1751.15 -3.16208 -3.0481 0
M  V30 17783 H 1751.76 -3.95111 -1.57376 0
M  V30 17784 N 1750.07 0.274379 -1.55193 0
M  V30 17785 C 1751.35 1.02736 -1.66447 0
M  V30 17786 C 1751.73 2.04337 -0.530051 0
M  V30 17787 O 1751.08 2.23613 0.470058 0
M  V30 17788 C 1751.29 1.6854 -3.05606 0
M  V30 17789 C 1752.63 2.19754 -3.63309 0
M  V30 17790 O 1753.66 1.78529 -3.0823 0
M  V30 17791 O 1752.52 2.95364 -4.59807 0
M  V30 17792 H 1749.61 0.476462 -0.675953 0
M  V30 17793 H 1752.16 0.270347 -1.67533 0
M  V30 17794 H 1750.93 0.949086 -3.79616 0
M  V30 17795 H 1750.55 2.50931 -3.08414 0
M  V30 17796 N 1751.55 1.48103 0.538828 0
M  V30 17797 C 1752.51 1.61495 1.62641 0
M  V30 17798 C 1753.51 0.488792 1.53191 0
M  V30 17799 O 1754.7 0.754355 1.57019 0
M  V30 17800 C 1751.83 1.57681 3.02241 0
M  V30 17801 H 1753.03 2.58462 1.5211 0
M  V30 17802 H 1750.58 1.36567 0.760201 0
M  V30 17803 H 1751.31 0.621583 3.18287 0
M  V30 17804 H 1751.1 2.3943 3.10509 0
M  V30 17805 H 1752.59 1.70228 3.81329 0
M  V30 17806 N 1753.03 -0.787016 1.36542 0
M  V30 17807 C 1754.27 -1.54499 1.30906 0
M  V30 17808 C 1754.6 -1.94183 -0.110963 0
M  V30 17809 O 1753.86 -1.63149 -1.08079 0
M  V30 17810 C 1754.16 -2.83235 2.17974 0
M  V30 17811 C 1753.82 -2.62677 3.66485 0
M  V30 17812 C 1752.48 -2.56779 4.06962 0
M  V30 17813 C 1754.84 -2.43853 4.60636 0
M  V30 17814 C 1752.16 -2.30026 5.39727 0
M  V30 17815 C 1754.52 -2.18626 5.93621 0
M  V30 17816 C 1753.18 -2.11162 6.33219 0
M  V30 17817 H 1752.45 -0.565352 0.479017 0
M  V30 17818 H 1755.1 -0.907794 1.68616 0
M  V30 17819 H 1753.4 -3.51435 1.73208 0
M  V30 17820 H 1755.1 -3.41038 2.10936 0
M  V30 17821 H 1751.69 -2.68125 3.34376 0
M  V30 17822 H 1755.87 -2.4741 4.30235 0
M  V30 17823 H 1751.13 -2.22731 5.69386 0
M  V30 17824 H 1755.3 -2.03056 6.66139 0
M  V30 17825 H 1752.93 -1.90195 7.36023 0
M  V30 17826 N 1754.5 -1.20861 -1.01145 0
M  V30 17827 C 1755.44 -0.919862 -2.09931 0
M  V30 17828 C 1756.45 0.0944116 -1.62526 0
M  V30 17829 O 1757.64 -0.137265 -1.77971 0
M  V30 17830 C 1754.74 -0.358478 -3.36999 0
M  V30 17831 C 1753.91 -1.42553 -4.13518 0
M  V30 17832 C 1752.97 -0.874546 -5.18882 0
M  V30 17833 O 1752 -1.55646 -5.47506 0
M  V30 17834 N 1753.2 0.313462 -5.79653 0
M  V30 17835 H 1755.96 -1.85633 -2.35288 0
M  V30 17836 H 1753.52 -1.11299 -1.17577 0
M  V30 17837 H 1755.52 0.0243829 -4.04693 0
M  V30 17838 H 1754.09 0.482669 -3.08851 0
M  V30 17839 H 1753.31 -1.98251 -3.4072 0
M  V30 17840 H 1754.59 -2.14402 -4.61421 0
M  V30 17841 H 1753.99 0.884644 -5.5874 0
M  V30 17842 H 1752.55 0.637904 -6.48671 0
M  V30 17843 N 1755.98 1.20536 -1.01532 0
M  V30 17844 C 1757.39 1.71594 -0.735687 0
M  V30 17845 C 1757.74 1.81469 0.745873 0
M  V30 17846 O 1756.87 1.47638 1.58215 0
M  V30 17847 C 1757.46 3.11654 -1.3288 0
M  V30 17848 C 1756.02 3.60027 -1.09806 0
M  V30 17849 C 1755.17 2.37266 -1.43528 0
M  V30 17850 H 1758.12 1.05568 -1.18495 0
M  V30 17851 H 1758.14 3.7365 -0.718725 0
M  V30 17852 H 1757.65 3.04434 -2.4071 0
M  V30 17853 H 1755.76 3.72581 -0.0373763 0
M  V30 17854 H 1755.87 4.44918 -1.77722 0
M  V30 17855 H 1754.23 2.39947 -0.854268 0
M  V30 17856 H 1755.02 2.32688 -2.5241 0
M  V30 17857 N 1757.46 0.791395 1.36289 0
M  V30 17858 C 1758.41 0.164218 2.27408 0
M  V30 17859 C 1759.39 -0.653018 1.47053 0
M  V30 17860 O 1760.59 -0.512767 1.6941 0
M  V30 17861 C 1757.72 -0.698551 3.36118 0
M  V30 17862 C 1756.8 0.127583 4.23908 0
M  V30 17863 N 1757.19 1.18307 4.91769 0
M  V30 17864 C 1755.49 -0.0932621 4.45902 0
M  V30 17865 C 1756.19 1.68616 5.56726 0
M  V30 17866 N 1755.17 0.995058 5.34415 0
M  V30 17867 H 1758.97 0.972045 2.7736 0
M  V30 17868 H 1756.48 0.63105 1.49638 0
M  V30 17869 H 1758.48 -1.16379 4.00327 0
M  V30 17870 H 1757.14 -1.5049 2.8772 0
M  V30 17871 H 1758.15 1.56553 4.93672 0
M  V30 17872 H 1754.83 -0.869962 4.08336 0
M  V30 17873 H 1756.22 2.56745 6.20912 0
M  V30 17874 N 1758.94 -1.47929 0.54358 0
M  V30 17875 C 1759.89 -2.29827 -0.211706 0
M  V30 17876 C 1760.86 -1.38217 -0.921154 0
M  V30 17877 O 1762.04 -1.67181 -0.919522 0
M  V30 17878 C 1759.18 -3.21889 -1.24425 0
M  V30 17879 C 1758.29 -4.28583 -0.542264 0
M  V30 17880 C 1757.43 -5.0781 -1.55892 0
M  V30 17881 C 1756.47 -6.06293 -0.841146 0
M  V30 17882 N 1755.61 -6.78528 -1.80399 0
M  V30 17883 H 1760.45 -2.93896 0.492835 0
M  V30 17884 H 1757.98 -1.44875 0.254873 0
M  V30 17885 H 1759.94 -3.73674 -1.85535 0
M  V30 17886 H 1758.57 -2.59713 -1.917 0
M  V30 17887 H 1757.62 -3.79959 0.183069 0
M  V30 17888 H 1758.93 -4.98796 0.0206703 0
M  V30 17889 H 1758.09 -5.63678 -2.24393 0
M  V30 17890 H 1756.83 -4.37468 -2.15576 0
M  V30 17891 H 1755.83 -5.49616 -0.14214 0
M  V30 17892 H 1757.06 -6.78639 -0.250232 0
M  V30 17893 H 1755 -6.10927 -2.38965 0
M  V30 17894 H 1754.92 -7.44863 -1.29285 0
M  V30 17895 H 1756.19 -7.38978 -2.48056 0
M  V30 17896 N 1760.42 -0.27936 -1.55104 0
M  V30 17897 C 1761.35 0.639572 -2.20096 0
M  V30 17898 C 1762.36 1.11423 -1.18696 0
M  V30 17899 O 1763.55 1.0354 -1.45402 0
M  V30 17900 C 1760.65 1.88494 -2.81644 0
M  V30 17901 C 1759.82 1.55639 -4.08773 0
M  V30 17902 C 1758.88 2.65466 -4.54328 0
M  V30 17903 O 1757.91 2.31473 -5.20008 0
M  V30 17904 N 1759.11 3.95606 -4.24825 0
M  V30 17905 H 1761.88 0.0833048 -2.99584 0
M  V30 17906 H 1759.44 -0.100637 -1.61587 0
M  V30 17907 H 1761.43 2.61272 -3.09062 0
M  V30 17908 H 1760 2.35015 -2.06123 0
M  V30 17909 H 1759.22 0.662253 -3.88597 0
M  V30 17910 H 1760.51 1.31196 -4.91594 0
M  V30 17911 H 1759.91 4.26043 -3.72161 0
M  V30 17912 H 1758.46 4.64748 -4.57004 0
M  V30 17913 N 1761.9 1.57599 -0.0067085 0
M  V30 17914 C 1763.12 1.95142 0.687533 0
M  V30 17915 C 1763.54 0.88196 1.66934 0
M  V30 17916 O 1762.9 -0.13847 1.81974 0
M  V30 17917 C 1762.95 3.32718 1.41355 0
M  V30 17918 O 1762.67 4.3556 0.471111 0
M  V30 17919 C 1764.17 3.84761 2.20168 0
M  V30 17920 H 1761.39 0.643222 0.191066 0
M  V30 17921 H 1763.93 2.04412 -0.0598214 0
M  V30 17922 H 1762.09 3.24735 2.11248 0
M  V30 17923 H 1762.5 5.15185 0.984091 0
M  V30 17924 H 1763.98 4.83432 2.66454 0
M  V30 17925 H 1764.45 3.1782 3.03129 0
M  V30 17926 H 1765.06 3.9594 1.55278 0
M  V30 17927 N 1763.37 -0.266145 1.55336 0
M  V30 17928 C 1764.79 -0.613693 1.47329 0
M  V30 17929 C 1764.99 -1.89207 0.693038 0
M  V30 17930 O 1764.05 -2.51586 0.214642 0
M  V30 17931 C 1765.36 -0.734287 2.91597 0
M  V30 17932 C 1766.91 -0.82789 3.01853 0
M  V30 17933 C 1767.38 -0.980205 4.47388 0
M  V30 17934 N 1768.87 -1.04556 4.51245 0
M  V30 17935 C 1769.61 -1.18233 5.61078 0
M  V30 17936 N 1769.1 -1.28587 6.80762 0
M  V30 17937 N 1770.9 -1.21398 5.48834 0
M  V30 17938 H 1763.05 0.573316 2.04516 0
M  V30 17939 H 1765.31 0.195128 0.927701 0
M  V30 17940 H 1765.02 0.134714 3.51442 0
M  V30 17941 H 1764.89 -1.6124 3.41001 0
M  V30 17942 H 1767.28 -1.68735 2.421 0
M  V30 17943 H 1767.36 0.0749719 2.5569 0
M  V30 17944 H 1767 -0.125373 5.07745 0
M  V30 17945 H 1766.93 -1.89782 4.91213 0
M  V30 17946 H 1769.42 -0.977667 3.65034 0
M  V30 17947 H 1769.74 -1.38876 7.60219 0
M  V30 17948 H 1768.08 -1.25579 6.8356 0
M  V30 17949 H 1771.27 -1.12944 4.5427 0
M  V30 17950 H 1771.45 -1.31713 6.34473 0
M  V30 17951 N 1764.85 -1.48386 -0.530967 0
M  V30 17952 C 1765.78 -1.6573 -1.64486 0
M  V30 17953 C 1766.76 -0.506198 -1.62393 0
M  V30 17954 O 1767.95 -0.738623 -1.79605 0
M  V30 17955 C 1765.08 -1.69594 -3.03076 0
M  V30 17956 C 1764.03 -2.84195 -3.20027 0
M  V30 17957 C 1763.36 -2.73148 -4.59668 0
M  V30 17958 C 1764.66 -4.25504 -3.02892 0
M  V30 17959 H 1766.35 -2.58983 -1.50227 0
M  V30 17960 H 1763.9 -1.24633 -0.721286 0
M  V30 17961 H 1765.85 -1.80316 -3.80873 0
M  V30 17962 H 1764.57 -0.729193 -3.18356 0
M  V30 17963 H 1763.23 -2.73027 -2.44647 0
M  V30 17964 H 1762.88 -1.74444 -4.71782 0
M  V30 17965 H 1762.58 -3.50047 -4.71954 0
M  V30 17966 H 1764.11 -2.85836 -5.39565 0
M  V30 17967 H 1765.52 -4.37511 -3.70482 0
M  V30 17968 H 1763.92 -5.03393 -3.26673 0
M  V30 17969 H 1764.99 -4.42036 -1.99329 0
M  V30 17970 N 1766.33 0.779763 -1.36958 0
M  V30 17971 C 1767.56 1.56648 -1.34704 0
M  V30 17972 C 1767.97 1.89065 0.071459 0
M  V30 17973 O 1767.31 1.51325 1.04146 0
M  V30 17974 C 1767.37 2.90862 -2.11281 0
M  V30 17975 C 1767.04 2.81123 -3.60304 0
M  V30 17976 C 1768.03 2.52702 -4.54354 0
M  V30 17977 C 1765.72 2.99397 -4.0332 0
M  V30 17978 C 1767.71 2.42671 -5.89398 0
M  V30 17979 C 1765.4 2.88987 -5.38451 0
M  V30 17980 C 1766.4 2.60663 -6.31303 0
M  V30 17981 O 1766.09 2.50264 -7.63952 0
M  V30 17982 H 1765.82 0.492209 -0.463364 0
M  V30 17983 H 1768.37 0.974946 -1.80787 0
M  V30 17984 H 1766.6 3.52104 -1.59875 0
M  V30 17985 H 1768.29 3.52203 -2.01762 0
M  V30 17986 H 1769.06 2.38277 -4.22432 0
M  V30 17987 H 1764.94 3.20446 -3.31414 0
M  V30 17988 H 1768.48 2.20484 -6.6184 0
M  V30 17989 H 1764.38 3.02977 -5.69978 0
M  V30 17990 H 1765.14 2.65674 -7.74183 0
M  V30 17991 N 1767.81 1.21396 1.00503 0
M  V30 17992 C 1769.06 1.02913 1.73935 0
M  V30 17993 C 1769.38 -0.438329 1.9001 0
M  V30 17994 O 1768.65 -1.31618 1.45098 0
M  V30 17995 H 1767.23 0.377813 0.644412 0
M  V30 17996 H 1769.89 1.52704 1.21109 0
M  V30 17997 H 1768.98 1.49705 2.73852 0
M  V30 17998 N 1769.29 -1.19996 1.0217 0
M  V30 17999 C 1770.53 -1.88818 0.709281 0
M  V30 18000 C 1770.85 -1.80032 -0.764702 0
M  V30 18001 O 1772.05 -2.44037 -1.18988 0
M  V30 18002 C 1770.51 -3.38652 1.2183 0
M  V30 18003 C 1770.12 -3.56012 2.71955 0
M  V30 18004 C 1771.86 -4.12996 0.981542 0
M  V30 18005 C 1769.77 -4.997 3.16313 0
M  V30 18006 H 1768.7 -0.70716 0.261613 0
M  V30 18007 H 1771.35 -1.35715 1.23506 0
M  V30 18008 H 1769.73 -3.91109 0.620478 0
M  V30 18009 H 1770.91 -3.13918 3.37331 0
M  V30 18010 H 1769.22 -2.95046 2.93831 0
M  V30 18011 H 1771.82 -5.18948 1.28831 0
M  V30 18012 H 1772.16 -4.1622 -0.0818616 0
M  V30 18013 H 1772.69 -3.66656 1.543 0
M  V30 18014 H 1769.43 -5.01635 4.21951 0
M  V30 18015 H 1768.95 -5.42585 2.5566 0
M  V30 18016 H 1770.63 -5.68312 3.09242 0
M  V30 18017 N 1770.76 -0.798611 -1.35867 0
M  V30 18018 C 1771.99 -0.387479 -2.03239 0
M  V30 18019 C 1772.41 0.999052 -1.60201 0
M  V30 18020 O 1771.76 1.64237 -0.795763 0
M  V30 18021 C 1771.81 -0.452101 -3.58662 0
M  V30 18022 O 1771.54 -1.78396 -4.00133 0
M  V30 18023 C 1773.04 -0.0327638 -4.43288 0
M  V30 18024 H 1770.26 -0.15845 -0.652024 0
M  V30 18025 H 1772.8 -1.08002 -1.73655 0
M  V30 18026 H 1770.96 0.192107 -3.86923 0
M  V30 18027 H 1771.37 -1.74118 -4.94756 0
M  V30 18028 H 1772.84 -0.129106 -5.51849 0
M  V30 18029 H 1773.32 1.02098 -4.27168 0
M  V30 18030 H 1773.93 -0.649817 -4.20306 0
M  V30 18031 N 1772.24 1.47639 -0.551417 0
M  V30 18032 C 1773.47 2.06878 -0.0298904 0
M  V30 18033 C 1773.88 1.40493 1.26123 0
M  V30 18034 O 1773.24 0.499513 1.75531 0
M  V30 18035 C 1773.29 3.61074 0.175449 0
M  V30 18036 O 1773.01 4.2497 -1.06454 0
M  V30 18037 C 1774.51 4.37166 0.734919 0
M  V30 18038 H 1771.73 0.669607 -0.0432142 0
M  V30 18039 H 1774.28 1.89726 -0.763178 0
M  V30 18040 H 1772.43 3.7776 0.858848 0
M  V30 18041 H 1772.85 5.17424 -0.858644 0
M  V30 18042 H 1774.32 5.45756 0.827915 0
M  V30 18043 H 1774.8 4.03052 1.74486 0
M  V30 18044 H 1775.4 4.2521 0.0874045 0
M  V30 18045 N 1773.72 0.287581 1.54954 0
M  V30 18046 C 1774.68 -0.581465 2.21702 0
M  V30 18047 C 1775.68 -1.07172 1.19878 0
M  V30 18048 O 1776.87 -0.969899 1.44702 0
M  V30 18049 C 1774.01 -1.80358 2.89282 0
M  V30 18050 H 1775.2 0.00151035 2.999 0
M  V30 18051 H 1772.75 0.0382953 1.56253 0
M  V30 18052 H 1773.49 -2.42674 2.15128 0
M  V30 18053 H 1773.27 -1.45983 3.63911 0
M  V30 18054 H 1774.76 -2.42129 3.4024 0
M  V30 18055 N 1775.2 -1.57593 0.0150662 0
M  V30 18056 C 1776.13 -2.12395 -0.970081 0
M  V30 18057 C 1777.11 -1.03666 -1.34861 0
M  V30 18058 O 1778.29 -1.31427 -1.4297 0
M  V30 18059 C 1775.42 -2.63958 -2.25707 0
M  V30 18060 C 1774.38 -3.77348 -2.01971 0
M  V30 18061 C 1773.7 -4.15284 -3.36814 0
M  V30 18062 C 1775 -5.04008 -1.37017 0
M  V30 18063 H 1776.7 -2.9496 -0.513731 0
M  V30 18064 H 1774.24 -1.41889 -0.245666 0
M  V30 18065 H 1776.2 -3.00927 -2.94993 0
M  V30 18066 H 1774.92 -1.78535 -2.73483 0
M  V30 18067 H 1773.58 -3.40795 -1.35107 0
M  V30 18068 H 1773.23 -3.26863 -3.82321 0
M  V30 18069 H 1772.93 -4.91686 -3.21744 0
M  V30 18070 H 1774.45 -4.54824 -4.07391 0
M  V30 18071 H 1775.87 -5.38652 -1.96282 0
M  V30 18072 H 1774.26 -5.85315 -1.32388 0
M  V30 18073 H 1775.33 -4.83698 -0.341281 0
M  V30 18074 N 1776.68 0.257904 -1.55475 0
M  V30 18075 C 1777.9 1.00955 -1.81171 0
M  V30 18076 C 1778.33 1.78586 -0.590651 0
M  V30 18077 O 1777.68 1.75365 0.460105 0
M  V30 18078 C 1777.73 1.93188 -3.04485 0
M  V30 18079 O 1776.84 3.02194 -2.80628 0
M  V30 18080 H 1776.18 0.28785 -0.598363 0
M  V30 18081 H 1778.71 0.28223 -2.02644 0
M  V30 18082 H 1778.72 2.3486 -3.33624 0
M  V30 18083 H 1777.39 1.361 -3.93001 0
M  V30 18084 H 1775.97 2.64729 -2.62627 0
M  V30 18085 N 1778.15 1.48666 0.52309 0
M  V30 18086 C 1779.09 1.59796 1.64311 0
M  V30 18087 C 1780.1 0.481836 1.55506 0
M  V30 18088 O 1781.29 0.752977 1.61841 0
M  V30 18089 C 1778.39 1.5181 3.02997 0
M  V30 18090 C 1777.56 2.7858 3.37212 0
M  V30 18091 C 1776.62 2.63952 4.5521 0
M  V30 18092 O 1775.65 3.37851 4.58088 0
M  V30 18093 N 1776.85 1.74026 5.53801 0
M  V30 18094 H 1779.61 2.56386 1.55197 0
M  V30 18095 H 1777.17 1.45476 0.710511 0
M  V30 18096 H 1779.17 1.39709 3.7982 0
M  V30 18097 H 1777.74 0.631664 3.06152 0
M  V30 18098 H 1776.96 3.05194 2.495 0
M  V30 18099 H 1778.24 3.62668 3.56861 0
M  V30 18100 H 1777.64 1.13202 5.54258 0
M  V30 18101 H 1776.2 1.6786 6.29814 0
M  V30 18102 N 1779.63 -0.772489 1.37369 0
M  V30 18103 C 1780.87 -1.54405 1.33935 0
M  V30 18104 C 1781.24 -1.9185 -0.0757718 0
M  V30 18105 O 1782.44 -2.67772 -0.234832 0
M  V30 18106 C 1780.71 -2.77561 2.25154 0
M  V30 18107 S 1782.27 -3.67634 2.39564 0
M  V30 18108 H 1779.09 -0.52862 0.475481 0
M  V30 18109 H 1781.69 -0.908446 1.73111 0
M  V30 18110 H 1780.39 -2.4813 3.26894 0
M  V30 18111 H 1779.92 -3.46081 1.87059 0
M  V30 18112 H 1781.94 -4.69502 1.60567 0
M  V30 18113 N 1781.11 -1.21927 -0.998575 0
M  V30 18114 C 1782.52 -1.03808 -1.5518 0
M  V30 18115 C 1782.87 0.400202 -1.92075 0
M  V30 18116 O 1782 1.28436 -1.74164 0
M  V30 18117 C 1782.59 -1.87814 -2.81978 0
M  V30 18118 C 1781.15 -1.74008 -3.33764 0
M  V30 18119 C 1780.3 -1.8463 -2.06899 0
M  V30 18120 H 1783.25 -1.35855 -0.820305 0
M  V30 18121 H 1783.27 -1.39219 -3.54116 0
M  V30 18122 H 1782.78 -2.92487 -2.55094 0
M  V30 18123 H 1780.88 -0.720445 -3.65569 0
M  V30 18124 H 1781 -2.56348 -4.0475 0
M  V30 18125 H 1779.36 -1.28007 -2.20196 0
M  V30 18126 H 1780.14 -2.90824 -1.82419 0
M  V30 18127 N 1782.59 1.19452 -1.02805 0
M  V30 18128 C 1783.52 2.22095 -0.566246 0
M  V30 18129 C 1784.53 1.58828 0.357442 0
M  V30 18130 O 1785.72 1.77835 0.153965 0
M  V30 18131 C 1782.82 3.38343 0.194294 0
M  V30 18132 C 1782 4.31195 -0.734131 0
M  V30 18133 C 1781.05 5.26197 -0.0191426 0
M  V30 18134 O 1780.08 5.65529 -0.645436 0
M  V30 18135 N 1781.28 5.66841 1.25187 0
M  V30 18136 H 1784.05 2.62342 -1.44902 0
M  V30 18137 H 1781.61 1.3411 -0.906978 0
M  V30 18138 H 1783.6 3.9891 0.682136 0
M  V30 18139 H 1782.17 2.96892 0.978474 0
M  V30 18140 H 1781.39 3.68423 -1.40208 0
M  V30 18141 H 1782.68 4.90144 -1.36516 0
M  V30 18142 H 1782.08 5.36918 1.78145 0
M  V30 18143 H 1780.63 6.29664 1.68423 0
M  V30 18144 N 1784.07 0.805805 1.35442 0
M  V30 18145 C 1785.31 0.385046 1.98398 0
M  V30 18146 C 1785.64 -1.05114 1.64244 0
M  V30 18147 O 1784.91 -1.72711 0.924532 0
M  V30 18148 H 1783.49 0.139386 0.733881 0
M  V30 18149 H 1786.15 1.03147 1.65368 0
M  V30 18150 H 1785.24 0.490126 3.08227 0
M  V30 18151 N 1785.54 -1.47344 0.559239 0
M  V30 18152 C 1786.49 -2.27051 -0.20776 0
M  V30 18153 C 1787.48 -1.34477 -0.883451 0
M  V30 18154 O 1788.67 -1.58817 -0.781423 0
M  V30 18155 C 1785.8 -3.20285 -1.23582 0
M  V30 18156 C 1784.89 -4.20341 -0.56344 0
M  V30 18157 N 1785.28 -5.04462 0.367648 0
M  V30 18158 C 1783.57 -4.38451 -0.817111 0
M  V30 18159 C 1784.28 -5.76735 0.758411 0
M  V30 18160 N 1783.25 -5.43483 0.112792 0
M  V30 18161 H 1787.05 -2.89475 0.508087 0
M  V30 18162 H 1784.57 -1.57908 0.379322 0
M  V30 18163 H 1786.56 -3.76074 -1.79928 0
M  V30 18164 H 1785.22 -2.59419 -1.95274 0
M  V30 18165 H 1786.24 -5.12558 0.741923 0
M  V30 18166 H 1782.91 -3.88754 -1.52238 0
M  V30 18167 H 1784.3 -6.54397 1.52361 0
M  V30 18168 N 1787.02 -0.295795 -1.54799 0
M  V30 18169 C 1787.97 0.598403 -2.24771 0
M  V30 18170 C 1788.96 1.14123 -1.25189 0
M  V30 18171 O 1790.17 1.09248 -1.43056 0
M  V30 18172 H 1786.55 0.21157 -0.721625 0
M  V30 18173 H 1788.52 -0.0143437 -2.98397 0
M  V30 18174 C 1787.27 1.76132 -2.99788 0
M  V30 18175 H 1786.59 1.35284 -3.76216 0
M  V30 18176 H 1788.03 2.36317 -3.52037 0
M  V30 18177 C 1786.49 2.6623 -2.06453 0
M  V30 18178 O 1787.02 3.67179 -1.62918 0
M  V30 18179 N 1785.22 2.3385 -1.72518 0
M  V30 18180 H 1784.77 1.51804 -2.08119 0
M  V30 18181 H 1784.73 2.944 -1.10344 0
M  V30 18182 N 1788.5 1.57583 -0.0234236 0
M  V30 18183 C 1789.73 1.95577 0.66583 0
M  V30 18184 C 1790.14 0.898193 1.66521 0
M  V30 18185 O 1789.48 -0.129109 1.83246 0
M  V30 18186 C 1789.54 3.29685 1.43345 0
M  V30 18187 C 1789.21 4.53136 0.593048 0
M  V30 18188 C 1790.21 5.19739 -0.129251 0
M  V30 18189 C 1787.89 4.99473 0.532125 0
M  V30 18190 C 1789.88 6.30997 -0.901206 0
M  V30 18191 C 1787.57 6.10615 -0.24354 0
M  V30 18192 C 1788.57 6.76235 -0.958917 0
M  V30 18193 O 1788.26 7.85243 -1.72188 0
M  V30 18194 H 1787.99 0.649084 0.188853 0
M  V30 18195 H 1790.54 2.05253 -0.0777525 0
M  V30 18196 H 1788.77 3.16484 2.22205 0
M  V30 18197 H 1790.46 3.52623 2.01027 0
M  V30 18198 H 1791.23 4.84914 -0.0914812 0
M  V30 18199 H 1787.11 4.48207 1.0785 0
M  V30 18200 H 1790.65 6.82149 -1.46011 0
M  V30 18201 H 1786.55 6.44879 -0.283046 0
M  V30 18202 H 1787.32 8.0188 -1.64105 0
M  V30 18203 N 1789.98 -0.249655 1.5561 0
M  V30 18204 C 1791.22 -0.985467 1.79075 0
M  V30 18205 C 1791.58 -1.82629 0.592503 0
M  V30 18206 O 1792.78 -2.59366 0.705869 0
M  V30 18207 C 1791.06 -1.82549 3.07263 0
M  V30 18208 S 1792.61 -2.62078 3.51939 0
M  V30 18209 H 1789.43 -0.331525 0.628977 0
M  V30 18210 H 1792.03 -0.253591 1.93848 0
M  V30 18211 H 1790.74 -1.19744 3.92542 0
M  V30 18212 H 1790.27 -2.60017 2.9522 0
M  V30 18213 H 1792.28 -3.84983 3.13054 0
M  V30 18214 N 1791.46 -1.48941 -0.515198 0
M  V30 18215 C 1792.68 -1.61656 -1.29931 0
M  V30 18216 C 1793.11 -0.282529 -1.85966 0
M  V30 18217 O 1792.47 0.747914 -1.65154 0
M  V30 18218 C 1792.51 -2.6774 -2.41553 0
M  V30 18219 O 1791.62 -2.25926 -3.45009 0
M  V30 18220 H 1790.96 -0.541561 -0.384197 0
M  V30 18221 H 1793.49 -1.95032 -0.618349 0
M  V30 18222 H 1793.5 -2.89471 -2.87525 0
M  V30 18223 H 1792.17 -3.64582 -2.00131 0
M  V30 18224 H 1790.75 -2.14469 -3.05053 0
M  V30 18225 N 1792.94 0.765193 -1.37777 0
M  V30 18226 C 1794.18 1.52623 -1.33545 0
M  V30 18227 C 1794.51 1.94043 0.077992 0
M  V30 18228 O 1793.79 1.64566 1.03673 0
M  V30 18229 C 1794.07 2.78679 -2.28057 0
M  V30 18230 C 1793.93 2.43471 -3.78209 0
M  V30 18231 C 1795.24 3.80646 -2.20899 0
M  V30 18232 H 1792.36 0.553678 -0.486425 0
M  V30 18233 H 1795.01 0.877326 -1.68532 0
M  V30 18234 H 1793.16 3.3405 -1.9835 0
M  V30 18235 H 1794.83 1.93965 -4.1854 0
M  V30 18236 H 1793.07 1.76081 -3.96457 0
M  V30 18237 H 1793.74 3.33609 -4.39783 0
M  V30 18238 H 1796.22 3.34786 -2.47099 0
M  V30 18239 H 1795.09 4.6656 -2.89159 0
M  V30 18240 H 1795.35 4.25389 -1.20403 0
M  V30 18241 N 1794.41 1.22455 0.992094 0
M  V30 18242 C 1795.36 0.992597 2.10357 0
M  V30 18243 C 1796.36 -0.0645514 1.69277 0
M  V30 18244 O 1797.56 0.0879577 1.79785 0
M  V30 18245 H 1793.94 0.303808 0.687899 0
M  V30 18246 H 1795.91 1.93574 2.27094 0
M  V30 18247 C 1794.66 0.587852 3.42695 0
M  V30 18248 H 1793.98 1.39298 3.74748 0
M  V30 18249 H 1795.42 0.464975 4.21443 0
M  V30 18250 C 1793.88 -0.702681 3.29491 0
M  V30 18251 O 1794.41 -1.7549 3.61339 0
M  V30 18252 N 1792.61 -0.674141 2.82672 0
M  V30 18253 H 1792.16 0.182446 2.56953 0
M  V30 18254 H 1792.12 -1.53789 2.7422 0
M  V30 18255 N 1795.89 -1.18905 1.03437 0
M  V30 18256 C 1796.84 -2.24362 0.613557 0
M  V30 18257 C 1797.83 -1.65605 -0.356541 0
M  V30 18258 O 1799.04 -1.78594 -0.22452 0
M  V30 18259 H 1795.41 -0.730098 0.18017 0
M  V30 18260 H 1797.39 -2.57168 1.51351 0
M  V30 18261 C 1796.13 -3.47697 -0.0141125 0
M  V30 18262 H 1795.46 -3.93201 0.723394 0
M  V30 18263 H 1796.9 -4.2313 -0.271424 0
M  V30 18264 C 1795.36 -3.12357 -1.26232 0
M  V30 18265 O 1795.89 -3.25515 -2.35378 0
M  V30 18266 N 1794.09 -2.6674 -1.15318 0
M  V30 18267 H 1793.64 -2.56233 -0.26501 0
M  V30 18268 H 1793.6 -2.43466 -1.98927 0
M  V30 18269 N 1797.37 -0.812977 -1.35013 0
M  V30 18270 C 1798.62 -0.395562 -1.98191 0
M  V30 18271 C 1798.94 1.04242 -1.64799 0
M  V30 18272 O 1798.21 1.72219 -0.933678 0
M  V30 18273 H 1796.79 -0.143276 -0.733131 0
M  V30 18274 H 1799.45 -1.04023 -1.64819 0
M  V30 18275 H 1798.55 -0.506466 -3.07963 0
M  V30 18276 N 1798.85 1.47045 -0.567045 0
M  V30 18277 C 1800.1 2.02046 -0.0465877 0
M  V30 18278 C 1800.42 1.44271 1.3119 0
M  V30 18279 O 1799.69 0.621533 1.85779 0
M  V30 18280 H 1798.27 0.746864 -0.0142323 0
M  V30 18281 H 1800.93 1.80335 -0.739281 0
M  V30 18282 H 1800.02 3.12081 0.0341623 0
M  V30 18283 N 1800.33 0.304 1.5464 0
M  V30 18284 C 1801.57 -0.305229 2.02108 0
M  V30 18285 C 1801.93 -1.50862 1.18763 0
M  V30 18286 O 1803.13 -2.18941 1.55943 0
M  V30 18287 C 1801.4 -0.65001 3.51439 0
M  V30 18288 S 1802.96 -1.24167 4.20866 0
M  V30 18289 H 1799.78 -0.0935021 0.704825 0
M  V30 18290 H 1802.38 0.432571 1.90654 0
M  V30 18291 H 1801.08 0.234253 4.09731 0
M  V30 18292 H 1800.62 -1.41852 3.66935 0
M  V30 18293 H 1802.63 -2.52936 4.26893 0
M  V30 18294 N 1801.8 -1.57568 0.0317802 0
M  V30 18295 C 1803.03 -1.96212 -0.656401 0
M  V30 18296 C 1803.45 -0.908406 -1.6551 0
M  V30 18297 O 1802.8 0.109502 -1.82171 0
M  V30 18298 C 1802.85 -3.34924 -1.36044 0
M  V30 18299 O 1802.58 -4.36254 -0.401757 0
M  V30 18300 C 1804.08 -3.88215 -2.14019 0
M  V30 18301 H 1801.3 -0.646181 -0.180808 0
M  V30 18302 H 1803.84 -2.04291 0.0923341 0
M  V30 18303 H 1802 -3.28055 -2.06055 0
M  V30 18304 H 1802.41 -5.16686 -0.902005 0
M  V30 18305 H 1803.88 -4.87609 -2.5873 0
M  V30 18306 H 1804.36 -3.22602 -2.98034 0
M  V30 18307 H 1804.97 -3.98361 -1.4896 0
M  V30 18308 N 1803.28 0.241399 -1.5574 0
M  V30 18309 C 1804.23 1.30198 -1.8717 0
M  V30 18310 C 1805.22 1.43233 -0.733022 0
M  V30 18311 O 1806.41 1.46382 -0.995058 0
M  V30 18312 C 1803.54 2.65637 -2.17467 0
M  V30 18313 C 1802.62 2.56584 -3.37676 0
M  V30 18314 N 1803.01 2.17167 -4.56806 0
M  V30 18315 C 1801.31 2.87586 -3.40896 0
M  V30 18316 C 1802.01 2.18882 -5.38949 0
M  V30 18317 N 1800.99 2.58599 -4.7815 0
M  V30 18318 H 1804.79 0.98781 -2.76802 0
M  V30 18319 H 1802.31 0.450014 -1.5604 0
M  V30 18320 H 1804.3 3.42184 -2.38151 0
M  V30 18321 H 1802.96 2.97916 -1.29136 0
M  V30 18322 H 1803.97 1.88621 -4.8233 0
M  V30 18323 H 1800.65 3.24369 -2.62852 0
M  V30 18324 H 1802.04 1.907 -6.4427 0
M  V30 18325 N 1804.76 1.49212 0.507292 0
M  V30 18326 C 1805.69 1.68326 1.61829 0
M  V30 18327 C 1806.67 0.531969 1.61568 0
M  V30 18328 O 1807.86 0.767104 1.78407 0
M  V30 18329 C 1804.99 1.74394 3.0034 0
M  V30 18330 C 1803.94 2.89251 3.15465 0
M  V30 18331 C 1803.27 2.80426 4.55264 0
M  V30 18332 C 1804.57 4.30269 2.96085 0
M  V30 18333 H 1806.26 2.6134 1.46087 0
M  V30 18334 H 1803.81 1.25765 0.701367 0
M  V30 18335 H 1805.76 1.86353 3.77956 0
M  V30 18336 H 1804.48 0.779748 3.17155 0
M  V30 18337 H 1803.14 2.76884 2.40272 0
M  V30 18338 H 1802.79 1.81928 4.68947 0
M  V30 18339 H 1802.49 3.57511 4.66326 0
M  V30 18340 H 1804.01 2.94384 5.34949 0
M  V30 18341 H 1805.43 4.4335 3.63475 0
M  V30 18342 H 1803.83 5.08527 3.18623 0
M  V30 18343 H 1804.9 4.45151 1.92272 0
M  V30 18344 N 1806.24 -0.757876 1.38181 0
M  V30 18345 C 1807.48 -1.52975 1.35565 0
M  V30 18346 C 1807.84 -1.9192 -0.0554193 0
M  V30 18347 O 1809.04 -2.68006 -0.206418 0
M  V30 18348 C 1807.31 -2.75158 2.28085 0
M  V30 18349 S 1808.87 -3.65072 2.4345 0
M  V30 18350 H 1805.69 -0.523547 0.481061 0
M  V30 18351 H 1808.29 -0.890034 1.74065 0
M  V30 18352 H 1807 -2.44649 3.29507 0
M  V30 18353 H 1806.53 -3.44078 1.90719 0
M  V30 18354 H 1808.54 -4.67773 1.65538 0
M  V30 18355 N 1807.72 -1.22979 -0.985586 0
M  V30 18356 C 1808.65 -1.03073 -2.09519 0
M  V30 18357 C 1809.63 0.0507025 -1.70024 0
M  V30 18358 O 1810.81 -0.112938 -1.93871 0
M  V30 18359 C 1807.94 -0.615578 -3.41801 0
M  V30 18360 C 1806.9 -1.64377 -3.95176 0
M  V30 18361 C 1806.22 -1.08422 -5.23592 0
M  V30 18362 C 1807.52 -3.03555 -4.25032 0
M  V30 18363 H 1809.22 -1.95882 -2.2643 0
M  V30 18364 H 1806.76 -0.943206 -1.0881 0
M  V30 18365 H 1808.72 -0.463394 -4.18844 0
M  V30 18366 H 1807.44 0.348185 -3.24739 0
M  V30 18367 H 1806.1 -1.78386 -3.20272 0
M  V30 18368 H 1805.75 -0.111597 -5.02876 0
M  V30 18369 H 1805.45 -1.77118 -5.6027 0
M  V30 18370 H 1806.97 -0.94378 -6.03262 0
M  V30 18371 H 1808.38 -2.92878 -4.92844 0
M  V30 18372 H 1806.78 -3.69441 -4.72899 0
M  V30 18373 H 1807.85 -3.52937 -3.32511 0
M  V30 18374 N 1809.19 1.18355 -1.04066 0
M  V30 18375 C 1810.16 2.20195 -0.636148 0
M  V30 18376 C 1811.16 1.57853 0.306457 0
M  V30 18377 O 1812.35 1.73958 0.0918576 0
M  V30 18378 C 1809.48 3.40833 0.0673423 0
M  V30 18379 H 1810.67 2.57497 -1.53738 0
M  V30 18380 H 1808.23 1.32239 -0.833214 0
M  V30 18381 H 1808.96 3.09063 0.982371 0
M  V30 18382 H 1808.75 3.87324 -0.610145 0
M  V30 18383 H 1810.24 4.16239 0.336869 0
M  V30 18384 N 1810.67 0.820125 1.3458 0
M  V30 18385 C 1811.9 0.419764 2.02597 0
M  V30 18386 C 1812.32 -0.973439 1.6177 0
M  V30 18387 O 1811.67 -1.6295 0.821791 0
M  V30 18388 C 1811.72 0.509104 3.57897 0
M  V30 18389 O 1811.44 1.84739 3.97244 0
M  V30 18390 C 1812.95 0.103283 4.4318 0
M  V30 18391 H 1810.17 0.168803 0.64942 0
M  V30 18392 H 1812.71 1.10751 1.71914 0
M  V30 18393 H 1810.86 -0.130526 3.8718 0
M  V30 18394 H 1811.28 1.81967 4.91923 0
M  V30 18395 H 1812.75 0.216884 5.51574 0
M  V30 18396 H 1813.23 -0.952888 4.28738 0
M  V30 18397 H 1813.84 0.716601 4.19219 0
M  V30 18398 N 1812.15 -1.46743 0.574835 0
M  V30 18399 C 1813.56 -1.86127 0.146143 0
M  V30 18400 C 1813.91 -1.47938 -1.28875 0
M  V30 18401 O 1813.04 -0.890593 -1.97224 0
M  V30 18402 C 1813.63 -3.37813 0.258447 0
M  V30 18403 C 1812.19 -3.76223 -0.115322 0
M  V30 18404 C 1811.34 -2.70775 0.597997 0
M  V30 18405 H 1814.29 -1.38009 0.783526 0
M  V30 18406 H 1814.31 -3.76953 -0.51831 0
M  V30 18407 H 1813.82 -3.65577 1.30288 0
M  V30 18408 H 1811.92 -3.54077 -1.16019 0
M  V30 18409 H 1812.04 -4.78418 0.255513 0
M  V30 18410 H 1810.4 -2.5467 0.039113 0
M  V30 18411 H 1811.18 -3.0138 1.64393 0
M  V30 18412 N 1813.63 -0.312197 -1.54477 0
M  V30 18413 C 1814.88 0.293192 -1.99962 0
M  V30 18414 C 1815.2 1.53544 -1.20205 0
M  V30 18415 O 1814.47 1.93575 -0.300901 0
M  V30 18416 H 1813.05 0.111325 -0.738658 0
M  V30 18417 H 1815.71 -0.426116 -1.90185 0
M  V30 18418 H 1814.81 0.557482 -3.07081 0
M  V30 18419 N 1815.11 1.57549 -0.040136 0
M  V30 18420 C 1816.33 1.96967 0.649517 0
M  V30 18421 C 1816.76 0.917056 1.64231 0
M  V30 18422 O 1816.11 -0.120899 1.80896 0
M  V30 18423 C 1816.16 3.35471 1.32256 0
M  V30 18424 O 1815.27 3.32615 2.43806 0
M  V30 18425 H 1814.61 0.641933 0.169758 0
M  V30 18426 H 1817.14 2.04329 -0.105261 0
M  V30 18427 H 1817.15 3.71951 1.6768 0
M  V30 18428 H 1815.82 4.11623 0.594895 0
M  V30 18429 H 1814.4 3.07867 2.10411 0
M  V30 18430 N 1816.58 -0.233136 1.55866 0
M  V30 18431 C 1818 -0.582304 1.48598 0
M  V30 18432 C 1818.2 -1.87694 0.733016 0
M  V30 18433 O 1817.26 -2.51074 0.267959 0
M  V30 18434 C 1818.57 -0.67227 2.93089 0
M  V30 18435 C 1820.12 -0.763676 3.03541 0
M  V30 18436 C 1820.59 -0.885087 4.49366 0
M  V30 18437 N 1822.08 -0.949606 4.53362 0
M  V30 18438 C 1822.82 -1.06306 5.6346 0
M  V30 18439 N 1822.31 -1.14118 6.83337 0
M  V30 18440 N 1824.11 -1.09729 5.51286 0
M  V30 18441 H 1816.26 0.616568 2.03254 0
M  V30 18442 H 1818.52 0.214762 0.923353 0
M  V30 18443 H 1818.23 0.20923 3.51077 0
M  V30 18444 H 1818.1 -1.5397 3.44344 0
M  V30 18445 H 1820.49 -1.63562 2.45625 0
M  V30 18446 H 1820.57 0.129191 2.55474 0
M  V30 18447 H 1820.21 -0.017644 5.07897 0
M  V30 18448 H 1820.14 -1.7932 4.95128 0
M  V30 18449 H 1822.63 -0.900018 3.67026 0
M  V30 18450 H 1822.95 -1.2272 7.62994 0
M  V30 18451 H 1821.29 -1.11051 6.8607 0
M  V30 18452 H 1824.48 -1.03283 4.56563 0
M  V30 18453 H 1824.66 -1.18225 6.37124 0
M  V30 18454 N 1818.06 -1.49479 -0.499372 0
M  V30 18455 C 1819.29 -1.6276 -1.27738 0
M  V30 18456 C 1819.71 -0.299635 -1.86407 0
M  V30 18457 O 1819.06 0.715092 -1.67907 0
M  V30 18458 C 1819.11 -2.69762 -2.40647 0
M  V30 18459 O 1818.84 -3.97407 -1.84388 0
M  V30 18460 C 1820.34 -2.93762 -3.31992 0
M  V30 18461 H 1817.56 -0.547893 -0.387368 0
M  V30 18462 H 1820.1 -1.95522 -0.599292 0
M  V30 18463 H 1818.26 -2.39773 -3.04282 0
M  V30 18464 H 1818.67 -4.56361 -2.58525 0
M  V30 18465 H 1820.14 -3.72361 -4.07494 0
M  V30 18466 H 1820.62 -2.0374 -3.89085 0
M  V30 18467 H 1821.23 -3.25173 -2.74122 0
M  V30 18468 N 1819.54 0.750537 -1.38581 0
M  V30 18469 C 1820.78 1.52254 -1.36374 0
M  V30 18470 C 1821.15 1.91947 0.0452405 0
M  V30 18471 O 1822.35 2.68112 0.192202 0
M  V30 18472 C 1820.62 2.73944 -2.29542 0
M  V30 18473 S 1822.18 3.63776 -2.45382 0
M  V30 18474 H 1818.99 0.520989 -0.48383 0
M  V30 18475 H 1821.6 0.88079 -1.74535 0
M  V30 18476 H 1820.3 2.42898 -3.308 0
M  V30 18477 H 1819.83 3.43062 -1.92541 0
M  V30 18478 H 1821.85 4.66889 -1.68016 0
M  V30 18479 N 1821.02 1.235 0.979051 0
M  V30 18480 C 1822.44 0.997948 1.24552 0
M  V30 18481 C 1822.64 -0.300139 1.99252 0
M  V30 18482 O 1821.69 -1.01923 2.31015 0
M  V30 18483 C 1823 2.2057 2.04375 0
M  V30 18484 C 1824.55 2.25075 2.17509 0
M  V30 18485 C 1825.03 3.45441 3.00724 0
M  V30 18486 N 1826.52 3.45688 3.08308 0
M  V30 18487 C 1827.25 4.35478 3.73024 0
M  V30 18488 N 1826.75 5.35506 4.39551 0
M  V30 18489 N 1828.54 4.23218 3.69923 0
M  V30 18490 H 1820.69 2.06936 0.478649 0
M  V30 18491 H 1822.96 0.907514 0.274083 0
M  V30 18492 H 1822.66 3.14781 1.56863 0
M  V30 18493 H 1822.54 2.21765 3.05123 0
M  V30 18494 H 1824.92 1.31403 2.64229 0
M  V30 18495 H 1825 2.27912 1.16146 0
M  V30 18496 H 1824.65 4.3942 2.547 0
M  V30 18497 H 1824.58 3.39845 4.0226 0
M  V30 18498 H 1827.07 2.73315 2.60974 0
M  V30 18499 H 1827.38 6.00274 4.86715 0
M  V30 18500 H 1825.73 5.39404 4.38256 0
M  V30 18501 H 1828.92 3.44315 3.17119 0
M  V30 18502 H 1829.09 4.93396 4.20076 0
M  V30 18503 N 1822.5 -1.17802 1.04693 0
M  V30 18504 C 1823.74 -1.89625 0.762995 0
M  V30 18505 C 1824.1 -1.78906 -0.696901 0
M  V30 18506 O 1825.3 -2.45498 -1.09472 0
M  V30 18507 C 1823.57 -3.35787 1.224 0
M  V30 18508 S 1825.13 -4.25638 1.06667 0
M  V30 18509 H 1821.95 -0.654723 0.277235 0
M  V30 18510 H 1824.55 -1.42304 1.34052 0
M  V30 18511 H 1823.26 -3.41121 2.28176 0
M  V30 18512 H 1822.79 -3.8815 0.640532 0
M  V30 18513 H 1824.8 -4.96199 -0.0121683 0
M  V30 18514 N 1823.98 -0.827251 -1.34143 0
M  V30 18515 C 1825.39 -0.475645 -1.80539 0
M  V30 18516 C 1825.74 1.00435 -1.68545 0
M  V30 18517 O 1824.86 1.78186 -1.22795 0
M  V30 18518 C 1825.46 -0.856588 -3.27793 0
M  V30 18519 C 1824.02 -0.557289 -3.72252 0
M  V30 18520 C 1823.16 -1.07118 -2.55775 0
M  V30 18521 H 1826.11 -1.01703 -1.21829 0
M  V30 18522 H 1826.14 -0.162059 -3.80155 0
M  V30 18523 H 1825.65 -1.93379 -3.36491 0
M  V30 18524 H 1823.75 0.510328 -3.69089 0
M  V30 18525 H 1823.86 -1.10438 -4.66198 0
M  V30 18526 H 1822.23 -0.492534 -2.49892 0
M  V30 18527 H 1823.01 -2.15492 -2.67242 0
M  V30 18528 N 1825.45 1.46436 -0.582609 0
M  V30 18529 C 1826.73 1.956 -0.00129167 0
M  V30 18530 C 1827.11 1.52526 1.45942 0
M  V30 18531 O 1826.46 0.775911 2.14923 0
M  V30 18532 C 1826.67 3.4857 -0.173243 0
M  V30 18533 C 1828.02 4.2458 -0.0410173 0
M  V30 18534 O 1829.04 3.56054 -0.102074 0
M  V30 18535 O 1827.9 5.46418 0.0947564 0
M  V30 18536 H 1824.99 0.825495 0.0498706 0
M  V30 18537 H 1827.54 1.5672 -0.650921 0
M  V30 18538 H 1826.31 3.72808 -1.1887 0
M  V30 18539 H 1825.93 3.94279 0.512822 0
M  V30 18540 N 1826.93 0.320385 1.54309 0
M  V30 18541 C 1827.88 -0.562569 2.25694 0
M  V30 18542 C 1828.87 -1.12117 1.26988 0
M  V30 18543 O 1830.08 -1.06958 1.44776 0
M  V30 18544 H 1826.45 -0.200063 0.724899 0
M  V30 18545 H 1828.43 0.0618142 2.98336 0
M  V30 18546 C 1827.17 -1.7134 3.02552 0
M  V30 18547 H 1826.5 -1.29281 3.7832 0
M  V30 18548 H 1827.94 -2.30687 3.55752 0
M  V30 18549 C 1826.4 -2.62912 2.10663 0
M  V30 18550 O 1826.93 -3.64541 1.68739 0
M  V30 18551 N 1825.13 -2.31076 1.76217 0
M  V30 18552 H 1824.68 -1.48474 2.10507 0
M  V30 18553 H 1824.64 -2.92608 1.15014 0
M  V30 18554 N 1828.41 -1.57525 0.0484906 0
M  V30 18555 C 1829.64 -1.96897 -0.635553 0
M  V30 18556 C 1830.05 -0.925909 -1.64537 0
M  V30 18557 O 1829.41 0.0901742 -1.82277 0
M  V30 18558 C 1829.46 -3.36348 -1.32484 0
M  V30 18559 O 1829.18 -4.36656 -0.355464 0
M  V30 18560 C 1830.68 -3.90463 -2.0989 0
M  V30 18561 H 1827.9 -0.648062 -0.173945 0
M  V30 18562 H 1830.45 -2.04182 0.113997 0
M  V30 18563 H 1828.6 -3.30222 -2.02564 0
M  V30 18564 H 1829.02 -5.17613 -0.847153 0
M  V30 18565 H 1830.49 -4.90326 -2.53543 0
M  V30 18566 H 1830.97 -3.25745 -2.94596 0
M  V30 18567 H 1831.57 -3.99918 -1.44726 0
M  V30 18568 N 1829.89 0.224867 -1.55988 0
M  V30 18569 C 1830.82 1.28192 -1.95164 0
M  V30 18570 C 1831.8 1.49062 -0.81942 0
M  V30 18571 O 1832.98 1.61301 -1.08146 0
M  V30 18572 C 1830.11 2.63237 -2.26547 0
M  V30 18573 C 1829.07 2.57029 -3.42228 0
M  V30 18574 C 1828.39 3.96073 -3.59207 0
M  V30 18575 C 1829.69 2.12101 -4.77295 0
M  V30 18576 H 1831.39 0.956495 -2.8371 0
M  V30 18577 H 1828.93 0.458673 -1.365 0
M  V30 18578 H 1830.89 3.37341 -2.52545 0
M  V30 18579 H 1829.61 2.97461 -1.3485 0
M  V30 18580 H 1828.27 1.85382 -3.16273 0
M  V30 18581 H 1827.92 4.27599 -2.64892 0
M  V30 18582 H 1827.62 3.92802 -4.37013 0
M  V30 18583 H 1829.14 4.71844 -3.8755 0
M  V30 18584 H 1830.56 2.75946 -5.0252 0
M  V30 18585 H 1828.95 2.19895 -5.5836 0
M  V30 18586 H 1830.02 1.07319 -4.72875 0
M  V30 18587 N 1831.37 1.49742 0.491438 0
M  V30 18588 C 1832.61 1.59395 1.24248 0
M  V30 18589 C 1832.93 0.286934 1.92877 0
M  V30 18590 O 1832.2 -0.694353 1.83182 0
M  V30 18591 H 1830.78 0.587313 0.461598 0
M  V30 18592 H 1833.45 1.86417 0.56873 0
M  V30 18593 H 1832.54 2.39487 2.00131 0
M  V30 18594 N 1832.84 -0.743177 1.38977 0
M  V30 18595 C 1834.09 -1.50479 1.35956 0
M  V30 18596 C 1834.42 -1.94143 -0.0471116 0
M  V30 18597 O 1833.7 -1.66195 -1.01042 0
M  V30 18598 C 1833.98 -2.75016 2.32461 0
M  V30 18599 C 1833.83 -2.37423 3.82034 0
M  V30 18600 C 1835.15 -3.77084 2.26927 0
M  V30 18601 H 1832.27 -0.545869 0.495172 0
M  V30 18602 H 1834.91 -0.850403 1.69906 0
M  V30 18603 H 1833.06 -3.30852 2.03639 0
M  V30 18604 H 1834.74 -1.87282 4.21572 0
M  V30 18605 H 1832.98 -1.69752 3.99208 0
M  V30 18606 H 1833.65 -3.2657 4.45035 0
M  V30 18607 H 1836.13 -3.30812 2.52394 0
M  V30 18608 H 1835 -4.61901 2.96545 0
M  V30 18609 H 1835.26 -4.23419 1.27156 0
M  V30 18610 N 1834.32 -1.24018 -0.972487 0
M  V30 18611 C 1835.6 -0.985099 -1.68983 0
M  V30 18612 C 1835.98 0.494006 -2.05238 0
M  V30 18613 O 1835.33 1.46715 -1.75177 0
M  V30 18614 C 1835.54 -1.90324 -2.92537 0
M  V30 18615 C 1836.89 -2.17134 -3.64881 0
M  V30 18616 O 1837.91 -1.87938 -3.02585 0
M  V30 18617 O 1836.77 -2.66691 -4.7701 0
M  V30 18618 H 1833.86 -0.372172 -0.738524 0
M  V30 18619 H 1836.41 -1.35095 -1.027 0
M  V30 18620 H 1835.18 -2.90278 -2.62401 0
M  V30 18621 H 1834.8 -1.54025 -3.66554 0
M  V30 18622 N 1835.8 1.17245 -1.05316 0
M  V30 18623 C 1837.04 1.89218 -0.773041 0
M  V30 18624 C 1837.4 1.79273 0.687403 0
M  V30 18625 O 1838.61 2.46075 1.08168 0
M  V30 18626 C 1836.88 3.35133 -1.24179 0
M  V30 18627 S 1838.44 4.25066 -1.08923 0
M  V30 18628 H 1835.25 0.653243 -0.280703 0
M  V30 18629 H 1837.86 1.41591 -1.34805 0
M  V30 18630 H 1836.56 3.39906 -2.29982 0
M  V30 18631 H 1836.09 3.87805 -0.661108 0
M  V30 18632 H 1838.11 4.96198 -0.0141465 0
M  V30 18633 N 1837.28 0.834353 1.33702 0
M  V30 18634 C 1838.53 0.424225 1.97188 0
M  V30 18635 C 1838.84 -1.02086 1.66846 0
M  V30 18636 O 1840.05 -1.53545 2.23911 0
M  V30 18637 C 1838.5 0.707628 3.52875 0
M  V30 18638 C 1838.11 2.16709 3.92098 0
M  V30 18639 C 1839.85 0.364228 4.22935 0
M  V30 18640 C 1837.76 2.39478 5.40744 0
M  V30 18641 H 1836.69 0.154897 0.737918 0
M  V30 18642 H 1839.34 1.02231 1.52385 0
M  V30 18643 H 1837.72 0.0392323 3.95981 0
M  V30 18644 H 1838.9 2.87559 3.60064 0
M  V30 18645 H 1837.21 2.47303 3.35008 0
M  V30 18646 H 1839.81 0.512031 5.32243 0
M  V30 18647 H 1840.15 -0.692375 4.10502 0
M  V30 18648 H 1840.69 0.98767 3.85344 0
M  V30 18649 H 1837.43 3.43687 5.58175 0
M  V30 18650 H 1836.95 1.73184 5.74254 0
M  V30 18651 H 1838.62 2.22406 6.07573 0
M  V30 18652 N 1838.76 -1.46125 0.590367 0
M  V30 18653 C 1839.67 -2.34177 -0.140761 0
M  V30 18654 C 1840.68 -1.50213 -0.878181 0
M  V30 18655 O 1841.86 -1.83063 -0.839644 0
M  V30 18656 C 1838.92 -3.27537 -1.13669 0
M  V30 18657 C 1837.98 -4.27403 -0.403103 0
M  V30 18658 C 1837.22 -5.16302 -1.35159 0
M  V30 18659 O 1837.44 -5.08283 -2.58853 0
M  V30 18660 O 1836.37 -5.95753 -0.858003 0
M  V30 18661 H 1840.2 -2.98063 0.582401 0
M  V30 18662 H 1837.79 -1.45225 0.35072 0
M  V30 18663 H 1839.67 -3.85112 -1.71074 0
M  V30 18664 H 1838.34 -2.66237 -1.84118 0
M  V30 18665 H 1837.25 -3.73493 0.212986 0
M  V30 18666 H 1838.58 -4.9151 0.260565 0
M  V30 18667 N 1840.23 -0.328564 -1.54137 0
M  V30 18668 C 1841.17 0.569226 -2.22019 0
M  V30 18669 C 1842.18 1.0759 -1.22181 0
M  V30 18670 O 1843.37 0.988621 -1.48622 0
M  V30 18671 C 1840.47 1.79439 -2.87498 0
M  V30 18672 C 1839.64 1.42555 -4.13517 0
M  V30 18673 C 1838.7 2.50878 -4.62544 0
M  V30 18674 O 1837.73 2.14812 -5.27109 0
M  V30 18675 N 1838.93 3.8189 -4.37196 0
M  V30 18676 H 1841.69 -0.0120478 -2.99698 0
M  V30 18677 H 1839.25 -0.151994 -1.61185 0
M  V30 18678 H 1841.25 2.51307 -3.17218 0
M  V30 18679 H 1839.82 2.28339 -2.13495 0
M  V30 18680 H 1839.04 0.538288 -3.90507 0
M  V30 18681 H 1840.32 1.1549 -4.9552 0
M  V30 18682 H 1839.72 4.13987 -3.85527 0
M  V30 18683 H 1838.28 4.49974 -4.71558 0
M  V30 18684 N 1841.71 1.57497 -0.0568439 0
M  V30 18685 C 1842.66 2.11862 0.915593 0
M  V30 18686 C 1843.63 1.02738 1.30515 0
M  V30 18687 O 1844.81 1.30318 1.39362 0
M  V30 18688 C 1841.95 2.67269 2.18315 0
M  V30 18689 C 1841.07 3.90498 1.84757 0
M  V30 18690 C 1840.2 4.342 3.06013 0
M  V30 18691 C 1839.24 5.50115 2.68403 0
M  V30 18692 N 1838.38 5.88844 3.8237 0
M  V30 18693 H 1843.22 2.94657 0.445101 0
M  V30 18694 H 1840.76 1.45621 0.20807 0
M  V30 18695 H 1842.71 2.97494 2.92494 0
M  V30 18696 H 1841.34 1.87262 2.62931 0
M  V30 18697 H 1840.4 3.66828 1.00703 0
M  V30 18698 H 1841.71 4.7473 1.53077 0
M  V30 18699 H 1840.86 4.66008 3.88486 0
M  V30 18700 H 1839.6 3.4879 3.40876 0
M  V30 18701 H 1838.61 5.17973 1.84348 0
M  V30 18702 H 1839.83 6.37244 2.34726 0
M  V30 18703 H 1837.78 5.06387 4.17024 0
M  V30 18704 H 1837.69 6.67781 3.54407 0
M  V30 18705 H 1838.96 6.25269 4.65466 0
M  V30 18706 O 1843.23 -0.0841476 1.61281 0
M  V30 18707 H 1843.92 -0.711501 1.80159 0
M  V30 END ATOM
M  V30 BEGIN BOND
M  V30 END BOND
M  V30 END CTAB
M  END
$$$$
