drugbank_target|P10276 Retinoic acid receptor alpha (DB00210; DB00459; DB00523; DB00755; DB00799; DB00926; DB00982; DB04942; DB05785; DB12808)
 OpenBabel12092119363D

  0  0  0     0  0            999 V3000
M  V30 BEGIN CTAB
M  V30 COUNTS 7107 7188 0 0 0
M  V30 BEGIN ATOM
M  V30 1 H -0.908 1.98254 -0.117106 0
M  V30 2 N 0 1.576 0 0
M  V30 3 C 0.933 2.03868 1.02534 0
M  V30 4 C 1.911 0.928543 1.3348 0
M  V30 5 O 3.095 1.19667 1.45644 0
M  V30 6 C 0.222 2.43627 2.35294 0
M  V30 7 C -0.732 3.65373 2.2001 0
M  V30 8 S 0.101 5.13292 1.52614 0
M  V30 9 C 1.257 5.56322 2.86805 0
M  V30 10 H 1.49 2.90518 0.631377 0
M  V30 11 H -0.977 1.52953 0.210867 0
M  V30 12 H 0.981 2.67203 3.11629 0
M  V30 13 H -0.358 1.57376 2.7183 0
M  V30 14 H -1.165 3.90944 3.18086 0
M  V30 15 H -1.563 3.418 1.51819 0
M  V30 16 H 0.729 5.58782 3.83104 0
M  V30 17 H 1.672 6.56266 2.65933 0
M  V30 18 H 2.08 4.83886 2.90714 0
M  V30 19 N 1.4781 -0.272755 1.55222 0
M  V30 20 C 2.4411 -1.32041 1.87344 0
M  V30 21 C 3.4411 -1.42342 0.74803 0
M  V30 22 O 4.6311 -1.41488 1.0162 0
M  V30 23 C 1.7631 -2.70173 2.07893 0
M  V30 24 H 2.9561 -1.04789 2.80997 0
M  V30 25 H 0.5091 -0.51083 1.47717 0
M  V30 26 H 1.2441 -3.02605 1.16622 0
M  V30 27 H 1.0291 -2.64082 2.89833 0
M  V30 28 H 2.5191 -3.45869 2.34017 0
M  V30 29 N 2.9562 -1.48159 -0.537278 0
M  V30 30 C 4.1812 -1.59707 -1.32319 0
M  V30 31 C 4.6062 -0.254859 -1.86365 0
M  V30 32 O 3.9642 0.772378 -1.64024 0
M  V30 33 C 4.0122 -2.6412 -2.45505 0
M  V30 34 O 3.1162 -2.20774 -3.48328 0
M  V30 35 H 2.4572 -0.535791 -0.392204 0
M  V30 36 H 4.9872 -1.94092 -0.647268 0
M  V30 37 H 4.9972 -2.85166 -2.91795 0
M  V30 38 H 3.6722 -3.61567 -2.05528 0
M  V30 39 H 2.2492 -2.09911 -3.08207 0
M  V30 40 N 4.4343 0.785586 -1.36625 0
M  V30 41 C 5.3823 1.91978 -1.31329 0
M  V30 42 C 6.3763 1.68162 -0.204416 0
M  V30 43 O 7.5823 1.76122 -0.371645 0
M  V30 44 H 3.9573 0.631087 -0.408942 0
M  V30 45 H 5.9283 1.93562 -2.27104 0
M  V30 46 C 4.6773 3.29055 -1.12329 0
M  V30 47 H 4.0003 3.4795 -1.96903 0
M  V30 48 H 5.4403 4.08756 -1.12671 0
M  V30 49 C 3.8993 3.36461 0.171861 0
M  V30 50 O 4.4293 3.84576 1.16035 0
M  V30 51 N 2.6353 2.89782 0.217846 0
M  V30 52 H 2.1823 2.50819 -0.587183 0
M  V30 53 H 2.1403 2.95119 1.08408 0
M  V30 54 N 5.9124 1.20967 1.01018 0
M  V30 55 C 7.1374 1.0503 1.78839 0
M  V30 56 C 7.5624 -0.395752 1.8389 0
M  V30 57 O 6.9204 -1.28529 1.27867 0
M  V30 58 C 6.9684 1.64602 3.2084 0
M  V30 59 O 6.0724 0.887988 4.02726 0
M  V30 60 H 5.4134 0.369987 0.551367 0
M  V30 61 H 7.9434 1.60399 1.27018 0
M  V30 62 H 7.9534 1.68607 3.71532 0
M  V30 63 H 6.6284 2.69841 3.16479 0
M  V30 64 H 5.2054 0.922648 3.61305 0
M  V30 65 N 7.3905 -1.2043 1.01659 0
M  V30 66 C 8.6155 -1.94318 0.724942 0
M  V30 67 C 9.0405 -1.74266 -0.708034 0
M  V30 68 O 8.3985 -1.03694 -1.48719 0
M  V30 69 C 8.4465 -3.44486 1.06591 0
M  V30 70 O 7.5505 -4.12017 0.177599 0
M  V30 71 H 6.8915 -0.60708 0.26898 0
M  V30 72 H 9.4215 -1.52861 1.35995 0
M  V30 73 H 9.4315 -3.95106 1.01762 0
M  V30 74 H 8.1065 -3.58404 2.10997 0
M  V30 75 H 6.6835 -3.71821 0.283421 0
M  V30 76 N 8.8686 -0.792821 -1.36206 0
M  V30 77 C 10.0936 -0.377701 -2.03932 0
M  V30 78 C 10.5186 0.998947 -1.59382 0
M  V30 79 O 9.8766 1.64421 -0.763903 0
M  V30 80 C 9.9246 -0.453635 -3.57735 0
M  V30 81 O 9.0286 0.538151 -4.08874 0
M  V30 82 H 8.3696 -0.159855 -0.644471 0
M  V30 83 H 10.8996 -1.07488 -1.7409 0
M  V30 84 H 10.9096 -0.318464 -4.06755 0
M  V30 85 H 9.5846 -1.45784 -3.89512 0
M  V30 86 H 8.1616 0.364359 -3.71116 0
M  V30 87 N 10.3467 1.47872 -0.545128 0
M  V30 88 C 11.5867 2.04391 -0.0187854 0
M  V30 89 C 11.9507 1.41162 1.30144 0
M  V30 90 O 13.1517 1.88656 1.91474 0
M  V30 91 C 11.4227 3.57299 0.0850867 0
M  V30 92 S 12.9817 4.35221 0.559302 0
M  V30 93 H 9.7997 0.710737 -0.0193301 0
M  V30 94 H 12.4017 1.81395 -0.729125 0
M  V30 95 H 11.1057 4.00847 -0.880351 0
M  V30 96 H 10.6367 3.84773 0.819348 0
M  V30 97 H 12.6517 4.61571 1.82118 0
M  V30 98 N 11.8248 0.280983 1.55075 0
M  V30 99 C 13.2358 -0.215629 1.85451 0
M  V30 100 C 13.5868 -1.54991 1.203 0
M  V30 101 O 12.7118 -2.10699 0.493435 0
M  V30 102 C 13.3068 -0.398026 3.36454 0
M  V30 103 C 11.8658 -0.838866 3.66933 0
M  V30 104 C 11.0128 0.064458 2.77225 0
M  V30 105 H 13.9638 0.502601 1.50531 0
M  V30 106 H 13.9848 -1.23569 3.59876 0
M  V30 107 H 13.4968 0.573241 3.83843 0
M  V30 108 H 11.5978 -1.8214 3.25048 0
M  V30 109 H 11.7108 -0.672123 4.74362 0
M  V30 110 H 10.0748 -0.452863 2.50642 0
M  V30 111 H 10.8578 1.03172 3.2743 0
M  V30 112 N 13.3029 -1.57598 0.00835791 0
M  V30 113 C 14.5309 -1.95214 -0.68549 0
M  V30 114 C 14.9459 -0.883706 -1.66841 0
M  V30 115 O 14.3029 0.136565 -1.81988 0
M  V30 116 C 14.3539 -3.32865 -1.41007 0
M  V30 117 O 14.0749 -4.35609 -0.466552 0
M  V30 118 C 15.5759 -3.84991 -2.19765 0
M  V30 119 H 12.7959 -0.643422 -0.190392 0
M  V30 120 H 15.3399 -2.04406 0.0619607 0
M  V30 121 H 13.4949 -3.24956 -2.10908 0
M  V30 122 H 13.9089 -5.15288 -0.978699 0
M  V30 123 H 15.3829 -4.8371 -2.65948 0
M  V30 124 H 15.8599 -3.18137 -3.02796 0
M  V30 125 H 16.4659 -3.96103 -1.54864 0
M  V30 126 N 14.781 0.264519 -1.55364 0
M  V30 127 C 16.192 0.834936 -1.6699 0
M  V30 128 C 16.543 1.86718 -0.602552 0
M  V30 129 O 15.668 2.14899 0.254425 0
M  V30 130 C 16.263 1.5212 -3.02729 0
M  V30 131 C 14.822 2.03954 -3.16354 0
M  V30 132 C 13.969 0.884498 -2.62815 0
M  V30 133 H 16.92 0.0406869 -1.58648 0
M  V30 134 H 16.941 2.38853 -2.96191 0
M  V30 135 H 16.453 0.769668 -3.80392 0
M  V30 136 H 14.554 2.82041 -2.43482 0
M  V30 137 H 14.667 2.24902 -4.23032 0
M  V30 138 H 13.031 1.2802 -2.20188 0
M  V30 139 H 13.814 0.14634 -3.42988 0
M  V30 140 N 16.2591 1.48442 0.529413 0
M  V30 141 C 17.5071 1.56179 1.28267 0
M  V30 142 C 17.8281 0.237721 1.93546 0
M  V30 143 O 17.0981 -0.740779 1.81354 0
M  V30 144 H 15.6781 0.575367 0.476405 0
M  V30 145 H 18.3401 1.84909 0.61602 0
M  V30 146 H 17.4361 2.34312 2.06165 0
M  V30 147 N 17.7372 -0.778329 1.37039 0
M  V30 148 C 18.9852 -1.53361 1.31623 0
M  V30 149 C 19.3062 -1.94739 -0.100831 0
M  V30 150 O 18.5762 -1.65797 -1.04347 0
M  V30 151 H 17.1562 -0.568794 0.484234 0
M  V30 152 H 19.8182 -0.926742 1.71457 0
M  V30 153 H 18.9142 -2.43606 1.95096 0
M  V30 154 N 19.2153 -1.21501 -1.00376 0
M  V30 155 C 20.4633 -1.03095 -1.73827 0
M  V30 156 C 20.7843 0.436341 -1.90055 0
M  V30 157 O 20.0543 1.31466 -1.45236 0
M  V30 158 H 18.6343 -0.378487 -0.644016 0
M  V30 159 H 21.2963 -1.52831 -1.20949 0
M  V30 160 H 20.3923 -1.49991 -2.73695 0
M  V30 161 N 20.6934 1.19889 -1.02296 0
M  V30 162 C 21.6434 2.20777 -0.56934 0
M  V30 163 C 22.6274 1.56379 0.378741 0
M  V30 164 O 23.8194 1.75859 0.200673 0
M  V30 165 C 20.9484 3.43196 0.0845077 0
M  V30 166 C 20.0344 4.14749 -0.88566 0
M  V30 167 N 20.4254 4.62584 -2.04573 0
M  V30 168 C 18.7234 4.40347 -0.707835 0
M  V30 169 C 19.4244 5.17466 -2.65714 0
M  V30 170 N 18.4004 5.0791 -1.93723 0
M  V30 171 H 22.2024 2.55434 -1.45365 0
M  V30 172 H 19.7164 1.35897 -0.88915 0
M  V30 173 H 21.7134 4.14707 0.427067 0
M  V30 174 H 20.3734 3.10042 0.964574 0
M  V30 175 H 21.3844 4.57597 -2.4254 0
M  V30 176 H 18.0614 4.17317 0.12364 0
M  V30 177 H 19.4514 5.64808 -3.63925 0
M  V30 178 N 22.1715 0.800033 1.35784 0
M  V30 179 C 23.1015 0.220184 2.3246 0
M  V30 180 C 24.0825 -0.65073 1.57161 0
M  V30 181 O 25.2675 -0.582359 1.85263 0
M  V30 182 C 22.3975 -0.637353 3.41402 0
M  V30 183 C 21.3515 0.134531 4.27789 0
M  V30 184 C 20.6775 -0.844285 5.27992 0
M  V30 185 C 21.9775 1.32979 5.05088 0
M  V30 186 H 23.6715 1.02787 2.81203 0
M  V30 187 H 21.2175 0.495717 1.35199 0
M  V30 188 H 23.1705 -1.05302 4.08031 0
M  V30 189 H 21.8945 -1.47785 2.91251 0
M  V30 190 H 20.5535 0.531296 3.6273 0
M  V30 191 H 20.2015 -1.68011 4.74111 0
M  V30 192 H 19.9015 -0.332184 5.8666 0
M  V30 193 H 21.4255 -1.2583 5.97494 0
M  V30 194 H 22.8395 0.98934 5.64699 0
M  V30 195 H 21.2365 1.77593 5.7322 0
M  V30 196 H 22.3065 2.11978 4.36111 0
M  V30 197 N 23.6496 -1.47581 0.552962 0
M  V30 198 C 24.5976 -2.31648 -0.21023 0
M  V30 199 C 25.5916 -1.42663 -0.913432 0
M  V30 200 O 26.7976 -1.5945 -0.835201 0
M  V30 201 H 23.1726 -0.746989 -0.0866676 0
M  V30 202 H 25.1436 -2.93869 0.518051 0
M  V30 203 C 23.8926 -3.25226 -1.22976 0
M  V30 204 H 23.2156 -3.93658 -0.698077 0
M  V30 205 H 24.6556 -3.86889 -1.73473 0
M  V30 206 C 23.1146 -2.48448 -2.27542 0
M  V30 207 O 23.6446 -2.22585 -3.34393 0
M  V30 208 N 21.8506 -2.09532 -2.01357 0
M  V30 209 H 21.3976 -2.30765 -1.14478 0
M  V30 210 H 21.3556 -1.58476 -2.71538 0
M  V30 211 N 25.1277 -0.289203 -1.54924 0
M  V30 212 C 26.3757 0.322879 -1.99504 0
M  V30 213 C 26.6967 1.55313 -1.1791 0
M  V30 214 O 25.9667 1.94001 -0.272097 0
M  V30 215 H 24.5467 0.122291 -0.736922 0
M  V30 216 H 27.2087 -0.397802 -1.90797 0
M  V30 217 H 26.3047 0.603061 -3.06218 0
M  V30 218 N 26.6058 1.57591 -0.0167156 0
M  V30 219 C 27.8358 1.95292 0.674149 0
M  V30 220 C 28.2438 0.891097 1.66901 0
M  V30 221 O 27.5868 -0.136908 1.83189 0
M  V30 222 C 27.6488 3.29072 1.44747 0
M  V30 223 C 27.3128 4.52879 0.612331 0
M  V30 224 C 28.3098 5.1979 -0.107126 0
M  V30 225 C 25.9948 4.99242 0.553381 0
M  V30 226 C 27.9888 6.31375 -0.874339 0
M  V30 227 C 25.6758 6.10713 -0.217546 0
M  V30 228 C 26.6738 6.76637 -0.930123 0
M  V30 229 O 26.3618 7.85969 -1.68844 0
M  V30 230 H 26.0938 0.648275 0.191615 0
M  V30 231 H 28.6478 2.05284 -0.0690148 0
M  V30 232 H 26.8778 3.15535 2.2355 0
M  V30 233 H 28.5668 3.51764 2.02526 0
M  V30 234 H 29.3328 4.84948 -0.0708392 0
M  V30 235 H 25.2118 4.47744 1.09757 0
M  V30 236 H 28.7558 6.82764 -1.43106 0
M  V30 237 H 24.6528 6.44994 -0.255593 0
M  V30 238 H 25.4208 8.02571 -1.6069 0
M  V30 239 N 28.0839 -0.256276 1.55502 0
M  V30 240 C 29.4949 -0.826068 1.67431 0
M  V30 241 C 29.8459 -1.86396 0.612446 0
M  V30 242 O 28.9709 -2.15031 -0.243025 0
M  V30 243 C 29.5659 -1.50512 3.03532 0
M  V30 244 C 28.1249 -2.02273 3.17431 0
M  V30 245 C 27.2719 -0.870548 2.63281 0
M  V30 246 H 30.2229 -0.0322728 1.58667 0
M  V30 247 H 30.2439 -2.37279 2.97454 0
M  V30 248 H 29.7559 -0.749484 3.80794 0
M  V30 249 H 27.8569 -2.80746 2.44974 0
M  V30 250 H 27.9699 -2.22655 4.24219 0
M  V30 251 H 26.3339 -1.26851 2.20864 0
M  V30 252 H 27.1169 -0.128149 3.43061 0
M  V30 253 N 29.562 -1.4872 -0.521534 0
M  V30 254 C 30.808 -1.574 -1.27879 0
M  V30 255 C 31.141 -0.250817 -1.92573 0
M  V30 256 O 30.416 0.743934 -1.79711 0
M  V30 257 C 30.699 -2.71843 -2.36164 0
M  V30 258 C 30.552 -4.13893 -1.76105 0
M  V30 259 C 31.871 -2.82008 -3.37875 0
M  V30 260 H 28.99 -0.572941 -0.463581 0
M  V30 261 H 31.632 -1.80927 -0.580119 0
M  V30 262 H 29.782 -2.51914 -2.95756 0
M  V30 263 H 31.454 -4.45284 -1.20499 0
M  V30 264 H 29.697 -4.20498 -1.06601 0
M  V30 265 H 30.368 -4.89804 -2.5455 0
M  V30 266 H 32.844 -3.00086 -2.88249 0
M  V30 267 H 31.72 -3.63796 -4.11028 0
M  V30 268 H 31.981 -1.90511 -3.98946 0
M  V30 269 N 31.0401 0.771051 -1.3745 0
M  V30 270 C 32.4511 1.34737 -1.29239 0
M  V30 271 C 32.8021 1.96109 0.0596908 0
M  V30 272 O 31.9271 1.93865 0.961534 0
M  V30 273 C 32.5221 2.44973 -2.34037 0
M  V30 274 C 31.0811 2.98372 -2.29458 0
M  V30 275 C 30.2281 1.71595 -2.17831 0
M  V30 276 H 33.1791 0.571256 -1.48062 0
M  V30 277 H 33.2001 3.24471 -1.98744 0
M  V30 278 H 32.7121 2.00276 -3.32432 0
M  V30 279 H 30.8131 3.47443 -1.34589 0
M  V30 280 H 30.9261 3.53939 -3.229 0
M  V30 281 H 29.2901 1.94547 -1.64388 0
M  V30 282 H 30.0731 1.29001 -3.18141 0
M  V30 283 N 32.5182 1.22032 0.997298 0
M  V30 284 C 33.9292 1.0397 1.55071 0
M  V30 285 C 34.2802 -0.398192 1.92117 0
M  V30 286 O 33.4052 -1.28254 1.74298 0
M  V30 287 C 34.0002 1.88109 2.81781 0
M  V30 288 C 32.5592 1.74357 3.33581 0
M  V30 289 C 31.7062 1.84846 2.06706 0
M  V30 290 H 34.6572 1.35941 0.818883 0
M  V30 291 H 34.6782 1.39589 3.53971 0
M  V30 292 H 34.1902 2.92754 2.54787 0
M  V30 293 H 32.2912 0.72427 3.65493 0
M  V30 294 H 32.4042 2.56772 4.04481 0
M  V30 295 H 30.7682 1.28238 2.20062 0
M  V30 296 H 31.5512 2.91014 1.82114 0
M  V30 297 N 33.9963 -1.19345 1.0293 0
M  V30 298 C 35.2263 -1.92717 0.744563 0
M  V30 299 C 35.6343 -1.75751 -0.700579 0
M  V30 300 O 34.9773 -1.07703 -1.48815 0
M  V30 301 C 35.0393 -3.44828 1.01657 0
M  V30 302 C 34.7033 -3.85564 2.45335 0
M  V30 303 C 35.7003 -3.90286 3.43472 0
M  V30 304 C 33.3853 -4.1719 2.79746 0
M  V30 305 C 35.3793 -4.26065 4.74075 0
M  V30 306 C 33.0663 -4.52642 4.10559 0
M  V30 307 C 34.0643 -4.57054 5.07534 0
M  V30 308 O 33.7523 -4.91685 6.36004 0
M  V30 309 H 33.4843 -0.618977 0.271742 0
M  V30 310 H 36.0383 -1.52415 1.37691 0
M  V30 311 H 34.2683 -3.85314 0.327084 0
M  V30 312 H 35.9573 -3.99437 0.721427 0
M  V30 313 H 36.7233 -3.66002 3.18225 0
M  V30 314 H 32.6023 -4.1294 2.04943 0
M  V30 315 H 36.1463 -4.29423 5.49765 0
M  V30 316 H 32.0433 -4.76383 4.35579 0
M  V30 317 H 32.8113 -5.09631 6.40483 0
M  V30 318 N 35.4744 -0.807222 -1.35358 0
M  V30 319 C 36.4374 -0.223665 -2.28106 0
M  V30 320 C 37.4374 0.589354 -1.4961 0
M  V30 321 O 38.6274 0.407745 -1.69361 0
M  V30 322 C 35.7594 0.688149 -3.33882 0
M  V30 323 H 36.9524 -1.04169 -2.81227 0
M  V30 324 H 34.5054 -0.577921 -1.45223 0
M  V30 325 H 35.2404 1.52984 -2.85948 0
M  V30 326 H 35.0254 0.10687 -3.91954 0
M  V30 327 H 36.5154 1.09075 -4.03104 0
M  V30 328 N 36.9525 1.47285 -0.560781 0
M  V30 329 C 38.1995 2.02464 -0.038062 0
M  V30 330 C 38.5275 1.43474 1.31322 0
M  V30 331 O 37.7825 0.581311 1.86867 0
M  V30 332 C 38.0815 3.57258 0.100784 0
M  V30 333 C 37.7475 4.35184 -1.18007 0
M  V30 334 C 36.4095 4.56194 -1.53103 0
M  V30 335 C 38.7615 4.80098 -2.02867 0
M  V30 336 C 36.0895 5.19367 -2.729 0
M  V30 337 C 38.4415 5.44593 -3.21871 0
M  V30 338 C 37.1055 5.63835 -3.57276 0
M  V30 339 H 36.3755 0.740869 -0.0139279 0
M  V30 340 H 39.0225 1.76916 -0.733012 0
M  V30 341 H 37.3275 3.81819 0.878724 0
M  V30 342 H 39.0245 3.97606 0.520639 0
M  V30 343 H 35.6145 4.19113 -0.8968 0
M  V30 344 H 39.7985 4.63642 -1.7706 0
M  V30 345 H 35.0545 5.32459 -3.00496 0
M  V30 346 H 39.2285 5.78358 -3.87911 0
M  V30 347 H 36.8555 6.12557 -4.50197 0
M  V30 348 N 38.4306 0.297415 1.54768 0
M  V30 349 C 39.6776 -0.312913 2.00068 0
M  V30 350 C 40.0056 -1.54171 1.18582 0
M  V30 351 O 39.2606 -1.94108 0.249133 0
M  V30 352 C 39.5596 -0.717561 3.50123 0
M  V30 353 C 39.2256 0.409095 4.4904 0
M  V30 354 C 37.8876 0.718399 4.75807 0
M  V30 355 C 40.2396 1.16717 5.07963 0
M  V30 356 C 37.5676 1.78896 5.5876 0
M  V30 357 C 39.9196 2.22762 5.92081 0
M  V30 358 C 38.5836 2.54303 6.1716 0
M  V30 359 H 37.8536 -0.114503 0.7321 0
M  V30 360 H 40.5006 0.415767 1.86932 0
M  V30 361 H 38.8056 -1.52627 3.60849 0
M  V30 362 H 40.5026 -1.20091 3.82595 0
M  V30 363 H 37.0926 0.157918 4.28309 0
M  V30 364 H 41.2766 0.941466 4.87289 0
M  V30 365 H 36.5326 2.0381 5.7643 0
M  V30 366 H 40.7066 2.81962 6.36765 0
M  V30 367 H 38.3336 3.3739 6.81229 0
M  V30 368 N 39.9087 -1.5758 0.0250728 0
M  V30 369 C 41.1557 -1.91633 -0.654444 0
M  V30 370 C 41.4837 -0.901103 -1.72367 0
M  V30 371 O 40.7387 0.0905647 -1.9549 0
M  V30 372 C 41.0377 -3.32421 -1.31268 0
M  V30 373 C 40.7037 -4.49344 -0.374223 0
M  V30 374 C 39.3657 -4.8106 -0.115911 0
M  V30 375 C 41.7177 -5.20498 0.270432 0
M  V30 376 C 39.0457 -5.8129 0.79493 0
M  V30 377 C 41.3977 -6.21699 1.1693 0
M  V30 378 C 40.0617 -6.51859 1.43655 0
M  V30 379 H 39.3317 -0.701236 -0.239478 0
M  V30 380 H 41.9787 -1.91307 0.0859734 0
M  V30 381 H 40.2837 -3.28989 -2.12775 0
M  V30 382 H 41.9807 -3.56038 -1.84494 0
M  V30 383 H 38.5707 -4.24579 -0.58573 0
M  V30 384 H 42.7547 -4.96229 0.0839194 0
M  V30 385 H 38.0107 -6.03005 1.00973 0
M  V30 386 H 42.1847 -6.75955 1.67504 0
M  V30 387 H 39.8117 -7.2934 2.144 0
M  V30 388 N 41.3868 0.248026 -1.55636 0
M  V30 389 C 42.7978 0.817177 -1.67866 0
M  V30 390 C 43.1488 1.86069 -0.622322 0
M  V30 391 O 42.2738 2.15157 0.231618 0
M  V30 392 C 42.8688 1.489 -3.04326 0
M  V30 393 C 41.4278 2.00587 -3.185 0
M  V30 394 C 40.5748 0.856573 -2.63739 0
M  V30 395 H 43.5258 0.0238579 -1.58682 0
M  V30 396 H 43.5468 2.35698 -2.98708 0
M  V30 397 H 43.0588 0.729279 -3.81186 0
M  V30 398 H 41.1598 2.79443 -2.4646 0
M  V30 399 H 41.2728 2.20402 -4.25393 0
M  V30 400 H 39.6368 1.25678 -2.21534 0
M  V30 401 H 40.4198 0.109953 -3.43124 0
M  V30 402 N 42.8649 1.48995 0.513639 0
M  V30 403 C 44.2759 1.5119 1.09537 0
M  V30 404 C 44.6269 0.290906 1.94031 0
M  V30 405 O 43.7519 -0.60049 2.07902 0
M  V30 406 C 44.3469 2.73964 1.99322 0
M  V30 407 C 42.9059 2.78978 2.52682 0
M  V30 408 C 42.0529 2.44934 1.30009 0
M  V30 409 H 45.0039 1.55875 0.298125 0
M  V30 410 H 45.0249 2.53409 2.83838 0
M  V30 411 H 44.5369 3.62813 1.37799 0
M  V30 412 H 42.6379 1.94378 3.1788 0
M  V30 413 H 42.7509 3.8083 2.90698 0
M  V30 414 H 41.1149 1.9644 1.62122 0
M  V30 415 H 41.8979 3.36043 0.702131 0
M  V30 416 N 44.343 -0.763751 1.37857 0
M  V30 417 C 45.276 -1.88486 1.28639 0
M  V30 418 C 46.254 -1.61757 0.165363 0
M  V30 419 O 47.438 -1.85391 0.340948 0
M  V30 420 C 44.565 -3.23884 0.990811 0
M  V30 421 C 43.611 -3.69514 2.12983 0
M  V30 422 S 44.444 -3.82244 3.75033 0
M  V30 423 C 45.6 -5.20477 3.47641 0
M  V30 424 H 45.833 -1.96017 2.23527 0
M  V30 425 H 43.366 -0.925684 1.23574 0
M  V30 426 H 45.324 -4.02081 0.827101 0
M  V30 427 H 43.985 -3.14044 0.0592832 0
M  V30 428 H 43.178 -4.67696 1.87821 0
M  V30 429 H 42.78 -2.98441 2.25408 0
M  V30 430 H 45.072 -6.05905 3.03125 0
M  V30 431 H 46.015 -5.50655 4.4518 0
M  V30 432 H 46.423 -4.88793 2.82385 0
M  V30 433 N 45.8211 -1.22559 -0.990812 0
M  V30 434 C 46.7511 -1.0218 -2.09956 0
M  V30 435 C 47.7321 0.0579394 -1.70001 0
M  V30 436 O 48.9171 -0.104684 -1.93918 0
M  V30 437 C 46.0471 -0.601023 -3.4206 0
M  V30 438 C 45.0011 -1.62694 -3.95872 0
M  V30 439 C 44.3271 -1.06193 -5.24049 0
M  V30 440 C 45.6271 -3.01743 -4.2632 0
M  V30 441 H 47.3211 -1.94916 -2.27262 0
M  V30 442 H 44.8671 -0.938566 -1.09211 0
M  V30 443 H 46.8201 -0.445561 -4.19038 0
M  V30 444 H 45.5441 0.362005 -3.24588 0
M  V30 445 H 44.2031 -1.77021 -3.21028 0
M  V30 446 H 43.8511 -0.0901903 -5.02919 0
M  V30 447 H 43.5511 -1.74732 -5.61019 0
M  V30 448 H 45.0751 -0.918092 -6.03658 0
M  V30 449 H 46.4891 -2.90777 -4.94087 0
M  V30 450 H 44.8861 -3.67425 -4.74467 0
M  V30 451 H 45.9561 -3.51518 -3.34011 0
M  V30 452 N 47.2992 1.18797 -1.03562 0
M  V30 453 C 48.5472 1.88278 -0.734569 0
M  V30 454 C 48.8682 1.8043 0.739586 0
M  V30 455 O 48.1382 1.21925 1.53333 0
M  V30 456 H 46.7182 0.696991 -0.268725 0
M  V30 457 H 49.3802 1.44192 -1.31129 0
M  V30 458 H 48.4762 2.94443 -1.03489 0
M  V30 459 N 48.7773 0.814389 1.34928 0
M  V30 460 C 50.0253 0.397636 1.9815 0
M  V30 461 C 50.3463 -1.04069 1.64908 0
M  V30 462 O 49.6163 -1.72121 0.93548 0
M  V30 463 H 48.1963 0.144043 0.732981 0
M  V30 464 H 50.8583 1.04195 1.6471 0
M  V30 465 H 49.9543 0.509688 3.0791 0
M  V30 466 N 50.2554 -1.46986 0.568584 0
M  V30 467 C 51.1854 -2.32946 -0.160753 0
M  V30 468 C 52.1664 -1.44487 -0.897631 0
M  V30 469 O 53.3514 -1.73327 -0.875867 0
M  V30 470 C 50.4814 -3.26494 -1.18403 0
M  V30 471 C 49.4354 -4.24282 -0.562895 0
M  V30 472 C 48.7614 -5.07236 -1.69163 0
M  V30 473 C 50.0614 -5.19989 0.490761 0
M  V30 474 H 51.7554 -2.94175 0.556916 0
M  V30 475 H 49.3014 -1.4146 0.26927 0
M  V30 476 H 51.2544 -3.85477 -1.70251 0
M  V30 477 H 49.9784 -2.63343 -1.93179 0
M  V30 478 H 48.6374 -3.66541 -0.0656164 0
M  V30 479 H 48.2854 -4.4048 -2.42871 0
M  V30 480 H 47.9854 -5.7345 -1.28174 0
M  V30 481 H 49.5094 -5.6908 -2.21314 0
M  V30 482 H 50.9234 -5.73271 0.0579047 0
M  V30 483 H 49.3204 -5.94469 0.820165 0
M  V30 484 H 50.3904 -4.64777 1.3824 0
M  V30 485 N 51.7335 -0.305618 -1.54608 0
M  V30 486 C 52.9585 0.307562 -2.05107 0
M  V30 487 C 53.3835 1.46385 -1.18123 0
M  V30 488 O 52.7415 1.8034 -0.186324 0
M  V30 489 C 52.7895 0.73704 -3.52987 0
M  V30 490 O 51.8935 1.84134 -3.6901 0
M  V30 491 H 51.2345 0.0589143 -0.661381 0
M  V30 492 H 53.7645 -0.448807 -1.99617 0
M  V30 493 H 53.7745 1.02459 -3.94925 0
M  V30 494 H 52.4495 -0.108773 -4.15758 0
M  V30 495 H 51.0265 1.55398 -3.38978 0
M  V30 496 N 53.2116 1.57565 -0.0334293 0
M  V30 497 C 54.6226 1.79746 0.504798 0
M  V30 498 C 54.9736 0.944091 1.71992 0
M  V30 499 O 54.0986 0.155694 2.15839 0
M  V30 500 C 54.6936 3.25997 0.922567 0
M  V30 501 C 53.2526 3.49159 1.40588 0
M  V30 502 C 52.3996 2.74785 0.372633 0
M  V30 503 H 55.3506 1.56565 -0.259436 0
M  V30 504 H 55.3716 3.35945 1.78666 0
M  V30 505 H 54.8836 3.88081 0.0379825 0
M  V30 506 H 52.9846 2.92332 2.31025 0
M  V30 507 H 53.0976 4.57873 1.41028 0
M  V30 508 H 51.4616 2.40391 0.841672 0
M  V30 509 H 52.2446 3.39587 -0.503559 0
M  V30 510 N 54.6897 -0.239769 1.55765 0
M  V30 511 C 56.1007 -0.808263 1.68297 0
M  V30 512 C 56.4517 -1.85736 0.632181 0
M  V30 513 O 55.5767 -2.15277 -0.220204 0
M  V30 514 C 56.1717 -1.47284 3.05111 0
M  V30 515 C 54.7307 -1.98895 3.19559 0
M  V30 516 C 53.8777 -0.842575 2.64189 0
M  V30 517 H 56.8287 -0.0154422 1.58692 0
M  V30 518 H 56.8497 -2.34111 2.99954 0
M  V30 519 H 56.3617 -0.709053 3.81568 0
M  V30 520 H 54.4627 -2.78132 2.47938 0
M  V30 521 H 54.5757 -2.18143 4.26556 0
M  V30 522 H 52.9397 -1.24501 2.22197 0
M  V30 523 H 53.7227 -0.0917552 3.43177 0
M  V30 524 N 56.1678 -1.49265 -0.50573 0
M  V30 525 C 57.4158 -1.582 -1.25766 0
M  V30 526 C 57.7368 -0.268482 -1.93143 0
M  V30 527 O 57.0068 0.711833 -1.8251 0
M  V30 528 H 55.5868 -0.582873 -0.467191 0
M  V30 529 H 58.2488 -1.85865 -0.586525 0
M  V30 530 H 57.3448 -2.37563 -2.02412 0
M  V30 531 N 57.6459 0.756429 -1.3826 0
M  V30 532 C 58.6089 1.85176 -1.35065 0
M  V30 533 C 59.6089 1.58818 -0.251703 0
M  V30 534 O 60.7989 1.66615 -0.508433 0
M  V30 535 C 57.9309 3.22596 -1.10201 0
M  V30 536 H 59.1239 1.89417 -2.3251 0
M  V30 537 H 56.6769 0.95783 -1.23512 0
M  V30 538 H 57.4119 3.24025 -0.133504 0
M  V30 539 H 57.1969 3.43122 -1.89762 0
M  V30 540 H 58.6869 4.02673 -1.10654 0
M  V30 541 N 59.124 1.23083 0.984299 0
M  V30 542 C 60.054 1.03292 2.09411 0
M  V30 543 C 61.035 -0.048923 1.7003 0
M  V30 544 O 62.22 0.114967 1.93859 0
M  V30 545 C 59.35 0.619155 3.41736 0
M  V30 546 C 58.304 1.64791 3.95004 0
M  V30 547 C 57.63 1.0897 5.23478 0
M  V30 548 C 58.93 3.03999 4.24714 0
M  V30 549 H 60.624 1.96119 2.26225 0
M  V30 550 H 58.17 0.944344 1.08711 0
M  V30 551 H 60.123 0.467777 4.18796 0
M  V30 552 H 58.847 -0.344786 3.24775 0
M  V30 553 H 57.506 1.78721 3.20085 0
M  V30 554 H 57.154 0.11686 5.02864 0
M  V30 555 H 56.854 1.77704 5.60085 0
M  V30 556 H 58.378 0.950093 6.03163 0
M  V30 557 H 59.792 2.93393 4.92538 0
M  V30 558 H 58.189 3.69936 4.72512 0
M  V30 559 H 59.259 3.53285 3.32142 0
M  V30 560 N 60.6021 -1.18246 1.0419 0
M  V30 561 C 61.8301 -1.92195 0.766072 0
M  V30 562 C 62.2451 -1.76247 -0.676933 0
M  V30 563 O 61.6021 -1.09293 -1.46155 0
M  V30 564 C 61.6531 -3.43568 1.12442 0
M  V30 565 O 61.3741 -3.59015 2.51078 0
M  V30 566 C 62.8751 -4.34613 0.873275 0
M  V30 567 H 60.0951 -0.610114 0.279288 0
M  V30 568 H 62.6391 -1.50007 1.38989 0
M  V30 569 H 60.7941 -3.8354 0.545542 0
M  V30 570 H 61.2081 -4.5273 2.64831 0
M  V30 571 H 62.6821 -5.39374 1.17385 0
M  V30 572 H 63.1591 -4.38781 -0.191909 0
M  V30 573 H 63.7651 -4.00341 1.43551 0
M  V30 574 N 62.0802 -0.821533 -1.34494 0
M  V30 575 C 63.3082 -0.421884 -2.02553 0
M  V30 576 C 63.7232 0.971745 -1.61872 0
M  V30 577 O 63.0802 1.62864 -0.823496 0
M  V30 578 C 63.1312 -0.51285 -3.57844 0
M  V30 579 O 62.8522 -1.85155 -3.97051 0
M  V30 580 C 64.3532 -0.107921 -4.43169 0
M  V30 581 H 61.5732 -0.169482 -0.649243 0
M  V30 582 H 64.1172 -1.1093 -1.71798 0
M  V30 583 H 62.2722 0.126474 -3.87193 0
M  V30 584 H 62.6862 -1.82482 -4.91732 0
M  V30 585 H 64.1602 -0.222657 -5.51551 0
M  V30 586 H 64.6372 0.948401 -4.28838 0
M  V30 587 H 65.2432 -0.720989 -4.19144 0
M  V30 588 N 63.5583 1.46682 -0.576371 0
M  V30 589 C 64.4883 2.33028 0.148397 0
M  V30 590 C 65.4693 1.44961 0.889956 0
M  V30 591 O 66.6543 1.73789 0.866662 0
M  V30 592 C 63.7843 3.27117 1.1667 0
M  V30 593 C 62.7383 4.24575 0.540386 0
M  V30 594 C 62.0643 5.08126 1.6647 0
M  V30 595 C 63.3643 5.19722 -0.518331 0
M  V30 596 H 65.0583 2.93875 -0.572509 0
M  V30 597 H 62.6043 1.41315 -0.276768 0
M  V30 598 H 64.5573 3.86374 1.68204 0
M  V30 599 H 63.2813 2.64364 1.9178 0
M  V30 600 H 61.9403 3.66571 0.0461769 0
M  V30 601 H 61.5883 4.41762 2.40531 0
M  V30 602 H 61.2883 5.74122 1.25131 0
M  V30 603 H 62.8123 5.70246 2.18293 0
M  V30 604 H 64.2263 5.73232 -0.0883058 0
M  V30 605 H 62.6233 5.94026 -0.851679 0
M  V30 606 H 63.6933 4.64037 -1.40703 0
M  V30 607 N 65.0364 0.313813 1.54444 0
M  V30 608 C 65.9684 -0.590425 2.21465 0
M  V30 609 C 66.9814 -1.08753 1.21147 0
M  V30 610 O 68.1704 -1.00278 1.4767 0
M  V30 611 C 65.2704 -1.82179 2.85769 0
M  V30 612 C 64.4434 -1.46502 4.12136 0
M  V30 613 C 63.5024 -2.55288 4.60124 0
M  V30 614 O 62.5284 -2.19842 5.25032 0
M  V30 615 N 63.7304 -3.86053 4.33525 0
M  V30 616 H 66.4954 -0.0166033 2.99695 0
M  V30 617 H 64.0564 0.136578 1.61323 0
M  V30 618 H 66.0484 -2.54328 3.14801 0
M  V30 619 H 64.6184 -2.30369 2.11303 0
M  V30 620 H 63.8384 -0.575595 3.89975 0
M  V30 621 H 65.1264 -1.20221 4.94393 0
M  V30 622 H 64.5244 -4.17654 3.81552 0
M  V30 623 H 63.0814 -4.54461 4.67235 0
M  V30 624 N 66.5145 -1.57545 0.0417849 0
M  V30 625 C 67.4645 -2.07483 -0.945247 0
M  V30 626 C 68.4485 -0.977983 -1.27767 0
M  V30 627 O 69.6405 -1.24142 -1.26166 0
M  V30 628 C 66.7695 -2.61576 -2.22335 0
M  V30 629 C 65.8555 -3.78213 -1.91874 0
M  V30 630 N 66.2465 -4.88344 -1.31733 0
M  V30 631 C 64.5445 -3.8694 -2.21796 0
M  V30 632 C 65.2455 -5.69462 -1.1869 0
M  V30 633 N 64.2215 -5.16771 -1.68666 0
M  V30 634 H 68.0235 -2.90029 -0.475441 0
M  V30 635 H 65.5375 -1.61581 -0.162911 0
M  V30 636 H 67.5345 -2.95651 -2.93932 0
M  V30 637 H 66.1945 -1.80465 -2.69931 0
M  V30 638 H 67.2055 -5.08335 -0.990729 0
M  V30 639 H 63.8825 -3.16757 -2.71977 0
M  V30 640 H 65.2725 -6.68023 -0.720793 0
M  V30 641 N 67.9926 0.231505 -1.5589 0
M  V30 642 C 68.9246 1.31006 -1.8807 0
M  V30 643 C 69.9376 1.43539 -0.768145 0
M  V30 644 O 71.1266 1.44614 -1.04638 0
M  V30 645 C 68.2266 2.68688 -2.06543 0
M  V30 646 C 67.3996 2.78228 -3.37502 0
M  V30 647 C 66.4586 3.96857 -3.4553 0
M  V30 648 O 65.4846 3.85662 -4.18633 0
M  V30 649 N 66.6866 5.1072 -2.75944 0
M  V30 650 H 69.4516 1.03731 -2.81176 0
M  V30 651 H 67.0126 0.421573 -1.56315 0
M  V30 652 H 69.0046 3.46412 -2.09239 0
M  V30 653 H 67.5746 2.88605 -1.20109 0
M  V30 654 H 66.7946 1.87059 -3.46991 0
M  V30 655 H 68.0826 2.81564 -4.23791 0
M  V30 656 H 67.4806 5.2271 -2.16311 0
M  V30 657 H 66.0376 5.86523 -2.84314 0
M  V30 658 N 69.4707 1.49531 0.497807 0
M  V30 659 C 70.4007 1.6935 1.60757 0
M  V30 660 C 71.3817 0.542218 1.61227 0
M  V30 661 O 72.5667 0.778417 1.77917 0
M  V30 662 C 69.6967 1.76298 2.99226 0
M  V30 663 C 68.6507 2.91248 3.13622 0
M  V30 664 C 67.9767 2.83312 4.53474 0
M  V30 665 C 69.2767 4.3214 2.93346 0
M  V30 666 H 70.9707 2.62263 1.44425 0
M  V30 667 H 68.5167 1.26208 0.693367 0
M  V30 668 H 70.4697 1.88749 3.76765 0
M  V30 669 H 69.1937 0.799871 3.16654 0
M  V30 670 H 67.8527 2.78404 2.38509 0
M  V30 671 H 67.5007 1.84902 4.67782 0
M  V30 672 H 67.2007 3.60465 4.64046 0
M  V30 673 H 68.7247 2.97775 5.33069 0
M  V30 674 H 70.1387 4.45649 3.60652 0
M  V30 675 H 68.5357 5.1054 3.15387 0
M  V30 676 H 69.6057 4.46363 1.89441 0
M  V30 677 N 70.9488 -0.749086 1.3866 0
M  V30 678 C 72.3598 -1.32664 1.31366 0
M  V30 679 C 72.7108 -1.96179 -0.028484 0
M  V30 680 O 71.8358 -1.9537 -0.93057 0
M  V30 681 C 72.4308 -2.41219 2.37905 0
M  V30 682 C 70.9898 -2.94684 2.34176 0
M  V30 683 C 70.1368 -1.68108 2.20533 0
M  V30 684 H 73.0878 -0.547628 1.48952 0
M  V30 685 H 73.1088 -3.21268 2.0388 0
M  V30 686 H 72.6208 -1.94962 3.35576 0
M  V30 687 H 70.7218 -3.45258 1.401 0
M  V30 688 H 70.8348 -3.48757 3.2849 0
M  V30 689 H 69.1988 -1.91907 1.67463 0
M  V30 690 H 69.9818 -1.23923 3.20153 0
M  V30 691 N 72.4269 -1.23603 -0.977757 0
M  V30 692 C 73.6729 -1.07129 -1.72195 0
M  V30 693 C 74.0059 0.390501 -1.90233 0
M  V30 694 O 73.2809 1.28902 -1.45653 0
M  V30 695 C 73.5639 -1.80031 -3.11867 0
M  V30 696 C 73.4169 -3.33899 -3.01383 0
M  V30 697 C 74.7359 -1.56492 -4.11337 0
M  V30 698 H 71.8549 -0.390571 -0.624999 0
M  V30 699 H 74.4969 -1.52142 -1.13811 0
M  V30 700 H 72.6469 -1.41768 -3.6171 0
M  V30 701 H 74.3189 -3.81699 -2.59043 0
M  V30 702 H 72.5619 -3.62796 -2.37827 0
M  V30 703 H 73.2329 -3.801 -4.00285 0
M  V30 704 H 75.7089 -1.89757 -3.70313 0
M  V30 705 H 74.5849 -2.09973 -5.07151 0
M  V30 706 H 74.8459 -0.500874 -4.39254 0
M  V30 707 N 73.905 1.17692 -1.04816 0
M  V30 708 C 75.13 1.92327 -0.776207 0
M  V30 709 C 75.555 1.76082 0.661581 0
M  V30 710 O 74.913 1.076 1.45917 0
M  V30 711 C 74.961 3.41539 -1.15687 0
M  V30 712 O 74.065 4.11402 -0.286775 0
M  V30 713 H 73.406 0.599735 -0.284981 0
M  V30 714 H 75.936 1.49201 -1.4 0
M  V30 715 H 75.946 3.92269 -1.12202 0
M  V30 716 H 74.621 3.52684 -2.20425 0
M  V30 717 H 73.198 3.70939 -0.381903 0
M  V30 718 N 75.3831 0.828654 1.34056 0
M  V30 719 C 76.6311 0.41863 1.97717 0
M  V30 720 C 76.9521 -1.02314 1.66002 0
M  V30 721 O 76.2221 -1.71119 0.953683 0
M  V30 722 H 74.8021 0.151809 0.731412 0
M  V30 723 H 77.4641 1.05936 1.63596 0
M  V30 724 H 76.5601 0.542318 3.07352 0
M  V30 725 N 76.8612 -1.46375 0.584142 0
M  V30 726 C 78.0912 -2.06461 0.0758195 0
M  V30 727 C 78.4992 -1.43322 -1.23512 0
M  V30 728 O 77.8422 -0.533216 -1.75791 0
M  V30 729 C 77.9042 -3.59131 -0.162773 0
M  V30 730 C 77.5682 -4.4447 1.06279 0
M  V30 731 C 78.5652 -4.80918 1.97519 0
M  V30 732 C 76.2502 -4.85584 1.28504 0
M  V30 733 C 78.2442 -5.57309 3.09331 0
M  V30 734 C 75.9312 -5.61734 2.4062 0
M  V30 735 C 76.9292 -5.9751 3.30863 0
M  V30 736 O 76.6172 -6.72121 4.41032 0
M  V30 737 H 76.3492 -0.673745 0.0551725 0
M  V30 738 H 78.9032 -1.88969 0.804984 0
M  V30 739 H 77.1332 -3.74936 -0.946565 0
M  V30 740 H 78.8222 -4.0114 -0.619782 0
M  V30 741 H 79.5882 -4.49732 1.81565 0
M  V30 742 H 75.4672 -4.57187 0.591702 0
M  V30 743 H 79.0112 -5.85152 3.79793 0
M  V30 744 H 74.9082 -5.92334 2.56537 0
M  V30 745 H 75.6762 -6.90547 4.39417 0
M  V30 746 N 78.3393 -0.321999 -1.54275 0
M  V30 747 C 79.5643 0.285791 -2.05422 0
M  V30 748 C 79.9893 1.45124 -1.19669 0
M  V30 749 O 79.3473 1.80132 -0.205441 0
M  V30 750 C 79.3953 0.69956 -3.53749 0
M  V30 751 O 78.4993 1.8021 -3.70942 0
M  V30 752 H 77.8403 0.0518962 -0.661969 0
M  V30 753 H 80.3703 -0.469954 -1.9913 0
M  V30 754 H 80.3803 0.982649 -3.9599 0
M  V30 755 H 79.0553 -0.152864 -4.15619 0
M  V30 756 H 77.6323 1.51794 -3.40607 0
M  V30 757 N 79.8174 1.5752 -0.0501392 0
M  V30 758 C 81.0454 1.96963 0.633492 0
M  V30 759 C 81.4604 0.927631 1.6444 0
M  V30 760 O 80.8174 -0.0882665 1.82286 0
M  V30 761 C 80.8684 3.36487 1.32132 0
M  V30 762 O 80.5894 4.36693 0.350894 0
M  V30 763 C 82.0904 3.90682 2.09481 0
M  V30 764 H 79.3104 0.648244 0.173266 0
M  V30 765 H 81.8544 2.0417 -0.116134 0
M  V30 766 H 80.0094 3.30434 2.02218 0
M  V30 767 H 80.4234 5.17702 0.841735 0
M  V30 768 H 81.8974 4.90591 2.5303 0
M  V30 769 H 82.3744 3.26053 2.94255 0
M  V30 770 H 82.9804 4.00069 1.44307 0
M  V30 771 N 81.2955 -0.223234 1.56011 0
M  V30 772 C 82.7065 -0.790368 1.69145 0
M  V30 773 C 83.0575 -1.85055 0.651845 0
M  V30 774 O 82.1825 -2.15498 -0.197359 0
M  V30 775 C 82.7775 -1.4404 3.06656 0
M  V30 776 C 81.3365 -1.95494 3.2165 0
M  V30 777 C 80.4835 -0.814506 2.65068 0
M  V30 778 H 83.4345 0.00139011 1.587 0
M  V30 779 H 83.4555 -2.30916 3.0242 0
M  V30 780 H 82.9675 -0.668543 3.82298 0
M  V30 781 H 81.0685 -2.75487 2.50874 0
M  V30 782 H 81.1815 -2.13607 4.28846 0
M  V30 783 H 79.5455 -1.22137 2.23505 0
M  V30 784 H 80.3285 -0.0553515 3.43255 0
M  V30 785 N 82.7736 -1.49793 -0.48987 0
M  V30 786 C 83.9986 -1.63836 -1.27172 0
M  V30 787 C 84.4236 -0.31402 -1.8546 0
M  V30 788 O 83.7816 0.719803 -1.66399 0
M  V30 789 C 83.8296 -2.71797 -2.36978 0
M  V30 790 O 82.9336 -2.31744 -3.41128 0
M  V30 791 H 82.2746 -0.547997 -0.37496 0
M  V30 792 H 84.8046 -1.96053 -0.585191 0
M  V30 793 H 84.8146 -2.94305 -2.82575 0
M  V30 794 H 83.4896 -3.67923 -1.93921 0
M  V30 795 H 82.0666 -2.1961 -3.01373 0
M  V30 796 N 84.2517 0.741722 -1.39055 0
M  V30 797 C 85.6627 1.31966 -1.32068 0
M  V30 798 C 86.0137 1.96192 0.0180797 0
M  V30 799 O 85.1387 1.95861 0.920196 0
M  V30 800 C 85.7337 2.39954 -2.39181 0
M  V30 801 C 84.2927 2.93438 -2.35735 0
M  V30 802 C 83.4397 1.66936 -2.21422 0
M  V30 803 H 86.3907 0.539721 -1.4924 0
M  V30 804 H 86.4117 3.20182 -2.05581 0
M  V30 805 H 85.9237 1.9318 -3.36605 0
M  V30 806 H 84.0247 3.4451 -1.41929 0
M  V30 807 H 84.1377 3.4701 -3.30335 0
M  V30 808 H 82.5017 1.91016 -1.68478 0
M  V30 809 H 83.2847 1.22224 -3.20806 0
M  V30 810 N 85.7298 1.2412 0.971189 0
M  V30 811 C 86.6928 1.03156 2.04674 0
M  V30 812 C 87.6928 -0.00990322 1.60797 0
M  V30 813 O 88.8828 0.230729 1.72665 0
M  V30 814 C 86.0148 0.562765 3.36223 0
M  V30 815 H 87.2078 1.98614 2.24705 0
M  V30 816 H 84.7608 1.06293 1.14593 0
M  V30 817 H 85.4958 -0.395176 3.21883 0
M  V30 818 H 85.2808 1.31441 3.69413 0
M  V30 819 H 86.7708 0.437015 4.15307 0
M  V30 820 N 87.2079 -1.17134 1.05439 0
M  V30 821 C 88.4359 -1.91372 0.786414 0
M  V30 822 C 88.8509 -1.76955 -0.658202 0
M  V30 823 O 88.2079 -1.10838 -1.44987 0
M  V30 824 C 88.2589 -3.42356 1.1608 0
M  V30 825 O 87.9799 -3.56332 2.54871 0
M  V30 826 C 89.4809 -4.33663 0.919322 0
M  V30 827 H 86.7009 -0.607118 0.285743 0
M  V30 828 H 89.2449 -1.48525 1.40572 0
M  V30 829 H 87.3999 -3.82939 0.586191 0
M  V30 830 H 87.8139 -4.49896 2.69618 0
M  V30 831 H 89.2879 -5.38099 1.231 0
M  V30 832 H 89.7649 -4.38959 -0.145359 0
M  V30 833 H 90.3709 -3.98796 1.47789 0
M  V30 834 N 88.686 -0.835752 -1.33615 0
M  V30 835 C 89.935 -0.426289 -1.97144 0
M  V30 836 C 90.248 1.01912 -1.66953 0
M  V30 837 O 91.454 1.53311 -2.24072 0
M  V30 838 C 89.91 -0.711321 -3.52801 0
M  V30 839 C 89.518 -2.1712 -3.91871 0
M  V30 840 C 91.262 -0.368654 -4.22896 0
M  V30 841 C 89.169 -2.40044 -5.40493 0
M  V30 842 H 88.099 -0.15567 -0.737755 0
M  V30 843 H 90.75 -1.0239 -1.52278 0
M  V30 844 H 89.132 -0.0433766 -3.95976 0
M  V30 845 H 90.306 -2.87936 -3.59763 0
M  V30 846 H 88.621 -2.47654 -3.34749 0
M  V30 847 H 91.218 -0.517601 -5.32189 0
M  V30 848 H 91.561 0.688078 -4.10574 0
M  V30 849 H 92.094 -0.991702 -3.8524 0
M  V30 850 H 88.833 -3.44271 -5.57815 0
M  V30 851 H 88.353 -1.73785 -5.74072 0
M  V30 852 H 90.032 -2.23042 -6.0734 0
M  V30 853 N 90.1641 1.46063 -0.591896 0
M  V30 854 C 91.0741 2.34192 0.13831 0
M  V30 855 C 92.0901 1.50305 0.876608 0
M  V30 856 O 93.2661 1.8315 0.837728 0
M  V30 857 C 90.3311 3.27656 1.13326 0
M  V30 858 C 89.3921 4.27445 0.39863 0
M  V30 859 C 88.6251 5.16443 1.34618 0
M  V30 860 O 88.8481 5.08553 2.58321 0
M  V30 861 O 87.7821 5.95843 0.851768 0
M  V30 862 H 91.6081 2.98002 -0.58552 0
M  V30 863 H 89.1931 1.45188 -0.352239 0
M  V30 864 H 91.0751 3.85291 1.70671 0
M  V30 865 H 89.7501 2.6643 1.83839 0
M  V30 866 H 88.6571 3.73471 -0.216895 0
M  V30 867 H 89.9901 4.91482 -0.265709 0
M  V30 868 N 91.6422 0.330177 1.54103 0
M  V30 869 C 92.8702 -0.272179 2.05102 0
M  V30 870 C 93.2852 -1.45267 1.20595 0
M  V30 871 O 92.6422 -1.8094 0.238144 0
M  V30 872 C 92.6932 -0.70023 3.54653 0
M  V30 873 O 92.4142 0.433301 4.35952 0
M  V30 874 C 93.9152 -1.3647 4.21771 0
M  V30 875 H 91.1352 -0.0549159 0.668749 0
M  V30 876 H 93.6792 0.478285 1.98828 0
M  V30 877 H 91.8342 -1.40066 3.61193 0
M  V30 878 H 92.2482 0.0947539 5.24414 0
M  V30 879 H 93.7222 -1.61509 5.27843 0
M  V30 880 H 94.1992 -2.31409 3.73292 0
M  V30 881 H 94.8052 -0.706675 4.19388 0
M  V30 882 N 93.1203 -1.57491 0.0584922 0
M  V30 883 C 94.0523 -2.08916 -0.942694 0
M  V30 884 C 95.0653 -1.0185 -1.27006 0
M  V30 885 O 96.2543 -1.29398 -1.22957 0
M  V30 886 C 93.3543 -2.52341 -2.26224 0
M  V30 887 C 92.5273 -3.82827 -2.1157 0
M  V30 888 C 91.5863 -4.12487 -3.26712 0
M  V30 889 O 90.6123 -4.82295 -3.02292 0
M  V30 890 N 91.8143 -3.64978 -4.5141 0
M  V30 891 H 94.5793 -2.95437 -0.503722 0
M  V30 892 H 92.1403 -1.61397 -0.12757 0
M  V30 893 H 94.1323 -2.69254 -3.02133 0
M  V30 894 H 92.7023 -1.7103 -2.61663 0
M  V30 895 H 91.9223 -3.75425 -1.20208 0
M  V30 896 H 93.2103 -4.68263 -1.99015 0
M  V30 897 H 92.6083 -3.08558 -4.7414 0
M  V30 898 H 91.1653 -3.87115 -5.2439 0
M  V30 899 N 94.5984 0.214957 -1.56127 0
M  V30 900 C 95.8234 0.95924 -1.83884 0
M  V30 901 C 96.2484 1.7689 -0.639644 0
M  V30 902 O 95.6064 1.76566 0.411601 0
M  V30 903 C 95.6544 1.84723 -3.09693 0
M  V30 904 O 94.7584 2.94346 -2.8885 0
M  V30 905 H 94.0994 0.27125 -0.606069 0
M  V30 906 H 96.6294 0.226276 -2.03345 0
M  V30 907 H 96.6394 2.25576 -3.39969 0
M  V30 908 H 95.3144 1.25218 -3.96602 0
M  V30 909 H 93.8914 2.57391 -2.69823 0
M  V30 910 N 96.0765 1.50051 0.48192 0
M  V30 911 C 97.3015 1.64508 1.26301 0
M  V30 912 C 97.7265 0.323851 1.85291 0
M  V30 913 O 97.0845 -0.710969 1.66778 0
M  V30 914 C 97.1325 2.7305 2.35533 0
M  V30 915 O 96.2365 2.3355 3.39895 0
M  V30 916 H 95.5775 0.549978 0.372048 0
M  V30 917 H 98.1075 1.9636 0.574786 0
M  V30 918 H 98.1175 2.95799 2.8101 0
M  V30 919 H 96.7925 3.68946 1.91967 0
M  V30 920 H 95.3695 2.21205 3.00204 0
M  V30 921 N 97.5546 -0.734337 1.39446 0
M  V30 922 C 98.7796 -1.52866 1.40167 0
M  V30 923 C 99.2046 -1.881 -0.00171513 0
M  V30 924 O 98.5626 -1.51957 -0.988879 0
M  V30 925 C 98.6106 -2.79235 2.28167 0
M  V30 926 O 97.7146 -3.75185 1.71201 0
M  V30 927 H 97.0556 -0.461618 0.477289 0
M  V30 928 H 99.5856 -0.905949 1.8345 0
M  V30 929 H 99.5956 -3.27963 2.42702 0
M  V30 930 H 98.2706 -2.52923 3.30156 0
M  V30 931 H 96.8476 -3.33958 1.65912 0
M  V30 932 N 99.0327 -1.24633 -0.964593 0
M  V30 933 C 100.258 -1.11596 -1.74818 0
M  V30 934 C 100.683 0.32723 -1.85232 0
M  V30 935 O 100.041 1.23695 -1.32549 0
M  V30 936 C 100.089 -1.76397 -3.1451 0
M  V30 937 O 99.1927 -1.03685 -3.99153 0
M  V30 938 H 98.5337 -0.390196 -0.537255 0
M  V30 939 H 101.064 -1.65002 -1.20977 0
M  V30 940 H 101.074 -1.8228 -3.65018 0
M  V30 941 H 99.7487 -2.81401 -3.06246 0
M  V30 942 H 98.3257 -1.05611 -3.57632 0
M  V30 943 N 100.511 1.16574 -1.06058 0
M  V30 944 C 101.421 2.2452 -0.680282 0
M  V30 945 C 102.437 1.71348 0.302604 0
M  V30 946 O 103.613 2.00822 0.152513 0
M  V30 947 C 100.678 3.46629 -0.0700315 0
M  V30 948 C 99.7388 4.14849 -1.10448 0
M  V30 949 C 98.9718 5.31129 -0.523256 0
M  V30 950 O 99.1948 5.66514 0.664709 0
M  V30 951 O 98.1288 5.88526 -1.26179 0
M  V30 952 H 101.955 2.59355 -1.58015 0
M  V30 953 H 99.5398 1.24043 -0.832694 0
M  V30 954 H 101.422 4.20543 0.268667 0
M  V30 955 H 100.097 3.13573 0.803353 0
M  V30 956 H 99.0038 3.42916 -1.49532 0
M  V30 957 H 100.337 4.51954 -1.94931 0
M  V30 958 N 101.989 0.842826 1.3317 0
M  V30 959 C 102.899 0.281444 2.32906 0
M  V30 960 C 103.915 -0.594587 1.63526 0
M  V30 961 O 105.091 -0.49777 1.95152 0
M  V30 962 C 102.156 -0.530929 3.42611 0
M  V30 963 C 101.217 0.369843 4.27704 0
M  V30 964 C 100.45 -0.403853 5.3217 0
M  V30 965 O 100.673 -1.63513 5.46461 0
M  V30 966 O 99.6069 0.224199 6.01482 0
M  V30 967 H 103.433 1.10744 2.82789 0
M  V30 968 H 101.018 0.60545 1.36582 0
M  V30 969 H 102.9 -0.992437 4.09547 0
M  V30 970 H 101.575 -1.33392 2.94938 0
M  V30 971 H 100.482 0.879275 3.6362 0
M  V30 972 H 101.815 1.13771 4.78871 0
M  V30 973 N 103.467 -1.45747 0.599634 0
M  V30 974 C 104.716 -2.01502 0.0893511 0
M  V30 975 C 105.029 -1.4748 -1.28488 0
M  V30 976 O 106.235 -1.95161 -1.88745 0
M  V30 977 C 104.691 -3.59735 0.109082 0
M  V30 978 C 104.299 -4.22754 1.48267 0
M  V30 979 C 106.043 -4.23085 -0.346374 0
M  V30 980 C 103.95 -5.73115 1.45921 0
M  V30 981 H 102.88 -0.753417 0.0296347 0
M  V30 982 H 105.531 -1.67303 0.753788 0
M  V30 983 H 103.913 -3.91087 -0.621854 0
M  V30 984 H 105.087 -4.02987 2.23468 0
M  V30 985 H 103.402 -3.71567 1.87955 0
M  V30 986 H 105.999 -5.33327 -0.38298 0
M  V30 987 H 106.342 -3.93201 -1.36743 0
M  V30 988 H 106.875 -3.9642 0.331038 0
M  V30 989 H 103.614 -6.07685 2.45762 0
M  V30 990 H 103.134 -5.95097 0.749665 0
M  V30 991 H 104.813 -6.3616 1.17941 0
M  V30 992 N 104.945 -0.338344 -1.53925 0
M  V30 993 C 106.191 0.260143 -2.01125 0
M  V30 994 C 106.524 1.50617 -1.22589 0
M  V30 995 O 105.799 1.91979 -0.312113 0
M  V30 996 C 106.082 0.579499 -3.55407 0
M  V30 997 C 105.935 -0.678264 -4.44657 0
M  V30 998 C 107.254 1.39122 -4.17532 0
M  V30 999 H 104.373 0.0930772 -0.731099 0
M  V30 1000 H 107.015 -0.457852 -1.84401 0
M  V30 1001 H 105.165 1.19118 -3.69788 0
M  V30 1002 H 106.837 -1.31631 -4.42121 0
M  V30 1003 H 105.08 -1.3042 -4.13731 0
M  V30 1004 H 105.751 -0.410143 -5.50474 0
M  V30 1005 H 108.227 0.874035 -4.06817 0
M  V30 1006 H 107.103 1.58342 -5.25565 0
M  V30 1007 H 107.364 2.39178 -3.71815 0
M  V30 1008 N 106.423 1.57458 -0.0668435 0
M  V30 1009 C 107.834 1.80776 0.466558 0
M  V30 1010 C 108.185 0.980361 1.69951 0
M  V30 1011 O 107.31 0.201441 2.1546 0
M  V30 1012 C 107.905 3.27881 0.85321 0
M  V30 1013 C 106.464 3.52062 1.3315 0
M  V30 1014 C 105.611 2.75513 0.314264 0
M  V30 1015 H 108.562 1.5598 -0.292588 0
M  V30 1016 H 108.583 3.39659 1.715 0
M  V30 1017 H 108.095 3.88075 -0.0443439 0
M  V30 1018 H 106.196 2.97167 2.24772 0
M  V30 1019 H 106.309 4.60762 1.31285 0
M  V30 1020 H 104.673 2.42123 0.790492 0
M  V30 1021 H 105.456 3.38442 -0.575477 0
M  V30 1022 N 107.901 -0.206675 1.56239 0
M  V30 1023 C 109.126 -0.949474 1.8439 0
M  V30 1024 C 109.551 -1.76549 0.649016 0
M  V30 1025 O 108.909 -1.76782 -0.402231 0
M  V30 1026 C 108.957 -1.83078 3.10668 0
M  V30 1027 O 108.061 -2.9281 2.90407 0
M  V30 1028 H 107.402 -0.268033 0.607499 0
M  V30 1029 H 109.932 -0.215488 2.03462 0
M  V30 1030 H 109.942 -2.2377 3.41161 0
M  V30 1031 H 108.617 -1.23112 3.97261 0
M  V30 1032 H 107.194 -2.55956 2.71184 0
M  V30 1033 N 109.379 -1.50304 -0.473955 0
M  V30 1034 C 110.79 -1.54042 -1.0549 0
M  V30 1035 C 111.141 -0.342248 -1.93192 0
M  V30 1036 O 110.266 0.545157 -2.09421 0
M  V30 1037 C 110.861 -2.79152 -1.91989 0
M  V30 1038 C 109.42 -2.8558 -2.45196 0
M  V30 1039 C 108.567 -2.48295 -1.2347 0
M  V30 1040 H 111.518 -1.5661 -0.256693 0
M  V30 1041 H 111.539 -2.60845 -2.7702 0
M  V30 1042 H 111.051 -3.66339 -1.28131 0
M  V30 1043 H 109.152 -2.02738 -3.12615 0
M  V30 1044 H 109.265 -3.88403 -2.80499 0
M  V30 1045 H 107.629 -2.00669 -1.56856 0
M  V30 1046 H 108.412 -3.37787 -0.612789 0
M  V30 1047 N 110.857 0.726932 -1.39834 0
M  V30 1048 C 112.268 1.30558 -1.3346 0
M  V30 1049 C 112.619 1.962 -0.00273003 0
M  V30 1050 O 111.744 1.96826 0.899371 0
M  V30 1051 C 112.339 2.37404 -2.41713 0
M  V30 1052 C 110.898 2.90921 -2.38835 0
M  V30 1053 C 110.045 1.64578 -2.2318 0
M  V30 1054 H 112.996 0.523862 -1.49804 0
M  V30 1055 H 113.017 3.17984 -2.08966 0
M  V30 1056 H 112.529 1.89599 -3.38635 0
M  V30 1057 H 110.63 3.42985 -1.45575 0
M  V30 1058 H 110.743 3.43487 -3.33997 0
M  V30 1059 H 109.107 1.89219 -1.70494 0
M  V30 1060 H 109.89 1.18814 -3.22084 0
M  V30 1061 N 112.336 1.25143 0.95797 0
M  V30 1062 C 113.561 1.12521 1.74223 0
M  V30 1063 C 113.986 -0.317402 1.85403 0
M  V30 1064 O 113.344 -1.2299 1.33204 0
M  V30 1065 C 113.392 1.78062 3.1357 0
M  V30 1066 O 112.496 1.058 3.98598 0
M  V30 1067 H 111.837 0.39304 0.535178 0
M  V30 1068 H 114.367 1.65641 1.201 0
M  V30 1069 H 114.377 1.84213 3.64046 0
M  V30 1070 H 113.052 2.83021 3.04749 0
M  V30 1071 H 111.629 1.07506 3.57067 0
M  V30 1072 N 113.814 -1.1601 1.06675 0
M  V30 1073 C 115.225 -1.68235 0.809565 0
M  V30 1074 C 115.576 -1.8454 -0.666303 0
M  V30 1075 O 114.701 -1.54374 -1.5165 0
M  V30 1076 C 115.296 -3.05585 1.46299 0
M  V30 1077 C 113.855 -3.54915 1.25349 0
M  V30 1078 C 113.002 -2.30804 1.53703 0
M  V30 1079 H 115.953 -1.00318 1.22971 0
M  V30 1080 H 115.974 -3.70174 0.880431 0
M  V30 1081 H 115.486 -2.93686 2.53713 0
M  V30 1082 H 113.587 -3.72067 0.199261 0
M  V30 1083 H 113.7 -4.36774 1.9689 0
M  V30 1084 H 112.064 -2.36007 0.957739 0
M  V30 1085 H 112.847 -2.21499 2.62284 0
M  V30 1086 N 115.292 -0.849877 -1.32721 0
M  V30 1087 C 116.703 -0.506188 -1.79707 0
M  V30 1088 C 117.054 0.975627 -1.70223 0
M  V30 1089 O 116.179 1.76078 -1.25799 0
M  V30 1090 C 116.774 -0.912044 -3.26293 0
M  V30 1091 C 115.333 -0.620326 -3.71253 0
M  V30 1092 C 114.48 -1.11439 -2.53922 0
M  V30 1093 H 117.431 -1.03754 -1.20087 0
M  V30 1094 H 117.452 -0.226493 -3.79825 0
M  V30 1095 H 116.964 -1.99057 -3.33164 0
M  V30 1096 H 115.065 0.447674 -3.69901 0
M  V30 1097 H 115.178 -1.18327 -4.64258 0
M  V30 1098 H 113.542 -0.534834 -2.49021 0
M  V30 1099 H 114.325 -2.19992 -2.6355 0
M  V30 1100 N 116.77 1.45427 -0.607355 0
M  V30 1101 C 118.181 1.85756 -0.187535 0
M  V30 1102 C 118.532 1.5077 1.25551 0
M  V30 1103 O 117.657 0.93427 1.95193 0
M  V30 1104 C 118.252 3.37154 -0.333572 0
M  V30 1105 C 116.811 3.76387 0.0315542 0
M  V30 1106 C 115.958 2.69377 -0.658117 0
M  V30 1107 H 118.909 1.36231 -0.81405 0
M  V30 1108 H 118.93 3.78014 0.43428 0
M  V30 1109 H 118.442 3.62586 -1.38393 0
M  V30 1110 H 116.543 3.56571 1.0811 0
M  V30 1111 H 116.656 4.77731 -0.361935 0
M  V30 1112 H 115.02 2.5452 -0.0957873 0
M  V30 1113 H 115.803 2.97646 -1.7106 0
M  V30 1114 N 118.248 0.346503 1.53744 0
M  V30 1115 C 119.178 -0.501193 2.28058 0
M  V30 1116 C 120.159 -1.10014 1.29734 0
M  V30 1117 O 121.344 -1.12097 1.58581 0
M  V30 1118 C 118.474 -1.65078 3.05559 0
M  V30 1119 C 117.428 -1.18003 4.11411 0
M  V30 1120 C 116.754 -2.41837 4.76884 0
M  V30 1121 C 118.054 -0.278394 5.21558 0
M  V30 1122 H 119.748 0.11875 2.99164 0
M  V30 1123 H 117.294 0.0585531 1.43881 0
M  V30 1124 H 119.247 -2.25028 3.56287 0
M  V30 1125 H 117.971 -2.29767 2.32109 0
M  V30 1126 H 116.63 -0.603331 3.61601 0
M  V30 1127 H 116.278 -3.0494 4.00026 0
M  V30 1128 H 115.978 -2.1102 5.48402 0
M  V30 1129 H 117.502 -3.02508 5.30397 0
M  V30 1130 H 118.916 -0.784823 5.67903 0
M  V30 1131 H 117.313 -0.0619707 6.00068 0
M  V30 1132 H 118.383 0.684677 4.80042 0
M  V30 1133 N 119.726 -1.57421 0.075193 0
M  V30 1134 C 121.137 -1.81021 -0.456964 0
M  V30 1135 C 121.488 -0.98936 -1.69429 0
M  V30 1136 O 120.613 -0.212865 -2.15351 0
M  V30 1137 C 121.208 -3.28329 -0.83581 0
M  V30 1138 C 119.767 -3.52764 -1.31281 0
M  V30 1139 C 118.914 -2.75676 -0.299648 0
M  V30 1140 H 121.865 -1.55822 0.300856 0
M  V30 1141 H 121.886 -3.40564 -1.69696 0
M  V30 1142 H 121.398 -3.88046 0.0649238 0
M  V30 1143 H 119.499 -2.98355 -2.23193 0
M  V30 1144 H 119.612 -4.61451 -1.28839 0
M  V30 1145 H 117.976 -2.42538 -0.777641 0
M  V30 1146 H 118.759 -3.38132 0.593417 0
M  V30 1147 N 121.204 0.198386 -1.56346 0
M  V30 1148 C 122.62 0.549085 -1.49857 0
M  V30 1149 C 122.82 1.86016 -0.774611 0
M  V30 1150 O 121.876 2.50416 -0.323776 0
M  V30 1151 C 123.189 0.606868 -2.94512 0
M  V30 1152 C 124.737 0.695925 -3.05165 0
M  V30 1153 C 125.212 0.784848 -4.51225 0
M  V30 1154 N 126.703 0.848463 -4.55363 0
M  V30 1155 C 127.438 0.937378 -5.65686 0
M  V30 1156 N 126.934 0.9888 -6.85707 0
M  V30 1157 N 128.727 0.974312 -5.53592 0
M  V30 1158 H 120.878 -0.661655 -2.01831 0
M  V30 1159 H 123.141 -0.235261 -0.918344 0
M  V30 1160 H 122.847 -0.28732 -3.50524 0
M  V30 1161 H 122.721 1.46268 -3.47686 0
M  V30 1162 H 125.108 1.58055 -2.49204 0
M  V30 1163 H 125.189 -0.186022 -2.55123 0
M  V30 1164 H 124.833 -0.0954072 -5.0781 0
M  V30 1165 H 124.763 1.68255 -4.98997 0
M  V30 1166 H 127.254 0.818103 -3.68938 0
M  V30 1167 H 127.567 1.05707 -7.65536 0
M  V30 1168 H 125.912 0.957534 -6.88372 0
M  V30 1169 H 129.103 0.930954 -4.58749 0
M  V30 1170 H 129.276 1.04015 -6.39597 0
M  V30 1171 N 122.682 1.50554 0.465978 0
M  V30 1172 C 123.931 1.61038 1.21448 0
M  V30 1173 C 124.244 0.31865 1.92987 0
M  V30 1174 O 125.45 0.302469 2.6981 0
M  V30 1175 C 123.906 2.84283 2.20706 0
M  V30 1176 C 123.514 4.20352 1.54946 0
M  V30 1177 C 125.258 3.04115 2.96166 0
M  V30 1178 C 123.165 5.34778 2.5252 0
M  V30 1179 H 122.095 0.599718 0.457005 0
M  V30 1180 H 124.746 1.7699 0.484424 0
M  V30 1181 H 123.128 2.61901 2.97025 0
M  V30 1182 H 124.302 4.53008 0.843811 0
M  V30 1183 H 122.617 4.06167 0.917475 0
M  V30 1184 H 125.214 3.86774 3.69202 0
M  V30 1185 H 125.557 2.16045 3.55852 0
M  V30 1186 H 126.09 3.26702 2.26959 0
M  V30 1187 H 122.829 6.25018 1.97566 0
M  V30 1188 H 122.349 5.06534 3.21222 0
M  V30 1189 H 124.028 5.65561 3.14245 0
M  V30 1190 N 124.16 -0.719506 1.40217 0
M  V30 1191 C 125.39 -1.50646 1.41384 0
M  V30 1192 C 125.798 -1.89197 0.0107743 0
M  V30 1193 O 125.141 -1.55709 -0.974708 0
M  V30 1194 C 125.203 -2.81405 2.23722 0
M  V30 1195 C 124.867 -2.65199 3.72181 0
M  V30 1196 C 125.864 -2.32717 4.64907 0
M  V30 1197 C 123.549 -2.81586 4.1595 0
M  V30 1198 C 125.543 -2.16827 5.99387 0
M  V30 1199 C 123.23 -2.65313 5.50502 0
M  V30 1200 C 124.228 -2.32981 6.42035 0
M  V30 1201 O 123.916 -2.16827 7.74107 0
M  V30 1202 H 123.648 -0.471606 0.484318 0
M  V30 1203 H 126.202 -0.895456 1.84853 0
M  V30 1204 H 124.432 -3.44823 1.75026 0
M  V30 1205 H 126.121 -3.43102 2.16878 0
M  V30 1206 H 126.887 -2.19694 4.32388 0
M  V30 1207 H 122.766 -3.0574 3.45027 0
M  V30 1208 H 126.31 -1.91513 6.70797 0
M  V30 1209 H 122.207 -2.7792 5.82607 0
M  V30 1210 H 122.975 -2.31778 7.84998 0
M  V30 1211 N 125.638 -1.25649 -0.95132 0
M  V30 1212 C 126.585 -1.06323 -2.04851 0
M  V30 1213 C 127.555 0.0286491 -1.66075 0
M  V30 1214 O 128.74 -0.12917 -1.90362 0
M  V30 1215 C 125.88 -0.691529 -3.381 0
M  V30 1216 C 124.993 -1.85861 -3.89974 0
M  V30 1217 C 124.128 -1.43096 -5.11563 0
M  V30 1218 C 123.167 -2.56696 -5.55674 0
M  V30 1219 N 122.304 -2.14684 -6.68472 0
M  V30 1220 H 127.144 -2.00222 -2.20715 0
M  V30 1221 H 124.681 -0.997027 -1.08156 0
M  V30 1222 H 126.639 -0.456963 -4.1469 0
M  V30 1223 H 125.269 0.210474 -3.22113 0
M  V30 1224 H 124.321 -2.20639 -3.09875 0
M  V30 1225 H 125.633 -2.71161 -4.18657 0
M  V30 1226 H 124.787 -1.15624 -5.9558 0
M  V30 1227 H 123.526 -0.548722 -4.84603 0
M  V30 1228 H 122.531 -2.84909 -4.7022 0
M  V30 1229 H 123.756 -3.45503 -5.8464 0
M  V30 1230 H 121.702 -1.28881 -6.43215 0
M  V30 1231 H 121.619 -2.9353 -6.96689 0
M  V30 1232 H 122.887 -1.90397 -7.5589 0
M  V30 1233 N 127.117 1.15442 -1.07289 0
M  V30 1234 C 128.528 1.67803 -0.818475 0
M  V30 1235 C 128.879 1.8489 0.656507 0
M  V30 1236 O 128.004 1.55176 1.50829 0
M  V30 1237 C 128.599 3.04805 -1.47917 0
M  V30 1238 C 127.158 3.54245 -1.27229 0
M  V30 1239 C 126.305 2.29986 -1.54925 0
M  V30 1240 H 129.256 0.996646 -1.23502 0
M  V30 1241 H 129.277 3.69702 -0.90005 0
M  V30 1242 H 128.789 2.92336 -2.55267 0
M  V30 1243 H 126.89 3.71956 -0.21899 0
M  V30 1244 H 127.003 4.35723 -1.99203 0
M  V30 1245 H 125.367 2.35496 -0.970242 0
M  V30 1246 H 126.15 2.20105 -2.63455 0
M  V30 1247 N 128.595 0.856903 1.32268 0
M  V30 1248 C 129.835 0.467705 1.98977 0
M  V30 1249 C 130.199 -0.959231 1.66321 0
M  V30 1250 O 131.4 -1.4531 2.26138 0
M  V30 1251 C 129.671 0.70256 3.50427 0
M  V30 1252 S 131.23 0.411269 4.36868 0
M  V30 1253 H 128.048 0.175121 0.689096 0
M  V30 1254 H 130.65 1.1101 1.60925 0
M  V30 1255 H 129.354 1.74012 3.71683 0
M  V30 1256 H 128.885 0.0466707 3.93372 0
M  V30 1257 H 130.9 -0.761799 4.90317 0
M  V30 1258 N 130.073 -1.45103 0.615059 0
M  V30 1259 C 131.32 -2.02183 0.113179 0
M  V30 1260 C 131.648 -1.48249 -1.25906 0
M  V30 1261 O 130.903 -0.650265 -1.84581 0
M  V30 1262 C 131.202 -3.57386 0.0318797 0
M  V30 1263 C 130.868 -4.30505 1.34077 0
M  V30 1264 C 129.53 -4.50197 1.69929 0
M  V30 1265 C 131.882 -4.72238 2.20546 0
M  V30 1266 C 129.21 -5.08881 2.91988 0
M  V30 1267 C 131.562 -5.32272 3.41861 0
M  V30 1268 C 130.226 -5.50187 3.77956 0
M  V30 1269 H 129.496 -0.739842 0.0414151 0
M  V30 1270 H 132.143 -1.74073 0.798168 0
M  V30 1271 H 130.448 -3.84817 -0.736409 0
M  V30 1272 H 132.145 -3.99264 -0.372712 0
M  V30 1273 H 128.735 -4.15496 1.05173 0
M  V30 1274 H 132.919 -4.56751 1.94146 0
M  V30 1275 H 128.175 -5.20939 3.2005 0
M  V30 1276 H 132.349 -5.63563 4.09109 0
M  V30 1277 H 129.976 -5.95427 4.72622 0
M  V30 1278 N 131.551 -0.354651 -1.53558 0
M  V30 1279 C 132.797 0.238797 -2.01389 0
M  V30 1280 C 133.13 1.49309 -1.2418 0
M  V30 1281 O 132.405 1.91638 -0.332457 0
M  V30 1282 C 132.688 0.541771 -3.56001 0
M  V30 1283 C 132.541 -0.725388 -4.43912 0
M  V30 1284 C 133.86 1.34685 -4.18984 0
M  V30 1285 H 130.979 0.0853177 -0.732045 0
M  V30 1286 H 133.621 -0.477384 -1.83905 0
M  V30 1287 H 131.771 1.15189 -3.71031 0
M  V30 1288 H 133.443 -1.36313 -4.407 0
M  V30 1289 H 131.686 -1.34801 -4.12324 0
M  V30 1290 H 132.357 -0.468505 -5.50008 0
M  V30 1291 H 134.833 0.830837 -4.07721 0
M  V30 1292 H 133.709 1.52759 -5.27215 0
M  V30 1293 H 133.97 2.35221 -3.74331 0
M  V30 1294 N 133.029 1.57378 -0.0835403 0
M  V30 1295 C 134.269 1.95808 0.586381 0
M  V30 1296 C 134.633 0.963706 1.66062 0
M  V30 1297 O 135.834 1.23608 2.38693 0
M  V30 1298 C 134.105 3.38808 1.13771 0
M  V30 1299 S 135.664 3.99225 1.82112 0
M  V30 1300 H 132.482 0.684675 0.191679 0
M  V30 1301 H 135.084 1.94843 -0.160194 0
M  V30 1302 H 133.788 4.08954 0.344197 0
M  V30 1303 H 133.319 3.43344 1.92038 0
M  V30 1304 H 135.334 3.87087 3.10449 0
M  V30 1305 N 134.507 -0.190092 1.56449 0
M  V30 1306 C 135.439 -1.25973 1.91477 0
M  V30 1307 C 136.452 -1.41452 0.805931 0
M  V30 1308 O 137.641 -1.41789 1.08435 0
M  V30 1309 C 134.741 -2.63117 2.13594 0
M  V30 1310 C 133.914 -2.69182 3.4476 0
M  V30 1311 C 132.973 -3.87557 3.5593 0
M  V30 1312 O 131.999 -3.74427 4.28711 0
M  V30 1313 N 133.201 -5.03224 2.89388 0
M  V30 1314 H 135.966 -0.962394 2.83828 0
M  V30 1315 H 133.527 -0.379981 1.57378 0
M  V30 1316 H 135.519 -3.40742 2.1835 0
M  V30 1317 H 134.089 -2.85319 1.27719 0
M  V30 1318 H 133.309 -1.77793 3.51828 0
M  V30 1319 H 134.597 -2.70229 4.31107 0
M  V30 1320 H 133.995 -5.16791 2.30094 0
M  V30 1321 H 132.552 -5.78778 2.99764 0
M  V30 1322 N 135.985 -1.50799 -0.457987 0
M  V30 1323 C 137.262 -1.52968 -1.21902 0
M  V30 1324 C 137.642 -0.281906 -2.09209 0
M  V30 1325 O 136.99 0.734076 -2.16388 0
M  V30 1326 C 137.2 -2.8326 -2.03875 0
M  V30 1327 C 138.548 -3.34425 -2.6162 0
M  V30 1328 O 139.572 -2.8467 -2.14106 0
M  V30 1329 O 138.431 -4.21188 -3.48228 0
M  V30 1330 H 135.525 -0.614129 -0.553873 0
M  V30 1331 H 138.071 -1.63098 -0.468739 0
M  V30 1332 H 136.843 -3.65543 -1.39621 0
M  V30 1333 H 136.466 -2.76195 -2.8601 0
M  V30 1334 N 137.463 0.71206 -1.40597 0
M  V30 1335 C 138.41 1.82613 -1.41142 0
M  V30 1336 C 139.38 1.63925 -0.267903 0
M  V30 1337 O 140.565 1.85009 -0.466495 0
M  V30 1338 C 137.705 3.20354 -1.28324 0
M  V30 1339 C 136.818 3.50589 -2.52411 0
M  V30 1340 C 135.953 4.77855 -2.32009 0
M  V30 1341 C 134.992 5.01005 -3.51654 0
M  V30 1342 N 134.129 6.19487 -3.30425 0
M  V30 1343 H 138.969 1.81482 -2.36365 0
M  V30 1344 H 136.506 0.886475 -1.17388 0
M  V30 1345 H 138.464 3.99899 -1.18899 0
M  V30 1346 H 137.094 3.20705 -0.367189 0
M  V30 1347 H 136.146 2.65573 -2.72351 0
M  V30 1348 H 137.458 3.63604 -3.41458 0
M  V30 1349 H 136.612 5.65424 -2.19956 0
M  V30 1350 H 135.351 4.67056 -1.40392 0
M  V30 1351 H 134.356 4.1189 -3.64179 0
M  V30 1352 H 135.581 5.13674 -4.44202 0
M  V30 1353 H 133.527 6.09932 -2.41494 0
M  V30 1354 H 133.444 6.33194 -4.13039 0
M  V30 1355 H 134.712 7.09834 -3.22113 0
M  V30 1356 N 138.941 1.26152 0.944643 0
M  V30 1357 C 140.166 1.14363 1.7302 0
M  V30 1358 C 140.591 -0.29772 1.85729 0
M  V30 1359 O 139.949 -1.2157 1.34501 0
M  V30 1360 C 139.997 1.81378 3.11664 0
M  V30 1361 O 139.101 1.10022 3.97453 0
M  V30 1362 H 138.442 0.398694 0.53098 0
M  V30 1363 H 140.972 1.66906 1.18337 0
M  V30 1364 H 140.982 1.88064 3.62072 0
M  V30 1365 H 139.657 2.86237 3.0173 0
M  V30 1366 H 138.234 1.11287 3.55907 0
M  V30 1367 N 140.419 -1.14872 1.07899 0
M  V30 1368 C 141.644 -1.90202 0.826926 0
M  V30 1369 C 142.069 -1.77774 -0.614664 0
M  V30 1370 O 141.427 -1.11431 -1.43013 0
M  V30 1371 C 141.475 -3.38352 1.24702 0
M  V30 1372 O 140.579 -4.10497 0.39575 0
M  V30 1373 H 139.92 -0.591968 0.300782 0
M  V30 1374 H 142.45 -1.45437 1.43907 0
M  V30 1375 H 142.46 -3.89156 1.22563 0
M  V30 1376 H 141.135 -3.46715 2.29698 0
M  V30 1377 H 139.712 -3.69796 0.480117 0
M  V30 1378 N 141.898 -0.863906 -1.31812 0
M  V30 1379 C 143.146 -0.470904 -1.96537 0
M  V30 1380 C 143.467 0.978771 -1.68657 0
M  V30 1381 O 142.737 1.6853 -0.998717 0
M  V30 1382 H 141.317 -0.171148 -0.72713 0
M  V30 1383 H 143.979 -1.10236 -1.60729 0
M  V30 1384 H 143.075 -0.623616 -3.05806 0
M  V30 1385 N 143.376 1.44774 -0.622745 0
M  V30 1386 C 144.606 2.06187 -0.130532 0
M  V30 1387 C 145.014 1.46547 1.19669 0
M  V30 1388 O 144.357 0.579636 1.74316 0
M  V30 1389 C 144.419 3.59437 0.0674983 0
M  V30 1390 C 144.083 4.41496 -1.18026 0
M  V30 1391 C 145.08 4.75512 -2.102 0
M  V30 1392 C 142.765 4.82007 -1.41333 0
M  V30 1393 C 144.759 5.48912 -3.23998 0
M  V30 1394 C 142.446 5.55157 -2.55429 0
M  V30 1395 C 143.444 5.88528 -3.46589 0
M  V30 1396 O 143.132 6.60191 -4.58697 0
M  V30 1397 H 142.864 0.672045 -0.0730162 0
M  V30 1398 H 145.418 1.86768 -0.854802 0
M  V30 1399 H 143.648 3.77314 0.846825 0
M  V30 1400 H 145.337 4.02642 0.513209 0
M  V30 1401 H 146.103 4.4476 -1.93425 0
M  V30 1402 H 141.982 4.55457 -0.712709 0
M  V30 1403 H 145.526 5.74877 -3.95174 0
M  V30 1404 H 141.423 5.85324 -2.72151 0
M  V30 1405 H 142.191 6.78654 -4.57571 0
M  V30 1406 N 144.854 0.36279 1.53368 0
M  V30 1407 C 145.804 -0.501391 2.22419 0
M  V30 1408 C 146.788 -1.0509 1.2184 0
M  V30 1409 O 147.98 -0.981404 1.47301 0
M  V30 1410 C 145.109 -1.64201 3.01484 0
M  V30 1411 C 144.195 -1.10552 4.09438 0
M  V30 1412 N 144.586 -0.291788 5.04958 0
M  V30 1413 C 142.884 -1.3806 4.24094 0
M  V30 1414 C 143.585 0.00162655 5.817 0
M  V30 1415 N 142.561 -0.595244 5.40331 0
M  V30 1416 H 146.363 0.127159 2.93625 0
M  V30 1417 H 143.877 0.170658 1.61501 0
M  V30 1418 H 145.874 -2.27326 3.49469 0
M  V30 1419 H 144.534 -2.27365 2.31809 0
M  V30 1420 H 145.545 0.0687731 5.17854 0
M  V30 1421 H 142.222 -2.01522 3.65644 0
M  V30 1422 H 143.612 0.659278 6.68658 0
M  V30 1423 N 146.332 -1.57332 0.0918853 0
M  V30 1424 C 147.562 -1.98286 -0.580205 0
M  V30 1425 C 147.97 -0.969713 -1.6246 0
M  V30 1426 O 147.313 0.0493501 -1.83634 0
M  V30 1427 C 147.375 -3.35603 -1.28882 0
M  V30 1428 C 147.039 -4.55285 -0.395559 0
M  V30 1429 C 148.036 -5.18687 0.355002 0
M  V30 1430 C 145.721 -5.01314 -0.314556 0
M  V30 1431 C 147.715 -6.26484 1.17458 0
M  V30 1432 C 145.402 -6.08979 0.508677 0
M  V30 1433 C 146.4 -6.71429 1.2519 0
M  V30 1434 O 146.088 -7.77018 2.06151 0
M  V30 1435 H 145.82 -0.656678 -0.160466 0
M  V30 1436 H 148.374 -2.04721 0.16688 0
M  V30 1437 H 146.604 -3.25842 -2.08241 0
M  V30 1438 H 148.293 -3.61026 -1.85512 0
M  V30 1439 H 149.059 -4.84058 0.302134 0
M  V30 1440 H 144.938 -4.5247 -0.882697 0
M  V30 1441 H 148.482 -6.75159 1.75518 0
M  V30 1442 H 144.379 -6.4304 0.563037 0
M  V30 1443 H 145.147 -7.93991 1.98799 0
M  V30 1444 N 147.81 0.181792 -1.56548 0
M  V30 1445 C 149.058 0.89832 -1.81038 0
M  V30 1446 C 149.379 1.83232 -0.667164 0
M  V30 1447 O 148.649 1.93372 0.313673 0
M  V30 1448 H 147.229 0.33471 -0.667816 0
M  V30 1449 H 149.891 0.184116 -1.94028 0
M  V30 1450 H 148.987 1.4815 -2.74696 0
M  V30 1451 N 149.288 1.51039 0.449983 0
M  V30 1452 C 150.534 1.63322 1.20223 0
M  V30 1453 C 150.867 0.34241 1.91158 0
M  V30 1454 O 150.142 -0.657344 1.83055 0
M  V30 1455 C 150.425 2.82801 2.22925 0
M  V30 1456 C 150.278 4.21823 1.56157 0
M  V30 1457 C 151.597 2.97807 3.24035 0
M  V30 1458 H 148.716 0.594407 0.435718 0
M  V30 1459 H 151.358 1.83489 0.493136 0
M  V30 1460 H 149.508 2.65738 2.834 0
M  V30 1461 H 151.18 4.50526 0.991162 0
M  V30 1462 H 149.423 4.25105 0.864172 0
M  V30 1463 H 150.094 5.01391 2.30891 0
M  V30 1464 H 152.57 3.13497 2.73603 0
M  V30 1465 H 151.446 3.82992 3.93202 0
M  V30 1466 H 151.707 2.09328 3.89402 0
M  V30 1467 N 150.766 -0.704594 1.40972 0
M  V30 1468 C 151.991 -1.49858 1.43378 0
M  V30 1469 C 152.416 -1.88061 0.038184 0
M  V30 1470 O 151.774 -1.5402 -0.956425 0
M  V30 1471 C 151.822 -2.74333 2.34038 0
M  V30 1472 O 150.926 -3.7147 1.7912 0
M  V30 1473 H 150.267 -0.45139 0.486974 0
M  V30 1474 H 152.797 -0.866832 1.8533 0
M  V30 1475 H 152.807 -3.22741 2.49604 0
M  V30 1476 H 151.482 -2.45863 3.35446 0
M  V30 1477 H 150.059 -3.30363 1.72958 0
M  V30 1478 N 152.244 -1.26651 -0.937939 0
M  V30 1479 C 153.207 -1.08546 -2.01867 0
M  V30 1480 C 154.207 -0.0327327 -1.60767 0
M  V30 1481 O 155.397 -0.276427 -1.71993 0
M  V30 1482 C 152.529 -0.651711 -3.34613 0
M  V30 1483 H 153.722 -2.04502 -2.1936 0
M  V30 1484 H 151.275 -1.09294 -1.11734 0
M  V30 1485 H 152.01 0.309696 -3.22818 0
M  V30 1486 H 151.795 -1.41189 -3.65798 0
M  V30 1487 H 153.285 -0.546973 -4.14002 0
M  V30 1488 N 153.722 1.14298 -1.08507 0
M  V30 1489 C 154.962 1.87016 -0.824894 0
M  V30 1490 C 155.326 1.81099 0.637735 0
M  V30 1491 O 156.527 2.48963 1.01345 0
M  V30 1492 C 154.798 3.31584 -1.33368 0
M  V30 1493 S 156.357 4.21903 -1.20596 0
M  V30 1494 H 153.175 0.645259 -0.2986 0
M  V30 1495 H 155.777 1.37822 -1.38656 0
M  V30 1496 H 154.481 3.33439 -2.39262 0
M  V30 1497 H 154.012 3.85836 -0.767734 0
M  V30 1498 H 156.027 4.95971 -0.150891 0
M  V30 1499 N 155.201 0.870884 1.31352 0
M  V30 1500 C 156.111 0.330783 2.32256 0
M  V30 1501 C 157.127 -0.559767 1.6475 0
M  V30 1502 O 158.303 -0.456263 1.96164 0
M  V30 1503 C 155.368 -0.458137 3.4366 0
M  V30 1504 C 154.429 0.460482 4.26823 0
M  V30 1505 C 153.662 -0.290881 5.32907 0
M  V30 1506 O 153.885 -1.51885 5.49806 0
M  V30 1507 O 152.819 0.351732 6.00871 0
M  V30 1508 H 156.645 1.16718 2.80376 0
M  V30 1509 H 154.23 0.634285 1.35267 0
M  V30 1510 H 156.112 -0.905343 4.1156 0
M  V30 1511 H 154.787 -1.27106 2.97701 0
M  V30 1512 H 153.694 0.956207 3.61673 0
M  V30 1513 H 155.027 1.23903 4.7635 0
M  V30 1514 N 156.679 -1.44442 0.630414 0
M  V30 1515 C 157.927 -2.01653 0.134351 0
M  V30 1516 C 158.248 -1.49836 -1.24796 0
M  V30 1517 O 157.518 -0.701684 -1.82902 0
M  V30 1518 H 156.098 -0.74554 0.0466769 0
M  V30 1519 H 158.76 -1.76952 0.816955 0
M  V30 1520 H 157.856 -3.11935 0.101498 0
M  V30 1521 N 158.157 -0.370918 -1.53173 0
M  V30 1522 C 159.397 0.217106 -2.03244 0
M  V30 1523 C 159.761 1.45558 -1.25207 0
M  V30 1524 O 160.962 2.11957 -1.65311 0
M  V30 1525 C 159.233 0.496664 -3.53932 0
M  V30 1526 S 160.792 1.0576 -4.25864 0
M  V30 1527 H 157.61 0.0627827 -0.708223 0
M  V30 1528 H 160.212 -0.515019 -1.88594 0
M  V30 1529 H 158.916 -0.412096 -4.08326 0
M  V30 1530 H 158.447 1.25772 -3.72753 0
M  V30 1531 H 160.462 2.34145 -4.37482 0
M  V30 1532 N 159.635 1.57281 -0.100228 0
M  V30 1533 C 160.582 2.14305 0.856858 0
M  V30 1534 C 161.552 1.06296 1.27634 0
M  V30 1535 O 162.737 1.34109 1.35718 0
M  V30 1536 C 159.877 2.73184 2.10866 0
M  V30 1537 C 158.99 3.95442 1.73925 0
M  V30 1538 C 158.125 4.42468 2.93931 0
M  V30 1539 C 157.164 5.57303 2.5314 0
M  V30 1540 N 156.301 5.99158 3.65997 0
M  V30 1541 H 161.141 2.95772 0.363726 0
M  V30 1542 H 158.678 1.46139 0.167858 0
M  V30 1543 H 160.636 3.05442 2.84185 0
M  V30 1544 H 159.266 1.94437 2.57671 0
M  V30 1545 H 158.318 3.69464 0.905554 0
M  V30 1546 H 159.63 4.78769 1.39935 0
M  V30 1547 H 158.784 4.76537 3.75496 0
M  V30 1548 H 157.523 3.58052 3.31134 0
M  V30 1549 H 156.528 5.22857 1.70003 0
M  V30 1550 H 157.753 6.43471 2.17075 0
M  V30 1551 H 155.699 5.17687 4.02909 0
M  V30 1552 H 155.616 6.77295 3.35869 0
M  V30 1553 H 156.884 6.3786 4.48057 0
M  V30 1554 N 161.113 -0.173488 1.56642 0
M  V30 1555 C 162.361 -0.888706 1.81512 0
M  V30 1556 C 162.682 -1.82875 0.676872 0
M  V30 1557 O 161.952 -1.93536 -0.303414 0
M  V30 1558 H 160.532 -0.331164 0.669582 0
M  V30 1559 H 163.194 -0.173823 1.94123 0
M  V30 1560 H 162.29 -1.46691 2.75478 0
M  V30 1561 N 162.591 -1.51276 -0.441967 0
M  V30 1562 C 163.838 -1.63715 -1.19179 0
M  V30 1563 C 164.166 -0.351175 -1.91303 0
M  V30 1564 O 163.421 0.664524 -1.84072 0
M  V30 1565 C 163.72 -2.78746 -2.23686 0
M  V30 1566 C 163.386 -4.18189 -1.68607 0
M  V30 1567 C 162.048 -4.56125 -1.53308 0
M  V30 1568 C 164.4 -5.05222 -1.28062 0
M  V30 1569 C 161.728 -5.78804 -0.959317 0
M  V30 1570 C 164.08 -6.28476 -0.721162 0
M  V30 1571 C 162.744 -6.65188 -0.55504 0
M  V30 1572 H 162.014 -0.599076 -0.436106 0
M  V30 1573 H 164.661 -1.85296 -0.48351 0
M  V30 1574 H 162.966 -2.51369 -3.00535 0
M  V30 1575 H 164.663 -2.8557 -2.81515 0
M  V30 1576 H 161.253 -3.88277 -1.8149 0
M  V30 1577 H 165.437 -4.76524 -1.38704 0
M  V30 1578 H 160.693 -6.05899 -0.81833 0
M  V30 1579 H 164.867 -6.95259 -0.398458 0
M  V30 1580 H 162.494 -7.60123 -0.108311 0
M  V30 1581 N 164.069 0.697108 -1.41344 0
M  V30 1582 C 165.316 1.45714 -1.40619 0
M  V30 1583 C 165.644 1.94494 -0.0147907 0
M  V30 1584 O 164.899 1.69794 0.973066 0
M  V30 1585 C 165.198 2.68553 -2.35826 0
M  V30 1586 C 164.864 2.38438 -3.82698 0
M  V30 1587 C 163.526 2.29936 -4.22709 0
M  V30 1588 C 165.878 2.13567 -4.75435 0
M  V30 1589 C 163.206 1.94656 -5.53467 0
M  V30 1590 C 165.558 1.79797 -6.06511 0
M  V30 1591 C 164.222 1.69789 -6.45545 0
M  V30 1592 H 163.492 0.533206 -0.51456 0
M  V30 1593 H 166.139 0.796901 -1.74131 0
M  V30 1594 H 164.444 3.39503 -1.95563 0
M  V30 1595 H 166.141 3.2669 -2.32539 0
M  V30 1596 H 162.731 2.4595 -3.51008 0
M  V30 1597 H 166.915 2.19082 -4.45328 0
M  V30 1598 H 162.171 1.8546 -5.82593 0
M  V30 1599 H 166.345 1.59572 -6.77872 0
M  V30 1600 H 163.972 1.4222 -7.46778 0
M  V30 1601 N 165.547 1.27147 0.931209 0
M  V30 1602 C 166.963 1.04475 1.20653 0
M  V30 1603 C 167.163 -0.223885 2.00252 0
M  V30 1604 O 166.219 -0.930332 2.34736 0
M  V30 1605 C 167.532 2.28209 1.95809 0
M  V30 1606 C 169.08 2.33211 2.08762 0
M  V30 1607 C 169.555 3.56665 2.87323 0
M  V30 1608 N 171.046 3.57201 2.94892 0
M  V30 1609 C 171.781 4.49395 3.56134 0
M  V30 1610 N 171.277 5.51889 4.18796 0
M  V30 1611 N 173.07 4.37026 3.53504 0
M  V30 1612 H 165.221 2.08612 0.399333 0
M  V30 1613 H 167.484 0.917312 0.239253 0
M  V30 1614 H 167.19 3.20538 1.44736 0
M  V30 1615 H 167.064 2.33247 2.96438 0
M  V30 1616 H 169.451 1.41391 2.59023 0
M  V30 1617 H 169.532 2.32178 1.07364 0
M  V30 1618 H 169.176 4.4882 2.37746 0
M  V30 1619 H 169.106 3.54948 3.88998 0
M  V30 1620 H 171.597 2.83074 2.50354 0
M  V30 1621 H 171.91 6.18409 4.63454 0
M  V30 1622 H 170.255 5.55735 4.17353 0
M  V30 1623 H 173.446 3.56166 3.03749 0
M  V30 1624 H 173.619 5.09067 4.00942 0
M  V30 1625 N 167.025 -1.13721 1.09112 0
M  V30 1626 C 168.441 -1.36914 0.820174 0
M  V30 1627 C 168.641 -1.93356 -0.567079 0
M  V30 1628 O 167.697 -2.15093 -1.32255 0
M  V30 1629 C 169.01 -2.3235 1.90877 0
M  V30 1630 C 170.558 -2.45973 1.93562 0
M  V30 1631 C 171.033 -3.44714 3.01556 0
M  V30 1632 N 172.524 -3.52263 3.00775 0
M  V30 1633 C 173.259 -4.28536 3.80978 0
M  V30 1634 N 172.755 -5.07991 4.71081 0
M  V30 1635 N 174.548 -4.23804 3.69251 0
M  V30 1636 H 166.699 -0.754348 1.98553 0
M  V30 1637 H 168.962 -0.3944 0.862063 0
M  V30 1638 H 168.668 -1.98027 2.90651 0
M  V30 1639 H 168.542 -3.32332 1.78424 0
M  V30 1640 H 170.929 -2.79584 0.944286 0
M  V30 1641 H 171.01 -1.45926 2.10093 0
M  V30 1642 H 170.654 -3.11835 4.00901 0
M  V30 1643 H 170.584 -4.44558 2.82269 0
M  V30 1644 H 173.075 -2.95567 2.35475 0
M  V30 1645 H 173.388 -5.63487 5.28869 0
M  V30 1646 H 171.733 -5.07235 4.75119 0
M  V30 1647 H 174.924 -3.60806 2.98222 0
M  V30 1648 H 175.097 -4.82995 4.31995 0
M  V30 1649 N 168.503 -0.877838 -1.30888 0
M  V30 1650 C 169.728 -0.506629 -2.01117 0
M  V30 1651 C 170.153 0.895564 -1.65412 0
M  V30 1652 O 169.511 1.5923 -0.866922 0
M  V30 1653 C 169.559 -0.680223 -3.54126 0
M  V30 1654 O 168.663 0.277033 -4.11468 0
M  V30 1655 H 168.004 -0.200518 -0.633 0
M  V30 1656 H 170.534 -1.18342 -1.66902 0
M  V30 1657 H 170.544 -0.5765 -4.03907 0
M  V30 1658 H 169.219 -1.70261 -3.79452 0
M  V30 1659 H 167.796 0.127606 -3.72682 0
M  V30 1660 N 169.982 1.44106 -0.638065 0
M  V30 1661 C 171.231 2.01194 -0.142744 0
M  V30 1662 C 171.544 1.50835 1.24532 0
M  V30 1663 O 172.75 2.00096 1.83504 0
M  V30 1664 C 171.206 3.59319 -0.20442 0
M  V30 1665 C 170.814 4.18674 -1.59423 0
M  V30 1666 C 172.558 4.23854 0.234079 0
M  V30 1667 C 170.465 5.69045 -1.61065 0
M  V30 1668 H 169.395 0.752367 -0.0495998 0
M  V30 1669 H 172.046 1.65246 -0.797881 0
M  V30 1670 H 170.428 3.92598 0.517946 0
M  V30 1671 H 171.602 3.96921 -2.34074 0
M  V30 1672 H 169.917 3.66453 -1.97741 0
M  V30 1673 H 172.514 5.34155 0.241443 0
M  V30 1674 H 172.857 3.96688 1.2627 0
M  V30 1675 H 173.39 3.95403 -0.436025 0
M  V30 1676 H 170.129 6.00956 -2.61787 0
M  V30 1677 H 169.649 5.929 -0.90718 0
M  V30 1678 H 171.328 6.32809 -1.34766 0
M  V30 1679 N 171.46 0.379036 1.52974 0
M  V30 1680 C 172.392 -0.495963 2.2377 0
M  V30 1681 C 173.405 -1.03517 1.25651 0
M  V30 1682 O 174.594 -0.939249 1.51791 0
M  V30 1683 C 171.694 -1.69894 2.93239 0
M  V30 1684 C 170.867 -1.2889 4.17979 0
M  V30 1685 C 169.926 -2.35543 4.70538 0
M  V30 1686 O 168.952 -1.97375 5.33883 0
M  V30 1687 N 170.154 -3.67318 4.49508 0
M  V30 1688 H 172.919 0.110523 2.99496 0
M  V30 1689 H 170.48 0.204878 1.60598 0
M  V30 1690 H 172.472 -2.40747 3.25304 0
M  V30 1691 H 171.042 -2.212 2.20883 0
M  V30 1692 H 170.262 -0.409676 3.92065 0
M  V30 1693 H 171.55 -0.991443 4.99047 0
M  V30 1694 H 170.948 -4.01095 3.98923 0
M  V30 1695 H 169.505 -4.34235 4.8609 0
M  V30 1696 N 172.938 -1.57226 0.108567 0
M  V30 1697 C 173.885 -2.14756 -0.845481 0
M  V30 1698 C 174.855 -1.06971 -1.27068 0
M  V30 1699 O 176.04 -1.34827 -1.35005 0
M  V30 1700 C 173.18 -2.74298 -2.09415 0
M  V30 1701 C 172.293 -3.96358 -1.71826 0
M  V30 1702 C 171.428 -4.44021 -2.9158 0
M  V30 1703 C 170.467 -5.58637 -2.50181 0
M  V30 1704 N 169.604 -6.01091 -3.62814 0
M  V30 1705 H 174.444 -2.95961 -0.348035 0
M  V30 1706 H 171.981 -1.46226 -0.160106 0
M  V30 1707 H 173.939 -3.06945 -2.82561 0
M  V30 1708 H 172.569 -1.95801 -2.56636 0
M  V30 1709 H 171.621 -3.69939 -0.885947 0
M  V30 1710 H 172.933 -4.79504 -1.37394 0
M  V30 1711 H 172.087 -4.78522 -3.72963 0
M  V30 1712 H 170.826 -3.59803 -3.29231 0
M  V30 1713 H 169.831 -5.23751 -1.67228 0
M  V30 1714 H 171.056 -6.44613 -2.13659 0
M  V30 1715 H 169.002 -5.19817 -4.00158 0
M  V30 1716 H 168.919 -6.79066 -3.32273 0
M  V30 1717 H 170.187 -6.40227 -4.44668 0
M  V30 1718 N 174.416 0.165178 -1.56732 0
M  V30 1719 C 175.364 1.22369 -1.97809 0
M  V30 1720 C 176.358 1.45488 -0.867741 0
M  V30 1721 O 177.564 1.45995 -1.05288 0
M  V30 1722 H 173.939 0.411486 -0.629431 0
M  V30 1723 H 175.91 0.850425 -2.86025 0
M  V30 1724 C 174.659 2.55403 -2.35934 0
M  V30 1725 H 173.982 2.38438 -3.20916 0
M  V30 1726 H 175.422 3.2814 -2.68514 0
M  V30 1727 C 173.881 3.14611 -1.20506 0
M  V30 1728 O 174.411 3.98626 -0.496016 0
M  V30 1729 N 172.617 2.7379 -0.97403 0
M  V30 1730 H 172.164 2.0557 -1.55238 0
M  V30 1731 H 172.122 3.1374 -0.203573 0
M  V30 1732 N 175.894 1.51508 0.433938 0
M  V30 1733 C 176.827 1.67756 1.54704 0
M  V30 1734 C 177.805 0.525127 1.53887 0
M  V30 1735 O 178.989 0.749393 1.72963 0
M  V30 1736 C 176.116 1.69424 2.9328 0
M  V30 1737 C 175.162 2.90673 3.12108 0
M  V30 1738 S 175.995 4.51431 2.88046 0
M  V30 1739 C 177.151 4.55849 4.28897 0
M  V30 1740 H 177.384 2.61904 1.40689 0
M  V30 1741 H 174.917 1.41235 0.62386 0
M  V30 1742 H 176.875 1.7107 3.73156 0
M  V30 1743 H 175.536 0.764464 3.04655 0
M  V30 1744 H 174.729 2.88251 4.13434 0
M  V30 1745 H 174.331 2.86786 2.40062 0
M  V30 1746 H 176.623 4.31699 5.22152 0
M  V30 1747 H 177.566 5.57676 4.36351 0
M  V30 1748 H 177.974 3.85137 4.12711 0
M  V30 1749 N 177.372 -0.689602 1.41712 0
M  V30 1750 C 178.618 -1.45181 1.41599 0
M  V30 1751 C 178.951 -1.94181 0.0270081 0
M  V30 1752 O 178.226 -1.6993 -0.946265 0
M  V30 1753 C 178.509 -2.65945 2.42787 0
M  V30 1754 C 178.362 -2.22672 3.90816 0
M  V30 1755 C 179.681 -3.68149 2.41151 0
M  V30 1756 H 176.8 -0.526576 0.515642 0
M  V30 1757 H 179.442 -0.784947 1.73028 0
M  V30 1758 H 177.592 -3.2284 2.16116 0
M  V30 1759 H 179.264 -1.71058 4.28412 0
M  V30 1760 H 177.507 -1.54394 4.05395 0
M  V30 1761 H 178.178 -3.0935 4.57172 0
M  V30 1762 H 180.654 -3.2094 2.64834 0
M  V30 1763 H 179.53 -4.50248 3.13955 0
M  V30 1764 H 179.791 -4.18259 1.43221 0
M  V30 1765 N 178.85 -1.27639 -0.924453 0
M  V30 1766 C 180.08 -1.16819 -1.70402 0
M  V30 1767 C 180.488 0.277191 -1.87158 0
M  V30 1768 O 179.831 1.20025 -1.39067 0
M  V30 1769 C 179.893 -1.78305 -3.12166 0
M  V30 1770 C 179.557 -3.27502 -3.18734 0
M  V30 1771 C 180.554 -4.2409 -3.00738 0
M  V30 1772 C 178.239 -3.68269 -3.4159 0
M  V30 1773 C 180.233 -5.59422 -3.05492 0
M  V30 1774 C 177.92 -5.0373 -3.45977 0
M  V30 1775 C 178.918 -5.99116 -3.27946 0
M  V30 1776 O 178.606 -7.32108 -3.32074 0
M  V30 1777 H 178.338 -0.406931 -0.539799 0
M  V30 1778 H 180.892 -1.69078 -1.16626 0
M  V30 1779 H 179.122 -1.20528 -3.67437 0
M  V30 1780 H 180.811 -1.62154 -3.72103 0
M  V30 1781 H 181.577 -3.93931 -2.82919 0
M  V30 1782 H 177.456 -2.94496 -3.54673 0
M  V30 1783 H 181 -6.33852 -2.91337 0
M  V30 1784 H 176.897 -5.33543 -3.63321 0
M  V30 1785 H 177.665 -7.40598 -3.48507 0
M  V30 1786 N 180.328 1.1314 -1.09713 0
M  V30 1787 C 181.556 1.88321 -0.856898 0
M  V30 1788 C 181.971 1.79276 0.592073 0
M  V30 1789 O 181.328 1.16142 1.40774 0
M  V30 1790 C 181.379 3.37812 -1.28706 0
M  V30 1791 O 181.1 3.46627 -2.67921 0
M  V30 1792 C 182.601 4.29952 -1.07964 0
M  V30 1793 H 179.821 0.596094 -0.308079 0
M  V30 1794 H 182.365 1.43205 -1.45988 0
M  V30 1795 H 180.52 3.805 -0.727912 0
M  V30 1796 H 180.934 4.39579 -2.8613 0
M  V30 1797 H 182.408 5.33159 -1.42986 0
M  V30 1798 H 182.885 4.39196 -0.0176577 0
M  V30 1799 H 183.491 3.93036 -1.62489 0
M  V30 1800 N 181.806 0.884767 1.30421 0
M  V30 1801 C 183.046 0.509806 1.9794 0
M  V30 1802 C 183.41 -0.923736 1.68319 0
M  V30 1803 O 184.611 -1.40481 2.29169 0
M  V30 1804 C 182.882 0.776732 3.48858 0
M  V30 1805 S 184.441 0.503843 4.35898 0
M  V30 1806 H 181.259 0.189699 0.685227 0
M  V30 1807 H 183.861 1.14399 1.58535 0
M  V30 1808 H 182.565 1.81857 3.67908 0
M  V30 1809 H 182.096 0.1301 3.93185 0
M  V30 1810 H 184.111 -0.657625 4.91823 0
M  V30 1811 N 183.284 -1.43765 0.645699 0
M  V30 1812 C 184.234 -2.27884 -0.0726442 0
M  V30 1813 C 185.218 -1.39483 -0.802086 0
M  V30 1814 O 186.41 -1.63174 -0.685791 0
M  V30 1815 C 183.539 -3.27055 -1.04356 0
M  V30 1816 C 182.625 -4.22944 -0.312985 0
M  V30 1817 N 183.016 -5.01391 0.666386 0
M  V30 1818 C 181.314 -4.42528 -0.55546 0
M  V30 1819 C 182.015 -5.71217 1.09935 0
M  V30 1820 N 180.991 -5.41856 0.435137 0
M  V30 1821 H 184.793 -2.85949 0.678988 0
M  V30 1822 H 182.307 -1.55378 0.472368 0
M  V30 1823 H 184.304 -3.86089 -1.57292 0
M  V30 1824 H 182.964 -2.70551 -1.79534 0
M  V30 1825 H 183.975 -5.07252 1.04481 0
M  V30 1826 H 180.652 -3.97104 -1.28899 0
M  V30 1827 H 182.042 -6.44202 1.90929 0
M  V30 1828 N 184.763 -0.387143 -1.52771 0
M  V30 1829 C 186.179 -0.037007 -1.59557 0
M  V30 1830 C 186.379 1.44801 -1.40124 0
M  V30 1831 O 185.435 2.21227 -1.21716 0
M  V30 1832 C 186.748 -0.512256 -2.96305 0
M  V30 1833 C 188.296 -0.468328 -3.09476 0
M  V30 1834 C 188.771 -0.919731 -4.4867 0
M  V30 1835 N 190.262 -0.875656 -4.54848 0
M  V30 1836 C 190.997 -1.19637 -5.6078 0
M  V30 1837 N 190.493 -1.58745 -6.74368 0
M  V30 1838 N 192.286 -1.11776 -5.50874 0
M  V30 1839 H 184.437 -1.35395 -1.63652 0
M  V30 1840 H 186.7 -0.554818 -0.768688 0
M  V30 1841 H 186.406 -1.54935 -3.15734 0
M  V30 1842 H 186.28 0.089805 -3.77093 0
M  V30 1843 H 188.667 0.559671 -2.89744 0
M  V30 1844 H 188.748 -1.10616 -2.30646 0
M  V30 1845 H 188.392 -1.94595 -4.69143 0
M  V30 1846 H 188.322 -0.258927 -5.25963 0
M  V30 1847 H 190.813 -0.587843 -3.733 0
M  V30 1848 H 191.126 -1.81586 -7.51163 0
M  V30 1849 H 189.471 -1.6263 -6.75705 0
M  V30 1850 H 192.662 -0.811264 -4.61016 0
M  V30 1851 H 192.835 -1.37103 -6.3333 0
M  V30 1852 N 186.241 1.57166 -0.116904 0
M  V30 1853 C 187.518 1.86645 0.585049 0
M  V30 1854 C 187.898 1.0177 1.84949 0
M  V30 1855 O 187.246 0.0960379 2.28298 0
M  V30 1856 C 187.456 3.37736 0.879507 0
M  V30 1857 C 188.804 4.06289 1.23348 0
M  V30 1858 O 189.828 3.42743 0.969836 0
M  V30 1859 O 188.687 5.18455 1.7282 0
M  V30 1860 H 185.781 0.772593 0.295007 0
M  V30 1861 H 188.327 1.69025 -0.151249 0
M  V30 1862 H 187.099 3.91296 -0.0166136 0
M  V30 1863 H 186.722 3.6078 1.67103 0
M  V30 1864 N 187.719 -0.156864 1.56817 0
M  V30 1865 C 188.666 -1.19394 1.97519 0
M  V30 1866 C 189.636 -1.4322 0.841265 0
M  V30 1867 O 190.821 -1.55719 1.10255 0
M  V30 1868 C 187.961 -2.52483 2.35258 0
M  V30 1869 C 187.074 -2.35914 3.61896 0
M  V30 1870 C 186.209 -3.61969 3.88782 0
M  V30 1871 C 185.248 -3.40395 5.08722 0
M  V30 1872 N 184.385 -4.58556 5.31668 0
M  V30 1873 H 189.225 -0.839845 2.85921 0
M  V30 1874 H 186.762 -0.403264 1.41464 0
M  V30 1875 H 188.72 -3.30071 2.55165 0
M  V30 1876 H 187.35 -2.85859 1.49949 0
M  V30 1877 H 186.402 -1.49429 3.49821 0
M  V30 1878 H 187.714 -2.15926 4.49641 0
M  V30 1879 H 186.868 -4.47989 4.09135 0
M  V30 1880 H 185.607 -3.84951 2.9944 0
M  V30 1881 H 184.612 -2.52763 4.88253 0
M  V30 1882 H 185.837 -3.18822 5.99608 0
M  V30 1883 H 183.783 -4.81729 4.45279 0
M  V30 1884 H 183.7 -4.41535 6.13664 0
M  V30 1885 H 184.968 -5.45817 5.5651 0
M  V30 1886 N 189.197 -1.51736 -0.425897 0
M  V30 1887 C 190.145 -1.74464 -1.53834 0
M  V30 1888 C 191.139 -0.611241 -1.57988 0
M  V30 1889 O 192.345 -0.792899 -1.61596 0
M  V30 1890 H 188.72 -0.551437 -0.511293 0
M  V30 1891 H 190.691 -2.67694 -1.31843 0
M  V30 1892 C 189.44 -1.8972 -2.91379 0
M  V30 1893 H 188.763 -2.76344 -2.88919 0
M  V30 1894 H 190.203 -2.09629 -3.68553 0
M  V30 1895 C 188.662 -0.65992 -3.30374 0
M  V30 1896 O 189.192 0.180083 -4.01296 0
M  V30 1897 N 187.398 -0.500677 -2.86254 0
M  V30 1898 H 186.945 -1.18532 -2.28709 0
M  V30 1899 H 186.903 0.325903 -3.12706 0
M  V30 1900 N 190.675 0.682077 -1.42076 0
M  V30 1901 C 191.915 1.45424 -1.43636 0
M  V30 1902 C 192.279 1.91939 -0.0484001 0
M  V30 1903 O 193.48 2.6873 0.0612514 0
M  V30 1904 C 191.751 2.62427 -2.42625 0
M  V30 1905 S 193.31 3.51379 -2.62827 0
M  V30 1906 H 190.128 0.496779 -0.508657 0
M  V30 1907 H 192.73 0.794645 -1.78621 0
M  V30 1908 H 191.434 2.26481 -3.42249 0
M  V30 1909 H 190.965 3.33266 -2.09039 0
M  V30 1910 H 192.98 4.58141 -1.9058 0
M  V30 1911 N 192.153 1.28127 0.917671 0
M  V30 1912 C 193.402 1.14432 1.66097 0
M  V30 1913 C 193.715 -0.307247 1.93172 0
M  V30 1914 O 194.921 -0.565259 2.65551 0
M  V30 1915 C 193.377 2.00015 2.99202 0
M  V30 1916 C 192.985 3.49889 2.79789 0
M  V30 1917 C 194.729 1.94996 3.77064 0
M  V30 1918 C 192.636 4.27636 4.08511 0
M  V30 1919 H 191.566 0.424662 0.62304 0
M  V30 1920 H 194.217 1.52628 1.01868 0
M  V30 1921 H 192.599 1.54672 3.64544 0
M  V30 1922 H 193.773 4.03162 2.23152 0
M  V30 1923 H 192.088 3.56392 2.15345 0
M  V30 1924 H 194.685 2.50354 4.72469 0
M  V30 1925 H 195.028 0.925819 4.05875 0
M  V30 1926 H 195.561 2.38287 3.18534 0
M  V30 1927 H 192.3 5.30615 3.84874 0
M  V30 1928 H 191.82 3.79137 4.64774 0
M  V30 1929 H 193.499 4.37346 4.76799 0
M  V30 1930 N 193.631 -1.12557 1.10312 0
M  V30 1931 C 194.88 -1.83395 0.839588 0
M  V30 1932 C 195.193 -1.84939 -0.636929 0
M  V30 1933 O 196.399 -2.51761 -1.01631 0
M  V30 1934 C 194.855 -3.29303 1.45215 0
M  V30 1935 C 194.463 -3.36122 2.96186 0
M  V30 1936 C 196.207 -4.05121 1.26796 0
M  V30 1937 C 194.114 -4.76357 3.50483 0
M  V30 1938 H 193.044 -0.687133 0.310425 0
M  V30 1939 H 195.695 -1.26746 1.32694 0
M  V30 1940 H 194.077 -3.85812 0.892469 0
M  V30 1941 H 195.251 -2.89559 3.58458 0
M  V30 1942 H 193.566 -2.73776 3.13745 0
M  V30 1943 H 196.163 -5.08668 1.64806 0
M  V30 1944 H 196.506 -4.15773 0.209409 0
M  V30 1945 H 197.039 -3.54967 1.79563 0
M  V30 1946 H 193.778 -4.70899 4.55998 0
M  V30 1947 H 193.298 -5.23377 2.92978 0
M  V30 1948 H 194.977 -5.45294 3.48228 0
M  V30 1949 N 195.109 -0.891671 -1.2995 0
M  V30 1950 C 196.057 -0.353066 -2.29905 0
M  V30 1951 C 197.051 0.543509 -1.60444 0
M  V30 1952 O 198.257 0.4272 -1.74857 0
M  V30 1953 H 194.632 -0.095531 -0.745907 0
M  V30 1954 H 196.603 -1.20961 -2.72784 0
M  V30 1955 C 195.352 0.411475 -3.45257 0
M  V30 1956 H 194.675 -0.269182 -3.98893 0
M  V30 1957 H 196.115 0.753328 -4.17254 0
M  V30 1958 C 194.574 1.6111 -2.9588 0
M  V30 1959 O 195.104 2.71045 -2.96475 0
M  V30 1960 N 193.31 1.45054 -2.51809 0
M  V30 1961 H 192.857 0.556175 -2.51524 0
M  V30 1962 H 192.815 2.25453 -2.1913 0
M  V30 1963 N 196.587 1.43421 -0.653314 0
M  V30 1964 C 197.534 2.30768 0.0382271 0
M  V30 1965 C 198.504 1.44755 0.814576 0
M  V30 1966 O 199.689 1.73624 0.791162 0
M  V30 1967 C 196.829 3.30336 0.998599 0
M  V30 1968 C 195.942 4.31448 0.218342 0
M  V30 1969 C 195.077 5.18098 1.17252 0
M  V30 1970 C 194.116 6.10902 0.382702 0
M  V30 1971 N 193.253 6.90176 1.28848 0
M  V30 1972 H 198.093 2.89357 -0.712511 0
M  V30 1973 H 195.63 1.42548 -0.363128 0
M  V30 1974 H 197.588 3.86572 1.56901 0
M  V30 1975 H 196.218 2.73397 1.71621 0
M  V30 1976 H 195.27 3.77506 -0.46836 0
M  V30 1977 H 196.582 4.97227 -0.395812 0
M  V30 1978 H 195.736 5.7896 1.81356 0
M  V30 1979 H 194.475 4.52444 1.82058 0
M  V30 1980 H 193.48 5.49128 -0.27169 0
M  V30 1981 H 194.705 6.78598 -0.260957 0
M  V30 1982 H 192.651 6.27171 1.92334 0
M  V30 1983 H 192.568 7.52478 0.728887 0
M  V30 1984 H 193.836 7.55543 1.91766 0
M  V30 1985 N 198.065 0.39524 1.52563 0
M  V30 1986 C 199.311 -0.185318 2.01952 0
M  V30 1987 C 199.644 -1.45964 1.28095 0
M  V30 1988 O 198.919 -1.90689 0.38315 0
M  V30 1989 C 199.202 -0.447193 3.57312 0
M  V30 1990 C 199.055 0.842828 4.41833 0
M  V30 1991 C 200.374 -1.23529 4.22408 0
M  V30 1992 H 197.493 -0.0658788 0.73405 0
M  V30 1993 H 200.135 0.525975 1.82575 0
M  V30 1994 H 198.285 -1.05312 3.73954 0
M  V30 1995 H 199.957 1.4795 4.36931 0
M  V30 1996 H 198.2 1.45686 4.08605 0
M  V30 1997 H 198.871 0.614165 5.48573 0
M  V30 1998 H 201.347 -0.722445 4.0978 0
M  V30 1999 H 200.223 -1.38727 5.3108 0
M  V30 2000 H 200.484 -2.25213 3.80436 0
M  V30 2001 N 199.544 -1.57102 0.125237 0
M  V30 2002 C 200.772 -1.99761 -0.538797 0
M  V30 2003 C 201.187 -1.00503 -1.59827 0
M  V30 2004 O 200.544 0.00119474 -1.825 0
M  V30 2005 C 200.595 -3.42408 -1.15927 0
M  V30 2006 O 200.316 -4.37869 -0.142143 0
M  V30 2007 C 201.817 -4.00232 -1.90602 0
M  V30 2008 H 199.037 -0.655772 -0.14214 0
M  V30 2009 H 201.581 -2.03383 0.213413 0
M  V30 2010 H 199.736 -3.39706 -1.86223 0
M  V30 2011 H 200.15 -5.21128 -0.593775 0
M  V30 2012 H 201.624 -5.02105 -2.29335 0
M  V30 2013 H 202.101 -3.39721 -2.78363 0
M  V30 2014 H 202.707 -4.06499 -1.25055 0
M  V30 2015 N 201.022 0.148545 -1.56898 0
M  V30 2016 C 202.438 0.501131 -1.51528 0
M  V30 2017 C 202.638 1.83458 -0.833399 0
M  V30 2018 O 201.694 2.49259 -0.40328 0
M  V30 2019 C 203.007 0.512864 -2.96294 0
M  V30 2020 C 204.555 0.598487 -3.07225 0
M  V30 2021 C 205.03 0.640897 -4.53494 0
M  V30 2022 N 206.521 0.703163 -4.57832 0
M  V30 2023 C 207.256 0.756935 -5.68382 0
M  V30 2024 N 206.752 0.770147 -6.88506 0
M  V30 2025 N 208.545 0.797698 -5.56411 0
M  V30 2026 H 200.696 -0.725532 -1.99624 0
M  V30 2027 H 202.959 -0.264358 -0.910395 0
M  V30 2028 H 202.665 -0.398691 -3.49433 0
M  V30 2029 H 202.539 1.35133 -3.52163 0
M  V30 2030 H 204.926 1.50046 -2.54106 0
M  V30 2031 H 205.007 -0.267093 -2.54402 0
M  V30 2032 H 204.651 -0.256915 -5.0725 0
M  V30 2033 H 204.581 1.52295 -5.04097 0
M  V30 2034 H 207.072 0.700314 -3.71354 0
M  V30 2035 H 207.385 0.812983 -7.68512 0
M  V30 2036 H 205.73 0.738049 -6.9107 0
M  V30 2037 H 208.921 0.784535 -4.61479 0
M  V30 2038 H 209.094 0.83614 -6.42583 0
M  V30 2039 N 202.5 1.5196 0.417844 0
M  V30 2040 C 203.448 1.75278 1.52907 0
M  V30 2041 C 204.442 0.619611 1.57662 0
M  V30 2042 O 205.648 0.801457 1.61173 0
M  V30 2043 H 202.023 0.554141 0.508362 0
M  V30 2044 H 203.994 2.68389 1.30422 0
M  V30 2045 C 202.743 1.91262 2.90369 0
M  V30 2046 H 202.066 2.77872 2.8745 0
M  V30 2047 H 203.506 2.11581 3.67436 0
M  V30 2048 C 201.965 0.677431 3.30019 0
M  V30 2049 O 202.495 -0.158799 4.01386 0
M  V30 2050 N 200.701 0.515851 2.85985 0
M  V30 2051 H 200.248 1.19744 2.28077 0
M  V30 2052 H 200.206 -0.309315 3.12875 0
M  V30 2053 N 203.978 -0.674533 1.42435 0
M  V30 2054 C 205.394 -0.98769 1.25367 0
M  V30 2055 C 205.594 -2.00879 0.158044 0
M  V30 2056 O 204.65 -2.48075 -0.470633 0
M  V30 2057 C 205.963 -1.49224 2.6106 0
M  V30 2058 C 207.511 -1.61 2.68417 0
M  V30 2059 C 207.986 -2.14852 4.04478 0
M  V30 2060 N 209.477 -2.22185 4.06434 0
M  V30 2061 C 210.212 -2.64928 5.08528 0
M  V30 2062 N 209.708 -3.07121 6.21006 0
M  V30 2063 N 211.501 -2.64679 4.95885 0
M  V30 2064 H 203.652 0.00152503 2.124 0
M  V30 2065 H 205.915 -0.0618434 0.945981 0
M  V30 2066 H 205.621 -0.816453 3.42092 0
M  V30 2067 H 205.495 -2.47094 2.84999 0
M  V30 2068 H 207.882 -2.27686 1.87732 0
M  V30 2069 H 207.963 -0.616195 2.48267 0
M  V30 2070 H 207.607 -1.48775 4.85622 0
M  V30 2071 H 207.537 -3.15024 4.2198 0
M  V30 2072 H 210.028 -1.92435 3.25234 0
M  V30 2073 H 210.341 -3.38423 6.94759 0
M  V30 2074 H 208.686 -3.04978 6.24511 0
M  V30 2075 H 211.877 -2.31078 4.07088 0
M  V30 2076 H 212.05 -2.9767 5.75584 0
M  V30 2077 N 205.456 -1.28612 -0.910864 0
M  V30 2078 C 206.696 -1.1719 -1.67469 0
M  V30 2079 C 207.06 0.274441 -1.90028 0
M  V30 2080 O 208.261 0.511425 -2.6389 0
M  V30 2081 C 206.532 -1.95137 -2.99427 0
M  V30 2082 S 208.091 -2.00122 -3.90508 0
M  V30 2083 H 204.909 -0.41806 -0.575106 0
M  V30 2084 H 207.511 -1.6275 -1.08317 0
M  V30 2085 H 206.215 -2.99381 -2.80712 0
M  V30 2086 H 205.746 -1.50137 -3.63624 0
M  V30 2087 H 207.761 -1.10981 -4.8363 0
M  V30 2088 N 206.934 1.1197 -1.10907 0
M  V30 2089 C 207.866 2.17592 -0.720175 0
M  V30 2090 C 208.879 1.60938 0.245495 0
M  V30 2091 O 210.068 1.78476 0.0292245 0
M  V30 2092 C 207.168 3.38873 -0.0427917 0
M  V30 2093 C 206.341 4.25006 -1.03388 0
M  V30 2094 C 205.4 5.24774 -0.387075 0
M  V30 2095 O 204.426 5.59631 -1.03934 0
M  V30 2096 N 205.628 5.74208 0.852407 0
M  V30 2097 H 208.393 2.51567 -1.62893 0
M  V30 2098 H 205.954 1.27439 -0.998543 0
M  V30 2099 H 207.946 4.02703 0.401501 0
M  V30 2100 H 206.516 3.03007 0.768456 0
M  V30 2101 H 205.736 3.57716 -1.65629 0
M  V30 2102 H 207.024 4.79397 -1.70458 0
M  V30 2103 H 206.422 5.48062 1.40161 0
M  V30 2104 H 204.979 6.39901 1.23977 0
M  V30 2105 N 208.412 0.89855 1.29475 0
M  V30 2106 C 209.642 0.538479 1.99459 0
M  V30 2107 C 210.05 -0.880922 1.67441 0
M  V30 2108 O 209.393 -1.59283 0.915127 0
M  V30 2109 C 209.455 0.649564 3.53583 0
M  V30 2110 C 209.119 2.03573 4.09154 0
M  V30 2111 C 210.116 3.00675 4.24135 0
M  V30 2112 C 207.801 2.3448 4.44212 0
M  V30 2113 C 209.795 4.26809 4.73405 0
M  V30 2114 C 207.482 3.60857 4.93179 0
M  V30 2115 C 208.48 4.56836 5.0773 0
M  V30 2116 O 208.168 5.80969 5.55635 0
M  V30 2117 H 207.9 0.205372 0.644048 0
M  V30 2118 H 210.454 1.20958 1.66007 0
M  V30 2119 H 208.684 -0.0785592 3.8662 0
M  V30 2120 H 210.373 0.29881 4.04799 0
M  V30 2121 H 211.139 2.78112 3.97339 0
M  V30 2122 H 207.018 1.60534 4.32145 0
M  V30 2123 H 210.562 5.0173 4.84678 0
M  V30 2124 H 206.459 3.83251 5.19412 0
M  V30 2125 H 207.227 5.83542 5.73952 0
M  V30 2126 N 209.89 -1.43072 0.660911 0
M  V30 2127 C 211.13 -2.03596 0.181146 0
M  V30 2128 C 211.494 -1.51057 -1.18515 0
M  V30 2129 O 212.695 -2.03275 -1.75877 0
M  V30 2130 C 210.966 -3.56845 0.19911 0
M  V30 2131 S 212.525 -4.38289 -0.211684 0
M  V30 2132 H 209.343 -0.706954 0.0757479 0
M  V30 2133 H 211.945 -1.75027 0.870965 0
M  V30 2134 H 210.649 -3.92583 1.1961 0
M  V30 2135 H 210.18 -3.90067 -0.510996 0
M  V30 2136 H 212.195 -4.74583 -1.44863 0
M  V30 2137 N 211.368 -0.403325 -1.52352 0
M  V30 2138 C 212.784 -0.0539281 -1.59509 0
M  V30 2139 C 212.984 1.43307 -1.41652 0
M  V30 2140 O 212.04 2.19924 -1.24056 0
M  V30 2141 C 213.353 -0.543654 -2.95745 0
M  V30 2142 C 214.901 -0.501125 -3.08962 0
M  V30 2143 C 215.376 -0.967267 -4.47669 0
M  V30 2144 N 216.867 -0.923849 -4.53893 0
M  V30 2145 C 217.602 -1.25578 -5.5948 0
M  V30 2146 N 217.098 -1.65889 -6.72646 0
M  V30 2147 N 218.891 -1.17613 -5.49658 0
M  V30 2148 H 211.042 -1.37123 -1.62206 0
M  V30 2149 H 213.305 -0.56294 -0.76276 0
M  V30 2150 H 213.011 -1.58275 -3.14073 0
M  V30 2151 H 212.885 0.0498042 -3.77167 0
M  V30 2152 H 215.272 0.528909 -2.90321 0
M  V30 2153 H 215.353 -1.13056 -2.2946 0
M  V30 2154 H 214.997 -1.9956 -4.67053 0
M  V30 2155 H 214.927 -0.314698 -5.25659 0
M  V30 2156 H 217.418 -0.627403 -3.72655 0
M  V30 2157 H 217.731 -1.89543 -7.49195 0
M  V30 2158 H 216.076 -1.69787 -6.73942 0
M  V30 2159 H 219.267 -0.860115 -4.6013 0
M  V30 2160 H 219.44 -1.43812 -6.3184 0
M  V30 2161 N 212.846 1.57033 -0.133567 0
M  V30 2162 C 213.776 2.1909 0.807567 0
M  V30 2163 C 214.757 1.13517 1.26681 0
M  V30 2164 O 215.942 1.41809 1.32679 0
M  V30 2165 C 213.072 2.80188 2.05212 0
M  V30 2166 C 212.026 3.91471 1.73015 0
M  V30 2167 C 211.352 4.39443 3.04622 0
M  V30 2168 C 212.652 5.12886 0.987168 0
M  V30 2169 H 214.346 2.97988 0.290403 0
M  V30 2170 H 211.892 1.43335 0.138239 0
M  V30 2171 H 213.845 3.22264 2.71521 0
M  V30 2172 H 212.569 1.98601 2.59278 0
M  V30 2173 H 211.228 3.49993 1.0909 0
M  V30 2174 H 210.876 3.54695 3.56651 0
M  V30 2175 H 210.576 5.14495 2.83847 0
M  V30 2176 H 212.1 4.8418 3.72024 0
M  V30 2177 H 213.514 5.51891 1.55208 0
M  V30 2178 H 211.911 5.93615 0.87985 0
M  V30 2179 H 212.981 4.84894 -0.0235286 0
M  V30 2180 N 214.325 -0.140222 1.56975 0
M  V30 2181 C 215.257 -1.19818 1.95388 0
M  V30 2182 C 216.27 -1.38816 0.850525 0
M  V30 2183 O 217.459 -1.38267 1.12891 0
M  V30 2184 C 214.559 -2.56189 2.21857 0
M  V30 2185 C 213.732 -2.58077 3.5315 0
M  V30 2186 C 212.791 -3.76037 3.6808 0
M  V30 2187 O 211.817 -3.60598 4.40406 0
M  V30 2188 N 213.019 -4.93763 3.05251 0
M  V30 2189 H 215.784 -0.871609 2.86746 0
M  V30 2190 H 213.345 -0.32972 1.58507 0
M  V30 2191 H 215.337 -3.33623 2.2908 0
M  V30 2192 H 213.907 -2.81111 1.36731 0
M  V30 2193 H 213.127 -1.6651 3.57307 0
M  V30 2194 H 214.415 -2.56377 4.39486 0
M  V30 2195 H 213.813 -5.09209 2.46419 0
M  V30 2196 H 212.37 -5.68949 3.18026 0
M  V30 2197 N 215.803 -1.52179 -0.40978 0
M  V30 2198 C 216.75 -1.75475 -1.49924 0
M  V30 2199 C 217.72 -0.597175 -1.54994 0
M  V30 2200 O 218.905 -0.834655 -1.71575 0
M  V30 2201 C 216.045 -1.9107 -2.87378 0
M  V30 2202 C 215.158 -3.18717 -2.91622 0
M  V30 2203 C 214.293 -3.24747 -4.20372 0
M  V30 2204 C 213.332 -4.46598 -4.18588 0
M  V30 2205 N 212.469 -4.50025 -5.38908 0
M  V30 2206 H 217.309 -2.68458 -1.29361 0
M  V30 2207 H 214.846 -1.33024 -0.627934 0
M  V30 2208 H 216.804 -1.98096 -3.6717 0
M  V30 2209 H 215.434 -1.01469 -3.06437 0
M  V30 2210 H 214.486 -3.20866 -2.04326 0
M  V30 2211 H 215.798 -4.08544 -2.86169 0
M  V30 2212 H 214.952 -3.30841 -5.08556 0
M  V30 2213 H 213.691 -2.32857 -4.28519 0
M  V30 2214 H 212.696 -4.40652 -3.28794 0
M  V30 2215 H 213.921 -5.39783 -4.12081 0
M  V30 2216 H 211.867 -3.61017 -5.47725 0
M  V30 2217 H 211.784 -5.33697 -5.35447 0
M  V30 2218 H 213.052 -4.60347 -6.29048 0
M  V30 2219 N 217.281 0.66697 -1.42791 0
M  V30 2220 C 218.521 1.43892 -1.4517 0
M  V30 2221 C 218.885 1.91877 -0.0687551 0
M  V30 2222 O 220.086 2.6878 0.0327455 0
M  V30 2223 C 218.357 2.59839 -2.45395 0
M  V30 2224 S 219.916 3.48572 -2.66539 0
M  V30 2225 H 216.734 0.491356 -0.513897 0
M  V30 2226 H 219.336 0.775656 -1.79454 0
M  V30 2227 H 218.04 2.22838 -3.44632 0
M  V30 2228 H 217.571 3.3103 -2.12562 0
M  V30 2229 H 219.586 4.56094 -1.95429 0
M  V30 2230 N 218.759 1.29093 0.90403 0
M  V30 2231 C 220.006 1.16813 1.65411 0
M  V30 2232 C 220.334 -0.28128 1.92455 0
M  V30 2233 O 219.589 -1.22006 1.53013 0
M  V30 2234 C 219.888 1.92224 3.01305 0
M  V30 2235 C 219.554 3.41968 2.93885 0
M  V30 2236 C 218.216 3.82807 2.91569 0
M  V30 2237 C 220.568 4.37409 2.83413 0
M  V30 2238 C 217.896 5.1741 2.76594 0
M  V30 2239 C 220.248 5.72097 2.69977 0
M  V30 2240 C 218.912 6.12199 2.66024 0
M  V30 2241 H 218.182 0.42745 0.605283 0
M  V30 2242 H 220.829 1.59981 1.05254 0
M  V30 2243 H 219.134 1.41635 3.65304 0
M  V30 2244 H 220.831 1.80131 3.58265 0
M  V30 2245 H 217.421 3.09504 2.96488 0
M  V30 2246 H 221.605 4.06813 2.84283 0
M  V30 2247 H 216.861 5.47596 2.71935 0
M  V30 2248 H 221.035 6.45704 2.60844 0
M  V30 2249 H 218.662 7.16448 2.54178 0
M  V30 2250 N 220.237 -1.11381 1.11499 0
M  V30 2251 C 221.147 -2.21019 0.786628 0
M  V30 2252 C 222.163 -1.72597 -0.220507 0
M  V30 2253 O 223.339 -2.01321 -0.0565251 0
M  V30 2254 C 220.404 -3.459 0.235333 0
M  V30 2255 C 219.465 -4.09107 1.30115 0
M  V30 2256 C 218.698 -5.28027 0.776068 0
M  V30 2257 O 218.921 -5.6904 -0.393661 0
M  V30 2258 O 217.855 -5.81835 1.54114 0
M  V30 2259 H 221.681 -2.51521 1.70209 0
M  V30 2260 H 219.266 -1.19928 0.890928 0
M  V30 2261 H 221.148 -4.21346 -0.067715 0
M  V30 2262 H 219.823 -3.17049 -0.652828 0
M  V30 2263 H 218.73 -3.35391 1.65722 0
M  V30 2264 H 220.063 -4.42139 2.16273 0
M  V30 2265 N 221.715 -0.905404 -1.28997 0
M  V30 2266 C 222.961 -0.535039 -1.95615 0
M  V30 2267 C 223.294 0.917404 -1.71165 0
M  V30 2268 O 222.569 1.65123 -1.02785 0
M  V30 2269 C 222.852 -0.834918 -3.50287 0
M  V30 2270 C 222.705 -2.33948 -3.84172 0
M  V30 2271 C 224.024 -0.325318 -4.38896 0
M  V30 2272 H 221.143 -0.195861 -0.710498 0
M  V30 2273 H 223.785 -1.13313 -1.52513 0
M  V30 2274 H 221.935 -0.325904 -3.87131 0
M  V30 2275 H 223.607 -2.91847 -3.57243 0
M  V30 2276 H 221.85 -2.79789 -3.31513 0
M  V30 2277 H 222.521 -2.49987 -4.92149 0
M  V30 2278 H 224.997 -0.761256 -4.09077 0
M  V30 2279 H 223.873 -0.564295 -5.45992 0
M  V30 2280 H 224.134 0.774144 -4.35269 0
M  V30 2281 N 223.193 1.4272 -0.668489 0
M  V30 2282 C 224.441 2.01226 -0.187769 0
M  V30 2283 C 224.762 1.53092 1.2078 0
M  V30 2284 O 224.032 0.74993 1.80977 0
M  V30 2285 H 222.612 0.744041 -0.0664272 0
M  V30 2286 H 225.274 1.74723 -0.863583 0
M  V30 2287 H 224.37 3.11556 -0.184166 0
M  V30 2288 N 224.671 0.411399 1.52136 0
M  V30 2289 C 225.604 -0.457614 2.23565 0
M  V30 2290 C 226.582 -1.04613 1.24478 0
M  V30 2291 O 227.766 -1.09356 1.53536 0
M  V30 2292 C 224.893 -1.6354 2.96602 0
M  V30 2293 C 223.939 -1.17005 4.10137 0
M  V30 2294 S 224.772 -0.13333 5.35334 0
M  V30 2295 C 225.928 -1.31638 6.119 0
M  V30 2296 H 226.161 0.148883 2.96927 0
M  V30 2297 H 223.694 0.195713 1.53155 0
M  V30 2298 H 225.652 -2.31074 3.39286 0
M  V30 2299 H 224.313 -2.21324 2.22878 0
M  V30 2300 H 223.506 -2.05005 4.60422 0
M  V30 2301 H 223.108 -0.573319 3.6958 0
M  V30 2302 H 225.4 -2.23957 6.39413 0
M  V30 2303 H 226.343 -0.854014 7.02931 0
M  V30 2304 H 226.751 -1.54321 5.42997 0
M  V30 2305 N 226.149 -1.5696 0.141893 0
M  V30 2306 C 227.374 -2.00754 -0.520838 0
M  V30 2307 C 227.799 -1.0213 -1.57959 0
M  V30 2308 O 227.157 0.00371324 -1.813 0
M  V30 2309 C 227.205 -3.43318 -1.10294 0
M  V30 2310 O 226.309 -3.47679 -2.21795 0
M  V30 2311 H 225.65 -0.651564 -0.127908 0
M  V30 2312 H 228.18 -2.03221 0.23712 0
M  V30 2313 H 228.19 -3.82012 -1.43287 0
M  V30 2314 H 226.865 -4.14608 -0.327574 0
M  V30 2315 H 225.442 -3.20824 -1.9007 0
M  V30 2316 N 227.627 0.131896 -1.57047 0
M  V30 2317 C 228.574 1.16236 -1.99393 0
M  V30 2318 C 229.544 1.41863 -0.863943 0
M  V30 2319 O 230.729 1.53946 -1.12718 0
M  V30 2320 C 227.869 2.48708 -2.39245 0
M  V30 2321 C 226.982 2.30127 -3.65603 0
M  V30 2322 C 226.117 3.55738 -3.94492 0
M  V30 2323 C 225.156 3.32259 -5.14073 0
M  V30 2324 N 224.293 4.50039 -5.38896 0
M  V30 2325 H 229.133 0.794251 -2.87221 0
M  V30 2326 H 226.67 0.380707 -1.42088 0
M  V30 2327 H 228.628 3.25969 -2.60384 0
M  V30 2328 H 227.258 2.83437 -1.54478 0
M  V30 2329 H 226.31 1.43845 -3.52154 0
M  V30 2330 H 227.622 2.08746 -4.5302 0
M  V30 2331 H 226.776 4.41423 -4.1621 0
M  V30 2332 H 225.515 3.80138 -3.05526 0
M  V30 2333 H 224.52 2.44963 -4.92212 0
M  V30 2334 H 225.745 3.09242 -6.04604 0
M  V30 2335 H 223.691 4.74584 -4.52886 0
M  V30 2336 H 223.608 4.31716 -6.2061 0
M  V30 2337 H 224.876 5.36895 -5.65123 0
M  V30 2338 N 229.106 1.52395 0.401703 0
M  V30 2339 C 230.016 1.7917 1.51444 0
M  V30 2340 C 231.032 0.677691 1.6026 0
M  V30 2341 O 232.208 0.963909 1.76835 0
M  V30 2342 C 229.273 1.94347 2.87107 0
M  V30 2343 C 228.334 3.18257 2.88116 0
M  V30 2344 C 227.567 3.32701 4.17308 0
M  V30 2345 O 227.79 2.52238 5.11598 0
M  V30 2346 O 226.724 4.25891 4.25324 0
M  V30 2347 H 230.55 2.73633 1.31752 0
M  V30 2348 H 228.135 1.3733 0.588296 0
M  V30 2349 H 230.017 2.06109 3.67555 0
M  V30 2350 H 228.692 1.03073 3.06851 0
M  V30 2351 H 227.599 3.11947 2.06494 0
M  V30 2352 H 228.932 4.09336 2.73322 0
M  V30 2353 N 230.584 -0.659388 1.43143 0
M  V30 2354 C 231.809 -1.45221 1.48073 0
M  V30 2355 C 232.234 -1.87845 0.097995 0
M  V30 2356 O 231.592 -1.56985 -0.90694 0
M  V30 2357 C 231.64 -2.66748 2.42647 0
M  V30 2358 O 230.744 -3.65583 1.90848 0
M  V30 2359 H 230.085 -0.435669 0.501088 0
M  V30 2360 H 232.615 -0.807432 1.87994 0
M  V30 2361 H 232.625 -3.14637 2.59745 0
M  V30 2362 H 231.3 -2.35067 3.43098 0
M  V30 2363 H 229.877 -3.24693 1.83381 0
M  V30 2364 N 232.062 -1.29571 -0.897171 0
M  V30 2365 C 233.308 -1.17863 -1.65034 0
M  V30 2366 C 233.641 0.268729 -1.92332 0
M  V30 2367 O 232.916 1.19378 -1.53555 0
M  V30 2368 C 233.199 -1.995 -2.99786 0
M  V30 2369 C 233.052 -3.5239 -2.79538 0
M  V30 2370 C 234.371 -1.82335 -4.00552 0
M  V30 2371 H 231.49 -0.429528 -0.598895 0
M  V30 2372 H 234.132 -1.59072 -1.03905 0
M  V30 2373 H 232.282 -1.64485 -3.51962 0
M  V30 2374 H 233.954 -3.97401 -2.34244 0
M  V30 2375 H 232.197 -3.77187 -2.14273 0
M  V30 2376 H 232.868 -4.04787 -3.75302 0
M  V30 2377 H 235.344 -2.12924 -3.57495 0
M  V30 2378 H 234.22 -2.41801 -4.92771 0
M  V30 2379 H 234.481 -0.779209 -4.35179 0
M  V30 2380 N 233.54 1.10788 -1.12088 0
M  V30 2381 C 234.956 1.34691 -0.856186 0
M  V30 2382 C 235.156 1.94791 0.515615 0
M  V30 2383 O 234.212 2.18524 1.26505 0
M  V30 2384 C 235.525 2.27208 -1.9697 0
M  V30 2385 C 237.073 2.40755 -2.00016 0
M  V30 2386 C 237.548 3.36598 -3.1059 0
M  V30 2387 N 239.039 3.44164 -3.10008 0
M  V30 2388 C 239.774 4.18284 -3.92206 0
M  V30 2389 N 239.27 4.95322 -4.84384 0
M  V30 2390 N 241.063 4.13865 -3.80357 0
M  V30 2391 H 233.214 0.70144 -2.00483 0
M  V30 2392 H 235.477 0.371405 -0.872217 0
M  V30 2393 H 235.183 1.90251 -2.958 0
M  V30 2394 H 235.057 3.27485 -1.87172 0
M  V30 2395 H 237.444 2.76982 -1.01808 0
M  V30 2396 H 237.525 1.40305 -2.13888 0
M  V30 2397 H 237.169 3.01096 -4.09028 0
M  V30 2398 H 237.099 4.36918 -2.93956 0
M  V30 2399 H 239.59 2.8922 -2.43228 0
M  V30 2400 H 239.903 5.49267 -5.43623 0
M  V30 2401 H 238.248 4.94459 -4.884 0
M  V30 2402 H 241.439 3.52773 -3.07683 0
M  V30 2403 H 241.612 4.71372 -4.44649 0
M  V30 2404 N 235.018 0.912232 1.28515 0
M  V30 2405 C 235.966 0.389597 2.29314 0
M  V30 2406 C 236.96 -0.517915 1.61289 0
M  V30 2407 O 238.166 -0.399328 1.75515 0
M  V30 2408 H 234.541 0.107386 0.744293 0
M  V30 2409 H 236.512 1.25286 2.70825 0
M  V30 2410 C 235.261 -0.356496 3.45868 0
M  V30 2411 H 234.584 0.332608 3.98414 0
M  V30 2412 H 236.024 -0.686851 4.184 0
M  V30 2413 C 234.483 -1.56383 2.98406 0
M  V30 2414 O 235.013 -2.66294 3.00749 0
M  V30 2415 N 233.219 -1.41029 2.54085 0
M  V30 2416 H 232.766 -0.516089 2.52377 0
M  V30 2417 H 232.724 -2.21939 2.22689 0
M  V30 2418 N 236.496 -1.42363 0.676048 0
M  V30 2419 C 237.773 -1.95183 0.127726 0
M  V30 2420 C 238.153 -1.61641 -1.35777 0
M  V30 2421 O 237.501 -0.913216 -2.09458 0
M  V30 2422 C 237.711 -3.46721 0.398199 0
M  V30 2423 C 239.059 -4.23427 0.315383 0
M  V30 2424 O 240.083 -3.54649 0.332016 0
M  V30 2425 O 238.942 -5.45888 0.25865 0
M  V30 2426 H 236.036 -0.826992 0.00359427 0
M  V30 2427 H 238.582 -1.52184 0.750864 0
M  V30 2428 H 237.354 -3.64344 1.4272 0
M  V30 2429 H 236.977 -3.96769 -0.256885 0
M  V30 2430 N 237.974 -0.419461 -1.51915 0
M  V30 2431 C 239.39 -0.0708431 -1.59443 0
M  V30 2432 C 239.59 1.41796 -1.43164 0
M  V30 2433 O 238.646 2.18596 -1.26381 0
M  V30 2434 C 239.959 -0.574991 -2.95151 0
M  V30 2435 C 241.507 -0.533867 -3.08413 0
M  V30 2436 C 241.982 -1.01469 -4.46618 0
M  V30 2437 N 243.473 -0.971939 -4.52888 0
M  V30 2438 C 244.208 -1.31505 -5.58116 0
M  V30 2439 N 243.704 -1.73014 -6.70849 0
M  V30 2440 N 245.497 -1.23436 -5.48379 0
M  V30 2441 H 237.648 -1.38836 -1.60743 0
M  V30 2442 H 239.911 -0.570998 -0.756747 0
M  V30 2443 H 239.617 -1.61597 -3.12377 0
M  V30 2444 H 239.491 0.00979777 -3.77199 0
M  V30 2445 H 241.878 0.498086 -2.90866 0
M  V30 2446 H 241.959 -1.15484 -2.28248 0
M  V30 2447 H 241.603 -2.04502 -4.6491 0
M  V30 2448 H 241.533 -0.370433 -5.25295 0
M  V30 2449 H 244.024 -0.666893 -3.71969 0
M  V30 2450 H 244.337 -1.97479 -7.47143 0
M  V30 2451 H 242.682 -1.76926 -6.72103 0
M  V30 2452 H 245.873 -0.908869 -4.59192 0
M  V30 2453 H 246.046 -1.50506 -6.30279 0
M  V30 2454 N 239.452 1.56882 -0.150215 0
M  V30 2455 C 240.4 2.18214 0.805313 0
M  V30 2456 C 241.394 1.14006 1.25296 0
M  V30 2457 O 242.6 1.3225 1.22107 0
M  V30 2458 H 238.975 0.698762 0.277913 0
M  V30 2459 H 240.946 2.97231 0.263862 0
M  V30 2460 C 239.695 2.82065 2.03309 0
M  V30 2461 H 239.018 3.61968 1.69763 0
M  V30 2462 H 240.458 3.28477 2.68103 0
M  V30 2463 C 238.917 1.80739 2.84315 0
M  V30 2464 O 239.447 1.27983 3.80767 0
M  V30 2465 N 237.653 1.4997 2.48913 0
M  V30 2466 H 237.2 1.93062 1.70542 0
M  V30 2467 H 237.158 0.824217 3.03404 0
M  V30 2468 N 240.93 -0.123565 1.57115 0
M  V30 2469 C 241.877 -1.15177 2.00007 0
M  V30 2470 C 242.847 -1.41403 0.871454 0
M  V30 2471 O 244.032 -1.53346 1.13533 0
M  V30 2472 C 241.172 -2.47436 2.40561 0
M  V30 2473 C 240.285 -2.28184 3.66819 0
M  V30 2474 C 239.42 -3.53641 3.96373 0
M  V30 2475 C 238.459 -3.29528 5.15827 0
M  V30 2476 N 237.596 -4.47175 5.41275 0
M  V30 2477 H 242.436 -0.779008 2.87638 0
M  V30 2478 H 239.973 -0.373166 1.42288 0
M  V30 2479 H 241.931 -3.24584 2.62109 0
M  V30 2480 H 240.561 -2.82614 1.55978 0
M  V30 2481 H 239.613 -1.41976 3.52912 0
M  V30 2482 H 240.925 -2.0634 4.5412 0
M  V30 2483 H 240.079 -4.39209 4.18545 0
M  V30 2484 H 238.818 -3.78512 3.07538 0
M  V30 2485 H 237.823 -2.42349 4.93505 0
M  V30 2486 H 239.048 -3.06031 6.06236 0
M  V30 2487 H 236.994 -4.72175 4.55397 0
M  V30 2488 H 236.911 -4.28419 6.22891 0
M  V30 2489 H 238.179 -5.3389 5.67963 0
M  V30 2490 N 242.408 -1.52605 -0.393616 0
M  V30 2491 C 243.355 -1.77055 -1.48054 0
M  V30 2492 C 244.325 -0.61358 -1.54352 0
M  V30 2493 O 245.51 -0.852806 -1.70681 0
M  V30 2494 C 242.65 -1.94108 -2.85335 0
M  V30 2495 C 241.763 -3.21792 -2.88226 0
M  V30 2496 C 240.898 -3.29188 -4.16904 0
M  V30 2497 C 239.937 -4.51013 -4.13828 0
M  V30 2498 N 239.074 -4.55716 -5.34105 0
M  V30 2499 H 243.914 -2.69815 -1.26506 0
M  V30 2500 H 241.451 -1.33683 -0.61379 0
M  V30 2501 H 243.409 -2.01979 -3.65049 0
M  V30 2502 H 242.039 -1.04713 -3.05344 0
M  V30 2503 H 241.091 -3.23015 -2.00911 0
M  V30 2504 H 242.403 -4.11557 -2.8182 0
M  V30 2505 H 241.557 -3.36216 -5.05018 0
M  V30 2506 H 240.296 -2.37389 -4.26026 0
M  V30 2507 H 239.301 -4.44115 -3.24102 0
M  V30 2508 H 240.526 -5.44123 -4.06333 0
M  V30 2509 H 238.472 -3.66807 -5.43865 0
M  V30 2510 H 238.389 -5.39346 -5.29756 0
M  V30 2511 H 239.657 -4.66993 -6.2413 0
M  V30 2512 N 243.887 0.651787 -1.4349 0
M  V30 2513 C 244.834 1.76462 -1.4876 0
M  V30 2514 C 245.804 1.62641 -0.337189 0
M  V30 2515 O 246.989 1.82864 -0.544544 0
M  V30 2516 C 244.129 3.14623 -1.41796 0
M  V30 2517 C 243.242 3.39568 -2.67053 0
M  V30 2518 C 242.377 4.67585 -2.52068 0
M  V30 2519 C 241.416 4.85639 -3.72587 0
M  V30 2520 N 240.553 6.04915 -3.56402 0
M  V30 2521 H 245.393 1.71293 -2.43849 0
M  V30 2522 H 242.93 0.835889 -1.21043 0
M  V30 2523 H 244.888 3.94496 -1.35753 0
M  V30 2524 H 243.518 3.18859 -0.50288 0
M  V30 2525 H 242.57 2.53783 -2.8337 0
M  V30 2526 H 243.882 3.48795 -3.56572 0
M  V30 2527 H 243.036 5.55586 -2.4374 0
M  V30 2528 H 241.775 4.60681 -1.60075 0
M  V30 2529 H 240.78 3.96073 -3.81321 0
M  V30 2530 H 242.005 4.94372 -4.65589 0
M  V30 2531 H 239.951 5.9914 -2.67146 0
M  V30 2532 H 239.868 6.15106 -4.39524 0
M  V30 2533 H 241.136 6.95533 -3.51929 0
M  V30 2534 N 245.365 1.30045 0.890287 0
M  V30 2535 C 246.312 1.15976 1.99545 0
M  V30 2536 C 247.282 0.0506202 1.66023 0
M  V30 2537 O 248.467 0.219847 1.89529 0
M  V30 2538 C 245.607 0.852054 3.34416 0
M  V30 2539 C 244.72 2.04255 3.80662 0
M  V30 2540 C 243.855 1.6734 5.04154 0
M  V30 2541 C 242.894 2.82916 5.42794 0
M  V30 2542 N 242.031 2.46333 6.57468 0
M  V30 2543 H 246.871 2.10524 2.10911 0
M  V30 2544 H 244.408 1.04749 1.03276 0
M  V30 2545 H 246.366 0.654296 4.12037 0
M  V30 2546 H 244.996 -0.0565502 3.2275 0
M  V30 2547 H 244.048 2.35172 2.98995 0
M  V30 2548 H 245.36 2.90826 4.05242 0
M  V30 2549 H 244.514 1.43908 5.89386 0
M  V30 2550 H 243.253 0.779308 4.81433 0
M  V30 2551 H 242.258 3.0702 4.56091 0
M  V30 2552 H 243.483 3.73004 5.6749 0
M  V30 2553 H 241.429 1.59423 6.36334 0
M  V30 2554 H 241.346 3.26436 6.81891 0
M  V30 2555 H 242.614 2.26244 7.45945 0
M  V30 2556 N 246.843 -1.10192 1.12674 0
M  V30 2557 C 247.753 -2.20172 0.810026 0
M  V30 2558 C 248.769 -1.72821 -0.202188 0
M  V30 2559 O 249.945 -2.01369 -0.0351691 0
M  V30 2560 C 247.01 -3.45631 0.272007 0
M  V30 2561 C 246.071 -4.07704 1.34447 0
M  V30 2562 C 245.304 -5.27175 0.832029 0
M  V30 2563 O 245.527 -5.69425 -0.333284 0
M  V30 2564 O 244.461 -5.80168 1.60277 0
M  V30 2565 H 248.287 -2.49701 1.72867 0
M  V30 2566 H 245.872 -1.18977 0.903597 0
M  V30 2567 H 247.754 -4.21394 -0.0230219 0
M  V30 2568 H 246.429 -3.17723 -0.619164 0
M  V30 2569 H 245.336 -3.33614 1.6927 0
M  V30 2570 H 246.669 -4.3982 2.2095 0
M  V30 2571 N 248.321 -0.919034 -1.28029 0
M  V30 2572 C 249.567 -0.555757 -1.95036 0
M  V30 2573 C 249.9 0.899198 -1.72128 0
M  V30 2574 O 249.175 1.64023 -1.04531 0
M  V30 2575 C 249.458 -0.872024 -3.49382 0
M  V30 2576 C 249.311 -2.3801 -3.81669 0
M  V30 2577 C 250.63 -0.37185 -4.38526 0
M  V30 2578 H 247.749 -0.203386 -0.708381 0
M  V30 2579 H 250.391 -1.14924 -1.51303 0
M  V30 2580 H 248.541 -0.366946 -3.86763 0
M  V30 2581 H 250.213 -2.9562 -3.54128 0
M  V30 2582 H 248.456 -2.83289 -3.28526 0
M  V30 2583 H 249.127 -2.55192 -4.8947 0
M  V30 2584 H 251.603 -0.804602 -4.08247 0
M  V30 2585 H 250.479 -0.622173 -5.45362 0
M  V30 2586 H 250.74 0.727934 -4.36066 0
M  V30 2587 N 249.799 1.42003 -0.683588 0
M  V30 2588 C 251.21 1.84501 -0.285736 0
M  V30 2589 C 251.561 1.57213 1.17382 0
M  V30 2590 O 250.686 1.03642 1.89966 0
M  V30 2591 C 251.281 3.34912 -0.511821 0
M  V30 2592 C 249.84 3.76025 -0.168005 0
M  V30 2593 C 248.987 2.6551 -0.799983 0
M  V30 2594 H 251.938 1.31724 -0.885119 0
M  V30 2595 H 251.959 3.79784 0.233292 0
M  V30 2596 H 251.471 3.54741 -1.57418 0
M  V30 2597 H 249.572 3.61801 0.890567 0
M  V30 2598 H 249.685 4.75141 -0.614661 0
M  V30 2599 H 248.049 2.53654 -0.230568 0
M  V30 2600 H 248.832 2.8816 -1.86597 0
M  V30 2601 N 251.277 0.427512 1.51691 0
M  V30 2602 C 252.224 -0.388867 2.275 0
M  V30 2603 C 253.194 -1.02532 1.30677 0
M  V30 2604 O 254.379 -1.0461 1.59566 0
M  V30 2605 C 251.519 -1.48954 3.11298 0
M  V30 2606 C 250.632 -0.872194 4.23104 0
M  V30 2607 C 249.767 -1.94709 4.94228 0
M  V30 2608 C 248.806 -1.30766 5.97969 0
M  V30 2609 N 247.943 -2.32349 6.62539 0
M  V30 2610 H 252.783 0.263997 2.96828 0
M  V30 2611 H 250.32 0.142033 1.46413 0
M  V30 2612 H 252.278 -2.13887 3.58201 0
M  V30 2613 H 250.908 -2.11217 2.44105 0
M  V30 2614 H 249.96 -0.111419 3.80237 0
M  V30 2615 H 251.272 -0.365264 4.97461 0
M  V30 2616 H 250.426 -2.67327 5.44629 0
M  V30 2617 H 249.165 -2.48773 4.1948 0
M  V30 2618 H 248.17 -0.566902 5.4687 0
M  V30 2619 H 249.395 -0.774483 6.74669 0
M  V30 2620 H 247.341 -2.85511 5.90609 0
M  V30 2621 H 247.258 -1.8652 7.3263 0
M  V30 2622 H 248.526 -3.04481 7.17574 0
M  V30 2623 N 252.755 -1.56801 0.158532 0
M  V30 2624 C 254.166 -1.83189 -0.360366 0
M  V30 2625 C 254.517 -1.07778 -1.63946 0
M  V30 2626 O 253.642 -0.326718 -2.13919 0
M  V30 2627 C 254.237 -3.32297 -0.660595 0
M  V30 2628 C 252.796 -3.59227 -1.12398 0
M  V30 2629 C 251.943 -2.76877 -0.153097 0
M  V30 2630 H 254.894 -1.54008 0.383031 0
M  V30 2631 H 254.915 -3.4908 -1.51405 0
M  V30 2632 H 254.427 -3.87156 0.270527 0
M  V30 2633 H 252.528 -3.09766 -2.07064 0
M  V30 2634 H 252.641 -4.67632 -1.04197 0
M  V30 2635 H 251.005 -2.46319 -0.647983 0
M  V30 2636 H 251.788 -3.34511 0.77182 0
M  V30 2637 N 254.233 0.115231 -1.57178 0
M  V30 2638 C 255.143 1.15994 -2.03918 0
M  V30 2639 C 256.159 1.45103 -0.960268 0
M  V30 2640 O 257.335 1.56144 -1.27204 0
M  V30 2641 C 254.4 2.46568 -2.43732 0
M  V30 2642 C 253.461 2.24822 -3.65723 0
M  V30 2643 C 252.694 3.4917 -4.03629 0
M  V30 2644 O 252.917 4.56623 -3.41835 0
M  V30 2645 O 251.851 3.39949 -4.96708 0
M  V30 2646 H 255.677 0.793019 -2.93164 0
M  V30 2647 H 253.262 0.3263 -1.45793 0
M  V30 2648 H 255.144 3.23492 -2.70057 0
M  V30 2649 H 253.819 2.82726 -1.57631 0
M  V30 2650 H 252.726 1.45744 -3.44542 0
M  V30 2651 H 254.059 1.93566 -4.52541 0
M  V30 2652 N 255.711 1.52812 0.385517 0
M  V30 2653 C 256.951 1.69716 1.13911 0
M  V30 2654 C 257.315 0.42962 1.87132 0
M  V30 2655 O 258.516 0.475071 2.64569 0
M  V30 2656 C 256.787 2.90021 2.0886 0
M  V30 2657 S 258.346 3.27531 2.92009 0
M  V30 2658 H 255.164 0.59739 0.385547 0
M  V30 2659 H 257.766 1.90868 0.423061 0
M  V30 2660 H 256.47 3.80493 1.53797 0
M  V30 2661 H 256.001 2.71213 2.84969 0
M  V30 2662 H 258.016 2.77989 4.11019 0
M  V30 2663 N 257.189 -0.644168 1.43834 0
M  V30 2664 C 258.414 -1.43642 1.49605 0
M  V30 2665 C 258.839 -1.8773 0.117913 0
M  V30 2666 O 258.197 -1.57938 -0.890239 0
M  V30 2667 C 258.245 -2.6416 2.45463 0
M  V30 2668 O 257.349 -3.63538 1.94714 0
M  V30 2669 H 256.69 -0.430329 0.50568 0
M  V30 2670 H 259.22 -0.787448 1.8884 0
M  V30 2671 H 259.23 -3.11864 2.63068 0
M  V30 2672 H 257.905 -2.31414 3.45572 0
M  V30 2673 H 256.482 -3.2273 1.86814 0
M  V30 2674 N 258.668 -1.30515 -0.883378 0
M  V30 2675 C 259.578 -1.18959 -2.02203 0
M  V30 2676 C 260.594 -0.109172 -1.73657 0
M  V30 2677 O 261.77 -0.324413 -1.9877 0
M  V30 2678 C 258.835 -0.883871 -3.35244 0
M  V30 2679 C 257.896 -2.04982 -3.77201 0
M  V30 2680 C 257.129 -1.75859 -5.03894 0
M  V30 2681 O 257.352 -0.687276 -5.66244 0
M  V30 2682 O 256.286 -2.61146 -5.42297 0
M  V30 2683 H 260.112 -2.14616 -2.1488 0
M  V30 2684 H 257.697 -1.10124 -1.0096 0
M  V30 2685 H 259.579 -0.728644 -4.15053 0
M  V30 2686 H 258.254 0.0427798 -3.23672 0
M  V30 2687 H 257.161 -2.26038 -2.9809 0
M  V30 2688 H 258.494 -2.95825 -3.93381 0
M  V30 2689 N 260.146 1.09593 -1.13257 0
M  V30 2690 C 261.371 1.8604 -0.916732 0
M  V30 2691 C 261.796 1.80504 0.529146 0
M  V30 2692 O 261.154 1.18127 1.37534 0
M  V30 2693 C 261.202 3.32017 -1.40703 0
M  V30 2694 O 260.306 4.08141 -0.591153 0
M  V30 2695 H 259.647 0.576943 -0.328683 0
M  V30 2696 H 262.177 1.38405 -1.50682 0
M  V30 2697 H 262.187 3.82865 -1.4099 0
M  V30 2698 H 260.862 3.35361 -2.45979 0
M  V30 2699 H 259.439 3.67084 -0.656005 0
M  V30 2700 N 261.624 0.925811 1.2754 0
M  V30 2701 C 262.854 0.580666 1.98272 0
M  V30 2702 C 263.262 -0.845207 1.69272 0
M  V30 2703 O 262.605 -1.57306 0.948707 0
M  V30 2704 C 262.667 0.724418 3.52126 0
M  V30 2705 C 262.331 2.12206 4.04744 0
M  V30 2706 C 263.328 3.09604 4.17662 0
M  V30 2707 C 261.013 2.4385 4.39138 0
M  V30 2708 C 263.007 4.36755 4.64246 0
M  V30 2709 C 260.694 3.71237 4.85414 0
M  V30 2710 C 261.692 4.67503 4.97926 0
M  V30 2711 O 261.38 5.92624 5.43187 0
M  V30 2712 H 261.112 0.218987 0.639547 0
M  V30 2713 H 263.666 1.24452 1.63404 0
M  V30 2714 H 261.896 0.0034663 3.867 0
M  V30 2715 H 263.585 0.384607 4.04074 0
M  V30 2716 H 264.351 2.86478 3.91351 0
M  V30 2717 H 260.23 1.69665 4.28643 0
M  V30 2718 H 263.774 5.11898 4.73927 0
M  V30 2719 H 259.671 3.94182 5.11166 0
M  V30 2720 H 260.439 5.95585 5.61445 0
M  V30 2721 N 263.102 -1.41638 0.69111 0
M  V30 2722 C 264.33 -2.05628 0.22909 0
M  V30 2723 C 264.745 -1.51992 -1.11999 0
M  V30 2724 O 264.102 -0.666322 -1.69901 0
M  V30 2725 C 264.153 -3.61084 0.173283 0
M  V30 2726 O 263.874 -4.12735 1.46907 0
M  V30 2727 C 265.375 -4.42213 -0.310266 0
M  V30 2728 H 262.595 -0.662327 0.107534 0
M  V30 2729 H 265.139 -1.81489 0.942438 0
M  V30 2730 H 263.294 -3.84278 -0.490858 0
M  V30 2731 H 263.708 -5.06743 1.35322 0
M  V30 2732 H 265.182 -5.51194 -0.298196 0
M  V30 2733 H 265.659 -4.1799 -1.34838 0
M  V30 2734 H 266.265 -4.24074 0.322716 0
M  V30 2735 N 264.58 -0.43555 -1.51462 0
M  V30 2736 C 265.51 0.367376 -2.30592 0
M  V30 2737 C 266.491 1.02263 -1.35928 0
M  V30 2738 O 267.676 1.02661 -1.64847 0
M  V30 2739 C 264.806 1.46983 -3.14664 0
M  V30 2740 C 263.76 0.938161 -4.17591 0
M  V30 2741 C 263.086 2.13622 -4.90173 0
M  V30 2742 C 264.386 -0.0261621 -5.22293 0
M  V30 2743 H 266.08 -0.292969 -2.97963 0
M  V30 2744 H 263.626 -0.14234 -1.43295 0
M  V30 2745 H 265.579 2.03873 -3.688 0
M  V30 2746 H 264.303 2.15843 -2.4511 0
M  V30 2747 H 262.962 0.391481 -3.64504 0
M  V30 2748 H 262.61 2.81098 -4.17124 0
M  V30 2749 H 262.31 1.78688 -5.59772 0
M  V30 2750 H 263.834 2.7107 -5.47132 0
M  V30 2751 H 265.248 0.452384 -5.71512 0
M  V30 2752 H 263.645 -0.287992 -5.99409 0
M  V30 2753 H 264.715 -0.963391 -4.75233 0
M  V30 2754 N 266.058 1.56714 -0.166846 0
M  V30 2755 C 267.286 2.0112 0.485644 0
M  V30 2756 C 267.701 1.04705 1.57106 0
M  V30 2757 O 267.058 0.0471923 1.82439 0
M  V30 2758 C 267.109 3.45361 1.06808 0
M  V30 2759 O 266.83 4.38092 0.0259995 0
M  V30 2760 C 268.331 4.05145 1.79924 0
M  V30 2761 H 265.551 0.65931 0.124704 0
M  V30 2762 H 268.095 2.02746 -0.267262 0
M  V30 2763 H 266.25 3.44524 1.7715 0
M  V30 2764 H 266.664 5.22519 0.455398 0
M  V30 2765 H 268.138 5.08009 2.15942 0
M  V30 2766 H 268.615 3.46982 2.69258 0
M  V30 2767 H 269.221 4.09672 1.14234 0
M  V30 2768 N 267.536 -0.106894 1.57237 0
M  V30 2769 C 268.947 -0.662723 1.74542 0
M  V30 2770 C 269.298 -1.7971 0.787319 0
M  V30 2771 O 268.423 -2.16368 -0.0369636 0
M  V30 2772 C 269.018 -1.20896 3.16496 0
M  V30 2773 C 267.577 -1.71096 3.35266 0
M  V30 2774 C 266.724 -0.615642 2.7038 0
M  V30 2775 H 269.675 0.119106 1.58252 0
M  V30 2776 H 269.696 -2.07847 3.18716 0
M  V30 2777 H 269.208 -0.383122 3.86204 0
M  V30 2778 H 267.309 -2.56119 2.70618 0
M  V30 2779 H 267.422 -1.81208 4.43509 0
M  V30 2780 H 265.786 -1.05222 2.31949 0
M  V30 2781 H 266.569 0.199419 3.4272 0
M  V30 2782 N 269.014 -1.53014 -0.377408 0
M  V30 2783 C 269.924 -1.81557 -1.48574 0
M  V30 2784 C 270.94 -0.703102 -1.59162 0
M  V30 2785 O 272.116 -0.99192 -1.75279 0
M  V30 2786 C 269.181 -1.9889 -2.83978 0
M  V30 2787 C 268.242 -3.22801 -2.83016 0
M  V30 2788 C 267.475 -3.39298 -4.11962 0
M  V30 2789 O 267.698 -2.60345 -5.0752 0
M  V30 2790 O 266.632 -4.32604 -4.18494 0
M  V30 2791 H 270.458 -2.75695 -1.27382 0
M  V30 2792 H 268.043 -1.38248 -0.566373 0
M  V30 2793 H 269.925 -2.11931 -3.6423 0
M  V30 2794 H 268.6 -1.07942 -3.05172 0
M  V30 2795 H 267.507 -3.15193 -2.01505 0
M  V30 2796 H 268.84 -4.13632 -2.66775 0
M  V30 2797 N 270.492 0.636531 -1.44174 0
M  V30 2798 C 271.738 1.39826 -1.4689 0
M  V30 2799 C 272.071 1.93947 -0.0990585 0
M  V30 2800 O 271.346 1.73325 0.882544 0
M  V30 2801 C 271.629 2.56751 -2.5249 0
M  V30 2802 C 271.482 2.08014 -3.98811 0
M  V30 2803 C 272.801 3.58946 -2.54649 0
M  V30 2804 H 269.92 0.507075 -0.53483 0
M  V30 2805 H 272.562 0.720188 -1.75822 0
M  V30 2806 H 270.712 3.14597 -2.2795 0
M  V30 2807 H 272.384 1.5504 -4.34466 0
M  V30 2808 H 270.627 1.39242 -4.10846 0
M  V30 2809 H 271.298 2.92169 -4.68339 0
M  V30 2810 H 273.774 3.1089 -2.76563 0
M  V30 2811 H 272.65 4.38286 -3.3045 0
M  V30 2812 H 272.911 4.12655 -1.58646 0
M  V30 2813 N 271.97 1.30982 0.876444 0
M  V30 2814 C 273.218 1.20058 1.62575 0
M  V30 2815 C 273.539 -0.242947 1.93481 0
M  V30 2816 O 272.809 -1.1619 1.57724 0
M  V30 2817 H 271.389 0.44135 0.602677 0
M  V30 2818 H 274.051 1.64222 1.04962 0
M  V30 2819 H 273.147 1.76762 2.57219 0
M  V30 2820 N 273.449 -1.08991 1.13837 0
M  V30 2821 C 274.359 -2.19301 0.833333 0
M  V30 2822 C 275.375 -1.73026 -0.183847 0
M  V30 2823 O 276.551 -2.01395 -0.0138092 0
M  V30 2824 C 273.616 -3.45323 0.308651 0
M  V30 2825 C 272.677 -4.06255 1.38764 0
M  V30 2826 C 271.91 -5.26262 0.887896 0
M  V30 2827 O 272.133 -5.69747 -0.27287 0
M  V30 2828 O 271.067 -5.78435 1.66421 0
M  V30 2829 H 274.893 -2.47854 1.75506 0
M  V30 2830 H 272.478 -1.18012 0.916166 0
M  V30 2831 H 274.36 -4.21394 0.0216739 0
M  V30 2832 H 273.035 -3.18362 -0.585431 0
M  V30 2833 H 271.942 -3.318 1.72799 0
M  V30 2834 H 273.275 -4.37452 2.25602 0
M  V30 2835 N 274.927 -0.932562 -1.27047 0
M  V30 2836 C 275.857 -0.452902 -2.29066 0
M  V30 2837 C 276.838 0.489338 -1.62909 0
M  V30 2838 O 278.023 0.393046 -1.90181 0
M  V30 2839 C 275.153 0.290698 -3.46081 0
M  V30 2840 C 274.107 -0.564168 -4.24265 0
M  V30 2841 C 273.433 0.308886 -5.33807 0
M  V30 2842 C 274.733 -1.83112 -4.89149 0
M  V30 2843 H 276.427 -1.30552 -2.69437 0
M  V30 2844 H 273.973 -0.629201 -1.29526 0
M  V30 2845 H 275.926 0.637233 -4.16554 0
M  V30 2846 H 274.65 1.17738 -3.0464 0
M  V30 2847 H 273.309 -0.893477 -3.55545 0
M  V30 2848 H 272.957 1.19467 -4.88607 0
M  V30 2849 H 272.657 -0.259633 -5.87026 0
M  V30 2850 H 274.181 0.650884 -6.07121 0
M  V30 2851 H 275.595 -1.55236 -5.51883 0
M  V30 2852 H 273.992 -2.34353 -5.52448 0
M  V30 2853 H 275.062 -2.54772 -4.12576 0
M  V30 2854 N 276.405 1.4127 -0.698611 0
M  V30 2855 C 277.654 2.00408 -0.227949 0
M  V30 2856 C 277.967 1.55981 1.18023 0
M  V30 2857 O 279.173 2.07699 1.74852 0
M  V30 2858 C 277.629 3.58129 -0.356636 0
M  V30 2859 C 277.237 4.11536 -1.77037 0
M  V30 2860 C 278.981 4.24466 0.0540969 0
M  V30 2861 C 276.888 5.61701 -1.85055 0
M  V30 2862 H 275.818 0.749586 -0.0814657 0
M  V30 2863 H 278.469 1.61713 -0.867249 0
M  V30 2864 H 276.851 3.94442 0.350965 0
M  V30 2865 H 278.025 3.86636 -2.50698 0
M  V30 2866 H 276.34 3.57736 -2.13105 0
M  V30 2867 H 278.937 5.34698 0.0146723 0
M  V30 2868 H 279.28 4.01687 1.09332 0
M  V30 2869 H 279.813 3.93198 -0.603337 0
M  V30 2870 H 276.552 5.89312 -2.8704 0
M  V30 2871 H 276.072 5.88519 -1.15783 0
M  V30 2872 H 277.751 6.26524 -1.61484 0
M  V30 2873 N 277.883 0.443576 1.51229 0
M  V30 2874 C 278.793 -0.370721 2.31652 0
M  V30 2875 C 279.809 -1.02186 1.40833 0
M  V30 2876 O 280.985 -1.01586 1.73903 0
M  V30 2877 C 278.05 -1.45376 3.14749 0
M  V30 2878 C 277.111 -0.822099 4.21355 0
M  V30 2879 C 276.344 -1.85353 5.0048 0
M  V30 2880 O 276.567 -3.07656 4.80316 0
M  V30 2881 O 275.501 -1.4406 5.84406 0
M  V30 2882 H 279.327 0.286002 3.0235 0
M  V30 2883 H 276.912 0.20598 1.47973 0
M  V30 2884 H 278.794 -2.08173 3.66391 0
M  V30 2885 H 277.469 -2.09445 2.46809 0
M  V30 2886 H 276.376 -0.155909 3.73775 0
M  V30 2887 H 277.709 -0.224797 4.91686 0
M  V30 2888 N 279.361 -1.56624 0.175154 0
M  V30 2889 C 280.308 -2.18149 -0.753634 0
M  V30 2890 C 281.278 -1.12265 -1.22417 0
M  V30 2891 O 282.463 -1.40432 -1.29165 0
M  V30 2892 C 279.603 -2.82933 -1.97592 0
M  V30 2893 C 278.716 -4.03289 -1.5486 0
M  V30 2894 C 277.851 -4.55988 -2.72485 0
M  V30 2895 C 276.89 -5.68746 -2.26262 0
M  V30 2896 N 276.027 -6.15938 -3.36994 0
M  V30 2897 H 280.867 -2.9717 -0.222195 0
M  V30 2898 H 278.404 -1.46774 -0.0979422 0
M  V30 2899 H 280.362 -3.18653 -2.69288 0
M  V30 2900 H 278.992 -2.06509 -2.481 0
M  V30 2901 H 278.044 -3.73364 -0.728246 0
M  V30 2902 H 279.356 -4.849 -1.16933 0
M  V30 2903 H 278.51 -4.9391 -3.52332 0
M  V30 2904 H 277.249 -3.73443 -3.13674 0
M  V30 2905 H 276.254 -5.30372 -1.44863 0
M  V30 2906 H 277.479 -6.53095 -1.86127 0
M  V30 2907 H 275.425 -5.36321 -3.77751 0
M  V30 2908 H 275.342 -6.92548 -3.03172 0
M  V30 2909 H 276.61 -6.58511 -4.17114 0
M  V30 2910 N 280.839 0.0985539 -1.57292 0
M  V30 2911 C 282.085 0.803867 -1.86188 0
M  V30 2912 C 282.418 1.78549 -0.763794 0
M  V30 2913 O 281.693 1.93153 0.22855 0
M  V30 2914 C 281.976 1.53568 -3.25713 0
M  V30 2915 C 281.829 0.572277 -4.46145 0
M  V30 2916 C 283.148 2.48708 -3.63087 0
M  V30 2917 H 280.267 0.290781 -0.677211 0
M  V30 2918 H 282.909 0.0675783 -1.8988 0
M  V30 2919 H 281.059 2.16332 -3.22696 0
M  V30 2920 H 282.731 -0.0480894 -4.61275 0
M  V30 2921 H 280.974 -0.114618 -4.33649 0
M  V30 2922 H 281.645 1.12139 -5.40489 0
M  V30 2923 H 284.121 1.96039 -3.67026 0
M  V30 2924 H 282.997 2.96932 -4.61652 0
M  V30 2925 H 283.258 3.32309 -2.91588 0
M  V30 2926 N 282.317 1.53212 0.369288 0
M  V30 2927 C 283.733 1.42902 0.710712 0
M  V30 2928 C 283.933 0.565135 1.93413 0
M  V30 2929 O 282.989 0.0461484 2.52458 0
M  V30 2930 C 284.302 2.86042 0.927382 0
M  V30 2931 C 285.85 2.9565 1.02762 0
M  V30 2932 C 286.325 4.39843 1.27679 0
M  V30 2933 N 287.816 4.43256 1.34457 0
M  V30 2934 C 288.551 5.51929 1.55439 0
M  V30 2935 N 288.047 6.70655 1.73762 0
M  V30 2936 N 289.84 5.39502 1.57779 0
M  V30 2937 H 281.991 2.07888 -0.435457 0
M  V30 2938 H 284.254 0.938661 -0.132739 0
M  V30 2939 H 283.96 3.51557 0.100287 0
M  V30 2940 H 283.834 3.29472 1.83653 0
M  V30 2941 H 286.221 2.30291 1.84527 0
M  V30 2942 H 286.302 2.5562 0.0959504 0
M  V30 2943 H 285.946 5.05774 0.464175 0
M  V30 2944 H 285.876 4.77443 2.22162 0
M  V30 2945 H 288.367 3.5769 1.21926 0
M  V30 2946 H 288.68 7.49248 1.89335 0
M  V30 2947 H 287.025 6.73648 1.70948 0
M  V30 2948 H 290.216 4.45713 1.43029 0
M  V30 2949 H 290.389 6.2426 1.7379 0
M  V30 2950 N 283.795 -0.628877 1.44509 0
M  V30 2951 C 284.742 -1.74074 1.51549 0
M  V30 2952 C 285.712 -1.62084 0.363021 0
M  V30 2953 O 286.897 -1.81975 0.573567 0
M  V30 2954 C 284.037 -3.12328 1.46784 0
M  V30 2955 C 283.15 -3.35277 2.72422 0
M  V30 2956 C 282.285 -4.63515 2.59475 0
M  V30 2957 C 281.324 -4.7965 3.80266 0
M  V30 2958 N 280.461 -5.99168 3.65981 0
M  V30 2959 H 285.301 -1.67392 2.46544 0
M  V30 2960 H 282.838 -0.816527 1.22357 0
M  V30 2961 H 284.796 -3.92286 1.42012 0
M  V30 2962 H 283.426 -3.18018 0.553544 0
M  V30 2963 H 282.478 -2.49242 2.87372 0
M  V30 2964 H 283.79 -3.43078 3.62076 0
M  V30 2965 H 282.944 -5.51638 2.52548 0
M  V30 2966 H 281.683 -4.58076 1.67384 0
M  V30 2967 H 280.688 -3.89957 3.87574 0
M  V30 2968 H 281.913 -4.86902 4.73395 0
M  V30 2969 H 279.859 -5.94814 2.76644 0
M  V30 2970 H 279.776 -6.08035 4.49254 0
M  V30 2971 H 281.044 -6.89846 3.6295 0
M  V30 2972 N 285.273 -1.31445 -0.869486 0
M  V30 2973 C 286.236 -1.19094 -1.9583 0
M  V30 2974 C 287.236 -0.117906 -1.60367 0
M  V30 2975 O 288.426 -0.367208 -1.70286 0
M  V30 2976 C 285.558 -0.828165 -3.30688 0
M  V30 2977 H 286.751 -2.15842 -2.08212 0
M  V30 2978 H 284.304 -1.15063 -1.05784 0
M  V30 2979 H 285.039 0.138142 -3.24006 0
M  V30 2980 H 284.824 -1.6038 -3.578 0
M  V30 2981 H 286.314 -0.765658 -4.10521 0
M  V30 2982 N 286.751 1.08385 -1.14413 0
M  V30 2983 C 287.701 2.13509 -0.79987 0
M  V30 2984 C 288.685 1.5951 0.211059 0
M  V30 2985 O 289.877 1.76995 0.0133694 0
M  V30 2986 C 287.006 3.42162 -0.279297 0
M  V30 2987 C 286.092 4.03042 -1.31976 0
M  V30 2988 N 286.483 4.38327 -2.52395 0
M  V30 2989 C 284.781 4.30379 -1.17004 0
M  V30 2990 C 285.482 4.86428 -3.19003 0
M  V30 2991 N 284.458 4.84547 -2.46405 0
M  V30 2992 H 288.26 2.38609 -1.7159 0
M  V30 2993 H 285.774 1.2572 -1.02802 0
M  V30 2994 H 287.771 4.16898 -0.0143688 0
M  V30 2995 H 286.431 3.18511 0.630923 0
M  V30 2996 H 287.442 4.29349 -2.89621 0
M  V30 2997 H 284.119 4.16281 -0.318854 0
M  V30 2998 H 285.509 5.23107 -4.21674 0
M  V30 2999 N 288.23 0.939286 1.26551 0
M  V30 3000 C 289.162 0.404704 2.25599 0
M  V30 3001 C 290.175 -0.470983 1.55838 0
M  V30 3002 O 291.364 -0.281734 1.76263 0
M  V30 3003 C 288.464 -0.43764 3.36062 0
M  V30 3004 C 287.637 0.421449 4.35365 0
M  V30 3005 C 286.696 -0.36015 5.24966 0
M  V30 3006 O 285.722 0.236167 5.6871 0
M  V30 3007 N 286.924 -1.65715 5.56344 0
M  V30 3008 H 289.689 1.25618 2.72103 0
M  V30 3009 H 287.25 0.807963 1.40298 0
M  V30 3010 H 289.242 -0.967866 3.92956 0
M  V30 3011 H 287.812 -1.18991 2.89067 0
M  V30 3012 H 287.032 1.1329 3.7757 0
M  V30 3013 H 288.32 1.00835 4.98708 0
M  V30 3014 H 287.718 -2.16378 5.22682 0
M  V30 3015 H 286.275 -2.13366 6.15888 0
M  V30 3016 N 289.708 -1.40897 0.706093 0
M  V30 3017 C 290.618 -2.3455 0.0482286 0
M  V30 3018 C 291.634 -1.56796 -0.754396 0
M  V30 3019 O 292.81 -1.89228 -0.689538 0
M  V30 3020 C 289.875 -3.35625 -0.869303 0
M  V30 3021 C 288.936 -4.29261 -0.0576994 0
M  V30 3022 C 288.169 -5.25508 -0.931531 0
M  V30 3023 O 288.392 -5.27472 -2.17092 0
M  V30 3024 O 287.326 -6.00727 -0.375587 0
M  V30 3025 H 291.152 -2.92407 0.820476 0
M  V30 3026 H 288.737 -1.4193 0.4665 0
M  V30 3027 H 290.619 -3.97635 -1.39514 0
M  V30 3028 H 289.294 -2.80196 -1.62086 0
M  V30 3029 H 288.201 -3.70566 0.512988 0
M  V30 3030 H 289.534 -4.87817 0.655426 0
M  V30 3031 N 291.186 -0.45159 -1.50991 0
M  V30 3032 C 292.414 0.108334 -2.06616 0
M  V30 3033 C 292.829 1.35224 -1.31757 0
M  V30 3034 O 292.186 1.78475 -0.381174 0
M  V30 3035 C 292.237 0.41619 -3.59096 0
M  V30 3036 O 291.958 -0.778361 -4.3113 0
M  V30 3037 C 293.459 1.02523 -4.31282 0
M  V30 3038 H 290.679 0.00159995 -0.670998 0
M  V30 3039 H 293.223 -0.634771 -1.94399 0
M  V30 3040 H 291.378 1.10921 -3.71181 0
M  V30 3041 H 291.792 -0.511181 -5.22003 0
M  V30 3042 H 293.266 1.19053 -5.39009 0
M  V30 3043 H 293.743 2.01013 -3.905 0
M  V30 3044 H 294.349 0.371173 -4.23677 0
M  V30 3045 N 292.664 1.56529 -0.183458 0
M  V30 3046 C 293.911 1.97244 0.458357 0
M  V30 3047 C 294.239 1.06992 1.62428 0
M  V30 3048 O 293.494 0.106542 1.9541 0
M  V30 3049 C 293.793 3.43939 0.971637 0
M  V30 3050 C 293.459 4.5083 -0.0796784 0
M  V30 3051 C 292.121 4.79786 -0.368584 0
M  V30 3052 C 294.473 5.15138 -0.792638 0
M  V30 3053 C 291.801 5.70345 -1.37563 0
M  V30 3054 C 294.153 6.06784 -1.78875 0
M  V30 3055 C 292.817 6.34102 -2.08497 0
M  V30 3056 H 292.087 0.721768 0.167725 0
M  V30 3057 H 294.734 1.89472 -0.277976 0
M  V30 3058 H 293.039 3.48724 1.78602 0
M  V30 3059 H 294.736 3.72791 1.47744 0
M  V30 3060 H 291.326 4.28317 0.155668 0
M  V30 3061 H 295.51 4.92868 -0.582659 0
M  V30 3062 H 290.766 5.89789 -1.61118 0
M  V30 3063 H 294.94 6.55677 -2.3465 0
M  V30 3064 H 292.567 7.04074 -2.86678 0
M  V30 3065 N 294.142 -0.090211 1.57342 0
M  V30 3066 C 295.553 -0.644173 1.75235 0
M  V30 3067 C 295.904 -1.78865 0.806335 0
M  V30 3068 O 295.029 -2.16395 -0.0140128 0
M  V30 3069 C 295.624 -1.17532 3.1776 0
M  V30 3070 C 294.183 -1.67531 3.37061 0
M  V30 3071 C 293.33 -0.58693 2.71017 0
M  V30 3072 H 296.281 0.135884 1.58117 0
M  V30 3073 H 296.302 -2.04455 3.20902 0
M  V30 3074 H 295.814 -0.342138 3.86589 0
M  V30 3075 H 293.915 -2.53234 2.73319 0
M  V30 3076 H 294.028 -1.76493 4.45406 0
M  V30 3077 H 292.392 -1.02756 2.33052 0
M  V30 3078 H 293.175 0.235758 3.4249 0
M  V30 3079 N 295.62 -1.53406 -0.361157 0
M  V30 3080 C 296.583 -1.79479 -1.42548 0
M  V30 3081 C 297.583 -0.665327 -1.4639 0
M  V30 3082 O 298.773 -0.933549 -1.47073 0
M  V30 3083 C 295.905 -1.92087 -2.8163 0
M  V30 3084 H 297.098 -2.74538 -1.20701 0
M  V30 3085 H 294.651 -1.4455 -0.594546 0
M  V30 3086 H 295.386 -0.991099 -3.08784 0
M  V30 3087 H 295.171 -2.74241 -2.80239 0
M  V30 3088 H 296.661 -2.13836 -3.58697 0
M  V30 3089 N 297.098 0.621204 -1.44841 0
M  V30 3090 C 298.028 1.74366 -1.55303 0
M  V30 3091 C 299.009 1.65199 -0.405385 0
M  V30 3092 O 300.194 1.83807 -0.626787 0
M  V30 3093 C 297.324 3.12931 -1.50637 0
M  V30 3094 C 296.278 3.36896 -2.63979 0
M  V30 3095 C 295.604 4.75594 -2.44366 0
M  V30 3096 C 296.904 3.28483 -4.06074 0
M  V30 3097 H 298.598 1.65867 -2.49256 0
M  V30 3098 H 296.144 0.796558 -1.19962 0
M  V30 3099 H 298.097 3.9124 -1.56555 0
M  V30 3100 H 296.821 3.22237 -0.532057 0
M  V30 3101 H 295.48 2.60972 -2.57467 0
M  V30 3102 H 295.128 4.81616 -1.45105 0
M  V30 3103 H 294.828 4.92586 -3.20364 0
M  V30 3104 H 296.352 5.5612 -2.52117 0
M  V30 3105 H 297.766 3.96684 -4.13902 0
M  V30 3106 H 296.163 3.57008 -4.82354 0
M  V30 3107 H 297.233 2.26133 -4.28943 0
M  V30 3108 N 298.576 1.31904 0.862503 0
M  V30 3109 C 299.816 1.23324 1.63004 0
M  V30 3110 C 300.18 -0.203724 1.90916 0
M  V30 3111 O 301.381 -0.413132 2.65606 0
M  V30 3112 C 299.652 2.06116 2.91978 0
M  V30 3113 S 301.211 2.14478 3.82812 0
M  V30 3114 H 298.029 0.439117 0.559193 0
M  V30 3115 H 300.631 1.66658 1.02202 0
M  V30 3116 H 299.335 3.09593 2.69407 0
M  V30 3117 H 298.866 1.6353 3.57801 0
M  V30 3118 H 300.881 1.28855 4.79177 0
M  V30 3119 N 300.054 -1.07777 1.14986 0
M  V30 3120 C 300.986 -2.14769 0.800436 0
M  V30 3121 C 301.999 -1.61739 -0.185595 0
M  V30 3122 O 303.188 -1.78462 0.0370358 0
M  V30 3123 C 300.288 -3.38481 0.168533 0
M  V30 3124 C 299.461 -4.20876 1.1909 0
M  V30 3125 C 298.52 -5.22976 0.581575 0
M  V30 3126 O 297.546 -5.55388 1.24633 0
M  V30 3127 N 298.748 -5.76976 -0.638706 0
M  V30 3128 H 301.513 -2.45348 1.72118 0
M  V30 3129 H 299.074 -1.23645 1.04515 0
M  V30 3130 H 301.066 -4.03916 -0.251764 0
M  V30 3131 H 299.636 -3.05651 -0.655467 0
M  V30 3132 H 298.856 -3.51322 1.78791 0
M  V30 3133 H 300.144 -4.7274 1.88133 0
M  V30 3134 H 299.542 -5.52886 -1.19723 0
M  V30 3135 H 298.099 -6.44061 -1.00142 0
M  V30 3136 N 301.532 -0.945985 -1.26051 0
M  V30 3137 C 302.462 -0.477172 -2.28572 0
M  V30 3138 C 303.443 0.472032 -1.63419 0
M  V30 3139 O 304.628 0.372853 -1.90587 0
M  V30 3140 C 301.758 0.253975 -3.4637 0
M  V30 3141 C 300.712 -0.609135 -4.23643 0
M  V30 3142 C 300.038 0.252252 -5.34105 0
M  V30 3143 C 301.338 -1.8829 -4.8718 0
M  V30 3144 H 303.032 -1.33402 -2.68038 0
M  V30 3145 H 300.578 -0.642904 -1.28852 0
M  V30 3146 H 302.531 0.593016 -4.17207 0
M  V30 3147 H 301.255 1.145 -3.05871 0
M  V30 3148 H 299.914 -0.931138 -3.54578 0
M  V30 3149 H 299.562 1.14278 -4.89846 0
M  V30 3150 H 299.262 -0.32188 -5.86718 0
M  V30 3151 H 300.786 0.586454 -6.07777 0
M  V30 3152 H 302.2 -1.61081 -5.50205 0
M  V30 3153 H 300.597 -2.40199 -5.49931 0
M  V30 3154 H 301.667 -2.59134 -4.09851 0
M  V30 3155 N 303.011 1.40521 -0.713556 0
M  V30 3156 C 304.259 2.00527 -0.251692 0
M  V30 3157 C 304.58 1.56857 1.15848 0
M  V30 3158 O 303.85 0.807127 1.785 0
M  V30 3159 H 302.43 0.741551 -0.0900646 0
M  V30 3160 H 305.092 1.71887 -0.918733 0
M  V30 3161 H 304.188 3.10813 -0.283192 0
M  V30 3162 N 304.489 0.459591 1.5075 0
M  V30 3163 C 305.436 -0.340524 2.28274 0
M  V30 3164 C 306.406 -0.997371 1.32822 0
M  V30 3165 O 307.591 -1.01202 1.61749 0
M  V30 3166 C 304.731 -1.42317 3.14388 0
M  V30 3167 C 303.844 -0.782251 4.24859 0
M  V30 3168 C 302.979 -1.84182 4.98247 0
M  V30 3169 C 302.018 -1.18053 6.00608 0
M  V30 3170 N 301.155 -2.18244 6.67319 0
M  V30 3171 H 305.995 0.326899 2.96202 0
M  V30 3172 H 303.532 0.173057 1.46078 0
M  V30 3173 H 305.49 -2.06241 3.62658 0
M  V30 3174 H 304.12 -2.05992 2.4853 0
M  V30 3175 H 303.172 -0.0307404 3.80388 0
M  V30 3176 H 304.484 -0.259663 4.98124 0
M  V30 3177 H 303.638 -2.55714 5.50177 0
M  V30 3178 H 302.377 -2.39819 4.24662 0
M  V30 3179 H 301.382 -0.450776 5.47949 0
M  V30 3180 H 302.607 -0.631202 6.7616 0
M  V30 3181 H 300.553 -2.72919 5.96533 0
M  V30 3182 H 300.47 -1.70938 7.36421 0
M  V30 3183 H 301.738 -2.89191 7.23871 0
M  V30 3184 N 305.967 -1.56429 0.191757 0
M  V30 3185 C 307.197 -2.01574 -0.452928 0
M  V30 3186 C 307.605 -1.07107 -1.55964 0
M  V30 3187 O 306.948 -0.067534 -1.83576 0
M  V30 3188 C 307.01 -3.43121 -1.07278 0
M  V30 3189 C 306.674 -4.56879 -0.105214 0
M  V30 3190 C 307.671 -5.15379 0.684149 0
M  V30 3191 C 305.356 -5.023 0.00489824 0
M  V30 3192 C 307.35 -6.17746 1.57062 0
M  V30 3193 C 305.037 -6.04511 0.894935 0
M  V30 3194 C 306.035 -6.62108 1.67637 0
M  V30 3195 O 305.723 -7.62335 2.55149 0
M  V30 3196 H 305.455 -0.665554 -0.118379 0
M  V30 3197 H 308.009 -2.03245 0.296737 0
M  V30 3198 H 306.239 -3.38425 -1.87097 0
M  V30 3199 H 307.928 -3.72093 -1.62177 0
M  V30 3200 H 308.694 -4.81157 0.609365 0
M  V30 3201 H 304.573 -4.57168 -0.593156 0
M  V30 3202 H 308.117 -6.6263 2.181 0
M  V30 3203 H 304.014 -6.38157 0.970847 0
M  V30 3204 H 304.782 -7.79741 2.48892 0
M  V30 3205 N 307.445 0.0818655 -1.57387 0
M  V30 3206 C 308.673 0.796108 -1.9097 0
M  V30 3207 C 309.088 1.71626 -0.786757 0
M  V30 3208 O 308.445 1.80908 0.240513 0
M  V30 3209 C 308.496 1.59829 -3.24248 0
M  V30 3210 O 308.217 0.715131 -4.32224 0
M  V30 3211 C 309.718 2.41442 -3.7178 0
M  V30 3212 H 306.938 0.22691 -0.631469 0
M  V30 3213 H 309.482 0.0551439 -2.04426 0
M  V30 3214 H 307.637 2.29163 -3.12351 0
M  V30 3215 H 308.051 1.27205 -5.08841 0
M  V30 3216 H 309.525 2.932 -4.67694 0
M  V30 3217 H 310.002 3.2051 -3.00283 0
M  V30 3218 H 310.608 1.77283 -3.86589 0
M  V30 3219 N 308.923 1.53595 0.353017 0
M  V30 3220 C 310.151 1.74311 1.1146 0
M  V30 3221 C 310.566 0.477854 1.82653 0
M  V30 3222 O 309.923 -0.549977 1.74016 0
M  V30 3223 C 309.974 2.91694 2.13534 0
M  V30 3224 O 309.695 4.13325 1.45238 0
M  V30 3225 C 311.196 3.24384 3.02142 0
M  V30 3226 H 308.416 0.582669 0.332773 0
M  V30 3227 H 310.96 2.00386 0.408107 0
M  V30 3228 H 309.115 2.67977 2.79763 0
M  V30 3229 H 309.529 4.79148 2.13349 0
M  V30 3230 H 311.003 4.09893 3.69718 0
M  V30 3231 H 311.48 2.40282 3.67643 0
M  V30 3232 H 312.086 3.50073 2.41514 0
M  V30 3233 N 310.401 -0.613514 1.45168 0
M  V30 3234 C 311.349 -1.74572 1.53712 0
M  V30 3235 C 312.343 -1.64426 0.407505 0
M  V30 3236 O 313.549 -1.70291 0.583176 0
M  V30 3237 H 309.924 -0.576641 0.48269 0
M  V30 3238 H 311.895 -1.64492 2.48968 0
M  V30 3239 C 310.644 -3.12943 1.51532 0
M  V30 3240 H 309.967 -3.21407 2.37776 0
M  V30 3241 H 311.407 -3.9201 1.61569 0
M  V30 3242 C 309.866 -3.36053 0.238798 0
M  V30 3243 O 310.396 -3.95837 -0.6838 0
M  V30 3244 N 308.602 -2.9028 0.136359 0
M  V30 3245 H 308.149 -2.41811 0.887999 0
M  V30 3246 H 308.107 -3.06116 -0.716944 0
M  V30 3247 N 311.879 -1.3236 -0.855495 0
M  V30 3248 C 312.827 -1.2118 -1.9854 0
M  V30 3249 C 313.821 -0.116788 -1.68997 0
M  V30 3250 O 315.027 -0.279657 -1.77814 0
M  V30 3251 H 311.402 -0.375608 -0.651477 0
M  V30 3252 H 313.373 -2.16743 -2.05098 0
M  V30 3253 C 312.122 -0.950849 -3.34446 0
M  V30 3254 H 311.445 -1.78563 -3.57708 0
M  V30 3255 H 312.885 -0.912863 -4.14057 0
M  V30 3256 C 311.344 0.346404 -3.35114 0
M  V30 3257 O 311.874 1.35855 -3.7803 0
M  V30 3258 N 310.08 0.36808 -2.88259 0
M  V30 3259 H 309.627 -0.456102 -2.5353 0
M  V30 3260 H 309.585 1.23591 -2.89089 0
M  V30 3261 N 313.357 1.07166 -1.15556 0
M  V30 3262 C 314.582 1.84053 -0.955988 0
M  V30 3263 C 315.007 1.81586 0.490739 0
M  V30 3264 O 314.365 1.21018 1.34997 0
M  V30 3265 C 314.413 3.28957 -1.47714 0
M  V30 3266 O 313.517 4.06795 -0.677593 0
M  V30 3267 H 312.858 0.569842 -0.340847 0
M  V30 3268 H 315.388 1.35178 -1.53584 0
M  V30 3269 H 315.398 3.79788 -1.4908 0
M  V30 3270 H 314.073 3.30068 -2.53037 0
M  V30 3271 H 312.65 3.6561 -0.733721 0
M  V30 3272 N 314.835 0.952656 1.25548 0
M  V30 3273 C 316.06 0.623025 1.97821 0
M  V30 3274 C 316.485 -0.7976 1.70352 0
M  V30 3275 O 315.843 -1.53905 0.958283 0
M  V30 3276 C 315.891 0.885532 3.49558 0
M  V30 3277 O 314.995 -0.0366641 4.12384 0
M  V30 3278 H 314.336 0.237082 0.620232 0
M  V30 3279 H 316.866 1.27871 1.59719 0
M  V30 3280 H 316.876 0.811009 3.99858 0
M  V30 3281 H 315.551 1.92094 3.6888 0
M  V30 3282 H 314.128 0.0898954 3.72792 0
M  V30 3283 N 316.313 -1.40141 0.720998 0
M  V30 3284 C 317.223 -2.34486 0.0731031 0
M  V30 3285 C 318.239 -1.57587 -0.737723 0
M  V30 3286 O 319.415 -1.89949 -0.669429 0
M  V30 3287 C 316.48 -3.36528 -0.833656 0
M  V30 3288 C 315.541 -4.29298 -0.0121673 0
M  V30 3289 C 314.774 -5.26466 -0.875742 0
M  V30 3290 O 314.997 -5.29745 -2.11485 0
M  V30 3291 O 313.931 -6.01092 -0.31185 0
M  V30 3292 H 317.757 -2.9152 0.851444 0
M  V30 3293 H 315.342 -1.41427 0.481527 0
M  V30 3294 H 317.224 -3.99093 -1.35289 0
M  V30 3295 H 315.899 -2.81899 -1.59105 0
M  V30 3296 H 314.806 -3.70001 0.552262 0
M  V30 3297 H 316.139 -4.87094 0.707129 0
M  V30 3298 N 317.792 -0.46758 -1.50504 0
M  V30 3299 C 318.724 0.364655 -2.26281 0
M  V30 3300 C 319.737 0.960151 -1.31472 0
M  V30 3301 O 320.926 0.849153 -1.57008 0
M  V30 3302 C 318.026 1.52509 -3.02645 0
M  V30 3303 C 317.199 1.04302 -4.24782 0
M  V30 3304 C 316.258 2.07709 -4.8347 0
M  V30 3305 O 315.284 1.65913 -5.44483 0
M  V30 3306 N 316.486 3.40485 -4.70159 0
M  V30 3307 H 319.251 -0.28495 -2.98342 0
M  V30 3308 H 316.812 -0.298163 -1.59131 0
M  V30 3309 H 318.804 2.21371 -3.38787 0
M  V30 3310 H 317.374 2.07945 -2.33404 0
M  V30 3311 H 316.594 0.180393 -3.93787 0
M  V30 3312 H 317.882 0.698798 -5.03978 0
M  V30 3313 H 317.28 3.77155 -4.21629 0
M  V30 3314 H 315.837 4.05156 -5.1058 0
M  V30 3315 N 319.27 1.56325 -0.20005 0
M  V30 3316 C 320.686 1.58839 0.155716 0
M  V30 3317 C 320.886 1.21636 1.60645 0
M  V30 3318 O 319.942 0.941437 2.34293 0
M  V30 3319 C 321.255 3.0032 -0.151124 0
M  V30 3320 C 322.803 3.12866 -0.0916284 0
M  V30 3321 C 323.278 4.56488 -0.371845 0
M  V30 3322 N 324.769 4.62089 -0.320641 0
M  V30 3323 C 325.504 5.71116 -0.511243 0
M  V30 3324 N 325 6.88592 -0.762461 0
M  V30 3325 N 326.793 5.60335 -0.445157 0
M  V30 3326 H 318.944 1.78788 -1.14668 0
M  V30 3327 H 321.207 0.829996 -0.458051 0
M  V30 3328 H 320.913 3.32117 -1.15721 0
M  V30 3329 H 320.787 3.73257 0.543986 0
M  V30 3330 H 323.174 2.80878 0.905065 0
M  V30 3331 H 323.255 2.42304 -0.81989 0
M  V30 3332 H 322.899 4.89189 -1.36588 0
M  V30 3333 H 322.829 5.25246 0.377362 0
M  V30 3334 H 325.32 3.77665 -0.13329 0
M  V30 3335 H 325.633 7.67581 -0.896576 0
M  V30 3336 H 323.978 6.90387 -0.799412 0
M  V30 3337 H 327.169 4.67436 -0.249278 0
M  V30 3338 H 327.342 6.45243 -0.597116 0
M  V30 3339 N 320.748 -0.0735177 1.57428 0
M  V30 3340 C 321.994 -0.774145 1.87443 0
M  V30 3341 C 322.327 -1.77311 0.792103 0
M  V30 3342 O 321.602 -1.93492 -0.197793 0
M  V30 3343 C 321.885 -1.48367 3.28115 0
M  V30 3344 C 321.738 -0.501227 4.46999 0
M  V30 3345 C 323.057 -2.429 3.66998 0
M  V30 3346 H 320.176 -0.279971 0.681752 0
M  V30 3347 H 322.818 -0.0373616 1.89963 0
M  V30 3348 H 320.968 -2.11171 3.26097 0
M  V30 3349 H 322.64 0.121468 4.6114 0
M  V30 3350 H 320.883 0.183593 4.33411 0
M  V30 3351 H 321.554 -1.03526 5.42205 0
M  V30 3352 H 324.03 -1.90175 3.70098 0
M  V30 3353 H 322.906 -2.89549 4.66318 0
M  V30 3354 H 323.167 -3.27628 2.96837 0
M  V30 3355 N 322.226 -1.5378 -0.344866 0
M  V30 3356 C 323.451 -1.75211 -1.10977 0
M  V30 3357 C 323.876 -0.48936 -1.81623 0
M  V30 3358 O 323.234 0.557925 -1.72502 0
M  V30 3359 C 323.282 -2.93147 -2.09993 0
M  V30 3360 O 322.386 -2.63203 -3.17487 0
M  V30 3361 H 321.727 -0.581241 -0.321021 0
M  V30 3362 H 324.257 -2.00738 -0.395661 0
M  V30 3363 H 324.267 -3.19898 -2.53237 0
M  V30 3364 H 322.942 -3.84731 -1.5797 0
M  V30 3365 H 321.519 -2.47336 -2.79069 0
M  V30 3366 N 323.704 0.605807 -1.45491 0
M  V30 3367 C 324.634 1.72709 -1.57143 0
M  V30 3368 C 325.615 1.6476 -0.422884 0
M  V30 3369 O 326.8 1.83132 -0.646247 0
M  V30 3370 C 323.93 3.11316 -1.53948 0
M  V30 3371 C 322.884 3.34077 -2.67537 0
M  V30 3372 C 322.21 4.72975 -2.49397 0
M  V30 3373 C 323.51 3.24158 -4.09535 0
M  V30 3374 H 325.204 1.63214 -2.51001 0
M  V30 3375 H 322.75 0.78379 -1.208 0
M  V30 3376 H 324.703 3.89557 -1.60696 0
M  V30 3377 H 323.427 3.21655 -0.566205 0
M  V30 3378 H 322.086 2.58227 -2.6022 0
M  V30 3379 H 321.734 4.8005 -1.50205 0
M  V30 3380 H 321.434 4.8916 -3.25571 0
M  V30 3381 H 322.958 5.53414 -2.58002 0
M  V30 3382 H 324.372 3.92271 -4.18086 0
M  V30 3383 H 322.769 3.51872 -4.86113 0
M  V30 3384 H 323.839 2.2157 -4.31317 0
M  V30 3385 N 325.182 1.32811 0.848464 0
M  V30 3386 C 326.459 1.14334 1.58704 0
M  V30 3387 C 326.839 -0.293948 2.09043 0
M  V30 3388 O 326.187 -1.29153 1.88499 0
M  V30 3389 C 326.397 2.17626 2.72837 0
M  V30 3390 C 327.745 2.51282 3.42261 0
M  V30 3391 O 328.769 2.16219 2.83068 0
M  V30 3392 O 327.628 3.11413 4.49093 0
M  V30 3393 H 324.722 0.441601 0.699226 0
M  V30 3394 H 327.268 1.44362 0.892053 0
M  V30 3395 H 326.04 3.14211 2.3321 0
M  V30 3396 H 325.663 1.88628 3.50008 0
M  V30 3397 N 326.66 -1.06551 1.16123 0
M  V30 3398 C 327.909 -1.78687 0.935622 0
M  V30 3399 C 328.222 -1.88056 -0.538001 0
M  V30 3400 O 329.428 -2.56794 -0.88143 0
M  V30 3401 C 327.884 -3.21143 1.62466 0
M  V30 3402 C 327.492 -3.19949 3.13587 0
M  V30 3403 C 329.236 -3.9783 1.48092 0
M  V30 3404 C 327.143 -4.57108 3.75241 0
M  V30 3405 H 326.073 -0.669712 0.346412 0
M  V30 3406 H 328.724 -1.19534 1.39226 0
M  V30 3407 H 327.106 -3.80539 1.09572 0
M  V30 3408 H 328.28 -2.70151 3.73303 0
M  V30 3409 H 326.595 -2.5676 3.27816 0
M  V30 3410 H 329.192 -4.99217 1.91538 0
M  V30 3411 H 329.535 -4.14078 0.429507 0
M  V30 3412 H 330.068 -3.4495 1.98127 0
M  V30 3413 H 326.807 -4.46065 4.80319 0
M  V30 3414 H 326.327 -5.07111 3.20309 0
M  V30 3415 H 328.006 -5.26069 3.76644 0
M  V30 3416 N 328.138 -0.959301 -1.25041 0
M  V30 3417 C 329.415 -0.533805 -1.88175 0
M  V30 3418 C 329.795 0.988994 -1.865 0
M  V30 3419 O 329.143 1.85677 -1.33177 0
M  V30 3420 C 329.353 -1.11575 -3.30684 0
M  V30 3421 C 330.701 -1.19548 -4.07423 0
M  V30 3422 O 331.725 -1.06765 -3.39823 0
M  V30 3423 O 330.584 -1.39656 -5.28354 0
M  V30 3424 H 327.678 -0.176772 -0.807887 0
M  V30 3425 H 330.224 -1.05303 -1.33076 0
M  V30 3426 H 328.996 -2.15884 -3.26358 0
M  V30 3427 H 328.619 -0.580059 -3.93346 0
M  V30 3428 N 329.616 1.39756 -0.72842 0
M  V30 3429 C 330.546 2.33289 -0.0991354 0
M  V30 3430 C 331.527 1.53568 0.731489 0
M  V30 3431 O 332.712 1.81987 0.677807 0
M  V30 3432 C 329.842 3.3763 0.813834 0
M  V30 3433 C 328.796 4.2791 0.0878663 0
M  V30 3434 C 328.122 5.22894 1.11741 0
M  V30 3435 C 329.422 5.11314 -1.06563 0
M  V30 3436 H 331.116 2.86163 -0.880408 0
M  V30 3437 H 328.662 1.37591 -0.424819 0
M  V30 3438 H 330.615 4.0201 1.26355 0
M  V30 3439 H 329.339 2.83181 1.62715 0
M  V30 3440 H 327.998 3.65 -0.342159 0
M  V30 3441 H 327.646 4.64744 1.92412 0
M  V30 3442 H 327.346 5.84143 0.636477 0
M  V30 3443 H 328.87 5.90151 1.56697 0
M  V30 3444 H 330.284 5.69076 -0.694671 0
M  V30 3445 H 328.681 5.81671 -1.47577 0
M  V30 3446 H 329.751 4.46534 -1.89038 0
M  V30 3447 N 331.094 0.475555 1.50254 0
M  V30 3448 C 332.34 -0.0701075 2.03279 0
M  V30 3449 C 332.695 -1.37007 1.35081 0
M  V30 3450 O 331.988 -1.8577 0.469052 0
M  V30 3451 C 332.182 -0.305114 3.56095 0
M  V30 3452 C 332.011 0.970515 4.39103 0
M  V30 3453 C 330.781 1.51509 4.82051 0
M  V30 3454 C 332.979 1.8671 4.79212 0
M  V30 3455 N 330.961 2.73928 5.49397 0
M  V30 3456 C 332.332 2.93715 5.46014 0
M  V30 3457 C 334.387 1.87695 4.61167 0
M  V30 3458 C 333.09 4.01699 5.96683 0
M  V30 3459 C 335.116 2.94637 5.12779 0
M  V30 3460 C 334.478 4.00361 5.79561 0
M  V30 3461 H 330.577 0.014486 0.781866 0
M  V30 3462 H 333.161 0.644755 1.83714 0
M  V30 3463 H 331.332 -0.989019 3.75597 0
M  V30 3464 H 333.064 -0.845516 3.95769 0
M  V30 3465 H 329.819 1.06367 4.61501 0
M  V30 3466 H 330.243 3.36109 5.87673 0
M  V30 3467 H 334.885 1.07273 4.08965 0
M  V30 3468 H 332.603 4.82934 6.4792 0
M  V30 3469 H 336.189 2.96388 5.00645 0
M  V30 3470 H 335.069 4.81751 6.18778 0
M  V30 3471 N 332.573 -1.56217 0.208337 0
M  V30 3472 C 333.85 -1.89739 -0.475234 0
M  V30 3473 C 334.23 -1.1238 -1.78701 0
M  V30 3474 O 333.578 -0.228979 -2.2735 0
M  V30 3475 C 333.788 -3.42289 -0.681101 0
M  V30 3476 C 335.136 -4.12789 -0.994507 0
M  V30 3477 O 336.16 -3.47814 -0.768357 0
M  V30 3478 O 335.019 -5.27649 -1.42299 0
M  V30 3479 H 332.113 -0.788478 -0.249461 0
M  V30 3480 H 334.659 -1.67855 0.249538 0
M  V30 3481 H 333.431 -3.90534 0.244722 0
M  V30 3482 H 333.054 -3.69909 -1.45785 0
M  V30 3483 N 334.051 0.0651679 -1.57465 0
M  V30 3484 C 334.998 1.07675 -2.04144 0
M  V30 3485 C 335.968 1.38071 -0.923335 0
M  V30 3486 O 337.153 1.49026 -1.19146 0
M  V30 3487 C 334.293 2.38337 -2.49579 0
M  V30 3488 C 333.406 2.14413 -3.75035 0
M  V30 3489 C 332.541 3.38686 -4.09225 0
M  V30 3490 C 331.58 3.10156 -5.27702 0
M  V30 3491 N 330.717 4.26778 -5.57499 0
M  V30 3492 H 335.557 0.671716 -2.90331 0
M  V30 3493 H 333.094 0.3201 -1.43575 0
M  V30 3494 H 335.052 3.14632 -2.73975 0
M  V30 3495 H 333.682 2.7663 -1.6636 0
M  V30 3496 H 332.734 1.2878 -3.57939 0
M  V30 3497 H 334.046 1.89344 -4.61466 0
M  V30 3498 H 333.2 4.23373 -4.34558 0
M  V30 3499 H 331.939 3.66837 -3.21374 0
M  V30 3500 H 330.944 2.23866 -5.02159 0
M  V30 3501 H 332.169 2.8332 -6.17176 0
M  V30 3502 H 330.115 4.54948 -4.72608 0
M  V30 3503 H 330.032 4.05005 -6.38362 0
M  V30 3504 H 331.3 5.12443 -5.87386 0
M  V30 3505 N 335.529 1.53961 0.336706 0
M  V30 3506 C 336.776 1.71536 1.07618 0
M  V30 3507 C 337.104 0.482125 1.8843 0
M  V30 3508 O 336.359 -0.536142 1.88213 0
M  V30 3509 C 336.658 2.93493 2.03953 0
M  V30 3510 C 336.324 4.28811 1.39399 0
M  V30 3511 C 334.986 4.65602 1.21523 0
M  V30 3512 C 337.338 5.12844 0.929541 0
M  V30 3513 C 334.666 5.84037 0.558312 0
M  V30 3514 C 337.018 6.31951 0.286505 0
M  V30 3515 C 335.682 6.67432 0.0954869 0
M  V30 3516 H 334.952 0.627696 0.393801 0
M  V30 3517 H 337.599 1.88186 0.354715 0
M  V30 3518 H 335.904 2.71475 2.82504 0
M  V30 3519 H 337.601 3.04285 2.61174 0
M  V30 3520 H 334.191 3.99858 1.54311 0
M  V30 3521 H 338.375 4.84947 1.05548 0
M  V30 3522 H 333.631 6.10097 0.398995 0
M  V30 3523 H 337.805 6.96352 -0.0814376 0
M  V30 3524 H 335.432 7.59063 -0.415579 0
M  V30 3525 N 337.007 -0.598083 1.45811 0
M  V30 3526 C 338.232 -1.3881 1.54099 0
M  V30 3527 C 338.657 -1.8726 0.177578 0
M  V30 3528 O 338.015 -1.6069 -0.839541 0
M  V30 3529 C 338.063 -2.56217 2.53743 0
M  V30 3530 O 337.167 -3.5716 2.06182 0
M  V30 3531 H 336.508 -0.414024 0.519115 0
M  V30 3532 H 339.038 -0.726971 1.91249 0
M  V30 3533 H 339.048 -3.03337 2.72856 0
M  V30 3534 H 337.723 -2.20303 3.5276 0
M  V30 3535 H 336.3 -3.16624 1.96987 0
M  V30 3536 N 338.485 -1.33259 -0.841409 0
M  V30 3537 C 339.395 -1.25332 -1.98316 0
M  V30 3538 C 340.411 -0.164364 -1.73222 0
M  V30 3539 O 341.587 -0.387486 -1.97637 0
M  V30 3540 C 338.652 -0.990078 -3.32262 0
M  V30 3541 C 337.713 -2.16879 -3.70489 0
M  V30 3542 C 336.946 -1.91801 -4.98044 0
M  V30 3543 O 337.169 -0.867075 -5.63771 0
M  V30 3544 O 336.103 -2.78267 -5.33714 0
M  V30 3545 H 339.929 -2.21344 -2.07944 0
M  V30 3546 H 337.514 -1.1328 -0.974058 0
M  V30 3547 H 339.396 -0.860321 -4.12524 0
M  V30 3548 H 338.071 -0.0602155 -3.23644 0
M  V30 3549 H 336.978 -2.35407 -2.90748 0
M  V30 3550 H 338.311 -3.0819 -3.8377 0
M  V30 3551 N 339.963 1.05934 -1.16686 0
M  V30 3552 C 340.893 2.1546 -0.899949 0
M  V30 3553 C 341.874 1.69391 0.155154 0
M  V30 3554 O 343.059 1.94199 0.00648693 0
M  V30 3555 C 340.189 3.44939 -0.404241 0
M  V30 3556 C 339.143 4.04536 -1.39767 0
M  V30 3557 C 338.469 5.29268 -0.760216 0
M  V30 3558 C 339.769 4.42893 -2.76845 0
M  V30 3559 H 341.463 2.38046 -1.81588 0
M  V30 3560 H 339.009 1.14404 -0.874514 0
M  V30 3561 H 340.962 4.20901 -0.204971 0
M  V30 3562 H 339.686 3.21983 0.547206 0
M  V30 3563 H 338.345 3.30635 -1.58355 0
M  V30 3564 H 337.993 5.02611 0.197831 0
M  V30 3565 H 337.693 5.70101 -1.42332 0
M  V30 3566 H 339.217 6.07924 -0.57105 0
M  V30 3567 H 340.631 5.09921 -2.62019 0
M  V30 3568 H 339.028 4.94721 -3.39663 0
M  V30 3569 H 340.098 3.53584 -3.31823 0
M  V30 3570 N 341.441 0.965919 1.2453 0
M  V30 3571 C 342.666 0.643971 1.97149 0
M  V30 3572 C 343.091 -0.779487 1.71189 0
M  V30 3573 O 342.449 -1.5288 0.974553 0
M  V30 3574 C 342.497 0.922557 3.48599 0
M  V30 3575 O 341.601 0.00707672 4.12399 0
M  V30 3576 H 340.942 0.243647 0.617683 0
M  V30 3577 H 343.472 1.29558 1.58353 0
M  V30 3578 H 343.482 0.853373 3.98976 0
M  V30 3579 H 342.157 1.95996 3.66822 0
M  V30 3580 H 340.734 0.12943 3.72675 0
M  V30 3581 N 342.919 -1.39368 0.735821 0
M  V30 3582 C 344.147 -2.04795 0.294393 0
M  V30 3583 C 344.562 -1.55478 -1.07107 0
M  V30 3584 O 343.919 -0.720038 -1.67695 0
M  V30 3585 C 343.97 -3.6035 0.288071 0
M  V30 3586 O 343.691 -4.07852 1.59963 0
M  V30 3587 C 345.192 -4.42976 -0.169422 0
M  V30 3588 H 342.412 -0.658571 0.128551 0
M  V30 3589 H 344.956 -1.78399 0.999701 0
M  V30 3590 H 343.111 -3.85645 -0.368355 0
M  V30 3591 H 343.525 -5.02181 1.51375 0
M  V30 3592 H 344.999 -5.51864 -0.122687 0
M  V30 3593 H 345.476 -4.22068 -1.21472 0
M  V30 3594 H 346.082 -4.22832 0.457469 0
M  V30 3595 N 344.397 -0.483516 -1.5 0
M  V30 3596 C 345.344 0.304164 -2.28787 0
M  V30 3597 C 346.314 0.976114 -1.34392 0
M  V30 3598 O 347.499 0.986156 -1.63339 0
M  V30 3599 C 344.639 1.37298 -3.16612 0
M  V30 3600 C 343.752 0.714561 -4.26049 0
M  V30 3601 C 342.887 1.76232 -5.01114 0
M  V30 3602 C 341.926 1.08483 -6.0241 0
M  V30 3603 N 341.063 2.076 -6.70706 0
M  V30 3604 H 345.903 -0.373981 -2.95644 0
M  V30 3605 H 343.44 -0.196275 -1.45785 0
M  V30 3606 H 345.398 2.00445 -3.65893 0
M  V30 3607 H 344.028 2.02012 -2.51776 0
M  V30 3608 H 343.08 -0.0297798 -3.80388 0
M  V30 3609 H 344.392 0.180383 -4.98474 0
M  V30 3610 H 343.546 2.46929 -5.54176 0
M  V30 3611 H 342.285 2.33033 -4.28424 0
M  V30 3612 H 341.29 0.363545 -5.48597 0
M  V30 3613 H 342.515 0.523551 -6.77079 0
M  V30 3614 H 340.461 2.63394 -6.00799 0
M  V30 3615 H 340.378 1.59201 -7.39047 0
M  V30 3616 H 341.646 2.77639 -7.2838 0
M  V30 3617 N 345.875 1.56104 -0.216619 0
M  V30 3618 C 347.115 2.00074 0.418322 0
M  V30 3619 C 347.479 1.10098 1.57297 0
M  V30 3620 O 348.68 1.43393 2.27359 0
M  V30 3621 C 346.951 3.47231 0.846477 0
M  V30 3622 S 348.51 4.13223 1.47622 0
M  V30 3623 H 345.328 0.698457 0.132962 0
M  V30 3624 H 347.93 1.92784 -0.324748 0
M  V30 3625 H 346.634 4.104 -0.0036319 0
M  V30 3626 H 346.165 3.58384 1.62248 0
M  V30 3627 H 348.18 4.12005 2.76526 0
M  V30 3628 N 347.353 -0.0568162 1.57498 0
M  V30 3629 C 348.602 -0.752001 1.87157 0
M  V30 3630 C 348.915 -1.77978 0.811375 0
M  V30 3631 O 350.121 -2.52559 0.996293 0
M  V30 3632 C 348.577 -1.38844 3.3204 0
M  V30 3633 C 348.185 -0.398456 4.46225 0
M  V30 3634 C 349.929 -2.06512 3.70882 0
M  V30 3635 C 347.836 -1.04166 5.82154 0
M  V30 3636 H 346.766 -0.28461 0.698222 0
M  V30 3637 H 349.417 -0.00561272 1.83499 0
M  V30 3638 H 347.799 -2.1836 3.30356 0
M  V30 3639 H 348.973 0.367977 4.59328 0
M  V30 3640 H 347.288 0.174592 4.16034 0
M  V30 3641 H 349.885 -2.55437 4.6974 0
M  V30 3642 H 350.228 -2.87117 3.01445 0
M  V30 3643 H 350.761 -1.33808 3.7462 0
M  V30 3644 H 347.5 -0.275614 6.5492 0
M  V30 3645 H 347.02 -1.7786 5.72823 0
M  V30 3646 H 348.699 -1.55715 6.27982 0
M  V30 3647 N 348.832 -1.54138 -0.328536 0
M  V30 3648 C 350.081 -1.71318 -1.06456 0
M  V30 3649 C 350.394 -0.491109 -1.89334 0
M  V30 3650 O 351.6 -0.54416 -2.65991 0
M  V30 3651 C 350.056 -3.03 -1.94214 0
M  V30 3652 C 349.664 -4.32595 -1.16471 0
M  V30 3653 C 351.408 -3.29544 -2.67583 0
M  V30 3654 C 349.315 -5.55341 -2.03347 0
M  V30 3655 H 348.245 -0.638429 -0.401155 0
M  V30 3656 H 350.896 -1.80633 -0.323106 0
M  V30 3657 H 349.278 -2.87579 -2.72239 0
M  V30 3658 H 350.452 -4.58766 -0.432525 0
M  V30 3659 H 348.767 -4.12777 -0.548063 0
M  V30 3660 H 351.364 -4.18444 -3.3288 0
M  V30 3661 H 351.707 -2.47206 -3.34955 0
M  V30 3662 H 352.24 -3.45809 -1.96623 0
M  V30 3663 H 348.979 -6.40268 -1.40491 0
M  V30 3664 H 348.499 -5.33397 -2.74313 0
M  V30 3665 H 350.178 -5.91557 -2.62049 0
M  V30 3666 N 350.31 0.590341 -1.46126 0
M  V30 3667 C 351.257 1.69994 -1.56111 0
M  V30 3668 C 352.227 1.61065 -0.405867 0
M  V30 3669 O 353.412 1.8039 -0.621613 0
M  V30 3670 C 350.552 3.08326 -1.55013 0
M  V30 3671 C 349.665 3.27936 -2.81215 0
M  V30 3672 C 348.8 4.56473 -2.71673 0
M  V30 3673 C 347.839 4.694 -3.92849 0
M  V30 3674 N 346.976 5.89254 -3.81738 0
M  V30 3675 H 351.816 1.60797 -2.50895 0
M  V30 3676 H 349.353 0.783799 -1.24479 0
M  V30 3677 H 351.311 3.88383 -1.52362 0
M  V30 3678 H 349.941 3.16439 -0.637667 0
M  V30 3679 H 348.993 2.41536 -2.93879 0
M  V30 3680 H 350.305 3.33357 -3.71045 0
M  V30 3681 H 349.459 5.44748 -2.67085 0
M  V30 3682 H 348.198 4.53477 -1.7947 0
M  V30 3683 H 347.203 3.79544 -3.97777 0
M  V30 3684 H 348.428 4.7418 -4.86138 0
M  V30 3685 H 346.374 5.87271 -2.92317 0
M  V30 3686 H 346.291 5.95911 -4.65217 0
M  V30 3687 H 347.559 6.79981 -3.81112 0
M  V30 3688 N 351.788 1.33704 0.83433 0
M  V30 3689 C 353.016 1.28467 1.62185 0
M  V30 3690 C 353.431 -0.143526 1.88254 0
M  V30 3691 O 352.788 -1.08709 1.4659 0
M  V30 3692 C 352.839 2.06174 2.96942 0
M  V30 3693 O 352.56 3.43422 2.72016 0
M  V30 3694 C 354.061 2.08201 3.91366 0
M  V30 3695 H 351.281 0.4424 0.504503 0
M  V30 3696 H 353.825 1.76145 1.03891 0
M  V30 3697 H 351.98 1.62167 3.51825 0
M  V30 3698 H 352.394 3.83453 3.57861 0
M  V30 3699 H 353.868 2.67017 4.83121 0
M  V30 3700 H 354.345 1.07343 4.2588 0
M  V30 3701 H 354.951 2.52246 3.42421 0
M  V30 3702 N 353.266 -1.05314 1.17247 0
M  V30 3703 C 354.512 -1.78557 0.961513 0
M  V30 3704 C 354.845 -1.87419 -0.508697 0
M  V30 3705 O 354.12 -1.37307 -1.37757 0
M  V30 3706 C 354.403 -3.22514 1.60176 0
M  V30 3707 C 354.256 -3.21673 3.14399 0
M  V30 3708 C 355.575 -4.20318 1.30463 0
M  V30 3709 H 352.694 -0.6482 0.350723 0
M  V30 3710 H 355.336 -1.23102 1.44727 0
M  V30 3711 H 353.486 -3.69867 1.18871 0
M  V30 3712 H 355.158 -2.82405 3.64753 0
M  V30 3713 H 353.401 -2.60048 3.47214 0
M  V30 3714 H 354.072 -4.23271 3.54324 0
M  V30 3715 H 356.548 -3.81454 1.66229 0
M  V30 3716 H 355.424 -5.19289 1.77848 0
M  V30 3717 H 355.685 -4.41526 0.22521 0
M  V30 3718 N 354.744 -0.972509 -1.24016 0
M  V30 3719 C 355.654 -0.5143 -2.28893 0
M  V30 3720 C 356.67 0.427078 -1.68677 0
M  V30 3721 O 357.846 0.298939 -1.99169 0
M  V30 3722 C 354.911 0.183598 -3.46214 0
M  V30 3723 C 353.972 -0.798202 -4.21814 0
M  V30 3724 C 353.205 -0.133514 -5.33533 0
M  V30 3725 O 353.428 1.07714 -5.60137 0
M  V30 3726 O 352.362 -0.828103 -5.96176 0
M  V30 3727 H 356.188 -1.38629 -2.70214 0
M  V30 3728 H 353.773 -0.739769 -1.29799 0
M  V30 3729 H 355.655 0.575433 -4.17453 0
M  V30 3730 H 354.33 1.03048 -3.0686 0
M  V30 3731 H 353.237 -1.24059 -3.52931 0
M  V30 3732 H 354.57 -1.61364 -4.64997 0
M  V30 3733 N 356.222 1.38976 -0.743202 0
M  V30 3734 C 357.469 2.00343 -0.294752 0
M  V30 3735 C 357.797 1.58983 1.12047 0
M  V30 3736 O 357.052 0.813809 1.77977 0
M  V30 3737 C 357.351 3.55647 -0.353517 0
M  V30 3738 C 357.017 4.16685 -1.72292 0
M  V30 3739 C 355.679 4.3307 -2.09771 0
M  V30 3740 C 358.031 4.50464 -2.62168 0
M  V30 3741 C 355.359 4.80526 -3.36618 0
M  V30 3742 C 357.711 4.99332 -3.88395 0
M  V30 3743 C 356.375 5.13924 -4.25956 0
M  V30 3744 H 355.645 0.733108 -0.107857 0
M  V30 3745 H 358.292 1.6618 -0.951651 0
M  V30 3746 H 356.597 3.89884 0.386954 0
M  V30 3747 H 358.294 4.00998 0.0117269 0
M  V30 3748 H 354.884 4.04339 -1.42155 0
M  V30 3749 H 359.068 4.37416 -2.3448 0
M  V30 3750 H 354.324 4.90008 -3.65653 0
M  V30 3751 H 358.498 5.2444 -4.58187 0
M  V30 3752 H 356.125 5.50457 -5.2431 0
M  V30 3753 N 357.7 0.491464 1.49741 0
M  V30 3754 C 358.663 -0.280906 2.27472 0
M  V30 3755 C 359.663 -0.902454 1.33088 0
M  V30 3756 O 360.853 -0.768465 1.56334 0
M  V30 3757 C 357.985 -1.40209 3.10732 0
M  V30 3758 H 359.178 0.401056 2.97206 0
M  V30 3759 H 356.731 0.246131 1.5435 0
M  V30 3760 H 357.466 -2.11849 2.45541 0
M  V30 3761 H 357.251 -0.961969 3.80117 0
M  V30 3762 H 358.741 -1.9464 3.69466 0
M  V30 3763 N 359.178 -1.55987 0.224894 0
M  V30 3764 C 360.125 -2.20436 -0.68385 0
M  V30 3765 C 361.095 -1.16102 -1.18783 0
M  V30 3766 O 362.28 -1.4447 -1.24632 0
M  V30 3767 C 359.42 -2.89076 -1.88491 0
M  V30 3768 C 358.533 -4.08012 -1.41951 0
M  V30 3769 C 357.668 -4.64426 -2.5784 0
M  V30 3770 C 356.707 -5.75656 -2.08053 0
M  V30 3771 N 355.844 -6.26347 -3.17227 0
M  V30 3772 H 360.684 -2.97727 -0.12754 0
M  V30 3773 H 358.221 -1.47011 -0.0511978 0
M  V30 3774 H 360.179 -3.27059 -2.59014 0
M  V30 3775 H 358.809 -2.14298 -2.41405 0
M  V30 3776 H 357.861 -3.75492 -0.609095 0
M  V30 3777 H 359.173 -4.88375 -1.01447 0
M  V30 3778 H 358.327 -5.04869 -3.3644 0
M  V30 3779 H 357.066 -3.83233 -3.01635 0
M  V30 3780 H 356.071 -5.34712 -1.27916 0
M  V30 3781 H 357.296 -6.58686 -1.65255 0
M  V30 3782 H 355.242 -5.48067 -3.60497 0
M  V30 3783 H 355.159 -7.01843 -2.80986 0
M  V30 3784 H 356.427 -6.71447 -3.95953 0
M  V30 3785 N 360.656 0.0484629 -1.57525 0
M  V30 3786 C 361.588 1.08222 -2.02041 0
M  V30 3787 C 362.601 1.33621 -0.930012 0
M  V30 3788 O 363.79 1.3145 -1.20761 0
M  V30 3789 C 360.89 2.42818 -2.36416 0
M  V30 3790 C 360.063 2.37049 -3.67596 0
M  V30 3791 C 359.122 3.53937 -3.89378 0
M  V30 3792 O 358.148 3.34308 -4.60681 0
M  V30 3793 N 359.35 4.75126 -3.3352 0
M  V30 3794 H 362.115 0.702946 -2.9134 0
M  V30 3795 H 359.676 0.236745 -1.6016 0
M  V30 3796 H 361.668 3.197 -2.48141 0
M  V30 3797 H 360.238 2.72661 -1.52888 0
M  V30 3798 H 359.458 1.45395 -3.66407 0
M  V30 3799 H 360.746 2.30318 -4.53686 0
M  V30 3800 H 360.144 4.93976 -2.75688 0
M  V30 3801 H 358.701 5.49439 -3.50656 0
M  V30 3802 N 362.134 1.5431 0.320358 0
M  V30 3803 C 363.064 1.86912 1.3995 0
M  V30 3804 C 364.045 0.726211 1.53819 0
M  V30 3805 O 365.23 0.980233 1.67646 0
M  V30 3806 C 362.36 2.09932 2.7667 0
M  V30 3807 C 361.314 3.25776 2.77586 0
M  V30 3808 C 360.64 3.34173 4.17412 0
M  V30 3809 C 361.94 4.6335 2.41048 0
M  V30 3810 H 363.634 2.77292 1.12914 0
M  V30 3811 H 361.18 1.33421 0.541738 0
M  V30 3812 H 363.133 2.31324 3.52232 0
M  V30 3813 H 361.857 1.16304 3.0519 0
M  V30 3814 H 360.516 3.04276 2.04479 0
M  V30 3815 H 360.164 2.38098 4.43078 0
M  V30 3816 H 359.864 4.12033 4.18931 0
M  V30 3817 H 361.388 3.57803 4.94782 0
M  V30 3818 H 362.802 4.84602 3.06324 0
M  V30 3819 H 361.199 5.43782 2.53813 0
M  V30 3820 H 362.269 4.65381 1.36193 0
M  V30 3821 N 363.613 -0.582584 1.46437 0
M  V30 3822 C 365.024 -1.1647 1.45916 0
M  V30 3823 C 365.375 -1.95177 0.200077 0
M  V30 3824 O 364.5 -2.04874 -0.696819 0
M  V30 3825 C 365.095 -2.11885 2.64367 0
M  V30 3826 C 363.654 -2.65421 2.66887 0
M  V30 3827 C 362.801 -1.41294 2.38603 0
M  V30 3828 H 365.752 -0.370514 1.54314 0
M  V30 3829 H 365.773 -2.9535 2.39892 0
M  V30 3830 H 365.285 -1.54573 3.5599 0
M  V30 3831 H 363.386 -3.26602 1.79338 0
M  V30 3832 H 363.499 -3.08147 3.66854 0
M  V30 3833 H 361.863 -1.71109 1.88663 0
M  V30 3834 H 362.646 -0.858125 3.32402 0
M  V30 3835 N 365.091 -1.34144 -0.827227 0
M  V30 3836 C 366.339 -1.26009 -1.58007 0
M  V30 3837 C 366.66 0.170971 -1.94249 0
M  V30 3838 O 365.93 1.10256 -1.61927 0
M  V30 3839 H 364.51 -0.463414 -0.585881 0
M  V30 3840 H 367.172 -1.68005 -0.987951 0
M  V30 3841 H 366.268 -1.86187 -2.50481 0
M  V30 3842 N 366.569 1.04691 -1.17803 0
M  V30 3843 C 367.816 1.77782 -0.969532 0
M  V30 3844 C 368.144 1.87926 0.501401 0
M  V30 3845 O 367.399 1.37918 1.38842 0
M  V30 3846 C 367.698 3.21467 -1.56186 0
M  V30 3847 C 367.364 3.3137 -3.05786 0
M  V30 3848 C 366.026 3.3378 -3.46619 0
M  V30 3849 C 368.378 3.31976 -4.01797 0
M  V30 3850 C 365.706 3.34431 -4.82051 0
M  V30 3851 C 368.058 3.34167 -5.37136 0
M  V30 3852 C 366.722 3.34866 -5.77426 0
M  V30 3853 H 365.992 0.650549 -0.354777 0
M  V30 3854 H 368.639 1.23006 -1.46772 0
M  V30 3855 H 366.944 3.79203 -0.985515 0
M  V30 3856 H 368.641 3.76652 -1.37602 0
M  V30 3857 H 365.231 3.3021 -2.73238 0
M  V30 3858 H 369.415 3.29311 -3.71306 0
M  V30 3859 H 364.671 3.33285 -5.12573 0
M  V30 3860 H 368.845 3.33585 -6.11305 0
M  V30 3861 H 366.472 3.35124 -6.82346 0
M  V30 3862 N 368.047 0.979072 1.23499 0
M  V30 3863 C 369.275 0.665202 1.95915 0
M  V30 3864 C 369.69 -0.767571 1.72493 0
M  V30 3865 O 369.047 -1.51635 1.01554 0
M  V30 3866 C 369.098 0.944438 3.48945 0
M  V30 3867 O 368.819 2.3209 3.71572 0
M  V30 3868 C 370.32 0.646336 4.38563 0
M  V30 3869 H 367.54 0.247218 0.623798 0
M  V30 3870 H 370.084 1.31009 1.57025 0
M  V30 3871 H 368.239 0.345575 3.85856 0
M  V30 3872 H 368.653 2.40957 4.65876 0
M  V30 3873 H 370.127 0.892091 5.44744 0
M  V30 3874 H 370.604 -0.419575 4.37191 0
M  V30 3875 H 371.21 1.22562 4.07258 0
M  V30 3876 N 369.525 -1.3858 0.750561 0
M  V30 3877 C 370.753 -2.04471 0.316098 0
M  V30 3878 C 371.168 -1.56606 -1.05452 0
M  V30 3879 O 370.525 -0.737784 -1.66922 0
M  V30 3880 C 370.576 -3.60025 0.326275 0
M  V30 3881 O 370.297 -4.06133 1.6428 0
M  V30 3882 C 371.798 -4.43131 -0.122429 0
M  V30 3883 H 369.018 -0.65717 0.135528 0
M  V30 3884 H 371.562 -1.77329 1.01857 0
M  V30 3885 H 369.717 -3.86014 -0.327431 0
M  V30 3886 H 370.131 -5.00547 1.56693 0
M  V30 3887 H 371.605 -5.51963 -0.0641473 0
M  V30 3888 H 372.082 -4.23333 -1.16988 0
M  V30 3889 H 372.688 -4.22323 0.50229 0
M  V30 3890 N 371.003 -0.499398 -1.49478 0
M  V30 3891 C 371.933 0.269244 -2.31943 0
M  V30 3892 C 372.914 0.964054 -1.40143 0
M  V30 3893 O 374.099 0.955767 -1.69052 0
M  V30 3894 C 371.229 1.33504 -3.20615 0
M  V30 3895 C 370.183 0.760202 -4.21195 0
M  V30 3896 C 369.509 1.9264 -4.98792 0
M  V30 3897 C 370.809 -0.247661 -5.21712 0
M  V30 3898 H 372.503 -0.419082 -2.96452 0
M  V30 3899 H 370.049 -0.202988 -1.42562 0
M  V30 3900 H 372.002 1.88048 -3.77115 0
M  V30 3901 H 370.726 2.05253 -2.54045 0
M  V30 3902 H 369.385 0.23653 -3.65836 0
M  V30 3903 H 369.033 2.63154 -4.28671 0
M  V30 3904 H 368.733 1.54785 -5.66847 0
M  V30 3905 H 370.257 2.4762 -5.58137 0
M  V30 3906 H 371.671 0.209579 -5.72917 0
M  V30 3907 H 370.068 -0.541962 -5.97648 0
M  V30 3908 H 371.138 -1.16409 -4.7072 0
M  V30 3909 N 372.481 1.55866 -0.233164 0
M  V30 3910 C 373.709 2.02998 0.399905 0
M  V30 3911 C 374.124 1.11274 1.52524 0
M  V30 3912 O 373.481 0.124528 1.82075 0
M  V30 3913 C 373.532 3.4958 0.920639 0
M  V30 3914 O 373.253 4.37808 -0.159834 0
M  V30 3915 C 374.754 4.12411 1.62578 0
M  V30 3916 H 371.974 0.664006 0.0966281 0
M  V30 3917 H 374.518 2.0143 -0.353013 0
M  V30 3918 H 372.673 3.51727 1.62379 0
M  V30 3919 H 373.087 5.23981 0.23337 0
M  V30 3920 H 374.561 5.16711 1.94201 0
M  V30 3921 H 375.038 3.5809 2.54299 0
M  V30 3922 H 375.644 4.14148 0.967553 0
M  V30 3923 N 373.959 -0.0401083 1.57549 0
M  V30 3924 C 375.208 -0.732108 1.87944 0
M  V30 3925 C 375.521 -1.77107 0.830206 0
M  V30 3926 O 376.727 -2.51488 1.02302 0
M  V30 3927 C 375.183 -1.35315 3.33494 0
M  V30 3928 C 374.791 -0.351105 4.46622 0
M  V30 3929 C 376.535 -2.02566 3.73051 0
M  V30 3930 C 374.442 -0.979859 5.83226 0
M  V30 3931 H 373.372 -0.277188 0.701201 0
M  V30 3932 H 376.023 0.0138501 1.83495 0
M  V30 3933 H 374.405 -2.14844 3.32653 0
M  V30 3934 H 375.579 0.416674 4.58912 0
M  V30 3935 H 373.894 0.218708 4.15825 0
M  V30 3936 H 376.491 -2.50441 4.72423 0
M  V30 3937 H 376.834 -2.83904 3.04474 0
M  V30 3938 H 377.367 -1.29827 3.76018 0
M  V30 3939 H 374.106 -0.206135 6.55176 0
M  V30 3940 H 373.626 -1.71774 5.74677 0
M  V30 3941 H 375.305 -1.49046 6.29599 0
M  V30 3942 N 375.437 -1.54477 -0.31217 0
M  V30 3943 C 376.4 -1.83923 -1.36766 0
M  V30 3944 C 377.4 -0.711563 -1.44199 0
M  V30 3945 O 378.59 -0.979866 -1.44029 0
M  V30 3946 C 375.722 -2.0095 -2.75376 0
M  V30 3947 H 376.915 -2.78239 -1.11906 0
M  V30 3948 H 374.468 -1.46369 -0.548257 0
M  V30 3949 H 375.203 -1.08883 -3.05475 0
M  V30 3950 H 374.988 -2.83018 -2.71373 0
M  V30 3951 H 376.478 -2.2514 -3.51713 0
M  V30 3952 N 376.915 0.57481 -1.46744 0
M  V30 3953 C 378.192 1.3352 -1.4294 0
M  V30 3954 C 378.572 2.10775 -0.117009 0
M  V30 3955 O 377.92 2.09966 0.901474 0
M  V30 3956 C 378.13 2.25456 -2.66403 0
M  V30 3957 C 379.478 2.87035 -3.12883 0
M  V30 3958 O 380.502 2.35766 -2.67007 0
M  V30 3959 O 379.361 3.80179 -3.92589 0
M  V30 3960 H 376.455 0.600318 -0.568812 0
M  V30 3961 H 379.001 0.595171 -1.58921 0
M  V30 3962 H 377.773 1.67851 -3.53471 0
M  V30 3963 H 377.396 3.06785 -2.52921 0
M  V30 3964 N 378.394 1.34581 0.820102 0
M  V30 3965 C 379.326 1.22236 1.93884 0
M  V30 3966 C 380.339 0.148776 1.62119 0
M  V30 3967 O 381.528 0.400877 1.7394 0
M  V30 3968 C 378.628 0.856542 3.27897 0
M  V30 3969 C 377.801 2.02569 3.87666 0
M  V30 3970 C 376.86 1.63782 5.00062 0
M  V30 3971 O 375.886 2.35477 5.18208 0
M  V30 3972 N 377.088 0.553611 5.77854 0
M  V30 3973 H 379.853 2.18615 2.05006 0
M  V30 3974 H 377.414 1.27573 0.99683 0
M  V30 3975 H 379.406 0.578806 4.0054 0
M  V30 3976 H 377.976 -0.0171518 3.12595 0
M  V30 3977 H 377.196 2.468 3.07382 0
M  V30 3978 H 378.484 2.80752 4.24329 0
M  V30 3979 H 377.882 -0.0423528 5.65684 0
M  V30 3980 H 376.439 0.335614 6.50935 0
M  V30 3981 N 379.872 -1.04064 1.18357 0
M  V30 3982 C 381.121 -1.76662 0.973313 0
M  V30 3983 C 381.434 -1.89154 -0.497991 0
M  V30 3984 O 382.64 -2.58606 -0.826762 0
M  V30 3985 C 381.096 -3.17624 1.69242 0
M  V30 3986 C 380.704 -3.13225 3.20303 0
M  V30 3987 C 382.448 -3.946 1.56497 0
M  V30 3988 C 380.355 -4.49046 3.84853 0
M  V30 3989 H 379.285 -0.662214 0.36054 0
M  V30 3990 H 381.936 -1.16553 1.41731 0
M  V30 3991 H 380.318 -3.78129 1.1762 0
M  V30 3992 H 381.492 -2.62172 3.78949 0
M  V30 3993 H 379.807 -2.49749 3.33189 0
M  V30 3994 H 382.404 -4.95042 2.02084 0
M  V30 3995 H 382.747 -4.13074 0.517243 0
M  V30 3996 H 383.28 -3.4067 2.05399 0
M  V30 3997 H 380.019 -4.35777 4.89672 0
M  V30 3998 H 379.539 -5.00203 3.30994 0
M  V30 3999 H 381.218 -5.17961 3.87718 0
M  V30 4000 N 381.35 -0.985608 -1.22978 0
M  V30 4001 C 382.578 -0.675582 -1.95559 0
M  V30 4002 C 382.993 0.758413 -1.72897 0
M  V30 4003 O 382.35 1.51094 -1.02357 0
M  V30 4004 C 382.401 -0.96293 -3.48439 0
M  V30 4005 O 382.122 -2.34057 -3.70336 0
M  V30 4006 C 383.623 -0.669585 -4.38214 0
M  V30 4007 H 380.843 -0.250523 -0.622478 0
M  V30 4008 H 383.387 -1.3184 -1.56328 0
M  V30 4009 H 381.542 -0.366033 -3.85667 0
M  V30 4010 H 381.956 -2.43424 -4.64591 0
M  V30 4011 H 383.43 -0.920967 -5.44263 0
M  V30 4012 H 383.907 0.396383 -4.37408 0
M  V30 4013 H 384.513 -1.2472 -4.06602 0
M  V30 4014 N 382.828 1.3818 -0.7579 0
M  V30 4015 C 383.758 2.33027 -0.148597 0
M  V30 4016 C 384.739 1.55085 0.69875 0
M  V30 4017 O 385.924 1.83384 0.639053 0
M  V30 4018 C 383.054 3.3928 0.742034 0
M  V30 4019 C 382.008 4.28 -0.00291946 0
M  V30 4020 C 381.334 5.25146 1.00625 0
M  V30 4021 C 382.634 5.08938 -1.17385 0
M  V30 4022 H 384.328 2.84231 -0.940909 0
M  V30 4023 H 381.874 1.36659 -0.453908 0
M  V30 4024 H 383.827 4.046 1.17799 0
M  V30 4025 H 382.551 2.86569 1.56671 0
M  V30 4026 H 381.21 3.64192 -0.419504 0
M  V30 4027 H 380.858 4.68721 1.8251 0
M  V30 4028 H 380.558 5.85361 0.512428 0
M  V30 4029 H 382.082 5.93342 1.44143 0
M  V30 4030 H 383.496 5.67474 -0.815224 0
M  V30 4031 H 381.893 5.7841 -1.59882 0
M  V30 4032 H 382.963 4.42424 -1.98468 0
M  V30 4033 N 384.306 0.507319 1.49211 0
M  V30 4034 C 385.236 -0.256939 2.32082 0
M  V30 4035 C 386.217 -0.956609 1.40652 0
M  V30 4036 O 387.402 -0.946788 1.69557 0
M  V30 4037 C 384.532 -1.31802 3.21318 0
M  V30 4038 C 383.486 -0.737855 4.21592 0
M  V30 4039 C 382.812 -1.89992 4.99807 0
M  V30 4040 C 384.112 0.275325 5.21574 0
M  V30 4041 H 385.806 0.434798 2.96226 0
M  V30 4042 H 383.352 0.210546 1.42452 0
M  V30 4043 H 385.305 -1.86045 3.78107 0
M  V30 4044 H 384.029 -2.03903 2.5513 0
M  V30 4045 H 382.688 -0.217126 3.65956 0
M  V30 4046 H 382.336 -2.60877 4.30061 0
M  V30 4047 H 382.036 -1.51777 5.6766 0
M  V30 4048 H 383.56 -2.44657 5.59442 0
M  V30 4049 H 384.974 -0.179193 5.7302 0
M  V30 4050 H 383.371 0.573649 5.97352 0
M  V30 4051 H 384.441 1.18903 4.70096 0
M  V30 4052 N 385.784 -1.5574 0.241426 0
M  V30 4053 C 386.731 -2.21149 -0.660432 0
M  V30 4054 C 387.701 -1.17356 -1.17545 0
M  V30 4055 O 388.886 -1.45784 -1.23093 0
M  V30 4056 C 386.026 -2.91059 -1.85414 0
M  V30 4057 C 385.139 -4.09495 -1.37616 0
M  V30 4058 C 384.274 -4.67135 -2.529 0
M  V30 4059 C 383.313 -5.77831 -2.01936 0
M  V30 4060 N 382.45 -6.29677 -3.10566 0
M  V30 4061 H 387.29 -2.97845 -0.095955 0
M  V30 4062 H 384.827 -1.47057 -0.0356024 0
M  V30 4063 H 386.785 -3.29788 -2.5553 0
M  V30 4064 H 385.415 -2.16846 -2.39118 0
M  V30 4065 H 384.467 -3.76117 -0.569235 0
M  V30 4066 H 385.779 -4.89423 -0.962618 0
M  V30 4067 H 384.933 -5.08409 -3.31067 0
M  V30 4068 H 383.672 -3.86411 -2.97553 0
M  V30 4069 H 382.677 -5.36039 -1.22238 0
M  V30 4070 H 383.902 -6.60402 -1.58259 0
M  V30 4071 H 381.848 -5.5186 -3.54664 0
M  V30 4072 H 381.765 -7.04783 -2.73526 0
M  V30 4073 H 383.033 -6.75609 -3.88809 0
M  V30 4074 N 387.262 0.0317525 -1.57568 0
M  V30 4075 C 388.225 1.01783 -2.0536 0
M  V30 4076 C 389.225 1.29203 -0.957253 0
M  V30 4077 O 390.415 1.24251 -1.22095 0
M  V30 4078 C 387.547 2.35137 -2.46827 0
M  V30 4079 H 388.74 0.605062 -2.93733 0
M  V30 4080 H 386.293 0.278514 -1.53799 0
M  V30 4081 H 387.028 2.81168 -1.61602 0
M  V30 4082 H 386.813 2.16566 -3.26866 0
M  V30 4083 H 388.303 3.05938 -2.84239 0
M  V30 4084 N 388.74 1.54641 0.303973 0
M  V30 4085 C 389.703 1.84646 1.35789 0
M  V30 4086 C 390.703 0.7192 1.4382 0
M  V30 4087 O 391.893 0.987491 1.43507 0
M  V30 4088 C 389.025 2.02407 2.74307 0
M  V30 4089 H 390.218 2.78829 1.10429 0
M  V30 4090 H 387.771 1.46658 0.540487 0
M  V30 4091 H 388.506 1.10502 3.04893 0
M  V30 4092 H 388.291 2.84453 2.69868 0
M  V30 4093 H 389.781 2.27002 3.50514 0
M  V30 4094 N 390.218 -0.567019 1.47046 0
M  V30 4095 C 391.458 -1.3355 1.54738 0
M  V30 4096 C 391.822 -1.90947 0.200772 0
M  V30 4097 O 393.023 -2.68367 0.152489 0
M  V30 4098 C 391.294 -2.42317 2.62712 0
M  V30 4099 S 392.853 -3.29383 2.89918 0
M  V30 4100 H 389.671 -0.454788 0.546525 0
M  V30 4101 H 392.273 -0.650191 1.84371 0
M  V30 4102 H 390.977 -1.98568 3.59164 0
M  V30 4103 H 390.508 -3.15601 2.34861 0
M  V30 4104 H 392.523 -4.41548 2.26384 0
M  V30 4105 N 391.696 -1.35014 -0.812953 0
M  V30 4106 C 392.626 -1.30069 -1.93919 0
M  V30 4107 C 393.607 -0.176275 -1.69184 0
M  V30 4108 O 394.792 -0.370227 -1.90638 0
M  V30 4109 C 391.922 -1.06547 -3.30552 0
M  V30 4110 C 390.876 -2.15561 -3.69753 0
M  V30 4111 C 390.202 -1.77214 -5.04479 0
M  V30 4112 C 391.502 -3.57476 -3.808 0
M  V30 4113 H 393.196 -2.24303 -1.98314 0
M  V30 4114 H 390.742 -1.07977 -0.952736 0
M  V30 4115 H 392.695 -1.01729 -4.08937 0
M  V30 4116 H 391.419 -0.0875719 -3.26483 0
M  V30 4117 H 390.078 -2.19466 -2.9365 0
M  V30 4118 H 389.726 -0.780589 -4.96906 0
M  V30 4119 H 389.426 -2.50184 -5.31678 0
M  V30 4120 H 390.95 -1.7391 -5.8531 0
M  V30 4121 H 392.364 -3.55929 -4.4943 0
M  V30 4122 H 390.761 -4.29152 -4.19462 0
M  V30 4123 H 391.831 -3.94091 -2.82525 0
M  V30 4124 N 393.175 1.03435 -1.18907 0
M  V30 4125 C 394.452 1.73778 -0.89781 0
M  V30 4126 C 394.832 2.02458 0.597832 0
M  V30 4127 O 394.18 1.67482 1.55441 0
M  V30 4128 C 394.39 3.01845 -1.75187 0
M  V30 4129 C 395.738 3.7546 -1.9828 0
M  V30 4130 O 396.762 3.11759 -1.72293 0
M  V30 4131 O 395.621 4.89966 -2.42065 0
M  V30 4132 H 392.715 0.75651 -0.334098 0
M  V30 4133 H 395.261 1.09444 -1.29693 0
M  V30 4134 H 394.033 2.76836 -2.76545 0
M  V30 4135 H 393.656 3.73919 -1.35167 0
M  V30 4136 N 394.653 0.992116 1.22453 0
M  V30 4137 C 395.902 0.662992 1.90492 0
M  V30 4138 C 396.215 -0.808407 1.78113 0
M  V30 4139 O 397.421 -1.24908 2.41061 0
M  V30 4140 C 395.877 1.1353 3.41524 0
M  V30 4141 C 395.485 2.63187 3.62542 0
M  V30 4142 C 397.229 0.880465 4.15269 0
M  V30 4143 C 395.136 3.04024 5.0727 0
M  V30 4144 H 394.066 0.244278 0.713333 0
M  V30 4145 H 396.717 1.20157 1.38688 0
M  V30 4146 H 395.099 0.52485 3.92506 0
M  V30 4147 H 396.273 3.2957 3.22056 0
M  V30 4148 H 394.588 2.86543 3.02129 0
M  V30 4149 H 397.185 1.16128 5.21937 0
M  V30 4150 H 397.528 -0.183408 4.15896 0
M  V30 4151 H 398.061 1.45307 3.70312 0
M  V30 4152 H 394.8 4.09584 5.11782 0
M  V30 4153 H 394.32 2.42343 5.48662 0
M  V30 4154 H 395.999 2.95282 5.75689 0
M  V30 4155 N 396.131 -1.37776 0.765217 0
M  V30 4156 C 397.061 -2.32945 0.160953 0
M  V30 4157 C 398.042 -1.55454 -0.690516 0
M  V30 4158 O 399.227 -1.83721 -0.629318 0
M  V30 4159 C 396.357 -3.39669 -0.724031 0
M  V30 4160 C 395.311 -4.27992 0.0256173 0
M  V30 4161 C 394.637 -5.25673 -0.978383 0
M  V30 4162 C 395.937 -5.08309 1.20082 0
M  V30 4163 H 397.631 -2.83728 0.955969 0
M  V30 4164 H 395.177 -1.36416 0.461149 0
M  V30 4165 H 397.13 -4.05219 -1.15652 0
M  V30 4166 H 395.854 -2.87396 -1.5515 0
M  V30 4167 H 394.513 -3.63964 0.438812 0
M  V30 4168 H 394.161 -4.69682 -1.80022 0
M  V30 4169 H 393.861 -5.85625 -0.481378 0
M  V30 4170 H 395.385 -5.94098 -1.40995 0
M  V30 4171 H 396.799 -5.67034 0.845307 0
M  V30 4172 H 395.196 -5.77554 1.62947 0
M  V30 4173 H 396.266 -4.41365 2.00811 0
M  V30 4174 N 397.609 -0.515225 -1.4894 0
M  V30 4175 C 398.858 0.0261361 -2.01683 0
M  V30 4176 C 399.171 1.36719 -1.39883 0
M  V30 4177 O 400.377 1.99606 -1.84037 0
M  V30 4178 C 398.833 0.0970111 -3.59769 0
M  V30 4179 C 398.441 -1.23825 -4.30548 0
M  V30 4180 C 400.185 0.587981 -4.20408 0
M  V30 4181 C 398.092 -1.12877 -5.80528 0
M  V30 4182 H 397.022 0.0135398 -0.753878 0
M  V30 4183 H 399.673 -0.656787 -1.71343 0
M  V30 4184 H 398.055 0.844694 -3.86886 0
M  V30 4185 H 399.229 -2.00034 -4.15118 0
M  V30 4186 H 397.544 -1.66379 -3.81716 0
M  V30 4187 H 400.141 0.68763 -5.3026 0
M  V30 4188 H 400.484 1.59026 -3.84729 0
M  V30 4189 H 401.017 -0.103582 -3.97665 0
M  V30 4190 H 397.756 -2.10575 -6.20756 0
M  V30 4191 H 397.276 -0.407799 -5.98412 0
M  V30 4192 H 398.955 -0.813332 -6.41868 0
M  V30 4193 N 399.087 1.5561 -0.249682 0
M  V30 4194 C 400.017 2.24477 0.642826 0
M  V30 4195 C 400.998 1.22601 1.17911 0
M  V30 4196 O 402.183 1.5126 1.21795 0
M  V30 4197 C 399.313 2.94638 1.83863 0
M  V30 4198 C 398.267 4.03227 1.435 0
M  V30 4199 C 397.593 4.60828 2.71186 0
M  V30 4200 C 398.893 5.18796 0.604002 0
M  V30 4201 H 400.587 2.99321 0.0685625 0
M  V30 4202 H 398.133 1.43965 0.0315363 0
M  V30 4203 H 400.086 3.41517 2.46868 0
M  V30 4204 H 398.81 2.17287 2.43832 0
M  V30 4205 H 397.469 3.57121 0.828275 0
M  V30 4206 H 397.117 3.80174 3.29358 0
M  V30 4207 H 396.817 5.34132 2.44901 0
M  V30 4208 H 398.341 5.10442 3.35084 0
M  V30 4209 H 399.755 5.61883 1.13842 0
M  V30 4210 H 398.152 5.98506 0.437097 0
M  V30 4211 H 399.222 4.83384 -0.383147 0
M  V30 4212 N 400.565 -0.0233959 1.57583 0
M  V30 4213 C 401.981 -0.379134 1.55031 0
M  V30 4214 C 402.181 -1.76255 0.976548 0
M  V30 4215 O 401.237 -2.45266 0.600078 0
M  V30 4216 C 402.55 -0.275792 2.99433 0
M  V30 4217 C 404.098 -0.352458 3.11009 0
M  V30 4218 C 404.573 -0.278501 4.57152 0
M  V30 4219 N 406.064 -0.337123 4.61972 0
M  V30 4220 C 406.799 -0.302876 5.726 0
M  V30 4221 N 406.295 -0.220589 6.92449 0
M  V30 4222 N 408.088 -0.353023 5.6099 0
M  V30 4223 H 400.239 0.881869 1.93227 0
M  V30 4224 H 402.502 0.335867 0.886509 0
M  V30 4225 H 402.208 0.675108 3.4516 0
M  V30 4226 H 402.082 -1.06721 3.61788 0
M  V30 4227 H 404.469 -1.29379 2.65226 0
M  V30 4228 H 404.55 0.468409 2.51475 0
M  V30 4229 H 404.194 0.659189 5.03604 0
M  V30 4230 H 404.124 -1.11755 5.14605 0
M  V30 4231 H 406.615 -0.403002 3.75745 0
M  V30 4232 H 406.928 -0.199713 7.72542 0
M  V30 4233 H 405.273 -0.186555 6.9475 0
M  V30 4234 H 408.464 -0.415339 4.66254 0
M  V30 4235 H 408.637 -0.322866 6.47195 0
M  V30 4236 N 402.043 -1.548 -0.295768 0
M  V30 4237 C 403.292 -1.73538 -1.02798 0
M  V30 4238 C 403.605 -0.531159 -1.8825 0
M  V30 4239 O 404.811 -0.600458 -2.64777 0
M  V30 4240 C 403.267 -3.07051 -1.87744 0
M  V30 4241 C 402.875 -4.34968 -1.07269 0
M  V30 4242 C 404.619 -3.35146 -2.60533 0
M  V30 4243 C 402.526 -5.5953 -1.91521 0
M  V30 4244 H 401.456 -0.646794 -0.387522 0
M  V30 4245 H 404.107 -1.81278 -0.284718 0
M  V30 4246 H 402.489 -2.93289 -2.66078 0
M  V30 4247 H 403.663 -4.5958 -0.335117 0
M  V30 4248 H 401.978 -4.13847 -0.460384 0
M  V30 4249 H 404.575 -4.2541 -3.23929 0
M  V30 4250 H 404.918 -2.54255 -3.29636 0
M  V30 4251 H 405.451 -3.49902 -1.89244 0
M  V30 4252 H 402.19 -6.43103 -1.26878 0
M  V30 4253 H 401.71 -5.39096 -2.62937 0
M  V30 4254 H 403.389 -5.96982 -2.49442 0
M  V30 4255 N 403.521 0.559213 -1.47345 0
M  V30 4256 C 404.761 1.32728 -1.55444 0
M  V30 4257 C 405.125 1.90838 -0.210895 0
M  V30 4258 O 406.326 2.68282 -0.166719 0
M  V30 4259 C 404.597 2.4092 -2.63993 0
M  V30 4260 S 406.156 3.2784 -2.91661 0
M  V30 4261 H 402.974 0.451883 -0.548929 0
M  V30 4262 H 405.576 0.640404 -1.84714 0
M  V30 4263 H 404.28 1.9666 -3.60212 0
M  V30 4264 H 403.811 3.14351 -2.36531 0
M  V30 4265 H 405.826 4.40341 -2.28722 0
M  V30 4266 N 404.999 1.35443 0.805782 0
M  V30 4267 C 406.227 1.31878 1.59423 0
M  V30 4268 C 406.642 -0.103562 1.88516 0
M  V30 4269 O 405.999 -1.05575 1.48863 0
M  V30 4270 C 406.05 2.12426 2.92502 0
M  V30 4271 O 405.771 3.49115 2.6467 0
M  V30 4272 C 407.272 2.16455 3.86862 0
M  V30 4273 H 404.492 0.453002 0.495005 0
M  V30 4274 H 407.036 1.78309 1.00131 0
M  V30 4275 H 405.191 1.69593 3.48306 0
M  V30 4276 H 405.605 3.90957 3.49647 0
M  V30 4277 H 407.079 2.77204 4.77349 0
M  V30 4278 H 407.556 1.16352 4.23508 0
M  V30 4279 H 408.162 2.59453 3.36993 0
M  V30 4280 N 406.477 -1.02803 1.19454 0
M  V30 4281 C 407.893 -1.28473 0.946937 0
M  V30 4282 C 408.093 -1.97881 -0.380202 0
M  V30 4283 O 407.149 -2.26719 -1.11151 0
M  V30 4284 C 408.462 -2.13099 2.12154 0
M  V30 4285 C 410.01 -2.26404 2.16126 0
M  V30 4286 C 410.485 -3.14402 3.33039 0
M  V30 4287 N 411.976 -3.21991 3.32981 0
M  V30 4288 C 412.711 -3.90272 4.20089 0
M  V30 4289 N 412.207 -4.60777 5.17355 0
M  V30 4290 N 414 -3.8668 4.07964 0
M  V30 4291 H 406.151 -0.561665 2.04839 0
M  V30 4292 H 408.414 -0.310438 0.89573 0
M  V30 4293 H 408.12 -1.69422 3.08203 0
M  V30 4294 H 407.994 -3.13813 2.09287 0
M  V30 4295 H 410.381 -2.69311 1.20647 0
M  V30 4296 H 410.462 -1.25237 2.23045 0
M  V30 4297 H 410.106 -2.72204 4.28798 0
M  V30 4298 H 410.036 -4.1563 3.23356 0
M  V30 4299 H 412.527 -2.71778 2.62574 0
M  V30 4300 H 412.84 -5.10513 5.80169 0
M  V30 4301 H 411.185 -4.5964 5.21302 0
M  V30 4302 H 414.376 -3.30739 3.31254 0
M  V30 4303 H 414.549 -4.39621 4.76064 0
M  V30 4304 N 407.956 -0.998596 -1.21925 0
M  V30 4305 C 409.186 -0.695276 -1.94549 0
M  V30 4306 C 409.594 0.745079 -1.73911 0
M  V30 4307 O 408.937 1.51507 -1.03881 0
M  V30 4308 C 408.999 -0.928485 -3.47303 0
M  V30 4309 C 408.663 -2.35443 -3.91683 0
M  V30 4310 C 409.66 -3.33428 -3.98901 0
M  V30 4311 C 407.345 -2.69038 -4.24174 0
M  V30 4312 C 409.339 -4.63079 -4.37992 0
M  V30 4313 C 407.026 -3.98906 -4.62944 0
M  V30 4314 C 408.024 -4.95738 -4.69822 0
M  V30 4315 O 407.712 -6.23285 -5.07711 0
M  V30 4316 H 407.444 -0.255902 -0.625692 0
M  V30 4317 H 409.998 -1.33767 -1.5587 0
M  V30 4318 H 408.228 -0.228917 -3.86022 0
M  V30 4319 H 409.917 -0.619539 -4.01144 0
M  V30 4320 H 410.683 -3.08807 -3.73983 0
M  V30 4321 H 406.562 -1.94367 -4.18022 0
M  V30 4322 H 410.106 -5.38658 -4.43275 0
M  V30 4323 H 406.003 -4.23314 -4.87314 0
M  V30 4324 H 406.771 -6.27306 -5.25766 0
M  V30 4325 N 409.434 1.37368 -0.772513 0
M  V30 4326 C 410.662 2.03942 -0.348588 0
M  V30 4327 C 411.077 1.58264 1.02947 0
M  V30 4328 O 410.434 0.764246 1.65727 0
M  V30 4329 C 410.485 3.5946 -0.38351 0
M  V30 4330 O 410.206 4.03468 -1.70721 0
M  V30 4331 C 411.707 4.4327 0.0519152 0
M  V30 4332 H 408.927 0.654931 -0.145966 0
M  V30 4333 H 411.471 1.75686 -1.04665 0
M  V30 4334 H 409.626 3.86486 0.265978 0
M  V30 4335 H 410.04 4.97991 -1.64636 0
M  V30 4336 H 411.514 5.51995 -0.0236733 0
M  V30 4337 H 411.991 4.2514 1.10238 0
M  V30 4338 H 412.597 4.21471 -0.569415 0
M  V30 4339 N 410.912 0.523116 1.48665 0
M  V30 4340 C 412.323 0.0808997 1.86525 0
M  V30 4341 C 412.674 -1.33975 1.43336 0
M  V30 4342 O 411.799 -2.00221 0.821009 0
M  V30 4343 C 412.394 0.140037 3.3851 0
M  V30 4344 C 410.953 -0.246948 3.75589 0
M  V30 4345 C 410.1 0.502845 2.72703 0
M  V30 4346 H 413.051 0.734736 1.40667 0
M  V30 4347 H 413.072 -0.649945 3.74908 0
M  V30 4348 H 412.584 1.17412 3.69914 0
M  V30 4349 H 410.685 -1.28343 3.49798 0
M  V30 4350 H 410.798 0.0878859 4.79019 0
M  V30 4351 H 409.162 -0.0500581 2.54651 0
M  V30 4352 H 409.945 1.53743 3.0695 0
M  V30 4353 N 412.39 -1.55475 0.257931 0
M  V30 4354 C 413.3 -2.2549 -0.647425 0
M  V30 4355 C 414.316 -1.2748 -1.18427 0
M  V30 4356 O 415.492 -1.6038 -1.2182 0
M  V30 4357 C 412.557 -2.94916 -1.82278 0
M  V30 4358 C 411.618 -4.08363 -1.32432 0
M  V30 4359 C 410.851 -4.74469 -2.44366 0
M  V30 4360 O 411.074 -4.39701 -3.63344 0
M  V30 4361 O 410.008 -5.62763 -2.13497 0
M  V30 4362 H 413.834 -3.03593 -0.0807707 0
M  V30 4363 H 411.419 -1.49377 0.0259962 0
M  V30 4364 H 413.301 -3.38606 -2.50846 0
M  V30 4365 H 411.976 -2.19744 -2.37685 0
M  V30 4366 H 410.883 -3.69166 -0.605605 0
M  V30 4367 H 412.216 -4.85385 -0.816211 0
M  V30 4368 N 413.868 0.0150385 -1.57593 0
M  V30 4369 C 414.8 1.03912 -2.04291 0
M  V30 4370 C 415.813 1.31618 -0.958146 0
M  V30 4371 O 417.002 1.28859 -1.23522 0
M  V30 4372 C 414.102 2.37749 -2.41514 0
M  V30 4373 C 413.275 2.29198 -3.72541 0
M  V30 4374 C 412.334 3.45598 -3.96797 0
M  V30 4375 O 411.36 3.24461 -4.67668 0
M  V30 4376 N 412.562 4.67945 -3.43523 0
M  V30 4377 H 415.327 0.64099 -2.92765 0
M  V30 4378 H 412.888 0.20272 -1.60626 0
M  V30 4379 H 414.88 3.14364 -2.54867 0
M  V30 4380 H 413.45 2.69357 -1.58637 0
M  V30 4381 H 412.67 1.3759 -3.69408 0
M  V30 4382 H 413.958 2.20642 -4.5847 0
M  V30 4383 H 413.356 4.88017 -2.86104 0
M  V30 4384 H 411.913 5.41878 -3.62232 0
M  V30 4385 N 415.346 1.54954 0.287554 0
M  V30 4386 C 416.623 1.65569 1.04146 0
M  V30 4387 C 417.003 0.512672 2.0478 0
M  V30 4388 O 416.351 -0.489038 2.23205 0
M  V30 4389 C 416.561 3.04163 1.71131 0
M  V30 4390 C 417.909 3.61429 2.22832 0
M  V30 4391 O 418.933 3.06702 1.81141 0
M  V30 4392 O 417.792 4.57281 2.9926 0
M  V30 4393 H 414.886 0.671881 0.482188 0
M  V30 4394 H 417.432 1.67297 0.28457 0
M  V30 4395 H 416.204 3.78796 0.981303 0
M  V30 4396 H 415.827 3.06271 2.53543 0
M  V30 4397 N 416.824 -0.551391 1.4764 0
M  V30 4398 C 418.052 -1.33357 1.58189 0
M  V30 4399 C 418.467 -1.87342 0.234199 0
M  V30 4400 O 417.824 -1.65301 -0.77343 0
M  V30 4401 C 417.875 -2.49942 2.61173 0
M  V30 4402 O 417.596 -1.98187 3.90709 0
M  V30 4403 C 419.097 -3.42072 2.8196 0
M  V30 4404 H 416.317 -0.40631 0.533998 0
M  V30 4405 H 418.861 -0.667367 1.93304 0
M  V30 4406 H 417.016 -3.12489 2.28975 0
M  V30 4407 H 417.43 -2.74342 4.47031 0
M  V30 4408 H 418.904 -4.20278 3.57869 0
M  V30 4409 H 419.381 -3.95978 1.89995 0
M  V30 4410 H 419.987 -2.85336 3.15378 0
M  V30 4411 N 418.302 -1.35869 -0.798587 0
M  V30 4412 C 419.235 -1.23801 -1.91699 0
M  V30 4413 C 420.213 -0.124143 -1.62125 0
M  V30 4414 O 421.397 -0.293656 -1.86199 0
M  V30 4415 C 418.524 -0.908063 -3.263 0
M  V30 4416 C 417.57 -2.0351 -3.74815 0
M  V30 4417 S 418.403 -3.65183 -3.91665 0
M  V30 4418 C 419.559 -3.34283 -5.29156 0
M  V30 4419 H 419.792 -2.18466 -2.01643 0
M  V30 4420 H 417.325 -1.21178 -0.956833 0
M  V30 4421 H 419.283 -0.724506 -4.04056 0
M  V30 4422 H 417.944 0.0206584 -3.14093 0
M  V30 4423 H 417.137 -1.75858 -4.72324 0
M  V30 4424 H 416.739 -2.1774 -3.04081 0
M  V30 4425 H 419.031 -2.87607 -6.13424 0
M  V30 4426 H 419.974 -4.31022 -5.61806 0
M  V30 4427 H 420.382 -2.69854 -4.95822 0
M  V30 4428 N 419.78 1.02168 -1.19998 0
M  V30 4429 C 421.008 1.79296 -1.03249 0
M  V30 4430 C 421.423 1.84103 0.418502 0
M  V30 4431 O 420.78 1.29031 1.29063 0
M  V30 4432 C 420.831 3.24007 -1.60319 0
M  V30 4433 O 420.552 3.19512 -2.99739 0
M  V30 4434 C 422.053 4.17704 -1.48453 0
M  V30 4435 H 419.273 0.564016 -0.363493 0
M  V30 4436 H 421.817 1.28639 -1.58973 0
M  V30 4437 H 419.972 3.7183 -1.08727 0
M  V30 4438 H 420.386 4.10306 -3.26725 0
M  V30 4439 H 421.86 5.17104 -1.93153 0
M  V30 4440 H 422.337 4.37029 -0.436193 0
M  V30 4441 H 422.943 3.7576 -1.99211 0
M  V30 4442 N 421.258 1.00505 1.21394 0
M  V30 4443 C 422.505 0.687774 1.90462 0
M  V30 4444 C 422.833 -0.78147 1.7811 0
M  V30 4445 O 422.088 -1.58208 1.1519 0
M  V30 4446 C 422.387 1.0546 3.41486 0
M  V30 4447 C 422.053 2.51812 3.74034 0
M  V30 4448 C 420.715 2.91804 3.82628 0
M  V30 4449 C 423.067 3.46614 3.8924 0
M  V30 4450 C 420.395 4.2556 4.03876 0
M  V30 4451 C 422.747 4.80044 4.11995 0
M  V30 4452 C 421.411 5.19759 4.18816 0
M  V30 4453 H 420.681 0.251674 0.696951 0
M  V30 4454 H 423.328 1.26349 1.43903 0
M  V30 4455 H 421.633 0.397133 3.89782 0
M  V30 4456 H 423.33 0.786976 3.93202 0
M  V30 4457 H 419.92 2.1982 3.67936 0
M  V30 4458 H 424.104 3.16883 3.81967 0
M  V30 4459 H 419.36 4.55901 4.07387 0
M  V30 4460 H 423.534 5.53439 4.22704 0
M  V30 4461 H 421.161 6.23418 4.35033 0
M  V30 4462 N 422.737 -1.36956 0.779787 0
M  V30 4463 C 423.962 -2.04283 0.358224 0
M  V30 4464 C 424.387 -1.58422 -1.01411 0
M  V30 4465 O 423.745 -0.748179 -1.65142 0
M  V30 4466 C 423.793 -3.58152 0.419479 0
M  V30 4467 O 422.897 -4.08342 -0.577142 0
M  V30 4468 H 422.238 -0.645967 0.153698 0
M  V30 4469 H 424.768 -1.75108 1.05822 0
M  V30 4470 H 424.778 -4.07041 0.279636 0
M  V30 4471 H 423.453 -3.90886 1.42061 0
M  V30 4472 H 422.03 -3.70751 -0.399755 0
M  V30 4473 N 424.215 -0.530993 -1.48385 0
M  V30 4474 C 425.492 0.0671788 -1.95485 0
M  V30 4475 C 425.872 1.51191 -1.47324 0
M  V30 4476 O 425.22 2.17507 -0.700202 0
M  V30 4477 C 425.43 -0.0511206 -3.48963 0
M  V30 4478 C 426.778 0.107632 -4.24464 0
M  V30 4479 O 427.802 0.0226248 -3.56193 0
M  V30 4480 O 426.661 0.285972 -5.45751 0
M  V30 4481 H 423.755 0.0787365 -0.823243 0
M  V30 4482 H 426.301 -0.595662 -1.58902 0
M  V30 4483 H 425.073 -1.05747 -3.7674 0
M  V30 4484 H 424.696 0.650525 -3.92242 0
M  V30 4485 N 425.693 1.55336 -0.266172 0
M  V30 4486 C 426.941 1.99003 0.35246 0
M  V30 4487 C 427.262 1.15591 1.57047 0
M  V30 4488 O 426.532 0.243268 1.94384 0
M  V30 4489 H 425.112 0.735025 0.133217 0
M  V30 4490 H 427.774 1.91367 -0.369434 0
M  V30 4491 H 426.87 3.05289 0.648453 0
M  V30 4492 N 427.171 -0.0066808 1.57599 0
M  V30 4493 C 428.101 -0.999296 2.11036 0
M  V30 4494 C 429.082 -1.36278 1.01795 0
M  V30 4495 O 430.267 -1.4477 1.29442 0
M  V30 4496 C 427.397 -2.29328 2.60818 0
M  V30 4497 C 426.351 -2.07159 3.74525 0
M  V30 4498 C 425.677 -3.42512 4.10596 0
M  V30 4499 C 426.977 -1.43959 5.02069 0
M  V30 4500 H 428.671 -0.554382 2.94223 0
M  V30 4501 H 426.217 -0.265221 1.41536 0
M  V30 4502 H 428.17 -2.99117 2.96828 0
M  V30 4503 H 426.894 -2.7592 1.74745 0
M  V30 4504 H 425.553 -1.39797 3.38899 0
M  V30 4505 H 425.201 -3.86795 3.21556 0
M  V30 4506 H 424.901 -3.28498 4.87199 0
M  V30 4507 H 426.425 -4.13628 4.4916 0
M  V30 4508 H 427.839 -2.03696 5.35893 0
M  V30 4509 H 426.236 -1.40452 5.83432 0
M  V30 4510 H 427.306 -0.407992 4.83181 0
M  V30 4511 N 428.649 -1.55105 -0.279332 0
M  V30 4512 C 429.877 -1.7943 -1.03017 0
M  V30 4513 C 430.292 -0.564456 -1.80165 0
M  V30 4514 O 429.649 0.466326 -1.76442 0
M  V30 4515 C 429.7 -3.0155 -1.99374 0
M  V30 4516 O 429.421 -4.19784 -1.25352 0
M  V30 4517 C 430.922 -3.3843 -2.86321 0
M  V30 4518 H 428.142 -0.597882 -0.304594 0
M  V30 4519 H 430.686 -2.02105 -0.312035 0
M  V30 4520 H 428.841 -2.81019 -2.66659 0
M  V30 4521 H 429.255 -4.88781 -1.90246 0
M  V30 4522 H 430.729 -4.27066 -3.49741 0
M  V30 4523 H 431.206 -2.57549 -3.5576 0
M  V30 4524 H 431.812 -3.61197 -2.24536 0
M  V30 4525 N 430.127 0.543554 -1.4793 0
M  V30 4526 C 431.057 1.65888 -1.64327 0
M  V30 4527 C 432.038 1.62818 -0.492383 0
M  V30 4528 O 433.223 1.80226 -0.723338 0
M  V30 4529 C 430.353 3.04506 -1.67013 0
M  V30 4530 C 429.307 3.2243 -2.81466 0
M  V30 4531 C 428.633 4.61972 -2.69233 0
M  V30 4532 C 429.933 3.06496 -4.22915 0
M  V30 4533 H 431.627 1.52421 -2.57698 0
M  V30 4534 H 429.173 0.731849 -1.24016 0
M  V30 4535 H 431.126 3.82391 -1.77074 0
M  V30 4536 H 429.85 3.18964 -0.70212 0
M  V30 4537 H 428.509 2.46957 -2.70938 0
M  V30 4538 H 428.157 4.73247 -1.7043 0
M  V30 4539 H 427.857 4.74911 -3.46025 0
M  V30 4540 H 429.381 5.41974 -2.81242 0
M  V30 4541 H 430.795 3.74186 -4.34348 0
M  V30 4542 H 429.192 3.30938 -5.006 0
M  V30 4543 H 430.262 2.03077 -4.40327 0
M  V30 4544 N 431.605 1.3629 0.791371 0
M  V30 4545 C 432.553 1.30514 1.92533 0
M  V30 4546 C 433.547 0.197285 1.68247 0
M  V30 4547 O 434.753 0.364176 1.76278 0
M  V30 4548 H 431.128 0.406263 0.632815 0
M  V30 4549 H 433.099 2.26282 1.94523 0
M  V30 4550 C 431.848 1.10933 3.29529 0
M  V30 4551 H 431.171 1.95427 3.48781 0
M  V30 4552 H 432.611 1.10937 4.0923 0
M  V30 4553 C 431.07 -0.186123 3.36385 0
M  V30 4554 O 431.6 -1.17664 3.84081 0
M  V30 4555 N 429.806 -0.230128 2.89687 0
M  V30 4556 H 429.353 0.576545 2.51065 0
M  V30 4557 H 429.311 -1.09658 2.94657 0
M  V30 4558 N 433.083 -1.0153 1.20538 0
M  V30 4559 C 434.499 -1.27461 0.96051 0
M  V30 4560 C 434.699 -1.98273 -0.359193 0
M  V30 4561 O 433.755 -2.27886 -1.0874 0
M  V30 4562 C 435.068 -2.10837 2.14402 0
M  V30 4563 C 436.616 -2.24099 2.18515 0
M  V30 4564 C 437.091 -3.10852 3.36355 0
M  V30 4565 N 438.582 -3.18441 3.36377 0
M  V30 4566 C 439.317 -3.85795 4.24205 0
M  V30 4567 N 438.813 -4.55264 5.22213 0
M  V30 4568 N 440.606 -3.82331 4.12043 0
M  V30 4569 H 432.757 -0.539907 2.05423 0
M  V30 4570 H 435.02 -0.30092 0.898972 0
M  V30 4571 H 434.726 -1.66144 3.09983 0
M  V30 4572 H 434.6 -3.11576 2.12604 0
M  V30 4573 H 436.987 -2.68016 1.23497 0
M  V30 4574 H 437.068 -1.22865 2.24361 0
M  V30 4575 H 436.712 -2.6764 4.31661 0
M  V30 4576 H 436.642 -4.12177 3.27746 0
M  V30 4577 H 439.133 -2.68978 2.65442 0
M  V30 4578 H 439.446 -5.04331 5.85551 0
M  V30 4579 H 437.791 -4.54085 5.26148 0
M  V30 4580 H 440.982 -3.27207 3.34743 0
M  V30 4581 H 441.155 -4.34547 4.807 0
M  V30 4582 N 434.561 -1.01147 -1.20859 0
M  V30 4583 C 435.789 -0.716911 -1.94082 0
M  V30 4584 C 436.204 0.721568 -1.74467 0
M  V30 4585 O 435.561 1.48889 -1.05539 0
M  V30 4586 C 435.612 -1.03662 -3.46318 0
M  V30 4587 O 435.333 -2.4186 -3.65288 0
M  V30 4588 C 436.834 -0.762386 -4.36695 0
M  V30 4589 H 434.054 -0.26367 -0.617024 0
M  V30 4590 H 436.598 -1.35127 -1.53496 0
M  V30 4591 H 434.753 -0.447757 -3.84804 0
M  V30 4592 H 435.167 -2.53224 -4.59323 0
M  V30 4593 H 436.641 -1.03621 -5.42187 0
M  V30 4594 H 437.118 0.303514 -4.3815 0
M  V30 4595 H 437.724 -1.33316 -4.03865 0
M  V30 4596 N 436.039 1.36541 -0.78704 0
M  V30 4597 C 436.971 2.28761 -0.141773 0
M  V30 4598 C 437.984 1.49365 0.647599 0
M  V30 4599 O 439.173 1.71836 0.483173 0
M  V30 4600 C 436.273 3.28771 0.822368 0
M  V30 4601 C 435.446 4.3732 0.0835594 0
M  V30 4602 C 434.505 5.17307 0.963296 0
M  V30 4603 O 433.531 5.67638 0.421419 0
M  V30 4604 N 434.733 5.33515 2.28784 0
M  V30 4605 H 437.498 2.84777 -0.933919 0
M  V30 4606 H 435.059 1.48682 -0.640735 0
M  V30 4607 H 437.051 3.79169 1.41468 0
M  V30 4608 H 435.621 2.73412 1.5154 0
M  V30 4609 H 434.841 3.88118 -0.689809 0
M  V30 4610 H 436.129 5.0701 -0.426358 0
M  V30 4611 H 435.527 4.94234 2.75226 0
M  V30 4612 H 434.084 5.87165 2.82985 0
M  V30 4613 N 437.518 0.538854 1.48102 0
M  V30 4614 C 438.451 -0.266495 2.26639 0
M  V30 4615 C 439.429 -0.93687 1.32897 0
M  V30 4616 O 440.613 -0.959507 1.62252 0
M  V30 4617 C 437.74 -1.37814 3.09394 0
M  V30 4618 C 436.786 -0.818247 4.18577 0
M  V30 4619 S 437.619 0.320848 5.34538 0
M  V30 4620 C 438.775 -0.793059 6.20855 0
M  V30 4621 H 439.008 0.399994 2.94597 0
M  V30 4622 H 436.541 0.324808 1.50945 0
M  V30 4623 H 438.499 -2.01488 3.57649 0
M  V30 4624 H 437.16 -2.01639 2.40833 0
M  V30 4625 H 436.353 -1.65247 4.7614 0
M  V30 4626 H 435.955 -0.258036 3.73109 0
M  V30 4627 H 438.247 -1.68961 6.56093 0
M  V30 4628 H 439.19 -0.255204 7.0764 0
M  V30 4629 H 439.598 -1.07746 5.54122 0
M  V30 4630 N 438.996 -1.55193 0.274407 0
M  V30 4631 C 439.946 -2.19184 -0.627882 0
M  V30 4632 C 440.93 -1.15625 -1.11892 0
M  V30 4633 O 442.122 -1.41441 -1.06411 0
M  V30 4634 C 439.251 -2.91591 -1.81189 0
M  V30 4635 C 438.337 -4.02438 -1.33807 0
M  V30 4636 N 438.728 -5.0246 -0.580349 0
M  V30 4637 C 437.026 -4.15496 -1.62109 0
M  V30 4638 C 437.727 -5.80756 -0.331344 0
M  V30 4639 N 436.703 -5.36038 -0.903556 0
M  V30 4640 H 440.505 -2.93871 -0.0411216 0
M  V30 4641 H 438.019 -1.62213 0.0779348 0
M  V30 4642 H 440.016 -3.35883 -2.46957 0
M  V30 4643 H 438.676 -2.18414 -2.40261 0
M  V30 4644 H 439.687 -5.17399 -0.227762 0
M  V30 4645 H 436.364 -3.53509 -2.22121 0
M  V30 4646 H 437.754 -6.71335 0.275454 0
M  V30 4647 N 440.474 -0.00167713 -1.576 0
M  V30 4648 C 441.422 1.0074 -2.09652 0
M  V30 4649 C 442.416 1.35483 -1.01689 0
M  V30 4650 O 443.622 1.34028 -1.20152 0
M  V30 4651 H 439.997 0.342537 -0.669457 0
M  V30 4652 H 441.968 0.542841 -2.93421 0
M  V30 4653 C 440.717 2.2899 -2.61647 0
M  V30 4654 H 440.04 2.03124 -3.44355 0
M  V30 4655 H 441.48 2.9787 -3.01744 0
M  V30 4656 C 439.939 3.00085 -1.53136 0
M  V30 4657 O 440.469 3.91135 -0.91524 0
M  V30 4658 N 438.675 2.6194 -1.25841 0
M  V30 4659 H 438.222 1.8798 -1.76129 0
M  V30 4660 H 438.18 3.09822 -0.534576 0
M  V30 4661 N 441.952 1.55251 0.271103 0
M  V30 4662 C 442.915 1.87484 1.31842 0
M  V30 4663 C 443.915 0.749545 1.42262 0
M  V30 4664 O 445.105 1.01771 1.4138 0
M  V30 4665 C 442.237 2.0818 2.69951 0
M  V30 4666 H 443.43 2.81108 1.0449 0
M  V30 4667 H 440.983 1.47771 0.509258 0
M  V30 4668 H 441.718 1.16944 3.02481 0
M  V30 4669 H 441.503 2.90114 2.63774 0
M  V30 4670 H 442.993 2.34385 3.4562 0
M  V30 4671 N 443.43 -0.535701 1.48216 0
M  V30 4672 C 444.678 -1.28928 1.55634 0
M  V30 4673 C 444.999 -1.93645 0.229514 0
M  V30 4674 O 444.269 -1.81038 -0.74846 0
M  V30 4675 H 442.849 -0.47884 0.573342 0
M  V30 4676 H 445.511 -0.623853 1.84646 0
M  V30 4677 H 444.607 -2.07157 2.33436 0
M  V30 4678 N 444.908 -1.36708 -0.784132 0
M  V30 4679 C 446.155 -1.31231 -1.54222 0
M  V30 4680 C 446.483 0.106864 -1.94206 0
M  V30 4681 O 445.738 1.07734 -1.63376 0
M  V30 4682 C 446.037 -2.18571 -2.82774 0
M  V30 4683 C 445.703 -3.67039 -2.61903 0
M  V30 4684 C 444.365 -4.07503 -2.55919 0
M  V30 4685 C 446.717 -4.61149 -2.4288 0
M  V30 4686 C 444.045 -5.40211 -2.28886 0
M  V30 4687 C 446.397 -5.94081 -2.17373 0
M  V30 4688 C 445.061 -6.33664 -2.09825 0
M  V30 4689 H 444.331 -0.48021 -0.56434 0
M  V30 4690 H 446.978 -1.68807 -0.904233 0
M  V30 4691 H 445.283 -1.73949 -3.51068 0
M  V30 4692 H 446.98 -2.11655 -3.40592 0
M  V30 4693 H 443.57 -3.34941 -2.67418 0
M  V30 4694 H 447.754 -4.30756 -2.46501 0
M  V30 4695 H 443.01 -5.69855 -2.21529 0
M  V30 4696 H 447.184 -6.66566 -2.01649 0
M  V30 4697 H 444.811 -7.36423 -1.88641 0
M  V30 4698 N 446.386 1.0089 -1.21074 0
M  V30 4699 C 447.634 1.74262 -1.02358 0
M  V30 4700 C 447.955 1.89869 0.444393 0
M  V30 4701 O 447.225 1.44677 1.32081 0
M  V30 4702 H 445.805 0.645615 -0.375754 0
M  V30 4703 H 448.467 1.21596 -1.52317 0
M  V30 4704 H 447.563 2.74328 -1.4883 0
M  V30 4705 N 447.864 1.01787 1.20321 0
M  V30 4706 C 449.275 0.739307 1.71438 0
M  V30 4707 C 449.626 -0.742041 1.81627 0
M  V30 4708 O 448.751 -1.57903 1.47971 0
M  V30 4709 C 449.346 1.33538 3.11373 0
M  V30 4710 C 447.905 1.10566 3.59795 0
M  V30 4711 C 447.052 1.44028 2.36962 0
M  V30 4712 H 450.003 1.18718 1.05317 0
M  V30 4713 H 450.024 0.726611 3.73498 0
M  V30 4714 H 449.536 2.41352 3.03926 0
M  V30 4715 H 447.637 0.0452405 3.72573 0
M  V30 4716 H 447.75 1.78661 4.44542 0
M  V30 4717 H 446.114 0.85933 2.39766 0
M  V30 4718 H 446.897 2.52901 2.32155 0
M  V30 4719 N 449.342 -1.36122 0.79427 0
M  V30 4720 C 450.272 -2.32551 0.210328 0
M  V30 4721 C 451.253 -1.56884 -0.657386 0
M  V30 4722 O 452.438 -1.85014 -0.590207 0
M  V30 4723 C 449.568 -3.41128 -0.651819 0
M  V30 4724 C 448.522 -4.27842 0.116395 0
M  V30 4725 C 447.848 -5.2763 -0.86666 0
M  V30 4726 C 449.148 -5.05647 1.30837 0
M  V30 4727 H 450.842 -2.81636 1.01594 0
M  V30 4728 H 448.388 -1.35407 0.489981 0
M  V30 4729 H 450.341 -4.07581 -1.07031 0
M  V30 4730 H 449.065 -2.90622 -1.49019 0
M  V30 4731 H 447.724 -3.62952 0.515915 0
M  V30 4732 H 447.372 -4.73395 -1.70019 0
M  V30 4733 H 447.072 -5.86514 -0.35705 0
M  V30 4734 H 448.596 -5.96955 -1.28361 0
M  V30 4735 H 450.01 -5.65113 0.965393 0
M  V30 4736 H 448.407 -5.73967 1.75161 0
M  V30 4737 H 449.477 -4.37006 2.10128 0
M  V30 4738 N 450.82 -0.546701 -1.47814 0
M  V30 4739 C 452.048 -0.0232857 -2.06887 0
M  V30 4740 C 452.463 1.26571 -1.4009 0
M  V30 4741 O 451.82 1.7569 -0.493906 0
M  V30 4742 C 451.871 0.186975 -3.61016 0
M  V30 4743 O 451.592 -1.05097 -4.25307 0
M  V30 4744 C 453.093 0.748872 -4.36929 0
M  V30 4745 H 450.313 -0.0410763 -0.669742 0
M  V30 4746 H 452.857 -0.757117 -1.89968 0
M  V30 4747 H 451.012 0.870903 -3.77484 0
M  V30 4748 H 451.426 -0.842121 -5.17695 0
M  V30 4749 H 452.9 0.845334 -5.45489 0
M  V30 4750 H 453.377 1.75772 -4.02493 0
M  V30 4751 H 453.983 0.100979 -4.2518 0
M  V30 4752 N 452.299 1.55045 -0.282633 0
M  V30 4753 C 453.576 1.9179 0.384166 0
M  V30 4754 C 453.956 1.20778 1.73136 0
M  V30 4755 O 453.304 0.33719 2.25998 0
M  V30 4756 C 453.514 3.45149 0.517014 0
M  V30 4757 C 454.862 4.17064 0.796427 0
M  V30 4758 O 455.886 3.51084 0.601535 0
M  V30 4759 O 454.745 5.33837 1.16962 0
M  V30 4760 H 451.839 0.799483 0.211558 0
M  V30 4761 H 454.385 1.66474 -0.32934 0
M  V30 4762 H 453.157 3.88922 -0.430772 0
M  V30 4763 H 452.78 3.76443 1.2797 0
M  V30 4764 N 453.777 0.010035 1.57597 0
M  V30 4765 C 454.707 -0.976857 2.12084 0
M  V30 4766 C 455.688 -1.35191 1.03235 0
M  V30 4767 O 456.873 -1.43389 1.3097 0
M  V30 4768 C 454.003 -2.26548 2.63236 0
M  V30 4769 C 452.957 -2.03175 3.76701 0
M  V30 4770 C 452.283 -3.38138 4.14206 0
M  V30 4771 C 453.583 -1.38625 5.03568 0
M  V30 4772 H 455.277 -0.523145 2.94794 0
M  V30 4773 H 452.823 -0.250195 1.4181 0
M  V30 4774 H 454.776 -2.95952 2.99984 0
M  V30 4775 H 453.5 -2.74051 1.77661 0
M  V30 4776 H 452.159 -1.36195 3.40362 0
M  V30 4777 H 451.807 -3.83363 3.25641 0
M  V30 4778 H 451.507 -3.23312 4.90656 0
M  V30 4779 H 453.031 -4.08841 4.53521 0
M  V30 4780 H 454.445 -1.98 5.38023 0
M  V30 4781 H 452.842 -1.34256 5.84889 0
M  V30 4782 H 453.912 -0.356722 4.83586 0
M  V30 4783 N 455.255 -1.55392 -0.262866 0
M  V30 4784 C 456.501 -1.76737 -0.99458 0
M  V30 4785 C 456.834 -0.572453 -1.85571 0
M  V30 4786 O 456.109 0.429732 -1.89693 0
M  V30 4787 C 456.392 -3.07824 -1.8686 0
M  V30 4788 C 456.245 -4.3769 -1.03672 0
M  V30 4789 C 457.564 -3.35021 -2.85393 0
M  V30 4790 H 454.683 -0.643005 -0.360157 0
M  V30 4791 H 457.325 -1.88126 -0.266216 0
M  V30 4792 H 455.475 -2.98245 -2.48962 0
M  V30 4793 H 457.147 -4.59238 -0.43563 0
M  V30 4794 H 455.39 -4.32461 -0.340513 0
M  V30 4795 H 456.061 -5.25759 -1.6817 0
M  V30 4796 H 458.537 -3.44458 -2.33426 0
M  V30 4797 H 457.413 -4.27989 -3.43681 0
M  V30 4798 H 457.674 -2.55153 -3.61039 0
M  V30 4799 N 456.733 0.527833 -1.48498 0
M  V30 4800 C 457.98 1.28354 -1.56625 0
M  V30 4801 C 458.308 1.93 -0.241096 0
M  V30 4802 O 457.563 1.79967 0.768798 0
M  V30 4803 C 457.862 2.39275 -2.65485 0
M  V30 4804 C 457.528 1.92268 -4.07853 0
M  V30 4805 C 456.19 1.79166 -4.46602 0
M  V30 4806 C 458.542 1.56771 -4.97064 0
M  V30 4807 C 455.87 1.28905 -5.72364 0
M  V30 4808 C 458.222 1.07972 -6.23318 0
M  V30 4809 C 456.886 0.934887 -6.60921 0
M  V30 4810 H 456.156 0.469682 -0.573131 0
M  V30 4811 H 458.803 0.588781 -1.82224 0
M  V30 4812 H 457.108 3.1443 -2.33754 0
M  V30 4813 H 458.805 2.974 -2.68988 0
M  V30 4814 H 455.395 2.03417 -3.77252 0
M  V30 4815 H 459.579 1.65753 -4.67803 0
M  V30 4816 H 454.835 1.16381 -6.00221 0
M  V30 4817 H 459.009 0.795775 -6.91838 0
M  V30 4818 H 456.636 0.543231 -7.58257 0
M  V30 4819 N 458.211 1.37122 0.776871 0
M  V30 4820 C 459.174 1.32301 1.8716 0
M  V30 4821 C 460.174 0.228099 1.59174 0
M  V30 4822 O 461.364 0.483642 1.67352 0
M  V30 4823 C 458.496 1.054 3.24197 0
M  V30 4824 H 459.689 2.29673 1.92848 0
M  V30 4825 H 457.242 1.22077 0.97606 0
M  V30 4826 H 457.977 0.0853872 3.24188 0
M  V30 4827 H 457.762 1.84648 3.45901 0
M  V30 4828 H 459.252 1.04664 4.04271 0
M  V30 4829 N 459.689 -1.00246 1.21608 0
M  V30 4830 C 460.936 -1.74061 1.03485 0
M  V30 4831 C 461.264 -1.89658 -0.431308 0
M  V30 4832 O 460.519 -1.42976 -1.33627 0
M  V30 4833 C 460.818 -3.15448 1.68009 0
M  V30 4834 C 460.484 -3.19792 3.17874 0
M  V30 4835 C 459.146 -3.20685 3.58768 0
M  V30 4836 C 461.498 -3.16835 4.13842 0
M  V30 4837 C 458.826 -3.16309 4.94131 0
M  V30 4838 C 461.178 -3.14001 5.49169 0
M  V30 4839 C 459.842 -3.13204 5.89457 0
M  V30 4840 H 459.112 -0.636934 0.378677 0
M  V30 4841 H 461.759 -1.17473 1.51236 0
M  V30 4842 H 460.064 -3.75284 1.12557 0
M  V30 4843 H 461.761 -3.71285 1.51487 0
M  V30 4844 H 458.351 -3.19842 2.85305 0
M  V30 4845 H 462.535 -3.15303 3.83272 0
M  V30 4846 H 457.791 -3.14032 5.24589 0
M  V30 4847 H 461.965 -3.10667 6.23265 0
M  V30 4848 H 459.592 -3.09568 6.94314 0
M  V30 4849 N 461.167 -1.02423 -1.1978 0
M  V30 4850 C 462.13 -0.605703 -2.21052 0
M  V30 4851 C 463.13 0.328209 -1.57415 0
M  V30 4852 O 464.32 0.115853 -1.73814 0
M  V30 4853 C 461.452 0.114366 -3.40708 0
M  V30 4854 H 462.645 -1.5017 -2.59594 0
M  V30 4855 H 460.198 -0.814888 -1.33376 0
M  V30 4856 H 460.933 1.02492 -3.07678 0
M  V30 4857 H 460.718 -0.556641 -3.88129 0
M  V30 4858 H 462.208 0.394272 -4.15735 0
M  V30 4859 N 462.645 1.35699 -0.801477 0
M  V30 4860 C 463.593 2.3177 -0.196317 0
M  V30 4861 C 464.587 1.56388 0.651081 0
M  V30 4862 O 465.793 1.71557 0.544815 0
M  V30 4863 H 462.168 0.750669 -0.0447189 0
M  V30 4864 H 464.139 2.8036 -1.02181 0
M  V30 4865 C 462.888 3.41671 0.644702 0
M  V30 4866 H 462.211 3.998 0.0019921 0
M  V30 4867 H 463.651 4.11184 1.0346 0
M  V30 4868 C 462.11 2.84271 1.80808 0
M  V30 4869 O 462.64 2.77408 2.9053 0
M  V30 4870 N 460.846 2.41391 1.61799 0
M  V30 4871 H 460.393 2.47173 0.725493 0
M  V30 4872 H 460.351 2.03334 2.39797 0
M  V30 4873 N 464.123 0.554532 1.47522 0
M  V30 4874 C 465.055 -0.232106 2.28022 0
M  V30 4875 C 466.068 -0.881865 1.36847 0
M  V30 4876 O 467.257 -0.756168 1.61692 0
M  V30 4877 C 464.357 -1.34604 3.11022 0
M  V30 4878 C 463.53 -0.793582 4.30141 0
M  V30 4879 C 462.589 -1.79168 4.94758 0
M  V30 4880 O 461.615 -1.33886 5.5323 0
M  V30 4881 N 462.817 -3.12495 4.89211 0
M  V30 4882 H 465.582 0.458407 2.96173 0
M  V30 4883 H 463.143 0.390433 1.57122 0
M  V30 4884 H 465.135 -2.01243 3.51118 0
M  V30 4885 H 463.705 -1.93983 2.45131 0
M  V30 4886 H 462.925 0.0495025 3.94169 0
M  V30 4887 H 464.213 -0.403776 5.07195 0
M  V30 4888 H 463.611 -3.51931 4.42901 0
M  V30 4889 H 462.168 -3.74698 5.33333 0
M  V30 4890 N 465.601 -1.54893 0.290851 0
M  V30 4891 C 466.531 -2.26103 -0.583084 0
M  V30 4892 C 467.512 -1.25684 -1.14619 0
M  V30 4893 O 468.697 -1.54436 -1.17741 0
M  V30 4894 C 465.827 -2.99409 -1.75987 0
M  V30 4895 C 464.781 -4.0689 -1.32758 0
M  V30 4896 C 464.107 -4.67856 -2.58872 0
M  V30 4897 C 465.407 -5.20215 -0.46624 0
M  V30 4898 H 467.101 -2.99398 0.0108214 0
M  V30 4899 H 464.647 -1.43998 0.00664468 0
M  V30 4900 H 466.6 -3.47943 -2.37727 0
M  V30 4901 H 465.324 -2.23675 -2.37985 0
M  V30 4902 H 463.983 -3.59191 -0.733299 0
M  V30 4903 H 463.631 -3.88772 -3.19163 0
M  V30 4904 H 463.331 -5.40438 -2.30653 0
M  V30 4905 H 464.855 -5.19147 -3.21433 0
M  V30 4906 H 466.269 -5.64704 -0.989047 0
M  V30 4907 H 464.666 -5.99455 -0.27826 0
M  V30 4908 H 465.736 -4.82198 0.511173 0
M  V30 4909 N 467.08 -0.0183926 -1.57589 0
M  V30 4910 C 468.01 0.965596 -2.12599 0
M  V30 4911 C 468.991 1.34641 -1.0395 0
M  V30 4912 O 470.176 1.42693 -1.31729 0
M  V30 4913 C 467.306 2.25149 -2.64434 0
M  V30 4914 C 466.26 2.01175 -3.77773 0
M  V30 4915 C 465.586 3.35937 -4.15994 0
M  V30 4916 C 466.886 1.35953 -5.04296 0
M  V30 4917 H 468.58 0.507504 -2.95067 0
M  V30 4918 H 466.126 0.242671 -1.41941 0
M  V30 4919 H 468.079 2.94357 -3.01549 0
M  V30 4920 H 466.803 2.73105 -1.79112 0
M  V30 4921 H 465.462 1.34388 -3.4108 0
M  V30 4922 H 465.11 3.81631 -3.27669 0
M  V30 4923 H 464.81 3.20705 -4.92364 0
M  V30 4924 H 466.334 4.0643 -4.55683 0
M  V30 4925 H 467.748 1.95144 -5.39065 0
M  V30 4926 H 466.145 1.31152 -5.85593 0
M  V30 4927 H 467.215 0.331071 -4.83768 0
M  V30 4928 N 468.558 1.5553 0.254621 0
M  V30 4929 C 469.969 1.67518 0.824286 0
M  V30 4930 C 470.32 0.614429 1.86331 0
M  V30 4931 O 469.445 -0.240736 2.15057 0
M  V30 4932 C 470.04 3.03692 1.50189 0
M  V30 4933 C 468.599 3.17646 2.01935 0
M  V30 4934 C 467.746 2.63373 0.867746 0
M  V30 4935 H 470.697 1.58671 0.0305843 0
M  V30 4936 H 470.718 2.97706 2.36962 0
M  V30 4937 H 470.23 3.80874 0.745431 0
M  V30 4938 H 468.331 2.45273 2.80485 0
M  V30 4939 H 468.444 4.24455 2.22204 0
M  V30 4940 H 466.808 2.20999 1.26616 0
M  V30 4941 H 467.591 3.43074 0.124498 0
M  V30 4942 N 470.036 -0.519951 1.48776 0
M  V30 4943 C 470.966 -1.63253 1.66945 0
M  V30 4944 C 471.947 -1.62014 0.518224 0
M  V30 4945 O 473.132 -1.79053 0.751919 0
M  V30 4946 C 470.262 -3.0181 1.71836 0
M  V30 4947 C 469.216 -3.17911 2.8656 0
M  V30 4948 C 468.542 -4.5763 2.76548 0
M  V30 4949 C 469.842 -2.99729 4.27738 0
M  V30 4950 H 471.536 -1.48302 2.6009 0
M  V30 4951 H 469.082 -0.712026 1.25165 0
M  V30 4952 H 471.035 -3.79525 1.83135 0
M  V30 4953 H 469.759 -3.17806 0.752775 0
M  V30 4954 H 468.418 -2.42616 2.74833 0
M  V30 4955 H 468.066 -4.70476 1.77937 0
M  V30 4956 H 467.766 -4.69346 3.53536 0
M  V30 4957 H 469.29 -5.37431 2.89828 0
M  V30 4958 H 470.704 -3.67228 4.40246 0
M  V30 4959 H 469.101 -3.22932 5.05801 0
M  V30 4960 H 470.171 -1.96047 4.43502 0
M  V30 4961 N 471.514 -1.37532 -0.769588 0
M  V30 4962 C 472.424 -1.35668 -1.91393 0
M  V30 4963 C 473.44 -0.255954 -1.72107 0
M  V30 4964 O 474.616 -0.491704 -1.95305 0
M  V30 4965 C 471.681 -1.16481 -3.26547 0
M  V30 4966 C 470.742 -2.36212 -3.58472 0
M  V30 4967 C 469.975 -2.17932 -4.87177 0
M  V30 4968 O 470.198 -1.1647 -5.58382 0
M  V30 4969 O 469.132 -3.06167 -5.18214 0
M  V30 4970 H 472.958 -2.32055 -1.95918 0
M  V30 4971 H 470.543 -1.18284 -0.912641 0
M  V30 4972 H 472.425 -1.07778 -4.07384 0
M  V30 4973 H 471.1 -0.231687 -3.2287 0
M  V30 4974 H 470.007 -2.50488 -2.77861 0
M  V30 4975 H 471.34 -3.281 -3.66894 0
M  V30 4976 N 472.992 0.995999 -1.22138 0
M  V30 4977 C 473.925 2.08302 -0.931952 0
M  V30 4978 C 474.903 1.62127 0.123956 0
M  V30 4979 O 476.087 1.88499 -0.00696004 0
M  V30 4980 C 473.214 3.36317 -0.401068 0
M  V30 4981 C 472.26 4.01413 -1.44117 0
M  V30 4982 S 473.093 4.42664 -3.01345 0
M  V30 4983 C 474.249 5.73853 -2.49887 0
M  V30 4984 H 474.482 2.32532 -1.85246 0
M  V30 4985 H 472.015 1.13005 -1.0521 0
M  V30 4986 H 473.973 4.10375 -0.101352 0
M  V30 4987 H 472.634 3.10123 0.498272 0
M  V30 4988 H 471.827 4.9358 -1.01952 0
M  V30 4989 H 471.429 3.33668 -1.68943 0
M  V30 4990 H 473.721 6.50039 -1.90934 0
M  V30 4991 H 474.664 6.20841 -3.40532 0
M  V30 4992 H 475.072 5.31105 -1.9128 0
M  V30 4993 N 474.47 1.03057 1.19235 0
M  V30 4994 C 475.747 0.642608 1.84743 0
M  V30 4995 C 476.127 -0.878577 1.91948 0
M  V30 4996 O 475.475 -1.77597 1.43776 0
M  V30 4997 C 475.685 1.30665 3.23616 0
M  V30 4998 C 477.033 1.43098 3.9976 0
M  V30 4999 O 478.057 1.26396 3.3302 0
M  V30 5000 O 476.916 1.70223 5.19313 0
M  V30 5001 H 474.01 0.223573 0.796206 0
M  V30 5002 H 476.556 1.12883 1.26711 0
M  V30 5003 H 475.328 2.34544 3.13217 0
M  V30 5004 H 474.951 0.808405 3.89295 0
M  V30 5005 N 475.948 -1.35272 0.808662 0
M  V30 5006 C 477.225 -1.93077 0.313181 0
M  V30 5007 C 477.605 -1.73847 -1.19752 0
M  V30 5008 O 476.953 -1.1087 -1.998 0
M  V30 5009 C 477.163 -3.41347 0.726859 0
M  V30 5010 C 478.511 -4.18493 0.717532 0
M  V30 5011 O 479.535 -3.4987 0.668535 0
M  V30 5012 O 478.394 -5.40937 0.777779 0
M  V30 5013 H 475.488 -0.822885 0.0824018 0
M  V30 5014 H 478.034 -1.44335 0.892499 0
M  V30 5015 H 476.806 -3.49082 1.76797 0
M  V30 5016 H 476.429 -3.97411 0.122461 0
M  V30 5017 N 477.426 -0.562348 -1.47226 0
M  V30 5018 C 478.389 0.172056 -2.28553 0
M  V30 5019 C 479.389 0.837928 -1.37242 0
M  V30 5020 O 480.579 0.693001 -1.59822 0
M  V30 5021 C 477.711 1.25223 -3.17068 0
M  V30 5022 H 478.904 -0.542401 -2.94954 0
M  V30 5023 H 476.457 -0.319493 -1.53 0
M  V30 5024 H 477.192 1.99892 -2.55369 0
M  V30 5025 H 476.977 0.779515 -3.84273 0
M  V30 5026 H 478.467 1.76791 -3.78332 0
M  V30 5027 N 478.904 1.54736 -0.299062 0
M  V30 5028 C 479.814 2.27127 0.587413 0
M  V30 5029 C 480.83 1.30575 1.15005 0
M  V30 5030 O 482.006 1.63554 1.17525 0
M  V30 5031 C 479.071 2.99645 1.74395 0
M  V30 5032 C 478.132 4.11731 1.21559 0
M  V30 5033 C 477.365 4.80781 2.317 0
M  V30 5034 O 477.588 4.4918 3.51558 0
M  V30 5035 O 476.522 5.68226 1.98501 0
M  V30 5036 H 480.348 3.037 0.000250109 0
M  V30 5037 H 477.933 1.49256 -0.0655919 0
M  V30 5038 H 479.815 3.45138 2.4178 0
M  V30 5039 H 478.49 2.25969 2.31775 0
M  V30 5040 H 477.397 3.70641 0.507514 0
M  V30 5041 H 478.73 4.87379 0.687233 0
M  V30 5042 N 480.382 0.0267497 1.57577 0
M  V30 5043 C 481.61 -0.662661 1.96001 0
M  V30 5044 C 482.025 -1.65799 0.903117 0
M  V30 5045 O 481.382 -1.82135 -0.115317 0
M  V30 5046 C 481.433 -1.37112 3.34488 0
M  V30 5047 O 481.154 -0.415683 4.36123 0
M  V30 5048 C 482.655 -2.15257 3.8753 0
M  V30 5049 H 479.875 -0.18287 0.6456 0
M  V30 5050 H 482.419 0.0858116 2.0432 0
M  V30 5051 H 480.574 -2.07101 3.27395 0
M  V30 5052 H 480.988 -0.918496 5.16395 0
M  V30 5053 H 482.462 -2.60285 4.86781 0
M  V30 5054 H 482.939 -2.99063 3.21649 0
M  V30 5055 H 483.545 -1.50231 3.97883 0
M  V30 5056 N 481.861 -1.55662 -0.24637 0
M  V30 5057 C 483.109 -1.77168 -0.972411 0
M  V30 5058 C 483.43 -0.590827 -1.85834 0
M  V30 5059 O 482.7 0.393365 -1.9191 0
M  V30 5060 H 481.28 -0.653405 -0.362038 0
M  V30 5061 H 483.942 -1.93101 -0.264189 0
M  V30 5062 H 483.038 -2.68335 -1.59382 0
M  V30 5063 N 483.339 0.512053 -1.4905 0
M  V30 5064 C 484.269 1.62365 -1.67809 0
M  V30 5065 C 485.25 1.61737 -0.526809 0
M  V30 5066 O 486.435 1.78651 -0.761404 0
M  V30 5067 C 483.565 3.00895 -1.73435 0
M  V30 5068 C 482.519 3.16387 -2.88242 0
M  V30 5069 C 481.845 4.56157 -2.78971 0
M  V30 5070 C 483.145 2.97457 -4.29321 0
M  V30 5071 H 484.839 1.46921 -2.60873 0
M  V30 5072 H 482.385 0.705379 -1.2554 0
M  V30 5073 H 484.338 3.78549 -1.85145 0
M  V30 5074 H 483.062 3.17403 -0.769619 0
M  V30 5075 H 481.721 2.41155 -2.76116 0
M  V30 5076 H 481.369 4.69525 -1.8043 0
M  V30 5077 H 481.069 4.67465 -3.5602 0
M  V30 5078 H 482.593 5.35886 -2.92675 0
M  V30 5079 H 484.007 3.64888 -4.42187 0
M  V30 5080 H 482.404 3.20245 -5.07507 0
M  V30 5081 H 483.474 1.93692 -4.44535 0
M  V30 5082 N 484.817 1.37938 0.762283 0
M  V30 5083 C 485.747 1.37176 1.88958 0
M  V30 5084 C 486.728 0.238945 1.68413 0
M  V30 5085 O 487.913 0.440726 1.89133 0
M  V30 5086 C 485.043 1.18742 3.2637 0
M  V30 5087 C 483.997 2.29136 3.61498 0
M  V30 5088 C 483.323 1.95816 4.97554 0
M  V30 5089 C 484.623 3.71363 3.6727 0
M  V30 5090 H 486.317 2.31509 1.89853 0
M  V30 5091 H 483.863 1.11438 0.912005 0
M  V30 5092 H 485.816 1.16837 4.04879 0
M  V30 5093 H 484.54 0.208683 3.25933 0
M  V30 5094 H 483.199 2.30213 2.85303 0
M  V30 5095 H 482.847 0.964475 4.93667 0
M  V30 5096 H 482.547 2.69745 5.22026 0
M  V30 5097 H 484.071 1.95513 5.78452 0
M  V30 5098 H 485.485 3.72364 4.35911 0
M  V30 5099 H 483.882 4.44425 4.03245 0
M  V30 5100 H 484.952 4.04305 2.67704 0
M  V30 5101 N 486.295 -0.989507 1.22664 0
M  V30 5102 C 487.52 -1.77031 1.08051 0
M  V30 5103 C 487.945 -1.84535 -0.364483 0
M  V30 5104 O 487.303 -1.3003 -1.2634 0
M  V30 5105 C 487.351 -3.18 1.70024 0
M  V30 5106 O 486.455 -4.01161 0.956216 0
M  V30 5107 H 485.796 -0.545008 0.379292 0
M  V30 5108 H 488.326 -1.24277 1.62531 0
M  V30 5109 H 488.336 -3.68616 1.74888 0
M  V30 5110 H 487.011 -3.11853 2.75174 0
M  V30 5111 H 485.588 -3.59687 0.98384 0
M  V30 5112 N 487.773 -1.03688 -1.18687 0
M  V30 5113 C 488.736 -0.629115 -2.20397 0
M  V30 5114 C 489.736 0.311495 -1.57754 0
M  V30 5115 O 490.926 0.0974107 -1.73927 0
M  V30 5116 C 488.058 0.0782231 -3.4081 0
M  V30 5117 H 489.251 -1.52915 -2.57987 0
M  V30 5118 H 486.804 -0.828988 -1.32505 0
M  V30 5119 H 487.539 0.992233 -3.08748 0
M  V30 5120 H 487.324 -0.597776 -3.87517 0
M  V30 5121 H 488.814 0.350156 -4.16129 0
M  V30 5122 N 489.251 1.34841 -0.815825 0
M  V30 5123 C 490.5 1.97755 -0.396976 0
M  V30 5124 C 490.813 1.65422 1.04379 0
M  V30 5125 O 492.019 2.21771 1.5662 0
M  V30 5126 C 490.475 3.53818 -0.658869 0
M  V30 5127 C 490.083 3.95051 -2.11278 0
M  V30 5128 C 491.827 4.23397 -0.305834 0
M  V30 5129 C 489.734 5.43997 -2.31994 0
M  V30 5130 H 488.664 0.739985 -0.1447 0
M  V30 5131 H 491.315 1.53781 -1.00118 0
M  V30 5132 H 489.697 3.95997 0.0154112 0
M  V30 5133 H 490.871 3.63998 -2.82564 0
M  V30 5134 H 489.186 3.38388 -2.42657 0
M  V30 5135 H 491.783 5.32899 -0.43854 0
M  V30 5136 H 492.126 4.09508 0.748952 0
M  V30 5137 H 492.659 3.8667 -0.934403 0
M  V30 5138 H 489.398 5.62865 -3.35952 0
M  V30 5139 H 488.918 5.76589 -1.65244 0
M  V30 5140 H 490.597 6.10584 -2.14001 0
M  V30 5141 N 490.729 0.570148 1.46925 0
M  V30 5142 C 491.969 0.0534743 2.0433 0
M  V30 5143 C 492.333 -1.27729 1.4335 0
M  V30 5144 O 493.534 -1.88244 1.91879 0
M  V30 5145 C 491.805 -0.0244296 3.57392 0
M  V30 5146 S 493.364 -0.485351 4.36108 0
M  V30 5147 H 490.182 0.0313908 0.710307 0
M  V30 5148 H 492.784 0.759808 1.80131 0
M  V30 5149 H 491.488 0.948261 3.99295 0
M  V30 5150 H 491.019 -0.753922 3.86108 0
M  V30 5151 H 493.034 -1.74258 4.64595 0
M  V30 5152 N 492.207 -1.54576 0.307264 0
M  V30 5153 C 493.137 -2.26708 -0.55907 0
M  V30 5154 C 494.118 -1.26893 -1.1328 0
M  V30 5155 O 495.303 -1.55677 -1.16097 0
M  V30 5156 C 492.433 -3.01259 -1.72801 0
M  V30 5157 C 491.387 -4.08275 -1.28435 0
M  V30 5158 C 490.713 -4.70575 -2.53895 0
M  V30 5159 C 492.013 -5.2068 -0.411038 0
M  V30 5160 H 493.707 -2.9937 0.042576 0
M  V30 5161 H 491.253 -1.43983 0.0219173 0
M  V30 5162 H 493.206 -3.50444 -2.34023 0
M  V30 5163 H 491.93 -2.26187 -2.356 0
M  V30 5164 H 490.589 -3.59949 -0.695161 0
M  V30 5165 H 490.237 -3.92136 -3.15021 0
M  V30 5166 H 489.937 -5.42854 -2.24908 0
M  V30 5167 H 491.461 -5.22527 -3.15908 0
M  V30 5168 H 492.875 -5.65721 -0.929097 0
M  V30 5169 H 491.272 -5.99716 -0.214664 0
M  V30 5170 H 492.342 -4.81629 0.562287 0
M  V30 5171 N 493.685 -0.035106 -1.57561 0
M  V30 5172 C 494.934 0.641604 -1.91223 0
M  V30 5173 C 495.247 1.72944 -0.913761 0
M  V30 5174 O 496.453 2.46321 -1.14185 0
M  V30 5175 C 494.909 1.19249 -3.3957 0
M  V30 5176 C 494.517 0.137616 -4.47789 0
M  V30 5177 C 496.261 1.84537 -3.82291 0
M  V30 5178 C 494.168 0.700478 -5.87237 0
M  V30 5179 H 493.098 0.243417 -0.713627 0
M  V30 5180 H 495.749 -0.101382 -1.8322 0
M  V30 5181 H 494.131 1.98728 -3.42525 0
M  V30 5182 H 495.305 -0.635153 -4.56402 0
M  V30 5183 H 493.62 -0.416855 -4.14308 0
M  V30 5184 H 496.217 2.27616 -4.83834 0
M  V30 5185 H 496.56 2.69054 -3.17672 0
M  V30 5186 H 497.093 1.11739 -3.81784 0
M  V30 5187 H 493.832 -0.106693 -6.55413 0
M  V30 5188 H 493.352 1.4416 -5.82218 0
M  V30 5189 H 495.031 1.18837 -6.35993 0
M  V30 5190 N 495.163 1.55791 0.238111 0
M  V30 5191 C 496.403 1.79801 0.972163 0
M  V30 5192 C 496.767 0.606027 1.82185 0
M  V30 5193 O 497.968 0.725079 2.58836 0
M  V30 5194 C 496.239 3.08608 1.80266 0
M  V30 5195 S 497.798 3.53872 2.59461 0
M  V30 5196 H 494.616 0.631418 0.326852 0
M  V30 5197 H 497.218 1.94031 0.239212 0
M  V30 5198 H 495.922 3.93419 1.1683 0
M  V30 5199 H 495.453 2.9714 2.57821 0
M  V30 5200 H 497.468 3.15899 3.82651 0
M  V30 5201 N 496.642 -0.504142 1.49319 0
M  V30 5202 C 497.89 -1.25598 1.58334 0
M  V30 5203 C 498.211 -1.93114 0.270538 0
M  V30 5204 O 497.481 -1.82585 -0.709891 0
M  V30 5205 H 496.061 -0.466571 0.58337 0
M  V30 5206 H 498.723 -0.584547 1.85928 0
M  V30 5207 H 497.819 -2.02159 2.37778 0
M  V30 5208 N 498.12 -1.38341 -0.754957 0
M  V30 5209 C 499.397 -1.24995 -1.50451 0
M  V30 5210 C 499.777 0.149244 -2.10572 0
M  V30 5211 O 499.125 1.15861 -1.96948 0
M  V30 5212 C 499.335 -2.35904 -2.57197 0
M  V30 5213 C 500.683 -2.74262 -3.24138 0
M  V30 5214 O 501.707 -2.35205 -2.67501 0
M  V30 5215 O 500.566 -3.4161 -4.26574 0
M  V30 5216 H 497.66 -0.48872 -0.667144 0
M  V30 5217 H 500.206 -1.50165 -0.790486 0
M  V30 5218 H 498.978 -3.2953 -2.11011 0
M  V30 5219 H 498.601 -2.12291 -3.36182 0
M  V30 5220 N 499.598 0.982988 -1.23187 0
M  V30 5221 C 501.014 1.2487 -0.993967 0
M  V30 5222 C 501.214 1.99155 0.306498 0
M  V30 5223 O 500.27 2.30688 1.0266 0
M  V30 5224 C 501.583 2.05078 -2.19917 0
M  V30 5225 C 503.131 2.18227 -2.2438 0
M  V30 5226 C 503.606 3.01825 -3.44479 0
M  V30 5227 N 505.097 3.09411 -3.44702 0
M  V30 5228 C 505.832 3.74412 -4.34285 0
M  V30 5229 N 505.328 4.41259 -5.341 0
M  V30 5230 N 507.121 3.71273 -4.22035 0
M  V30 5231 H 499.272 0.485253 -2.06783 0
M  V30 5232 H 501.535 0.276979 -0.906635 0
M  V30 5233 H 501.241 1.57867 -3.14279 0
M  V30 5234 H 501.115 3.05829 -2.2079 0
M  V30 5235 H 503.502 2.64648 -1.30559 0
M  V30 5236 H 503.583 1.16873 -2.2754 0
M  V30 5237 H 503.227 2.56102 -4.38605 0
M  V30 5238 H 503.157 4.03342 -3.38559 0
M  V30 5239 H 505.648 2.61845 -2.7248 0
M  V30 5240 H 505.961 4.88629 -5.98717 0
M  V30 5241 H 504.306 4.39975 -5.38002 0
M  V30 5242 H 507.497 3.18217 -3.43301 0
M  V30 5243 H 507.67 4.21649 -4.92053 0
M  V30 5244 N 501.076 1.04316 1.18135 0
M  V30 5245 C 502.008 0.594444 2.21357 0
M  V30 5246 C 503.021 -0.337215 1.59269 0
M  V30 5247 O 504.21 -0.131337 1.78016 0
M  V30 5248 C 501.31 -0.151251 3.38562 0
M  V30 5249 C 500.483 0.788907 4.30227 0
M  V30 5250 C 499.542 0.0860572 5.2613 0
M  V30 5251 O 498.568 0.717302 5.64662 0
M  V30 5252 N 499.77 -1.17969 5.68387 0
M  V30 5253 H 502.535 1.48227 2.60478 0
M  V30 5254 H 500.096 0.92396 1.32946 0
M  V30 5255 H 502.088 -0.631352 3.99745 0
M  V30 5256 H 500.658 -0.940639 2.98112 0
M  V30 5257 H 499.878 1.44882 3.6661 0
M  V30 5258 H 501.166 1.42738 4.88368 0
M  V30 5259 H 500.564 -1.71302 5.3914 0
M  V30 5260 H 499.121 -1.60402 6.31755 0
M  V30 5261 N 502.554 -1.34406 0.822964 0
M  V30 5262 C 503.831 -1.92733 0.333641 0
M  V30 5263 C 504.211 -1.75107 -1.17901 0
M  V30 5264 O 503.559 -1.12983 -1.98613 0
M  V30 5265 C 503.769 -3.40557 0.763023 0
M  V30 5266 C 505.117 -4.17709 0.761879 0
M  V30 5267 O 506.141 -3.49141 0.705606 0
M  V30 5268 O 505 -5.40082 0.835109 0
M  V30 5269 H 502.094 -0.821964 0.0911249 0
M  V30 5270 H 504.64 -1.4338 0.907757 0
M  V30 5271 H 503.412 -3.47187 1.8049 0
M  V30 5272 H 503.035 -3.97259 0.164605 0
M  V30 5273 N 504.032 -0.577932 -1.46621 0
M  V30 5274 C 504.962 0.145917 -2.33044 0
M  V30 5275 C 505.943 0.888412 -1.45056 0
M  V30 5276 O 507.128 0.864812 -1.73881 0
M  V30 5277 C 504.258 1.16322 -3.27241 0
M  V30 5278 C 503.212 0.535868 -4.24632 0
M  V30 5279 C 502.538 1.65929 -5.08303 0
M  V30 5280 C 503.838 -0.523861 -5.19666 0
M  V30 5281 H 505.532 -0.575636 -2.93814 0
M  V30 5282 H 503.078 -0.278272 -1.41286 0
M  V30 5283 H 505.031 1.67793 -3.86553 0
M  V30 5284 H 503.755 1.91498 -2.64567 0
M  V30 5285 H 502.414 0.0422759 -3.66576 0
M  V30 5286 H 502.062 2.40061 -4.42018 0
M  V30 5287 H 501.762 1.2452 -5.74255 0
M  V30 5288 H 503.286 2.17686 -5.70478 0
M  V30 5289 H 504.7 -0.0944059 -5.73222 0
M  V30 5290 H 503.097 -0.858 -5.93935 0
M  V30 5291 H 504.167 -1.41197 -4.63887 0
M  V30 5292 N 505.51 1.54411 -0.315457 0
M  V30 5293 C 506.42 2.27737 0.56329 0
M  V30 5294 C 507.436 1.31787 1.13614 0
M  V30 5295 O 508.612 1.64791 1.15784 0
M  V30 5296 C 505.677 3.01478 1.71207 0
M  V30 5297 C 504.738 4.12997 1.17185 0
M  V30 5298 C 503.971 4.83212 2.26588 0
M  V30 5299 O 504.194 4.52884 3.46775 0
M  V30 5300 O 503.128 5.70299 1.92463 0
M  V30 5301 H 506.954 3.03683 -0.0319614 0
M  V30 5302 H 504.539 1.49178 -0.0814188 0
M  V30 5303 H 506.421 3.47683 2.38106 0
M  V30 5304 H 505.096 2.28414 2.29366 0
M  V30 5305 H 504.003 3.71159 0.468174 0
M  V30 5306 H 505.336 4.8808 0.635501 0
M  V30 5307 N 506.988 0.0434614 1.5754 0
M  V30 5308 C 507.92 -0.962586 2.08007 0
M  V30 5309 C 508.933 -1.27972 1.00634 0
M  V30 5310 O 510.122 -1.24186 1.28219 0
M  V30 5311 C 507.222 -2.28621 2.50171 0
M  V30 5312 C 506.395 -2.15214 3.80791 0
M  V30 5313 C 505.454 -3.30633 4.09351 0
M  V30 5314 O 504.48 -3.0688 4.79388 0
M  V30 5315 N 505.682 -4.54873 3.60654 0
M  V30 5316 H 508.447 -0.531891 2.94942 0
M  V30 5317 H 506.008 -0.142965 1.61268 0
M  V30 5318 H 508 -3.04689 2.66359 0
M  V30 5319 H 506.57 -2.63283 1.68525 0
M  V30 5320 H 505.79 -1.23785 3.74261 0
M  V30 5321 H 507.078 -2.03475 4.66343 0
M  V30 5322 H 506.476 -4.77063 3.04019 0
M  V30 5323 H 505.033 -5.2806 3.82094 0
M  V30 5324 N 508.466 -1.55915 -0.229846 0
M  V30 5325 C 509.877 -1.68809 -0.797531 0
M  V30 5326 C 510.228 -0.643995 -1.8533 0
M  V30 5327 O 509.353 0.206492 -2.15413 0
M  V30 5328 C 509.948 -3.06043 -1.45338 0
M  V30 5329 C 508.507 -3.20819 -1.96856 0
M  V30 5330 C 507.654 -2.6472 -0.825736 0
M  V30 5331 H 510.605 -1.58699 -0.00533733 0
M  V30 5332 H 510.626 -3.01438 -2.32196 0
M  V30 5333 H 510.138 -3.82012 -0.684743 0
M  V30 5334 H 508.239 -2.49704 -2.76548 0
M  V30 5335 H 508.352 -4.27937 -2.15423 0
M  V30 5336 H 506.716 -2.22985 -1.23084 0
M  V30 5337 H 507.499 -3.43229 -0.0699019 0
M  V30 5338 N 509.944 0.496216 -1.49584 0
M  V30 5339 C 511.221 1.25755 -1.49816 0
M  V30 5340 C 511.601 2.09859 -0.228572 0
M  V30 5341 O 510.949 2.14449 0.788908 0
M  V30 5342 C 511.159 2.11017 -2.7798 0
M  V30 5343 C 512.507 2.70047 -3.27658 0
M  V30 5344 O 513.531 2.21281 -2.79129 0
M  V30 5345 O 512.39 3.58834 -4.1219 0
M  V30 5346 H 509.484 0.569322 -0.599834 0
M  V30 5347 H 512.03 0.510094 -1.61852 0
M  V30 5348 H 510.802 1.48879 -3.61871 0
M  V30 5349 H 510.425 2.92947 -2.68827 0
M  V30 5350 N 511.423 1.38739 0.74761 0
M  V30 5351 C 512.839 1.20067 1.05148 0
M  V30 5352 C 513.039 0.0534835 2.01429 0
M  V30 5353 O 512.095 -0.59886 2.45296 0
M  V30 5354 C 513.408 2.52957 1.62584 0
M  V30 5355 C 514.956 2.59692 1.74726 0
M  V30 5356 C 515.431 3.92772 2.35573 0
M  V30 5357 N 516.922 3.94343 2.42997 0
M  V30 5358 C 517.657 4.9408 2.90985 0
M  V30 5359 N 517.153 6.04214 3.38965 0
M  V30 5360 N 518.946 4.81466 2.9008 0
M  V30 5361 H 511.097 2.12121 0.108808 0
M  V30 5362 H 513.36 0.941491 0.110899 0
M  V30 5363 H 513.066 3.37389 0.993051 0
M  V30 5364 H 512.94 2.71779 2.61565 0
M  V30 5365 H 515.327 1.75651 2.3713 0
M  V30 5366 H 515.408 2.44731 0.744326 0
M  V30 5367 H 515.052 4.77238 1.738 0
M  V30 5368 H 514.982 4.05046 3.36519 0
M  V30 5369 H 517.473 3.14799 2.0907 0
M  V30 5370 H 517.786 6.76241 3.74056 0
M  V30 5371 H 516.131 6.07825 3.37007 0
M  V30 5372 H 519.322 3.94535 2.51912 0
M  V30 5373 H 519.495 5.59344 3.27166 0
M  V30 5374 N 512.901 -0.976442 1.23707 0
M  V30 5375 C 514.147 -1.72081 1.07312 0
M  V30 5376 C 514.48 -1.90275 -0.388476 0
M  V30 5377 O 513.755 -1.4579 -1.28746 0
M  V30 5378 C 514.038 -3.11675 1.80363 0
M  V30 5379 C 513.891 -3.01027 3.3422 0
M  V30 5380 C 515.21 -4.1117 1.5693 0
M  V30 5381 H 512.329 -0.624583 0.391236 0
M  V30 5382 H 514.971 -1.13649 1.52263 0
M  V30 5383 H 513.121 -3.61559 1.42153 0
M  V30 5384 H 514.793 -2.58637 3.81975 0
M  V30 5385 H 513.036 -2.3744 3.63049 0
M  V30 5386 H 513.707 -3.9988 3.80525 0
M  V30 5387 H 516.183 -3.7011 1.90151 0
M  V30 5388 H 515.059 -5.06928 2.10513 0
M  V30 5389 H 515.32 -4.392 0.505548 0
M  V30 5390 N 514.379 -1.04941 -1.1758 0
M  V30 5391 C 515.656 -0.671918 -1.83697 0
M  V30 5392 C 516.036 0.847929 -1.93322 0
M  V30 5393 O 515.384 1.75287 -1.46583 0
M  V30 5394 C 515.594 -1.35797 -3.21497 0
M  V30 5395 C 516.942 -1.4944 -3.97433 0
M  V30 5396 O 517.966 -1.31678 -3.30967 0
M  V30 5397 O 516.825 -1.78463 -5.1654 0
M  V30 5398 H 513.919 -0.236212 -0.792548 0
M  V30 5399 H 516.465 -1.14884 -1.24899 0
M  V30 5400 H 515.237 -2.39498 -3.09446 0
M  V30 5401 H 514.86 -0.870236 -3.8796 0
M  V30 5402 N 515.857 1.33968 -0.830081 0
M  V30 5403 C 516.79 2.27303 -0.202182 0
M  V30 5404 C 517.768 1.49235 0.645581 0
M  V30 5405 O 518.952 1.78433 0.607762 0
M  V30 5406 C 516.079 3.31025 0.716932 0
M  V30 5407 C 515.125 4.26466 -0.0542271 0
M  V30 5408 S 515.958 5.16707 -1.40622 0
M  V30 5409 C 517.114 6.23962 -0.492167 0
M  V30 5410 H 517.347 2.8021 -0.99346 0
M  V30 5411 H 514.88 1.41124 -0.626359 0
M  V30 5412 H 516.838 3.91271 1.24165 0
M  V30 5413 H 515.499 2.76951 1.4818 0
M  V30 5414 H 514.692 4.99858 0.644785 0
M  V30 5415 H 514.294 3.7051 -0.509722 0
M  V30 5416 H 516.586 6.76774 0.31347 0
M  V30 5417 H 517.529 6.97927 -1.19599 0
M  V30 5418 H 517.937 5.64447 -0.0774176 0
M  V30 5419 N 517.335 0.585699 1.46312 0
M  V30 5420 C 518.265 -0.133556 2.33118 0
M  V30 5421 C 519.246 -0.880707 1.45525 0
M  V30 5422 O 520.431 -0.855579 1.74337 0
M  V30 5423 C 517.561 -1.14585 3.27853 0
M  V30 5424 C 516.515 -0.513341 4.2491 0
M  V30 5425 C 515.841 -1.63231 5.09175 0
M  V30 5426 C 517.141 0.551413 5.19381 0
M  V30 5427 H 518.835 0.59121 2.93505 0
M  V30 5428 H 516.381 0.285761 1.41136 0
M  V30 5429 H 518.334 -1.65741 3.87438 0
M  V30 5430 H 517.058 -1.90093 2.65579 0
M  V30 5431 H 515.717 -0.0228349 3.66593 0
M  V30 5432 H 515.365 -2.37713 4.43285 0
M  V30 5433 H 515.065 -1.21473 5.74907 0
M  V30 5434 H 516.589 -2.14658 5.71624 0
M  V30 5435 H 518.003 0.124804 5.73164 0
M  V30 5436 H 516.4 0.889486 5.93471 0
M  V30 5437 H 517.47 1.43655 4.63132 0
M  V30 5438 N 518.813 -1.54241 0.323641 0
M  V30 5439 C 519.745 -2.21836 -0.576311 0
M  V30 5440 C 520.758 -1.21837 -1.07979 0
M  V30 5441 O 521.947 -1.48306 -0.99336 0
M  V30 5442 C 519.047 -2.86923 -1.80356 0
M  V30 5443 C 518.22 -4.1306 -1.43875 0
M  V30 5444 C 517.279 -4.6174 -2.52353 0
M  V30 5445 O 516.305 -5.26421 -2.16494 0
M  V30 5446 N 517.507 -4.35974 -3.83284 0
M  V30 5447 H 520.272 -2.997 0.00247987 0
M  V30 5448 H 517.833 -1.61233 0.146848 0
M  V30 5449 H 519.825 -3.16414 -2.52318 0
M  V30 5450 H 518.395 -2.12765 -2.29019 0
M  V30 5451 H 517.615 -3.90334 -0.550752 0
M  V30 5452 H 518.903 -4.95148 -1.17071 0
M  V30 5453 H 518.301 -3.84203 -4.15216 0
M  V30 5454 H 516.858 -4.70119 -4.51477 0
M  V30 5455 N 520.291 -0.0518155 -1.57515 0
M  V30 5456 C 521.201 0.937539 -2.15052 0
M  V30 5457 C 522.217 1.34121 -1.10849 0
M  V30 5458 O 523.393 1.418 -1.4302 0
M  V30 5459 C 520.458 2.19379 -2.68466 0
M  V30 5460 C 519.519 1.84841 -3.87469 0
M  V30 5461 C 518.752 3.04477 -4.38326 0
M  V30 5462 O 518.975 4.17868 -3.88256 0
M  V30 5463 O 517.909 2.85453 -5.29906 0
M  V30 5464 H 521.735 0.478201 -2.99912 0
M  V30 5465 H 519.32 0.17012 -1.48428 0
M  V30 5466 H 521.202 2.93084 -3.02787 0
M  V30 5467 H 519.877 2.64449 -1.86677 0
M  V30 5468 H 518.784 1.08449 -3.58036 0
M  V30 5469 H 520.117 1.44569 -4.7049 0
M  V30 5470 N 521.769 1.56035 0.221574 0
M  V30 5471 C 523.18 1.69229 0.788567 0
M  V30 5472 C 523.531 0.653814 1.84986 0
M  V30 5473 O 522.656 -0.195065 2.15519 0
M  V30 5474 C 523.251 3.06809 1.43713 0
M  V30 5475 C 521.81 3.21858 1.95152 0
M  V30 5476 C 520.957 2.65155 0.811685 0
M  V30 5477 H 523.908 1.587 -0.00307894 0
M  V30 5478 H 523.929 3.02666 2.30594 0
M  V30 5479 H 523.441 3.82369 0.664475 0
M  V30 5480 H 521.542 2.51167 2.7522 0
M  V30 5481 H 521.655 4.29073 2.1315 0
M  V30 5482 H 520.019 2.23635 1.21899 0
M  V30 5483 H 520.802 3.43261 0.0516987 0
M  V30 5484 N 523.247 -0.488276 1.49845 0
M  V30 5485 C 524.177 -1.59675 1.70371 0
M  V30 5486 C 525.158 -1.60878 0.552473 0
M  V30 5487 O 526.343 -1.77417 0.78973 0
M  V30 5488 C 523.473 -2.98098 1.782 0
M  V30 5489 C 522.427 -3.11761 2.93239 0
M  V30 5490 C 521.753 -4.51661 2.86193 0
M  V30 5491 C 523.053 -2.90589 4.33999 0
M  V30 5492 H 524.747 -1.42752 2.63177 0
M  V30 5493 H 522.293 -0.685317 1.26647 0
M  V30 5494 H 524.246 -3.75555 1.91144 0
M  V30 5495 H 522.97 -3.16138 0.820018 0
M  V30 5496 H 521.629 -2.36732 2.79917 0
M  V30 5497 H 521.277 -4.66595 1.87877 0
M  V30 5498 H 520.977 -4.61742 3.63412 0
M  V30 5499 H 522.501 -5.31162 3.01163 0
M  V30 5500 H 523.915 -3.57807 4.47936 0
M  V30 5501 H 522.312 -3.1213 5.12538 0
M  V30 5502 H 523.382 -1.86595 4.4756 0
M  V30 5503 N 524.725 -1.39134 -0.740242 0
M  V30 5504 C 525.655 -1.40165 -1.86751 0
M  V30 5505 C 526.636 -0.265708 -1.68012 0
M  V30 5506 O 527.821 -0.47076 -1.88408 0
M  V30 5507 C 524.951 -1.2392 -3.2444 0
M  V30 5508 C 523.905 -2.34858 -3.57807 0
M  V30 5509 C 523.231 -2.03707 -4.94376 0
M  V30 5510 C 524.531 -3.77159 -3.61315 0
M  V30 5511 H 526.225 -2.345 -1.86145 0
M  V30 5512 H 523.771 -1.12875 -0.89416 0
M  V30 5513 H 525.724 -1.23263 -4.02969 0
M  V30 5514 H 524.448 -0.26051 -3.25559 0
M  V30 5515 H 523.107 -2.34723 -2.81604 0
M  V30 5516 H 522.755 -1.04289 -4.9207 0
M  V30 5517 H 522.455 -2.78016 -5.17669 0
M  V30 5518 H 523.979 -2.04691 -5.75268 0
M  V30 5519 H 525.393 -3.79252 -4.29931 0
M  V30 5520 H 523.79 -4.50784 -3.96124 0
M  V30 5521 H 524.86 -4.08513 -2.61238 0
M  V30 5522 N 526.204 0.969867 -1.24223 0
M  V30 5523 C 527.114 2.09806 -1.0497 0
M  V30 5524 C 528.13 1.73998 0.00886455 0
M  V30 5525 O 529.306 2.00513 -0.188848 0
M  V30 5526 C 526.371 3.40467 -0.654452 0
M  V30 5527 C 525.432 3.90236 -1.78926 0
M  V30 5528 C 524.665 5.14662 -1.41277 0
M  V30 5529 O 524.888 5.69602 -0.301632 0
M  V30 5530 O 523.822 5.58761 -2.23763 0
M  V30 5531 H 527.648 2.28942 -1.99548 0
M  V30 5532 H 525.233 1.08197 -1.03023 0
M  V30 5533 H 527.115 4.19039 -0.445452 0
M  V30 5534 H 525.79 3.22636 0.262216 0
M  V30 5535 H 524.697 3.12735 -2.05299 0
M  V30 5536 H 526.03 4.1254 -2.68462 0
M  V30 5537 N 527.682 1.05563 1.17022 0
M  V30 5538 C 528.645 0.664098 2.19368 0
M  V30 5539 C 529.645 -0.286358 1.5823 0
M  V30 5540 O 530.835 -0.069728 1.7406 0
M  V30 5541 C 527.967 -0.0239932 3.40892 0
M  V30 5542 H 529.16 1.57 2.55521 0
M  V30 5543 H 526.713 0.849964 1.31169 0
M  V30 5544 H 527.448 -0.942988 3.10287 0
M  V30 5545 H 527.233 0.659351 3.86516 0
M  V30 5546 H 528.723 -0.283909 4.16634 0
M  V30 5547 N 529.16 -1.33526 0.837174 0
M  V30 5548 C 530.09 -2.31764 0.284206 0
M  V30 5549 C 531.071 -1.58896 -0.607142 0
M  V30 5550 O 532.256 -1.86798 -0.531047 0
M  V30 5551 C 529.386 -3.43029 -0.542962 0
M  V30 5552 C 528.34 -4.27255 0.252451 0
M  V30 5553 C 527.666 -5.3012 -0.69836 0
M  V30 5554 C 528.966 -5.01229 1.46858 0
M  V30 5555 H 530.66 -2.78262 1.10502 0
M  V30 5556 H 528.206 -1.3378 0.532812 0
M  V30 5557 H 530.159 -4.1078 -0.940096 0
M  V30 5558 H 528.883 -2.95216 -1.39697 0
M  V30 5559 H 527.542 -3.61127 0.631124 0
M  V30 5560 H 527.19 -4.78564 -1.54872 0
M  V30 5561 H 526.89 -5.87353 -0.170274 0
M  V30 5562 H 528.414 -6.00737 -1.09305 0
M  V30 5563 H 529.828 -5.61756 1.14469 0
M  V30 5564 H 528.225 -5.68104 1.93333 0
M  V30 5565 H 529.295 -4.301 2.23924 0
M  V30 5566 N 530.638 -0.59345 -1.46 0
M  V30 5567 C 531.585 0.133618 -2.30413 0
M  V30 5568 C 532.555 0.873736 -1.41262 0
M  V30 5569 O 533.74 0.862279 -1.70204 0
M  V30 5570 C 530.88 1.13434 -3.25924 0
M  V30 5571 C 529.993 0.39656 -4.30176 0
M  V30 5572 C 529.128 1.38575 -5.12806 0
M  V30 5573 C 528.167 0.634984 -6.08797 0
M  V30 5574 N 527.304 1.57276 -6.84258 0
M  V30 5575 H 532.144 -0.592252 -2.92055 0
M  V30 5576 H 529.681 -0.303874 -1.43927 0
M  V30 5577 H 531.639 1.72752 -3.79753 0
M  V30 5578 H 530.269 1.82779 -2.66067 0
M  V30 5579 H 529.321 -0.311861 -3.79119 0
M  V30 5580 H 530.633 -0.189869 -4.98438 0
M  V30 5581 H 529.787 2.05141 -5.70966 0
M  V30 5582 H 528.526 2.00611 -4.44529 0
M  V30 5583 H 527.531 -0.0443925 -5.49782 0
M  V30 5584 H 528.756 0.0198678 -6.79097 0
M  V30 5585 H 526.702 2.18103 -6.18682 0
M  V30 5586 H 526.619 1.03941 -7.48821 0
M  V30 5587 H 527.887 2.22844 -7.46968 0
M  V30 5588 N 532.116 1.54067 -0.331816 0
M  V30 5589 C 533.362 2.01012 0.268667 0
M  V30 5590 C 533.695 1.2195 1.51136 0
M  V30 5591 O 532.97 0.303972 1.9211 0
M  V30 5592 C 533.253 3.55158 0.59456 0
M  V30 5593 C 533.106 4.4494 -0.659409 0
M  V30 5594 C 534.425 4.16939 1.4089 0
M  V30 5595 H 531.544 0.730698 0.0961756 0
M  V30 5596 H 534.186 1.84593 -0.450031 0
M  V30 5597 H 532.336 3.6928 1.20685 0
M  V30 5598 H 534.008 4.42675 -1.29756 0
M  V30 5599 H 532.251 4.1428 -1.28665 0
M  V30 5600 H 532.922 5.50643 -0.386804 0
M  V30 5601 H 535.398 4.06443 0.891272 0
M  V30 5602 H 534.274 5.24889 1.60569 0
M  V30 5603 H 534.535 3.70798 2.40752 0
M  V30 5604 N 533.594 0.0601682 1.57485 0
M  V30 5605 C 534.824 -0.620037 1.97076 0
M  V30 5606 C 535.232 -1.64381 0.936784 0
M  V30 5607 O 534.575 -1.83497 -0.0863377 0
M  V30 5608 C 534.637 -1.35617 3.32939 0
M  V30 5609 C 534.301 -0.487208 4.54396 0
M  V30 5610 C 535.298 0.250428 5.19297 0
M  V30 5611 C 532.983 -0.415494 5.00579 0
M  V30 5612 C 534.977 1.04812 6.28723 0
M  V30 5613 C 532.664 0.385879 6.0988 0
M  V30 5614 C 533.662 1.11637 6.73815 0
M  V30 5615 O 533.35 1.90454 7.81014 0
M  V30 5616 H 533.082 -0.173664 0.653312 0
M  V30 5617 H 535.636 0.1256 2.05016 0
M  V30 5618 H 533.866 -2.14763 3.2158 0
M  V30 5619 H 535.555 -1.92749 3.57215 0
M  V30 5620 H 536.321 0.204546 4.84568 0
M  V30 5621 H 532.2 -0.973679 4.506 0
M  V30 5622 H 535.744 1.6188 6.78558 0
M  V30 5623 H 531.641 0.433366 6.44044 0
M  V30 5624 H 532.409 1.82762 7.97835 0
M  V30 5625 N 535.072 -1.5615 -0.213296 0
M  V30 5626 C 536.318 -1.79812 -0.937849 0
M  V30 5627 C 536.651 -0.631201 -1.83656 0
M  V30 5628 O 535.926 0.369165 -1.90964 0
M  V30 5629 C 536.209 -3.13613 -1.76972 0
M  V30 5630 C 536.062 -4.40766 -0.89695 0
M  V30 5631 C 537.381 -3.43931 -2.7459 0
M  V30 5632 H 534.5 -0.654138 -0.339518 0
M  V30 5633 H 537.142 -1.88877 -0.20623 0
M  V30 5634 H 535.292 -3.06015 -2.39347 0
M  V30 5635 H 536.964 -4.60392 -0.289306 0
M  V30 5636 H 535.207 -4.33326 -0.202756 0
M  V30 5637 H 535.878 -5.30843 -1.51358 0
M  V30 5638 H 538.354 -3.5171 -2.22349 0
M  V30 5639 H 537.23 -4.38706 -3.29891 0
M  V30 5640 H 537.491 -2.6651 -3.52739 0
M  V30 5641 N 536.55 0.480323 -1.50102 0
M  V30 5642 C 537.966 0.813295 -1.37323 0
M  V30 5643 C 538.166 1.97027 -0.422206 0
M  V30 5644 O 537.222 2.5212 0.138563 0
M  V30 5645 C 538.535 1.13404 -2.78496 0
M  V30 5646 C 540.083 1.24104 -2.87345 0
M  V30 5647 C 540.558 1.59497 -4.29331 0
M  V30 5648 N 542.049 1.66507 -4.32238 0
M  V30 5649 C 542.784 1.95378 -5.39087 0
M  V30 5650 N 542.28 2.22333 -6.56155 0
M  V30 5651 N 544.073 1.96803 -5.26522 0
M  V30 5652 H 536.224 -0.282291 -2.10516 0
M  V30 5653 H 538.487 -0.063752 -0.945854 0
M  V30 5654 H 538.193 0.357064 -3.49883 0
M  V30 5655 H 538.067 2.07251 -3.15162 0
M  V30 5656 H 540.454 2.00871 -2.16183 0
M  V30 5657 H 540.535 0.282593 -2.54234 0
M  V30 5658 H 540.179 0.832736 -5.01027 0
M  V30 5659 H 540.109 2.56477 -4.59921 0
M  V30 5660 H 542.6 1.47753 -3.47818 0
M  V30 5661 H 542.913 2.43611 -7.33399 0
M  V30 5662 H 541.258 2.19745 -6.59346 0
M  V30 5663 H 544.449 1.75235 -4.34062 0
M  V30 5664 H 544.622 2.18969 -6.09883 0
M  V30 5665 N 538.028 1.39524 0.732853 0
M  V30 5666 C 538.975 1.38416 1.84688 0
M  V30 5667 C 539.945 0.243539 1.64305 0
M  V30 5668 O 541.13 0.438979 1.85681 0
M  V30 5669 C 538.27 1.23555 3.22224 0
M  V30 5670 C 537.383 2.47179 3.54298 0
M  V30 5671 C 536.518 2.2489 4.81246 0
M  V30 5672 C 535.557 3.44178 5.0617 0
M  V30 5673 N 534.694 3.21192 6.24323 0
M  V30 5674 H 539.534 2.33645 1.84971 0
M  V30 5675 H 537.071 1.16059 0.903804 0
M  V30 5676 H 539.029 1.12949 4.0162 0
M  V30 5677 H 537.659 0.31954 3.21215 0
M  V30 5678 H 536.711 2.68379 2.69587 0
M  V30 5679 H 538.023 3.36022 3.68633 0
M  V30 5680 H 537.177 2.11538 5.68627 0
M  V30 5681 H 535.916 1.33443 4.69089 0
M  V30 5682 H 534.921 3.58025 4.17251 0
M  V30 5683 H 536.146 4.36528 5.20212 0
M  V30 5684 H 534.092 2.32413 6.1345 0
M  V30 5685 H 534.009 4.03594 6.39256 0
M  V30 5686 H 535.277 3.1154 7.14537 0
M  V30 5687 N 539.506 -0.963266 1.24736 0
M  V30 5688 C 540.922 -1.23273 1.01371 0
M  V30 5689 C 541.122 -1.99618 -0.274776 0
M  V30 5690 O 540.178 -2.32293 -0.989769 0
M  V30 5691 C 541.491 -2.01554 2.23152 0
M  V30 5692 C 543.039 -2.14629 2.27823 0
M  V30 5693 C 543.514 -2.96307 3.49237 0
M  V30 5694 N 545.005 -3.03887 3.49581 0
M  V30 5695 C 545.74 -3.67456 4.40186 0
M  V30 5696 N 545.236 -4.32706 5.41052 0
M  V30 5697 N 547.029 -3.64511 4.27888 0
M  V30 5698 H 539.18 -0.452294 2.07528 0
M  V30 5699 H 541.443 -0.262521 0.910926 0
M  V30 5700 H 541.149 -1.52847 3.1675 0
M  V30 5701 H 541.023 -3.02278 2.25628 0
M  V30 5702 H 543.41 -2.62537 1.34753 0
M  V30 5703 H 543.491 -1.13238 2.2937 0
M  V30 5704 H 543.135 -2.49091 4.42624 0
M  V30 5705 H 543.065 -3.97905 3.44933 0
M  V30 5706 H 545.556 -2.57477 2.76611 0
M  V30 5707 H 545.869 -4.79042 6.06415 0
M  V30 5708 H 544.214 -4.31361 5.44934 0
M  V30 5709 H 547.405 -3.12715 3.4832 0
M  V30 5710 H 547.578 -4.13768 4.98698 0
M  V30 5711 N 540.985 -1.06182 -1.16461 0
M  V30 5712 C 542.401 -0.785065 -1.38956 0
M  V30 5713 C 542.601 0.616103 -1.9185 0
M  V30 5714 O 541.657 1.37686 -2.11657 0
M  V30 5715 C 542.97 -1.84902 -2.37132 0
M  V30 5716 C 544.518 -1.8724 -2.50819 0
M  V30 5717 C 544.993 -2.92686 -3.52277 0
M  V30 5718 N 546.484 -2.91712 -3.59803 0
M  V30 5719 C 547.219 -3.69949 -4.38093 0
M  V30 5720 N 546.715 -4.58 -5.19815 0
M  V30 5721 N 548.508 -3.58346 -4.33064 0
M  V30 5722 H 540.659 -1.96569 -0.804634 0
M  V30 5723 H 542.922 -0.851747 -0.416211 0
M  V30 5724 H 542.628 -2.85518 -2.0536 0
M  V30 5725 H 542.502 -1.69908 -3.36766 0
M  V30 5726 H 544.889 -0.872827 -2.81897 0
M  V30 5727 H 544.97 -2.06311 -1.51226 0
M  V30 5728 H 544.614 -3.92835 -3.21937 0
M  V30 5729 H 544.544 -2.70864 -4.51598 0
M  V30 5730 H 547.035 -2.27876 -3.01464 0
M  V30 5731 H 547.348 -5.14357 -5.76764 0
M  V30 5732 H 545.693 -4.62056 -5.19162 0
M  V30 5733 H 548.884 -2.88943 -3.68279 0
M  V30 5734 H 549.057 -4.19563 -4.93833 0
M  V30 5735 N 542.463 1.3308 -0.844243 0
M  V30 5736 C 543.874 1.7992 -0.498566 0
M  V30 5737 C 544.225 1.69808 0.982834 0
M  V30 5738 O 543.35 1.25051 1.7661 0
M  V30 5739 C 543.945 3.26677 -0.898204 0
M  V30 5740 C 542.504 3.71513 -0.604583 0
M  V30 5741 C 541.651 2.54393 -1.10362 0
M  V30 5742 H 544.602 1.20526 -1.03244 0
M  V30 5743 H 544.623 3.79918 -0.21039 0
M  V30 5744 H 544.135 3.34004 -1.97643 0
M  V30 5745 H 542.236 3.69708 0.46335 0
M  V30 5746 H 542.349 4.64755 -1.16358 0
M  V30 5747 H 540.713 2.49246 -0.524273 0
M  V30 5748 H 541.496 2.6448 -2.18873 0
M  V30 5749 N 543.941 0.601185 1.45683 0
M  V30 5750 C 545.166 0.0982245 2.07167 0
M  V30 5751 C 545.591 -1.20546 1.44396 0
M  V30 5752 O 544.949 -1.73247 0.534347 0
M  V30 5753 C 544.997 -0.0346976 3.60583 0
M  V30 5754 O 544.101 -1.08657 3.97828 0
M  V30 5755 H 543.442 0.0711618 0.660176 0
M  V30 5756 H 545.972 0.829376 1.87036 0
M  V30 5757 H 545.982 -0.234969 4.07323 0
M  V30 5758 H 544.657 0.917265 4.05659 0
M  V30 5759 H 543.234 -0.863275 3.6277 0
M  V30 5760 N 545.419 -1.53889 0.339982 0
M  V30 5761 C 546.835 -1.59595 -0.0120752 0
M  V30 5762 C 547.035 -1.35605 -1.49042 0
M  V30 5763 O 546.091 -1.14856 -2.24865 0
M  V30 5764 C 547.404 -2.9774 0.420898 0
M  V30 5765 C 548.952 -3.1077 0.37294 0
M  V30 5766 C 549.427 -4.51286 0.781327 0
M  V30 5767 N 550.918 -4.57325 0.735374 0
M  V30 5768 C 551.653 -5.64194 1.02336 0
M  V30 5769 N 551.149 -6.7893 1.37933 0
M  V30 5770 N 552.942 -5.54051 0.947838 0
M  V30 5771 H 545.093 -1.67738 1.30299 0
M  V30 5772 H 547.356 -0.785385 0.530918 0
M  V30 5773 H 547.062 -3.20349 1.45152 0
M  V30 5774 H 546.936 -3.76639 -0.205721 0
M  V30 5775 H 549.323 -2.87886 -0.648505 0
M  V30 5776 H 549.404 -2.33939 1.03472 0
M  V30 5777 H 549.048 -4.74905 1.80077 0
M  V30 5778 H 548.978 -5.26511 0.0970679 0
M  V30 5779 H 551.469 -3.74931 0.472773 0
M  V30 5780 H 551.782 -7.56392 1.58402 0
M  V30 5781 H 550.127 -6.80386 1.41774 0
M  V30 5782 H 553.318 -4.63293 0.669115 0
M  V30 5783 H 553.491 -6.37246 1.17563 0
M  V30 5784 N 546.897 -0.0685191 -1.57451 0
M  V30 5785 C 548.308 0.464634 -1.80826 0
M  V30 5786 C 548.659 1.69847 -0.982169 0
M  V30 5787 O 547.784 2.15439 -0.203734 0
M  V30 5788 C 548.379 0.849721 -3.27971 0
M  V30 5789 C 546.938 1.32776 -3.52204 0
M  V30 5790 C 546.085 0.311332 -2.75547 0
M  V30 5791 H 549.036 -0.294248 -1.55948 0
M  V30 5792 H 549.057 1.71138 -3.39841 0
M  V30 5793 H 548.569 -0.0484736 -3.8807 0
M  V30 5794 H 546.67 2.24456 -2.97406 0
M  V30 5795 H 546.783 1.30794 -4.60901 0
M  V30 5796 H 545.147 0.787915 -2.42206 0
M  V30 5797 H 545.93 -0.579078 -3.38381 0
M  V30 5798 N 548.375 1.56261 0.205012 0
M  V30 5799 C 549.325 1.90155 1.25798 0
M  V30 5800 C 550.309 0.766227 1.41484 0
M  V30 5801 O 551.501 1.02893 1.44021 0
M  V30 5802 C 548.63 2.23603 2.60493 0
M  V30 5803 C 547.716 3.43568 2.48639 0
M  V30 5804 N 548.107 4.61747 2.06455 0
M  V30 5805 C 546.405 3.4751 2.79558 0
M  V30 5806 C 547.106 5.43907 2.06253 0
M  V30 5807 N 546.082 4.84051 2.47377 0
M  V30 5808 H 549.884 2.79031 0.922986 0
M  V30 5809 H 547.398 1.57048 0.413501 0
M  V30 5810 H 549.395 2.46067 3.36537 0
M  V30 5811 H 548.055 1.36049 2.94823 0
M  V30 5812 H 549.066 4.86598 1.77321 0
M  V30 5813 H 545.743 2.70345 3.18151 0
M  V30 5814 H 547.133 6.48542 1.75622 0
M  V30 5815 N 549.853 -0.472356 1.50355 0
M  V30 5816 C 550.786 -1.58923 1.63764 0
M  V30 5817 C 551.764 -1.55173 0.485793 0
M  V30 5818 O 552.948 -1.74815 0.705132 0
M  V30 5819 C 550.075 -2.97497 1.61905 0
M  V30 5820 C 549.121 -3.19405 2.82635 0
M  V30 5821 S 549.954 -2.99441 4.43954 0
M  V30 5822 C 551.11 -4.40359 4.44786 0
M  V30 5823 H 551.343 -1.47309 2.58239 0
M  V30 5824 H 548.876 -0.659601 1.39602 0
M  V30 5825 H 550.834 -3.77389 1.61518 0
M  V30 5826 H 549.495 -3.06502 0.686683 0
M  V30 5827 H 548.688 -4.20636 2.77636 0
M  V30 5828 H 548.29 -2.47283 2.80583 0
M  V30 5829 H 550.582 -5.32969 4.1827 0
M  V30 5830 H 551.525 -4.50403 5.46391 0
M  V30 5831 H 551.933 -4.22378 3.74509 0
M  V30 5832 N 551.331 -1.39911 -0.725443 0
M  V30 5833 C 552.578 -1.37654 -1.48518 0
M  V30 5834 C 552.906 0.0243982 -1.94485 0
M  V30 5835 O 552.161 1.00708 -1.67799 0
M  V30 5836 C 552.46 -2.30368 -2.7325 0
M  V30 5837 C 552.126 -3.77817 -2.461 0
M  V30 5838 C 550.788 -4.17991 -2.38405 0
M  V30 5839 C 553.14 -4.71036 -2.23103 0
M  V30 5840 C 550.468 -5.49433 -2.05768 0
M  V30 5841 C 552.82 -6.02766 -1.9198 0
M  V30 5842 C 551.484 -6.41993 -1.82761 0
M  V30 5843 H 550.754 -0.503713 -0.543465 0
M  V30 5844 H 553.401 -1.7249 -0.831822 0
M  V30 5845 H 551.706 -1.88683 -3.43375 0
M  V30 5846 H 553.403 -2.2591 -3.31309 0
M  V30 5847 H 549.993 -3.45982 -2.52972 0
M  V30 5848 H 554.177 -4.40823 -2.2801 0
M  V30 5849 H 549.433 -5.78738 -1.9716 0
M  V30 5850 H 553.607 -6.74519 -1.73197 0
M  V30 5851 H 551.234 -7.43761 -1.57237 0
M  V30 5852 N 552.809 0.956637 -1.25245 0
M  V30 5853 C 554.22 1.51569 -1.09012 0
M  V30 5854 C 554.571 1.93322 0.334813 0
M  V30 5855 O 553.696 1.78421 1.22454 0
M  V30 5856 C 554.291 2.75444 -1.97271 0
M  V30 5857 C 552.85 3.27669 -1.8523 0
M  V30 5858 C 551.997 2.00517 -1.91542 0
M  V30 5859 H 554.948 0.773746 -1.3856 0
M  V30 5860 H 554.969 3.4919 -1.51151 0
M  V30 5861 H 554.481 2.45024 -3.00973 0
M  V30 5862 H 552.582 3.62914 -0.844045 0
M  V30 5863 H 552.695 3.9582 -2.69932 0
M  V30 5864 H 551.059 2.15727 -1.35404 0
M  V30 5865 H 551.842 1.72448 -2.96844 0
M  V30 5866 N 554.287 1.06798 1.15896 0
M  V30 5867 C 555.234 0.683314 2.20453 0
M  V30 5868 C 556.204 -0.32255 1.62938 0
M  V30 5869 O 557.389 -0.210276 1.89638 0
M  V30 5870 C 554.529 0.0813266 3.45004 0
M  V30 5871 C 553.642 1.13799 4.16742 0
M  V30 5872 C 552.777 0.501598 5.28826 0
M  V30 5873 C 551.816 1.54144 5.92373 0
M  V30 5874 N 550.953 0.928038 6.9594 0
M  V30 5875 H 555.793 1.57932 2.52708 0
M  V30 5876 H 553.33 0.789544 1.24115 0
M  V30 5877 H 555.288 -0.285274 4.16224 0
M  V30 5878 H 553.918 -0.77806 3.13283 0
M  V30 5879 H 552.97 1.62223 3.44075 0
M  V30 5880 H 554.282 1.92664 4.60089 0
M  V30 5881 H 553.436 0.0823162 6.06644 0
M  V30 5882 H 552.175 -0.318883 4.86656 0
M  V30 5883 H 551.18 1.97056 5.13273 0
M  V30 5884 H 552.405 2.3641 6.36621 0
M  V30 5885 H 550.351 0.12836 6.55874 0
M  V30 5886 H 550.268 1.65401 7.37685 0
M  V30 5887 H 551.536 0.534071 7.77668 0
M  V30 5888 N 555.766 -1.3263 0.851289 0
M  V30 5889 C 556.699 -2.26952 0.238318 0
M  V30 5890 C 557.677 -1.50243 -0.621757 0
M  V30 5891 O 558.861 -1.79378 -0.579298 0
M  V30 5892 C 555.988 -3.32124 -0.664178 0
M  V30 5893 C 555.034 -4.26325 0.122067 0
M  V30 5894 S 555.867 -5.14404 1.48824 0
M  V30 5895 C 557.023 -6.231 0.591372 0
M  V30 5896 H 557.256 -2.78594 1.03791 0
M  V30 5897 H 554.789 -1.4011 0.648731 0
M  V30 5898 H 556.747 -3.93197 -1.17924 0
M  V30 5899 H 555.408 -2.79273 -1.43755 0
M  V30 5900 H 554.601 -5.00821 -0.565181 0
M  V30 5901 H 554.203 -3.69652 0.568602 0
M  V30 5902 H 556.495 -6.77187 -0.205762 0
M  V30 5903 H 557.438 -6.95936 1.30687 0
M  V30 5904 H 557.846 -5.64252 0.167206 0
M  V30 5905 N 557.244 -0.608902 -1.45362 0
M  V30 5906 C 558.174 0.0964526 -2.33301 0
M  V30 5907 C 559.155 0.857444 -1.46908 0
M  V30 5908 O 560.34 0.827735 -1.75676 0
M  V30 5909 C 557.47 1.09354 -3.29635 0
M  V30 5910 C 556.424 0.445676 -4.25673 0
M  V30 5911 C 555.75 1.5511 -5.11708 0
M  V30 5912 C 557.05 -0.633972 -5.18438 0
M  V30 5913 H 558.744 -0.637829 -2.92527 0
M  V30 5914 H 556.29 -0.308178 -1.40664 0
M  V30 5915 H 558.243 1.59556 -3.90025 0
M  V30 5916 H 556.967 1.85843 -2.6857 0
M  V30 5917 H 555.626 -0.0354897 -3.66583 0
M  V30 5918 H 555.274 2.30631 -4.4701 0
M  V30 5919 H 554.974 1.12311 -5.76767 0
M  V30 5920 H 556.498 2.05537 -5.74967 0
M  V30 5921 H 557.912 -0.215974 -5.72893 0
M  V30 5922 H 556.309 -0.983789 -5.91981 0
M  V30 5923 H 557.379 -1.51005 -4.60788 0
M  V30 5924 N 558.722 1.53707 -0.348139 0
M  V30 5925 C 559.655 2.21481 0.549667 0
M  V30 5926 C 560.633 1.20046 1.09671 0
M  V30 5927 O 561.817 1.48883 1.15612 0
M  V30 5928 C 558.944 2.89585 1.75664 0
M  V30 5929 C 557.99 4.04948 1.33864 0
M  V30 5930 S 558.823 5.34325 0.354577 0
M  V30 5931 C 559.979 6.05934 1.56828 0
M  V30 5932 H 560.212 2.97289 -0.0259755 0
M  V30 5933 H 557.745 1.53833 -0.132216 0
M  V30 5934 H 559.703 3.29441 2.44906 0
M  V30 5935 H 558.364 2.13535 2.30351 0
M  V30 5936 H 557.557 4.51552 2.23868 0
M  V30 5937 H 557.159 3.66893 0.725651 0
M  V30 5938 H 559.451 6.29606 2.50205 0
M  V30 5939 H 560.394 6.98799 1.14395 0
M  V30 5940 H 560.802 5.36151 1.76642 0
M  V30 5941 N 560.2 0.0768682 1.57412 0
M  V30 5942 C 561.147 -0.888577 2.13009 0
M  V30 5943 C 562.117 -1.29198 1.0439 0
M  V30 5944 O 563.302 -1.37694 1.3208 0
M  V30 5945 C 560.442 -2.14899 2.70023 0
M  V30 5946 C 559.555 -1.79777 3.92816 0
M  V30 5947 C 558.69 -3.00467 4.38056 0
M  V30 5948 C 557.729 -2.61385 5.53484 0
M  V30 5949 N 556.866 -3.74851 5.93659 0
M  V30 5950 H 561.706 -0.407593 2.95199 0
M  V30 5951 H 559.243 -0.189534 1.45874 0
M  V30 5952 H 561.201 -2.88688 3.0119 0
M  V30 5953 H 559.831 -2.60529 1.9059 0
M  V30 5954 H 558.883 -0.960301 3.68079 0
M  V30 5955 H 560.195 -1.47027 4.76639 0
M  V30 5956 H 559.349 -3.82529 4.7091 0
M  V30 5957 H 558.088 -3.36413 3.53097 0
M  V30 5958 H 557.093 -1.77746 5.20275 0
M  V30 5959 H 558.318 -2.26603 6.40178 0
M  V30 5960 H 556.264 -4.1055 5.11649 0
M  V30 5961 H 556.181 -3.45887 6.72234 0
M  V30 5962 H 557.449 -4.57477 6.31138 0
M  V30 5963 N 561.678 -1.56367 -0.196722 0
M  V30 5964 C 562.927 -1.79724 -0.915539 0
M  V30 5965 C 563.24 -0.649804 -1.84491 0
M  V30 5966 O 564.446 -0.767631 -2.60422 0
M  V30 5967 C 562.902 -3.18369 -1.67836 0
M  V30 5968 C 562.51 -4.4091 -0.793897 0
M  V30 5969 C 564.254 -3.51037 -2.38691 0
M  V30 5970 C 562.161 -5.70577 -1.55549 0
M  V30 5971 H 561.091 -0.67013 -0.345604 0
M  V30 5972 H 563.742 -1.82721 -0.168856 0
M  V30 5973 H 562.124 -3.09617 -2.46887 0
M  V30 5974 H 563.298 -4.60781 -0.042163 0
M  V30 5975 H 561.613 -4.15937 -0.19626 0
M  V30 5976 H 564.21 -4.4515 -2.96219 0
M  V30 5977 H 564.553 -2.74704 -3.12799 0
M  V30 5978 H 565.086 -3.61229 -1.66608 0
M  V30 5979 H 561.825 -6.49871 -0.857226 0
M  V30 5980 H 561.345 -5.54726 -2.2812 0
M  V30 5981 H 563.024 -6.11637 -2.10971 0
M  V30 5982 N 563.156 0.464375 -1.50603 0
M  V30 5983 C 564.384 1.23907 -1.65695 0
M  V30 5984 C 564.799 1.85658 -0.343027 0
M  V30 5985 O 564.156 1.69529 0.675739 0
M  V30 5986 C 564.207 2.3429 -2.75301 0
M  V30 5987 O 563.928 1.7507 -4.01599 0
M  V30 5988 C 565.429 3.25051 -3.01424 0
M  V30 5989 H 562.649 0.374485 -0.556778 0
M  V30 5990 H 565.193 0.55353 -1.96866 0
M  V30 5991 H 563.348 2.98607 -2.46804 0
M  V30 5992 H 563.762 2.47812 -4.62266 0
M  V30 5993 H 565.236 3.98699 -3.81763 0
M  V30 5994 H 565.713 3.84227 -2.12758 0
M  V30 5995 H 566.319 2.66463 -3.31477 0
M  V30 5996 N 564.634 1.40294 0.718013 0
M  V30 5997 C 565.911 1.2894 1.47084 0
M  V30 5998 C 566.291 -0.0933625 2.10893 0
M  V30 5999 O 565.639 -1.10598 1.99951 0
M  V30 6000 C 565.849 2.4264 2.50852 0
M  V30 6001 C 567.197 2.8276 3.16752 0
M  V30 6002 O 568.221 2.42215 2.61171 0
M  V30 6003 O 567.08 3.528 4.17366 0
M  V30 6004 H 564.174 0.506236 0.653952 0
M  V30 6005 H 566.72 1.52208 0.750394 0
M  V30 6006 H 565.492 3.35009 2.022 0
M  V30 6007 H 565.115 2.21129 3.30435 0
M  V30 6008 N 566.112 -0.949982 1.2575 0
M  V30 6009 C 567.042 -2.06483 1.09028 0
M  V30 6010 C 568.023 -1.701 -0.00201532 0
M  V30 6011 O 569.208 -1.93469 0.168383 0
M  V30 6012 C 566.338 -3.39899 0.71316 0
M  V30 6013 C 565.292 -3.90309 1.75621 0
M  V30 6014 C 564.618 -5.20274 1.23365 0
M  V30 6015 C 565.918 -4.16169 3.15596 0
M  V30 6016 H 567.612 -2.20731 2.02283 0
M  V30 6017 H 565.158 -1.06066 0.973964 0
M  V30 6018 H 567.111 -4.17346 0.58309 0
M  V30 6019 H 565.835 -3.25602 -0.255091 0
M  V30 6020 H 564.494 -3.15035 1.8748 0
M  V30 6021 H 564.142 -5.02351 0.255491 0
M  V30 6022 H 563.842 -5.54971 1.93082 0
M  V30 6023 H 565.366 -6.00314 1.11607 0
M  V30 6024 H 566.78 -4.84259 3.06864 0
M  V30 6025 H 565.177 -4.62131 3.82825 0
M  V30 6026 H 566.247 -3.22273 3.6231 0
M  V30 6027 N 567.59 -1.07411 -1.15328 0
M  V30 6028 C 569.006 -0.799759 -1.38116 0
M  V30 6029 C 569.206 0.59572 -1.92493 0
M  V30 6030 O 568.262 1.35433 -2.13106 0
M  V30 6031 C 569.575 -1.87407 -2.35158 0
M  V30 6032 C 571.123 -1.89889 -2.48819 0
M  V30 6033 C 571.598 -2.96406 -3.49153 0
M  V30 6034 N 573.089 -2.95512 -3.56689 0
M  V30 6035 C 573.824 -3.74575 -4.34144 0
M  V30 6036 N 573.32 -4.63488 -5.14928 0
M  V30 6037 N 575.113 -3.62919 -4.29239 0
M  V30 6038 H 567.264 -1.97411 -0.78374 0
M  V30 6039 H 569.527 -0.856113 -0.407154 0
M  V30 6040 H 569.233 -2.8768 -2.0232 0
M  V30 6041 H 569.107 -1.73471 -3.34944 0
M  V30 6042 H 571.494 -0.902677 -2.80955 0
M  V30 6043 H 571.575 -2.07904 -1.49029 0
M  V30 6044 H 571.219 -3.96227 -3.17752 0
M  V30 6045 H 571.149 -2.75638 -4.48699 0
M  V30 6046 H 573.64 -2.31061 -2.99031 0
M  V30 6047 H 573.953 -5.20445 -5.71276 0
M  V30 6048 H 572.298 -4.67537 -5.14232 0
M  V30 6049 H 575.489 -2.92833 -3.65194 0
M  V30 6050 H 575.662 -4.24777 -4.89355 0
M  V30 6051 N 569.068 1.32177 -0.85831 0
M  V30 6052 C 570.293 2.01847 -0.476718 0
M  V30 6053 C 570.718 1.64065 0.920021 0
M  V30 6054 O 570.076 0.843189 1.60499 0
M  V30 6055 C 570.124 3.55097 -0.627578 0
M  V30 6056 O 569.228 4.11012 0.338086 0
M  V30 6057 H 568.569 0.635907 -0.191099 0
M  V30 6058 H 571.099 1.68641 -1.15851 0
M  V30 6059 H 571.109 4.04718 -0.516476 0
M  V30 6060 H 569.784 3.81938 -1.64609 0
M  V30 6061 H 568.361 3.72451 0.182917 0
M  V30 6062 N 570.547 0.616602 1.45037 0
M  V30 6063 C 571.796 0.112861 2.01384 0
M  V30 6064 C 572.109 -1.26758 1.48969 0
M  V30 6065 O 573.315 -1.86454 1.9735 0
M  V30 6066 C 571.771 0.151057 3.59583 0
M  V30 6067 C 571.379 1.53191 4.20995 0
M  V30 6068 C 573.123 -0.296974 4.2346 0
M  V30 6069 C 571.03 1.526 5.71373 0
M  V30 6070 H 569.96 0.0384254 0.75302 0
M  V30 6071 H 572.611 0.773262 1.66412 0
M  V30 6072 H 570.993 -0.57617 3.91786 0
M  V30 6073 H 572.167 2.28156 4.00352 0
M  V30 6074 H 570.482 1.92279 3.69348 0
M  V30 6075 H 573.079 -0.320712 5.33737 0
M  V30 6076 H 573.422 -1.32145 3.9477 0
M  V30 6077 H 573.955 0.377279 3.96007 0
M  V30 6078 H 570.694 2.52837 6.04776 0
M  V30 6079 H 570.214 0.819064 5.94181 0
M  V30 6080 H 571.893 1.25357 6.3474 0
M  V30 6081 N 572.025 -1.5352 0.356285 0
M  V30 6082 C 573.25 -2.06007 -0.239961 0
M  V30 6083 C 573.675 -1.22872 -1.42422 0
M  V30 6084 O 573.033 -0.245516 -1.7963 0
M  V30 6085 C 573.081 -3.5522 -0.620587 0
M  V30 6086 O 572.185 -3.74864 -1.71902 0
M  V30 6087 H 571.526 -0.662961 -0.0371377 0
M  V30 6088 H 574.056 -1.98033 0.514194 0
M  V30 6089 H 574.066 -3.98081 -0.894197 0
M  V30 6090 H 572.741 -4.15175 0.245407 0
M  V30 6091 H 571.318 -3.43904 -1.44169 0
M  V30 6092 N 573.503 -0.0852151 -1.57369 0
M  V30 6093 C 574.466 0.8627 -2.12344 0
M  V30 6094 C 575.466 1.21746 -1.05046 0
M  V30 6095 O 576.656 1.14852 -1.30976 0
M  V30 6096 C 573.788 2.1618 -2.63589 0
M  V30 6097 H 574.981 0.385511 -2.97412 0
M  V30 6098 H 572.534 0.163663 -1.55441 0
M  V30 6099 H 573.269 2.68406 -1.82013 0
M  V30 6100 H 573.054 1.91723 -3.4203 0
M  V30 6101 H 574.544 2.84011 -3.06149 0
M  V30 6102 N 574.981 1.5647 0.188427 0
M  V30 6103 C 575.928 1.95073 1.23349 0
M  V30 6104 C 576.898 0.812238 1.44886 0
M  V30 6105 O 578.083 1.07095 1.57909 0
M  V30 6106 C 575.223 2.30124 2.57171 0
M  V30 6107 C 574.336 3.57069 2.43157 0
M  V30 6108 C 573.471 3.81411 3.69729 0
M  V30 6109 C 572.51 5.0176 3.50575 0
M  V30 6110 N 571.647 5.22321 4.69175 0
M  V30 6111 H 576.487 2.84171 0.89728 0
M  V30 6112 H 574.024 1.40623 0.431683 0
M  V30 6113 H 575.982 2.48463 3.35145 0
M  V30 6114 H 574.612 1.44159 2.88822 0
M  V30 6115 H 573.664 3.4674 1.56447 0
M  V30 6116 H 574.976 4.452 2.24942 0
M  V30 6117 H 574.13 4.00026 4.56141 0
M  V30 6118 H 572.869 2.91624 3.90905 0
M  V30 6119 H 571.874 4.83061 2.62549 0
M  V30 6120 H 573.099 5.93063 3.30837 0
M  V30 6121 H 571.045 4.35483 4.90602 0
M  V30 6122 H 570.962 6.04643 4.53809 0
M  V30 6123 H 572.23 5.45401 5.56919 0
M  V30 6124 N 576.459 -0.456382 1.50847 0
M  V30 6125 C 577.707 -1.20497 1.62249 0
M  V30 6126 C 578.028 -1.92156 0.331839 0
M  V30 6127 O 577.298 -1.84751 -0.651443 0
M  V30 6128 H 575.878 -0.447775 0.597918 0
M  V30 6129 H 578.54 -0.525099 1.87693 0
M  V30 6130 H 577.636 -1.94492 2.44089 0
M  V30 6131 N 577.937 -1.40673 -0.710563 0
M  V30 6132 C 578.9 -1.4108 -1.80635 0
M  V30 6133 C 579.9 -0.303783 -1.57904 0
M  V30 6134 O 581.09 -0.562937 -1.64853 0
M  V30 6135 C 578.222 -1.20748 -3.18799 0
M  V30 6136 H 579.415 -2.38612 -1.81671 0
M  V30 6137 H 576.968 -1.26595 -0.916704 0
M  V30 6138 H 577.703 -0.239964 -3.23411 0
M  V30 6139 H 577.488 -2.00941 -3.36698 0
M  V30 6140 H 578.978 -1.23833 -3.98817 0
M  V30 6141 N 579.415 0.9433 -1.26252 0
M  V30 6142 C 580.325 2.07532 -1.09397 0
M  V30 6143 C 581.341 1.73977 -0.0280449 0
M  V30 6144 O 582.517 2.00067 -0.231337 0
M  V30 6145 C 579.582 3.39002 -0.726523 0
M  V30 6146 C 578.643 3.86353 -1.87163 0
M  V30 6147 C 577.876 5.11549 -1.52162 0
M  V30 6148 O 578.099 5.68834 -0.422385 0
M  V30 6149 O 577.033 5.53889 -2.35565 0
M  V30 6150 H 580.859 2.24658 -2.04359 0
M  V30 6151 H 578.444 1.05988 -1.05295 0
M  V30 6152 H 580.326 4.18 -0.534236 0
M  V30 6153 H 579.001 3.2312 0.193721 0
M  V30 6154 H 577.908 3.0831 -2.11886 0
M  V30 6155 H 579.241 4.06752 -2.77152 0
M  V30 6156 N 580.893 1.08022 1.14757 0
M  V30 6157 C 582.309 0.807072 1.3769 0
M  V30 6158 C 582.509 -0.585504 1.92806 0
M  V30 6159 O 581.565 -1.34301 2.13821 0
M  V30 6160 C 582.878 1.88651 2.34161 0
M  V30 6161 C 584.426 1.91206 2.47809 0
M  V30 6162 C 584.901 2.98253 3.47576 0
M  V30 6163 N 586.392 2.974 3.55117 0
M  V30 6164 C 587.127 3.76872 4.32152 0
M  V30 6165 N 586.623 4.66212 5.12463 0
M  V30 6166 N 588.416 3.6519 4.27309 0
M  V30 6167 H 580.567 1.97824 0.77326 0
M  V30 6168 H 582.83 0.85826 0.402608 0
M  V30 6169 H 582.536 2.88749 2.00791 0
M  V30 6170 H 582.41 1.75244 3.3402 0
M  V30 6171 H 584.797 0.917564 2.80472 0
M  V30 6172 H 584.878 2.08691 1.47925 0
M  V30 6173 H 584.522 3.97907 3.15646 0
M  V30 6174 H 584.452 2.78014 4.47231 0
M  V30 6175 H 586.943 2.32643 2.97801 0
M  V30 6176 H 587.256 5.23468 5.68508 0
M  V30 6177 H 585.601 4.70257 5.11745 0
M  V30 6178 H 588.792 2.94765 3.63636 0
M  V30 6179 H 588.965 4.27366 4.87095 0
M  V30 6180 N 582.371 -1.3172 0.865308 0
M  V30 6181 C 583.617 -1.97168 0.474633 0
M  V30 6182 C 583.95 -1.68263 -0.969604 0
M  V30 6183 O 583.225 -0.976588 -1.68205 0
M  V30 6184 C 583.508 -3.52689 0.726808 0
M  V30 6185 C 583.361 -3.91185 2.22024 0
M  V30 6186 C 584.68 -4.39689 0.190201 0
M  V30 6187 H 581.799 -0.716185 0.17392 0
M  V30 6188 H 584.441 -1.55925 1.08569 0
M  V30 6189 H 582.591 -3.8795 0.206705 0
M  V30 6190 H 584.263 -3.66049 2.80724 0
M  V30 6191 H 582.506 -3.3996 2.69462 0
M  V30 6192 H 583.177 -4.99604 2.34735 0
M  V30 6193 H 585.653 -4.11225 0.635103 0
M  V30 6194 H 584.529 -5.47469 0.396132 0
M  V30 6195 H 584.79 -4.32683 -0.907625 0
M  V30 6196 N 583.85 -0.624285 -1.44708 0
M  V30 6197 C 585.099 -0.123539 -2.01321 0
M  V30 6198 C 585.412 1.25966 -1.49639 0
M  V30 6199 O 586.618 1.85405 -1.98336 0
M  V30 6200 C 585.074 -0.170124 -3.59498 0
M  V30 6201 C 584.682 -1.55421 -4.20176 0
M  V30 6202 C 586.426 0.274513 -4.23611 0
M  V30 6203 C 584.332 -1.55628 -5.70556 0
M  V30 6204 H 583.263 -0.0424183 -0.752806 0
M  V30 6205 H 585.913 -0.782076 -1.65999 0
M  V30 6206 H 584.296 0.555385 -3.92086 0
M  V30 6207 H 585.47 -2.30276 -3.99136 0
M  V30 6208 H 583.784 -1.94235 -3.68323 0
M  V30 6209 H 586.382 0.292402 -5.339 0
M  V30 6210 H 586.725 1.3005 -3.95465 0
M  V30 6211 H 587.258 -0.398275 -3.95801 0
M  V30 6212 H 583.997 -2.56041 -6.03426 0
M  V30 6213 H 583.517 -0.850563 -5.93739 0
M  V30 6214 H 585.196 -1.28721 -6.34066 0
M  V30 6215 N 585.328 1.53329 -0.364422 0
M  V30 6216 C 586.556 2.05657 0.226424 0
M  V30 6217 C 586.971 1.23801 1.42544 0
M  V30 6218 O 586.328 0.27839 1.80364 0
M  V30 6219 C 586.379 3.56125 0.621056 0
M  V30 6220 O 586.1 4.34879 -0.530304 0
M  V30 6221 C 587.601 4.24706 1.27041 0
M  V30 6222 H 584.821 0.669806 0.0400056 0
M  V30 6223 H 587.365 1.97714 -0.522456 0
M  V30 6224 H 585.52 3.64223 1.31985 0
M  V30 6225 H 585.934 5.24073 -0.211546 0
M  V30 6226 H 587.408 5.3131 1.49711 0
M  V30 6227 H 587.885 3.78354 2.23036 0
M  V30 6228 H 588.491 4.20858 0.613079 0
M  V30 6229 N 586.806 0.0935595 1.57322 0
M  V30 6230 C 587.736 -0.863062 2.16964 0
M  V30 6231 C 588.717 -1.29528 1.10256 0
M  V30 6232 O 589.902 -1.36245 1.38387 0
M  V30 6233 C 587.032 -2.12276 2.74875 0
M  V30 6234 C 585.986 -1.82921 3.86942 0
M  V30 6235 C 585.312 -3.15707 4.31548 0
M  V30 6236 C 586.612 -1.11737 5.10208 0
M  V30 6237 H 588.306 -0.366145 2.97153 0
M  V30 6238 H 585.852 -0.174673 1.42937 0
M  V30 6239 H 587.805 -2.79634 3.1525 0
M  V30 6240 H 586.529 -2.64248 1.91938 0
M  V30 6241 H 585.188 -1.17961 3.47103 0
M  V30 6242 H 584.836 -3.65563 3.45504 0
M  V30 6243 H 584.536 -2.96849 5.07104 0
M  V30 6244 H 586.06 -3.84226 4.74555 0
M  V30 6245 H 587.474 -1.69203 5.47762 0
M  V30 6246 H 585.871 -1.03064 5.91183 0
M  V30 6247 H 586.941 -0.0998818 4.84797 0
M  V30 6248 N 588.284 -1.56567 -0.180126 0
M  V30 6249 C 589.231 -1.95725 -1.22313 0
M  V30 6250 C 590.201 -0.819911 -1.44453 0
M  V30 6251 O 591.386 -1.07931 -1.57339 0
M  V30 6252 C 588.526 -2.31484 -2.55947 0
M  V30 6253 C 587.639 -3.58354 -2.4126 0
M  V30 6254 C 586.774 -3.83366 -3.67701 0
M  V30 6255 C 585.813 -5.03612 -3.47909 0
M  V30 6256 N 584.95 -5.24802 -4.66398 0
M  V30 6257 H 589.79 -2.84642 -0.882198 0
M  V30 6258 H 587.327 -1.4085 -0.42422 0
M  V30 6259 H 589.285 -2.50237 -3.33822 0
M  V30 6260 H 587.915 -1.45689 -2.88053 0
M  V30 6261 H 586.967 -3.47565 -1.54606 0
M  V30 6262 H 588.279 -4.46386 -2.22577 0
M  V30 6263 H 587.433 -4.02439 -4.54013 0
M  V30 6264 H 586.172 -2.93692 -3.89353 0
M  V30 6265 H 585.177 -4.84447 -2.59983 0
M  V30 6266 H 586.402 -5.94809 -3.27688 0
M  V30 6267 H 584.348 -4.38079 -4.88286 0
M  V30 6268 H 584.265 -6.07041 -4.50596 0
M  V30 6269 H 585.533 -5.48346 -5.54019 0
M  V30 6270 N 589.762 0.448376 -1.51087 0
M  V30 6271 C 590.695 1.56298 -1.66272 0
M  V30 6272 C 591.673 1.54381 -0.510419 0
M  V30 6273 O 592.857 1.73671 -0.732854 0
M  V30 6274 C 589.984 2.94883 -1.66618 0
M  V30 6275 C 589.03 3.14868 -2.87681 0
M  V30 6276 S 589.863 2.9234 -4.48662 0
M  V30 6277 C 591.019 4.33227 -4.51735 0
M  V30 6278 H 591.252 1.43182 -2.6055 0
M  V30 6279 H 588.785 0.637309 -1.40633 0
M  V30 6280 H 590.743 3.74771 -1.67502 0
M  V30 6281 H 589.404 3.05371 -0.735358 0
M  V30 6282 H 588.597 4.16166 -2.84292 0
M  V30 6283 H 588.199 2.42788 -2.84482 0
M  V30 6284 H 590.491 5.26247 -4.26697 0
M  V30 6285 H 591.434 4.41653 -5.53487 0
M  V30 6286 H 591.842 4.16367 -3.81181 0
M  V30 6287 N 591.24 1.41047 0.703093 0
M  V30 6288 C 592.15 1.44645 1.84703 0
M  V30 6289 C 593.166 0.337778 1.7069 0
M  V30 6290 O 594.342 0.584327 1.92737 0
M  V30 6291 C 591.407 1.31928 3.20618 0
M  V30 6292 C 590.468 2.53047 3.46794 0
M  V30 6293 C 589.701 2.40927 4.76224 0
M  V30 6294 O 589.924 1.42978 5.5219 0
M  V30 6295 O 588.858 3.30543 5.03016 0
M  V30 6296 H 592.684 2.41139 1.84624 0
M  V30 6297 H 590.269 1.22504 0.855167 0
M  V30 6298 H 592.151 1.27092 4.01778 0
M  V30 6299 H 590.826 0.385469 3.21397 0
M  V30 6300 H 589.733 2.6346 2.65593 0
M  V30 6301 H 591.066 3.45231 3.50822 0
M  V30 6302 N 592.718 -0.936591 1.26751 0
M  V30 6303 C 593.967 -1.67778 1.11953 0
M  V30 6304 C 594.28 -1.92694 -0.33589 0
M  V30 6305 O 595.486 -2.64682 -0.604618 0
M  V30 6306 C 593.942 -3.02138 1.95551 0
M  V30 6307 C 593.55 -2.84953 3.45696 0
M  V30 6308 C 595.294 -3.79917 1.89377 0
M  V30 6309 C 593.201 -4.14814 4.21525 0
M  V30 6310 H 592.131 -0.629275 0.415366 0
M  V30 6311 H 594.782 -1.04122 1.51099 0
M  V30 6312 H 593.164 -3.668 1.49243 0
M  V30 6313 H 594.338 -2.29112 3.99805 0
M  V30 6314 H 592.653 -2.20612 3.53156 0
M  V30 6315 H 595.25 -4.76134 2.43312 0
M  V30 6316 H 595.593 -4.07204 0.865464 0
M  V30 6317 H 596.126 -3.22037 2.33532 0
M  V30 6318 H 592.865 -3.92709 5.24843 0
M  V30 6319 H 592.385 -4.70352 3.72195 0
M  V30 6320 H 594.064 -4.83239 4.3022 0
M  V30 6321 N 594.196 -1.08629 -1.14182 0
M  V30 6322 C 595.607 -0.838003 -1.66836 0
M  V30 6323 C 595.958 0.634885 -1.85644 0
M  V30 6324 O 595.083 1.49008 -1.56926 0
M  V30 6325 C 595.678 -1.51465 -3.03058 0
M  V30 6326 C 594.237 -1.31355 -3.52736 0
M  V30 6327 C 593.384 -1.57599 -2.28162 0
M  V30 6328 H 596.335 -1.24656 -0.982165 0
M  V30 6329 H 596.356 -0.943134 -3.68626 0
M  V30 6330 H 595.868 -2.58661 -2.89337 0
M  V30 6331 H 593.969 -0.262384 -3.71675 0
M  V30 6332 H 594.082 -2.04275 -4.33369 0
M  V30 6333 H 592.446 -0.997659 -2.34348 0
M  V30 6334 H 593.229 -2.66006 -2.17015 0
M  V30 6335 N 595.674 1.31259 -0.872281 0
M  V30 6336 C 596.922 1.96233 -0.483409 0
M  V30 6337 C 597.243 1.69276 0.968012 0
M  V30 6338 O 596.513 1.00943 1.67891 0
M  V30 6339 H 595.093 0.726025 -0.175774 0
M  V30 6340 H 597.755 1.60024 -1.11258 0
M  V30 6341 H 596.851 3.05403 -0.643075 0
M  V30 6342 N 597.152 0.631951 1.44375 0
M  V30 6343 C 598.377 0.142146 2.06912 0
M  V30 6344 C 598.802 -1.17456 1.4692 0
M  V30 6345 O 598.16 -1.72074 0.570975 0
M  V30 6346 C 598.208 0.0417952 3.60576 0
M  V30 6347 O 597.312 -1.00194 4.00044 0
M  V30 6348 H 596.653 0.0851491 0.658518 0
M  V30 6349 H 599.183 0.868863 1.85235 0
M  V30 6350 H 599.193 -0.148517 4.0773 0
M  V30 6351 H 597.868 1.0031 4.03622 0
M  V30 6352 H 596.445 -0.786131 3.64519 0
M  V30 6353 N 598.631 -1.53133 0.372548 0
M  V30 6354 C 599.564 -2.22328 -0.514361 0
M  V30 6355 C 600.542 -1.21776 -1.07747 0
M  V30 6356 O 601.726 -1.50704 -1.13228 0
M  V30 6357 C 598.853 -2.92343 -1.71035 0
M  V30 6358 C 597.899 -4.07026 -1.27405 0
M  V30 6359 S 598.732 -5.34821 -0.269526 0
M  V30 6360 C 599.888 -6.08352 -1.47168 0
M  V30 6361 H 600.121 -2.9721 0.0732683 0
M  V30 6362 H 597.654 -1.53603 0.156673 0
M  V30 6363 H 599.612 -3.33296 -2.39634 0
M  V30 6364 H 598.273 -2.17173 -2.26925 0
M  V30 6365 H 597.466 -4.55056 -2.16656 0
M  V30 6366 H 597.068 -3.68001 -0.66719 0
M  V30 6367 H 599.36 -6.33507 -2.40157 0
M  V30 6368 H 600.303 -7.0053 -1.03263 0
M  V30 6369 H 600.711 -5.38893 -1.6809 0
M  V30 6370 N 600.109 -0.101901 -1.5727 0
M  V30 6371 C 601.52 0.426173 -1.81771 0
M  V30 6372 C 601.871 1.67725 -1.01797 0
M  V30 6373 O 600.996 2.14958 -0.249386 0
M  V30 6374 C 601.591 0.779962 -3.297 0
M  V30 6375 C 600.15 1.25275 -3.54941 0
M  V30 6376 C 599.297 0.252814 -2.76145 0
M  V30 6377 H 602.248 -0.32726 -1.55289 0
M  V30 6378 H 602.269 1.63891 -3.43395 0
M  V30 6379 H 601.781 -0.130778 -3.8788 0
M  V30 6380 H 599.882 2.18097 -3.021 0
M  V30 6381 H 599.995 1.20988 -4.63572 0
M  V30 6382 H 598.359 0.736362 -2.43823 0
M  V30 6383 H 599.142 -0.650724 -3.37076 0
M  V30 6384 N 601.587 1.56661 0.17182 0
M  V30 6385 C 602.998 1.71652 0.734329 0
M  V30 6386 C 603.349 0.712335 1.82812 0
M  V30 6387 O 602.474 -0.126401 2.16031 0
M  V30 6388 C 603.069 3.11226 1.3388 0
M  V30 6389 C 601.628 3.27904 1.84813 0
M  V30 6390 C 600.775 2.67603 0.726917 0
M  V30 6391 H 603.726 1.5861 -0.0535665 0
M  V30 6392 H 603.747 3.09849 2.20849 0
M  V30 6393 H 603.259 3.8429 0.54249 0
M  V30 6394 H 601.36 2.59796 2.6709 0
M  V30 6395 H 601.473 4.35637 1.99392 0
M  V30 6396 H 599.837 2.274 1.14723 0
M  V30 6397 H 600.62 3.43252 -0.0575334 0
M  V30 6398 N 603.065 -0.440357 1.51323 0
M  V30 6399 C 603.995 -1.54174 1.75364 0
M  V30 6400 C 604.976 -1.59039 0.603375 0
M  V30 6401 O 606.161 -1.74815 0.845774 0
M  V30 6402 C 603.291 -2.92277 1.87593 0
M  V30 6403 C 602.245 -3.02274 3.03009 0
M  V30 6404 C 601.571 -4.42327 3.00418 0
M  V30 6405 C 602.871 -2.76634 4.43024 0
M  V30 6406 H 604.565 -1.34307 2.67585 0
M  V30 6407 H 602.111 -0.644678 1.28763 0
M  V30 6408 H 604.064 -3.69284 2.02995 0
M  V30 6409 H 602.788 -3.13369 0.920179 0
M  V30 6410 H 601.447 -2.27706 2.87307 0
M  V30 6411 H 601.095 -4.60382 2.02626 0
M  V30 6412 H 600.795 -4.49946 3.77918 0
M  V30 6413 H 602.319 -5.21312 3.17909 0
M  V30 6414 H 603.733 -3.43376 4.59093 0
M  V30 6415 H 602.13 -2.95666 5.22208 0
M  V30 6416 H 603.2 -1.72262 4.5327 0
M  V30 6417 N 604.543 -1.41418 -0.695603 0
M  V30 6418 C 605.792 -1.40073 -1.4513 0
M  V30 6419 C 606.105 -0.0130439 -1.95596 0
M  V30 6420 O 607.311 0.123032 -2.71221 0
M  V30 6421 C 605.767 -2.46286 -2.62433 0
M  V30 6422 C 605.375 -3.90962 -2.18753 0
M  V30 6423 C 607.119 -2.54077 -3.40066 0
M  V30 6424 C 605.026 -4.88728 -3.33015 0
M  V30 6425 H 603.956 -0.520903 -0.545138 0
M  V30 6426 H 606.607 -1.67242 -0.75515 0
M  V30 6427 H 604.989 -2.12248 -3.34315 0
M  V30 6428 H 606.163 -4.34248 -1.54161 0
M  V30 6429 H 604.478 -3.86831 -1.54114 0
M  V30 6430 H 607.075 -3.24303 -4.25125 0
M  V30 6431 H 607.418 -1.5776 -3.8525 0
M  V30 6432 H 607.951 -2.87206 -2.75241 0
M  V30 6433 H 604.69 -5.86449 -2.92844 0
M  V30 6434 H 604.21 -4.50091 -3.96457 0
M  V30 6435 H 605.889 -5.09483 -3.98793 0
M  V30 6436 N 606.021 0.929856 -1.27246 0
M  V30 6437 C 606.953 2.03434 -1.0558 0
M  V30 6438 C 607.966 1.62795 -0.0125762 0
M  V30 6439 O 609.155 1.76685 -0.2539 0
M  V30 6440 C 606.255 3.33915 -0.57912 0
M  V30 6441 C 605.428 4.03259 -1.69415 0
M  V30 6442 C 604.487 5.12014 -1.21357 0
M  V30 6443 O 603.513 5.36097 -1.91282 0
M  V30 6444 N 604.715 5.8046 -0.0680622 0
M  V30 6445 H 607.48 2.22583 -2.00691 0
M  V30 6446 H 605.041 1.1001 -1.18783 0
M  V30 6447 H 607.033 4.03978 -0.241563 0
M  V30 6448 H 605.603 3.11355 0.278703 0
M  V30 6449 H 604.823 3.26958 -2.20209 0
M  V30 6450 H 606.111 4.46337 -2.44255 0
M  V30 6451 H 605.509 5.63345 0.515626 0
M  V30 6452 H 604.066 6.51461 0.210332 0
M  V30 6453 N 607.499 1.09233 1.13605 0
M  V30 6454 C 608.409 0.741939 2.22559 0
M  V30 6455 C 609.425 -0.255236 1.72118 0
M  V30 6456 O 610.601 -0.0970747 2.01166 0
M  V30 6457 C 607.666 0.165595 3.46304 0
M  V30 6458 C 606.727 1.21846 4.11645 0
M  V30 6459 C 605.96 0.669526 5.29484 0
M  V30 6460 O 606.183 -0.508228 5.68131 0
M  V30 6461 O 605.117 1.42361 5.84822 0
M  V30 6462 H 608.943 1.65107 2.54899 0
M  V30 6463 H 606.528 0.866584 1.21699 0
M  V30 6464 H 608.41 -0.152592 4.21124 0
M  V30 6465 H 607.085 -0.716573 3.15669 0
M  V30 6466 H 605.992 1.58931 3.38662 0
M  V30 6467 H 607.325 2.07321 4.46407 0
M  V30 6468 N 608.977 -1.30795 0.87923 0
M  V30 6469 C 609.91 -2.26396 0.286404 0
M  V30 6470 C 610.888 -1.51528 -0.589748 0
M  V30 6471 O 612.072 -1.80566 -0.541119 0
M  V30 6472 C 609.199 -3.33458 -0.593581 0
M  V30 6473 C 608.245 -4.2597 0.21247 0
M  V30 6474 S 609.078 -5.11132 1.59702 0
M  V30 6475 C 610.234 -6.21705 0.723408 0
M  V30 6476 H 610.467 -2.7633 1.09677 0
M  V30 6477 H 608 -1.38703 0.678305 0
M  V30 6478 H 609.958 -3.9561 -1.09557 0
M  V30 6479 H 608.619 -2.82259 -1.37799 0
M  V30 6480 H 607.812 -5.01907 -0.458822 0
M  V30 6481 H 607.414 -3.68363 0.646883 0
M  V30 6482 H 609.706 -6.77472 -0.0620739 0
M  V30 6483 H 610.649 -6.93007 1.4542 0
M  V30 6484 H 611.057 -5.63771 0.286855 0
M  V30 6485 N 610.455 -0.639598 -1.44038 0
M  V30 6486 C 611.385 0.0469443 -2.33453 0
M  V30 6487 C 612.366 0.82609 -1.48694 0
M  V30 6488 O 613.551 0.790285 -1.77393 0
M  V30 6489 C 610.681 1.02338 -3.3188 0
M  V30 6490 C 609.635 0.355284 -4.26523 0
M  V30 6491 C 608.961 1.44221 -5.14883 0
M  V30 6492 C 610.261 -0.743798 -5.16977 0
M  V30 6493 H 611.955 -0.699735 -2.91108 0
M  V30 6494 H 609.501 -0.337946 -1.39978 0
M  V30 6495 H 611.454 1.51247 -3.93322 0
M  V30 6496 H 610.178 1.80105 -2.72451 0
M  V30 6497 H 608.837 -0.113239 -3.66425 0
M  V30 6498 H 608.485 2.21097 -4.51802 0
M  V30 6499 H 608.185 1.00052 -5.79019 0
M  V30 6500 H 609.709 1.93295 -5.79197 0
M  V30 6501 H 611.123 -0.337444 -5.72306 0
M  V30 6502 H 609.52 -1.10914 -5.89761 0
M  V30 6503 H 610.59 -1.60745 -4.57481 0
M  V30 6504 N 611.933 1.52934 -0.380664 0
M  V30 6505 C 612.843 2.29921 0.466192 0
M  V30 6506 C 613.859 1.36488 1.07922 0
M  V30 6507 O 615.035 1.69553 1.0869 0
M  V30 6508 C 612.1 3.08468 1.58266 0
M  V30 6509 C 611.161 4.17595 0.995627 0
M  V30 6510 C 610.394 4.92387 2.05889 0
M  V30 6511 O 610.617 4.67184 3.27254 0
M  V30 6512 O 609.551 5.77949 1.68102 0
M  V30 6513 H 613.377 3.03274 -0.160735 0
M  V30 6514 H 610.962 1.48698 -0.144617 0
M  V30 6515 H 612.844 3.57469 2.23145 0
M  V30 6516 H 611.519 2.37937 2.19471 0
M  V30 6517 H 610.426 3.72811 0.310332 0
M  V30 6518 H 611.759 4.90336 0.427918 0
M  V30 6519 N 613.412 0.11024 1.57214 0
M  V30 6520 C 614.36 -0.860586 2.16094 0
M  V30 6521 C 615.354 -1.28156 1.1078 0
M  V30 6522 O 616.56 -1.25433 1.29099 0
M  V30 6523 H 612.935 -0.295606 0.691463 0
M  V30 6524 H 614.906 -0.33942 2.96463 0
M  V30 6525 C 613.655 -2.10421 2.768 0
M  V30 6526 H 612.978 -1.7892 3.5753 0
M  V30 6527 H 614.418 -2.76375 3.21547 0
M  V30 6528 C 612.877 -2.88823 1.73444 0
M  V30 6529 O 613.407 -3.839 1.18251 0
M  V30 6530 N 611.613 -2.52649 1.43586 0
M  V30 6531 H 611.16 -1.754 1.8866 0
M  V30 6532 H 611.118 -3.05403 0.746735 0
M  V30 6533 N 614.89 -1.56749 -0.16351 0
M  V30 6534 C 616.115 -1.86938 -0.898264 0
M  V30 6535 C 616.54 -0.697456 -1.74692 0
M  V30 6536 O 615.898 0.353327 -1.77824 0
M  V30 6537 C 615.946 -3.15599 -1.74441 0
M  V30 6538 O 615.05 -2.98371 -2.8469 0
M  V30 6539 H 614.391 -0.614659 -0.251178 0
M  V30 6540 H 616.921 -2.03979 -0.159298 0
M  V30 6541 H 616.931 -3.47202 -2.14277 0
M  V30 6542 H 615.606 -4.00505 -1.1211 0
M  V30 6543 H 614.183 -2.7814 -2.4838 0
M  V30 6544 N 616.368 0.432326 -1.51554 0
M  V30 6545 C 617.278 1.55023 -1.76082 0
M  V30 6546 C 618.294 1.61593 -0.645265 0
M  V30 6547 O 619.47 1.78742 -0.928086 0
M  V30 6548 C 616.535 2.90964 -1.88523 0
M  V30 6549 C 615.596 2.9447 -3.12388 0
M  V30 6550 C 614.829 4.23926 -3.24225 0
M  V30 6551 O 615.052 5.16576 -2.4188 0
M  V30 6552 O 613.986 4.33818 -4.17235 0
M  V30 6553 H 617.812 1.37238 -2.70923 0
M  V30 6554 H 615.397 0.615845 -1.36117 0
M  V30 6555 H 617.279 3.71633 -1.98662 0
M  V30 6556 H 615.954 3.08865 -0.9687 0
M  V30 6557 H 614.861 2.12737 -3.07723 0
M  V30 6558 H 616.194 2.81514 -4.03746 0
M  V30 6559 N 617.846 1.41785 0.688094 0
M  V30 6560 C 619.094 1.41264 1.4453 0
M  V30 6561 C 619.415 0.0252946 1.94984 0
M  V30 6562 O 618.685 -0.934081 1.72197 0
M  V30 6563 H 617.265 0.519998 0.536294 0
M  V30 6564 H 619.927 1.7709 0.813941 0
M  V30 6565 H 619.023 2.10439 2.30482 0
M  V30 6566 N 619.324 -0.923095 1.27737 0
M  V30 6567 C 620.254 -2.04124 1.13383 0
M  V30 6568 C 621.235 -1.70066 0.0340658 0
M  V30 6569 O 622.42 -1.93068 0.209383 0
M  V30 6570 C 619.55 -3.3831 0.785097 0
M  V30 6571 C 618.504 -3.86496 1.8386 0
M  V30 6572 C 617.83 -5.1754 1.34373 0
M  V30 6573 C 619.13 -4.09381 3.24353 0
M  V30 6574 H 620.824 -2.1639 2.06919 0
M  V30 6575 H 618.37 -1.03976 0.996243 0
M  V30 6576 H 620.323 -4.16016 0.671485 0
M  V30 6577 H 619.047 -3.2607 -0.185969 0
M  V30 6578 H 617.706 -3.10987 1.9412 0
M  V30 6579 H 617.354 -5.01696 0.361989 0
M  V30 6580 H 617.054 -5.50751 2.04811 0
M  V30 6581 H 618.578 -5.97811 1.24315 0
M  V30 6582 H 619.992 -4.77641 3.17067 0
M  V30 6583 H 618.389 -4.53906 3.92542 0
M  V30 6584 H 619.459 -3.14515 3.69064 0
M  V30 6585 N 620.802 -1.09834 -1.13024 0
M  V30 6586 C 622.079 -0.749225 -1.80682 0
M  V30 6587 C 622.459 0.765171 -1.96744 0
M  V30 6588 O 621.807 1.68912 -1.53886 0
M  V30 6589 C 622.017 -1.49311 -3.15448 0
M  V30 6590 C 623.365 -1.66162 -3.90737 0
M  V30 6591 O 624.389 -1.45597 -3.25085 0
M  V30 6592 O 623.248 -2.00211 -5.08505 0
M  V30 6593 H 620.342 -0.269614 -0.781817 0
M  V30 6594 H 622.888 -1.20078 -1.19914 0
M  V30 6595 H 621.66 -2.52407 -2.99009 0
M  V30 6596 H 621.283 -1.034 -3.8392 0
M  V30 6597 N 622.28 1.30327 -0.886154 0
M  V30 6598 C 623.508 2.00254 -0.520176 0
M  V30 6599 C 623.923 1.66419 0.891637 0
M  V30 6600 O 623.28 0.901951 1.58654 0
M  V30 6601 C 623.331 3.54916 -0.686775 0
M  V30 6602 O 623.052 3.87547 -2.04301 0
M  V30 6603 C 624.553 4.42115 -0.323945 0
M  V30 6604 H 621.773 0.640204 -0.200947 0
M  V30 6605 H 624.317 1.66183 -1.19178 0
M  V30 6606 H 622.472 3.8735 -0.0625273 0
M  V30 6607 H 622.886 4.82247 -2.06249 0
M  V30 6608 H 624.36 5.49808 -0.491407 0
M  V30 6609 H 624.837 4.32953 0.73811 0
M  V30 6610 H 625.443 4.15129 -0.924565 0
M  V30 6611 N 623.758 0.647228 1.43697 0
M  V30 6612 C 624.688 -0.0345631 2.33474 0
M  V30 6613 C 625.669 -0.818193 1.4913 0
M  V30 6614 O 626.854 -0.780867 1.77809 0
M  V30 6615 C 623.984 -1.00576 3.32418 0
M  V30 6616 C 622.938 -0.33266 4.26705 0
M  V30 6617 C 622.264 -1.41489 5.1564 0
M  V30 6618 C 623.564 0.771204 5.16575 0
M  V30 6619 H 625.258 0.715163 2.90733 0
M  V30 6620 H 622.804 0.345364 1.39797 0
M  V30 6621 H 624.757 -1.49159 3.94119 0
M  V30 6622 H 623.481 -1.78657 2.73403 0
M  V30 6623 H 622.14 0.13267 3.6636 0
M  V30 6624 H 621.788 -2.18698 4.52968 0
M  V30 6625 H 621.488 -0.969799 5.79542 0
M  V30 6626 H 623.012 -1.9022 5.80214 0
M  V30 6627 H 624.426 0.36779 5.72119 0
M  V30 6628 H 622.823 1.1404 5.89165 0
M  V30 6629 H 623.893 1.63169 4.56622 0
M  V30 6630 N 625.236 -1.5273 0.388769 0
M  V30 6631 C 626.461 -2.0647 -0.19621 0
M  V30 6632 C 626.886 -1.25865 -1.39784 0
M  V30 6633 O 626.244 -0.283562 -1.79069 0
M  V30 6634 C 626.292 -3.56456 -0.5451 0
M  V30 6635 O 625.396 -3.78426 -1.63912 0
M  V30 6636 H 624.737 -0.663599 -0.023067 0
M  V30 6637 H 627.267 -1.96898 0.556084 0
M  V30 6638 H 627.277 -3.99888 -0.809557 0
M  V30 6639 H 625.952 -4.14561 0.333417 0
M  V30 6640 H 624.529 -3.46884 -1.36842 0
M  V30 6641 N 626.714 -0.118576 -1.57153 0
M  V30 6642 C 627.962 0.538461 -1.94795 0
M  V30 6643 C 628.283 1.67243 -1.00274 0
M  V30 6644 O 627.553 1.95811 -0.0589692 0
M  V30 6645 H 626.133 0.201904 -0.719197 0
M  V30 6646 H 628.795 -0.187418 -1.93997 0
M  V30 6647 H 627.891 0.933315 -2.97818 0
M  V30 6648 N 628.193 1.56834 0.155195 0
M  V30 6649 C 629.125 1.94235 1.21677 0
M  V30 6650 C 630.138 0.83724 1.39621 0
M  V30 6651 O 631.327 1.11567 1.39338 0
M  V30 6652 C 628.427 2.19402 2.58294 0
M  V30 6653 C 627.6 3.50671 2.61436 0
M  V30 6654 C 626.659 3.64475 3.79532 0
M  V30 6655 O 625.685 4.36945 3.64784 0
M  V30 6656 N 626.887 3.00526 4.96653 0
M  V30 6657 H 629.652 2.85901 0.898932 0
M  V30 6658 H 627.213 1.58185 0.34483 0
M  V30 6659 H 629.205 2.25886 3.35794 0
M  V30 6660 H 627.775 1.34042 2.82403 0
M  V30 6661 H 626.995 3.55702 1.69912 0
M  V30 6662 H 628.283 4.3702 2.60559 0
M  V30 6663 H 627.681 2.41549 5.11538 0
M  V30 6664 H 626.238 3.12583 5.71958 0
M  V30 6665 N 629.671 -0.424282 1.51781 0
M  V30 6666 C 631.082 -1.00368 1.57427 0
M  V30 6667 C 631.433 -1.91962 0.40558 0
M  V30 6668 O 630.558 -2.111 -0.47601 0
M  V30 6669 C 631.153 -1.82707 2.85313 0
M  V30 6670 C 629.712 -2.35675 2.93487 0
M  V30 6671 C 628.859 -1.1524 2.5222 0
M  V30 6672 H 631.81 -0.205064 1.5737 0
M  V30 6673 H 631.831 -2.68294 2.69812 0
M  V30 6674 H 631.343 -1.16017 3.70353 0
M  V30 6675 H 629.444 -3.05781 2.12906 0
M  V30 6676 H 629.557 -2.67578 3.97415 0
M  V30 6677 H 627.921 -1.50174 2.05718 0
M  V30 6678 H 628.704 -0.5014 3.39619 0
M  V30 6679 N 631.149 -1.42148 -0.680565 0
M  V30 6680 C 632.397 -1.42029 -1.43779 0
M  V30 6681 C 632.718 -0.0356347 -1.94967 0
M  V30 6682 O 631.988 0.924936 -1.7269 0
M  V30 6683 H 630.568 -0.522835 -0.533529 0
M  V30 6684 H 633.23 -1.7752 -0.804538 0
M  V30 6685 H 632.326 -2.11658 -2.29363 0
M  V30 6686 N 632.627 0.916307 -1.28225 0
M  V30 6687 C 633.875 1.6619 -1.15002 0
M  V30 6688 C 634.196 1.92642 0.302329 0
M  V30 6689 O 633.466 1.54076 1.20985 0
M  V30 6690 H 632.046 0.615964 -0.422608 0
M  V30 6691 H 634.708 1.09963 -1.60917 0
M  V30 6692 H 633.804 2.62533 -1.68769 0
M  V30 6693 N 634.105 1.10431 1.1244 0
M  V30 6694 C 635.353 0.845045 1.83585 0
M  V30 6695 C 635.674 -0.631168 1.84503 0
M  V30 6696 O 634.944 -1.45825 1.30813 0
M  V30 6697 H 633.524 0.309628 0.679809 0
M  V30 6698 H 636.186 1.39458 1.36153 0
M  V30 6699 H 635.282 1.20786 2.8778 0
M  V30 6700 N 635.583 -1.29855 0.893053 0
M  V30 6701 C 636.831 -1.9544 0.514566 0
M  V30 6702 C 637.152 -1.70795 -0.940959 0
M  V30 6703 O 636.422 -1.03601 -1.66264 0
M  V30 6704 H 635.002 -0.723137 0.187302 0
M  V30 6705 H 637.664 -1.58234 1.13789 0
M  V30 6706 H 636.76 -3.04341 0.691581 0
M  V30 6707 N 637.061 -0.65484 -1.43351 0
M  V30 6708 C 638.477 -0.32255 -1.56307 0
M  V30 6709 C 638.677 1.17324 -1.63821 0
M  V30 6710 O 637.733 1.95813 -1.59417 0
M  V30 6711 C 639.046 -1.03533 -2.82314 0
M  V30 6712 C 640.594 -1.01574 -2.9606 0
M  V30 6713 C 641.069 -1.70945 -4.24902 0
M  V30 6714 N 642.56 -1.67716 -4.3177 0
M  V30 6715 C 643.295 -2.18265 -5.30234 0
M  V30 6716 N 642.791 -2.7711 -6.34966 0
M  V30 6717 N 644.584 -2.08756 -5.21898 0
M  V30 6718 H 636.735 -1.62549 -1.36717 0
M  V30 6719 H 638.998 -0.683676 -0.656727 0
M  V30 6720 H 638.704 -2.09045 -2.8283 0
M  V30 6721 H 638.578 -0.587913 -3.7259 0
M  V30 6722 H 640.965 0.0309834 -2.95084 0
M  V30 6723 H 641.046 -1.50186 -2.07069 0
M  V30 6724 H 640.69 -2.75574 -4.26639 0
M  V30 6725 H 640.62 -1.19797 -5.12793 0
M  V30 6726 H 643.111 -1.24777 -3.56706 0
M  V30 6727 H 643.424 -3.13353 -7.06421 0
M  V30 6728 H 641.769 -2.81171 -6.35585 0
M  V30 6729 H 644.96 -1.62488 -4.38994 0
M  V30 6730 H 645.133 -2.48459 -5.98475 0
M  V30 6731 N 638.539 1.52521 -0.396863 0
M  V30 6732 C 639.816 1.94112 0.240842 0
M  V30 6733 C 640.196 1.33288 1.637 0
M  V30 6734 O 639.544 0.503901 2.22875 0
M  V30 6735 C 639.754 3.48033 0.259567 0
M  V30 6736 C 641.102 4.21822 0.484866 0
M  V30 6737 O 642.126 3.54579 0.339453 0
M  V30 6738 O 640.985 5.41042 0.770412 0
M  V30 6739 H 638.079 0.812973 0.151671 0
M  V30 6740 H 640.625 1.63572 -0.451918 0
M  V30 6741 H 639.397 3.84655 -0.718078 0
M  V30 6742 H 639.02 3.84899 0.996937 0
M  V30 6743 N 640.017 0.126909 1.57088 0
M  V30 6744 C 641.265 -0.528123 1.95078 0
M  V30 6745 C 641.586 -1.66708 1.0116 0
M  V30 6746 O 640.856 -1.95777 0.0693527 0
M  V30 6747 H 639.436 -0.198087 0.720257 0
M  V30 6748 H 642.098 0.197703 1.93895 0
M  V30 6749 H 641.194 -0.917507 2.98309 0
M  V30 6750 N 641.495 -1.56914 -0.146875 0
M  V30 6751 C 642.743 -1.82994 -0.85777 0
M  V30 6752 C 643.064 -0.707814 -1.817 0
M  V30 6753 O 642.334 0.270521 -1.94023 0
M  V30 6754 H 640.914 -0.675106 -0.319751 0
M  V30 6755 H 643.576 -1.9439 -0.140849 0
M  V30 6756 H 642.672 -2.77928 -1.41994 0
M  V30 6757 N 642.974 0.416227 -1.52004 0
M  V30 6758 C 644.222 1.16153 -1.65387 0
M  V30 6759 C 644.543 1.91208 -0.382669 0
M  V30 6760 O 643.813 1.86413 0.602231 0
M  V30 6761 H 642.393 0.431765 -0.60958 0
M  V30 6762 H 645.055 0.475151 -1.89019 0
M  V30 6763 H 644.151 1.87952 -2.4916 0
M  V30 6764 N 644.452 1.42507 0.673017 0
M  V30 6765 C 645.382 1.48916 1.79851 0
M  V30 6766 C 646.363 0.345566 1.66553 0
M  V30 6767 O 647.548 0.560116 1.85947 0
M  V30 6768 C 644.678 1.39258 3.18158 0
M  V30 6769 C 643.632 2.51662 3.46194 0
M  V30 6770 C 642.958 2.27062 4.84094 0
M  V30 6771 C 644.258 3.93968 3.42909 0
M  V30 6772 H 645.952 2.43114 1.74745 0
M  V30 6773 H 643.498 1.17013 0.839288 0
M  V30 6774 H 645.451 1.42349 3.96629 0
M  V30 6775 H 644.175 0.415542 3.23946 0
M  V30 6776 H 642.834 2.47891 2.70084 0
M  V30 6777 H 642.482 1.27648 4.86534 0
M  V30 6778 H 642.182 3.02398 5.03815 0
M  V30 6779 H 643.706 2.31905 5.64847 0
M  V30 6780 H 645.12 3.99332 4.11347 0
M  V30 6781 H 643.517 4.6917 3.74165 0
M  V30 6782 H 644.587 4.20512 2.41449 0
M  V30 6783 N 645.93 -0.909495 1.28709 0
M  V30 6784 C 646.893 -1.99399 1.13016 0
M  V30 6785 C 647.893 -1.60654 0.068536 0
M  V30 6786 O 649.083 -1.71334 0.314671 0
M  V30 6787 C 646.215 -3.33078 0.726085 0
M  V30 6788 H 647.408 -2.14751 2.09338 0
M  V30 6789 H 644.961 -1.09272 1.11756 0
M  V30 6790 H 645.696 -3.23428 -0.23771 0
M  V30 6791 H 645.481 -3.62562 1.49302 0
M  V30 6792 H 646.971 -4.12681 0.639058 0
M  V30 6793 N 647.408 -1.11026 -1.11852 0
M  V30 6794 C 648.819 -0.873203 -1.65021 0
M  V30 6795 C 649.17 0.595364 -1.86949 0
M  V30 6796 O 648.295 1.45645 -1.60051 0
M  V30 6797 C 648.89 -1.57859 -2.99777 0
M  V30 6798 C 647.449 -1.38807 -3.49871 0
M  V30 6799 C 646.596 -1.62403 -2.24768 0
M  V30 6800 H 649.547 -1.26712 -0.955503 0
M  V30 6801 H 649.568 -1.02111 -3.66543 0
M  V30 6802 H 649.08 -2.6474 -2.83786 0
M  V30 6803 H 647.181 -0.341163 -3.71035 0
M  V30 6804 H 647.294 -2.13421 -4.28938 0
M  V30 6805 H 645.658 -1.04714 -2.32179 0
M  V30 6806 H 646.441 -2.70549 -2.11324 0
M  V30 6807 N 648.886 1.2938 -0.899927 0
M  V30 6808 C 650.297 1.77644 -0.574427 0
M  V30 6809 C 650.648 1.73824 0.909928 0
M  V30 6810 O 649.773 1.32429 1.71147 0
M  V30 6811 C 650.368 3.22573 -1.03595 0
M  V30 6812 C 648.927 3.68614 -0.76161 0
M  V30 6813 C 648.074 2.49483 -1.21052 0
M  V30 6814 H 651.025 1.16038 -1.08263 0
M  V30 6815 H 651.046 3.78684 -0.371337 0
M  V30 6816 H 650.558 3.25321 -2.11631 0
M  V30 6817 H 648.659 3.7134 0.306127 0
M  V30 6818 H 648.772 4.59402 -1.35965 0
M  V30 6819 H 647.136 2.46798 -0.629515 0
M  V30 6820 H 647.919 2.54959 -2.29893 0
M  V30 6821 N 650.364 0.662433 1.43002 0
M  V30 6822 C 651.775 0.258315 1.84904 0
M  V30 6823 C 652.126 -1.19703 1.55453 0
M  V30 6824 O 651.251 -1.91484 1.00811 0
M  V30 6825 C 651.846 0.462047 3.35635 0
M  V30 6826 C 650.405 0.112165 3.76233 0
M  V30 6827 C 649.552 0.760479 2.66668 0
M  V30 6828 H 652.503 0.865467 1.33024 0
M  V30 6829 H 652.524 -0.289646 3.79396 0
M  V30 6830 H 652.036 1.52135 3.57039 0
M  V30 6831 H 650.137 -0.944179 3.60439 0
M  V30 6832 H 650.25 0.544058 4.76001 0
M  V30 6833 H 648.614 0.192887 2.53969 0
M  V30 6834 H 649.397 1.82299 2.90898 0
M  V30 6835 N 651.842 -1.52309 0.404946 0
M  V30 6836 C 653.09 -2.01368 -0.17186 0
M  V30 6837 C 653.411 -1.29261 -1.46002 0
M  V30 6838 O 652.681 -0.41729 -1.91404 0
M  V30 6839 H 651.261 -0.744034 -0.0664993 0
M  V30 6840 H 653.923 -1.87263 0.540228 0
M  V30 6841 H 653.019 -3.09888 -0.370957 0
M  V30 6842 N 653.32 -0.135238 -1.57019 0
M  V30 6843 C 654.545 0.529343 -2.00531 0
M  V30 6844 C 654.97 1.58391 -1.01459 0
M  V30 6845 O 654.328 1.81296 0.0113986 0
M  V30 6846 C 654.376 1.11748 -3.42848 0
M  V30 6847 O 653.48 2.23267 -3.46736 0
M  V30 6848 H 652.821 0.130669 -0.651016 0
M  V30 6849 H 655.351 -0.228503 -2.0332 0
M  V30 6850 H 655.361 1.44905 -3.81401 0
M  V30 6851 H 654.036 0.345147 -4.14465 0
M  V30 6852 H 652.613 1.91428 -3.20015 0
M  V30 6853 N 654.798 1.5699 0.138552 0
M  V30 6854 C 656.038 1.85619 0.855849 0
M  V30 6855 C 656.402 0.720663 1.77962 0
M  V30 6856 O 657.603 0.888221 2.53701 0
M  V30 6857 C 655.874 3.19447 1.60275 0
M  V30 6858 S 657.433 3.69656 2.36431 0
M  V30 6859 H 654.251 0.650926 0.286035 0
M  V30 6860 H 656.853 1.9516 0.115331 0
M  V30 6861 H 655.557 4.00053 0.915737 0
M  V30 6862 H 655.088 3.12935 2.38402 0
M  V30 6863 H 657.103 3.39595 3.61787 0
M  V30 6864 N 656.276 -0.40816 1.52223 0
M  V30 6865 C 657.501 -1.18127 1.70472 0
M  V30 6866 C 657.926 -1.83491 0.41384 0
M  V30 6867 O 657.284 -1.70047 -0.628778 0
M  V30 6868 C 657.332 -2.21935 2.84213 0
M  V30 6869 O 656.436 -3.28099 2.4985 0
M  V30 6870 H 655.777 -0.344781 0.56747 0
M  V30 6871 H 658.307 -0.478328 1.9893 0
M  V30 6872 H 658.317 -2.66248 3.09153 0
M  V30 6873 H 656.992 -1.73744 3.7787 0
M  V30 6874 H 655.569 -2.89058 2.35584 0
M  V30 6875 N 657.755 -1.42862 -0.66545 0
M  V30 6876 C 659.166 -1.3901 -1.24632 0
M  V30 6877 C 659.517 -0.0880285 -1.96002 0
M  V30 6878 O 658.642 0.812947 -2.0055 0
M  V30 6879 C 659.237 -2.51806 -2.2667 0
M  V30 6880 C 657.796 -2.51257 -2.80262 0
M  V30 6881 C 656.943 -2.30124 -1.5472 0
M  V30 6882 H 659.894 -1.5194 -0.458237 0
M  V30 6883 H 659.915 -2.22593 -3.08598 0
M  V30 6884 H 659.427 -3.46558 -1.74697 0
M  V30 6885 H 657.528 -1.60349 -3.36332 0
M  V30 6886 H 657.641 -3.48614 -3.28641 0
M  V30 6887 H 656.005 -1.7856 -1.81627 0
M  V30 6888 H 656.788 -3.26945 -1.04699 0
M  V30 6889 N 659.233 0.902656 -1.29189 0
M  V30 6890 C 660.458 1.69167 -1.19989 0
M  V30 6891 C 660.883 1.86607 0.236495 0
M  V30 6892 O 660.241 1.38425 1.17082 0
M  V30 6893 C 660.289 3.05532 -1.91527 0
M  V30 6894 O 659.393 3.93621 -1.2303 0
M  V30 6895 H 658.734 0.517584 -0.415936 0
M  V30 6896 H 661.264 1.12785 -1.70706 0
M  V30 6897 H 661.274 3.55693 -1.99866 0
M  V30 6898 H 659.949 2.92156 -2.96003 0
M  V30 6899 H 658.526 3.52055 -1.22928 0
M  V30 6900 N 660.711 1.11618 1.11262 0
M  V30 6901 C 661.641 0.79846 2.19424 0
M  V30 6902 C 662.622 -0.234003 1.68483 0
M  V30 6903 O 663.807 -0.0970704 1.93957 0
M  V30 6904 C 660.937 0.242892 3.4645 0
M  V30 6905 C 659.891 1.20744 4.10615 0
M  V30 6906 C 659.217 0.512494 5.32238 0
M  V30 6907 C 660.517 2.55884 4.55325 0
M  V30 6908 H 662.211 1.70286 2.46258 0
M  V30 6909 H 659.757 0.820195 1.18359 0
M  V30 6910 H 661.71 0.00840447 4.21399 0
M  V30 6911 H 660.434 -0.696811 3.1908 0
M  V30 6912 H 659.093 1.42759 3.37662 0
M  V30 6913 H 658.741 -0.432075 5.01141 0
M  V30 6914 H 658.441 1.15583 5.7612 0
M  V30 6915 H 659.965 0.286842 6.09926 0
M  V30 6916 H 661.379 2.37946 5.21588 0
M  V30 6917 H 659.776 3.16216 5.10027 0
M  V30 6918 H 660.846 3.14968 3.68678 0
M  V30 6919 N 662.189 -1.289 0.906776 0
M  V30 6920 C 663.414 -1.99939 0.551303 0
M  V30 6921 C 663.839 -1.67366 -0.858496 0
M  V30 6922 O 663.197 -0.902176 -1.57259 0
M  V30 6923 C 663.245 -3.52523 0.758937 0
M  V30 6924 O 662.349 -4.11983 -0.185308 0
M  V30 6925 H 661.69 -0.628376 0.214568 0
M  V30 6926 H 664.22 -1.64225 1.2203 0
M  V30 6927 H 664.23 -4.02522 0.666329 0
M  V30 6928 H 662.905 -3.75566 1.78671 0
M  V30 6929 H 661.482 -3.72873 -0.0445577 0
M  V30 6930 N 663.667 -0.670007 -1.42649 0
M  V30 6931 C 665.078 -0.268118 -1.84765 0
M  V30 6932 C 665.429 1.18877 -1.56086 0
M  V30 6933 O 664.554 1.90947 -1.01825 0
M  V30 6934 C 665.149 -0.47984 -3.35385 0
M  V30 6935 C 663.708 -0.132116 -3.76168 0
M  V30 6936 C 662.855 -0.774611 -2.66261 0
M  V30 6937 H 665.806 -0.872509 -1.32563 0
M  V30 6938 H 665.827 0.269522 -3.79544 0
M  V30 6939 H 665.339 -1.54026 -3.56227 0
M  V30 6940 H 663.44 0.92505 -3.60934 0
M  V30 6941 H 663.553 -0.569294 -4.75706 0
M  V30 6942 H 661.917 -0.206353 -2.53863 0
M  V30 6943 H 662.7 -1.83839 -2.89928 0
M  V30 6944 N 665.145 1.52092 -0.413018 0
M  V30 6945 C 666.37 2.06756 0.163338 0
M  V30 6946 C 666.795 1.28073 1.37764 0
M  V30 6947 O 666.153 0.312015 1.78595 0
M  V30 6948 C 666.201 3.57278 0.488322 0
M  V30 6949 O 665.305 3.80986 1.57871 0
M  V30 6950 H 664.646 0.663882 0.0125068 0
M  V30 6951 H 667.176 1.95988 -0.587339 0
M  V30 6952 H 667.186 4.01125 0.745836 0
M  V30 6953 H 665.861 4.13978 -0.399327 0
M  V30 6954 H 664.438 3.49017 1.31306 0
M  V30 6955 N 666.623 0.143563 1.56945 0
M  V30 6956 C 667.848 -0.518701 2.00809 0
M  V30 6957 C 668.273 -1.5785 1.02298 0
M  V30 6958 O 667.631 -1.813 -0.0017839 0
M  V30 6959 C 667.679 -1.09929 3.43436 0
M  V30 6960 O 666.783 -2.21425 3.47915 0
M  V30 6961 H 666.124 -0.127215 0.6517 0
M  V30 6962 H 668.654 0.239283 2.03196 0
M  V30 6963 H 668.664 -1.4288 3.82164 0
M  V30 6964 H 667.339 -0.323162 4.14643 0
M  V30 6965 H 665.916 -1.89728 3.21026 0
M  V30 6966 N 668.101 -1.57061 -0.130224 0
M  V30 6967 C 669.049 -2.00486 -1.17933 0
M  V30 6968 C 670.043 -0.899933 -1.43519 0
M  V30 6969 O 671.249 -1.08514 -1.43613 0
M  V30 6970 H 667.624 -0.638441 -0.397363 0
M  V30 6971 H 669.595 -2.87848 -0.786501 0
M  V30 6972 C 668.344 -2.41565 -2.50084 0
M  V30 6973 H 667.667 -3.26148 -2.31231 0
M  V30 6974 H 669.107 -2.75757 -3.22078 0
M  V30 6975 C 667.566 -1.27485 -3.11848 0
M  V30 6976 O 668.096 -0.584688 -3.97422 0
M  V30 6977 N 666.302 -1.03478 -2.71552 0
M  V30 6978 H 665.849 -1.59779 -2.02061 0
M  V30 6979 H 665.807 -0.27341 -3.13209 0
M  V30 6980 N 669.579 0.400081 -1.52437 0
M  V30 6981 C 670.995 0.739359 -1.41441 0
M  V30 6982 C 671.195 1.94512 -0.526053 0
M  V30 6983 O 670.251 2.525 0.00472502 0
M  V30 6984 C 671.564 0.984824 -2.84116 0
M  V30 6985 C 673.112 1.08698 -2.93519 0
M  V30 6986 C 673.587 1.36515 -4.37181 0
M  V30 6987 N 675.078 1.43361 -4.40457 0
M  V30 6988 C 675.813 1.66528 -5.48686 0
M  V30 6989 N 675.309 1.87239 -6.67018 0
M  V30 6990 N 677.102 1.68617 -5.36213 0
M  V30 6991 H 669.253 -0.393484 -2.08723 0
M  V30 6992 H 671.516 -0.1138 -0.941145 0
M  V30 6993 H 671.222 0.171096 -3.51284 0
M  V30 6994 H 671.096 1.90253 -3.25705 0
M  V30 6995 H 673.483 1.89129 -2.26526 0
M  V30 6996 H 673.564 0.147432 -2.55375 0
M  V30 6997 H 673.208 0.565982 -5.04737 0
M  V30 6998 H 673.138 2.31737 -4.7287 0
M  V30 6999 H 675.629 1.29108 -3.55161 0
M  V30 7000 H 675.942 2.04392 -7.45281 0
M  V30 7001 H 674.287 1.84486 -6.70067 0
M  V30 7002 H 677.478 1.5198 -4.42741 0
M  V30 7003 H 677.651 1.86332 -6.20632 0
M  V30 7004 N 671.057 1.43213 0.657864 0
M  V30 7005 C 672.282 1.48227 1.45064 0
M  V30 7006 C 672.707 0.0999939 1.87834 0
M  V30 7007 O 672.065 -0.905269 1.57081 0
M  V30 7008 C 672.113 2.42931 2.6649 0
M  V30 7009 O 671.217 1.91237 3.6538 0
M  V30 7010 H 670.558 0.501551 0.435135 0
M  V30 7011 H 673.088 1.8808 0.805431 0
M  V30 7012 H 673.098 2.6008 3.1436 0
M  V30 7013 H 671.773 3.43348 2.34701 0
M  V30 7014 H 670.35 1.83726 3.24498 0
M  V30 7015 N 672.536 -0.895792 1.29666 0
M  V30 7016 C 673.761 -1.68528 1.20885 0
M  V30 7017 C 674.186 -1.8673 -0.226595 0
M  V30 7018 O 673.544 -1.39044 -1.16347 0
M  V30 7019 C 673.592 -3.04512 1.93144 0
M  V30 7020 O 672.696 -3.92963 1.25115 0
M  V30 7021 H 672.037 -0.515371 0.418675 0
M  V30 7022 H 674.567 -1.11878 1.71302 0
M  V30 7023 H 674.577 -3.54628 2.0175 0
M  V30 7024 H 673.252 -2.90582 2.97548 0
M  V30 7025 H 671.829 -3.51399 1.24794 0
M  V30 7026 N 674.014 -1.12206 -1.10668 0
M  V30 7027 C 675.425 -0.890657 -1.64086 0
M  V30 7028 C 675.776 0.575502 -1.8757 0
M  V30 7029 O 674.901 1.4394 -1.61587 0
M  V30 7030 C 675.496 -1.61029 -2.98085 0
M  V30 7031 C 674.055 -1.4251 -3.48379 0
M  V30 7032 C 673.202 -1.64778 -2.23033 0
M  V30 7033 H 676.153 -1.27718 -0.94201 0
M  V30 7034 H 676.174 -1.05993 -3.65439 0
M  V30 7035 H 675.686 -2.67735 -2.80962 0
M  V30 7036 H 673.787 -0.380497 -3.70652 0
M  V30 7037 H 673.9 -2.17959 -4.26651 0
M  V30 7038 H 672.264 -1.07171 -2.31055 0
M  V30 7039 H 673.047 -2.72776 -2.08443 0
M  V30 7040 N 675.492 1.28418 -0.913599 0
M  V30 7041 C 676.455 2.25564 -0.406624 0
M  V30 7042 C 677.455 1.5387 0.466965 0
M  V30 7043 O 678.645 1.72094 0.270042 0
M  V30 7044 C 675.777 3.38339 0.417053 0
M  V30 7045 H 676.97 2.71926 -1.26477 0
M  V30 7046 H 674.523 1.40098 -0.692986 0
M  V30 7047 H 675.258 2.97339 1.29461 0
M  V30 7048 H 675.043 3.91542 -0.209102 0
M  V30 7049 H 676.533 4.10578 0.762602 0
M  V30 7050 N 676.97 0.677563 1.42291 0
M  V30 7051 C 678.198 0.209459 2.05837 0
M  V30 7052 C 678.613 -1.13444 1.50917 0
M  V30 7053 O 677.97 -1.70529 0.65008 0
M  V30 7054 C 678.021 0.138819 3.61233 0
M  V30 7055 O 677.742 1.42962 4.14118 0
M  V30 7056 C 679.243 -0.352449 4.41897 0
M  V30 7057 H 676.463 0.101209 0.663323 0
M  V30 7058 H 679.007 0.925077 1.8238 0
M  V30 7059 H 677.162 -0.527505 3.83792 0
M  V30 7060 H 677.576 1.3048 5.08011 0
M  V30 7061 H 679.05 -0.350778 5.50884 0
M  V30 7062 H 679.527 -1.3882 4.16684 0
M  V30 7063 H 680.133 0.282236 4.24362 0
M  V30 7064 N 678.448 -1.51871 0.421078 0
M  V30 7065 C 679.398 -2.24171 -0.416111 0
M  V30 7066 C 680.382 -1.25763 -1.00362 0
M  V30 7067 O 681.574 -1.5094 -0.924452 0
M  V30 7068 C 678.703 -3.07533 -1.52571 0
M  V30 7069 C 677.789 -4.1336 -0.948399 0
M  V30 7070 N 678.18 -5.05704 -0.0987933 0
M  V30 7071 C 676.478 -4.29055 -1.21768 0
M  V30 7072 C 677.179 -5.8127 0.223705 0
M  V30 7073 N 676.155 -5.4221 -0.388524 0
M  V30 7074 H 679.957 -2.92925 0.239166 0
M  V30 7075 H 677.471 -1.60732 0.232191 0
M  V30 7076 H 679.468 -3.57893 -2.13819 0
M  V30 7077 H 678.128 -2.4032 -2.18349 0
M  V30 7078 H 679.139 -5.17214 0.266428 0
M  V30 7079 H 675.816 -3.73071 -1.87416 0
M  V30 7080 H 677.206 -6.65653 0.914076 0
M  V30 7081 N 679.926 -0.151884 -1.56866 0
M  V30 7082 C 681.151 0.508044 -2.01081 0
M  V30 7083 C 681.576 1.57306 -1.03134 0
M  V30 7084 O 680.934 1.81298 -0.0078309 0
M  V30 7085 C 680.982 1.08106 -3.44014 0
M  V30 7086 O 680.086 2.19577 -3.49084 0
M  V30 7087 H 679.427 0.123757 -0.652365 0
M  V30 7088 H 681.957 -0.250055 -2.03066 0
M  V30 7089 H 681.967 1.40851 -3.82916 0
M  V30 7090 H 680.642 0.301168 -4.14808 0
M  V30 7091 H 679.219 1.88023 -3.22027 0
M  V30 7092 N 681.404 1.57128 0.121893 0
M  V30 7093 C 682.815 1.73902 0.679348 0
M  V30 7094 C 683.166 0.770135 1.80453 0
M  V30 7095 O 682.291 -0.0576083 2.16323 0
M  V30 7096 C 682.886 3.15328 1.2391 0
M  V30 7097 C 681.445 3.33618 1.74288 0
M  V30 7098 C 680.592 2.6978 0.641414 0
M  V30 7099 H 683.543 1.58359 -0.104 0
M  V30 7100 H 683.564 3.16718 2.10879 0
M  V30 7101 H 683.076 3.85821 0.419957 0
M  V30 7102 H 681.177 2.68162 2.58689 0
M  V30 7103 H 681.29 4.4176 1.85432 0
M  V30 7104 H 679.654 2.30935 1.0743 0
M  V30 7105 H 680.437 3.42895 -0.166707 0
M  V30 7106 O 682.921 -0.266262 1.5929 0
M  V30 7107 H 683.612 -0.91096 1.70942 0
M  V30 END ATOM
M  V30 BEGIN BOND
M  V30 END BOND
M  V30 END CTAB
M  END
$$$$
