drugbank_target|P08758 Annexin A5 (DB00591; DB02497; DB02846; DB02929; DB03484; DB03935; DB03959; DB03981; DB09130)
 OpenBabel12092120473D

  0  0  0     0  0            999 V3000
M  V30 BEGIN CTAB
M  V30 COUNTS 5057 5091 0 0 0
M  V30 BEGIN ATOM
M  V30 1 H -0.908 1.98254 -0.117106 0
M  V30 2 N 0 1.576 0 0
M  V30 3 C 0.933 2.03868 1.02534 0
M  V30 4 C 1.911 0.928543 1.3348 0
M  V30 5 O 3.095 1.19667 1.45644 0
M  V30 6 C 0.222 2.43627 2.35294 0
M  V30 7 C -0.732 3.65373 2.2001 0
M  V30 8 S 0.101 5.13292 1.52614 0
M  V30 9 C 1.257 5.56322 2.86805 0
M  V30 10 H 1.49 2.90518 0.631377 0
M  V30 11 H -0.977 1.52953 0.210867 0
M  V30 12 H 0.981 2.67203 3.11629 0
M  V30 13 H -0.358 1.57376 2.7183 0
M  V30 14 H -1.165 3.90944 3.18086 0
M  V30 15 H -1.563 3.418 1.51819 0
M  V30 16 H 0.729 5.58782 3.83104 0
M  V30 17 H 1.672 6.56266 2.65933 0
M  V30 18 H 2.08 4.83886 2.90714 0
M  V30 19 N 1.4781 -0.272755 1.55222 0
M  V30 20 C 2.4411 -1.32041 1.87344 0
M  V30 21 C 3.4411 -1.42342 0.74803 0
M  V30 22 O 4.6311 -1.41488 1.0162 0
M  V30 23 C 1.7631 -2.70173 2.07893 0
M  V30 24 H 2.9561 -1.04789 2.80997 0
M  V30 25 H 0.5091 -0.51083 1.47717 0
M  V30 26 H 1.2441 -3.02605 1.16622 0
M  V30 27 H 1.0291 -2.64082 2.89833 0
M  V30 28 H 2.5191 -3.45869 2.34017 0
M  V30 29 N 2.9562 -1.48159 -0.537278 0
M  V30 30 C 3.8882 -1.58218 -1.65831 0
M  V30 31 C 4.9012 -0.466948 -1.5596 0
M  V30 32 O 6.0902 -0.73747 -1.62553 0
M  V30 33 C 3.1902 -1.48906 -3.04434 0
M  V30 34 C 2.3632 -2.75343 -3.3986 0
M  V30 35 C 1.4222 -2.59588 -4.57712 0
M  V30 36 O 0.4482 -3.33457 -4.61297 0
M  V30 37 N 1.6502 -1.68724 -5.55439 0
M  V30 38 H 4.4152 -2.54891 -1.57641 0
M  V30 39 H 1.9762 -1.4479 -0.724386 0
M  V30 40 H 3.9682 -1.36072 -3.81139 0
M  V30 41 H 2.5382 -0.602368 -3.06741 0
M  V30 42 H 1.7582 -3.02795 -2.52406 0
M  V30 43 H 3.0462 -3.5924 -3.60311 0
M  V30 44 H 2.4442 -1.07898 -5.55315 0
M  V30 45 H 1.0012 -1.61832 -6.3139 0
M  V30 46 N 4.4343 0.785586 -1.36625 0
M  V30 47 C 5.6803 1.54591 -1.31261 0
M  V30 48 C 6.0133 1.93906 0.106823 0
M  V30 49 O 5.2883 1.63007 1.06108 0
M  V30 50 C 5.5713 2.82038 -2.23889 0
M  V30 51 C 5.4243 2.49066 -3.74548 0
M  V30 52 C 6.7433 3.83887 -2.15217 0
M  V30 53 H 3.8623 0.560846 -0.478143 0
M  V30 54 H 6.5043 0.902278 -1.67209 0
M  V30 55 H 4.6543 3.36961 -1.93363 0
M  V30 56 H 6.3263 2.00164 -4.15611 0
M  V30 57 H 4.5693 1.81954 -3.93796 0
M  V30 58 H 5.2403 3.40109 -4.34776 0
M  V30 59 H 7.7163 3.38421 -2.42096 0
M  V30 60 H 6.5923 4.70806 -2.82193 0
M  V30 61 H 6.8533 4.27131 -1.14068 0
M  V30 62 N 5.9124 1.20967 1.01018 0
M  V30 63 C 6.8424 0.988272 2.11555 0
M  V30 64 C 7.8234 -0.0849778 1.69888 0
M  V30 65 O 9.0084 0.0738202 1.9406 0
M  V30 66 C 6.1384 0.546528 3.42973 0
M  V30 67 C 5.0924 1.56375 3.9841 0
M  V30 68 C 4.4184 0.97842 5.25672 0
M  V30 69 C 5.7184 2.94922 4.31066 0
M  V30 70 H 7.4124 1.91276 2.30334 0
M  V30 71 H 4.9584 0.921073 1.1069 0
M  V30 72 H 6.9114 0.378839 4.19694 0
M  V30 73 H 5.6354 -0.413598 3.23971 0
M  V30 74 H 4.2944 1.71891 3.23804 0
M  V30 75 H 3.9424 0.0101688 5.02999 0
M  V30 76 H 3.6424 1.65784 5.63728 0
M  V30 77 H 5.1664 0.821939 6.05043 0
M  V30 78 H 6.5804 2.8288 4.9865 0
M  V30 79 H 4.9774 3.5983 4.80253 0
M  V30 80 H 6.0474 3.4616 3.39561 0
M  V30 81 N 7.3905 -1.2043 1.01659 0
M  V30 82 C 8.8065 -1.41852 0.731442 0
M  V30 83 C 9.0065 -1.89358 -0.688898 0
M  V30 84 O 8.0625 -2.06247 -1.45666 0
M  V30 85 C 9.3755 -2.44019 1.75714 0
M  V30 86 C 10.9235 -2.57785 1.77527 0
M  V30 87 C 11.3985 -3.63194 2.79023 0
M  V30 88 N 12.8895 -3.70678 2.77763 0
M  V30 89 C 13.6245 -4.51897 3.52954 0
M  V30 90 N 13.1205 -5.36921 4.37821 0
M  V30 91 N 14.9135 -4.4643 3.41551 0
M  V30 92 H 7.0645 -0.879093 1.93354 0
M  V30 93 H 9.3275 -0.448425 0.835236 0
M  V30 94 H 9.0335 -2.1611 2.77469 0
M  V30 95 H 8.9075 -3.43007 1.56927 0
M  V30 96 H 11.2945 -2.85023 0.764569 0
M  V30 97 H 11.3755 -1.58992 2.00387 0
M  V30 98 H 11.0195 -3.36699 3.80258 0
M  V30 99 H 10.9495 -4.61609 2.53425 0
M  V30 100 H 13.4405 -3.09944 2.16201 0
M  V30 101 H 13.7535 -5.95981 4.91962 0
M  V30 102 H 12.0985 -5.36424 4.41899 0
M  V30 103 H 15.2895 -3.79042 2.74672 0
M  V30 104 H 15.4625 -5.09491 4.00404 0
M  V30 105 N 8.8686 -0.792821 -1.36206 0
M  V30 106 C 10.1166 -0.366062 -1.98757 0
M  V30 107 C 10.4376 1.0668 -1.63231 0
M  V30 108 O 9.7076 1.73587 -0.907978 0
M  V30 109 H 8.2876 -0.132364 -0.735179 0
M  V30 110 H 10.9496 -1.01562 -1.66347 0
M  V30 111 H 10.0456 -0.460638 -3.08682 0
M  V30 112 N 10.3467 1.47872 -0.545128 0
M  V30 113 C 11.5747 2.06889 -0.021084 0
M  V30 114 C 11.9897 1.39955 1.2672 0
M  V30 115 O 11.3467 0.492036 1.75742 0
M  V30 116 C 11.3977 3.60996 0.190817 0
M  V30 117 O 11.1187 4.25419 -1.04644 0
M  V30 118 C 12.6197 4.36849 0.753521 0
M  V30 119 H 9.8397 0.669785 -0.0403635 0
M  V30 120 H 12.3837 1.90049 -0.755095 0
M  V30 121 H 10.5387 3.77391 0.87492 0
M  V30 122 H 10.9527 5.17785 -0.836611 0
M  V30 123 H 12.4267 5.45399 0.851139 0
M  V30 124 H 12.9037 4.02306 1.762 0
M  V30 125 H 13.5097 4.25169 0.105503 0
M  V30 126 N 11.8248 0.280983 1.55075 0
M  V30 127 C 13.0708 -0.33461 2.00021 0
M  V30 128 C 13.4038 -1.55063 1.16915 0
M  V30 129 O 12.6788 -1.93006 0.240646 0
M  V30 130 C 12.9618 -0.711007 3.53011 0
M  V30 131 C 12.8148 0.512766 4.46868 0
M  V30 132 C 14.1338 -1.54522 4.12081 0
M  V30 133 H 11.2528 -0.120147 0.727141 0
M  V30 134 H 13.8948 0.389097 1.85973 0
M  V30 135 H 12.0448 -1.32761 3.65112 0
M  V30 136 H 13.7168 1.15131 4.46702 0
M  V30 137 H 11.9598 1.14975 4.18286 0
M  V30 138 H 12.6308 0.205556 5.51617 0
M  V30 139 H 15.1068 -1.02442 4.03293 0
M  V30 140 H 13.9828 -1.77739 5.19327 0
M  V30 141 H 14.2438 -2.52813 3.62682 0
M  V30 142 N 13.3029 -1.57598 0.00835791 0
M  V30 143 C 14.5309 -1.95214 -0.68549 0
M  V30 144 C 14.9459 -0.883706 -1.66841 0
M  V30 145 O 14.3029 0.136565 -1.81988 0
M  V30 146 C 14.3539 -3.32865 -1.41007 0
M  V30 147 O 14.0749 -4.35609 -0.466552 0
M  V30 148 C 15.5759 -3.84991 -2.19765 0
M  V30 149 H 12.7959 -0.643422 -0.190392 0
M  V30 150 H 15.3399 -2.04406 0.0619607 0
M  V30 151 H 13.4949 -3.24956 -2.10908 0
M  V30 152 H 13.9089 -5.15288 -0.978699 0
M  V30 153 H 15.3829 -4.8371 -2.65948 0
M  V30 154 H 15.8599 -3.18137 -3.02796 0
M  V30 155 H 16.4659 -3.96103 -1.54864 0
M  V30 156 N 14.781 0.264519 -1.55364 0
M  V30 157 C 16.058 1.01677 -1.67096 0
M  V30 158 C 16.438 2.03996 -0.543015 0
M  V30 159 O 15.786 2.23907 0.45585 0
M  V30 160 C 15.996 1.66596 -3.0667 0
M  V30 161 C 17.344 2.17442 -3.64697 0
M  V30 162 O 18.368 1.76568 -3.09358 0
M  V30 163 O 17.227 2.92439 -4.61673 0
M  V30 164 H 14.321 0.472161 -0.678965 0
M  V30 165 H 16.867 0.259703 -1.67701 0
M  V30 166 H 15.639 0.924962 -3.80211 0
M  V30 167 H 15.262 2.48968 -3.10001 0
M  V30 168 N 16.2591 1.48442 0.529413 0
M  V30 169 C 17.5061 1.56488 1.28521 0
M  V30 170 C 17.8341 0.239042 1.93025 0
M  V30 171 O 17.0891 -0.770713 1.79885 0
M  V30 172 C 17.3881 2.6523 2.39558 0
M  V30 173 C 17.0541 4.07648 1.92702 0
M  V30 174 C 15.7161 4.46411 1.79641 0
M  V30 175 C 18.0681 4.96896 1.573 0
M  V30 176 C 15.3961 5.72226 1.29514 0
M  V30 177 C 17.7481 6.23202 1.08636 0
M  V30 178 C 16.4121 6.60821 0.941919 0
M  V30 179 H 15.6821 0.572631 0.470292 0
M  V30 180 H 18.3291 1.82161 0.59072 0
M  V30 181 H 16.6341 2.33419 3.14679 0
M  V30 182 H 18.3311 2.68671 2.97686 0
M  V30 183 H 14.9211 3.77036 2.03819 0
M  V30 184 H 19.1051 4.67626 1.66251 0
M  V30 185 H 14.3611 6.00097 1.17019 0
M  V30 186 H 18.5351 6.91753 0.803136 0
M  V30 187 H 16.1621 7.58198 0.5513 0
M  V30 188 N 17.7372 -0.778329 1.37039 0
M  V30 189 C 19.1482 -1.35421 1.28523 0
M  V30 190 C 19.4992 -1.96075 -0.0700901 0
M  V30 191 O 18.6242 -1.93352 -0.971801 0
M  V30 192 C 19.2192 -2.46211 2.32735 0
M  V30 193 C 17.7782 -2.99585 2.27873 0
M  V30 194 C 16.9252 -1.72748 2.16918 0
M  V30 195 H 19.8762 -0.5791 1.47757 0
M  V30 196 H 19.8972 -3.2552 1.9702 0
M  V30 197 H 19.4092 -2.02036 3.31365 0
M  V30 198 H 17.5102 -3.48152 1.32745 0
M  V30 199 H 17.6232 -3.55646 3.21018 0
M  V30 200 H 15.9872 -1.95416 1.63354 0
M  V30 201 H 16.7702 -1.30686 3.17452 0
M  V30 202 N 19.2153 -1.21501 -1.00376 0
M  V30 203 C 20.4633 -1.03095 -1.73827 0
M  V30 204 C 20.7843 0.436341 -1.90055 0
M  V30 205 O 20.0543 1.31466 -1.45236 0
M  V30 206 H 18.6343 -0.378487 -0.644016 0
M  V30 207 H 21.2963 -1.52831 -1.20949 0
M  V30 208 H 20.3923 -1.49991 -2.73695 0
M  V30 209 N 20.6934 1.19889 -1.02296 0
M  V30 210 C 21.9404 1.8942 -0.715972 0
M  V30 211 C 22.2684 1.79251 0.754944 0
M  V30 212 O 21.5234 1.17526 1.56481 0
M  V30 213 C 21.8224 3.39883 -1.10518 0
M  V30 214 C 21.4884 3.70254 -2.57337 0
M  V30 215 C 20.1504 3.78254 -2.97452 0
M  V30 216 C 22.5024 3.84052 -3.52354 0
M  V30 217 C 19.8304 3.97514 -4.31509 0
M  V30 218 C 22.1824 4.04824 -4.86108 0
M  V30 219 C 20.8464 4.11054 -5.25919 0
M  V30 220 H 20.1164 0.693138 -0.261993 0
M  V30 221 H 22.7634 1.42012 -1.28472 0
M  V30 222 H 21.0684 3.8915 -0.454953 0
M  V30 223 H 22.7654 3.9199 -0.845261 0
M  V30 224 H 19.3554 3.64632 -2.25258 0
M  V30 225 H 23.5394 3.77221 -3.22518 0
M  V30 226 H 18.7954 4.00574 -4.61898 0
M  V30 227 H 22.9694 4.14442 -5.59653 0
M  V30 228 H 20.5964 4.2573 -6.29808 0
M  V30 229 N 22.1715 0.800033 1.35784 0
M  V30 230 C 23.4485 0.30088 1.93272 0
M  V30 231 C 23.8285 -1.20857 1.73081 0
M  V30 232 O 23.1765 -2.00502 1.09596 0
M  V30 233 C 23.3865 0.70511 3.41803 0
M  V30 234 C 24.7345 0.690871 4.18942 0
M  V30 235 O 25.7585 0.646244 3.50289 0
M  V30 236 O 24.6175 0.74332 5.41421 0
M  V30 237 H 21.7115 0.0771605 0.823393 0
M  V30 238 H 24.2575 0.88329 1.449 0
M  V30 239 H 23.0295 1.74571 3.50201 0
M  V30 240 H 22.6525 0.0971541 3.97481 0
M  V30 241 N 23.6496 -1.47581 0.552962 0
M  V30 242 C 24.5596 -2.33743 -0.200353 0
M  V30 243 C 25.5756 -1.47928 -0.916151 0
M  V30 244 O 26.7516 -1.80865 -0.885993 0
M  V30 245 C 23.8166 -3.24536 -1.21973 0
M  V30 246 C 22.8776 -4.26238 -0.511819 0
M  V30 247 C 22.1106 -5.12693 -1.48263 0
M  V30 248 O 22.3336 -5.01525 -2.71714 0
M  V30 249 O 21.2676 -5.93375 -1.00945 0
M  V30 250 H 25.0936 -2.9945 0.506304 0
M  V30 251 H 22.6786 -1.46071 0.313622 0
M  V30 252 H 24.5606 -3.80631 -1.80827 0
M  V30 253 H 23.2356 -2.61462 -1.90839 0
M  V30 254 H 22.1426 -3.73914 0.117799 0
M  V30 255 H 23.4756 -4.92014 0.135308 0
M  V30 256 N 25.1277 -0.289203 -1.54924 0
M  V30 257 C 26.5437 0.0645403 -1.59469 0
M  V30 258 C 26.7437 1.53419 -1.30632 0
M  V30 259 O 25.7997 2.2852 -1.074 0
M  V30 260 C 27.1127 -0.32278 -2.98963 0
M  V30 261 C 28.6607 -0.270564 -3.11828 0
M  V30 262 C 29.1357 -0.632532 -4.53611 0
M  V30 263 N 30.6267 -0.584617 -4.59496 0
M  V30 264 C 31.3617 -0.837314 -5.67254 0
M  V30 265 N 30.8577 -1.15536 -6.83098 0
M  V30 266 N 32.6507 -0.765166 -5.56868 0
M  V30 267 H 24.8017 -1.24714 -1.71931 0
M  V30 268 H 27.0647 -0.504809 -0.802416 0
M  V30 269 H 26.7707 -1.34541 -3.24948 0
M  V30 270 H 26.6447 0.32944 -3.75759 0
M  V30 271 H 29.0317 0.742805 -2.85598 0
M  V30 272 H 29.1127 -0.957242 -2.37214 0
M  V30 273 H 28.7567 -1.64365 -4.80569 0
M  V30 274 H 28.6867 0.07609 -5.26545 0
M  V30 275 H 31.1777 -0.349248 -3.76283 0
M  V30 276 H 31.4907 -1.33447 -7.61191 0
M  V30 277 H 29.8357 -1.19328 -6.84679 0
M  V30 278 H 33.0267 -0.516432 -4.65243 0
M  V30 279 H 33.1997 -0.965477 -6.40767 0
M  V30 280 N 26.6058 1.57591 -0.0167156 0
M  V30 281 C 27.5688 2.08393 0.954204 0
M  V30 282 C 28.5688 0.996531 1.26198 0
M  V30 283 O 29.7588 1.25858 1.20438 0
M  V30 284 C 26.8908 2.5394 2.27436 0
M  V30 285 H 28.0838 2.95455 0.514451 0
M  V30 286 H 25.6368 1.54582 0.231089 0
M  V30 287 H 26.3718 1.70171 2.76066 0
M  V30 288 H 26.1568 3.33371 2.06412 0
M  V30 289 H 27.6468 2.93512 2.97053 0
M  V30 290 N 28.0839 -0.256276 1.55502 0
M  V30 291 C 29.3609 -1.00789 1.67633 0
M  V30 292 C 29.7409 -2.03706 0.553826 0
M  V30 293 O 29.0889 -2.24145 -0.443969 0
M  V30 294 C 29.2989 -1.64968 3.07549 0
M  V30 295 C 30.6469 -2.15505 3.65845 0
M  V30 296 O 31.6709 -1.74925 3.1029 0
M  V30 297 O 30.5299 -2.89986 4.63217 0
M  V30 298 H 27.6239 -0.468553 0.681459 0
M  V30 299 H 30.1699 -0.250806 1.67836 0
M  V30 300 H 28.9419 -0.904785 3.80696 0
M  V30 301 H 28.5649 -2.47321 3.11317 0
M  V30 302 N 29.562 -1.4872 -0.521534 0
M  V30 303 C 30.525 -1.63379 -1.60748 0
M  V30 304 C 31.525 -0.50661 -1.52611 0
M  V30 305 O 32.715 -0.772601 -1.5613 0
M  V30 306 C 29.847 -1.61192 -3.00383 0
M  V30 307 H 31.04 -2.60217 -1.49087 0
M  V30 308 H 28.593 -1.37444 -0.744235 0
M  V30 309 H 29.328 -0.65863 -3.17541 0
M  V30 310 H 29.113 -2.43032 -3.07698 0
M  V30 311 H 30.603 -1.7466 -3.7932 0
M  V30 312 N 31.0401 0.771051 -1.3745 0
M  V30 313 C 31.9501 1.91538 -1.35464 0
M  V30 314 C 32.9661 1.72134 -0.254123 0
M  V30 315 O 34.1421 1.95358 -0.489626 0
M  V30 316 C 31.2071 3.26671 -1.16134 0
M  V30 317 C 30.2681 3.58723 -2.35831 0
M  V30 318 C 29.5011 4.87409 -2.17413 0
M  V30 319 O 29.7241 5.58506 -1.15876 0
M  V30 320 O 28.6581 5.18539 -3.05615 0
M  V30 321 H 32.4841 1.96165 -2.31847 0
M  V30 322 H 30.0691 0.9139 -1.18187 0
M  V30 323 H 31.9511 4.07499 -1.07345 0
M  V30 324 H 30.6261 3.22894 -0.228251 0
M  V30 325 H 29.5331 2.78127 -2.50192 0
M  V30 326 H 30.8661 3.67243 -3.27709 0
M  V30 327 N 32.5182 1.22032 0.997298 0
M  V30 328 C 33.7462 1.06841 1.7718 0
M  V30 329 C 34.1612 -0.381325 1.84909 0
M  V30 330 O 33.5182 -1.26437 1.31605 0
M  V30 331 C 33.5692 1.66814 3.20711 0
M  V30 332 O 33.2902 3.06116 3.13408 0
M  V30 333 C 34.7912 1.56838 4.14628 0
M  V30 334 H 32.0112 0.374782 0.556578 0
M  V30 335 H 34.5552 1.61532 1.2541 0
M  V30 336 H 32.7102 1.16196 3.69564 0
M  V30 337 H 33.1242 3.34926 4.0364 0
M  V30 338 H 34.5982 2.03532 5.13107 0
M  V30 339 H 35.0752 0.524155 4.36061 0
M  V30 340 H 35.6812 2.06741 3.7167 0
M  V30 341 N 33.9963 -1.19345 1.0293 0
M  V30 342 C 34.9263 -2.2481 0.631105 0
M  V30 343 C 35.9073 -1.66245 -0.360104 0
M  V30 344 O 37.0923 -1.92677 -0.242726 0
M  V30 345 C 34.2223 -3.47295 -0.0184607 0
M  V30 346 C 33.1763 -4.18536 0.895073 0
M  V30 347 C 32.5023 -5.34586 0.110592 0
M  V30 348 C 33.8023 -4.73287 2.209 0
M  V30 349 H 35.4963 -2.58372 1.51275 0
M  V30 350 H 33.0423 -1.24194 0.728818 0
M  V30 351 H 34.9953 -4.20268 -0.308675 0
M  V30 352 H 33.7193 -3.12933 -0.934907 0
M  V30 353 H 32.3783 -3.47446 1.16949 0
M  V30 354 H 32.0263 -4.96469 -0.807902 0
M  V30 355 H 31.7263 -5.83183 0.719087 0
M  V30 356 H 33.2503 -6.10355 -0.172871 0
M  V30 357 H 34.6643 -5.38013 1.98028 0
M  V30 358 H 33.0613 -5.32373 2.76946 0
M  V30 359 H 34.1313 -3.91331 2.86336 0
M  V30 360 N 35.4744 -0.807222 -1.35358 0
M  V30 361 C 36.8904 -0.491038 -1.51858 0
M  V30 362 C 37.0904 0.987648 -1.75635 0
M  V30 363 O 36.1464 1.77265 -1.79815 0
M  V30 364 C 37.4594 -1.33695 -2.69344 0
M  V30 365 C 39.0074 -1.33246 -2.83222 0
M  V30 366 C 39.4824 -2.1625 -4.03733 0
M  V30 367 N 40.9734 -2.1379 -4.10911 0
M  V30 368 C 41.7084 -2.74772 -5.03277 0
M  V30 369 N 41.2044 -3.44684 -6.0097 0
M  V30 370 N 42.9974 -2.6441 -4.96028 0
M  V30 371 H 35.1484 -1.76485 -1.18181 0
M  V30 372 H 37.4114 -0.751199 -0.578276 0
M  V30 373 H 37.1174 -2.38634 -2.58354 0
M  V30 374 H 36.9914 -0.990618 -3.6396 0
M  V30 375 H 39.3784 -0.290911 -2.93663 0
M  V30 376 H 39.4594 -1.71866 -1.89461 0
M  V30 377 H 39.1034 -3.20445 -3.94052 0
M  V30 378 H 39.0334 -1.74989 -4.96675 0
M  V30 379 H 41.5244 -1.62923 -3.40976 0
M  V30 380 H 41.8374 -3.88501 -6.68047 0
M  V30 381 H 40.1824 -3.48788 -6.01142 0
M  V30 382 H 43.3734 -2.0938 -4.18662 0
M  V30 383 H 43.5464 -3.12225 -5.6782 0
M  V30 384 N 36.9525 1.47285 -0.560781 0
M  V30 385 C 37.8995 2.30058 0.18491 0
M  V30 386 C 38.8695 1.39281 0.904986 0
M  V30 387 O 40.0545 1.68241 0.899979 0
M  V30 388 C 37.1945 3.23317 1.20666 0
M  V30 389 C 36.3075 4.29186 0.492285 0
M  V30 390 C 35.4425 5.09592 1.49964 0
M  V30 391 C 34.4815 6.07232 0.770439 0
M  V30 392 N 33.6185 6.80584 1.72479 0
M  V30 393 H 38.4585 2.93302 -0.527048 0
M  V30 394 H 35.9955 1.44568 -0.271738 0
M  V30 395 H 37.9535 3.75811 1.81168 0
M  V30 396 H 36.5835 2.61929 1.88661 0
M  V30 397 H 35.6355 3.7972 -0.227333 0
M  V30 398 H 36.9475 4.98738 -0.0787929 0
M  V30 399 H 36.1015 5.66254 2.17809 0
M  V30 400 H 34.8405 4.3995 2.10464 0
M  V30 401 H 33.8455 5.49745 0.0780846 0
M  V30 402 H 35.0705 6.78884 0.171134 0
M  V30 403 H 33.0165 6.1367 2.3183 0
M  V30 404 H 32.9335 7.46319 1.20596 0
M  V30 405 H 34.2015 7.41818 2.39428 0
M  V30 406 N 38.4306 0.297415 1.54768 0
M  V30 407 C 39.3936 -0.567375 2.22066 0
M  V30 408 C 40.3936 -1.06409 1.20556 0
M  V30 409 O 41.5836 -0.960691 1.45315 0
M  V30 410 C 38.7156 -1.78517 2.90421 0
M  V30 411 H 39.9086 0.0205534 2.99893 0
M  V30 412 H 37.4616 0.0482163 1.56226 0
M  V30 413 H 38.1966 -2.41303 2.16664 0
M  V30 414 H 37.9816 -1.43669 3.64831 0
M  V30 415 H 39.4716 -2.39964 3.41771 0
M  V30 416 N 39.9087 -1.5758 0.0250728 0
M  V30 417 C 40.8417 -2.05473 -0.992777 0
M  V30 418 C 41.8197 -0.949661 -1.31986 0
M  V30 419 O 43.0037 -1.21969 -1.43722 0
M  V30 420 C 40.1307 -2.4734 -2.31389 0
M  V30 421 C 39.1767 -3.68827 -2.1417 0
M  V30 422 S 40.0097 -5.15655 -1.44429 0
M  V30 423 C 41.1657 -5.60814 -2.77918 0
M  V30 424 H 41.3987 -2.91486 -0.585078 0
M  V30 425 H 38.9317 -1.53269 -0.186507 0
M  V30 426 H 40.8897 -2.72127 -3.07339 0
M  V30 427 H 39.5507 -1.6168 -2.69292 0
M  V30 428 H 38.7437 -3.95955 -3.11826 0
M  V30 429 H 38.3457 -3.44172 -1.46362 0
M  V30 430 H 40.6377 -5.64806 -3.74166 0
M  V30 431 H 41.5807 -6.60414 -2.55459 0
M  V30 432 H 41.9887 -4.8845 -2.82979 0
M  V30 433 N 41.3868 0.248026 -1.55636 0
M  V30 434 C 42.3338 1.30707 -1.90222 0
M  V30 435 C 43.3038 1.47881 -0.756332 0
M  V30 436 O 44.4888 1.61883 -1.00988 0
M  V30 437 C 41.6288 2.65769 -2.20138 0
M  V30 438 C 40.7418 2.56612 -3.47526 0
M  V30 439 C 39.8768 3.8402 -3.67017 0
M  V30 440 C 38.9158 3.69476 -4.8801 0
M  V30 441 N 38.0528 4.88774 -5.04029 0
M  V30 442 H 42.8928 1.00512 -2.80538 0
M  V30 443 H 40.4298 0.485055 -1.38873 0
M  V30 444 H 42.3878 3.44386 -2.35487 0
M  V30 445 H 41.0178 2.94115 -1.33027 0
M  V30 446 H 40.0698 1.69571 -3.40514 0
M  V30 447 H 41.3818 2.41774 -4.36287 0
M  V30 448 H 40.5358 4.7108 -3.8232 0
M  V30 449 H 39.2748 4.01754 -2.76487 0
M  V30 450 H 38.2798 2.80799 -4.72686 0
M  V30 451 H 39.5048 3.53238 -5.8 0
M  V30 452 H 37.4508 5.0687 -4.16435 0
M  V30 453 H 37.3678 4.76562 -5.86877 0
M  V30 454 H 38.6358 5.77335 -5.23741 0
M  V30 455 N 42.8649 1.48995 0.513639 0
M  V30 456 C 44.1129 1.57531 1.26604 0
M  V30 457 C 44.4339 0.258236 1.93283 0
M  V30 458 O 43.7039 -0.721502 1.8213 0
M  V30 459 H 42.2839 0.580387 0.470276 0
M  V30 460 H 44.9459 1.85552 0.596373 0
M  V30 461 H 44.0419 2.36486 2.03669 0
M  V30 462 N 44.343 -0.763751 1.37857 0
M  V30 463 C 45.273 -1.89103 1.36975 0
M  V30 464 C 46.254 -1.68439 0.237152 0
M  V30 465 O 47.439 -1.8918 0.438713 0
M  V30 466 C 44.569 -3.26496 1.18395 0
M  V30 467 C 43.523 -3.61741 2.28751 0
M  V30 468 C 42.849 -4.97762 1.95286 0
M  V30 469 C 44.149 -3.67665 3.70972 0
M  V30 470 H 45.843 -1.90099 2.31307 0
M  V30 471 H 43.389 -0.91319 1.11341 0
M  V30 472 H 45.342 -4.05003 1.16406 0
M  V30 473 H 44.066 -3.25955 0.205215 0
M  V30 474 H 42.725 -2.85547 2.29909 0
M  V30 475 H 42.373 -4.93769 0.959221 0
M  V30 476 H 42.073 -5.22313 2.69189 0
M  V30 477 H 43.597 -5.7866 1.94898 0
M  V30 478 H 45.011 -4.36307 3.719 0
M  V30 479 H 43.408 -4.03718 4.43995 0
M  V30 480 H 44.478 -2.68134 4.0402 0
M  V30 481 N 45.8211 -1.22559 -0.990812 0
M  V30 482 C 47.0691 -1.04933 -1.72724 0
M  V30 483 C 47.3901 0.416158 -1.90508 0
M  V30 484 O 46.6601 1.29918 -1.46622 0
M  V30 485 H 45.2401 -0.385296 -0.639965 0
M  V30 486 H 47.9021 -1.54105 -1.19322 0
M  V30 487 H 46.9981 -1.52886 -2.72089 0
M  V30 488 N 47.2992 1.18797 -1.03562 0
M  V30 489 C 48.5272 1.92599 -0.755869 0
M  V30 490 C 48.9422 1.75886 0.686271 0
M  V30 491 O 48.2992 1.08517 1.46732 0
M  V30 492 C 48.3502 3.44159 -1.10619 0
M  V30 493 O 48.0712 3.60341 -2.4917 0
M  V30 494 C 49.5722 4.3507 -0.850214 0
M  V30 495 H 46.7922 0.611587 -0.276048 0
M  V30 496 H 49.3362 1.50742 -1.38192 0
M  V30 497 H 47.4912 3.83823 -0.525194 0
M  V30 498 H 47.9052 4.54128 -2.62427 0
M  V30 499 H 49.3792 5.39989 -1.14523 0
M  V30 500 H 49.8562 4.38673 0.215176 0
M  V30 501 H 50.4622 4.01097 -1.41426 0
M  V30 502 N 48.7773 0.814389 1.34928 0
M  V30 503 C 50.0543 0.321363 1.92942 0
M  V30 504 C 50.4343 -1.19014 1.74353 0
M  V30 505 O 49.7823 -1.99328 1.11716 0
M  V30 506 C 49.9923 0.741323 3.41036 0
M  V30 507 C 51.3403 0.735266 4.18185 0
M  V30 508 O 52.3643 0.68336 3.49584 0
M  V30 509 O 51.2233 0.800703 5.40602 0
M  V30 510 H 48.3173 0.0858893 0.822528 0
M  V30 511 H 50.8633 0.898609 1.43955 0
M  V30 512 H 49.6353 1.78276 3.4833 0
M  V30 513 H 49.2583 0.139307 3.97356 0
M  V30 514 N 50.2554 -1.46986 0.568584 0
M  V30 515 C 51.1654 -2.33942 -0.17555 0
M  V30 516 C 52.1814 -1.48891 -0.90041 0
M  V30 517 O 53.3574 -1.81794 -0.86676 0
M  V30 518 C 50.4224 -3.25811 -1.18524 0
M  V30 519 C 49.4834 -4.26757 -0.466582 0
M  V30 520 C 48.7164 -5.14236 -1.42817 0
M  V30 521 O 48.9394 -5.04379 -2.66379 0
M  V30 522 O 47.8734 -5.94412 -0.946453 0
M  V30 523 H 51.6994 -2.98896 0.538036 0
M  V30 524 H 49.2844 -1.4573 0.329097 0
M  V30 525 H 51.1664 -3.82527 -1.76779 0
M  V30 526 H 49.8414 -2.63471 -1.88055 0
M  V30 527 H 48.7484 -3.73769 0.157451 0
M  V30 528 H 50.0814 -4.91843 0.187485 0
M  V30 529 N 51.7335 -0.305618 -1.54608 0
M  V30 530 C 52.6435 0.57778 -2.27374 0
M  V30 531 C 53.6595 1.14451 -1.31061 0
M  V30 532 O 54.8355 1.16831 -1.6405 0
M  V30 533 C 51.9005 1.73123 -3.00382 0
M  V30 534 C 50.9615 1.19812 -4.12242 0
M  V30 535 C 50.1945 2.2966 -4.81759 0
M  V30 536 O 50.4175 3.49651 -4.50666 0
M  V30 537 O 49.3515 1.96091 -5.69062 0
M  V30 538 H 53.1775 -0.012624 -3.03697 0
M  V30 539 H 50.7625 -0.0719184 -1.49227 0
M  V30 540 H 52.6445 2.40315 -3.4616 0
M  V30 541 H 51.3195 2.30815 -2.26949 0
M  V30 542 H 50.2265 0.491798 -3.70853 0
M  V30 543 H 51.5595 0.666566 -4.87666 0
M  V30 544 N 53.2116 1.57565 -0.0334293 0
M  V30 545 C 54.4366 1.96689 0.657895 0
M  V30 546 C 54.8616 0.910057 1.64619 0
M  V30 547 O 54.2196 -0.128598 1.80843 0
M  V30 548 C 54.2676 3.34905 1.33683 0
M  V30 549 O 53.3716 3.31574 2.45219 0
M  V30 550 H 52.7126 0.641205 0.172489 0
M  V30 551 H 55.2426 2.04372 -0.0965621 0
M  V30 552 H 55.2526 3.71234 1.69262 0
M  V30 553 H 53.9276 4.11366 0.612411 0
M  V30 554 H 52.5046 3.06968 2.11719 0
M  V30 555 N 54.6897 -0.239769 1.55765 0
M  V30 556 C 55.9387 -0.964754 1.77131 0
M  V30 557 C 56.2517 -1.86213 0.59868 0
M  V30 558 O 57.4577 -2.6244 0.695522 0
M  V30 559 C 55.9137 -1.76552 3.1362 0
M  V30 560 C 55.5217 -0.915185 4.38553 0
M  V30 561 C 57.2657 -2.48281 3.44321 0
M  V30 562 C 55.1727 -1.71225 5.66071 0
M  V30 563 H 54.1027 -0.363953 0.660344 0
M  V30 564 H 56.7537 -0.219181 1.82186 0
M  V30 565 H 55.1357 -2.55331 3.02691 0
M  V30 566 H 56.3097 -0.169217 4.60489 0
M  V30 567 H 54.6247 -0.310889 4.15238 0
M  V30 568 H 57.2217 -3.08382 4.36812 0
M  V30 569 H 57.5647 -3.20256 2.65973 0
M  V30 570 H 58.0977 -1.76507 3.56497 0
M  V30 571 H 54.8367 -1.03612 6.4726 0
M  V30 572 H 54.3567 -2.43331 5.48224 0
M  V30 573 H 56.0357 -2.27758 6.05587 0
M  V30 574 N 56.1678 -1.49265 -0.50573 0
M  V30 575 C 57.0978 -1.68495 -1.61653 0
M  V30 576 C 58.0788 -0.53366 -1.61512 0
M  V30 577 O 59.2638 -0.76897 -1.78327 0
M  V30 578 C 56.3938 -1.74709 -3.00157 0
M  V30 579 C 55.3478 -2.89581 -3.15162 0
M  V30 580 C 54.6738 -2.80903 -4.5497 0
M  V30 581 C 55.9738 -4.30578 -2.95634 0
M  V30 582 H 57.6678 -2.61493 -1.45814 0
M  V30 583 H 55.2138 -1.25838 -0.70005 0
M  V30 584 H 57.1668 -1.86748 -3.77761 0
M  V30 585 H 55.8908 -0.783067 -3.17074 0
M  V30 586 H 54.5498 -2.77136 -2.39982 0
M  V30 587 H 54.1978 -1.82419 -4.68756 0
M  V30 588 H 53.8978 -3.57999 -4.65951 0
M  V30 589 H 55.4218 -2.94944 -5.34641 0
M  V30 590 H 56.8358 -4.4373 -3.63011 0
M  V30 591 H 55.2328 -5.0886 -3.18091 0
M  V30 592 H 56.3028 -4.45352 -1.91806 0
M  V30 593 N 57.6459 0.756429 -1.3826 0
M  V30 594 C 58.8739 1.54565 -1.3754 0
M  V30 595 C 59.2889 1.88767 0.0355331 0
M  V30 596 O 58.6459 1.52572 1.0014 0
M  V30 597 C 58.6969 2.84654 -2.22833 0
M  V30 598 O 58.4179 2.51912 -3.5843 0
M  V30 599 C 59.9189 3.78807 -2.30261 0
M  V30 600 H 57.1389 0.478353 -0.470553 0
M  V30 601 H 59.6829 0.936381 -1.81803 0
M  V30 602 H 57.8379 3.41965 -1.8204 0
M  V30 603 H 58.2519 3.35325 -4.03308 0
M  V30 604 H 59.7259 4.67045 -2.94233 0
M  V30 605 H 60.2029 4.19038 -1.31545 0
M  V30 606 H 60.8089 3.2742 -2.71433 0
M  V30 607 N 59.124 1.23083 0.984299 0
M  V30 608 C 60.054 1.03292 2.09411 0
M  V30 609 C 61.035 -0.048923 1.7003 0
M  V30 610 O 62.22 0.114967 1.93859 0
M  V30 611 C 59.35 0.619155 3.41736 0
M  V30 612 C 58.304 1.64791 3.95004 0
M  V30 613 C 57.63 1.0897 5.23478 0
M  V30 614 C 58.93 3.03999 4.24714 0
M  V30 615 H 60.624 1.96119 2.26225 0
M  V30 616 H 58.17 0.944344 1.08711 0
M  V30 617 H 60.123 0.467777 4.18796 0
M  V30 618 H 58.847 -0.344786 3.24775 0
M  V30 619 H 57.506 1.78721 3.20085 0
M  V30 620 H 57.154 0.11686 5.02864 0
M  V30 621 H 56.854 1.77704 5.60085 0
M  V30 622 H 58.378 0.950093 6.03163 0
M  V30 623 H 59.792 2.93393 4.92538 0
M  V30 624 H 58.189 3.69936 4.72512 0
M  V30 625 H 59.259 3.53285 3.32142 0
M  V30 626 N 60.6021 -1.18246 1.0419 0
M  V30 627 C 61.5321 -2.24127 0.654914 0
M  V30 628 C 62.5131 -1.66617 -0.342451 0
M  V30 629 O 63.6981 -1.92924 -0.222277 0
M  V30 630 C 60.8281 -3.47295 0.0183757 0
M  V30 631 C 59.7821 -4.17563 0.939414 0
M  V30 632 C 59.1081 -5.34438 0.167286 0
M  V30 633 C 60.4081 -4.70917 2.25908 0
M  V30 634 H 62.1021 -2.56753 1.54007 0
M  V30 635 H 59.6481 -1.23414 0.74195 0
M  V30 636 H 61.6011 -4.20572 -0.264082 0
M  V30 637 H 60.3251 -3.13907 -0.901664 0
M  V30 638 H 58.9841 -3.46186 1.20628 0
M  V30 639 H 58.6321 -4.97298 -0.7552 0
M  V30 640 H 58.3321 -5.82388 0.780901 0
M  V30 641 H 59.8561 -6.10504 -0.108125 0
M  V30 642 H 61.2701 -5.35882 2.03724 0
M  V30 643 H 59.6671 -5.29406 2.82577 0
M  V30 644 H 60.7371 -3.88272 2.9047 0
M  V30 645 N 62.0802 -0.821533 -1.34494 0
M  V30 646 C 63.3082 -0.421884 -2.02553 0
M  V30 647 C 63.7232 0.971745 -1.61872 0
M  V30 648 O 63.0802 1.62864 -0.823496 0
M  V30 649 C 63.1312 -0.51285 -3.57844 0
M  V30 650 O 62.8522 -1.85155 -3.97051 0
M  V30 651 C 64.3532 -0.107921 -4.43169 0
M  V30 652 H 61.5732 -0.169482 -0.649243 0
M  V30 653 H 64.1172 -1.1093 -1.71798 0
M  V30 654 H 62.2722 0.126474 -3.87193 0
M  V30 655 H 62.6862 -1.82482 -4.91732 0
M  V30 656 H 64.1602 -0.222657 -5.51551 0
M  V30 657 H 64.6372 0.948401 -4.28838 0
M  V30 658 H 65.2432 -0.720989 -4.19144 0
M  V30 659 N 63.5583 1.46682 -0.576371 0
M  V30 660 C 64.7833 2.07304 -0.0630475 0
M  V30 661 C 65.2083 1.42329 1.2298 0
M  V30 662 O 64.5663 0.504865 1.74129 0
M  V30 663 C 64.6143 3.60472 0.095895 0
M  V30 664 O 63.7183 3.95927 1.15394 0
M  V30 665 H 63.0593 0.661288 -0.0599463 0
M  V30 666 H 65.5893 1.88417 -0.797511 0
M  V30 667 H 65.5993 4.06865 0.304071 0
M  V30 668 H 64.2743 4.07157 -0.84828 0
M  V30 669 H 62.8513 3.61252 0.924724 0
M  V30 670 N 65.0364 0.313813 1.54444 0
M  V30 671 C 66.4524 -0.0391619 1.59552 0
M  V30 672 C 66.6524 -1.51322 1.33056 0
M  V30 673 O 65.7084 -2.26782 1.11022 0
M  V30 674 C 67.0214 0.370302 2.98411 0
M  V30 675 C 68.5694 0.320139 3.11358 0
M  V30 676 C 69.0444 0.704617 4.52547 0
M  V30 677 N 70.5354 0.657645 4.58508 0
M  V30 678 C 71.2704 0.927453 5.6585 0
M  V30 679 N 70.7664 1.26389 6.81174 0
M  V30 680 N 72.5594 0.853662 5.5558 0
M  V30 681 H 64.7104 1.27433 1.69925 0
M  V30 682 H 66.9734 0.517511 0.794284 0
M  V30 683 H 66.6794 1.39694 3.22767 0
M  V30 684 H 66.5534 -0.269619 3.76235 0
M  V30 685 H 68.9404 -0.697275 2.86744 0
M  V30 686 H 69.0214 0.99486 2.35661 0
M  V30 687 H 68.6654 1.7199 4.77893 0
M  V30 688 H 68.5954 0.00768843 5.26599 0
M  V30 689 H 71.0864 0.409067 3.75679 0
M  V30 690 H 71.3994 1.4554 7.58972 0
M  V30 691 H 69.7444 1.30206 6.82694 0
M  V30 692 H 72.9354 0.590383 4.64362 0
M  V30 693 H 73.1084 1.0673 6.3915 0
M  V30 694 N 66.5145 -1.57545 0.0417849 0
M  V30 695 C 67.7395 -1.97035 -0.647455 0
M  V30 696 C 68.1645 -0.918775 -1.64135 0
M  V30 697 O 67.5225 0.119006 -1.80909 0
M  V30 698 C 67.5705 -3.35609 -1.31905 0
M  V30 699 O 66.6745 -3.3287 -2.43457 0
M  V30 700 H 66.0155 -0.64211 -0.169086 0
M  V30 701 H 68.5455 -2.04318 0.107399 0
M  V30 702 H 68.5555 -3.72126 -1.67291 0
M  V30 703 H 67.2305 -4.11685 -0.590586 0
M  V30 704 H 65.8075 -3.08087 -2.10088 0
M  V30 705 N 67.9926 0.231505 -1.5589 0
M  V30 706 C 68.9406 1.30649 -1.92441 0
M  V30 707 C 69.9346 1.49037 -0.805254 0
M  V30 708 O 71.1406 1.50329 -0.990007 0
M  V30 709 H 67.5156 0.437812 -0.611412 0
M  V30 710 H 69.4866 0.970973 -2.82161 0
M  V30 711 C 68.2356 2.65179 -2.24889 0
M  V30 712 H 67.5586 2.51835 -3.10514 0
M  V30 713 H 68.9986 3.39234 -2.54355 0
M  V30 714 C 67.4576 3.19439 -1.07054 0
M  V30 715 O 67.9876 4.00371 -0.326499 0
M  V30 716 N 66.1936 2.77675 -0.85703 0
M  V30 717 H 65.7406 2.11969 -1.46379 0
M  V30 718 H 65.6986 3.14321 -0.0703223 0
M  V30 719 N 69.4707 1.49531 0.497807 0
M  V30 720 C 70.4337 1.65916 1.58128 0
M  V30 721 C 71.4337 0.530825 1.51786 0
M  V30 722 O 72.6237 0.797342 1.54881 0
M  V30 723 C 69.7557 1.65951 2.9778 0
M  V30 724 H 70.9487 2.62556 1.44929 0
M  V30 725 H 68.5017 1.38611 0.722275 0
M  V30 726 H 69.2367 0.709065 3.16453 0
M  V30 727 H 69.0217 2.47897 3.03792 0
M  V30 728 H 70.5117 1.80673 3.76493 0
M  V30 729 N 70.9488 -0.749086 1.3866 0
M  V30 730 C 71.8808 -1.87273 1.32142 0
M  V30 731 C 72.8938 -1.61127 0.232787 0
M  V30 732 O 74.0828 -1.71623 0.49069 0
M  V30 733 C 71.1828 -3.23005 1.02571 0
M  V30 734 C 70.3558 -3.7662 2.22433 0
M  V30 735 C 69.4148 -4.90879 1.89537 0
M  V30 736 O 68.4408 -5.05276 2.62078 0
M  V30 737 N 69.6428 -5.74198 0.853031 0
M  V30 738 H 72.4078 -1.93373 2.28969 0
M  V30 739 H 69.9688 -0.929216 1.32579 0
M  V30 740 H 71.9608 -3.96992 0.786085 0
M  V30 741 H 70.5308 -3.12262 0.145249 0
M  V30 742 H 69.7508 -2.94147 2.62434 0
M  V30 743 H 71.0388 -4.09173 3.02415 0
M  V30 744 H 70.4368 -5.6514 0.25155 0
M  V30 745 H 68.9938 -6.48313 0.67329 0
M  V30 746 N 72.4269 -1.23603 -0.977757 0
M  V30 747 C 73.8429 -0.999251 -1.24447 0
M  V30 748 C 74.0429 0.298053 -1.99283 0
M  V30 749 O 73.0989 1.01681 -2.31122 0
M  V30 750 C 74.4119 -2.20784 -2.04144 0
M  V30 751 C 75.9599 -2.25303 -2.17273 0
M  V30 752 C 76.4349 -3.45755 -3.00362 0
M  V30 753 N 77.9259 -3.4601 -3.07947 0
M  V30 754 C 78.6609 -4.35868 -3.72568 0
M  V30 755 N 78.1569 -5.35966 -4.38991 0
M  V30 756 N 79.9499 -4.23605 -3.6948 0
M  V30 757 H 72.1009 -2.06986 -0.476483 0
M  V30 758 H 74.3639 -0.907801 -0.273134 0
M  V30 759 H 74.0699 -3.14945 -1.56533 0
M  V30 760 H 73.9439 -2.22085 -3.04891 0
M  V30 761 H 76.3309 -1.3168 -2.64092 0
M  V30 762 H 76.4119 -2.28033 -1.15907 0
M  V30 763 H 76.0559 -4.39687 -2.5424 0
M  V30 764 H 75.9859 -3.40266 -4.01904 0
M  V30 765 H 78.4769 -2.73588 -2.60688 0
M  V30 766 H 78.7899 -6.00783 -4.86086 0
M  V30 767 H 77.1349 -5.39863 -4.37691 0
M  V30 768 H 80.3259 -3.44647 -3.16759 0
M  V30 769 H 80.4989 -4.93836 -4.1956 0
M  V30 770 N 73.905 1.17692 -1.04816 0
M  V30 771 C 74.837 2.21103 -0.603822 0
M  V30 772 C 75.85 1.59411 0.33046 0
M  V30 773 O 77.039 1.7807 0.12379 0
M  V30 774 C 74.139 3.38623 0.136898 0
M  V30 775 C 73.312 4.29888 -0.807137 0
M  V30 776 C 72.371 5.26088 -0.10836 0
M  V30 777 O 71.397 5.64353 -0.741232 0
M  V30 778 N 72.599 5.68882 1.15558 0
M  V30 779 H 75.364 2.59848 -1.49329 0
M  V30 780 H 72.925 1.32553 -0.929587 0
M  V30 781 H 74.917 4.00009 0.614401 0
M  V30 782 H 73.487 2.98508 0.927993 0
M  V30 783 H 72.707 3.65993 -1.46434 0
M  V30 784 H 73.995 4.87759 -1.44807 0
M  V30 785 H 73.393 5.39861 1.69015 0
M  V30 786 H 71.95 6.32429 1.57722 0
M  V30 787 N 75.3831 0.828654 1.34056 0
M  V30 788 C 76.2931 0.256725 2.33191 0
M  V30 789 C 77.3091 -0.611898 1.62886 0
M  V30 790 O 78.4851 -0.51844 1.94613 0
M  V30 791 C 75.5501 -0.567238 3.42028 0
M  V30 792 C 74.6111 0.324458 4.28072 0
M  V30 793 C 73.8441 -0.460274 5.31712 0
M  V30 794 O 74.0671 -1.693 5.44696 0
M  V30 795 O 73.0011 0.160391 6.01686 0
M  V30 796 H 76.8271 1.07739 2.83947 0
M  V30 797 H 74.4121 0.59093 1.37217 0
M  V30 798 H 76.2941 -1.03582 4.08471 0
M  V30 799 H 74.9691 -1.36513 2.93506 0
M  V30 800 H 73.8761 0.840659 3.64532 0
M  V30 801 H 75.2091 1.08685 4.8005 0
M  V30 802 N 76.8612 -1.46375 0.584142 0
M  V30 803 C 78.1102 -2.01585 0.0679741 0
M  V30 804 C 78.4232 -1.46109 -1.30045 0
M  V30 805 O 79.6292 -1.93148 -1.90804 0
M  V30 806 C 78.0852 -3.5983 0.0709207 0
M  V30 807 C 77.6932 -4.24303 1.43775 0
M  V30 808 C 79.4372 -4.22693 -0.391228 0
M  V30 809 C 77.3442 -5.74631 1.39834 0
M  V30 810 H 76.2742 -0.753689 0.0216421 0
M  V30 811 H 78.9252 -1.68093 0.736001 0
M  V30 812 H 77.3072 -3.90405 -0.663299 0
M  V30 813 H 78.4812 -4.05335 2.19181 0
M  V30 814 H 76.7962 -3.73539 1.84004 0
M  V30 815 H 79.3932 -5.3289 -0.439524 0
M  V30 816 H 79.7362 -3.91728 -1.40906 0
M  V30 817 H 80.2692 -3.96749 0.288974 0
M  V30 818 H 77.0082 -6.10258 2.39303 0
M  V30 819 H 76.5282 -5.95858 0.686505 0
M  V30 820 H 78.2072 -6.37375 1.11187 0
M  V30 821 N 78.3393 -0.321999 -1.54275 0
M  V30 822 C 79.5643 0.285791 -2.05422 0
M  V30 823 C 79.9893 1.45124 -1.19669 0
M  V30 824 O 79.3473 1.80132 -0.205441 0
M  V30 825 C 79.3953 0.69956 -3.53749 0
M  V30 826 O 78.4993 1.8021 -3.70942 0
M  V30 827 H 77.8403 0.0518962 -0.661969 0
M  V30 828 H 80.3703 -0.469954 -1.9913 0
M  V30 829 H 80.3803 0.982649 -3.9599 0
M  V30 830 H 79.0553 -0.152864 -4.15619 0
M  V30 831 H 77.6323 1.51794 -3.40607 0
M  V30 832 N 79.8174 1.5752 -0.0501392 0
M  V30 833 C 80.7804 2.1037 0.909786 0
M  V30 834 C 81.7804 1.02308 1.24056 0
M  V30 835 O 82.9704 1.28385 1.17741 0
M  V30 836 C 80.1024 2.58708 2.21998 0
M  V30 837 H 81.2954 2.96479 0.451665 0
M  V30 838 H 78.8484 1.55038 0.198248 0
M  V30 839 H 79.5834 1.75989 2.72394 0
M  V30 840 H 79.3684 3.37675 1.99295 0
M  V30 841 H 80.8584 2.99747 2.9076 0
M  V30 842 N 81.2955 -0.223234 1.56011 0
M  V30 843 C 82.2585 -1.26014 1.9145 0
M  V30 844 C 83.2585 -1.3989 0.792937 0
M  V30 845 O 84.4485 -1.38184 1.0607 0
M  V30 846 C 81.5805 -2.63422 2.16383 0
M  V30 847 H 82.7735 -0.95796 2.84189 0
M  V30 848 H 80.3265 -0.463576 1.49267 0
M  V30 849 H 81.0615 -2.98741 1.2619 0
M  V30 850 H 80.8465 -2.54728 2.98088 0
M  V30 851 H 82.3365 -3.38249 2.44903 0
M  V30 852 N 82.7736 -1.49793 -0.48987 0
M  V30 853 C 84.0206 -1.59841 -1.24327 0
M  V30 854 C 84.3486 -0.290135 -1.92324 0
M  V30 855 O 83.6036 0.722749 -1.81865 0
M  V30 856 C 83.9026 -2.71488 -2.32441 0
M  V30 857 C 83.5686 -4.12614 -1.81826 0
M  V30 858 C 82.2306 -4.51017 -1.67742 0
M  V30 859 C 84.5826 -5.00892 -1.4407 0
M  V30 860 C 81.9106 -5.75459 -1.14297 0
M  V30 861 C 84.2626 -6.25863 -0.920742 0
M  V30 862 C 82.9266 -6.63086 -0.766383 0
M  V30 863 H 82.1966 -0.584899 -0.454944 0
M  V30 864 H 84.8436 -1.83663 -0.542215 0
M  V30 865 H 83.1486 -2.4168 -3.0838 0
M  V30 866 H 84.8456 -2.76469 -2.90458 0
M  V30 867 H 81.4356 -3.82307 -1.93751 0
M  V30 868 H 85.6196 -4.7187 -1.53794 0
M  V30 869 H 80.8756 -6.02989 -1.01068 0
M  V30 870 H 85.0496 -6.9364 -0.619448 0
M  V30 871 H 82.6766 -7.59393 -0.350083 0
M  V30 872 N 84.2517 0.741722 -1.39055 0
M  V30 873 C 85.1987 1.85566 -1.37237 0
M  V30 874 C 86.1687 1.64457 -0.233072 0
M  V30 875 O 87.3537 1.85957 -0.427147 0
M  V30 876 C 84.4937 3.23004 -1.215 0
M  V30 877 C 83.6067 3.55864 -2.44918 0
M  V30 878 C 82.7417 4.82669 -2.21821 0
M  V30 879 C 81.7807 5.08351 -3.40948 0
M  V30 880 N 80.9177 6.26356 -3.17211 0
M  V30 881 H 85.7577 1.86455 -2.32462 0
M  V30 882 H 83.2947 0.911176 -1.15482 0
M  V30 883 H 85.2527 4.02331 -1.10389 0
M  V30 884 H 83.8827 3.21411 -0.29908 0
M  V30 885 H 82.9347 2.7129 -2.66657 0
M  V30 886 H 84.2467 3.70765 -3.33668 0
M  V30 887 H 83.4007 5.69962 -2.07914 0
M  V30 888 H 82.1397 4.69929 -1.30454 0
M  V30 889 H 81.1447 4.19522 -3.55361 0
M  V30 890 H 82.3697 5.22981 -4.33207 0
M  V30 891 H 80.3157 6.14917 -2.28502 0
M  V30 892 H 80.2327 6.41813 -3.99515 0
M  V30 893 H 81.5007 7.16506 -3.06984 0
M  V30 894 N 85.7298 1.2412 0.971189 0
M  V30 895 C 86.9578 1.10575 1.74874 0
M  V30 896 C 87.3728 -0.342017 1.85676 0
M  V30 897 O 86.7298 -1.23617 1.34258 0
M  V30 898 C 86.7808 1.73579 3.171 0
M  V30 899 O 86.5018 3.12695 3.06844 0
M  V30 900 C 88.0028 1.65598 4.11208 0
M  V30 901 H 85.2228 0.386504 0.548503 0
M  V30 902 H 87.7668 1.64156 1.21955 0
M  V30 903 H 85.9218 1.24009 3.67016 0
M  V30 904 H 86.3358 3.43412 3.96445 0
M  V30 905 H 87.8098 2.1437 5.08674 0
M  V30 906 H 88.2868 0.616532 4.34851 0
M  V30 907 H 88.8928 2.14578 3.67201 0
M  V30 908 N 87.2079 -1.17134 1.05439 0
M  V30 909 C 88.1379 -2.2342 0.678649 0
M  V30 910 C 89.1189 -1.66971 -0.32476 0
M  V30 911 O 90.3039 -1.93149 -0.201802 0
M  V30 912 C 87.4339 -3.47256 0.0552099 0
M  V30 913 C 86.3879 -4.16543 0.98365 0
M  V30 914 C 85.7139 -5.34231 0.223961 0
M  V30 915 C 87.0139 -4.68495 2.3089 0
M  V30 916 H 88.7079 -2.55105 1.56722 0
M  V30 917 H 86.2539 -1.2262 0.754998 0
M  V30 918 H 88.2069 -4.20828 -0.21946 0
M  V30 919 H 86.9309 -3.14846 -0.868319 0
M  V30 920 H 85.5899 -3.44887 1.24293 0
M  V30 921 H 85.2379 -4.98071 -0.702412 0
M  V30 922 H 84.9379 -5.81527 0.842627 0
M  V30 923 H 86.4619 -6.10585 -0.0433671 0
M  V30 924 H 87.8759 -5.33691 2.09396 0
M  V30 925 H 86.2729 -5.26379 2.88176 0
M  V30 926 H 87.3429 -3.85169 2.94572 0
M  V30 927 N 88.686 -0.835752 -1.33615 0
M  V30 928 C 89.933 -0.429959 -1.97883 0
M  V30 929 C 90.261 1.01006 -1.66217 0
M  V30 930 O 89.516 1.72047 -0.93265 0
M  V30 931 C 89.815 -0.593925 -3.52431 0
M  V30 932 C 89.481 -2.00158 -4.04039 0
M  V30 933 C 88.143 -2.38662 -4.17844 0
M  V30 934 C 90.495 -2.92117 -4.31644 0
M  V30 935 C 87.823 -3.68435 -4.56588 0
M  V30 936 C 90.175 -4.21368 -4.71838 0
M  V30 937 C 88.839 -4.59833 -4.83849 0
M  V30 938 H 88.109 -0.157333 -0.724104 0
M  V30 939 H 90.756 -1.06217 -1.59343 0
M  V30 940 H 89.061 0.121619 -3.91611 0
M  V30 941 H 90.758 -0.260282 -4.00154 0
M  V30 942 H 87.348 -1.69252 -3.93766 0
M  V30 943 H 91.532 -2.63608 -4.20505 0
M  V30 944 H 86.788 -3.98046 -4.64079 0
M  V30 945 H 90.962 -4.92703 -4.92155 0
M  V30 946 H 88.589 -5.60438 -5.13627 0
M  V30 947 N 90.1641 1.46063 -0.591896 0
M  V30 948 C 91.4121 2.01938 -0.0808391 0
M  V30 949 C 91.7331 1.46475 1.28725 0
M  V30 950 O 91.0031 0.652944 1.84698 0
M  V30 951 H 89.5831 0.746516 -0.0268938 0
M  V30 952 H 92.2451 1.79055 -0.769752 0
M  V30 953 H 91.3411 3.12094 -0.0187578 0
M  V30 954 N 91.6422 0.330177 1.54103 0
M  V30 955 C 93.0582 -0.0222371 1.59585 0
M  V30 956 C 93.2582 -1.49902 1.34654 0
M  V30 957 O 92.3142 -2.25592 1.13421 0
M  V30 958 C 93.6272 0.401932 2.98002 0
M  V30 959 C 95.1752 0.353145 3.11001 0
M  V30 960 C 95.6502 0.752576 4.51775 0
M  V30 961 N 97.1412 0.706239 4.57784 0
M  V30 962 C 97.8762 0.987417 5.64834 0
M  V30 963 N 97.3722 1.33607 6.79795 0
M  V30 964 N 99.1652 0.91254 5.54643 0
M  V30 965 H 91.3162 1.29228 1.68564 0
M  V30 966 H 93.5792 0.525906 0.78875 0
M  V30 967 H 93.2852 1.4311 3.21267 0
M  V30 968 H 93.1592 -0.229699 3.765 0
M  V30 969 H 95.5462 -0.666822 2.87467 0
M  V30 970 H 95.6272 1.0198 2.34593 0
M  V30 971 H 95.2712 1.77049 4.76042 0
M  V30 972 H 95.2012 0.0635409 5.26562 0
M  V30 973 H 97.6922 0.44889 3.75224 0
M  V30 974 H 98.0052 1.53582 7.57385 0
M  V30 975 H 96.3502 1.37439 6.81275 0
M  V30 976 H 99.5412 0.639601 4.6371 0
M  V30 977 H 99.7142 1.13503 6.37982 0
M  V30 978 N 93.1203 -1.57491 0.0584922 0
M  V30 979 C 94.3973 -1.84346 -0.653918 0
M  V30 980 C 94.7773 -0.948355 -1.88599 0
M  V30 981 O 94.1253 -0.0112403 -2.28497 0
M  V30 982 C 94.3353 -3.34239 -1.00425 0
M  V30 983 C 95.6833 -4.01431 -1.38342 0
M  V30 984 O 96.7073 -3.38907 -1.09637 0
M  V30 985 O 95.5663 -5.11683 -1.91943 0
M  V30 986 H 92.6603 -0.761112 -0.323478 0
M  V30 987 H 95.2063 -1.6947 0.0884125 0
M  V30 988 H 93.9783 -3.91089 -0.128625 0
M  V30 989 H 93.6013 -3.54329 -1.80378 0
M  V30 990 N 94.5984 0.214957 -1.56127 0
M  V30 991 C 95.5284 1.2695 -1.95974 0
M  V30 992 C 96.5094 1.48539 -0.828868 0
M  V30 993 O 97.6944 1.60611 -1.09168 0
M  V30 994 C 94.8244 2.61794 -2.28214 0
M  V30 995 C 93.7784 2.54851 -3.43853 0
M  V30 996 C 93.1044 3.93785 -3.61715 0
M  V30 997 C 94.4044 2.09065 -4.78632 0
M  V30 998 H 96.0984 0.93846 -2.84312 0
M  V30 999 H 93.6444 0.449996 -1.36788 0
M  V30 1000 H 95.5974 3.35731 -2.54682 0
M  V30 1001 H 94.3214 2.96599 -1.36736 0
M  V30 1002 H 92.9804 1.8337 -3.17444 0
M  V30 1003 H 92.6284 4.25908 -2.67602 0
M  V30 1004 H 92.3284 3.90019 -4.39498 0
M  V30 1005 H 93.8524 4.69374 -3.90539 0
M  V30 1006 H 95.2664 2.7275 -5.04262 0
M  V30 1007 H 93.6634 2.16346 -5.59745 0
M  V30 1008 H 94.7334 1.04315 -4.73547 0
M  V30 1009 N 96.0765 1.50051 0.48192 0
M  V30 1010 C 97.0065 1.71046 1.58951 0
M  V30 1011 C 97.9875 0.559288 1.60642 0
M  V30 1012 O 99.1725 0.797243 1.77081 0
M  V30 1013 C 96.3025 1.79462 2.97339 0
M  V30 1014 C 95.2565 2.94558 3.10515 0
M  V30 1015 C 94.5825 2.88105 4.50444 0
M  V30 1016 C 95.8825 4.35227 2.88747 0
M  V30 1017 H 97.5765 2.6378 1.41635 0
M  V30 1018 H 95.1225 1.26936 0.679942 0
M  V30 1019 H 97.0755 1.92734 3.74742 0
M  V30 1020 H 95.7995 0.833412 3.15788 0
M  V30 1021 H 94.4585 2.80918 2.35543 0
M  V30 1022 H 94.1065 1.89853 4.65795 0
M  V30 1023 H 93.8065 3.65366 4.60197 0
M  V30 1024 H 95.3305 3.03412 5.29881 0
M  V30 1025 H 96.7445 4.49449 3.55905 0
M  V30 1026 H 95.1415 5.13856 3.09955 0
M  V30 1027 H 96.2115 4.48347 1.84696 0
M  V30 1028 N 97.5546 -0.734337 1.39446 0
M  V30 1029 C 98.8316 -1.48579 1.27215 0
M  V30 1030 C 99.2116 -2.1077 -0.117968 0
M  V30 1031 O 98.5596 -1.98646 -1.12924 0
M  V30 1032 C 98.7696 -2.53667 2.39696 0
M  V30 1033 C 100.118 -3.20031 2.79044 0
M  V30 1034 O 101.142 -2.6398 2.39151 0
M  V30 1035 O 100.001 -4.21455 3.47905 0
M  V30 1036 H 97.0946 -0.659816 0.49857 0
M  V30 1037 H 99.6406 -0.768106 1.51322 0
M  V30 1038 H 98.4126 -2.06096 3.32626 0
M  V30 1039 H 98.0356 -3.32994 2.17258 0
M  V30 1040 N 99.0327 -1.24633 -0.964593 0
M  V30 1041 C 100.31 -0.995809 -1.68354 0
M  V30 1042 C 100.69 0.480964 -2.05548 0
M  V30 1043 O 100.038 1.45599 -1.76105 0
M  V30 1044 C 100.248 -1.92177 -2.91323 0
M  V30 1045 C 101.596 -2.19446 -3.63495 0
M  V30 1046 O 102.62 -1.89855 -3.01386 0
M  V30 1047 O 101.479 -2.69714 -4.75307 0
M  V30 1048 H 98.5727 -0.376854 -0.736146 0
M  V30 1049 H 101.119 -1.35745 -1.0184 0
M  V30 1050 H 99.8907 -2.91938 -2.60553 0
M  V30 1051 H 99.5137 -1.56349 -3.65569 0
M  V30 1052 N 100.511 1.16574 -1.06058 0
M  V30 1053 C 101.441 2.23057 -0.690488 0
M  V30 1054 C 102.422 1.67141 0.315901 0
M  V30 1055 O 103.607 1.93253 0.191556 0
M  V30 1056 C 100.737 3.47222 -0.073625 0
M  V30 1057 C 99.6908 4.16016 -1.00573 0
M  V30 1058 C 99.0168 5.34104 -0.252289 0
M  V30 1059 C 100.317 4.67264 -2.33371 0
M  V30 1060 H 102.011 2.54271 -1.58072 0
M  V30 1061 H 99.5568 1.22218 -0.76149 0
M  V30 1062 H 101.51 4.20939 0.19714 0
M  V30 1063 H 100.234 3.15302 0.85161 0
M  V30 1064 H 98.8928 3.44223 -1.2612 0
M  V30 1065 H 98.5408 4.98437 0.675988 0
M  V30 1066 H 98.2408 5.81072 -0.873455 0
M  V30 1067 H 99.7648 6.10599 0.0109857 0
M  V30 1068 H 101.179 5.32573 -2.12223 0
M  V30 1069 H 99.5758 5.24843 -2.90963 0
M  V30 1070 H 100.646 3.83602 -2.96611 0
M  V30 1071 N 101.989 0.842826 1.3317 0
M  V30 1072 C 102.936 0.276885 2.29133 0
M  V30 1073 C 103.906 -0.609527 1.54512 0
M  V30 1074 O 105.091 -0.546955 1.82792 0
M  V30 1075 C 102.231 -0.538707 3.40869 0
M  V30 1076 C 101.344 0.372169 4.30394 0
M  V30 1077 C 100.479 -0.454908 5.29249 0
M  V30 1078 C 99.5179 0.45411 6.10413 0
M  V30 1079 N 98.6549 -0.335075 7.013 0
M  V30 1080 H 103.495 1.10052 2.76934 0
M  V30 1081 H 101.032 0.554161 1.36262 0
M  V30 1082 H 102.99 -1.02709 4.0436 0
M  V30 1083 H 101.62 -1.32727 2.9425 0
M  V30 1084 H 100.672 0.97888 3.6759 0
M  V30 1085 H 101.984 1.0703 4.87182 0
M  V30 1086 H 101.138 -1.00695 5.98285 0
M  V30 1087 H 99.8769 -1.18646 4.73048 0
M  V30 1088 H 98.8819 1.01813 5.40291 0
M  V30 1089 H 100.107 1.18409 6.68697 0
M  V30 1090 H 98.0529 -1.04994 6.47543 0
M  V30 1091 H 97.9699 0.304262 7.55387 0
M  V30 1092 H 99.2379 -0.869224 7.74638 0
M  V30 1093 N 103.467 -1.45747 0.599634 0
M  V30 1094 C 104.692 -2.07178 0.0960198 0
M  V30 1095 C 105.117 -1.44268 -1.207 0
M  V30 1096 O 104.475 -0.532503 -1.73303 0
M  V30 1097 C 104.523 -3.60579 -0.0385348 0
M  V30 1098 O 103.627 -3.97713 -1.0908 0
M  V30 1099 H 102.968 -0.660251 0.0704593 0
M  V30 1100 H 105.498 -1.87124 0.827385 0
M  V30 1101 H 105.508 -4.07298 -0.239304 0
M  V30 1102 H 104.183 -4.05756 0.912947 0
M  V30 1103 H 102.76 -3.62678 -0.867135 0
M  V30 1104 N 104.945 -0.338344 -1.53925 0
M  V30 1105 C 105.855 0.529421 -2.28548 0
M  V30 1106 C 106.871 1.11645 -1.3346 0
M  V30 1107 O 108.047 1.13325 -1.66492 0
M  V30 1108 C 105.112 1.66713 -3.03987 0
M  V30 1109 C 104.173 1.11041 -4.14691 0
M  V30 1110 C 103.406 2.19389 -4.86522 0
M  V30 1111 O 103.629 3.40013 -4.57982 0
M  V30 1112 O 102.563 1.83976 -5.73094 0
M  V30 1113 H 106.389 -0.0770399 -3.03602 0
M  V30 1114 H 103.974 -0.103555 -1.49041 0
M  V30 1115 H 105.856 2.32918 -3.5118 0
M  V30 1116 H 104.531 2.25949 -2.31794 0
M  V30 1117 H 103.438 0.413024 -3.71813 0
M  V30 1118 H 104.771 0.562975 -4.8897 0
M  V30 1119 N 106.423 1.57458 -0.0668435 0
M  V30 1120 C 107.353 2.15468 0.899764 0
M  V30 1121 C 108.334 1.08042 1.31381 0
M  V30 1122 O 109.519 1.36054 1.38574 0
M  V30 1123 C 106.649 2.71232 2.16911 0
M  V30 1124 C 105.603 3.83781 1.89463 0
M  V30 1125 C 104.929 4.26127 3.22986 0
M  V30 1126 C 106.229 5.08238 1.20381 0
M  V30 1127 H 107.923 2.96488 0.416529 0
M  V30 1128 H 105.469 1.4262 0.198908 0
M  V30 1129 H 107.422 3.10458 2.84945 0
M  V30 1130 H 106.146 1.87426 2.67468 0
M  V30 1131 H 104.805 3.45051 1.23836 0
M  V30 1132 H 104.453 3.39249 3.71374 0
M  V30 1133 H 104.153 5.01993 3.05413 0
M  V30 1134 H 105.677 4.67966 3.92225 0
M  V30 1135 H 107.091 5.44811 1.78475 0
M  V30 1136 H 105.488 5.89349 1.13083 0
M  V30 1137 H 106.558 4.84558 0.182153 0
M  V30 1138 N 107.901 -0.206675 1.56239 0
M  V30 1139 C 109.129 -0.945345 1.8404 0
M  V30 1140 C 109.544 -1.77336 0.647885 0
M  V30 1141 O 108.901 -1.78425 -0.383511 0
M  V30 1142 C 108.952 -1.8509 3.10522 0
M  V30 1143 O 108.673 -1.05634 4.25174 0
M  V30 1144 C 110.174 -2.70222 3.51418 0
M  V30 1145 H 107.394 -0.276372 0.61144 0
M  V30 1146 H 109.938 -0.217417 2.03341 0
M  V30 1147 H 108.093 -2.53259 2.93153 0
M  V30 1148 H 108.507 -1.67238 4.97124 0
M  V30 1149 H 109.981 -3.29438 4.42916 0
M  V30 1150 H 110.458 -3.43358 2.73864 0
M  V30 1151 H 111.064 -2.07443 3.71278 0
M  V30 1152 N 109.379 -1.50304 -0.473955 0
M  V30 1153 C 110.627 -1.60832 -1.22382 0
M  V30 1154 C 110.948 -0.30939 -1.9253 0
M  V30 1155 O 110.218 0.67296 -1.83978 0
M  V30 1156 H 108.798 -0.592652 -0.454723 0
M  V30 1157 H 111.46 -1.87068 -0.546968 0
M  V30 1158 H 110.556 -2.41803 -1.97327 0
M  V30 1159 N 110.857 0.726932 -1.39834 0
M  V30 1160 C 111.804 1.841 -1.39197 0
M  V30 1161 C 112.774 1.642 -0.250502 0
M  V30 1162 O 113.959 1.85494 -0.446846 0
M  V30 1163 C 111.099 3.21697 -1.24919 0
M  V30 1164 C 110.212 3.53247 -2.48678 0
M  V30 1165 C 109.347 4.80289 -2.26928 0
M  V30 1166 C 108.386 5.04707 -3.4632 0
M  V30 1167 N 107.523 6.22956 -3.23836 0
M  V30 1168 H 112.363 1.83979 -2.34427 0
M  V30 1169 H 109.9 0.898876 -1.16442 0
M  V30 1170 H 111.858 4.01137 -1.1465 0
M  V30 1171 H 110.488 3.21076 -0.333153 0
M  V30 1172 H 109.54 2.68447 -2.69519 0
M  V30 1173 H 110.852 3.67205 -3.37582 0
M  V30 1174 H 110.006 5.67725 -2.13947 0
M  V30 1175 H 108.745 4.68519 -1.35431 0
M  V30 1176 H 107.75 4.1573 -3.5979 0
M  V30 1177 H 108.975 5.18357 -4.38729 0
M  V30 1178 H 106.921 6.12459 -2.35011 0
M  V30 1179 H 106.838 6.37539 -4.063 0
M  V30 1180 H 108.106 7.1321 -3.14566 0
M  V30 1181 N 112.336 1.25143 0.95797 0
M  V30 1182 C 113.583 1.09692 1.70217 0
M  V30 1183 C 113.911 -0.362654 1.91089 0
M  V30 1184 O 113.166 -1.28386 1.47701 0
M  V30 1185 C 113.465 1.79272 3.09187 0
M  V30 1186 C 113.131 3.29196 3.08125 0
M  V30 1187 C 111.793 3.70096 3.07543 0
M  V30 1188 C 114.145 4.24995 3.0171 0
M  V30 1189 C 111.473 5.05213 2.9829 0
M  V30 1190 C 113.825 5.60132 2.93999 0
M  V30 1191 C 112.489 6.00365 2.9175 0
M  V30 1192 H 111.759 0.401393 0.622868 0
M  V30 1193 H 114.406 1.55372 1.11945 0
M  V30 1194 H 112.711 1.26014 3.70982 0
M  V30 1195 H 114.408 1.64773 3.65583 0
M  V30 1196 H 110.998 2.96651 3.09348 0
M  V30 1197 H 115.182 3.9439 3.01281 0
M  V30 1198 H 110.438 5.35569 2.94916 0
M  V30 1199 H 114.612 6.3406 2.87996 0
M  V30 1200 H 112.239 7.05023 2.84336 0
M  V30 1201 N 113.814 -1.1601 1.06675 0
M  V30 1202 C 114.724 -2.24156 0.692179 0
M  V30 1203 C 115.74 -1.71507 -0.293513 0
M  V30 1204 O 116.916 -2.009 -0.141861 0
M  V30 1205 C 113.981 -3.46587 0.0884131 0
M  V30 1206 C 113.042 -4.14257 1.12646 0
M  V30 1207 C 112.275 -5.30844 0.551416 0
M  V30 1208 O 112.498 -5.66858 -0.634656 0
M  V30 1209 O 111.432 -5.87848 1.29298 0
M  V30 1210 H 115.258 -2.58513 1.59388 0
M  V30 1211 H 112.843 -1.23599 0.83926 0
M  V30 1212 H 114.725 -4.20679 -0.246361 0
M  V30 1213 H 113.4 -3.13994 -0.786712 0
M  V30 1214 H 112.307 -3.42118 1.51348 0
M  V30 1215 H 113.64 -4.50914 1.97325 0
M  V30 1216 N 115.292 -0.849877 -1.32721 0
M  V30 1217 C 116.239 -0.289033 -2.28983 0
M  V30 1218 C 117.209 0.601324 -1.54833 0
M  V30 1219 O 118.394 0.537253 -1.8308 0
M  V30 1220 C 115.534 0.520623 -3.4115 0
M  V30 1221 C 114.647 -0.394989 -4.3019 0
M  V30 1222 C 113.782 0.426834 -5.29482 0
M  V30 1223 C 112.821 -0.486476 -6.10164 0
M  V30 1224 N 111.958 0.297879 -7.01468 0
M  V30 1225 H 116.798 -1.11519 -2.76347 0
M  V30 1226 H 114.335 -0.56138 -1.35967 0
M  V30 1227 H 116.293 1.00563 -4.04899 0
M  V30 1228 H 114.923 1.31165 -2.9495 0
M  V30 1229 H 113.975 -0.99836 -3.67065 0
M  V30 1230 H 115.287 -1.09612 -4.86607 0
M  V30 1231 H 114.441 0.975205 -5.98811 0
M  V30 1232 H 113.18 1.16136 -4.73671 0
M  V30 1233 H 112.185 -1.04677 -5.39743 0
M  V30 1234 H 113.41 -1.21953 -6.6806 0
M  V30 1235 H 111.356 1.01558 -6.48091 0
M  V30 1236 H 111.273 -0.344318 -7.55216 0
M  V30 1237 H 112.541 0.828131 -7.75089 0
M  V30 1238 N 116.77 1.45427 -0.607355 0
M  V30 1239 C 117.7 2.3329 0.0989352 0
M  V30 1240 C 118.681 1.46816 0.859007 0
M  V30 1241 O 119.866 1.75588 0.829604 0
M  V30 1242 C 116.996 3.29518 1.09705 0
M  V30 1243 C 115.95 4.25626 0.450206 0
M  V30 1244 C 115.276 5.11542 1.55655 0
M  V30 1245 C 116.576 5.18505 -0.628455 0
M  V30 1246 H 118.27 2.92595 -0.634716 0
M  V30 1247 H 115.816 1.40696 -0.306681 0
M  V30 1248 H 117.769 3.89855 1.59971 0
M  V30 1249 H 116.493 2.68372 1.86129 0
M  V30 1250 H 115.152 3.66586 -0.0315886 0
M  V30 1251 H 114.8 4.46765 2.31107 0
M  V30 1252 H 114.5 5.76647 1.12925 0
M  V30 1253 H 116.024 5.74748 2.06148 0
M  V30 1254 H 117.438 5.72916 -0.209877 0
M  V30 1255 H 115.835 5.92085 -0.977489 0
M  V30 1256 H 116.905 4.60948 -1.50514 0
M  V30 1257 N 118.248 0.346503 1.53744 0
M  V30 1258 C 119.497 -0.250122 2.00143 0
M  V30 1259 C 119.81 -1.51418 1.23822 0
M  V30 1260 O 121.016 -2.18823 1.60713 0
M  V30 1261 C 119.472 -0.496252 3.56462 0
M  V30 1262 C 119.08 0.752077 4.41642 0
M  V30 1263 C 120.824 -1.05157 4.11269 0
M  V30 1264 C 118.731 0.476583 5.89477 0
M  V30 1265 H 117.661 -0.0972409 0.747703 0
M  V30 1266 H 120.312 0.46229 1.77581 0
M  V30 1267 H 118.694 -1.26944 3.75102 0
M  V30 1268 H 119.868 1.5266 4.34778 0
M  V30 1269 H 118.183 1.22925 3.97842 0
M  V30 1270 H 120.78 -1.27269 5.19333 0
M  V30 1271 H 121.123 -2.00799 3.64672 0
M  V30 1272 H 121.656 -0.339019 3.96353 0
M  V30 1273 H 118.395 1.4028 6.40314 0
M  V30 1274 H 117.915 -0.259794 5.99237 0
M  V30 1275 H 119.594 0.0949315 6.4693 0
M  V30 1276 N 119.726 -1.57421 0.075193 0
M  V30 1277 C 120.972 -1.93905 -0.594025 0
M  V30 1278 C 121.305 -0.955701 -1.69056 0
M  V30 1279 O 120.58 0.0145373 -1.94495 0
M  V30 1280 C 120.863 -3.40638 -1.1678 0
M  V30 1281 C 120.716 -4.49733 -0.0776792 0
M  V30 1282 C 122.035 -3.88259 -2.07228 0
M  V30 1283 H 119.154 -0.705105 -0.214466 0
M  V30 1284 H 121.796 -1.8947 0.141854 0
M  V30 1285 H 119.946 -3.44549 -1.79494 0
M  V30 1286 H 121.618 -4.57942 0.555573 0
M  V30 1287 H 119.861 -4.29751 0.591286 0
M  V30 1288 H 120.532 -5.49549 -0.519603 0
M  V30 1289 H 123.008 -3.86376 -1.54445 0
M  V30 1290 H 121.884 -4.91533 -2.44308 0
M  V30 1291 H 122.145 -3.26396 -2.98191 0
M  V30 1292 N 121.204 0.198386 -1.56346 0
M  V30 1293 C 122.167 1.22952 -1.93431 0
M  V30 1294 C 123.167 1.38611 -0.815092 0
M  V30 1295 O 124.357 1.36479 -1.08255 0
M  V30 1296 C 121.489 2.59946 -2.20546 0
M  V30 1297 H 122.682 0.912626 -2.85677 0
M  V30 1298 H 120.235 0.43977 -1.49986 0
M  V30 1299 H 120.97 2.96696 -1.30927 0
M  V30 1300 H 120.755 2.49953 -3.02102 0
M  V30 1301 H 122.245 3.3431 -2.50253 0
M  V30 1302 N 122.682 1.50554 0.465978 0
M  V30 1303 C 123.612 1.72722 1.57128 0
M  V30 1304 C 124.593 0.576294 1.6004 0
M  V30 1305 O 125.778 0.81598 1.76225 0
M  V30 1306 C 122.908 1.82605 2.95419 0
M  V30 1307 C 121.862 2.97835 3.07373 0
M  V30 1308 C 121.188 2.92867 4.47363 0
M  V30 1309 C 122.488 4.38265 2.84114 0
M  V30 1310 H 124.182 2.65267 1.38829 0
M  V30 1311 H 121.728 1.2765 0.666441 0
M  V30 1312 H 123.681 1.96698 3.72677 0
M  V30 1313 H 122.405 0.866858 3.14886 0
M  V30 1314 H 121.064 2.83401 2.3255 0
M  V30 1315 H 120.712 1.94783 4.63755 0
M  V30 1316 H 120.412 3.70227 4.56296 0
M  V30 1317 H 121.936 3.09015 5.26633 0
M  V30 1318 H 123.35 4.53198 3.51118 0
M  V30 1319 H 121.747 5.17115 3.04487 0
M  V30 1320 H 122.817 4.50281 1.7993 0
M  V30 1321 N 124.16 -0.719506 1.40217 0
M  V30 1322 C 125.093 -1.84298 1.34571 0
M  V30 1323 C 126.071 -1.61149 0.216741 0
M  V30 1324 O 127.255 -1.84212 0.399756 0
M  V30 1325 C 124.382 -3.20568 1.09335 0
M  V30 1326 C 123.428 -3.62551 2.24631 0
M  V30 1327 S 124.261 -3.7012 3.87004 0
M  V30 1328 C 125.417 -5.09154 3.64024 0
M  V30 1329 H 125.65 -1.88807 2.2965 0
M  V30 1330 H 123.183 -0.885901 1.26456 0
M  V30 1331 H 125.141 -3.99246 0.954602 0
M  V30 1332 H 123.802 -3.13696 0.159164 0
M  V30 1333 H 122.995 -4.61483 2.02606 0
M  V30 1334 H 122.597 -2.91119 2.34789 0
M  V30 1335 H 124.889 -5.95955 3.22248 0
M  V30 1336 H 125.832 -5.36213 4.62473 0
M  V30 1337 H 126.24 -4.79562 2.97793 0
M  V30 1338 N 125.638 -1.25649 -0.95132 0
M  V30 1339 C 126.585 -1.06323 -2.04851 0
M  V30 1340 C 127.555 0.0286491 -1.66075 0
M  V30 1341 O 128.74 -0.12917 -1.90362 0
M  V30 1342 C 125.88 -0.691529 -3.381 0
M  V30 1343 C 124.993 -1.85861 -3.89974 0
M  V30 1344 C 124.128 -1.43096 -5.11563 0
M  V30 1345 C 123.167 -2.56696 -5.55674 0
M  V30 1346 N 122.304 -2.14684 -6.68472 0
M  V30 1347 H 127.144 -2.00222 -2.20715 0
M  V30 1348 H 124.681 -0.997027 -1.08156 0
M  V30 1349 H 126.639 -0.456963 -4.1469 0
M  V30 1350 H 125.269 0.210474 -3.22113 0
M  V30 1351 H 124.321 -2.20639 -3.09875 0
M  V30 1352 H 125.633 -2.71161 -4.18657 0
M  V30 1353 H 124.787 -1.15624 -5.9558 0
M  V30 1354 H 123.526 -0.548722 -4.84603 0
M  V30 1355 H 122.531 -2.84909 -4.7022 0
M  V30 1356 H 123.756 -3.45503 -5.8464 0
M  V30 1357 H 121.702 -1.28881 -6.43215 0
M  V30 1358 H 121.619 -2.9353 -6.96689 0
M  V30 1359 H 122.887 -1.90397 -7.5589 0
M  V30 1360 N 127.117 1.15442 -1.07289 0
M  V30 1361 C 128.528 1.67803 -0.818475 0
M  V30 1362 C 128.879 1.8489 0.656507 0
M  V30 1363 O 128.004 1.55176 1.50829 0
M  V30 1364 C 128.599 3.04805 -1.47917 0
M  V30 1365 C 127.158 3.54245 -1.27229 0
M  V30 1366 C 126.305 2.29986 -1.54925 0
M  V30 1367 H 129.256 0.996646 -1.23502 0
M  V30 1368 H 129.277 3.69702 -0.90005 0
M  V30 1369 H 128.789 2.92336 -2.55267 0
M  V30 1370 H 126.89 3.71956 -0.21899 0
M  V30 1371 H 127.003 4.35723 -1.99203 0
M  V30 1372 H 125.367 2.35496 -0.970242 0
M  V30 1373 H 126.15 2.20105 -2.63455 0
M  V30 1374 N 128.595 0.856903 1.32268 0
M  V30 1375 C 129.82 0.474569 2.01897 0
M  V30 1376 C 130.245 -0.921766 1.63967 0
M  V30 1377 O 129.603 -1.60589 0.84148 0
M  V30 1378 C 129.651 0.623799 3.55164 0
M  V30 1379 O 128.755 -0.342459 4.10976 0
M  V30 1380 H 128.096 0.190422 0.63611 0
M  V30 1381 H 130.626 1.15672 1.68764 0
M  V30 1382 H 130.636 0.512169 4.04773 0
M  V30 1383 H 129.311 1.64202 3.82113 0
M  V30 1384 H 127.888 -0.18688 3.72431 0
M  V30 1385 N 130.073 -1.45103 0.615059 0
M  V30 1386 C 131.489 -1.57137 0.279322 0
M  V30 1387 C 131.689 -1.60523 -1.21797 0
M  V30 1388 O 130.745 -1.53956 -2.00134 0
M  V30 1389 C 132.058 -2.85062 0.957083 0
M  V30 1390 C 133.606 -2.98749 0.933706 0
M  V30 1391 C 134.081 -4.29455 1.59162 0
M  V30 1392 N 135.572 -4.36231 1.55746 0
M  V30 1393 C 136.307 -5.36051 2.0356 0
M  V30 1394 N 135.803 -6.42367 2.59494 0
M  V30 1395 N 137.596 -5.27456 1.94284 0
M  V30 1396 H 129.747 -1.41148 1.58717 0
M  V30 1397 H 132.01 -0.675331 0.665306 0
M  V30 1398 H 131.716 -2.88488 2.01166 0
M  V30 1399 H 131.59 -3.7407 0.48494 0
M  V30 1400 H 133.977 -2.94886 -0.112347 0
M  V30 1401 H 134.058 -2.11132 1.44419 0
M  V30 1402 H 133.702 -4.34077 2.63704 0
M  V30 1403 H 133.632 -5.15901 1.0561 0
M  V30 1404 H 136.123 -3.60011 1.14893 0
M  V30 1405 H 136.436 -7.14793 2.93752 0
M  V30 1406 H 134.781 -6.43097 2.63537 0
M  V30 1407 H 137.972 -4.43308 1.5032 0
M  V30 1408 H 138.145 -6.05099 2.3186 0
M  V30 1409 N 131.551 -0.354651 -1.53558 0
M  V30 1410 C 132.481 0.489091 -2.2832 0
M  V30 1411 C 133.462 1.09324 -1.30316 0
M  V30 1412 O 134.647 1.11255 -1.59173 0
M  V30 1413 C 131.777 1.63456 -3.0643 0
M  V30 1414 C 130.731 1.1582 -4.12031 0
M  V30 1415 C 130.057 2.39305 -4.7816 0
M  V30 1416 C 131.357 0.250731 -5.21698 0
M  V30 1417 H 133.051 -0.134614 -2.99097 0
M  V30 1418 H 130.597 -0.0661826 -1.43848 0
M  V30 1419 H 132.55 2.23136 -3.57475 0
M  V30 1420 H 131.274 2.28533 -2.33325 0
M  V30 1421 H 129.933 0.584146 -3.61916 0
M  V30 1422 H 129.581 3.02814 -4.01637 0
M  V30 1423 H 129.281 2.08109 -5.49513 0
M  V30 1424 H 130.805 2.99691 -5.31994 0
M  V30 1425 H 132.219 0.754695 -5.68311 0
M  V30 1426 H 130.616 0.0301468 -6.00092 0
M  V30 1427 H 131.686 -0.710125 -4.79672 0
M  V30 1428 N 133.029 1.57378 -0.0835403 0
M  V30 1429 C 134.259 1.97975 0.590713 0
M  V30 1430 C 134.667 0.961083 1.62972 0
M  V30 1431 O 134.01 -0.0590879 1.83605 0
M  V30 1432 C 134.072 3.34915 1.3066 0
M  V30 1433 C 133.736 4.55069 0.419698 0
M  V30 1434 C 134.733 5.18868 -0.32749 0
M  V30 1435 C 132.418 5.0114 0.341137 0
M  V30 1436 C 134.412 6.27098 -1.14134 0
M  V30 1437 C 132.099 6.0924 -0.476374 0
M  V30 1438 C 133.097 6.72083 -1.21627 0
M  V30 1439 O 132.785 7.781 -2.02028 0
M  V30 1440 H 132.517 0.655818 0.163947 0
M  V30 1441 H 135.071 2.04807 -0.156021 0
M  V30 1442 H 133.301 3.24733 2.09966 0
M  V30 1443 H 134.99 3.60037 1.87424 0
M  V30 1444 H 135.756 4.84211 -0.276459 0
M  V30 1445 H 131.635 4.51996 0.90668 0
M  V30 1446 H 135.179 6.7608 -1.71935 0
M  V30 1447 H 131.076 6.43329 -0.528927 0
M  V30 1448 H 131.844 7.95034 -1.94586 0
M  V30 1449 N 134.507 -0.190092 1.56449 0
M  V30 1450 C 135.784 -0.935886 1.71757 0
M  V30 1451 C 136.164 -2.01173 0.639726 0
M  V30 1452 O 135.512 -2.25827 -0.348502 0
M  V30 1453 C 135.722 -1.51775 3.1427 0
M  V30 1454 C 137.07 -1.99794 3.74656 0
M  V30 1455 O 138.094 -1.61607 3.1743 0
M  V30 1456 O 136.953 -2.70079 4.751 0
M  V30 1457 H 134.047 -0.439229 0.700719 0
M  V30 1458 H 136.593 -0.179395 1.68749 0
M  V30 1459 H 135.365 -0.742505 3.84191 0
M  V30 1460 H 134.988 -2.33894 3.21527 0
M  V30 1461 N 135.985 -1.50799 -0.457987 0
M  V30 1462 C 136.948 -1.7005 -1.53674 0
M  V30 1463 C 137.948 -0.570881 -1.50325 0
M  V30 1464 O 139.138 -0.838126 -1.52712 0
M  V30 1465 C 136.27 -1.73788 -2.93276 0
M  V30 1466 H 137.463 -2.66306 -1.37917 0
M  V30 1467 H 135.016 -1.40477 -0.685271 0
M  V30 1468 H 135.751 -0.792717 -3.14462 0
M  V30 1469 H 135.536 -2.55864 -2.97113 0
M  V30 1470 H 137.026 -1.90591 -3.71571 0
M  V30 1471 N 137.463 0.71206 -1.40597 0
M  V30 1472 C 138.693 1.49894 -1.42181 0
M  V30 1473 C 139.101 1.89189 -0.0208078 0
M  V30 1474 O 138.444 1.56223 0.966436 0
M  V30 1475 C 138.506 2.80215 -2.25211 0
M  V30 1476 C 138.17 2.63221 -3.73582 0
M  V30 1477 C 139.167 2.30249 -4.66135 0
M  V30 1478 C 136.852 2.79376 -4.17438 0
M  V30 1479 C 138.846 2.13645 -6.00529 0
M  V30 1480 C 136.533 2.6239 -5.51901 0
M  V30 1481 C 137.531 2.29573 -6.43262 0
M  V30 1482 O 137.219 2.12719 -7.75246 0
M  V30 1483 H 136.951 0.469031 -0.486812 0
M  V30 1484 H 139.505 0.88564 -1.85326 0
M  V30 1485 H 137.735 3.4389 -1.76852 0
M  V30 1486 H 139.424 3.41947 -2.18694 0
M  V30 1487 H 140.19 2.17398 -4.33547 0
M  V30 1488 H 136.069 3.03906 -3.46644 0
M  V30 1489 H 139.613 1.87953 -6.71803 0
M  V30 1490 H 135.51 2.74826 -5.84073 0
M  V30 1491 H 136.278 2.27611 -7.86216 0
M  V30 1492 N 138.941 1.26152 0.944643 0
M  V30 1493 C 139.851 1.09176 2.07648 0
M  V30 1494 C 140.867 0.0261935 1.7398 0
M  V30 1495 O 142.043 0.229208 2.00091 0
M  V30 1496 C 139.108 0.722915 3.39079 0
M  V30 1497 C 138.169 1.86752 3.86552 0
M  V30 1498 C 137.402 1.51617 5.11711 0
M  V30 1499 O 137.625 0.416331 5.68879 0
M  V30 1500 O 136.559 2.34975 5.54139 0
M  V30 1501 H 140.385 2.0412 2.24875 0
M  V30 1502 H 137.97 1.05182 1.061 0
M  V30 1503 H 139.852 0.529787 4.18056 0
M  V30 1504 H 138.527 -0.197159 3.23099 0
M  V30 1505 H 137.434 2.11558 3.08535 0
M  V30 1506 H 138.767 2.76719 4.07047 0
M  V30 1507 N 140.419 -1.14872 1.07899 0
M  V30 1508 C 141.349 -2.2193 0.725887 0
M  V30 1509 C 142.33 -1.67622 -0.28927 0
M  V30 1510 O 143.515 -1.93533 -0.160787 0
M  V30 1511 C 140.645 -3.47061 0.128856 0
M  V30 1512 C 139.599 -4.14363 1.07178 0
M  V30 1513 C 138.925 -5.33636 0.337229 0
M  V30 1514 C 140.225 -4.63492 2.40775 0
M  V30 1515 H 141.919 -2.51724 1.62097 0
M  V30 1516 H 139.465 -1.20991 0.780838 0
M  V30 1517 H 141.418 -4.21199 -0.130147 0
M  V30 1518 H 140.142 -3.16617 -0.80134 0
M  V30 1519 H 138.801 -3.42173 1.3158 0
M  V30 1520 H 138.449 -4.99449 -0.596606 0
M  V30 1521 H 138.149 -5.79609 0.965788 0
M  V30 1522 H 139.673 -6.10539 0.0861567 0
M  V30 1523 H 141.087 -5.2913 2.20669 0
M  V30 1524 H 139.484 -5.20148 2.99276 0
M  V30 1525 H 140.554 -3.78834 3.02676 0
M  V30 1526 N 141.898 -0.863906 -1.31812 0
M  V30 1527 C 142.845 -0.313303 -2.28664 0
M  V30 1528 C 143.815 0.584868 -1.55462 0
M  V30 1529 O 145 0.517805 -1.83639 0
M  V30 1530 C 142.14 0.48441 -3.41683 0
M  V30 1531 C 141.253 -0.440594 -4.29747 0
M  V30 1532 C 140.388 0.370652 -5.29905 0
M  V30 1533 C 139.427 -0.551164 -6.09613 0
M  V30 1534 N 138.564 0.223462 -7.01744 0
M  V30 1535 H 143.404 -1.14444 -2.75148 0
M  V30 1536 H 140.941 -0.575769 -1.35364 0
M  V30 1537 H 142.899 0.962627 -4.05943 0
M  V30 1538 H 141.529 1.28029 -2.96325 0
M  V30 1539 H 140.581 -1.03724 -3.65986 0
M  V30 1540 H 141.893 -1.14767 -4.85417 0
M  V30 1541 H 141.047 0.911638 -5.99812 0
M  V30 1542 H 139.786 1.11105 -4.74876 0
M  V30 1543 H 138.791 -1.10396 -5.38603 0
M  V30 1544 H 140.016 -1.29032 -6.66729 0
M  V30 1545 H 137.962 0.946787 -6.49132 0
M  V30 1546 H 137.879 -0.424399 -7.54808 0
M  V30 1547 H 139.147 0.745876 -7.75923 0
M  V30 1548 N 143.376 1.44774 -0.622745 0
M  V30 1549 C 144.326 2.2774 0.108889 0
M  V30 1550 C 145.31 1.38189 0.824175 0
M  V30 1551 O 146.502 1.62063 0.711664 0
M  V30 1552 C 143.631 3.25353 1.09546 0
M  V30 1553 C 142.717 4.22392 0.380232 0
M  V30 1554 N 143.108 5.02388 -0.586535 0
M  V30 1555 C 141.406 4.41588 0.625792 0
M  V30 1556 C 142.107 5.72894 -1.00834 0
M  V30 1557 N 141.083 5.42479 -0.348878 0
M  V30 1558 H 144.885 2.86993 -0.63341 0
M  V30 1559 H 142.399 1.5611 -0.447589 0
M  V30 1560 H 144.396 3.83538 1.63414 0
M  V30 1561 H 143.056 2.6766 1.83815 0
M  V30 1562 H 144.067 5.0885 -0.963975 0
M  V30 1563 H 140.744 3.95003 1.352 0
M  V30 1564 H 142.134 6.47158 -1.80656 0
M  V30 1565 N 144.854 0.36279 1.53368 0
M  V30 1566 C 145.817 -0.472679 2.24273 0
M  V30 1567 C 146.817 -1.012 1.24961 0
M  V30 1568 O 148.007 -0.898194 1.49259 0
M  V30 1569 C 145.139 -1.66039 2.97731 0
M  V30 1570 H 146.332 0.14773 2.99536 0
M  V30 1571 H 143.885 0.114434 1.55881 0
M  V30 1572 H 144.62 -2.31896 2.26704 0
M  V30 1573 H 144.405 -1.28066 3.70596 0
M  V30 1574 H 145.895 -2.25252 3.51641 0
M  V30 1575 N 146.332 -1.57332 0.0918853 0
M  V30 1576 C 147.262 -2.16872 -0.865371 0
M  V30 1577 C 148.243 -1.10118 -1.29646 0
M  V30 1578 O 149.428 -1.38242 -1.36392 0
M  V30 1579 C 146.558 -2.74649 -2.12569 0
M  V30 1580 C 145.512 -3.86747 -1.83333 0
M  V30 1581 C 144.838 -4.31212 -3.16166 0
M  V30 1582 C 146.138 -5.10089 -1.1228 0
M  V30 1583 H 147.832 -2.97114 -0.369307 0
M  V30 1584 H 145.378 -1.42918 -0.176194 0
M  V30 1585 H 147.331 -3.14952 -2.7997 0
M  V30 1586 H 146.055 -1.91657 -2.64452 0
M  V30 1587 H 144.714 -3.46978 -1.18331 0
M  V30 1588 H 144.362 -3.45115 -3.6593 0
M  V30 1589 H 144.062 -5.06788 -2.97388 0
M  V30 1590 H 145.586 -4.74146 -3.84731 0
M  V30 1591 H 147 -5.47582 -1.69785 0
M  V30 1592 H 145.397 -5.91073 -1.03693 0
M  V30 1593 H 146.467 -4.84786 -0.105041 0
M  V30 1594 N 147.81 0.181792 -1.56548 0
M  V30 1595 C 148.757 1.22521 -1.95595 0
M  V30 1596 C 149.727 1.4454 -0.818373 0
M  V30 1597 O 150.912 1.57454 -1.07763 0
M  V30 1598 C 148.052 2.56193 -2.31212 0
M  V30 1599 C 147.165 2.41641 -3.58097 0
M  V30 1600 C 146.3 3.68108 -3.82975 0
M  V30 1601 C 145.339 3.48445 -5.03242 0
M  V30 1602 N 144.476 4.66956 -5.24306 0
M  V30 1603 H 149.316 0.885226 -2.84548 0
M  V30 1604 H 146.853 0.425718 -1.40805 0
M  V30 1605 H 148.811 3.34088 -2.49882 0
M  V30 1606 H 147.441 2.88208 -1.45382 0
M  V30 1607 H 146.493 1.54976 -3.474 0
M  V30 1608 H 147.805 2.23052 -4.46149 0
M  V30 1609 H 146.959 4.54441 -4.01956 0
M  V30 1610 H 145.698 3.89666 -2.93278 0
M  V30 1611 H 144.703 2.60499 -4.8417 0
M  V30 1612 H 145.928 3.2832 -5.9446 0
M  V30 1613 H 143.874 4.88752 -4.37559 0
M  V30 1614 H 143.791 4.51242 -6.06561 0
M  V30 1615 H 145.059 5.54602 -5.47756 0
M  V30 1616 N 149.288 1.51039 0.449983 0
M  V30 1617 C 150.536 1.62759 1.19808 0
M  V30 1618 C 150.857 0.339981 1.92013 0
M  V30 1619 O 150.127 -0.643606 1.85026 0
M  V30 1620 H 148.707 0.599811 0.445237 0
M  V30 1621 H 151.369 1.87914 0.517138 0
M  V30 1622 H 150.465 2.44911 1.93455 0
M  V30 1623 N 150.766 -0.704594 1.40972 0
M  V30 1624 C 151.729 -1.80035 1.41845 0
M  V30 1625 C 152.729 -1.57774 0.310474 0
M  V30 1626 O 153.919 -1.64613 0.56992 0
M  V30 1627 C 151.051 -3.18284 1.22098 0
M  V30 1628 H 152.244 -1.80658 2.3938 0
M  V30 1629 H 149.797 -0.911329 1.26982 0
M  V30 1630 H 150.532 -3.23306 0.253672 0
M  V30 1631 H 150.317 -3.35843 2.02366 0
M  V30 1632 H 151.807 -3.98289 1.25522 0
M  V30 1633 N 152.244 -1.26651 -0.937939 0
M  V30 1634 C 153.492 -1.12165 -1.68118 0
M  V30 1635 C 153.813 0.334983 -1.92101 0
M  V30 1636 O 153.083 1.23583 -1.52 0
M  V30 1637 H 151.663 -0.412093 -0.623048 0
M  V30 1638 H 154.325 -1.59027 -1.12678 0
M  V30 1639 H 153.421 -1.64289 -2.6536 0
M  V30 1640 N 153.722 1.14298 -1.08507 0
M  V30 1641 C 154.95 1.89219 -0.836876 0
M  V30 1642 C 155.365 1.78638 0.611054 0
M  V30 1643 O 154.722 1.14643 1.41998 0
M  V30 1644 C 154.773 3.39158 -1.25116 0
M  V30 1645 O 154.494 3.49449 -2.64229 0
M  V30 1646 C 155.995 4.31073 -1.03398 0
M  V30 1647 H 153.215 0.599328 -0.301739 0
M  V30 1648 H 155.759 1.44746 -1.44461 0
M  V30 1649 H 153.914 3.81251 -0.687514 0
M  V30 1650 H 154.328 4.42589 -2.81452 0
M  V30 1651 H 155.802 5.34646 -1.37323 0
M  V30 1652 H 156.279 4.3919 0.0289259 0
M  V30 1653 H 156.885 3.94738 -1.58311 0
M  V30 1654 N 155.201 0.870884 1.31352 0
M  V30 1655 C 156.149 0.316445 2.30437 0
M  V30 1656 C 157.143 -0.568965 1.59559 0
M  V30 1657 O 158.349 -0.454964 1.74155 0
M  V30 1658 H 154.724 0.0836521 0.747333 0
M  V30 1659 H 156.695 1.16606 2.74673 0
M  V30 1660 C 155.444 -0.46635 3.44558 0
M  V30 1661 H 154.767 0.205687 3.99271 0
M  V30 1662 H 156.207 -0.819614 4.16003 0
M  V30 1663 C 154.666 -1.65797 2.9328 0
M  V30 1664 O 155.196 -2.75728 2.92125 0
M  V30 1665 N 153.402 -1.49041 2.4947 0
M  V30 1666 H 152.949 -0.59612 2.50608 0
M  V30 1667 H 152.907 -2.28911 2.15516 0
M  V30 1668 N 156.679 -1.44442 0.630414 0
M  V30 1669 C 157.589 -2.34476 -0.0761693 0
M  V30 1670 C 158.605 -1.52576 -0.836449 0
M  V30 1671 O 159.781 -1.85307 -0.788874 0
M  V30 1672 C 156.846 -3.30545 -1.04599 0
M  V30 1673 C 155.907 -4.28352 -0.28516 0
M  V30 1674 C 155.14 -5.19831 -1.20878 0
M  V30 1675 O 155.363 -5.15223 -2.44747 0
M  V30 1676 O 154.297 -5.97892 -0.693491 0
M  V30 1677 H 158.123 -2.96345 0.664324 0
M  V30 1678 H 155.708 -1.44203 0.39061 0
M  V30 1679 H 157.59 -3.89681 -1.60396 0
M  V30 1680 H 156.265 -2.7121 -1.76711 0
M  V30 1681 H 155.172 -3.72764 0.315837 0
M  V30 1682 H 156.505 -4.90605 0.395924 0
M  V30 1683 N 158.157 -0.370918 -1.53173 0
M  V30 1684 C 159.104 0.473035 -2.259 0
M  V30 1685 C 160.074 1.07311 -1.26781 0
M  V30 1686 O 161.259 1.1046 -1.55574 0
M  V30 1687 C 158.399 1.60405 -3.05556 0
M  V30 1688 C 157.512 1.02863 -4.19575 0
M  V30 1689 C 156.647 2.12918 -4.86661 0
M  V30 1690 C 155.686 1.52869 -5.92704 0
M  V30 1691 N 154.823 2.56779 -6.53459 0
M  V30 1692 H 159.663 -0.153649 -2.97604 0
M  V30 1693 H 157.2 -0.0875946 -1.46839 0
M  V30 1694 H 159.158 2.27034 -3.50016 0
M  V30 1695 H 157.788 2.20131 -2.36097 0
M  V30 1696 H 156.84 0.252465 -3.79561 0
M  V30 1697 H 158.152 0.549642 -4.95762 0
M  V30 1698 H 157.306 2.87356 -5.34333 0
M  V30 1699 H 156.045 2.6417 -4.09958 0
M  V30 1700 H 155.05 0.769479 -5.44389 0
M  V30 1701 H 156.275 1.02435 -6.7133 0
M  V30 1702 H 154.221 3.07235 -5.79606 0
M  V30 1703 H 154.138 2.13583 -7.25202 0
M  V30 1704 H 155.406 3.30903 -7.05779 0
M  V30 1705 N 159.635 1.57281 -0.100228 0
M  V30 1706 C 160.881 1.94826 0.563101 0
M  V30 1707 C 161.214 0.982475 1.67514 0
M  V30 1708 O 160.489 0.0164069 1.94493 0
M  V30 1709 C 160.772 3.42453 1.11346 0
M  V30 1710 C 160.625 4.498 0.00612081 0
M  V30 1711 C 161.944 3.91506 2.01024 0
M  V30 1712 H 159.063 0.708428 0.203221 0
M  V30 1713 H 161.705 1.8922 -0.171979 0
M  V30 1714 H 159.855 3.47361 1.7399 0
M  V30 1715 H 161.527 4.57 -0.628357 0
M  V30 1716 H 159.77 4.28756 -0.659581 0
M  V30 1717 H 160.441 5.50306 0.432109 0
M  V30 1718 H 162.917 3.88784 1.48278 0
M  V30 1719 H 161.793 4.95358 2.36457 0
M  V30 1720 H 162.054 3.31099 2.92961 0
M  V30 1721 N 161.113 -0.173488 1.56642 0
M  V30 1722 C 162.043 -1.2171 1.99271 0
M  V30 1723 C 163.024 -1.46289 0.867959 0
M  V30 1724 O 164.209 -1.5766 1.13388 0
M  V30 1725 C 161.339 -2.55651 2.35074 0
M  V30 1726 C 160.293 -2.45645 3.50489 0
M  V30 1727 C 159.619 -3.84056 3.72028 0
M  V30 1728 C 160.919 -1.96302 4.84007 0
M  V30 1729 H 162.613 -0.86275 2.867 0
M  V30 1730 H 160.159 -0.413571 1.37933 0
M  V30 1731 H 162.112 -3.2886 2.63494 0
M  V30 1732 H 160.836 -2.92869 1.44552 0
M  V30 1733 H 159.495 -1.7489 3.22194 0
M  V30 1734 H 159.143 -4.18664 2.788 0
M  V30 1735 H 158.843 -3.7823 4.49684 0
M  V30 1736 H 160.367 -4.58854 4.02846 0
M  V30 1737 H 161.781 -2.59284 5.11317 0
M  V30 1738 H 160.178 -2.01429 5.65284 0
M  V30 1739 H 161.248 -0.917226 4.76146 0
M  V30 1740 N 162.591 -1.51276 -0.441967 0
M  V30 1741 C 163.819 -1.67516 -1.21434 0
M  V30 1742 C 164.234 -0.37055 -1.85128 0
M  V30 1743 O 163.591 0.650498 -1.70513 0
M  V30 1744 C 163.642 -2.78748 -2.30177 0
M  V30 1745 O 163.363 -4.04154 -1.69089 0
M  V30 1746 C 164.864 -3.06217 -3.20541 0
M  V30 1747 H 162.084 -0.562276 -0.366178 0
M  V30 1748 H 164.628 -1.97666 -0.524244 0
M  V30 1749 H 162.783 -2.5121 -2.94911 0
M  V30 1750 H 163.197 -4.65894 -2.40922 0
M  V30 1751 H 164.671 -3.8764 -3.92987 0
M  V30 1752 H 165.148 -2.18439 -3.81026 0
M  V30 1753 H 165.754 -3.35397 -2.61513 0
M  V30 1754 N 164.069 0.697108 -1.41344 0
M  V30 1755 C 164.979 1.84088 -1.45427 0
M  V30 1756 C 165.995 1.70545 -0.34501 0
M  V30 1757 O 167.171 1.92488 -0.592492 0
M  V30 1758 C 164.236 3.20056 -1.33286 0
M  V30 1759 C 163.297 3.45718 -2.54514 0
M  V30 1760 C 162.53 4.75199 -2.42944 0
M  V30 1761 O 162.753 5.51579 -1.45318 0
M  V30 1762 O 161.687 5.0161 -3.32672 0
M  V30 1763 H 165.513 1.836 -2.41919 0
M  V30 1764 H 163.098 0.849966 -1.22866 0
M  V30 1765 H 164.98 4.01236 -1.28794 0
M  V30 1766 H 163.655 3.2123 -0.39909 0
M  V30 1767 H 162.562 2.64474 -2.64583 0
M  V30 1768 H 163.895 3.49356 -3.46715 0
M  V30 1769 N 165.547 1.27147 0.931209 0
M  V30 1770 C 166.796 1.12664 1.67302 0
M  V30 1771 C 167.109 -0.327718 1.92835 0
M  V30 1772 O 168.315 -0.593392 2.64936 0
M  V30 1773 C 166.771 1.9683 3.01307 0
M  V30 1774 C 166.379 3.46901 2.83485 0
M  V30 1775 C 168.123 1.90985 3.79111 0
M  V30 1776 C 166.03 4.23279 4.13024 0
M  V30 1777 H 164.96 0.41803 0.627509 0
M  V30 1778 H 167.611 1.51539 1.03481 0
M  V30 1779 H 165.993 1.50797 3.66164 0
M  V30 1780 H 167.167 4.00773 2.27415 0
M  V30 1781 H 165.482 3.54088 2.19113 0
M  V30 1782 H 168.079 2.45328 4.75098 0
M  V30 1783 H 168.422 0.882718 4.06834 0
M  V30 1784 H 168.955 2.34895 3.21044 0
M  V30 1785 H 165.694 5.26503 3.90481 0
M  V30 1786 H 165.214 3.74186 4.6877 0
M  V30 1787 H 166.893 4.32265 4.81411 0
M  V30 1788 N 167.025 -1.13721 1.09112 0
M  V30 1789 C 168.274 -1.84275 0.82009 0
M  V30 1790 C 168.587 -1.84253 -0.656509 0
M  V30 1791 O 169.793 -2.50668 -1.04296 0
M  V30 1792 C 168.249 -3.30825 1.41714 0
M  V30 1793 C 167.857 -3.39244 2.92605 0
M  V30 1794 C 169.601 -4.06443 1.22492 0
M  V30 1795 C 167.508 -4.80047 3.45411 0
M  V30 1796 H 166.438 -0.690387 0.30312 0
M  V30 1797 H 169.089 -1.28146 1.31343 0
M  V30 1798 H 167.471 -3.86737 0.851498 0
M  V30 1799 H 168.645 -2.93344 3.55367 0
M  V30 1800 H 166.96 -2.77088 3.10823 0
M  V30 1801 H 169.557 -5.10387 1.59402 0
M  V30 1802 H 169.9 -4.15972 0.165299 0
M  V30 1803 H 170.433 -3.56852 1.75788 0
M  V30 1804 H 167.172 -4.75709 4.50978 0
M  V30 1805 H 166.692 -5.26455 2.87411 0
M  V30 1806 H 168.371 -5.48957 3.42425 0
M  V30 1807 N 168.503 -0.877838 -1.30888 0
M  V30 1808 C 169.466 -0.344265 -2.266 0
M  V30 1809 C 170.466 0.50922 -1.52524 0
M  V30 1810 O 171.656 0.317398 -1.71284 0
M  V30 1811 C 168.788 0.510198 -3.37061 0
M  V30 1812 H 169.981 -1.1893 -2.7531 0
M  V30 1813 H 167.534 -0.654088 -1.41956 0
M  V30 1814 H 168.269 1.37612 -2.93655 0
M  V30 1815 H 168.054 -0.101047 -3.9197 0
M  V30 1816 H 169.544 0.875537 -4.08319 0
M  V30 1817 N 169.982 1.44106 -0.638065 0
M  V30 1818 C 171.207 2.0685 -0.150916 0
M  V30 1819 C 171.632 1.47417 1.16833 0
M  V30 1820 O 170.99 0.578264 1.71831 0
M  V30 1821 C 171.038 3.60555 -0.05708 0
M  V30 1822 O 170.142 4.00465 0.984972 0
M  V30 1823 H 169.483 0.658151 -0.0879399 0
M  V30 1824 H 172.013 1.84865 -0.876707 0
M  V30 1825 H 172.023 4.07789 0.131232 0
M  V30 1826 H 170.698 4.03193 -1.02021 0
M  V30 1827 H 169.275 3.64849 0.770672 0
M  V30 1828 N 171.46 0.379036 1.52974 0
M  V30 1829 C 172.876 0.0285448 1.59574 0
M  V30 1830 C 173.076 -1.45542 1.39355 0
M  V30 1831 O 172.132 -2.2187 1.20541 0
M  V30 1832 C 173.445 0.496535 2.96572 0
M  V30 1833 C 174.993 0.451909 3.0972 0
M  V30 1834 C 175.468 0.895924 4.49152 0
M  V30 1835 N 176.959 0.851522 4.55306 0
M  V30 1836 C 177.694 1.16661 5.61407 0
M  V30 1837 N 177.19 1.55166 6.752 0
M  V30 1838 N 178.983 1.08853 5.51459 0
M  V30 1839 H 171.134 1.34525 1.64367 0
M  V30 1840 H 173.397 0.550733 0.771619 0
M  V30 1841 H 173.103 1.53258 3.16552 0
M  V30 1842 H 172.977 -0.109802 3.7704 0
M  V30 1843 H 175.364 -0.575029 2.89443 0
M  V30 1844 H 175.445 1.09392 2.3123 0
M  V30 1845 H 175.089 1.92104 4.70168 0
M  V30 1846 H 175.019 0.23103 5.26093 0
M  V30 1847 H 177.51 0.568038 3.73606 0
M  V30 1848 H 177.823 1.776 7.52116 0
M  V30 1849 H 176.168 1.59044 6.76557 0
M  V30 1850 H 179.359 0.786803 4.6144 0
M  V30 1851 H 179.532 1.33742 6.34048 0
M  V30 1852 N 172.938 -1.57226 0.108567 0
M  V30 1853 C 174.166 -1.99179 -0.559954 0
M  V30 1854 C 174.581 -0.988022 -1.60884 0
M  V30 1855 O 173.938 0.0205512 -1.82488 0
M  V30 1856 C 173.989 -3.41159 -1.19552 0
M  V30 1857 O 173.71 -4.37694 -0.188577 0
M  V30 1858 C 175.211 -3.98188 -1.94837 0
M  V30 1859 H 172.431 -0.654228 -0.149088 0
M  V30 1860 H 174.975 -2.03598 0.19183 0
M  V30 1861 H 173.13 -3.37711 -1.89815 0
M  V30 1862 H 173.544 -5.20469 -0.649014 0
M  V30 1863 H 175.018 -4.99644 -2.34648 0
M  V30 1864 H 175.495 -3.3675 -2.81951 0
M  V30 1865 H 176.101 -4.0515 -1.2936 0
M  V30 1866 N 174.416 0.165178 -1.56732 0
M  V30 1867 C 175.827 0.727046 -1.71962 0
M  V30 1868 C 176.178 1.82508 -0.720078 0
M  V30 1869 O 175.303 2.16082 0.117242 0
M  V30 1870 C 175.898 1.32559 -3.11791 0
M  V30 1871 C 174.457 1.83422 -3.28684 0
M  V30 1872 C 173.604 0.715567 -2.67908 0
M  V30 1873 H 176.555 -0.0602896 -1.58585 0
M  V30 1874 H 176.576 2.19533 -3.10782 0
M  V30 1875 H 176.088 0.526195 -3.84516 0
M  V30 1876 H 174.189 2.65986 -2.60926 0
M  V30 1877 H 174.302 1.97543 -4.36478 0
M  V30 1878 H 172.666 1.13758 -2.27884 0
M  V30 1879 H 173.449 -0.0720836 -3.43224 0
M  V30 1880 N 175.894 1.51508 0.433938 0
M  V30 1881 C 176.804 1.75917 1.5521 0
M  V30 1882 C 177.82 0.643545 1.61662 0
M  V30 1883 O 178.996 0.926183 1.7884 0
M  V30 1884 C 176.061 1.88213 2.91164 0
M  V30 1885 C 175.122 3.12074 2.94802 0
M  V30 1886 C 174.355 3.23774 4.24271 0
M  V30 1887 O 174.578 2.4133 5.16833 0
M  V30 1888 O 173.512 4.16774 4.34262 0
M  V30 1889 H 177.338 2.70777 1.37527 0
M  V30 1890 H 174.923 1.36051 0.617293 0
M  V30 1891 H 176.805 1.98267 3.71845 0
M  V30 1892 H 175.48 0.965413 3.08968 0
M  V30 1893 H 174.387 3.07497 2.13065 0
M  V30 1894 H 175.72 4.03446 2.81943 0
M  V30 1895 N 177.372 -0.689602 1.41712 0
M  V30 1896 C 178.282 -1.83314 1.46401 0
M  V30 1897 C 179.298 -1.7036 0.35405 0
M  V30 1898 O 180.474 -1.92171 0.602692 0
M  V30 1899 C 177.539 -3.19344 1.34982 0
M  V30 1900 C 176.6 -3.44363 2.56344 0
M  V30 1901 C 175.833 -4.73904 2.45461 0
M  V30 1902 O 176.056 -5.508 1.48241 0
M  V30 1903 O 174.99 -4.99839 3.35328 0
M  V30 1904 H 178.816 -1.82314 2.42889 0
M  V30 1905 H 176.401 -0.843438 1.23315 0
M  V30 1906 H 178.283 -4.00547 1.3092 0
M  V30 1907 H 176.958 -3.21014 0.41612 0
M  V30 1908 H 175.865 -2.63067 2.65982 0
M  V30 1909 H 177.198 -3.47512 3.48563 0
M  V30 1910 N 178.85 -1.27639 -0.924453 0
M  V30 1911 C 179.78 -1.13166 -2.04244 0
M  V30 1912 C 180.761 -0.032256 -1.70069 0
M  V30 1913 O 181.946 -0.207328 -1.9309 0
M  V30 1914 C 179.076 -0.781496 -3.38393 0
M  V30 1915 C 178.03 -1.83449 -3.86692 0
M  V30 1916 C 177.356 -1.33822 -5.17683 0
M  V30 1917 C 178.656 -3.23917 -4.09726 0
M  V30 1918 H 180.35 -2.06689 -2.1661 0
M  V30 1919 H 177.896 -0.995136 -1.04082 0
M  V30 1920 H 179.849 -0.667057 -4.16087 0
M  V30 1921 H 178.573 0.189439 -3.2605 0
M  V30 1922 H 177.232 -1.93789 -3.11193 0
M  V30 1923 H 176.88 -0.35665 -5.01734 0
M  V30 1924 H 176.58 -2.04224 -5.50968 0
M  V30 1925 H 178.104 -1.23679 -5.97943 0
M  V30 1926 H 179.518 -3.16559 -4.77978 0
M  V30 1927 H 177.915 -3.92059 -4.54324 0
M  V30 1928 H 178.985 -3.68729 -3.14908 0
M  V30 1929 N 180.328 1.1314 -1.09713 0
M  V30 1930 C 181.744 1.36477 -0.827423 0
M  V30 1931 C 181.944 1.93654 0.556817 0
M  V30 1932 O 181 2.15791 1.31112 0
M  V30 1933 C 182.313 2.31334 -1.92106 0
M  V30 1934 C 183.861 2.44943 -1.94864 0
M  V30 1935 C 184.336 3.4311 -3.0338 0
M  V30 1936 N 185.827 3.50662 -3.02639 0
M  V30 1937 C 186.562 4.2651 -3.83246 0
M  V30 1938 N 186.058 5.05485 -4.73768 0
M  V30 1939 N 187.851 4.2184 -3.71493 0
M  V30 1940 H 180.002 0.743807 -1.9895 0
M  V30 1941 H 182.265 0.389823 -0.864143 0
M  V30 1942 H 181.971 1.96483 -2.91698 0
M  V30 1943 H 181.845 3.31381 -1.80184 0
M  V30 1944 H 184.232 2.79079 -0.959099 0
M  V30 1945 H 184.313 1.4481 -2.10864 0
M  V30 1946 H 183.957 3.09704 -4.02549 0
M  V30 1947 H 183.887 4.43055 -2.84622 0
M  V30 1948 H 186.378 2.94315 -2.37039 0
M  V30 1949 H 186.691 5.60675 -5.3185 0
M  V30 1950 H 185.036 5.04708 -4.77802 0
M  V30 1951 H 188.227 3.5922 -3.00131 0
M  V30 1952 H 188.4 4.80697 -4.3455 0
M  V30 1953 N 181.806 0.884767 1.30421 0
M  V30 1954 C 182.769 0.356277 2.26414 0
M  V30 1955 C 183.769 -0.501124 1.52792 0
M  V30 1956 O 184.959 -0.30831 1.7145 0
M  V30 1957 C 182.091 -0.492316 3.37326 0
M  V30 1958 H 183.284 1.20389 2.74675 0
M  V30 1959 H 180.837 0.661607 1.41607 0
M  V30 1960 H 181.572 -1.36052 2.94381 0
M  V30 1961 H 181.357 0.121832 3.91911 0
M  V30 1962 H 182.847 -0.853871 4.08777 0
M  V30 1963 N 183.284 -1.43765 0.645699 0
M  V30 1964 C 184.533 -2.01116 0.153412 0
M  V30 1965 C 184.846 -1.51493 -1.23731 0
M  V30 1966 O 186.052 -2.01067 -1.8244 0
M  V30 1967 C 184.508 -3.59206 0.223473 0
M  V30 1968 C 184.116 -4.17823 1.61642 0
M  V30 1969 C 185.86 -4.23972 -0.211597 0
M  V30 1970 C 183.767 -5.68183 1.64081 0
M  V30 1971 H 182.697 -0.752093 0.0535891 0
M  V30 1972 H 185.348 -1.6482 0.806633 0
M  V30 1973 H 183.73 -3.92867 -0.497118 0
M  V30 1974 H 184.904 -3.95674 2.36176 0
M  V30 1975 H 183.219 -3.65399 1.99681 0
M  V30 1976 H 185.816 -5.34275 -0.213112 0
M  V30 1977 H 186.159 -3.97352 -1.24165 0
M  V30 1978 H 186.692 -3.95166 0.456988 0
M  V30 1979 H 183.431 -5.99559 2.64971 0
M  V30 1980 H 182.951 -5.9241 0.938611 0
M  V30 1981 H 184.63 -6.32085 1.3812 0
M  V30 1982 N 184.763 -0.387143 -1.52771 0
M  V30 1983 C 185.71 0.449048 -2.26389 0
M  V30 1984 C 186.68 1.05961 -1.27912 0
M  V30 1985 O 187.865 1.08804 -1.56737 0
M  V30 1986 C 185.005 1.57155 -3.0724 0
M  V30 1987 C 184.118 0.984066 -4.20643 0
M  V30 1988 C 183.253 2.07745 -4.88892 0
M  V30 1989 C 182.292 1.46574 -5.94292 0
M  V30 1990 N 181.429 2.49834 -6.56146 0
M  V30 1991 H 186.269 -0.185205 -2.97424 0
M  V30 1992 H 183.806 -0.103164 -1.46738 0
M  V30 1993 H 185.764 2.23309 -3.52405 0
M  V30 1994 H 184.394 2.17615 -2.38419 0
M  V30 1995 H 183.446 0.212193 -3.79808 0
M  V30 1996 H 184.758 0.497029 -4.96318 0
M  V30 1997 H 183.912 2.81673 -5.3735 0
M  V30 1998 H 182.651 2.59807 -4.12737 0
M  V30 1999 H 181.656 0.711696 -5.45174 0
M  V30 2000 H 182.881 0.953088 -6.72379 0
M  V30 2001 H 180.827 3.0107 -5.82832 0
M  V30 2002 H 180.744 2.05879 -7.27427 0
M  V30 2003 H 182.012 3.23399 -7.09249 0
M  V30 2004 N 186.241 1.57166 -0.116904 0
M  V30 2005 C 187.173 2.12271 0.864507 0
M  V30 2006 C 188.186 1.06494 1.23138 0
M  V30 2007 O 189.375 1.33873 1.18069 0
M  V30 2008 C 186.475 2.60564 2.16702 0
M  V30 2009 C 185.648 3.90416 1.97216 0
M  V30 2010 C 184.707 4.24329 3.11178 0
M  V30 2011 O 183.733 4.93182 2.84184 0
M  V30 2012 N 184.935 3.8148 4.37554 0
M  V30 2013 H 187.7 2.97102 0.393726 0
M  V30 2014 H 185.261 1.61759 0.0675805 0
M  V30 2015 H 187.253 2.80282 2.91932 0
M  V30 2016 H 185.823 1.80623 2.55135 0
M  V30 2017 H 185.043 3.79627 1.06192 0
M  V30 2018 H 186.331 4.75327 1.81499 0
M  V30 2019 H 185.729 3.25943 4.62361 0
M  V30 2020 H 184.286 4.06311 5.09661 0
M  V30 2021 N 187.719 -0.156864 1.56817 0
M  V30 2022 C 188.965 -0.872416 1.83076 0
M  V30 2023 C 189.298 -1.81261 0.697001 0
M  V30 2024 O 188.573 -1.92171 -0.30008 0
M  V30 2025 C 188.856 -1.65551 3.19789 0
M  V30 2026 C 188.709 -0.737467 4.43713 0
M  V30 2027 C 190.028 -2.62012 3.53606 0
M  V30 2028 H 187.147 -0.315715 0.665953 0
M  V30 2029 H 189.789 -0.138004 1.89498 0
M  V30 2030 H 187.939 -2.28159 3.14445 0
M  V30 2031 H 189.611 -0.123143 4.61136 0
M  V30 2032 H 187.854 -0.0464067 4.33775 0
M  V30 2033 H 188.525 -1.32122 5.35955 0
M  V30 2034 H 191.001 -2.09525 3.59497 0
M  V30 2035 H 189.877 -3.13861 4.50314 0
M  V30 2036 H 190.138 -3.42902 2.79053 0
M  V30 2037 N 189.197 -1.51736 -0.425897 0
M  V30 2038 C 190.427 -1.68549 -1.19476 0
M  V30 2039 C 190.835 -0.387288 -1.85194 0
M  V30 2040 O 190.178 0.645142 -1.71999 0
M  V30 2041 C 190.24 -2.75275 -2.31223 0
M  V30 2042 C 189.904 -4.17534 -1.8578 0
M  V30 2043 C 190.901 -5.01936 -1.35485 0
M  V30 2044 C 188.586 -4.6369 -1.93123 0
M  V30 2045 C 190.58 -6.30559 -0.931347 0
M  V30 2046 C 188.267 -5.92307 -1.50384 0
M  V30 2047 C 189.265 -6.75569 -1.00473 0
M  V30 2048 O 188.953 -8.0178 -0.583452 0
M  V30 2049 H 188.685 -0.568525 -0.365725 0
M  V30 2050 H 191.239 -1.98982 -0.509444 0
M  V30 2051 H 189.469 -2.40182 -3.03067 0
M  V30 2052 H 191.158 -2.80853 -2.93047 0
M  V30 2053 H 191.924 -4.67475 -1.29197 0
M  V30 2054 H 187.803 -3.98997 -2.30916 0
M  V30 2055 H 191.347 -6.95498 -0.541084 0
M  V30 2056 H 187.244 -6.2628 -1.56346 0
M  V30 2057 H 188.012 -8.1543 -0.708275 0
M  V30 2058 N 190.675 0.682077 -1.42076 0
M  V30 2059 C 191.585 1.82535 -1.47371 0
M  V30 2060 C 192.601 1.7017 -0.363079 0
M  V30 2061 O 193.777 1.91848 -0.612875 0
M  V30 2062 C 190.842 3.18624 -1.36674 0
M  V30 2063 C 189.903 3.42999 -2.58167 0
M  V30 2064 C 189.136 4.72595 -2.4797 0
M  V30 2065 O 189.359 5.50006 -1.5116 0
M  V30 2066 O 188.293 4.98054 -3.37974 0
M  V30 2067 H 192.119 1.81023 -2.43853 0
M  V30 2068 H 189.704 0.836887 -1.2376 0
M  V30 2069 H 191.586 3.99847 -1.33043 0
M  V30 2070 H 190.261 3.20789 -0.433138 0
M  V30 2071 H 189.168 2.61653 -2.67373 0
M  V30 2072 H 190.501 3.45659 -3.50401 0
M  V30 2073 N 192.153 1.28127 0.917671 0
M  V30 2074 C 193.063 1.13556 2.05286 0
M  V30 2075 C 194.079 0.0630914 1.73886 0
M  V30 2076 O 195.255 0.271598 1.9956 0
M  V30 2077 C 192.32 0.794676 3.3747 0
M  V30 2078 C 191.381 1.94909 3.82504 0
M  V30 2079 C 190.614 1.62437 5.0838 0
M  V30 2080 O 190.837 0.536905 5.67867 0
M  V30 2081 O 189.771 2.46677 5.4903 0
M  V30 2082 H 193.597 2.08844 2.20495 0
M  V30 2083 H 191.182 1.07409 1.03845 0
M  V30 2084 H 193.064 0.618344 4.16839 0
M  V30 2085 H 191.739 -0.128581 3.23445 0
M  V30 2086 H 190.646 2.18055 3.03978 0
M  V30 2087 H 191.979 2.85291 4.01086 0
M  V30 2088 N 193.631 -1.12557 1.10312 0
M  V30 2089 C 194.541 -2.21841 0.763142 0
M  V30 2090 C 195.557 -1.72354 -0.238801 0
M  V30 2091 O 196.733 -2.01249 -0.0778746 0
M  V30 2092 C 193.798 -3.46131 0.198632 0
M  V30 2093 C 192.859 -4.10464 1.25769 0
M  V30 2094 C 192.092 -5.28821 0.72002 0
M  V30 2095 O 192.315 -5.6859 -0.453993 0
M  V30 2096 O 191.249 -5.83437 1.47935 0
M  V30 2097 H 195.075 -2.53312 1.67532 0
M  V30 2098 H 192.66 -1.20867 0.878157 0
M  V30 2099 H 194.542 -4.2125 -0.112401 0
M  V30 2100 H 193.217 -3.16338 -0.686419 0
M  V30 2101 H 192.124 -3.3713 1.62156 0
M  V30 2102 H 193.457 -4.44408 2.11571 0
M  V30 2103 N 195.109 -0.891671 -1.2995 0
M  V30 2104 C 196.339 -0.527893 -1.99742 0
M  V30 2105 C 196.747 0.88979 -1.66971 0
M  V30 2106 O 196.09 1.59766 -0.906667 0
M  V30 2107 C 196.152 -0.630804 -3.53922 0
M  V30 2108 C 195.816 -2.01401 -4.10228 0
M  V30 2109 C 196.813 -2.98422 -4.25724 0
M  V30 2110 C 194.498 -2.32121 -4.45449 0
M  V30 2111 C 196.492 -4.24293 -4.75662 0
M  V30 2112 C 194.179 -3.58237 -4.95086 0
M  V30 2113 C 195.177 -4.54137 -5.10146 0
M  V30 2114 O 194.865 -5.78014 -5.58708 0
M  V30 2115 H 194.597 -0.201953 -0.645129 0
M  V30 2116 H 197.151 -1.20076 -1.66646 0
M  V30 2117 H 195.381 0.0990616 -3.86573 0
M  V30 2118 H 197.07 -0.277338 -4.04951 0
M  V30 2119 H 197.836 -2.76001 -3.98809 0
M  V30 2120 H 193.715 -1.5824 -4.32991 0
M  V30 2121 H 197.259 -4.99153 -4.87332 0
M  V30 2122 H 193.156 -3.80491 -5.21437 0
M  V30 2123 H 193.924 -5.8049 -5.77039 0
M  V30 2124 N 196.587 1.43421 -0.653314 0
M  V30 2125 C 197.835 2.01414 -0.166415 0
M  V30 2126 C 198.156 1.51803 1.22397 0
M  V30 2127 O 197.426 0.730693 1.81763 0
M  V30 2128 H 196.006 0.744703 -0.0585319 0
M  V30 2129 H 198.668 1.75629 -0.845003 0
M  V30 2130 H 197.764 3.11734 -0.151111 0
M  V30 2131 N 198.065 0.39524 1.52563 0
M  V30 2132 C 199.29 -0.187456 2.06551 0
M  V30 2133 C 199.715 -1.39249 1.26457 0
M  V30 2134 O 199.073 -1.78947 0.291151 0
M  V30 2135 C 199.121 -0.529985 3.56684 0
M  V30 2136 O 198.225 -1.62307 3.79118 0
M  V30 2137 H 197.566 -0.0202537 0.663691 0
M  V30 2138 H 200.096 0.564426 1.96661 0
M  V30 2139 H 200.106 -0.792598 4.00227 0
M  V30 2140 H 198.781 0.350987 4.14416 0
M  V30 2141 H 197.358 -1.3537 3.47461 0
M  V30 2142 N 199.544 -1.57102 0.125237 0
M  V30 2143 C 200.769 -2.0019 -0.542101 0
M  V30 2144 C 201.194 -1.00449 -1.59034 0
M  V30 2145 O 200.552 0.0229423 -1.81285 0
M  V30 2146 C 200.6 -3.42129 -1.13929 0
M  V30 2147 O 199.704 -3.45307 -2.2547 0
M  V30 2148 H 199.045 -0.650171 -0.134812 0
M  V30 2149 H 201.575 -2.03461 0.215553 0
M  V30 2150 H 201.585 -3.80471 -1.4733 0
M  V30 2151 H 200.26 -4.14237 -0.371531 0
M  V30 2152 H 198.837 -3.1879 -1.93462 0
M  V30 2153 N 201.022 0.148545 -1.56898 0
M  V30 2154 C 201.952 1.18524 -2.01182 0
M  V30 2155 C 202.933 1.4489 -0.891123 0
M  V30 2156 O 204.118 1.55836 -1.15882 0
M  V30 2157 C 201.248 2.51879 -2.39112 0
M  V30 2158 C 200.202 2.40038 -3.54353 0
M  V30 2159 C 199.528 3.78089 -3.78091 0
M  V30 2160 C 200.828 1.88577 -4.87069 0
M  V30 2161 H 202.522 0.817029 -2.88036 0
M  V30 2162 H 200.068 0.391575 -1.38574 0
M  V30 2163 H 202.021 3.24627 -2.68692 0
M  V30 2164 H 200.745 2.90532 -1.49193 0
M  V30 2165 H 199.404 1.69742 -3.24936 0
M  V30 2166 H 199.052 4.14175 -2.85426 0
M  V30 2167 H 198.752 3.71028 -4.55645 0
M  V30 2168 H 200.276 4.52387 -4.10095 0
M  V30 2169 H 201.69 2.51117 -5.15377 0
M  V30 2170 H 200.087 1.9241 -5.68417 0
M  V30 2171 H 201.157 0.84136 -4.77545 0
M  V30 2172 N 202.5 1.5196 0.417844 0
M  V30 2173 C 203.41 1.77554 1.53336 0
M  V30 2174 C 204.426 0.660655 1.6097 0
M  V30 2175 O 205.602 0.945099 1.77848 0
M  V30 2176 C 202.667 1.91291 2.89152 0
M  V30 2177 C 201.728 3.15183 2.91475 0
M  V30 2178 C 200.961 3.28256 4.20813 0
M  V30 2179 O 201.184 2.46798 5.14244 0
M  V30 2180 O 200.118 4.21356 4.29817 0
M  V30 2181 H 203.944 2.7222 1.34647 0
M  V30 2182 H 201.529 1.36698 0.602828 0
M  V30 2183 H 203.411 2.02199 3.69721 0
M  V30 2184 H 202.086 0.998129 3.07927 0
M  V30 2185 H 200.993 3.09739 2.09791 0
M  V30 2186 H 202.326 4.06414 2.77648 0
M  V30 2187 N 203.978 -0.674533 1.42435 0
M  V30 2188 C 205.255 -1.4305 1.33402 0
M  V30 2189 C 205.635 -2.11081 -0.0284674 0
M  V30 2190 O 204.983 -2.03257 -1.04397 0
M  V30 2191 C 205.193 -2.43272 2.50239 0
M  V30 2192 C 206.541 -3.07907 2.92367 0
M  V30 2193 O 207.565 -2.53599 2.50132 0
M  V30 2194 O 206.424 -4.0632 3.65467 0
M  V30 2195 H 203.518 -0.638076 0.526106 0
M  V30 2196 H 206.064 -0.703235 1.54443 0
M  V30 2197 H 204.836 -1.91803 3.41068 0
M  V30 2198 H 204.459 -3.23479 2.31186 0
M  V30 2199 N 205.456 -1.28612 -0.910864 0
M  V30 2200 C 206.733 -1.06632 -1.63979 0
M  V30 2201 C 207.113 0.393351 -2.07403 0
M  V30 2202 O 206.461 1.37999 -1.82122 0
M  V30 2203 C 206.671 -2.0436 -2.8291 0
M  V30 2204 C 208.019 -2.34666 -3.5386 0
M  V30 2205 O 209.043 -2.02467 -2.93062 0
M  V30 2206 O 207.902 -2.89631 -4.63439 0
M  V30 2207 H 204.996 -0.407737 -0.7195 0
M  V30 2208 H 207.542 -1.39942 -0.959914 0
M  V30 2209 H 206.314 -3.02727 -2.47936 0
M  V30 2210 H 205.937 -1.71714 -3.58609 0
M  V30 2211 N 206.934 1.1197 -1.10907 0
M  V30 2212 C 208.18 1.8386 -0.855773 0
M  V30 2213 C 208.513 1.84134 0.617103 0
M  V30 2214 O 207.788 1.29041 1.45529 0
M  V30 2215 C 208.071 3.31305 -1.411 0
M  V30 2216 C 207.924 3.39456 -2.9511 0
M  V30 2217 C 209.243 4.2721 -1.05736 0
M  V30 2218 H 206.362 0.667545 -0.312334 0
M  V30 2219 H 209.004 1.31331 -1.37303 0
M  V30 2220 H 207.154 3.76169 -0.97105 0
M  V30 2221 H 208.826 3.03191 -3.47668 0
M  V30 2222 H 207.069 2.79849 -3.31462 0
M  V30 2223 H 207.74 4.43209 -3.29044 0
M  V30 2224 H 210.216 3.90497 -1.43706 0
M  V30 2225 H 209.092 5.28775 -1.47269 0
M  V30 2226 H 209.353 4.42088 0.0325958 0
M  V30 2227 N 208.412 0.89855 1.29475 0
M  V30 2228 C 209.658 0.524658 1.95896 0
M  V30 2229 C 209.991 -0.926468 1.70676 0
M  V30 2230 O 209.266 -1.65665 1.01908 0
M  V30 2231 C 209.549 0.81633 3.50725 0
M  V30 2232 C 209.402 2.31907 3.85408 0
M  V30 2233 C 210.721 0.302038 4.39062 0
M  V30 2234 H 207.84 0.19209 0.711527 0
M  V30 2235 H 210.482 1.12502 1.53112 0
M  V30 2236 H 208.632 0.305369 3.87298 0
M  V30 2237 H 210.304 2.89949 3.58786 0
M  V30 2238 H 208.547 2.78027 3.32992 0
M  V30 2239 H 209.218 2.47373 4.93468 0
M  V30 2240 H 211.694 0.739551 4.09475 0
M  V30 2241 H 210.57 0.535331 5.46283 0
M  V30 2242 H 210.831 -0.797216 4.34853 0
M  V30 2243 N 209.89 -1.43072 0.660911 0
M  V30 2244 C 211.138 -2.01323 0.177094 0
M  V30 2245 C 211.459 -1.5245 -1.2159 0
M  V30 2246 O 210.729 -0.740322 -1.81373 0
M  V30 2247 H 209.309 -0.744382 0.0624804 0
M  V30 2248 H 211.971 -1.75179 0.854305 0
M  V30 2249 H 211.067 -3.11649 0.167641 0
M  V30 2250 N 211.368 -0.403325 -1.52352 0
M  V30 2251 C 212.645 0.232611 -1.94212 0
M  V30 2252 C 213.025 1.63133 -1.33981 0
M  V30 2253 O 212.373 2.22659 -0.513344 0
M  V30 2254 C 212.583 0.244811 -3.4814 0
M  V30 2255 C 213.931 0.46698 -4.22024 0
M  V30 2256 O 214.955 0.324419 -3.5472 0
M  V30 2257 O 213.814 0.74747 -5.41364 0
M  V30 2258 H 210.908 0.148223 -0.813609 0
M  V30 2259 H 213.454 -0.458848 -1.63379 0
M  V30 2260 H 212.226 -0.734378 -3.84347 0
M  V30 2261 H 211.849 0.980611 -3.85318 0
M  V30 2262 N 212.846 1.57033 -0.133567 0
M  V30 2263 C 214.074 2.00044 0.528195 0
M  V30 2264 C 214.489 1.01349 1.59291 0
M  V30 2265 O 213.846 0.00848369 1.82498 0
M  V30 2266 C 213.897 3.43018 1.1411 0
M  V30 2267 O 213.618 4.37939 0.11892 0
M  V30 2268 C 215.119 4.01237 1.88477 0
M  V30 2269 H 212.339 0.656517 0.138661 0
M  V30 2270 H 214.883 2.03267 -0.224196 0
M  V30 2271 H 213.038 3.40688 1.84418 0
M  V30 2272 H 213.452 5.21436 0.56613 0
M  V30 2273 H 214.926 5.03314 2.26669 0
M  V30 2274 H 215.403 3.41193 2.76558 0
M  V30 2275 H 216.009 4.07156 1.22898 0
M  V30 2276 N 214.325 -0.140222 1.56975 0
M  V30 2277 C 215.55 -0.870414 1.88251 0
M  V30 2278 C 215.975 -1.73637 0.723312 0
M  V30 2279 O 215.333 -1.78329 -0.32689 0
M  V30 2280 C 215.381 -1.69737 3.18154 0
M  V30 2281 O 214.485 -2.80229 3.02565 0
M  V30 2282 H 213.826 -0.242025 0.61832 0
M  V30 2283 H 216.356 -0.128999 2.04193 0
M  V30 2284 H 216.366 -2.09099 3.50345 0
M  V30 2285 H 215.041 -1.06152 4.02125 0
M  V30 2286 H 213.618 -2.44224 2.81796 0
M  V30 2287 N 215.803 -1.52179 -0.40978 0
M  V30 2288 C 217.051 -1.65878 -1.15451 0
M  V30 2289 C 217.372 -0.390771 -1.91044 0
M  V30 2290 O 216.642 0.594323 -1.86667 0
M  V30 2291 H 215.222 -0.611405 -0.429177 0
M  V30 2292 H 217.884 -1.89219 -0.467134 0
M  V30 2293 H 216.98 -2.49954 -1.86894 0
M  V30 2294 N 217.281 0.66697 -1.42791 0
M  V30 2295 C 218.511 1.45294 -1.46878 0
M  V30 2296 C 218.919 1.89027 -0.0809861 0
M  V30 2297 O 218.262 1.59219 0.916246 0
M  V30 2298 C 218.324 2.72908 -2.34012 0
M  V30 2299 C 217.988 2.51203 -3.81767 0
M  V30 2300 C 218.985 2.15302 -4.73224 0
M  V30 2301 C 216.67 2.65954 -4.26115 0
M  V30 2302 C 218.664 1.94431 -6.07022 0
M  V30 2303 C 216.351 2.44699 -5.59969 0
M  V30 2304 C 217.349 2.08992 -6.5024 0
M  V30 2305 O 217.037 1.87948 -7.81621 0
M  V30 2306 H 216.769 0.453306 -0.501487 0
M  V30 2307 H 219.323 0.826232 -1.88049 0
M  V30 2308 H 217.553 3.38089 -1.87703 0
M  V30 2309 H 219.242 3.34816 -2.29462 0
M  V30 2310 H 220.008 2.03495 -4.40244 0
M  V30 2311 H 215.887 2.92724 -3.56137 0
M  V30 2312 H 219.431 1.66484 -6.77443 0
M  V30 2313 H 215.328 2.56105 -5.9252 0
M  V30 2314 H 216.096 2.02483 -7.93059 0
M  V30 2315 N 218.759 1.29093 0.90403 0
M  V30 2316 C 219.989 1.19516 1.68522 0
M  V30 2317 C 220.397 -0.24738 1.87576 0
M  V30 2318 O 219.74 -1.17798 1.40959 0
M  V30 2319 C 219.802 1.83249 3.0929 0
M  V30 2320 C 219.466 3.32531 3.13484 0
M  V30 2321 C 220.463 4.28821 2.93953 0
M  V30 2322 C 218.148 3.73656 3.35688 0
M  V30 2323 C 220.142 5.64212 2.96553 0
M  V30 2324 C 217.829 5.0917 3.37919 0
M  V30 2325 C 218.827 6.04258 3.18373 0
M  V30 2326 O 218.515 7.37298 3.20385 0
M  V30 2327 H 218.247 0.415467 0.533257 0
M  V30 2328 H 220.801 1.70912 1.13922 0
M  V30 2329 H 219.031 1.26358 3.65473 0
M  V30 2330 H 220.72 1.68054 3.69476 0
M  V30 2331 H 221.486 3.98382 2.76616 0
M  V30 2332 H 217.365 3.00101 3.49943 0
M  V30 2333 H 220.909 6.38407 2.81216 0
M  V30 2334 H 216.806 5.39256 3.54787 0
M  V30 2335 H 217.574 7.46048 3.36681 0
M  V30 2336 N 220.237 -1.11381 1.11499 0
M  V30 2337 C 221.169 -2.17207 0.731704 0
M  V30 2338 C 222.182 -1.61066 -0.236957 0
M  V30 2339 O 223.371 -1.78489 -0.0197591 0
M  V30 2340 C 220.471 -3.38846 0.0607624 0
M  V30 2341 C 219.644 -4.24451 1.0564 0
M  V30 2342 C 218.703 -5.24562 0.4149 0
M  V30 2343 O 217.729 -5.59071 1.069 0
M  V30 2344 N 218.931 -5.74651 -0.821943 0
M  V30 2345 H 221.696 -2.50699 1.64225 0
M  V30 2346 H 219.257 -1.26908 1.00529 0
M  V30 2347 H 221.249 -4.02911 -0.380139 0
M  V30 2348 H 219.819 -3.03411 -0.752376 0
M  V30 2349 H 219.039 -3.56833 1.67524 0
M  V30 2350 H 220.327 -4.78486 1.72998 0
M  V30 2351 H 219.725 -5.48797 -1.37252 0
M  V30 2352 H 218.282 -6.40549 -1.20582 0
M  V30 2353 N 221.715 -0.905404 -1.28997 0
M  V30 2354 C 223.131 -0.60233 -1.47798 0
M  V30 2355 C 223.331 0.854645 -1.82478 0
M  V30 2356 O 222.387 1.63439 -1.92468 0
M  V30 2357 C 223.7 -1.53306 -2.58685 0
M  V30 2358 C 225.248 -1.53887 -2.72558 0
M  V30 2359 C 225.723 -2.45602 -3.86579 0
M  V30 2360 N 227.214 -2.43681 -3.93921 0
M  V30 2361 C 227.949 -3.11347 -4.81509 0
M  V30 2362 N 227.445 -3.88313 -5.73746 0
M  V30 2363 N 229.238 -3.00476 -4.75048 0
M  V30 2364 H 221.389 -1.84765 -1.04764 0
M  V30 2365 H 223.652 -0.792025 -0.520961 0
M  V30 2366 H 223.358 -2.57141 -2.39941 0
M  V30 2367 H 223.232 -1.25787 -3.55609 0
M  V30 2368 H 225.619 -0.507941 -2.90696 0
M  V30 2369 H 225.7 -1.85447 -1.76191 0
M  V30 2370 H 225.344 -3.48792 -3.69197 0
M  V30 2371 H 225.274 -2.11349 -4.82327 0
M  V30 2372 H 227.765 -1.87767 -3.27951 0
M  V30 2373 H 228.078 -4.36985 -6.37389 0
M  V30 2374 H 226.423 -3.92419 -5.73614 0
M  V30 2375 H 229.614 -2.39858 -4.01977 0
M  V30 2376 H 229.787 -3.53485 -5.43095 0
M  V30 2377 N 223.193 1.4272 -0.668489 0
M  V30 2378 C 224.126 2.28111 0.0637898 0
M  V30 2379 C 225.104 1.40705 0.814912 0
M  V30 2380 O 226.288 1.70146 0.81134 0
M  V30 2381 C 223.415 3.20429 1.0974 0
M  V30 2382 C 222.461 4.24197 0.442579 0
M  V30 2383 S 223.294 5.29563 -0.795173 0
M  V30 2384 C 224.45 6.25449 0.237516 0
M  V30 2385 H 224.683 2.8987 -0.660521 0
M  V30 2386 H 222.216 1.47456 -0.457821 0
M  V30 2387 H 224.174 3.74158 1.68868 0
M  V30 2388 H 222.835 2.57818 1.79411 0
M  V30 2389 H 222.028 4.88954 1.22227 0
M  V30 2390 H 221.63 3.73925 -0.0749554 0
M  V30 2391 H 223.922 6.68524 1.09915 0
M  V30 2392 H 224.865 7.07104 -0.375421 0
M  V30 2393 H 225.273 5.61511 0.580167 0
M  V30 2394 N 224.671 0.411399 1.52136 0
M  V30 2395 C 225.601 -0.404015 2.29978 0
M  V30 2396 C 226.582 -1.04412 1.34284 0
M  V30 2397 O 227.767 -1.0527 1.63192 0
M  V30 2398 C 224.897 -1.5197 3.12286 0
M  V30 2399 C 223.851 -1.00448 4.16046 0
M  V30 2400 C 223.177 -2.21393 4.86712 0
M  V30 2401 C 224.477 -0.0569336 5.22269 0
M  V30 2402 H 226.171 0.245529 2.98392 0
M  V30 2403 H 223.717 0.119525 1.43503 0
M  V30 2404 H 225.67 -2.09715 3.6551 0
M  V30 2405 H 224.394 -2.19716 2.41646 0
M  V30 2406 H 223.053 -0.449421 3.63835 0
M  V30 2407 H 222.701 -2.87699 4.12599 0
M  V30 2408 H 222.401 -1.87571 5.56858 0
M  V30 2409 H 223.925 -2.7974 5.4275 0
M  V30 2410 H 225.339 -0.54325 5.7072 0
M  V30 2411 H 223.736 0.192594 5.99791 0
M  V30 2412 H 224.806 0.887663 4.76706 0
M  V30 2413 N 226.149 -1.5696 0.141893 0
M  V30 2414 C 227.395 -1.9625 -0.511248 0
M  V30 2415 C 227.728 -1.02654 -1.64851 0
M  V30 2416 O 227.003 -0.0679676 -1.94381 0
M  V30 2417 C 227.286 -3.45285 -1.02227 0
M  V30 2418 C 227.139 -4.49658 0.113138 0
M  V30 2419 C 228.458 -3.96698 -1.90574 0
M  V30 2420 H 225.577 -0.713567 -0.184367 0
M  V30 2421 H 228.219 -1.88698 0.222087 0
M  V30 2422 H 226.369 -3.51852 -1.64719 0
M  V30 2423 H 228.041 -4.55174 0.749302 0
M  V30 2424 H 226.284 -4.26857 0.773026 0
M  V30 2425 H 226.955 -5.51258 -0.286053 0
M  V30 2426 H 229.431 -3.92578 -1.37918 0
M  V30 2427 H 228.307 -5.01453 -2.2324 0
M  V30 2428 H 228.568 -3.3875 -2.84079 0
M  V30 2429 N 227.627 0.131896 -1.57047 0
M  V30 2430 C 228.873 0.843179 -1.84441 0
M  V30 2431 C 229.206 1.80129 -0.725749 0
M  V30 2432 O 228.481 1.92624 0.269469 0
M  V30 2433 C 228.764 1.60442 -3.22382 0
M  V30 2434 C 228.617 0.666782 -4.4483 0
M  V30 2435 C 229.936 2.56354 -3.5773 0
M  V30 2436 H 227.055 0.305081 -0.670891 0
M  V30 2437 H 229.697 0.107839 -1.89694 0
M  V30 2438 H 227.847 2.23128 -3.18035 0
M  V30 2439 H 229.519 0.0497646 -4.61273 0
M  V30 2440 H 227.762 -0.022609 -4.33794 0
M  V30 2441 H 228.433 1.23579 -5.37989 0
M  V30 2442 H 230.909 2.0378 -3.62785 0
M  V30 2443 H 229.785 3.06657 -4.5525 0
M  V30 2444 H 230.046 3.38419 -2.84473 0
M  V30 2445 N 229.106 1.52395 0.401703 0
M  V30 2446 C 230.036 1.79231 1.49661 0
M  V30 2447 C 231.017 0.643654 1.57452 0
M  V30 2448 O 232.202 0.889989 1.72606 0
M  V30 2449 C 229.332 1.94971 2.87409 0
M  V30 2450 C 228.286 3.10604 2.94465 0
M  V30 2451 C 227.612 3.11577 4.34538 0
M  V30 2452 C 228.912 4.49921 2.6527 0
M  V30 2453 H 230.606 2.70917 1.27454 0
M  V30 2454 H 228.152 1.30362 0.6117 0
M  V30 2455 H 230.105 2.12328 3.63999 0
M  V30 2456 H 228.829 0.999632 3.10926 0
M  V30 2457 H 227.488 2.93009 2.20321 0
M  V30 2458 H 227.136 2.14277 4.55076 0
M  V30 2459 H 226.836 3.89247 4.40183 0
M  V30 2460 H 228.36 3.31073 5.13053 0
M  V30 2461 H 229.774 4.67683 3.31581 0
M  V30 2462 H 228.171 5.29564 2.82281 0
M  V30 2463 H 229.241 4.57507 1.60671 0
M  V30 2464 N 230.584 -0.659388 1.43143 0
M  V30 2465 C 231.514 -1.78422 1.50625 0
M  V30 2466 C 232.495 -1.66216 0.361443 0
M  V30 2467 O 233.68 -1.85404 0.577834 0
M  V30 2468 C 230.81 -3.16815 1.42287 0
M  V30 2469 C 229.764 -3.43777 2.54954 0
M  V30 2470 C 229.09 -4.81905 2.31671 0
M  V30 2471 C 230.39 -3.39134 3.97222 0
M  V30 2472 H 232.084 -1.72417 2.44771 0
M  V30 2473 H 229.63 -0.828084 1.17808 0
M  V30 2474 H 231.583 -3.95253 1.46127 0
M  V30 2475 H 230.307 -3.23534 0.446435 0
M  V30 2476 H 228.966 -2.67707 2.50457 0
M  V30 2477 H 228.614 -4.85294 1.32284 0
M  V30 2478 H 228.314 -5.00906 3.07192 0
M  V30 2479 H 229.838 -5.62609 2.37284 0
M  V30 2480 H 231.252 -4.07518 4.03239 0
M  V30 2481 H 229.649 -3.69671 4.72719 0
M  V30 2482 H 230.719 -2.37426 4.22797 0
M  V30 2483 N 232.062 -1.29571 -0.897171 0
M  V30 2484 C 232.994 -1.10724 -2.00681 0
M  V30 2485 C 234.007 -0.0540026 -1.6271 0
M  V30 2486 O 235.196 -0.298783 -1.75982 0
M  V30 2487 C 232.296 -0.663912 -3.32333 0
M  V30 2488 C 231.469 -1.79622 -3.98816 0
M  V30 2489 C 230.528 -1.34349 -5.0876 0
M  V30 2490 O 229.554 -2.04864 -5.31055 0
M  V30 2491 N 230.756 -0.215764 -5.80099 0
M  V30 2492 H 233.521 -2.06291 -2.17403 0
M  V30 2493 H 231.082 -1.21544 -1.06951 0
M  V30 2494 H 233.074 -0.344295 -4.03233 0
M  V30 2495 H 231.644 0.199375 -3.11964 0
M  V30 2496 H 230.864 -2.28459 -3.21248 0
M  V30 2497 H 232.152 -2.55535 -4.39976 0
M  V30 2498 H 231.55 0.372091 -5.64475 0
M  V30 2499 H 230.107 0.0444707 -6.51785 0
M  V30 2500 N 233.54 1.10788 -1.12088 0
M  V30 2501 C 234.503 2.15207 -0.788577 0
M  V30 2502 C 235.503 1.59609 0.195317 0
M  V30 2503 O 236.693 1.74174 -0.0300193 0
M  V30 2504 C 233.825 3.4047 -0.171174 0
M  V30 2505 H 235.018 2.46116 -1.71368 0
M  V30 2506 H 232.571 1.26089 -0.923652 0
M  V30 2507 H 233.306 3.15176 0.763832 0
M  V30 2508 H 233.091 3.82109 -0.879514 0
M  V30 2509 H 234.581 4.17576 0.04496 0
M  V30 2510 N 235.018 0.912232 1.28515 0
M  V30 2511 C 235.966 0.389597 2.29314 0
M  V30 2512 C 236.96 -0.517915 1.61289 0
M  V30 2513 O 238.166 -0.399328 1.75515 0
M  V30 2514 H 234.541 0.107386 0.744293 0
M  V30 2515 H 236.512 1.25286 2.70825 0
M  V30 2516 C 235.261 -0.356496 3.45868 0
M  V30 2517 H 234.584 0.332608 3.98414 0
M  V30 2518 H 236.024 -0.686851 4.184 0
M  V30 2519 C 234.483 -1.56383 2.98406 0
M  V30 2520 O 235.013 -2.66294 3.00749 0
M  V30 2521 N 233.219 -1.41029 2.54085 0
M  V30 2522 H 232.766 -0.516089 2.52377 0
M  V30 2523 H 232.724 -2.21939 2.22689 0
M  V30 2524 N 236.496 -1.42363 0.676048 0
M  V30 2525 C 237.912 -1.55811 0.345718 0
M  V30 2526 C 238.112 -1.65544 -1.14879 0
M  V30 2527 O 237.168 -1.62306 -1.93424 0
M  V30 2528 C 238.481 -2.80746 1.07713 0
M  V30 2529 C 240.029 -2.9452 1.05958 0
M  V30 2530 C 240.504 -4.22318 1.77233 0
M  V30 2531 N 241.995 -4.29233 1.74108 0
M  V30 2532 C 242.73 -5.26935 2.26113 0
M  V30 2533 N 242.226 -6.30783 2.86505 0
M  V30 2534 N 244.019 -5.18741 2.1648 0
M  V30 2535 H 236.17 -1.34289 1.6456 0
M  V30 2536 H 238.433 -0.646506 0.69335 0
M  V30 2537 H 238.139 -2.79696 2.13221 0
M  V30 2538 H 238.013 -3.71676 0.64316 0
M  V30 2539 H 240.4 -2.95097 0.0128255 0
M  V30 2540 H 240.481 -2.04817 1.53244 0
M  V30 2541 H 240.125 -4.22502 2.81877 0
M  V30 2542 H 240.055 -5.10958 1.27396 0
M  V30 2543 H 242.546 -3.54814 1.30059 0
M  V30 2544 H 242.859 -7.01691 3.23805 0
M  V30 2545 H 241.204 -6.31341 2.90575 0
M  V30 2546 H 244.395 -4.36533 1.68987 0
M  V30 2547 H 244.568 -5.94721 2.57316 0
M  V30 2548 N 237.974 -0.419461 -1.51915 0
M  V30 2549 C 239.251 0.211999 -1.94448 0
M  V30 2550 C 239.631 1.61703 -1.35703 0
M  V30 2551 O 238.979 2.22102 -0.536931 0
M  V30 2552 C 239.189 0.207872 -3.4838 0
M  V30 2553 C 240.537 0.422192 -4.22496 0
M  V30 2554 O 241.561 0.286778 -3.55044 0
M  V30 2555 O 240.42 0.690009 -5.42126 0
M  V30 2556 H 237.514 0.139586 -0.815135 0
M  V30 2557 H 240.06 -0.476151 -1.62883 0
M  V30 2558 H 238.832 -0.775102 -3.83546 0
M  V30 2559 H 238.455 0.939688 -3.86336 0
M  V30 2560 N 239.452 1.56882 -0.150215 0
M  V30 2561 C 240.863 1.82995 0.370076 0
M  V30 2562 C 241.214 1.06907 1.64515 0
M  V30 2563 O 240.339 0.315369 2.1409 0
M  V30 2564 C 240.934 3.31942 0.678208 0
M  V30 2565 C 239.493 3.58625 1.14301 0
M  V30 2566 C 238.64 2.76792 0.167778 0
M  V30 2567 H 241.591 1.54209 -0.374858 0
M  V30 2568 H 241.612 3.48272 1.53254 0
M  V30 2569 H 241.124 3.87294 -0.249991 0
M  V30 2570 H 239.225 3.08664 2.08704 0
M  V30 2571 H 239.338 4.67073 1.06676 0
M  V30 2572 H 237.702 2.45972 0.661037 0
M  V30 2573 H 238.485 3.34916 -0.754069 0
M  V30 2574 N 240.93 -0.123565 1.57115 0
M  V30 2575 C 242.207 -0.862196 1.75572 0
M  V30 2576 C 242.587 -1.98279 0.724475 0
M  V30 2577 O 241.935 -2.27102 -0.252407 0
M  V30 2578 C 242.145 -1.38309 3.20424 0
M  V30 2579 C 243.493 -1.83724 3.82793 0
M  V30 2580 O 244.517 -1.47999 3.23998 0
M  V30 2581 O 243.376 -2.49685 4.86127 0
M  V30 2582 H 240.47 -0.409113 0.718718 0
M  V30 2583 H 243.016 -0.107661 1.69358 0
M  V30 2584 H 241.788 -0.578889 3.86994 0
M  V30 2585 H 241.411 -2.20046 3.31158 0
M  V30 2586 N 242.408 -1.52605 -0.393616 0
M  V30 2587 C 243.371 -1.76415 -1.46323 0
M  V30 2588 C 244.371 -0.634126 -1.47768 0
M  V30 2589 O 245.561 -0.902142 -1.4902 0
M  V30 2590 C 242.693 -1.8607 -2.85641 0
M  V30 2591 H 243.886 -2.71916 -1.26498 0
M  V30 2592 H 241.439 -1.43257 -0.625073 0
M  V30 2593 H 242.174 -0.925378 -3.10817 0
M  V30 2594 H 241.959 -2.68235 -2.85993 0
M  V30 2595 H 243.449 -2.06179 -3.63153 0
M  V30 2596 N 243.887 0.651787 -1.4349 0
M  V30 2597 C 245.135 1.40888 -1.44897 0
M  V30 2598 C 245.456 1.94856 -0.0749086 0
M  V30 2599 O 244.726 1.74518 0.889956 0
M  V30 2600 H 243.306 0.522887 -0.533478 0
M  V30 2601 H 245.968 0.768609 -1.79104 0
M  V30 2602 H 245.064 2.25052 -2.16236 0
M  V30 2603 N 245.365 1.30045 0.890287 0
M  V30 2604 C 246.614 1.17929 1.63633 0
M  V30 2605 C 246.927 -0.266204 1.9378 0
M  V30 2606 O 248.133 -0.508804 2.6669 0
M  V30 2607 C 246.589 2.06317 2.94892 0
M  V30 2608 C 246.197 3.55745 2.72305 0
M  V30 2609 C 247.941 2.0295 3.72843 0
M  V30 2610 C 245.848 4.36205 3.99348 0
M  V30 2611 H 244.778 0.437782 0.613892 0
M  V30 2612 H 247.429 1.54754 0.986075 0
M  V30 2613 H 245.811 1.6237 3.61182 0
M  V30 2614 H 246.985 4.07805 2.1455 0
M  V30 2615 H 245.3 3.6088 2.07737 0
M  V30 2616 H 247.897 2.60319 4.67053 0
M  V30 2617 H 248.24 1.0117 4.0382 0
M  V30 2618 H 248.773 2.4499 3.13408 0
M  V30 2619 H 245.512 5.38659 3.73533 0
M  V30 2620 H 245.032 3.8891 4.56628 0
M  V30 2621 H 246.711 4.47362 4.67415 0
M  V30 2622 N 246.843 -1.10192 1.12674 0
M  V30 2623 C 248.12 -1.78717 0.794965 0
M  V30 2624 C 248.5 -1.98628 -0.714853 0
M  V30 2625 O 247.848 -1.58135 -1.64941 0
M  V30 2626 C 248.058 -3.11546 1.5729 0
M  V30 2627 C 249.406 -3.86382 1.76052 0
M  V30 2628 O 250.43 -3.21274 1.53823 0
M  V30 2629 O 249.289 -5.03246 2.13087 0
M  V30 2630 H 246.383 -0.774702 0.289423 0
M  V30 2631 H 248.929 -1.16819 1.23091 0
M  V30 2632 H 247.701 -2.92489 2.59935 0
M  V30 2633 H 247.324 -3.81164 1.13137 0
M  V30 2634 N 248.321 -0.919034 -1.28029 0
M  V30 2635 C 249.231 -0.416756 -2.30869 0
M  V30 2636 C 250.247 0.498235 -1.66714 0
M  V30 2637 O 251.423 0.383144 -1.97722 0
M  V30 2638 C 248.488 0.330274 -3.45123 0
M  V30 2639 C 247.549 -0.618578 -4.2482 0
M  V30 2640 C 246.782 0.0928959 -5.33619 0
M  V30 2641 O 247.005 1.31375 -5.55065 0
M  V30 2642 O 245.939 -0.574499 -5.99152 0
M  V30 2643 H 249.765 -1.27043 -2.75851 0
M  V30 2644 H 247.35 -0.684052 -1.3282 0
M  V30 2645 H 249.232 0.751972 -4.14636 0
M  V30 2646 H 247.907 1.1597 -3.02213 0
M  V30 2647 H 246.814 -1.08978 -3.57875 0
M  V30 2648 H 248.147 -1.41497 -4.71423 0
M  V30 2649 N 249.799 1.42003 -0.683588 0
M  V30 2650 C 250.762 2.29191 -0.0198243 0
M  V30 2651 C 251.762 1.43773 0.72013 0
M  V30 2652 O 252.952 1.65061 0.556815 0
M  V30 2653 C 250.084 3.26435 0.982487 0
M  V30 2654 H 251.277 2.8938 -0.787345 0
M  V30 2655 H 248.83 1.49789 -0.446418 0
M  V30 2656 H 249.565 2.71203 1.77819 0
M  V30 2657 H 249.35 3.89449 0.455182 0
M  V30 2658 H 250.84 3.918 1.44508 0
M  V30 2659 N 251.277 0.427512 1.51691 0
M  V30 2660 C 252.209 -0.424521 2.25234 0
M  V30 2661 C 253.222 -0.994671 1.2888 0
M  V30 2662 O 254.411 -0.890483 1.54702 0
M  V30 2663 C 251.511 -1.60479 2.98496 0
M  V30 2664 C 250.684 -1.15527 4.21868 0
M  V30 2665 C 249.743 -2.20454 4.77793 0
M  V30 2666 O 248.769 -1.8029 5.39893 0
M  V30 2667 N 249.971 -3.52831 4.60967 0
M  V30 2668 H 252.736 0.205749 2.98993 0
M  V30 2669 H 250.297 0.255867 1.59865 0
M  V30 2670 H 252.289 -2.30276 3.32799 0
M  V30 2671 H 250.859 -2.14061 2.27809 0
M  V30 2672 H 250.079 -0.284736 3.9317 0
M  V30 2673 H 251.367 -0.832173 5.01949 0
M  V30 2674 H 250.765 -3.88201 4.11481 0
M  V30 2675 H 249.322 -4.18551 4.99658 0
M  V30 2676 N 252.755 -1.56801 0.158532 0
M  V30 2677 C 254.001 -1.96781 -0.490405 0
M  V30 2678 C 254.334 -1.04397 -1.63753 0
M  V30 2679 O 253.609 -0.0885805 -1.94298 0
M  V30 2680 C 253.892 -3.4635 -0.985594 0
M  V30 2681 C 253.745 -4.49512 0.160824 0
M  V30 2682 C 255.064 -3.98697 -1.86355 0
M  V30 2683 H 252.183 -0.715482 -0.176788 0
M  V30 2684 H 254.825 -1.88451 0.242088 0
M  V30 2685 H 252.975 -3.53579 -1.60978 0
M  V30 2686 H 254.647 -4.54353 0.797537 0
M  V30 2687 H 252.89 -4.26013 0.818256 0
M  V30 2688 H 253.561 -5.51531 -0.227569 0
M  V30 2689 H 256.037 -3.94019 -1.33746 0
M  V30 2690 H 254.913 -5.03792 -2.17909 0
M  V30 2691 H 255.174 -3.41744 -2.8047 0
M  V30 2692 N 254.233 0.115231 -1.57178 0
M  V30 2693 C 255.143 1.15994 -2.03918 0
M  V30 2694 C 256.159 1.45103 -0.960268 0
M  V30 2695 O 257.335 1.56144 -1.27204 0
M  V30 2696 C 254.4 2.46568 -2.43732 0
M  V30 2697 C 253.461 2.24822 -3.65723 0
M  V30 2698 C 252.694 3.4917 -4.03629 0
M  V30 2699 O 252.917 4.56623 -3.41835 0
M  V30 2700 O 251.851 3.39949 -4.96708 0
M  V30 2701 H 255.677 0.793019 -2.93164 0
M  V30 2702 H 253.262 0.3263 -1.45793 0
M  V30 2703 H 255.144 3.23492 -2.70057 0
M  V30 2704 H 253.819 2.82726 -1.57631 0
M  V30 2705 H 252.726 1.45744 -3.44542 0
M  V30 2706 H 254.059 1.93566 -4.52541 0
M  V30 2707 N 255.711 1.52812 0.385517 0
M  V30 2708 C 256.643 1.74096 1.49074 0
M  V30 2709 C 257.656 0.621462 1.50472 0
M  V30 2710 O 258.845 0.897245 1.54311 0
M  V30 2711 C 255.945 1.78774 2.87911 0
M  V30 2712 C 255.118 3.08134 3.10439 0
M  V30 2713 C 254.177 3.04313 4.29278 0
M  V30 2714 O 253.203 3.78168 4.25415 0
M  V30 2715 N 254.405 2.23741 5.35649 0
M  V30 2716 H 257.17 2.69455 1.31202 0
M  V30 2717 H 254.731 1.51343 0.575065 0
M  V30 2718 H 256.723 1.73721 3.65518 0
M  V30 2719 H 255.293 0.907869 2.99126 0
M  V30 2720 H 254.513 3.26649 2.20667 0
M  V30 2721 H 255.801 3.93662 3.22347 0
M  V30 2722 H 255.199 1.63211 5.41645 0
M  V30 2723 H 253.756 2.24524 6.11909 0
M  V30 2724 N 257.189 -0.644168 1.43834 0
M  V30 2725 C 258.466 -1.40188 1.36406 0
M  V30 2726 C 258.846 -2.11094 0.0163124 0
M  V30 2727 O 258.194 -2.05426 -1.00062 0
M  V30 2728 C 258.404 -2.3791 2.55343 0
M  V30 2729 C 259.752 -3.01637 2.98832 0
M  V30 2730 O 260.776 -2.48237 2.55455 0
M  V30 2731 O 259.635 -3.98477 3.74003 0
M  V30 2732 H 256.729 -0.626773 0.539523 0
M  V30 2733 H 259.275 -0.670317 1.559 0
M  V30 2734 H 258.047 -1.84525 3.4506 0
M  V30 2735 H 257.67 -3.18503 2.37995 0
M  V30 2736 N 258.668 -1.30515 -0.883378 0
M  V30 2737 C 259.631 -1.1701 -1.97082 0
M  V30 2738 C 260.631 -0.10089 -1.60483 0
M  V30 2739 O 261.821 -0.349127 -1.70666 0
M  V30 2740 C 258.953 -0.793045 -3.31547 0
M  V30 2741 H 260.146 -2.13622 -2.10489 0
M  V30 2742 H 257.699 -1.13935 -1.06998 0
M  V30 2743 H 258.434 0.172499 -3.23841 0
M  V30 2744 H 258.219 -1.56576 -3.5948 0
M  V30 2745 H 259.709 -0.722073 -4.1131 0
M  V30 2746 N 260.146 1.09593 -1.13257 0
M  V30 2747 C 261.078 2.16015 -0.766167 0
M  V30 2748 C 262.091 1.61423 0.211303 0
M  V30 2749 O 263.28 1.78498 -0.00863946 0
M  V30 2750 C 260.38 3.38706 -0.114662 0
M  V30 2751 C 259.553 4.22717 -1.12379 0
M  V30 2752 C 258.612 5.23835 -0.498301 0
M  V30 2753 O 257.638 5.573 -1.15781 0
M  V30 2754 N 258.84 5.75886 0.730417 0
M  V30 2755 H 261.605 2.48055 -1.68193 0
M  V30 2756 H 259.166 1.25292 -1.02535 0
M  V30 2757 H 261.158 4.03464 0.315991 0
M  V30 2758 H 259.728 3.04569 0.704011 0
M  V30 2759 H 258.948 3.54122 -1.73179 0
M  V30 2760 H 260.236 4.75673 -1.80589 0
M  V30 2761 H 259.634 5.50911 1.28504 0
M  V30 2762 H 258.191 6.42387 1.10376 0
M  V30 2763 N 261.624 0.925811 1.2754 0
M  V30 2764 C 262.587 0.428129 2.25166 0
M  V30 2765 C 263.587 -0.452261 1.54309 0
M  V30 2766 O 264.777 -0.253608 1.72344 0
M  V30 2767 C 261.909 -0.384749 3.38722 0
M  V30 2768 H 263.102 1.29066 2.70706 0
M  V30 2769 H 260.655 0.706323 1.3943 0
M  V30 2770 H 261.39 -1.26618 2.98561 0
M  V30 2771 H 261.175 0.246454 3.91325 0
M  V30 2772 H 262.665 -0.723389 4.11287 0
M  V30 2773 N 263.102 -1.41638 0.69111 0
M  V30 2774 C 264.032 -2.3347 0.037248 0
M  V30 2775 C 265.013 -1.51575 -0.771947 0
M  V30 2776 O 266.198 -1.80126 -0.72582 0
M  V30 2777 C 263.328 -3.35354 -0.903064 0
M  V30 2778 C 262.282 -4.27526 -0.201288 0
M  V30 2779 C 261.608 -5.19747 -1.25565 0
M  V30 2780 C 262.908 -5.13959 0.929689 0
M  V30 2781 H 264.602 -2.88397 0.804227 0
M  V30 2782 H 262.148 -1.38669 0.388189 0
M  V30 2783 H 264.101 -3.98519 -1.36969 0
M  V30 2784 H 262.825 -2.78767 -1.70166 0
M  V30 2785 H 261.484 -3.65779 0.245265 0
M  V30 2786 H 261.132 -4.59479 -2.04666 0
M  V30 2787 H 260.832 -5.8225 -0.791128 0
M  V30 2788 H 262.356 -5.85789 -1.72288 0
M  V30 2789 H 263.77 -5.70718 0.543546 0
M  V30 2790 H 262.167 -5.85379 1.32103 0
M  V30 2791 H 263.237 -4.51389 1.77133 0
M  V30 2792 N 264.58 -0.43555 -1.51462 0
M  V30 2793 C 265.827 0.131514 -2.02072 0
M  V30 2794 C 266.155 1.42868 -1.31981 0
M  V30 2795 O 265.41 1.91076 -0.422883 0
M  V30 2796 C 265.709 0.39942 -3.55161 0
M  V30 2797 C 265.375 -0.81172 -4.43533 0
M  V30 2798 C 264.037 -1.14387 -4.67407 0
M  V30 2799 C 266.389 -1.61976 -4.95392 0
M  V30 2800 C 263.717 -2.28477 -5.40384 0
M  V30 2801 C 266.069 -2.75164 -5.6962 0
M  V30 2802 C 264.733 -3.08835 -5.91758 0
M  V30 2803 H 264.003 0.0481244 -0.739436 0
M  V30 2804 H 266.65 -0.58238 -1.8243 0
M  V30 2805 H 264.955 1.19519 -3.73125 0
M  V30 2806 H 266.652 0.85157 -3.91854 0
M  V30 2807 H 263.242 -0.542898 -4.25148 0
M  V30 2808 H 267.426 -1.37637 -4.76833 0
M  V30 2809 H 262.682 -2.5488 -5.55739 0
M  V30 2810 H 266.856 -3.38147 -6.08793 0
M  V30 2811 H 264.483 -3.97353 -6.48086 0
M  V30 2812 N 266.058 1.56714 -0.166846 0
M  V30 2813 C 266.99 2.14914 0.796537 0
M  V30 2814 C 268.003 1.10357 1.19688 0
M  V30 2815 O 269.192 1.37561 1.13751 0
M  V30 2816 C 266.292 2.67326 2.08303 0
M  V30 2817 C 265.465 3.96493 1.84696 0
M  V30 2818 C 264.524 4.34014 2.97521 0
M  V30 2819 O 263.55 5.01973 2.6835 0
M  V30 2820 N 264.752 3.95208 4.25196 0
M  V30 2821 H 267.517 2.98205 0.299006 0
M  V30 2822 H 265.078 1.61892 0.0160839 0
M  V30 2823 H 267.07 2.89428 2.82867 0
M  V30 2824 H 265.64 1.88649 2.4926 0
M  V30 2825 H 264.86 3.82814 0.940602 0
M  V30 2826 H 266.148 4.8086 1.66285 0
M  V30 2827 H 265.546 3.40487 4.51758 0
M  V30 2828 H 264.103 4.2232 4.96477 0
M  V30 2829 N 267.536 -0.106894 1.57237 0
M  V30 2830 C 268.499 -1.11466 2.0027 0
M  V30 2831 C 269.499 -1.33623 0.894519 0
M  V30 2832 O 270.689 -1.29935 1.16028 0
M  V30 2833 C 267.821 -2.46646 2.35327 0
M  V30 2834 H 269.014 -0.744516 2.90512 0
M  V30 2835 H 266.567 -0.351576 1.52295 0
M  V30 2836 H 267.302 -2.88558 1.48003 0
M  V30 2837 H 267.087 -2.31915 3.16161 0
M  V30 2838 H 268.577 -3.19151 2.69318 0
M  V30 2839 N 269.014 -1.53014 -0.377408 0
M  V30 2840 C 270.262 -1.6829 -1.11906 0
M  V30 2841 C 270.583 -0.431206 -1.90173 0
M  V30 2842 O 269.853 0.554595 -1.87886 0
M  V30 2843 H 268.433 -0.620371 -0.416112 0
M  V30 2844 H 271.095 -1.90167 -0.426893 0
M  V30 2845 H 270.191 -2.53862 -1.8155 0
M  V30 2846 N 270.492 0.636531 -1.44174 0
M  V30 2847 C 271.402 1.77754 -1.53103 0
M  V30 2848 C 272.418 1.68928 -0.417034 0
M  V30 2849 O 273.594 1.89801 -0.6736 0
M  V30 2850 C 270.659 3.14115 -1.46741 0
M  V30 2851 C 269.72 3.34612 -2.68948 0
M  V30 2852 C 268.953 4.64467 -2.6288 0
M  V30 2853 O 269.176 5.44919 -1.68581 0
M  V30 2854 O 268.11 4.87049 -3.53648 0
M  V30 2855 H 271.936 1.73174 -2.49489 0
M  V30 2856 H 269.521 0.79709 -1.2636 0
M  V30 2857 H 271.403 3.95412 -1.45696 0
M  V30 2858 H 270.078 3.19249 -0.534975 0
M  V30 2859 H 268.985 2.53014 -2.75562 0
M  V30 2860 H 270.318 3.34336 -3.61221 0
M  V30 2861 N 271.97 1.30982 0.876444 0
M  V30 2862 C 272.9 1.20668 1.99903 0
M  V30 2863 C 273.881 0.095354 1.69833 0
M  V30 2864 O 275.066 0.27885 1.92188 0
M  V30 2865 C 272.196 0.90655 3.3526 0
M  V30 2866 C 271.15 1.97675 3.79617 0
M  V30 2867 C 270.476 1.52943 5.1236 0
M  V30 2868 C 271.776 3.389 3.97422 0
M  V30 2869 H 273.47 2.14586 2.0879 0
M  V30 2870 H 271.016 1.03308 1.00317 0
M  V30 2871 H 272.969 0.821025 4.13324 0
M  V30 2872 H 271.693 -0.0682969 3.26529 0
M  V30 2873 H 270.352 2.05205 3.03787 0
M  V30 2874 H 270 0.54262 5.00065 0
M  V30 2875 H 269.7 2.24532 5.43009 0
M  V30 2876 H 271.224 1.45786 5.92941 0
M  V30 2877 H 272.638 3.34081 4.659 0
M  V30 2878 H 271.035 4.0865 4.3946 0
M  V30 2879 H 272.105 3.80163 3.01006 0
M  V30 2880 N 273.449 -1.08991 1.13837 0
M  V30 2881 C 274.396 -2.15748 0.819835 0
M  V30 2882 C 275.366 -1.64636 -0.220026 0
M  V30 2883 O 276.551 -1.90582 -0.0912757 0
M  V30 2884 C 273.691 -3.4382 0.296913 0
M  V30 2885 C 272.804 -4.0881 1.39636 0
M  V30 2886 C 271.939 -5.24655 0.831314 0
M  V30 2887 C 270.978 -5.81575 1.90886 0
M  V30 2888 N 270.115 -6.88774 1.36142 0
M  V30 2889 H 274.955 -2.42338 1.73426 0
M  V30 2890 H 272.492 -1.18935 0.865613 0
M  V30 2891 H 274.45 -4.17193 -0.0244339 0
M  V30 2892 H 273.08 -3.17535 -0.580628 0
M  V30 2893 H 272.132 -3.33258 1.83422 0
M  V30 2894 H 273.444 -4.47141 2.21058 0
M  V30 2895 H 272.598 -6.04942 0.461515 0
M  V30 2896 H 271.337 -4.87698 -0.013932 0
M  V30 2897 H 270.342 -4.99946 2.28767 0
M  V30 2898 H 271.567 -6.20592 2.75758 0
M  V30 2899 H 269.513 -6.53788 0.538254 0
M  V30 2900 H 269.43 -7.25898 2.11208 0
M  V30 2901 H 270.698 -7.72806 1.01933 0
M  V30 2902 N 274.927 -0.932562 -1.27047 0
M  V30 2903 C 276.173 -0.585913 -1.94778 0
M  V30 2904 C 276.528 0.864142 -1.71902 0
M  V30 2905 O 275.821 1.60894 -1.04037 0
M  V30 2906 C 276.015 -0.853713 -3.47054 0
M  V30 2907 C 275.844 -2.32825 -3.84737 0
M  V30 2908 C 274.614 -2.98184 -4.07939 0
M  V30 2909 C 276.812 -3.30612 -3.93954 0
M  V30 2910 N 274.794 -4.3574 -4.3244 0
M  V30 2911 C 276.165 -4.53395 -4.22887 0
M  V30 2912 C 278.22 -3.25755 -3.76548 0
M  V30 2913 C 276.923 -5.71927 -4.36224 0
M  V30 2914 C 278.949 -4.43604 -3.91113 0
M  V30 2915 C 278.311 -5.65166 -4.20437 0
M  V30 2916 H 274.41 -0.264617 -0.735868 0
M  V30 2917 H 276.994 -1.20019 -1.53309 0
M  V30 2918 H 275.165 -0.268557 -3.8747 0
M  V30 2919 H 276.897 -0.469202 -4.01971 0
M  V30 2920 H 273.652 -2.48835 -4.02961 0
M  V30 2921 H 274.076 -5.06915 -4.48738 0
M  V30 2922 H 278.718 -2.32835 -3.52913 0
M  V30 2923 H 276.436 -6.65308 -4.58683 0
M  V30 2924 H 280.022 -4.41368 -3.79059 0
M  V30 2925 H 278.902 -6.54836 -4.31462 0
M  V30 2926 N 276.405 1.4127 -0.698611 0
M  V30 2927 C 277.653 2.00782 -0.230409 0
M  V30 2928 C 277.974 1.5562 1.17505 0
M  V30 2929 O 277.244 0.78815 1.79346 0
M  V30 2930 H 275.824 0.742464 -0.0821944 0
M  V30 2931 H 278.486 1.72852 -0.90045 0
M  V30 2932 H 277.582 3.11095 -0.25021 0
M  V30 2933 N 277.883 0.443576 1.51229 0
M  V30 2934 C 279.111 -0.11929 2.06556 0
M  V30 2935 C 279.526 -1.35921 1.31038 0
M  V30 2936 O 278.883 -1.78675 0.371704 0
M  V30 2937 C 278.934 -0.435228 3.5887 0
M  V30 2938 O 278.655 0.755486 4.31537 0
M  V30 2939 C 280.156 -1.04808 4.30732 0
M  V30 2940 H 277.376 -0.0051584 0.67098 0
M  V30 2941 H 279.92 0.624453 1.94733 0
M  V30 2942 H 278.075 -1.12887 3.70588 0
M  V30 2943 H 278.489 0.483491 5.22267 0
M  V30 2944 H 279.963 -1.2191 5.3837 0
M  V30 2945 H 280.44 -2.03081 3.89429 0
M  V30 2946 H 281.046 -0.393637 4.23474 0
M  V30 2947 N 279.361 -1.56624 0.175154 0
M  V30 2948 C 280.638 -1.88688 -0.515373 0
M  V30 2949 C 281.018 -1.08564 -1.81044 0
M  V30 2950 O 280.366 -0.180703 -2.27784 0
M  V30 2951 C 280.576 -3.40768 -0.753552 0
M  V30 2952 C 281.924 -4.10587 -1.08184 0
M  V30 2953 O 282.948 -3.46106 -0.841961 0
M  V30 2954 O 281.807 -5.24512 -1.53459 0
M  V30 2955 H 278.901 -0.78301 -0.26613 0
M  V30 2956 H 281.447 -1.68347 0.213877 0
M  V30 2957 H 280.219 -3.90965 0.161829 0
M  V30 2958 H 279.842 -3.66733 -1.53598 0
M  V30 2959 N 280.839 0.0985539 -1.57292 0
M  V30 2960 C 281.749 1.13824 -2.05137 0
M  V30 2961 C 282.765 1.44076 -0.975604 0
M  V30 2962 O 283.941 1.54786 -1.28853 0
M  V30 2963 C 281.006 2.43969 -2.46333 0
M  V30 2964 C 280.067 2.2093 -3.68087 0
M  V30 2965 C 279.3 3.44869 -4.0731 0
M  V30 2966 O 279.523 4.52972 -3.46659 0
M  V30 2967 O 278.457 3.34661 -5.00285 0
M  V30 2968 H 282.283 0.761881 -2.93988 0
M  V30 2969 H 279.868 0.310818 -1.46131 0
M  V30 2970 H 281.75 3.20609 -2.73473 0
M  V30 2971 H 280.425 2.81038 -1.60621 0
M  V30 2972 H 279.332 1.42081 -3.46069 0
M  V30 2973 H 280.665 1.88755 -4.54568 0
M  V30 2974 N 282.317 1.53212 0.369288 0
M  V30 2975 C 283.227 1.82342 1.47609 0
M  V30 2976 C 284.243 0.711532 1.58787 0
M  V30 2977 O 285.419 1.0012 1.74751 0
M  V30 2978 C 282.484 2.00393 2.8292 0
M  V30 2979 C 281.545 3.24297 2.81301 0
M  V30 2980 C 280.778 3.41478 4.10157 0
M  V30 2981 O 281.001 2.63033 5.06132 0
M  V30 2982 O 279.935 4.34817 4.16194 0
M  V30 2983 H 283.761 2.76366 1.25918 0
M  V30 2984 H 281.346 1.38547 0.559034 0
M  V30 2985 H 283.228 2.13859 3.63101 0
M  V30 2986 H 281.903 1.09559 3.04596 0
M  V30 2987 H 280.81 3.16257 1.99831 0
M  V30 2988 H 282.143 4.15041 2.64578 0
M  V30 2989 N 283.795 -0.628877 1.44509 0
M  V30 2990 C 284.742 -1.74074 1.51549 0
M  V30 2991 C 285.712 -1.62084 0.363021 0
M  V30 2992 O 286.897 -1.81975 0.573567 0
M  V30 2993 C 284.037 -3.12328 1.46784 0
M  V30 2994 C 283.15 -3.35277 2.72422 0
M  V30 2995 C 282.285 -4.63515 2.59475 0
M  V30 2996 C 281.324 -4.7965 3.80266 0
M  V30 2997 N 280.461 -5.99168 3.65981 0
M  V30 2998 H 285.301 -1.67392 2.46544 0
M  V30 2999 H 282.838 -0.816527 1.22357 0
M  V30 3000 H 284.796 -3.92286 1.42012 0
M  V30 3001 H 283.426 -3.18018 0.553544 0
M  V30 3002 H 282.478 -2.49242 2.87372 0
M  V30 3003 H 283.79 -3.43078 3.62076 0
M  V30 3004 H 282.944 -5.51638 2.52548 0
M  V30 3005 H 281.683 -4.58076 1.67384 0
M  V30 3006 H 280.688 -3.89957 3.87574 0
M  V30 3007 H 281.913 -4.86902 4.73395 0
M  V30 3008 H 279.859 -5.94814 2.76644 0
M  V30 3009 H 279.776 -6.08035 4.49254 0
M  V30 3010 H 281.044 -6.89846 3.6295 0
M  V30 3011 N 285.273 -1.31445 -0.869486 0
M  V30 3012 C 286.52 -1.21158 -1.62256 0
M  V30 3013 C 286.848 0.230155 -1.93133 0
M  V30 3014 O 286.103 1.17906 -1.56194 0
M  V30 3015 C 286.402 -2.00145 -2.96102 0
M  V30 3016 C 286.068 -3.4964 -2.84715 0
M  V30 3017 C 284.73 -3.90403 -2.81317 0
M  V30 3018 C 287.082 -4.44769 -2.71716 0
M  V30 3019 C 284.41 -5.24561 -2.62778 0
M  V30 3020 C 286.762 -5.79054 -2.54714 0
M  V30 3021 C 285.426 -6.19037 -2.49699 0
M  V30 3022 H 284.696 -0.443348 -0.593737 0
M  V30 3023 H 287.343 -1.62715 -1.00976 0
M  V30 3024 H 285.648 -1.5127 -3.6142 0
M  V30 3025 H 287.345 -1.89566 -3.53363 0
M  V30 3026 H 283.935 -3.17256 -2.88178 0
M  V30 3027 H 288.119 -4.14208 -2.73397 0
M  V30 3028 H 283.375 -5.54613 -2.57321 0
M  V30 3029 H 287.549 -6.52393 -2.43632 0
M  V30 3030 H 285.176 -7.22935 -2.35093 0
M  V30 3031 N 286.751 1.08385 -1.14413 0
M  V30 3032 C 288 1.80153 -0.907076 0
M  V30 3033 C 288.313 1.87176 0.567851 0
M  V30 3034 O 289.519 2.55359 0.922172 0
M  V30 3035 C 287.975 3.23687 -1.57336 0
M  V30 3036 C 287.583 3.24897 -3.08457 0
M  V30 3037 C 289.327 4.00136 -1.41744 0
M  V30 3038 C 287.234 4.6302 -3.67921 0
M  V30 3039 H 286.164 0.675139 -0.335714 0
M  V30 3040 H 288.815 1.21733 -1.37307 0
M  V30 3041 H 287.197 3.82234 -1.03505 0
M  V30 3042 H 288.371 2.76055 -3.68958 0
M  V30 3043 H 286.686 2.61943 -3.2369 0
M  V30 3044 H 289.283 5.02201 -1.83572 0
M  V30 3045 H 289.626 4.14709 -0.363576 0
M  V30 3046 H 290.159 3.48058 -1.92614 0
M  V30 3047 H 286.898 4.5365 -4.73161 0
M  V30 3048 H 286.418 5.12143 -3.12201 0
M  V30 3049 H 288.097 5.31994 -3.68227 0
M  V30 3050 N 288.23 0.939286 1.26551 0
M  V30 3051 C 289.458 0.602536 1.97932 0
M  V30 3052 C 289.873 -0.82206 1.69964 0
M  V30 3053 O 289.23 -1.54789 0.966784 0
M  V30 3054 C 289.281 0.832946 3.51773 0
M  V30 3055 O 289.002 2.20151 3.78768 0
M  V30 3056 C 290.503 0.506483 4.40397 0
M  V30 3057 H 287.723 0.227248 0.631347 0
M  V30 3058 H 290.267 1.25948 1.61113 0
M  V30 3059 H 288.422 0.222644 3.8676 0
M  V30 3060 H 288.836 2.26013 4.73306 0
M  V30 3061 H 290.31 0.718333 5.47306 0
M  V30 3062 H 290.787 -0.558451 4.35635 0
M  V30 3063 H 291.393 1.09543 4.10951 0
M  V30 3064 N 289.708 -1.40897 0.706093 0
M  V30 3065 C 290.957 -2.00284 0.238574 0
M  V30 3066 C 291.27 -1.56604 -1.17194 0
M  V30 3067 O 292.476 -2.08624 -1.73748 0
M  V30 3068 C 290.932 -3.57934 0.375623 0
M  V30 3069 C 290.54 -4.10591 1.79217 0
M  V30 3070 C 292.284 -4.24488 -0.0315857 0
M  V30 3071 C 290.191 -5.60712 1.88032 0
M  V30 3072 H 289.121 -0.749144 0.0854398 0
M  V30 3073 H 291.772 -1.61251 0.875813 0
M  V30 3074 H 290.154 -3.94622 -0.330042 0
M  V30 3075 H 291.328 -3.85301 2.52745 0
M  V30 3076 H 289.643 -3.56601 2.15 0
M  V30 3077 H 292.24 -5.34698 0.0136842 0
M  V30 3078 H 292.583 -4.02261 -1.072 0
M  V30 3079 H 293.116 -3.92873 0.624181 0
M  V30 3080 H 289.855 -5.87781 2.90161 0
M  V30 3081 H 289.375 -5.87896 1.18903 0
M  V30 3082 H 291.054 -6.25658 1.64805 0
M  V30 3083 N 291.186 -0.45159 -1.50991 0
M  V30 3084 C 292.433 0.110074 -2.02201 0
M  V30 3085 C 292.761 1.4146 -1.33489 0
M  V30 3086 O 292.016 1.90617 -0.443125 0
M  V30 3087 C 292.315 0.361728 -3.55565 0
M  V30 3088 C 291.981 -0.858717 -4.42648 0
M  V30 3089 C 290.643 -1.19338 -4.66167 0
M  V30 3090 C 292.995 -1.67221 -4.93646 0
M  V30 3091 C 290.323 -2.34195 -5.37931 0
M  V30 3092 C 292.675 -2.8119 -5.6667 0
M  V30 3093 C 291.339 -3.15094 -5.88449 0
M  V30 3094 H 290.609 0.040279 -0.739904 0
M  V30 3095 H 293.256 -0.601696 -1.81802 0
M  V30 3096 H 291.561 1.15554 -3.74372 0
M  V30 3097 H 293.258 0.80996 -3.92735 0
M  V30 3098 H 289.848 -0.58796 -4.24548 0
M  V30 3099 H 294.032 -1.42686 -4.75347 0
M  V30 3100 H 289.288 -2.6076 -5.53005 0
M  V30 3101 H 293.462 -3.44585 -6.05173 0
M  V30 3102 H 291.089 -4.04204 -6.43835 0
M  V30 3103 N 292.664 1.56529 -0.183458 0
M  V30 3104 C 293.912 1.96855 0.457452 0
M  V30 3105 C 294.233 1.07104 1.62953 0
M  V30 3106 O 293.503 0.139887 1.954 0
M  V30 3107 H 292.083 0.72693 0.171992 0
M  V30 3108 H 294.745 1.93056 -0.267476 0
M  V30 3109 H 293.841 3.01423 0.809368 0
M  V30 3110 N 294.142 -0.090211 1.57342 0
M  V30 3111 C 295.37 -0.806224 1.90546 0
M  V30 3112 C 295.785 -1.72041 0.777644 0
M  V30 3113 O 295.142 -1.80778 -0.250103 0
M  V30 3114 C 295.193 -1.61546 3.23396 0
M  V30 3115 O 294.914 -0.738043 4.31839 0
M  V30 3116 C 296.415 -2.4341 3.70495 0
M  V30 3117 H 293.635 -0.230256 0.630257 0
M  V30 3118 H 296.179 -0.0659843 2.04394 0
M  V30 3119 H 294.334 -2.30816 3.11131 0
M  V30 3120 H 294.748 -1.29901 5.08159 0
M  V30 3121 H 296.222 -2.95676 4.66133 0
M  V30 3122 H 296.699 -3.22098 2.98579 0
M  V30 3123 H 297.305 -1.79331 3.85643 0
M  V30 3124 N 295.62 -1.53406 -0.361157 0
M  V30 3125 C 297.036 -1.43277 -0.703124 0
M  V30 3126 C 297.236 -0.575384 -1.9311 0
M  V30 3127 O 296.292 -0.0595362 -2.5243 0
M  V30 3128 C 297.605 -2.8653 -0.9122 0
M  V30 3129 C 299.153 -2.96191 -1.01193 0
M  V30 3130 C 299.628 -4.40514 -1.25345 0
M  V30 3131 N 301.119 -4.43962 -1.32105 0
M  V30 3132 C 301.854 -5.52746 -1.5251 0
M  V30 3133 N 301.35 -6.71567 -1.70203 0
M  V30 3134 N 303.143 -5.40331 -1.54916 0
M  V30 3135 H 295.294 -2.07654 0.446475 0
M  V30 3136 H 297.557 -0.937944 0.137715 0
M  V30 3137 H 297.263 -3.51605 -0.0816414 0
M  V30 3138 H 297.137 -3.30441 -1.81903 0
M  V30 3139 H 299.524 -2.31266 -1.83303 0
M  V30 3140 H 299.605 -2.55667 -0.0823929 0
M  V30 3141 H 299.249 -5.06014 -0.437346 0
M  V30 3142 H 299.179 -4.78614 -2.19627 0
M  V30 3143 H 301.67 -3.58332 -1.20028 0
M  V30 3144 H 301.983 -7.50241 -1.85359 0
M  V30 3145 H 300.328 -6.74545 -1.67373 0
M  V30 3146 H 303.519 -4.46465 -1.40663 0
M  V30 3147 H 303.692 -6.25173 -1.70477 0
M  V30 3148 N 297.098 0.621204 -1.44841 0
M  V30 3149 C 298.323 1.41244 -1.51871 0
M  V30 3150 C 298.748 1.87519 -0.147764 0
M  V30 3151 O 298.106 1.59334 0.865 0
M  V30 3152 C 298.154 2.60221 -2.49634 0
M  V30 3153 O 297.258 3.60395 -2.00473 0
M  V30 3154 H 296.599 0.42223 -0.512463 0
M  V30 3155 H 299.129 0.757305 -1.90069 0
M  V30 3156 H 299.139 3.0764 -2.67996 0
M  V30 3157 H 297.814 2.25887 -3.4921 0
M  V30 3158 H 296.391 3.19717 -1.91925 0
M  V30 3159 N 298.576 1.31904 0.862503 0
M  V30 3160 C 299.822 1.22197 1.61851 0
M  V30 3161 C 300.155 -0.217641 1.92977 0
M  V30 3162 O 299.43 -1.15264 1.56666 0
M  V30 3163 C 299.713 2.07378 2.94391 0
M  V30 3164 C 299.566 3.59678 2.70096 0
M  V30 3165 C 300.885 1.92891 3.95577 0
M  V30 3166 H 298.004 0.445255 0.587296 0
M  V30 3167 H 300.646 1.6177 0.99651 0
M  V30 3168 H 298.796 1.73758 3.47477 0
M  V30 3169 H 300.468 4.03472 2.23625 0
M  V30 3170 H 298.711 3.82735 2.04197 0
M  V30 3171 H 299.382 4.14595 3.64438 0
M  V30 3172 H 301.858 2.22327 3.51724 0
M  V30 3173 H 300.734 2.54781 4.86187 0
M  V30 3174 H 300.995 0.894315 4.3296 0
M  V30 3175 N 300.054 -1.07777 1.14986 0
M  V30 3176 C 301.279 -1.84558 0.946213 0
M  V30 3177 C 301.704 -1.81323 -0.500362 0
M  V30 3178 O 301.062 -1.20301 -1.35637 0
M  V30 3179 C 301.11 -3.29736 1.45968 0
M  V30 3180 O 300.214 -4.07149 0.65601 0
M  V30 3181 H 299.555 -0.571641 0.33782 0
M  V30 3182 H 302.085 -1.35991 1.52865 0
M  V30 3183 H 302.095 -3.80574 1.47063 0
M  V30 3184 H 300.77 -3.31406 2.51283 0
M  V30 3185 H 299.347 -3.65994 0.714322 0
M  V30 3186 N 301.532 -0.945985 -1.26051 0
M  V30 3187 C 302.482 -0.430164 -2.23905 0
M  V30 3188 C 303.466 0.47579 -1.53704 0
M  V30 3189 O 304.658 0.310252 -1.7426 0
M  V30 3190 C 301.787 0.298957 -3.41996 0
M  V30 3191 C 300.873 -0.624566 -4.19476 0
M  V30 3192 N 301.264 -1.75245 -4.74471 0
M  V30 3193 C 299.562 -0.431082 -4.43912 0
M  V30 3194 C 300.263 -2.32834 -5.3307 0
M  V30 3195 N 299.239 -1.61583 -5.1903 0
M  V30 3196 H 303.041 -1.29107 -2.64024 0
M  V30 3197 H 300.555 -0.802428 -1.41191 0
M  V30 3198 H 302.552 0.685565 -4.11225 0
M  V30 3199 H 301.212 1.15657 -3.03403 0
M  V30 3200 H 302.223 -2.13449 -4.71868 0
M  V30 3201 H 298.9 0.384364 -4.15727 0
M  V30 3202 H 300.29 -3.27893 -5.86461 0
M  V30 3203 N 303.011 1.40521 -0.713556 0
M  V30 3204 C 303.941 2.33381 -0.0743864 0
M  V30 3205 C 304.922 1.52784 0.747735 0
M  V30 3206 O 306.107 1.81258 0.697071 0
M  V30 3207 C 303.237 3.36748 0.849598 0
M  V30 3208 C 302.191 4.27793 0.133247 0
M  V30 3209 C 301.517 5.21679 1.17281 0
M  V30 3210 C 302.817 5.12415 -1.01134 0
M  V30 3211 H 304.511 2.87081 -0.850007 0
M  V30 3212 H 302.057 1.38034 -0.410201 0
M  V30 3213 H 304.01 4.00648 1.30612 0
M  V30 3214 H 302.734 2.81439 1.65709 0
M  V30 3215 H 301.393 3.65342 -0.303426 0
M  V30 3216 H 301.041 4.62677 1.9733 0
M  V30 3217 H 300.741 5.83435 0.698397 0
M  V30 3218 H 302.265 5.88456 1.62947 0
M  V30 3219 H 303.679 5.69781 -0.634274 0
M  V30 3220 H 302.076 5.83203 -1.41399 0
M  V30 3221 H 303.146 4.48514 -1.84292 0
M  V30 3222 N 304.489 0.459591 1.5075 0
M  V30 3223 C 305.905 0.113092 1.59199 0
M  V30 3224 C 306.105 -1.37951 1.46874 0
M  V30 3225 O 305.161 -2.15168 1.32132 0
M  V30 3226 C 306.474 0.653043 2.93523 0
M  V30 3227 C 308.022 0.615449 3.0689 0
M  V30 3228 C 308.497 1.13275 4.43771 0
M  V30 3229 N 309.988 1.09167 4.50152 0
M  V30 3230 C 310.723 1.46256 5.54434 0
M  V30 3231 N 310.219 1.90739 6.66026 0
M  V30 3232 N 312.012 1.37932 5.44914 0
M  V30 3233 H 304.163 1.43049 1.57005 0
M  V30 3234 H 306.426 0.590861 0.741341 0
M  V30 3235 H 306.132 1.69822 3.07983 0
M  V30 3236 H 306.006 0.0902132 3.77092 0
M  V30 3237 H 308.393 -0.420793 2.92084 0
M  V30 3238 H 308.474 1.21495 2.25106 0
M  V30 3239 H 308.118 2.16757 4.59324 0
M  V30 3240 H 308.048 0.509576 5.24129 0
M  V30 3241 H 310.539 0.76528 3.7007 0
M  V30 3242 H 310.852 2.17218 7.41644 0
M  V30 3243 H 309.197 1.94683 6.67176 0
M  V30 3244 H 312.388 1.0303 4.56621 0
M  V30 3245 H 312.561 1.67164 6.26067 0
M  V30 3246 N 305.967 -1.56429 0.191757 0
M  V30 3247 C 306.914 -2.18936 -0.730454 0
M  V30 3248 C 307.884 -1.13557 -1.21219 0
M  V30 3249 O 309.069 -1.41794 -1.27668 0
M  V30 3250 C 306.209 -2.85013 -1.9458 0
M  V30 3251 C 305.322 -4.04909 -1.50574 0
M  V30 3252 C 304.457 -4.58853 -2.67634 0
M  V30 3253 C 303.496 -5.71114 -2.20217 0
M  V30 3254 N 302.633 -6.19478 -3.30442 0
M  V30 3255 H 307.473 -2.97389 -0.190664 0
M  V30 3256 H 305.01 -1.46869 -0.0823694 0
M  V30 3257 H 306.968 -3.21492 -2.65893 0
M  V30 3258 H 305.598 -2.09129 -2.45896 0
M  V30 3259 H 304.65 -3.74115 -0.688605 0
M  V30 3260 H 305.962 -4.86113 -1.11784 0
M  V30 3261 H 305.116 -4.97619 -3.47074 0
M  V30 3262 H 303.855 -3.76749 -3.09696 0
M  V30 3263 H 302.86 -5.31879 -1.3923 0
M  V30 3264 H 304.085 -6.55033 -1.79189 0
M  V30 3265 H 302.031 -5.40297 -3.72041 0
M  V30 3266 H 301.948 -6.95725 -2.9581 0
M  V30 3267 H 303.216 -6.62898 -4.10106 0
M  V30 3268 N 307.445 0.0818655 -1.57387 0
M  V30 3269 C 308.691 0.784074 -1.8703 0
M  V30 3270 C 309.024 1.77729 -0.782689 0
M  V30 3271 O 308.299 1.93384 0.208051 0
M  V30 3272 C 308.582 1.50105 -3.27323 0
M  V30 3273 C 308.435 0.524925 -4.46727 0
M  V30 3274 C 309.754 2.44843 -3.65705 0
M  V30 3275 H 306.873 0.283582 -0.680257 0
M  V30 3276 H 309.515 0.0474352 -1.89941 0
M  V30 3277 H 307.665 2.12897 -3.24972 0
M  V30 3278 H 309.337 -0.0970111 -4.61198 0
M  V30 3279 H 307.58 -0.160606 -4.33503 0
M  V30 3280 H 308.251 1.064 -5.41648 0
M  V30 3281 H 310.727 1.92135 -3.69085 0
M  V30 3282 H 309.603 2.92018 -4.64776 0
M  V30 3283 H 309.864 3.29197 -2.95096 0
M  V30 3284 N 308.923 1.53595 0.353017 0
M  V30 3285 C 310.17 1.70385 1.09431 0
M  V30 3286 C 310.498 0.462113 1.88931 0
M  V30 3287 O 309.753 -0.556074 1.87633 0
M  V30 3288 C 310.052 2.91313 2.07054 0
M  V30 3289 C 309.718 4.27308 1.43939 0
M  V30 3290 C 308.38 4.64287 1.26454 0
M  V30 3291 C 310.732 5.11829 0.983883 0
M  V30 3292 C 308.06 5.83412 0.620226 0
M  V30 3293 C 310.412 6.31611 0.353516 0
M  V30 3294 C 309.076 6.67293 0.166272 0
M  V30 3295 H 308.346 0.623484 0.400436 0
M  V30 3296 H 310.993 1.87799 0.374655 0
M  V30 3297 H 309.298 2.68463 2.85368 0
M  V30 3298 H 310.995 3.01497 2.64387 0
M  V30 3299 H 307.585 3.98198 1.58543 0
M  V30 3300 H 311.769 4.838 1.10685 0
M  V30 3301 H 307.025 6.09639 0.463681 0
M  V30 3302 H 311.199 6.964 -0.00757555 0
M  V30 3303 H 308.826 7.59461 -0.335047 0
M  V30 3304 N 310.401 -0.613514 1.45168 0
M  V30 3305 C 311.678 -1.37263 1.39349 0
M  V30 3306 C 312.058 -2.11012 0.0610848 0
M  V30 3307 O 311.406 -2.07502 -0.956825 0
M  V30 3308 C 311.616 -2.3244 2.60332 0
M  V30 3309 C 312.964 -2.9523 3.05163 0
M  V30 3310 O 313.988 -2.42762 2.60663 0
M  V30 3311 O 312.847 -3.90454 3.82372 0
M  V30 3312 H 309.941 -0.615188 0.552696 0
M  V30 3313 H 312.487 -0.637097 1.57287 0
M  V30 3314 H 311.259 -1.77164 3.48896 0
M  V30 3315 H 310.882 -3.13383 2.44698 0
M  V30 3316 N 311.879 -1.3236 -0.855495 0
M  V30 3317 C 312.826 -1.21225 -1.964 0
M  V30 3318 C 313.796 -0.0946204 -1.6583 0
M  V30 3319 O 314.981 -0.27002 -1.8888 0
M  V30 3320 C 312.121 -0.940419 -3.32039 0
M  V30 3321 C 311.234 -2.14276 -3.75113 0
M  V30 3322 C 310.369 -1.80648 -4.9954 0
M  V30 3323 C 309.408 -2.97208 -5.35102 0
M  V30 3324 N 308.545 -2.63678 -6.50706 0
M  V30 3325 H 313.385 -2.16042 -2.05255 0
M  V30 3326 H 310.922 -1.07451 -1.00463 0
M  V30 3327 H 312.88 -0.763311 -4.10158 0
M  V30 3328 H 311.51 -0.0290413 -3.22787 0
M  V30 3329 H 310.562 -2.43017 -2.92655 0
M  V30 3330 H 311.874 -3.01468 -3.97389 0
M  V30 3331 H 311.028 -1.59484 -5.85363 0
M  V30 3332 H 309.767 -0.906678 -4.79198 0
M  V30 3333 H 308.772 -3.19004 -4.47791 0
M  V30 3334 H 309.997 -3.87918 -5.57401 0
M  V30 3335 H 307.943 -1.76238 -6.31883 0
M  V30 3336 H 307.86 -3.444 -6.72997 0
M  V30 3337 H 309.128 -2.45942 -7.39684 0
M  V30 3338 N 313.357 1.07166 -1.15556 0
M  V30 3339 C 314.587 1.83248 -0.954133 0
M  V30 3340 C 314.995 1.82449 0.500911 0
M  V30 3341 O 314.338 1.23575 1.35923 0
M  V30 3342 C 314.4 3.31393 -1.39351 0
M  V30 3343 C 314.064 3.5591 -2.86666 0
M  V30 3344 C 315.061 3.49695 -3.8472 0
M  V30 3345 C 312.746 3.83515 -3.24379 0
M  V30 3346 C 314.74 3.70737 -5.18491 0
M  V30 3347 C 312.427 4.04209 -4.58321 0
M  V30 3348 C 313.425 3.97815 -5.55186 0
M  V30 3349 O 313.113 4.17954 -6.86709 0
M  V30 3350 H 312.845 0.584941 -0.338851 0
M  V30 3351 H 315.399 1.36169 -1.53777 0
M  V30 3352 H 313.629 3.79292 -0.75329 0
M  V30 3353 H 315.318 3.88945 -1.16089 0
M  V30 3354 H 316.084 3.28368 -3.56931 0
M  V30 3355 H 311.963 3.87605 -2.49567 0
M  V30 3356 H 315.507 3.65663 -5.94085 0
M  V30 3357 H 311.404 4.25023 -4.85825 0
M  V30 3358 H 312.172 4.35291 -6.93155 0
M  V30 3359 N 314.835 0.952656 1.25548 0
M  V30 3360 C 315.768 0.415525 2.24385 0
M  V30 3361 C 316.746 -0.502046 1.54655 0
M  V30 3362 O 317.93 -0.436875 1.83368 0
M  V30 3363 C 315.057 -0.401734 3.36309 0
M  V30 3364 C 314.103 0.455949 4.24056 0
M  V30 3365 S 314.936 1.88698 5.01152 0
M  V30 3366 C 316.092 1.07809 6.16545 0
M  V30 3367 H 316.325 1.25315 2.69599 0
M  V30 3368 H 313.858 0.756587 1.34592 0
M  V30 3369 H 315.816 -0.867329 4.01233 0
M  V30 3370 H 314.477 -1.21416 2.89684 0
M  V30 3371 H 313.67 -0.170776 5.03711 0
M  V30 3372 H 313.272 0.856675 3.64056 0
M  V30 3373 H 315.564 0.325816 6.76716 0
M  V30 3374 H 316.507 1.84849 6.83547 0
M  V30 3375 H 316.915 0.60909 5.61204 0
M  V30 3376 N 316.313 -1.40141 0.720998 0
M  V30 3377 C 317.541 -2.05096 0.272656 0
M  V30 3378 C 317.956 -1.54334 -1.0875 0
M  V30 3379 O 317.313 -0.702211 -1.6845 0
M  V30 3380 C 317.364 -3.60636 0.249835 0
M  V30 3381 O 317.085 -4.09526 1.55629 0
M  V30 3382 C 318.586 -4.42772 -0.216396 0
M  V30 3383 H 315.806 -0.659897 0.121558 0
M  V30 3384 H 318.35 -1.79449 0.980723 0
M  V30 3385 H 316.505 -3.85232 -0.409237 0
M  V30 3386 H 316.919 -5.03758 1.4604 0
M  V30 3387 H 318.393 -5.51702 -0.181212 0
M  V30 3388 H 318.87 -4.20756 -1.25941 0
M  V30 3389 H 319.476 -4.23294 0.412596 0
M  V30 3390 N 317.792 -0.46758 -1.50504 0
M  V30 3391 C 319.041 0.0902868 -2.01498 0
M  V30 3392 C 319.354 1.411 -1.35463 0
M  V30 3393 O 320.56 2.0536 -1.77594 0
M  V30 3394 C 319.016 0.21142 -3.59278 0
M  V30 3395 C 318.624 -1.10065 -4.34269 0
M  V30 3396 C 320.368 0.721433 -4.18325 0
M  V30 3397 C 318.275 -0.943505 -5.83825 0
M  V30 3398 H 317.205 0.037517 -0.753066 0
M  V30 3399 H 319.856 -0.601943 -1.73346 0
M  V30 3400 H 318.238 0.967352 -3.84003 0
M  V30 3401 H 319.412 -1.86726 -4.21272 0
M  V30 3402 H 317.727 -1.5415 -3.86816 0
M  V30 3403 H 320.324 0.85598 -5.27804 0
M  V30 3404 H 320.667 1.71186 -3.79475 0
M  V30 3405 H 321.2 0.0229843 -3.97793 0
M  V30 3406 H 317.939 -1.90719 -6.27141 0
M  V30 3407 H 317.459 -0.217213 -5.99407 0
M  V30 3408 H 319.138 -0.608715 -6.4413 0
M  V30 3409 N 319.27 1.56325 -0.20005 0
M  V30 3410 C 320.495 2.02548 0.44597 0
M  V30 3411 C 320.92 1.07922 1.5406 0
M  V30 3412 O 320.278 0.0635775 1.81188 0
M  V30 3413 C 320.326 3.47175 0.974761 0
M  V30 3414 O 319.43 3.55671 2.08739 0
M  V30 3415 H 318.771 0.655862 0.103638 0
M  V30 3416 H 321.301 2.02201 -0.312381 0
M  V30 3417 H 321.311 3.87067 1.2901 0
M  V30 3418 H 319.986 4.15538 0.17347 0
M  V30 3419 H 318.563 3.27657 1.78032 0
M  V30 3420 N 320.748 -0.0735177 1.57428 0
M  V30 3421 C 321.996 -0.771472 1.86796 0
M  V30 3422 C 322.317 -1.78201 0.791804 0
M  V30 3423 O 321.587 -1.95074 -0.179718 0
M  V30 3424 H 320.167 -0.28791 0.689287 0
M  V30 3425 H 322.829 -0.0500161 1.94836 0
M  V30 3426 H 321.925 -1.28874 2.8425 0
M  V30 3427 N 322.226 -1.5378 -0.344866 0
M  V30 3428 C 323.473 -1.70963 -1.08526 0
M  V30 3429 C 323.801 -0.472126 -1.88683 0
M  V30 3430 O 323.056 0.546116 -1.87926 0
M  V30 3431 C 323.355 -2.92407 -2.05506 0
M  V30 3432 C 323.021 -4.28066 -1.41671 0
M  V30 3433 C 321.683 -4.64951 -1.2399 0
M  V30 3434 C 324.035 -5.12344 -0.956726 0
M  V30 3435 C 321.363 -5.83733 -0.589277 0
M  V30 3436 C 323.715 -6.3179 -0.320015 0
M  V30 3437 C 322.379 -6.67372 -0.130881 0
M  V30 3438 H 321.649 -0.625598 -0.397124 0
M  V30 3439 H 324.296 -1.87995 -0.36469 0
M  V30 3440 H 322.601 -2.69973 -2.8394 0
M  V30 3441 H 324.298 -3.02895 -2.62784 0
M  V30 3442 H 320.888 -3.99034 -1.56429 0
M  V30 3443 H 325.072 -4.8438 -1.08118 0
M  V30 3444 H 320.328 -6.09877 -0.431344 0
M  V30 3445 H 324.502 -6.96386 0.0445072 0
M  V30 3446 H 322.129 -7.59273 0.375318 0
M  V30 3447 N 323.704 0.605807 -1.45491 0
M  V30 3448 C 324.636 1.73031 -1.5031 0
M  V30 3449 C 325.649 1.57968 -0.393687 0
M  V30 3450 O 326.838 1.65817 -0.660839 0
M  V30 3451 C 323.938 3.11049 -1.34543 0
M  V30 3452 C 323.111 3.52334 -2.59189 0
M  V30 3453 C 322.17 4.69323 -2.37954 0
M  V30 3454 O 321.196 4.7635 -3.11575 0
M  V30 3455 N 322.398 5.62705 -1.4263 0
M  V30 3456 H 325.163 1.6936 -2.4726 0
M  V30 3457 H 322.724 0.79114 -1.41254 0
M  V30 3458 H 324.716 3.87071 -1.18144 0
M  V30 3459 H 323.286 3.09217 -0.458623 0
M  V30 3460 H 322.506 2.66256 -2.90691 0
M  V30 3461 H 323.794 3.76677 -3.42041 0
M  V30 3462 H 323.192 5.59744 -0.818758 0
M  V30 3463 H 321.749 6.38252 -1.32202 0
M  V30 3464 N 325.182 1.32811 0.848464 0
M  V30 3465 C 326.431 1.23075 1.59798 0
M  V30 3466 C 326.744 -0.204419 1.94529 0
M  V30 3467 O 327.95 -0.423701 2.68173 0
M  V30 3468 C 326.406 2.15594 2.88179 0
M  V30 3469 C 326.014 3.64228 2.60849 0
M  V30 3470 C 327.758 2.14709 3.66197 0
M  V30 3471 C 325.665 4.48689 3.85269 0
M  V30 3472 H 324.595 0.457091 0.599653 0
M  V30 3473 H 327.246 1.57813 0.936342 0
M  V30 3474 H 325.628 1.73778 3.55833 0
M  V30 3475 H 326.802 4.14424 2.01467 0
M  V30 3476 H 325.117 3.67306 1.96151 0
M  V30 3477 H 327.714 2.75046 4.58534 0
M  V30 3478 H 328.057 1.13966 4.00397 0
M  V30 3479 H 328.59 2.54837 3.05455 0
M  V30 3480 H 325.329 5.5027 3.56207 0
M  V30 3481 H 324.849 4.03241 4.44024 0
M  V30 3482 H 326.528 4.62006 4.52946 0
M  V30 3483 N 326.66 -1.06551 1.16123 0
M  V30 3484 C 327.57 -2.17484 0.879662 0
M  V30 3485 C 328.586 -1.73377 -0.147104 0
M  V30 3486 O 329.762 -2.01379 0.0289128 0
M  V30 3487 C 326.827 -3.44591 0.381829 0
M  V30 3488 C 325.888 -4.0322 1.4735 0
M  V30 3489 C 325.121 -5.24261 0.999324 0
M  V30 3490 O 325.344 -5.70198 -0.151957 0
M  V30 3491 O 324.278 -5.74775 1.78653 0
M  V30 3492 H 328.104 -2.44075 1.80724 0
M  V30 3493 H 325.689 -1.16042 0.940992 0
M  V30 3494 H 327.571 -4.21254 0.111053 0
M  V30 3495 H 326.246 -3.19532 -0.51777 0
M  V30 3496 H 325.153 -3.2806 1.79798 0
M  V30 3497 H 326.486 -4.32568 2.34831 0
M  V30 3498 N 328.138 -0.959301 -1.25041 0
M  V30 3499 C 329.048 -0.489994 -2.29426 0
M  V30 3500 C 330.064 0.444944 -1.68215 0
M  V30 3501 O 331.24 0.320046 -1.98841 0
M  V30 3502 C 328.305 0.220309 -3.45999 0
M  V30 3503 C 327.366 -0.753418 -4.22637 0
M  V30 3504 C 326.599 -0.076918 -5.33645 0
M  V30 3505 O 326.822 1.13649 -5.58963 0
M  V30 3506 O 325.756 -0.764824 -5.97021 0
M  V30 3507 H 329.582 -1.35755 -2.71669 0
M  V30 3508 H 327.167 -0.725961 -1.30576 0
M  V30 3509 H 329.049 0.619677 -4.16819 0
M  V30 3510 H 327.724 1.06296 -3.0575 0
M  V30 3511 H 326.631 -1.20308 -3.54227 0
M  V30 3512 H 327.964 -1.56423 -4.66683 0
M  V30 3513 N 329.616 1.39756 -0.72842 0
M  V30 3514 C 330.844 2.04948 -0.283528 0
M  V30 3515 C 331.259 1.54908 1.0793 0
M  V30 3516 O 330.616 0.711135 1.68075 0
M  V30 3517 C 330.667 3.60498 -0.268957 0
M  V30 3518 O 330.388 4.08695 -1.57798 0
M  V30 3519 C 331.889 4.4288 0.192912 0
M  V30 3520 H 329.109 0.659243 -0.125056 0
M  V30 3521 H 331.653 1.78927 -0.990226 0
M  V30 3522 H 329.808 3.85444 0.388801 0
M  V30 3523 H 330.222 5.02977 -1.48709 0
M  V30 3524 H 331.696 5.51791 0.151952 0
M  V30 3525 H 332.173 4.21418 1.23708 0
M  V30 3526 H 332.779 4.23069 -0.435039 0
M  V30 3527 N 331.094 0.475555 1.50254 0
M  V30 3528 C 332.343 -0.0795996 2.01543 0
M  V30 3529 C 332.656 -1.4038 1.36209 0
M  V30 3530 O 333.862 -2.04415 1.7868 0
M  V30 3531 C 332.318 -0.192363 3.59386 0
M  V30 3532 C 331.926 1.12367 4.33679 0
M  V30 3533 C 333.67 -0.699238 4.18701 0
M  V30 3534 C 331.577 0.974453 5.83317 0
M  V30 3535 H 330.507 -0.0335228 0.753254 0
M  V30 3536 H 333.158 0.611128 1.73025 0
M  V30 3537 H 331.54 -0.946974 3.84511 0
M  V30 3538 H 332.714 1.88958 4.20276 0
M  V30 3539 H 331.029 1.562 3.85993 0
M  V30 3540 H 333.626 -0.827978 5.28251 0
M  V30 3541 H 333.969 -1.69171 3.80377 0
M  V30 3542 H 334.502 -0.00188807 3.978 0
M  V30 3543 H 331.241 1.94042 6.26121 0
M  V30 3544 H 330.761 0.248998 5.99283 0
M  V30 3545 H 332.44 0.642867 6.43798 0
M  V30 3546 N 332.573 -1.56217 0.208337 0
M  V30 3547 C 333.85 -1.89739 -0.475234 0
M  V30 3548 C 334.23 -1.1238 -1.78701 0
M  V30 3549 O 333.578 -0.228979 -2.2735 0
M  V30 3550 C 333.788 -3.42289 -0.681101 0
M  V30 3551 C 335.136 -4.12789 -0.994507 0
M  V30 3552 O 336.16 -3.47814 -0.768357 0
M  V30 3553 O 335.019 -5.27649 -1.42299 0
M  V30 3554 H 332.113 -0.788478 -0.249461 0
M  V30 3555 H 334.659 -1.67855 0.249538 0
M  V30 3556 H 333.431 -3.90534 0.244722 0
M  V30 3557 H 333.054 -3.69909 -1.45785 0
M  V30 3558 N 334.051 0.0651679 -1.57465 0
M  V30 3559 C 335.467 0.420105 -1.53972 0
M  V30 3560 C 335.667 1.78782 -0.929474 0
M  V30 3561 O 334.723 2.46771 -0.534839 0
M  V30 3562 C 336.036 0.355084 -2.98596 0
M  V30 3563 C 337.584 0.434792 -3.09965 0
M  V30 3564 C 338.059 0.399609 -4.56253 0
M  V30 3565 N 339.55 0.459488 -4.60915 0
M  V30 3566 C 340.285 0.454584 -5.71595 0
M  V30 3567 N 339.781 0.404102 -6.9162 0
M  V30 3568 N 341.574 0.501635 -5.59857 0
M  V30 3569 H 333.725 -0.830328 -1.95498 0
M  V30 3570 H 335.988 -0.312244 -0.895102 0
M  V30 3571 H 335.694 -0.583357 -3.46828 0
M  V30 3572 H 335.568 1.16275 -3.58831 0
M  V30 3573 H 337.955 1.36366 -2.61703 0
M  V30 3574 H 338.036 -0.40157 -2.52628 0
M  V30 3575 H 337.68 -0.525436 -5.05175 0
M  V30 3576 H 337.61 1.25359 -5.11461 0
M  V30 3577 H 340.101 0.502482 -3.74544 0
M  V30 3578 H 340.414 0.404468 -7.71741 0
M  V30 3579 H 338.759 0.37069 -6.94011 0
M  V30 3580 H 341.95 0.538812 -4.64989 0
M  V30 3581 H 342.123 0.494345 -6.46112 0
M  V30 3582 N 335.529 1.53961 0.336706 0
M  V30 3583 C 336.439 1.85432 1.43708 0
M  V30 3584 C 337.455 0.745053 1.57242 0
M  V30 3585 O 338.631 1.03804 1.72588 0
M  V30 3586 C 335.696 2.06349 2.78605 0
M  V30 3587 C 334.757 3.30191 2.74358 0
M  V30 3588 C 333.99 3.50101 4.02822 0
M  V30 3589 O 334.213 2.7371 5.00439 0
M  V30 3590 O 333.147 4.43547 4.06878 0
M  V30 3591 H 336.973 2.78975 1.20028 0
M  V30 3592 H 334.558 1.39701 0.52952 0
M  V30 3593 H 336.44 2.21513 3.58483 0
M  V30 3594 H 335.115 1.15995 3.02203 0
M  V30 3595 H 334.022 3.20425 1.93078 0
M  V30 3596 H 335.355 4.2056 2.55715 0
M  V30 3597 N 337.007 -0.598083 1.45811 0
M  V30 3598 C 338.235 -1.38322 1.53866 0
M  V30 3599 C 338.65 -1.87992 0.174479 0
M  V30 3600 O 338.007 -1.62756 -0.825627 0
M  V30 3601 C 338.058 -2.58125 2.53089 0
M  V30 3602 O 337.779 -2.10516 3.84206 0
M  V30 3603 C 339.28 -3.50869 2.70935 0
M  V30 3604 H 336.5 -0.423093 0.520801 0
M  V30 3605 H 339.044 -0.728527 1.91083 0
M  V30 3606 H 337.199 -3.19615 2.18917 0
M  V30 3607 H 337.613 -2.88425 4.38077 0
M  V30 3608 H 339.087 -4.31451 3.44317 0
M  V30 3609 H 339.564 -4.01822 1.77301 0
M  V30 3610 H 340.17 -2.95225 3.06141 0
M  V30 3611 N 338.485 -1.33259 -0.841409 0
M  V30 3612 C 339.71 -1.2775 -1.63385 0
M  V30 3613 C 340.135 0.149188 -1.87507 0
M  V30 3614 O 339.493 1.10498 -1.43736 0
M  V30 3615 C 339.541 -2.05571 -2.96265 0
M  V30 3616 O 338.645 -1.41257 -3.87453 0
M  V30 3617 H 337.986 -0.439627 -0.497618 0
M  V30 3618 H 340.516 -1.75782 -1.04699 0
M  V30 3619 H 340.526 -2.16241 -3.45982 0
M  V30 3620 H 339.201 -3.09309 -2.7803 0
M  V30 3621 H 337.778 -1.39217 -3.45938 0
M  V30 3622 N 339.963 1.05934 -1.16686 0
M  V30 3623 C 341.211 1.78447 -0.948744 0
M  V30 3624 C 341.532 1.87813 0.524523 0
M  V30 3625 O 340.802 1.38945 1.38098 0
M  V30 3626 H 339.382 0.660971 -0.348033 0
M  V30 3627 H 342.044 1.27947 -1.47022 0
M  V30 3628 H 341.14 2.80394 -1.37061 0
M  V30 3629 N 341.441 0.965919 1.2453 0
M  V30 3630 C 342.389 0.486506 2.27455 0
M  V30 3631 C 343.383 -0.449041 1.6334 0
M  V30 3632 O 344.589 -0.324527 1.7705 0
M  V30 3633 H 340.964 0.138857 0.739069 0
M  V30 3634 H 342.935 1.3666 2.65267 0
M  V30 3635 C 341.684 -0.209481 3.47068 0
M  V30 3636 H 341.007 0.50129 3.96645 0
M  V30 3637 H 342.447 -0.508775 4.20936 0
M  V30 3638 C 340.906 -1.43586 3.0477 0
M  V30 3639 O 341.436 -2.53299 3.11773 0
M  V30 3640 N 339.642 -1.30126 2.59838 0
M  V30 3641 H 339.189 -0.408583 2.54339 0
M  V30 3642 H 339.147 -2.12294 2.31902 0
M  V30 3643 N 342.919 -1.39368 0.735821 0
M  V30 3644 C 343.849 -2.33234 0.111506 0
M  V30 3645 C 344.83 -1.53954 -0.723334 0
M  V30 3646 O 346.015 -1.82344 -0.668147 0
M  V30 3647 C 343.145 -3.38057 -0.795917 0
M  V30 3648 C 342.099 -4.2795 -0.065172 0
M  V30 3649 C 341.425 -5.23479 -1.08967 0
M  V30 3650 C 342.725 -5.10741 1.09273 0
M  V30 3651 H 344.419 -2.85692 0.895571 0
M  V30 3652 H 341.965 -1.37364 0.432109 0
M  V30 3653 H 343.918 -4.02675 -1.24221 0
M  V30 3654 H 342.642 -2.8404 -1.61211 0
M  V30 3655 H 341.301 -3.64813 0.361511 0
M  V30 3656 H 340.949 -4.65758 -1.89944 0
M  V30 3657 H 340.649 -5.84472 -0.605489 0
M  V30 3658 H 342.173 -5.90974 -1.53565 0
M  V30 3659 H 343.587 -5.68699 0.724841 0
M  V30 3660 H 341.984 -5.8088 1.50659 0
M  V30 3661 H 343.054 -4.45525 1.91404 0
M  V30 3662 N 344.397 -0.483516 -1.5 0
M  V30 3663 C 345.307 0.309172 -2.32554 0
M  V30 3664 C 346.323 0.984159 -1.43493 0
M  V30 3665 O 347.499 0.969399 -1.76535 0
M  V30 3666 C 344.564 1.36979 -3.18493 0
M  V30 3667 C 343.625 0.710095 -4.23387 0
M  V30 3668 C 342.858 1.72018 -5.05218 0
M  V30 3669 O 343.081 2.94813 -4.88305 0
M  V30 3670 O 342.015 1.28515 -5.8802 0
M  V30 3671 H 345.841 -0.366064 -3.01486 0
M  V30 3672 H 343.426 -0.24514 -1.47375 0
M  V30 3673 H 345.308 1.98385 -3.71781 0
M  V30 3674 H 343.983 2.02828 -2.52275 0
M  V30 3675 H 342.89 0.0567539 -3.74057 0
M  V30 3676 H 344.223 0.0943557 -4.9211 0
M  V30 3677 N 345.875 1.56104 -0.216619 0
M  V30 3678 C 346.807 2.17339 0.72776 0
M  V30 3679 C 347.82 1.14109 1.16116 0
M  V30 3680 O 349.009 1.4111 1.09317 0
M  V30 3681 C 346.109 2.73818 1.99693 0
M  V30 3682 C 345.282 4.02168 1.71988 0
M  V30 3683 C 344.341 4.43259 2.83562 0
M  V30 3684 O 343.367 5.10257 2.52244 0
M  V30 3685 N 344.569 4.08535 4.12407 0
M  V30 3686 H 347.334 2.99005 0.203983 0
M  V30 3687 H 344.895 1.61861 -0.0354289 0
M  V30 3688 H 346.887 2.9828 2.73516 0
M  V30 3689 H 345.457 1.96483 2.43132 0
M  V30 3690 H 344.677 3.85612 0.818337 0
M  V30 3691 H 345.965 4.85907 1.50903 0
M  V30 3692 H 345.363 3.54687 4.40696 0
M  V30 3693 H 343.92 4.37901 4.8279 0
M  V30 3694 N 347.353 -0.0568162 1.57498 0
M  V30 3695 C 348.283 -1.06593 2.0775 0
M  V30 3696 C 349.264 -1.39448 0.974082 0
M  V30 3697 O 350.449 -1.48815 1.24771 0
M  V30 3698 C 347.579 -2.37509 2.5339 0
M  V30 3699 C 346.533 -2.1897 3.67745 0
M  V30 3700 C 345.859 -3.55402 3.99492 0
M  V30 3701 C 347.159 -1.59859 4.97235 0
M  V30 3702 H 348.853 -0.647706 2.9231 0
M  V30 3703 H 346.399 -0.310116 1.40621 0
M  V30 3704 H 348.352 -3.08409 2.87162 0
M  V30 3705 H 347.076 -2.8134 1.65878 0
M  V30 3706 H 345.735 -1.50508 3.3428 0
M  V30 3707 H 345.383 -3.9683 3.09088 0
M  V30 3708 H 345.083 -3.43831 4.76502 0
M  V30 3709 H 346.607 -4.27708 4.35773 0
M  V30 3710 H 348.021 -2.20642 5.29141 0
M  V30 3711 H 346.418 -1.58942 5.78669 0
M  V30 3712 H 347.488 -0.561506 4.81638 0
M  V30 3713 N 348.832 -1.54138 -0.328536 0
M  V30 3714 C 349.762 -1.86167 -1.40939 0
M  V30 3715 C 350.743 -0.718044 -1.54202 0
M  V30 3716 O 351.928 -0.971328 -1.68163 0
M  V30 3717 C 349.058 -2.08461 -2.77779 0
M  V30 3718 C 348.012 -3.24299 -2.7931 0
M  V30 3719 C 347.338 -3.31955 -4.19178 0
M  V30 3720 C 348.638 -4.62065 -2.43502 0
M  V30 3721 H 350.332 -2.76689 -1.14383 0
M  V30 3722 H 347.878 -1.33132 -0.548806 0
M  V30 3723 H 349.831 -2.29453 -3.53454 0
M  V30 3724 H 348.555 -1.14684 -3.05802 0
M  V30 3725 H 347.214 -3.03187 -2.0609 0
M  V30 3726 H 346.862 -2.35745 -4.44335 0
M  V30 3727 H 346.562 -4.09805 -4.2111 0
M  V30 3728 H 348.086 -3.55175 -4.96672 0
M  V30 3729 H 349.5 -4.8297 -3.08889 0
M  V30 3730 H 347.897 -5.42429 -2.56693 0
M  V30 3731 H 348.967 -4.64652 -1.38659 0
M  V30 3732 N 350.31 0.590341 -1.46126 0
M  V30 3733 C 351.24 1.71032 -1.58966 0
M  V30 3734 C 352.221 1.64302 -0.440335 0
M  V30 3735 O 353.406 1.82436 -0.665634 0
M  V30 3736 C 350.536 3.09665 -1.57241 0
M  V30 3737 C 349.49 3.31221 -2.71066 0
M  V30 3738 C 348.816 4.70303 -2.54399 0
M  V30 3739 C 350.116 3.19796 -4.1295 0
M  V30 3740 H 351.81 1.60543 -2.52718 0
M  V30 3741 H 349.356 0.770933 -1.21625 0
M  V30 3742 H 351.309 3.87831 -1.64819 0
M  V30 3743 H 350.033 3.21036 -0.600289 0
M  V30 3744 H 348.692 2.55452 -2.62944 0
M  V30 3745 H 348.34 4.78429 -1.55288 0
M  V30 3746 H 348.04 4.85679 -3.30741 0
M  V30 3747 H 349.564 5.50647 -2.63857 0
M  V30 3748 H 350.978 3.87815 -4.22223 0
M  V30 3749 H 349.375 3.46696 -4.89818 0
M  V30 3750 H 350.445 2.16983 -4.33643 0
M  V30 3751 N 351.788 1.33704 0.83433 0
M  V30 3752 C 352.751 1.24244 1.92603 0
M  V30 3753 C 353.751 0.160383 1.59998 0
M  V30 3754 O 354.941 0.412228 1.69252 0
M  V30 3755 C 352.073 0.91555 3.28376 0
M  V30 3756 H 353.266 2.21287 2.02416 0
M  V30 3757 H 350.819 1.17827 1.02696 0
M  V30 3758 H 351.554 -0.0521886 3.24258 0
M  V30 3759 H 351.339 1.69811 3.53422 0
M  V30 3760 H 352.829 0.874231 4.08347 0
M  V30 3761 N 353.266 -1.05314 1.17247 0
M  V30 3762 C 354.512 -1.78557 0.961513 0
M  V30 3763 C 354.845 -1.87419 -0.508697 0
M  V30 3764 O 354.12 -1.37307 -1.37757 0
M  V30 3765 C 354.403 -3.22514 1.60176 0
M  V30 3766 C 354.256 -3.21673 3.14399 0
M  V30 3767 C 355.575 -4.20318 1.30463 0
M  V30 3768 H 352.694 -0.6482 0.350723 0
M  V30 3769 H 355.336 -1.23102 1.44727 0
M  V30 3770 H 353.486 -3.69867 1.18871 0
M  V30 3771 H 355.158 -2.82405 3.64753 0
M  V30 3772 H 353.401 -2.60048 3.47214 0
M  V30 3773 H 354.072 -4.23271 3.54324 0
M  V30 3774 H 356.548 -3.81454 1.66229 0
M  V30 3775 H 355.424 -5.19289 1.77848 0
M  V30 3776 H 355.685 -4.41526 0.22521 0
M  V30 3777 N 354.744 -0.972509 -1.24016 0
M  V30 3778 C 355.99 -0.637978 -1.92504 0
M  V30 3779 C 356.323 0.825383 -1.75787 0
M  V30 3780 O 355.598 1.59442 -1.11393 0
M  V30 3781 C 355.881 -1.01942 -3.45369 0
M  V30 3782 C 355.734 -2.53983 -3.71231 0
M  V30 3783 C 357.053 -0.55751 -4.36555 0
M  V30 3784 H 354.172 -0.233248 -0.699117 0
M  V30 3785 H 356.814 -1.21238 -1.46292 0
M  V30 3786 H 354.964 -0.530656 -3.84859 0
M  V30 3787 H 356.636 -3.10374 -3.41271 0
M  V30 3788 H 354.879 -2.96968 -3.16216 0
M  V30 3789 H 355.55 -2.75723 -4.78206 0
M  V30 3790 H 358.026 -0.977029 -4.04467 0
M  V30 3791 H 356.902 -0.85292 -5.42233 0
M  V30 3792 H 357.163 0.542328 -4.38761 0
M  V30 3793 N 356.222 1.38976 -0.743202 0
M  V30 3794 C 357.169 2.30544 -0.10861 0
M  V30 3795 C 358.139 1.49642 0.720869 0
M  V30 3796 O 359.324 1.78304 0.679142 0
M  V30 3797 C 356.464 3.36018 0.786496 0
M  V30 3798 C 355.577 4.31963 -0.0564849 0
M  V30 3799 C 354.712 5.24506 0.840657 0
M  V30 3800 C 353.751 6.121 -0.00658363 0
M  V30 3801 N 352.888 6.96973 0.846943 0
M  V30 3802 H 357.728 2.8424 -0.895088 0
M  V30 3803 H 355.265 1.3995 -0.453048 0
M  V30 3804 H 357.223 3.95768 1.31999 0
M  V30 3805 H 355.853 2.83758 1.53887 0
M  V30 3806 H 354.905 3.73763 -0.707492 0
M  V30 3807 H 356.217 4.93703 -0.711229 0
M  V30 3808 H 355.371 5.89322 1.4417 0
M  V30 3809 H 354.11 4.63107 1.52916 0
M  V30 3810 H 353.115 5.46289 -0.620366 0
M  V30 3811 H 354.34 6.75565 -0.691992 0
M  V30 3812 H 352.286 6.38133 1.52059 0
M  V30 3813 H 352.203 7.5559 0.248864 0
M  V30 3814 H 353.471 7.6621 1.43328 0
M  V30 3815 N 357.7 0.491464 1.49741 0
M  V30 3816 C 358.925 -0.0557177 2.07325 0
M  V30 3817 C 359.35 -1.30925 1.35056 0
M  V30 3818 O 358.708 -1.76733 0.404365 0
M  V30 3819 C 358.756 -0.302074 3.59333 0
M  V30 3820 O 357.86 -1.37868 3.88672 0
M  V30 3821 H 357.201 0.0219956 0.663636 0
M  V30 3822 H 359.731 0.688352 1.92673 0
M  V30 3823 H 359.741 -0.536464 4.04458 0
M  V30 3824 H 358.416 0.61383 4.11345 0
M  V30 3825 H 356.993 -1.12999 3.55367 0
M  V30 3826 N 359.178 -1.55987 0.224894 0
M  V30 3827 C 360.427 -1.97566 -0.406273 0
M  V30 3828 C 360.74 -1.11569 -1.6066 0
M  V30 3829 O 361.946 -1.43062 -2.3075 0
M  V30 3830 C 360.402 -3.51474 -0.774207 0
M  V30 3831 C 360.01 -4.46179 0.403496 0
M  V30 3832 C 361.754 -4.01758 -1.37079 0
M  V30 3833 C 359.661 -5.91399 0.0129412 0
M  V30 3834 H 358.591 -0.737777 -0.155565 0
M  V30 3835 H 361.242 -1.80659 0.321635 0
M  V30 3836 H 359.624 -3.63994 -1.55963 0
M  V30 3837 H 360.798 -4.45409 1.18101 0
M  V30 3838 H 359.113 -4.06255 0.913536 0
M  V30 3839 H 361.71 -5.07756 -1.67596 0
M  V30 3840 H 362.053 -3.47805 -2.28773 0
M  V30 3841 H 362.586 -3.92475 -0.648733 0
M  V30 3842 H 359.325 -6.49341 0.896451 0
M  V30 3843 H 358.845 -5.95356 -0.728821 0
M  V30 3844 H 360.524 -6.45683 -0.412582 0
M  V30 3845 N 360.656 0.0484629 -1.57525 0
M  V30 3846 C 362.072 0.40375 -1.54409 0
M  V30 3847 C 362.272 1.77786 -0.948384 0
M  V30 3848 O 361.328 2.46189 -0.560983 0
M  V30 3849 C 362.641 0.323394 -2.98956 0
M  V30 3850 C 364.189 0.401892 -3.10409 0
M  V30 3851 C 364.664 0.351195 -4.56652 0
M  V30 3852 N 366.155 0.410576 -4.61377 0
M  V30 3853 C 366.89 0.393933 -5.72045 0
M  V30 3854 N 366.386 0.330724 -6.9201 0
M  V30 3855 N 368.179 0.442227 -5.60358 0
M  V30 3856 H 360.33 -0.851016 -1.94606 0
M  V30 3857 H 362.593 -0.321721 -0.89174 0
M  V30 3858 H 362.299 -0.62011 -3.4619 0
M  V30 3859 H 362.173 1.12463 -3.60044 0
M  V30 3860 H 364.56 1.33582 -2.63134 0
M  V30 3861 H 364.641 -0.428342 -2.52188 0
M  V30 3862 H 364.285 -0.578987 -5.04589 0
M  V30 3863 H 364.215 1.19928 -5.12762 0
M  V30 3864 H 366.706 0.462729 -3.75056 0
M  V30 3865 H 367.019 0.322592 -7.72126 0
M  V30 3866 H 365.364 0.29706 -6.94365 0
M  V30 3867 H 368.555 0.489464 -4.65534 0
M  V30 3868 H 368.728 0.425788 -6.466 0
M  V30 3869 N 362.134 1.5431 0.320358 0
M  V30 3870 C 363.359 1.76954 1.08175 0
M  V30 3871 C 363.784 0.518193 1.80821 0
M  V30 3872 O 363.142 -0.530411 1.73368 0
M  V30 3873 C 363.19 2.96451 2.05303 0
M  V30 3874 O 362.294 2.68221 3.13259 0
M  V30 3875 H 361.635 0.586275 0.311733 0
M  V30 3876 H 364.165 2.01342 0.363676 0
M  V30 3877 H 364.175 3.23887 2.48116 0
M  V30 3878 H 362.85 3.87196 1.51829 0
M  V30 3879 H 361.427 2.51744 2.75099 0
M  V30 3880 N 363.613 -0.582584 1.46437 0
M  V30 3881 C 364.862 -1.337 1.5102 0
M  V30 3882 C 365.175 -1.94891 0.166359 0
M  V30 3883 O 366.381 -2.71351 0.0899954 0
M  V30 3884 C 364.837 -2.42315 2.66104 0
M  V30 3885 C 364.445 -1.87427 4.06909 0
M  V30 3886 C 366.189 -3.19099 2.79958 0
M  V30 3887 C 364.096 -2.93672 5.13333 0
M  V30 3888 H 363.026 -0.502619 0.562041 0
M  V30 3889 H 365.677 -0.621701 1.72647 0
M  V30 3890 H 364.059 -3.16645 2.37807 0
M  V30 3891 H 365.233 -1.19639 4.44998 0
M  V30 3892 H 363.548 -1.2331 3.97723 0
M  V30 3893 H 366.145 -3.9839 3.56636 0
M  V30 3894 H 366.488 -3.71695 1.87479 0
M  V30 3895 H 367.021 -2.51875 3.07902 0
M  V30 3896 H 363.76 -2.45962 6.07604 0
M  V30 3897 H 363.28 -3.59948 4.79789 0
M  V30 3898 H 364.959 -3.5762 5.39182 0
M  V30 3899 N 365.091 -1.34144 -0.827227 0
M  V30 3900 C 366.502 -1.23557 -1.39966 0
M  V30 3901 C 366.853 0.140731 -1.95695 0
M  V30 3902 O 365.978 1.04087 -1.89723 0
M  V30 3903 C 366.573 -2.23708 -2.54441 0
M  V30 3904 C 365.132 -2.16924 -3.07605 0
M  V30 3905 C 364.279 -2.10549 -1.80456 0
M  V30 3906 H 367.23 -1.45573 -0.631991 0
M  V30 3907 H 367.251 -1.85157 -3.32411 0
M  V30 3908 H 366.763 -3.23866 -2.13851 0
M  V30 3909 H 364.864 -1.20107 -3.52711 0
M  V30 3910 H 364.977 -3.07988 -3.66988 0
M  V30 3911 H 363.341 -1.56203 -2.01178 0
M  V30 3912 H 364.124 -3.12535 -1.42046 0
M  V30 3913 N 366.569 1.04691 -1.17803 0
M  V30 3914 C 367.532 2.10724 -0.901545 0
M  V30 3915 C 368.532 1.6042 0.110437 0
M  V30 3916 O 369.722 1.7377 -0.122303 0
M  V30 3917 C 366.854 3.39084 -0.351409 0
M  V30 3918 H 368.047 2.36686 -1.84174 0
M  V30 3919 H 365.6 1.21015 -0.98919 0
M  V30 3920 H 366.335 3.18782 0.59569 0
M  V30 3921 H 366.12 3.76909 -1.08083 0
M  V30 3922 H 367.61 4.17227 -0.176451 0
M  V30 3923 N 368.047 0.979072 1.23499 0
M  V30 3924 C 369.277 0.664237 1.95631 0
M  V30 3925 C 369.685 -0.772653 1.72704 0
M  V30 3926 O 369.028 -1.53141 1.01457 0
M  V30 3927 C 369.09 0.873115 3.48736 0
M  V30 3928 C 368.754 2.29182 3.95379 0
M  V30 3929 C 369.751 3.2704 4.04155 0
M  V30 3930 C 367.436 2.62256 4.28401 0
M  V30 3931 C 369.43 4.56052 4.45304 0
M  V30 3932 C 367.117 3.91491 4.69231 0
M  V30 3933 C 368.115 4.88201 4.77649 0
M  V30 3934 O 367.803 6.15129 5.17563 0
M  V30 3935 H 367.535 0.245915 0.629684 0
M  V30 3936 H 370.089 1.3127 1.57979 0
M  V30 3937 H 368.319 0.167476 3.86337 0
M  V30 3938 H 370.008 0.555642 4.02079 0
M  V30 3939 H 370.774 3.02819 3.78848 0
M  V30 3940 H 366.653 1.87692 4.21061 0
M  V30 3941 H 370.197 5.31538 4.51789 0
M  V30 3942 H 366.094 4.15508 4.93987 0
M  V30 3943 H 366.862 6.18862 5.35679 0
M  V30 3944 N 369.525 -1.3858 0.750561 0
M  V30 3945 C 370.455 -2.33102 0.136237 0
M  V30 3946 C 371.436 -1.54713 -0.706965 0
M  V30 3947 O 372.621 -1.83043 -0.648769 0
M  V30 3948 C 369.751 -3.38882 -0.760017 0
M  V30 3949 C 368.705 -4.27995 -0.0197785 0
M  V30 3950 C 368.031 -5.24605 -1.03408 0
M  V30 3951 C 369.331 -5.09554 1.14684 0
M  V30 3952 H 371.025 -2.84726 0.925822 0
M  V30 3953 H 368.571 -1.36898 0.446654 0
M  V30 3954 H 370.524 -4.0397 -1.19943 0
M  V30 3955 H 369.248 -2.85734 -1.58189 0
M  V30 3956 H 367.907 -3.64409 0.400184 0
M  V30 3957 H 367.555 -4.67746 -1.84994 0
M  V30 3958 H 367.255 -5.85081 -0.543464 0
M  V30 3959 H 368.779 -5.9257 -1.47288 0
M  V30 3960 H 370.193 -5.67899 0.785118 0
M  V30 3961 H 368.59 -5.7925 1.56812 0
M  V30 3962 H 369.66 -4.4347 1.96118 0
M  V30 3963 N 371.003 -0.499398 -1.49478 0
M  V30 3964 C 371.966 0.268838 -2.27618 0
M  V30 3965 C 372.966 0.895383 -1.33565 0
M  V30 3966 O 374.156 0.760164 -1.56739 0
M  V30 3967 C 371.288 1.38559 -3.11471 0
M  V30 3968 H 372.481 -0.416812 -2.96989 0
M  V30 3969 H 370.034 -0.254313 -1.54217 0
M  V30 3970 H 370.769 2.10544 -2.46661 0
M  V30 3971 H 370.554 0.941797 -3.80621 0
M  V30 3972 H 372.044 1.92678 -3.70493 0
M  V30 3973 N 372.481 1.55866 -0.233164 0
M  V30 3974 C 373.391 2.24431 0.683217 0
M  V30 3975 C 374.407 1.2558 1.2044 0
M  V30 3976 O 375.583 1.58422 1.24356 0
M  V30 3977 C 372.648 2.91979 1.86947 0
M  V30 3978 C 371.709 4.06204 1.38912 0
M  V30 3979 C 370.942 4.70522 2.51883 0
M  V30 3980 O 371.165 4.33865 3.70293 0
M  V30 3981 O 370.099 5.59296 2.22423 0
M  V30 3982 H 373.925 3.03426 0.129059 0
M  V30 3983 H 371.51 1.494 -0.0022283 0
M  V30 3984 H 373.392 3.34573 2.56201 0
M  V30 3985 H 372.067 2.15935 2.41151 0
M  V30 3986 H 370.974 3.68155 0.664259 0
M  V30 3987 H 372.307 4.84025 0.893328 0
M  V30 3988 N 373.959 -0.0401083 1.57549 0
M  V30 3989 C 375.187 -0.745196 1.93014 0
M  V30 3990 C 375.602 -1.6948 0.831984 0
M  V30 3991 O 374.959 -1.81482 -0.192463 0
M  V30 3992 C 375.01 -1.51176 3.28372 0
M  V30 3993 O 374.731 -0.600284 4.33968 0
M  V30 3994 C 376.232 -2.315 3.78051 0
M  V30 3995 H 373.452 -0.210088 0.637263 0
M  V30 3996 H 375.996 -0.000924689 2.045 0
M  V30 3997 H 374.151 -2.20801 3.18317 0
M  V30 3998 H 374.565 -1.13669 5.12035 0
M  V30 3999 H 376.039 -2.80697 4.75303 0
M  V30 4000 H 376.516 -3.12436 3.08675 0
M  V30 4001 H 377.122 -1.66971 3.91153 0
M  V30 4002 N 375.437 -1.54477 -0.31217 0
M  V30 4003 C 376.367 -1.87652 -1.38957 0
M  V30 4004 C 377.348 -0.734358 -1.53431 0
M  V30 4005 O 378.533 -0.98911 -1.67123 0
M  V30 4006 C 375.663 -2.11396 -2.75552 0
M  V30 4007 C 374.617 -3.27243 -2.75855 0
M  V30 4008 C 373.943 -3.36382 -4.15633 0
M  V30 4009 C 375.243 -4.64622 -2.38587 0
M  V30 4010 H 376.937 -2.77887 -1.11442 0
M  V30 4011 H 374.483 -1.33707 -0.534655 0
M  V30 4012 H 376.436 -2.33189 -3.51 0
M  V30 4013 H 375.16 -1.17921 -3.04569 0
M  V30 4014 H 373.819 -3.05356 -2.02863 0
M  V30 4015 H 373.467 -2.40445 -4.41809 0
M  V30 4016 H 373.167 -4.14249 -4.1674 0
M  V30 4017 H 374.691 -3.60422 -4.92877 0
M  V30 4018 H 376.105 -4.86219 -3.03749 0
M  V30 4019 H 374.502 -5.45121 -2.50925 0
M  V30 4020 H 375.572 -4.66097 -1.33723 0
M  V30 4021 N 376.915 0.57481 -1.46744 0
M  V30 4022 C 378.145 1.35659 -1.55821 0
M  V30 4023 C 378.553 1.88129 -0.201036 0
M  V30 4024 O 377.896 1.64723 0.813134 0
M  V30 4025 C 377.958 2.57473 -2.50894 0
M  V30 4026 C 377.622 2.26415 -3.9697 0
M  V30 4027 C 378.619 1.84771 -4.85958 0
M  V30 4028 C 376.304 2.38316 -4.42166 0
M  V30 4029 C 378.298 1.55434 -6.18158 0
M  V30 4030 C 375.985 2.08591 -5.74398 0
M  V30 4031 C 376.983 1.67216 -6.62214 0
M  V30 4032 O 376.671 1.37859 -7.91991 0
M  V30 4033 H 376.403 0.420496 -0.529301 0
M  V30 4034 H 378.957 0.704967 -1.92923 0
M  V30 4035 H 377.187 3.25468 -2.08824 0
M  V30 4036 H 378.876 3.19546 -2.50291 0
M  V30 4037 H 379.642 1.75085 -4.52295 0
M  V30 4038 H 375.521 2.69483 -3.74032 0
M  V30 4039 H 379.065 1.23065 -6.86659 0
M  V30 4040 H 374.962 2.17905 -6.07608 0
M  V30 4041 H 375.73 1.51638 -8.04331 0
M  V30 4042 N 378.394 1.34581 0.820102 0
M  V30 4043 C 379.624 1.29991 1.6058 0
M  V30 4044 C 380.032 -0.127588 1.88769 0
M  V30 4045 O 379.375 -1.08595 1.48165 0
M  V30 4046 C 379.437 2.02548 2.9701 0
M  V30 4047 C 379.101 3.51794 2.91701 0
M  V30 4048 C 380.098 4.46647 2.66087 0
M  V30 4049 C 377.783 3.94249 3.11245 0
M  V30 4050 C 379.777 5.81929 2.60071 0
M  V30 4051 C 377.464 5.2963 3.04853 0
M  V30 4052 C 378.462 6.23282 2.793 0
M  V30 4053 O 378.15 7.56181 2.72847 0
M  V30 4054 H 377.882 0.448539 0.505756 0
M  V30 4055 H 380.436 1.77811 1.02822 0
M  V30 4056 H 378.666 1.49345 3.56697 0
M  V30 4057 H 380.355 1.91211 3.58041 0
M  V30 4058 H 381.121 4.15168 2.5072 0
M  V30 4059 H 377 3.21749 3.30149 0
M  V30 4060 H 380.544 6.54999 2.40046 0
M  V30 4061 H 376.441 5.60727 3.19774 0
M  V30 4062 H 377.209 7.6595 2.88553 0
M  V30 4063 N 379.872 -1.04064 1.18357 0
M  V30 4064 C 380.835 -2.10243 0.912707 0
M  V30 4065 C 381.835 -1.60477 -0.101928 0
M  V30 4066 O 383.025 -1.73703 0.131517 0
M  V30 4067 C 380.157 -3.38893 0.369387 0
M  V30 4068 H 381.35 -2.35706 1.85426 0
M  V30 4069 H 378.903 -1.20489 0.995594 0
M  V30 4070 H 379.638 -3.19094 -0.578776 0
M  V30 4071 H 379.423 -3.76331 1.1008 0
M  V30 4072 H 380.913 -4.17128 0.198575 0
M  V30 4073 N 381.35 -0.985608 -1.22978 0
M  V30 4074 C 382.283 -0.47487 -2.23204 0
M  V30 4075 C 383.261 0.460865 -1.55932 0
M  V30 4076 O 384.445 0.388105 -1.84461 0
M  V30 4077 C 381.572 0.312427 -3.37256 0
M  V30 4078 C 380.618 -0.568219 -4.22698 0
M  V30 4079 S 381.451 -2.01919 -4.95973 0
M  V30 4080 C 382.607 -1.24118 -6.1347 0
M  V30 4081 H 382.84 -1.32419 -2.66181 0
M  V30 4082 H 380.373 -0.792005 -1.32539 0
M  V30 4083 H 382.331 0.760645 -4.03391 0
M  V30 4084 H 380.992 1.13693 -2.92801 0
M  V30 4085 H 380.185 0.0371657 -5.03986 0
M  V30 4086 H 379.787 -0.952897 -3.61657 0
M  V30 4087 H 382.079 -0.505121 -6.75614 0
M  V30 4088 H 383.022 -2.02907 -6.78406 0
M  V30 4089 H 383.43 -0.757669 -5.59392 0
M  V30 4090 N 382.828 1.3818 -0.7579 0
M  V30 4091 C 383.775 2.30416 -0.133057 0
M  V30 4092 C 384.745 1.50398 0.704957 0
M  V30 4093 O 385.93 1.79014 0.660192 0
M  V30 4094 C 383.07 3.36834 0.750813 0
M  V30 4095 C 382.183 4.31879 -0.102297 0
M  V30 4096 C 381.318 5.25368 0.784979 0
M  V30 4097 C 380.357 6.12058 -0.0715046 0
M  V30 4098 N 379.494 6.97832 0.772972 0
M  V30 4099 H 384.334 2.83274 -0.925186 0
M  V30 4100 H 381.871 1.39461 -0.467866 0
M  V30 4101 H 383.829 3.97145 1.27794 0
M  V30 4102 H 382.459 2.85374 1.50868 0
M  V30 4103 H 381.511 3.72991 -0.747095 0
M  V30 4104 H 382.823 4.92921 -0.763552 0
M  V30 4105 H 381.977 5.90818 1.37911 0
M  V30 4106 H 380.716 4.64703 1.47996 0
M  V30 4107 H 379.721 5.456 -0.678272 0
M  V30 4108 H 380.946 6.74793 -0.763606 0
M  V30 4109 H 378.892 6.3971 1.45282 0
M  V30 4110 H 378.809 7.55812 0.168709 0
M  V30 4111 H 380.077 7.67687 1.35194 0
M  V30 4112 N 384.306 0.507319 1.49211 0
M  V30 4113 C 385.554 -0.0348839 2.0207 0
M  V30 4114 C 385.875 -1.36898 1.38866 0
M  V30 4115 O 385.145 -1.88133 0.546151 0
M  V30 4116 H 383.725 -0.0158812 0.746831 0
M  V30 4117 H 386.387 0.665998 1.83168 0
M  V30 4118 H 385.483 -0.159917 3.1169 0
M  V30 4119 N 385.784 -1.5574 0.241426 0
M  V30 4120 C 386.747 -2.19877 -0.647063 0
M  V30 4121 C 387.747 -1.16642 -1.10686 0
M  V30 4122 O 388.937 -1.41757 -1.01245 0
M  V30 4123 C 386.069 -2.83797 -1.88871 0
M  V30 4124 H 387.262 -2.99772 -0.087574 0
M  V30 4125 H 384.815 -1.56298 -0.00813574 0
M  V30 4126 H 385.55 -2.07824 -2.48957 0
M  V30 4127 H 385.335 -3.59414 -1.56728 0
M  V30 4128 H 386.825 -3.32898 -2.52129 0
M  V30 4129 N 387.262 0.0317525 -1.57568 0
M  V30 4130 C 388.51 0.721676 -1.88776 0
M  V30 4131 C 388.831 1.76039 -0.838772 0
M  V30 4132 O 388.101 1.95482 0.127935 0
M  V30 4133 H 386.681 0.269534 -0.696678 0
M  V30 4134 H 389.343 -0.00165879 -1.949 0
M  V30 4135 H 388.439 1.21293 -2.87566 0
M  V30 4136 N 388.74 1.54641 0.303973 0
M  V30 4137 C 389.968 1.77768 1.05858 0
M  V30 4138 C 390.383 0.535722 1.8104 0
M  V30 4139 O 389.74 -0.494337 1.75677 0
M  V30 4140 C 389.791 2.9834 2.04146 0
M  V30 4141 O 389.512 4.17736 1.32015 0
M  V30 4142 C 391.013 3.33832 2.91669 0
M  V30 4143 H 388.233 0.592961 0.314067 0
M  V30 4144 H 390.777 2.01583 0.344149 0
M  V30 4145 H 388.932 2.76742 2.71096 0
M  V30 4146 H 389.346 4.85693 1.97998 0
M  V30 4147 H 390.82 4.21448 3.56491 0
M  V30 4148 H 391.297 2.51857 3.59812 0
M  V30 4149 H 391.903 3.57579 2.30254 0
M  V30 4150 N 390.218 -0.567019 1.47046 0
M  V30 4151 C 391.495 -1.3276 1.43646 0
M  V30 4152 C 391.875 -2.1071 0.128186 0
M  V30 4153 O 391.223 -2.10441 -0.890326 0
M  V30 4154 C 391.433 -2.2404 2.67595 0
M  V30 4155 C 392.781 -2.85372 3.14401 0
M  V30 4156 O 393.805 -2.34346 2.68254 0
M  V30 4157 O 392.664 -3.78091 3.946 0
M  V30 4158 H 389.758 -0.597293 0.571988 0
M  V30 4159 H 392.304 -0.586735 1.59234 0
M  V30 4160 H 391.076 -1.65975 3.54356 0
M  V30 4161 H 390.699 -3.05439 2.54544 0
M  V30 4162 N 391.696 -1.35014 -0.812953 0
M  V30 4163 C 392.973 -1.18502 -1.55617 0
M  V30 4164 C 393.353 0.238421 -2.09749 0
M  V30 4165 O 392.701 1.2411 -1.91857 0
M  V30 4166 C 392.911 -2.24783 -2.66971 0
M  V30 4167 C 394.259 -2.60268 -3.35478 0
M  V30 4168 O 395.283 -2.23648 -2.77236 0
M  V30 4169 O 394.142 -3.2321 -4.40678 0
M  V30 4170 H 391.236 -0.459984 -0.687272 0
M  V30 4171 H 393.782 -1.46677 -0.853464 0
M  V30 4172 H 392.554 -3.20284 -2.24798 0
M  V30 4173 H 392.177 -1.97841 -3.44884 0
M  V30 4174 N 393.175 1.03435 -1.18907 0
M  V30 4175 C 394.125 2.09924 -0.889706 0
M  V30 4176 C 395.109 1.60261 0.143216 0
M  V30 4177 O 396.301 1.76892 -0.0617122 0
M  V30 4178 C 393.43 3.40669 -0.424168 0
M  V30 4179 C 392.516 3.97082 -1.48952 0
M  V30 4180 N 392.907 4.27227 -2.70759 0
M  V30 4181 C 391.205 4.25029 -1.35152 0
M  V30 4182 C 391.906 4.7246 -3.39347 0
M  V30 4183 N 390.882 4.7366 -2.66735 0
M  V30 4184 H 394.684 2.31116 -1.81555 0
M  V30 4185 H 392.198 1.21246 -1.08042 0
M  V30 4186 H 394.195 4.16461 -0.191176 0
M  V30 4187 H 392.855 3.20901 0.495263 0
M  V30 4188 H 393.866 4.16678 -3.0757 0
M  V30 4189 H 390.543 4.14554 -0.495126 0
M  V30 4190 H 391.933 5.04751 -4.43481 0
M  V30 4191 N 394.653 0.992116 1.22453 0
M  V30 4192 C 395.881 0.685944 1.95198 0
M  V30 4193 C 396.296 -0.749233 1.73297 0
M  V30 4194 O 395.653 -1.50549 1.03156 0
M  V30 4195 C 395.704 0.981395 3.47924 0
M  V30 4196 O 395.425 2.36018 3.6909 0
M  V30 4197 C 396.926 0.692815 4.37853 0
M  V30 4198 H 394.146 0.253821 0.621141 0
M  V30 4199 H 396.69 1.32668 1.55626 0
M  V30 4200 H 394.845 0.386481 3.85467 0
M  V30 4201 H 395.259 2.45884 4.63294 0
M  V30 4202 H 396.733 0.949818 5.43767 0
M  V30 4203 H 397.21 -0.373181 4.37612 0
M  V30 4204 H 397.816 1.26874 4.05935 0
M  V30 4205 N 396.131 -1.37776 0.765217 0
M  V30 4206 C 397.061 -2.32945 0.160953 0
M  V30 4207 C 398.042 -1.55454 -0.690516 0
M  V30 4208 O 399.227 -1.83721 -0.629318 0
M  V30 4209 C 396.357 -3.39669 -0.724031 0
M  V30 4210 C 395.311 -4.27992 0.0256173 0
M  V30 4211 C 394.637 -5.25673 -0.978383 0
M  V30 4212 C 395.937 -5.08309 1.20082 0
M  V30 4213 H 397.631 -2.83728 0.955969 0
M  V30 4214 H 395.177 -1.36416 0.461149 0
M  V30 4215 H 397.13 -4.05219 -1.15652 0
M  V30 4216 H 395.854 -2.87396 -1.5515 0
M  V30 4217 H 394.513 -3.63964 0.438812 0
M  V30 4218 H 394.161 -4.69682 -1.80022 0
M  V30 4219 H 393.861 -5.85625 -0.481378 0
M  V30 4220 H 395.385 -5.94098 -1.40995 0
M  V30 4221 H 396.799 -5.67034 0.845307 0
M  V30 4222 H 395.196 -5.77554 1.62947 0
M  V30 4223 H 396.266 -4.41365 2.00811 0
M  V30 4224 N 397.609 -0.515225 -1.4894 0
M  V30 4225 C 398.858 0.0261361 -2.01683 0
M  V30 4226 C 399.171 1.36719 -1.39883 0
M  V30 4227 O 400.377 1.99606 -1.84037 0
M  V30 4228 C 398.833 0.0970111 -3.59769 0
M  V30 4229 C 398.441 -1.23825 -4.30548 0
M  V30 4230 C 400.185 0.587981 -4.20408 0
M  V30 4231 C 398.092 -1.12877 -5.80528 0
M  V30 4232 H 397.022 0.0135398 -0.753878 0
M  V30 4233 H 399.673 -0.656787 -1.71343 0
M  V30 4234 H 398.055 0.844694 -3.86886 0
M  V30 4235 H 399.229 -2.00034 -4.15118 0
M  V30 4236 H 397.544 -1.66379 -3.81716 0
M  V30 4237 H 400.141 0.68763 -5.3026 0
M  V30 4238 H 400.484 1.59026 -3.84729 0
M  V30 4239 H 401.017 -0.103582 -3.97665 0
M  V30 4240 H 397.756 -2.10575 -6.20756 0
M  V30 4241 H 397.276 -0.407799 -5.98412 0
M  V30 4242 H 398.955 -0.813332 -6.41868 0
M  V30 4243 N 399.087 1.5561 -0.249682 0
M  V30 4244 C 400.503 1.59254 0.105103 0
M  V30 4245 C 400.703 1.26685 1.56694 0
M  V30 4246 O 399.759 1.0155 2.31179 0
M  V30 4247 C 401.072 2.99687 -0.246592 0
M  V30 4248 C 402.62 3.12416 -0.191118 0
M  V30 4249 C 403.095 4.55074 -0.516885 0
M  V30 4250 N 404.586 4.60835 -0.467489 0
M  V30 4251 C 405.321 5.69201 -0.69268 0
M  V30 4252 N 404.817 6.85817 -0.981146 0
M  V30 4253 N 406.61 5.58635 -0.623198 0
M  V30 4254 H 398.761 1.75049 -1.20298 0
M  V30 4255 H 401.024 0.815003 -0.484225 0
M  V30 4256 H 400.73 3.28267 -1.26228 0
M  V30 4257 H 400.604 3.74798 0.424962 0
M  V30 4258 H 402.991 2.83615 0.815247 0
M  V30 4259 H 403.072 2.39573 -0.896563 0
M  V30 4260 H 402.716 4.84596 -1.52082 0
M  V30 4261 H 402.646 5.26181 0.210068 0
M  V30 4262 H 405.137 3.7705 -0.253373 0
M  V30 4263 H 405.45 7.64341 -1.14032 0
M  V30 4264 H 403.795 6.87494 -1.01865 0
M  V30 4265 H 406.986 4.66406 -0.397863 0
M  V30 4266 H 407.159 6.43017 -0.802093 0
M  V30 4267 N 400.565 -0.0233959 1.57583 0
M  V30 4268 C 401.811 -0.714119 1.89811 0
M  V30 4269 C 402.144 -1.74702 0.848113 0
M  V30 4270 O 401.419 -1.94023 -0.136135 0
M  V30 4271 C 401.702 -1.37853 3.32669 0
M  V30 4272 C 401.555 -0.358764 4.48367 0
M  V30 4273 C 402.874 -2.31101 3.7454 0
M  V30 4274 H 399.993 -0.25814 0.690314 0
M  V30 4275 H 402.635 0.0230927 1.89986 0
M  V30 4276 H 400.785 -2.00689 3.3265 0
M  V30 4277 H 402.457 0.268115 4.6052 0
M  V30 4278 H 400.7 0.321387 4.32608 0
M  V30 4279 H 401.371 -0.862242 5.45224 0
M  V30 4280 H 403.847 -1.78304 3.75961 0
M  V30 4281 H 402.723 -2.74567 4.75294 0
M  V30 4282 H 402.984 -3.18018 3.0711 0
M  V30 4283 N 402.043 -1.548 -0.295768 0
M  V30 4284 C 402.976 -1.81003 -1.38972 0
M  V30 4285 C 403.954 -0.661544 -1.48534 0
M  V30 4286 O 405.138 -0.902074 -1.65514 0
M  V30 4287 C 402.265 -1.95141 -2.76835 0
M  V30 4288 C 401.311 -3.17592 -2.84671 0
M  V30 4289 S 402.144 -4.75531 -2.46232 0
M  V30 4290 C 403.3 -4.92613 -3.86114 0
M  V30 4291 H 403.533 -2.73507 -1.16537 0
M  V30 4292 H 401.066 -1.46278 -0.494168 0
M  V30 4293 H 403.024 -2.03972 -3.56238 0
M  V30 4294 H 401.685 -1.03565 -2.96535 0
M  V30 4295 H 400.878 -3.24303 -3.85803 0
M  V30 4296 H 400.48 -3.07235 -2.13267 0
M  V30 4297 H 402.772 -4.76957 -4.81164 0
M  V30 4298 H 403.715 -5.94698 -3.8437 0
M  V30 4299 H 404.123 -4.2073 -3.76359 0
M  V30 4300 N 403.521 0.559213 -1.47345 0
M  V30 4301 C 404.767 1.31843 -1.54095 0
M  V30 4302 C 405.1 1.93149 -0.201726 0
M  V30 4303 O 404.375 1.77759 0.789428 0
M  V30 4304 C 404.658 2.43006 -2.65744 0
M  V30 4305 C 404.511 1.86581 -4.09277 0
M  V30 4306 C 405.83 3.44943 -2.73318 0
M  V30 4307 H 402.949 0.478012 -0.560957 0
M  V30 4308 H 405.591 0.625977 -1.79392 0
M  V30 4309 H 403.741 3.02072 -2.44305 0
M  V30 4310 H 405.413 1.31792 -4.42073 0
M  V30 4311 H 403.656 1.17268 -4.17649 0
M  V30 4312 H 404.327 2.66933 -4.83168 0
M  V30 4313 H 406.803 2.95793 -2.92653 0
M  V30 4314 H 405.679 4.20153 -3.53218 0
M  V30 4315 H 405.94 4.03665 -1.80296 0
M  V30 4316 N 404.999 1.35443 0.805782 0
M  V30 4317 C 406.224 1.32037 1.59941 0
M  V30 4318 C 406.649 -0.0994215 1.87837 0
M  V30 4319 O 406.007 -1.06648 1.46615 0
M  V30 4320 C 406.055 2.13354 2.90711 0
M  V30 4321 O 405.159 1.5148 3.83572 0
M  V30 4322 H 404.5 0.452666 0.485787 0
M  V30 4323 H 407.03 1.78496 1.00002 0
M  V30 4324 H 407.04 2.25338 3.40128 0
M  V30 4325 H 405.715 3.16572 2.69732 0
M  V30 4326 H 404.292 1.4834 3.42125 0
M  V30 4327 N 406.477 -1.02803 1.19454 0
M  V30 4328 C 407.893 -1.28473 0.946937 0
M  V30 4329 C 408.093 -1.97881 -0.380202 0
M  V30 4330 O 407.149 -2.26719 -1.11151 0
M  V30 4331 C 408.462 -2.13099 2.12154 0
M  V30 4332 C 410.01 -2.26404 2.16126 0
M  V30 4333 C 410.485 -3.14402 3.33039 0
M  V30 4334 N 411.976 -3.21991 3.32981 0
M  V30 4335 C 412.711 -3.90272 4.20089 0
M  V30 4336 N 412.207 -4.60777 5.17355 0
M  V30 4337 N 414 -3.8668 4.07964 0
M  V30 4338 H 406.151 -0.561665 2.04839 0
M  V30 4339 H 408.414 -0.310438 0.89573 0
M  V30 4340 H 408.12 -1.69422 3.08203 0
M  V30 4341 H 407.994 -3.13813 2.09287 0
M  V30 4342 H 410.381 -2.69311 1.20647 0
M  V30 4343 H 410.462 -1.25237 2.23045 0
M  V30 4344 H 410.106 -2.72204 4.28798 0
M  V30 4345 H 410.036 -4.1563 3.23356 0
M  V30 4346 H 412.527 -2.71778 2.62574 0
M  V30 4347 H 412.84 -5.10513 5.80169 0
M  V30 4348 H 411.185 -4.5964 5.21302 0
M  V30 4349 H 414.376 -3.30739 3.31254 0
M  V30 4350 H 414.549 -4.39621 4.76064 0
M  V30 4351 N 407.956 -0.998596 -1.21925 0
M  V30 4352 C 409.181 -0.696015 -1.95372 0
M  V30 4353 C 409.606 0.733826 -1.73195 0
M  V30 4354 O 408.964 1.50242 -1.01474 0
M  V30 4355 C 409.012 -1.01466 -3.4603 0
M  V30 4356 O 408.116 -0.116415 -4.12236 0
M  V30 4357 H 407.457 -0.259938 -0.611006 0
M  V30 4358 H 409.987 -1.33711 -1.54863 0
M  V30 4359 H 409.997 -0.958855 -3.96573 0
M  V30 4360 H 408.672 -2.05653 -3.61497 0
M  V30 4361 H 407.249 -0.228193 -3.72201 0
M  V30 4362 N 409.434 1.37368 -0.772513 0
M  V30 4363 C 410.344 2.34053 -0.160081 0
M  V30 4364 C 411.36 1.60216 0.678728 0
M  V30 4365 O 412.536 1.92303 0.59847 0
M  V30 4366 C 409.601 3.3939 0.708182 0
M  V30 4367 C 408.662 4.29048 -0.147172 0
M  V30 4368 C 407.895 5.29354 0.679744 0
M  V30 4369 O 408.118 5.3723 1.91678 0
M  V30 4370 O 407.052 6.01835 0.0885444 0
M  V30 4371 H 410.878 2.88159 -0.959053 0
M  V30 4372 H 408.463 1.39543 -0.533685 0
M  V30 4373 H 410.345 4.03839 1.20384 0
M  V30 4374 H 409.02 2.8761 1.48533 0
M  V30 4375 H 407.927 3.67697 -0.689205 0
M  V30 4376 H 409.26 4.84134 -0.887423 0
M  V30 4377 N 410.912 0.523116 1.48665 0
M  V30 4378 C 412.161 -0.01544 2.01694 0
M  V30 4379 C 412.474 -1.35975 1.40606 0
M  V30 4380 O 413.68 -1.98627 1.85093 0
M  V30 4381 C 412.136 -0.0779303 3.59816 0
M  V30 4382 C 411.744 1.26107 4.29885 0
M  V30 4383 C 413.488 -0.565678 4.20714 0
M  V30 4384 C 411.395 1.15954 5.79921 0
M  V30 4385 H 410.325 -0.00954163 0.75394 0
M  V30 4386 H 412.976 0.665865 1.70993 0
M  V30 4387 H 411.358 -0.824165 3.87329 0
M  V30 4388 H 412.532 2.02233 4.14051 0
M  V30 4389 H 410.847 1.68401 3.80828 0
M  V30 4390 H 413.444 -0.6595 5.30617 0
M  V30 4391 H 413.787 -1.56984 3.85567 0
M  V30 4392 H 414.32 0.12467 3.97605 0
M  V30 4393 H 411.059 2.13864 6.19631 0
M  V30 4394 H 410.579 0.439529 5.98187 0
M  V30 4395 H 412.258 0.847361 6.41427 0
M  V30 4396 N 412.39 -1.55475 0.257931 0
M  V30 4397 C 413.667 -1.91155 -0.414629 0
M  V30 4398 C 414.047 -1.18008 -1.75035 0
M  V30 4399 O 413.395 -0.301193 -2.26506 0
M  V30 4400 C 413.605 -3.44283 -0.571859 0
M  V30 4401 C 414.953 -4.15744 -0.862678 0
M  V30 4402 O 415.977 -3.50083 -0.657314 0
M  V30 4403 O 414.836 -5.31909 -1.2544 0
M  V30 4404 H 411.93 -0.796016 -0.22425 0
M  V30 4405 H 414.476 -1.66976 0.302814 0
M  V30 4406 H 413.248 -3.89558 0.368844 0
M  V30 4407 H 412.871 -3.7436 -1.33943 0
M  V30 4408 N 413.868 0.0150385 -1.57593 0
M  V30 4409 C 414.798 1.01047 -2.10503 0
M  V30 4410 C 415.779 1.36816 -1.01071 0
M  V30 4411 O 416.964 1.45455 -1.28672 0
M  V30 4412 C 414.094 2.30708 -2.59598 0
M  V30 4413 C 413.048 2.09142 -3.73421 0
M  V30 4414 C 412.374 3.44685 -4.08774 0
M  V30 4415 C 413.674 1.46619 -5.01298 0
M  V30 4416 H 415.368 0.569978 -2.93925 0
M  V30 4417 H 412.914 0.272724 -1.41394 0
M  V30 4418 H 414.867 3.00687 -2.95238 0
M  V30 4419 H 413.591 2.76843 -1.73279 0
M  V30 4420 H 412.25 1.41592 -3.38153 0
M  V30 4421 H 411.898 3.88495 -3.195 0
M  V30 4422 H 411.598 3.31077 -4.8545 0
M  V30 4423 H 413.122 4.16004 -4.4696 0
M  V30 4424 H 414.536 2.06535 -5.34805 0
M  V30 4425 H 412.933 1.43544 -5.82679 0
M  V30 4426 H 414.003 0.433611 -4.82957 0
M  V30 4427 N 415.346 1.54954 0.287554 0
M  V30 4428 C 416.593 1.74873 1.02106 0
M  V30 4429 C 416.921 0.541829 1.86801 0
M  V30 4430 O 416.176 -0.475992 1.89823 0
M  V30 4431 C 416.475 2.99833 1.94512 0
M  V30 4432 C 416.141 4.33029 1.25686 0
M  V30 4433 C 414.803 4.69233 1.06649 0
M  V30 4434 C 417.155 5.15542 0.765913 0
M  V30 4435 C 414.483 5.85518 0.372222 0
M  V30 4436 C 416.835 6.32542 0.0853101 0
M  V30 4437 C 415.499 6.67398 -0.1169 0
M  V30 4438 H 414.769 0.639906 0.373632 0
M  V30 4439 H 417.416 1.89219 0.294665 0
M  V30 4440 H 415.721 2.80325 2.73725 0
M  V30 4441 H 417.418 3.1244 2.51361 0
M  V30 4442 H 414.008 4.04564 1.41512 0
M  V30 4443 H 418.192 4.88059 0.90066 0
M  V30 4444 H 413.448 6.11057 0.204695 0
M  V30 4445 H 417.622 6.95741 -0.302936 0
M  V30 4446 H 415.249 7.57357 -0.656859 0
M  V30 4447 N 416.824 -0.551391 1.4764 0
M  V30 4448 C 417.772 -1.67896 1.60978 0
M  V30 4449 C 418.766 -1.62549 0.476877 0
M  V30 4450 O 419.972 -1.67664 0.654878 0
M  V30 4451 H 416.347 -0.555649 0.506713 0
M  V30 4452 H 418.318 -1.53784 2.55721 0
M  V30 4453 C 417.067 -3.06234 1.64669 0
M  V30 4454 H 416.39 -3.11033 2.51194 0
M  V30 4455 H 417.83 -3.84804 1.7805 0
M  V30 4456 C 416.289 -3.34737 0.381115 0
M  V30 4457 O 416.819 -3.98381 -0.515297 0
M  V30 4458 N 415.025 -2.8944 0.259354 0
M  V30 4459 H 414.572 -2.37827 0.98976 0
M  V30 4460 H 414.53 -3.08882 -0.586464 0
M  V30 4461 N 418.302 -1.35869 -0.798587 0
M  V30 4462 C 419.551 -1.28921 -1.5512 0
M  V30 4463 C 419.864 0.13208 -1.95154 0
M  V30 4464 O 421.07 0.323879 -2.69561 0
M  V30 4465 C 419.526 -2.26141 -2.79979 0
M  V30 4466 C 419.134 -3.73658 -2.47151 0
M  V30 4467 C 420.878 -2.28152 -3.57976 0
M  V30 4468 C 418.785 -4.62679 -3.6835 0
M  V30 4469 H 417.715 -0.479031 -0.582276 0
M  V30 4470 H 420.366 -1.61179 -0.877125 0
M  V30 4471 H 418.748 -1.86865 -3.49138 0
M  V30 4472 H 419.922 -4.21616 -1.85947 0
M  V30 4473 H 418.237 -3.74333 -1.82383 0
M  V30 4474 H 420.834 -2.91875 -4.4801 0
M  V30 4475 H 421.177 -1.28748 -3.95891 0
M  V30 4476 H 421.71 -2.65998 -2.95787 0
M  V30 4477 H 418.449 -5.63111 -3.35538 0
M  V30 4478 H 417.969 -4.19442 -4.28752 0
M  V30 4479 H 419.648 -4.78498 -4.35487 0
M  V30 4480 N 419.78 1.02168 -1.19998 0
M  V30 4481 C 421.196 1.27969 -0.953737 0
M  V30 4482 C 421.396 1.98079 0.369703 0
M  V30 4483 O 420.452 2.27306 1.09947 0
M  V30 4484 C 421.765 2.11971 -2.13281 0
M  V30 4485 C 423.313 2.25255 -2.17323 0
M  V30 4486 C 423.788 3.12632 -3.34702 0
M  V30 4487 N 425.279 3.2022 -3.34684 0
M  V30 4488 C 426.014 3.88039 -4.22153 0
M  V30 4489 N 425.51 4.58027 -5.19791 0
M  V30 4490 N 427.303 3.84511 -4.10009 0
M  V30 4491 H 419.454 0.550794 -2.05134 0
M  V30 4492 H 421.717 0.305683 -0.897364 0
M  V30 4493 H 421.423 1.67785 -3.09097 0
M  V30 4494 H 421.297 3.12699 -2.10949 0
M  V30 4495 H 423.684 2.68667 -1.22073 0
M  V30 4496 H 423.765 1.24053 -2.23706 0
M  V30 4497 H 423.409 2.69926 -4.30235 0
M  V30 4498 H 423.339 4.13909 -3.25556 0
M  V30 4499 H 425.83 2.70382 -2.64012 0
M  V30 4500 H 426.143 5.07429 -5.82868 0
M  V30 4501 H 424.488 4.56869 -5.23733 0
M  V30 4502 H 427.679 3.28978 -3.33003 0
M  V30 4503 H 427.852 4.3709 -4.78389 0
M  V30 4504 N 421.258 1.00505 1.21394 0
M  V30 4505 C 422.205 0.565496 2.23765 0
M  V30 4506 C 423.175 -0.408466 1.60999 0
M  V30 4507 O 424.36 -0.310503 1.88257 0
M  V30 4508 C 421.5 -0.101667 3.4495 0
M  V30 4509 C 420.613 0.915479 4.22188 0
M  V30 4510 C 419.748 0.220574 5.30742 0
M  V30 4511 C 418.787 1.22527 5.99711 0
M  V30 4512 N 417.924 0.557831 6.9988 0
M  V30 4513 H 422.764 1.44314 2.60725 0
M  V30 4514 H 420.301 0.722643 1.28126 0
M  V30 4515 H 422.259 -0.505504 4.14126 0
M  V30 4516 H 420.889 -0.94303 3.08718 0
M  V30 4517 H 419.941 1.43756 3.52191 0
M  V30 4518 H 421.253 1.68005 4.69655 0
M  V30 4519 H 420.407 -0.239368 6.06228 0
M  V30 4520 H 419.146 -0.576401 4.84282 0
M  V30 4521 H 418.151 1.69571 5.22997 0
M  V30 4522 H 419.376 2.02332 6.48258 0
M  V30 4523 H 417.322 -0.219486 6.55633 0
M  V30 4524 H 417.239 1.26065 7.45415 0
M  V30 4525 H 418.507 0.121095 7.79406 0
M  V30 4526 N 422.737 -1.36956 0.779787 0
M  V30 4527 C 423.647 -2.33965 0.172491 0
M  V30 4528 C 424.663 -1.60574 -0.670222 0
M  V30 4529 O 425.839 -1.92617 -0.588263 0
M  V30 4530 C 422.904 -3.39761 -0.690173 0
M  V30 4531 C 421.965 -4.28964 0.169924 0
M  V30 4532 C 421.198 -5.29707 -0.651662 0
M  V30 4533 O 421.421 -5.38238 -1.88827 0
M  V30 4534 O 420.355 -6.01873 -0.0566264 0
M  V30 4535 H 424.181 -2.87647 0.974321 0
M  V30 4536 H 421.766 -1.39258 0.541078 0
M  V30 4537 H 423.648 -4.04471 -1.1824 0
M  V30 4538 H 422.323 -2.88394 -1.47006 0
M  V30 4539 H 421.23 -3.67326 0.708696 0
M  V30 4540 H 422.563 -4.83656 0.913085 0
M  V30 4541 N 424.215 -0.530993 -1.48385 0
M  V30 4542 C 425.462 0.0027373 -2.025 0
M  V30 4543 C 425.79 1.34186 -1.40799 0
M  V30 4544 O 425.045 1.88 -0.543544 0
M  V30 4545 C 425.344 0.172742 -3.56982 0
M  V30 4546 C 425.01 -1.09215 -4.37473 0
M  V30 4547 C 423.672 -1.43881 -4.59186 0
M  V30 4548 C 426.024 -1.93153 -4.84088 0
M  V30 4549 C 423.352 -2.62381 -5.2476 0
M  V30 4550 C 425.704 -3.10833 -5.50968 0
M  V30 4551 C 424.368 -3.45843 -5.70919 0
M  V30 4552 H 423.638 0.00100165 -0.740999 0
M  V30 4553 H 426.285 -0.697219 -1.78357 0
M  V30 4554 H 424.59 0.955473 -3.79971 0
M  V30 4555 H 426.287 0.600642 -3.96476 0
M  V30 4556 H 422.877 -0.812177 -4.20834 0
M  V30 4557 H 427.061 -1.67683 -4.67115 0
M  V30 4558 H 422.317 -2.89707 -5.38405 0
M  V30 4559 H 426.491 -3.7618 -5.86056 0
M  V30 4560 H 424.118 -4.37764 -6.21503 0
M  V30 4561 N 425.693 1.55336 -0.266172 0
M  V30 4562 C 427.109 1.59356 0.0882065 0
M  V30 4563 C 427.309 1.2834 1.55342 0
M  V30 4564 O 426.365 1.03996 2.30089 0
M  V30 4565 C 427.678 2.99409 -0.278364 0
M  V30 4566 C 429.226 3.12196 -0.224243 0
M  V30 4567 C 429.701 4.545 -0.565123 0
M  V30 4568 N 431.192 4.60313 -0.51634 0
M  V30 4569 C 431.927 5.68434 -0.753013 0
M  V30 4570 N 431.423 6.84738 -1.05383 0
M  V30 4571 N 433.216 5.57942 -0.682414 0
M  V30 4572 H 425.367 1.73764 -1.22147 0
M  V30 4573 H 427.63 0.809822 -0.492841 0
M  V30 4574 H 427.336 3.2691 -1.29703 0
M  V30 4575 H 427.21 3.75228 0.385186 0
M  V30 4576 H 429.597 2.84464 0.78512 0
M  V30 4577 H 429.678 2.38609 -0.921922 0
M  V30 4578 H 429.322 4.82956 -1.57213 0
M  V30 4579 H 429.252 5.26374 0.154248 0
M  V30 4580 H 431.743 3.7676 -0.29335 0
M  V30 4581 H 432.056 7.63088 -1.22133 0
M  V30 4582 H 430.401 6.86375 -1.09151 0
M  V30 4583 H 433.592 4.65958 -0.44731 0
M  V30 4584 H 433.765 6.4213 -0.870248 0
M  V30 4585 N 427.171 -0.0066808 1.57599 0
M  V30 4586 C 428.118 -1.00024 2.08 0
M  V30 4587 C 429.088 -1.34549 0.973943 0
M  V30 4588 O 430.273 -1.44502 1.24595 0
M  V30 4589 C 427.413 -2.2891 2.58252 0
M  V30 4590 C 426.526 -2.00346 3.82734 0
M  V30 4591 C 425.661 -3.23265 4.21513 0
M  V30 4592 C 424.7 -2.90357 5.3885 0
M  V30 4593 N 423.837 -4.05793 5.72954 0
M  V30 4594 H 428.677 -0.563499 2.92624 0
M  V30 4595 H 426.214 -0.266592 1.44664 0
M  V30 4596 H 428.172 -3.04247 2.85464 0
M  V30 4597 H 426.802 -2.70265 1.76512 0
M  V30 4598 H 425.854 -1.15406 3.62471 0
M  V30 4599 H 427.166 -1.72086 4.68175 0
M  V30 4600 H 426.32 -4.06953 4.49971 0
M  V30 4601 H 425.059 -3.54657 3.34768 0
M  V30 4602 H 424.064 -2.05075 5.10122 0
M  V30 4603 H 425.289 -2.60219 6.27266 0
M  V30 4604 H 423.235 -4.37094 4.89167 0
M  V30 4605 H 423.152 -3.81034 6.52954 0
M  V30 4606 H 424.42 -4.90289 6.06001 0
M  V30 4607 N 428.649 -1.55105 -0.279332 0
M  V30 4608 C 429.597 -1.88333 -1.36505 0
M  V30 4609 C 430.591 -0.759043 -1.51443 0
M  V30 4610 O 431.797 -0.943312 -1.53302 0
M  V30 4611 H 428.172 -0.59766 -0.456406 0
M  V30 4612 H 430.143 -2.79041 -1.05728 0
M  V30 4613 C 428.892 -2.16628 -2.7197 0
M  V30 4614 H 428.215 -3.02624 -2.61264 0
M  V30 4615 H 429.655 -2.43803 -3.46895 0
M  V30 4616 C 428.114 -0.971807 -3.22579 0
M  V30 4617 O 428.644 -0.203228 -4.01186 0
M  V30 4618 N 426.85 -0.771238 -2.80179 0
M  V30 4619 H 426.397 -1.39792 -2.1637 0
M  V30 4620 H 426.355 0.0263667 -3.14389 0
M  V30 4621 N 430.127 0.543554 -1.4793 0
M  V30 4622 C 431.374 1.30008 -1.55255 0
M  V30 4623 C 431.702 1.93245 -0.220612 0
M  V30 4624 O 430.957 1.79141 0.787843 0
M  V30 4625 C 431.256 2.42078 -2.62932 0
M  V30 4626 C 430.922 1.96583 -4.0579 0
M  V30 4627 C 429.584 1.83893 -4.44676 0
M  V30 4628 C 431.936 1.62034 -4.95373 0
M  V30 4629 C 429.264 1.34969 -5.70964 0
M  V30 4630 C 431.616 1.14577 -6.22137 0
M  V30 4631 C 430.28 1.00493 -6.59892 0
M  V30 4632 H 429.55 0.475735 -0.568117 0
M  V30 4633 H 432.197 0.608075 -1.81589 0
M  V30 4634 H 430.502 3.16892 -2.30406 0
M  V30 4635 H 432.199 3.00236 -2.65818 0
M  V30 4636 H 428.789 2.07407 -3.75074 0
M  V30 4637 H 432.973 1.70705 -4.66019 0
M  V30 4638 H 428.229 1.2274 -5.98953 0
M  V30 4639 H 432.403 0.869109 -6.90955 0
M  V30 4640 H 430.03 0.623624 -7.57638 0
M  V30 4641 N 431.605 1.3629 0.791371 0
M  V30 4642 C 432.568 1.30309 1.88553 0
M  V30 4643 C 433.568 0.211204 1.59407 0
M  V30 4644 O 434.758 0.465865 1.67855 0
M  V30 4645 C 431.89 1.01956 3.25297 0
M  V30 4646 H 433.083 2.27614 1.95273 0
M  V30 4647 H 430.636 1.21035 0.988953 0
M  V30 4648 H 431.371 0.050998 3.2426 0
M  V30 4649 H 431.156 1.80968 3.4784 0
M  V30 4650 H 432.646 1.0037 4.05359 0
M  V30 4651 N 433.083 -1.0153 1.20538 0
M  V30 4652 C 434.311 -1.78746 1.04199 0
M  V30 4653 C 434.726 -1.84323 -0.408733 0
M  V30 4654 O 434.083 -1.29714 -1.28377 0
M  V30 4655 C 434.134 -3.23152 1.62035 0
M  V30 4656 O 433.855 -3.17918 3.0143 0
M  V30 4657 C 435.356 -4.16911 1.50666 0
M  V30 4658 H 432.576 -0.56208 0.366479 0
M  V30 4659 H 435.12 -1.27794 1.59653 0
M  V30 4660 H 433.275 -3.71248 1.10697 0
M  V30 4661 H 433.689 -4.08567 3.28897 0
M  V30 4662 H 435.163 -5.16072 1.95892 0
M  V30 4663 H 435.64 -4.36791 0.459363 0
M  V30 4664 H 436.246 -3.74698 2.01201 0
M  V30 4665 N 434.561 -1.01147 -1.20859 0
M  V30 4666 C 435.786 -0.716698 -1.94623 0
M  V30 4667 C 436.211 0.715415 -1.73964 0
M  V30 4668 O 435.569 1.49157 -1.03062 0
M  V30 4669 C 435.617 -1.0513 -3.44935 0
M  V30 4670 O 434.721 -0.160131 -4.12089 0
M  V30 4671 H 434.062 -0.266404 -0.608214 0
M  V30 4672 H 436.592 -1.35346 -1.53436 0
M  V30 4673 H 436.602 -1.00086 -3.95533 0
M  V30 4674 H 435.277 -2.09475 -3.59295 0
M  V30 4675 H 433.854 -0.267657 -3.71938 0
M  V30 4676 N 436.039 1.36541 -0.78704 0
M  V30 4677 C 436.969 2.32659 -0.197992 0
M  V30 4678 C 437.95 1.56533 0.665697 0
M  V30 4679 O 439.135 1.84698 0.60001 0
M  V30 4680 C 436.265 3.40778 0.669901 0
M  V30 4681 C 435.219 4.27897 -0.0937039 0
M  V30 4682 C 434.545 5.27163 0.894629 0
M  V30 4683 C 435.845 5.06334 -1.28154 0
M  V30 4684 H 437.539 2.82171 -1.00099 0
M  V30 4685 H 435.085 1.35665 -0.482793 0
M  V30 4686 H 437.038 4.07008 1.09191 0
M  V30 4687 H 435.762 2.89827 1.50558 0
M  V30 4688 H 434.421 3.6322 -0.49666 0
M  V30 4689 H 434.069 4.72486 1.72527 0
M  V30 4690 H 433.769 5.86317 0.388149 0
M  V30 4691 H 435.293 5.96266 1.31525 0
M  V30 4692 H 436.707 5.65617 -0.93541 0
M  V30 4693 H 435.104 5.74888 -1.72115 0
M  V30 4694 H 436.174 4.38114 -2.07807 0
M  V30 4695 N 437.518 0.538854 1.48102 0
M  V30 4696 C 438.748 0.0122958 2.06596 0
M  V30 4697 C 439.156 -1.27861 1.39457 0
M  V30 4698 O 438.499 -1.77348 0.478907 0
M  V30 4699 C 438.561 -0.273131 3.58461 0
M  V30 4700 C 438.225 0.92561 4.47528 0
M  V30 4701 C 439.222 1.82637 4.86765 0
M  V30 4702 C 436.907 1.13511 4.89306 0
M  V30 4703 C 438.901 2.92047 5.66558 0
M  V30 4704 C 436.588 2.23233 5.68868 0
M  V30 4705 C 437.586 3.12333 6.07402 0
M  V30 4706 O 437.274 4.20155 6.85365 0
M  V30 4707 H 437.006 0.0344283 0.675123 0
M  V30 4708 H 439.56 0.746494 1.91355 0
M  V30 4709 H 437.79 -1.06141 3.71848 0
M  V30 4710 H 439.479 -0.742842 3.99045 0
M  V30 4711 H 440.245 1.67649 4.55103 0
M  V30 4712 H 436.124 0.450835 4.5879 0
M  V30 4713 H 439.668 3.6162 5.96554 0
M  V30 4714 H 435.565 2.38201 5.99942 0
M  V30 4715 H 436.333 4.17975 7.03732 0
M  V30 4716 N 438.996 -1.55193 0.274407 0
M  V30 4717 C 440.221 -2.04446 -0.348824 0
M  V30 4718 C 440.646 -1.15149 -1.48735 0
M  V30 4719 O 440.004 -0.149952 -1.80679 0
M  V30 4720 C 440.052 -3.51431 -0.808009 0
M  V30 4721 O 439.156 -3.65225 -1.91531 0
M  V30 4722 H 438.497 -0.66006 -0.0722276 0
M  V30 4723 H 441.027 -2.00481 0.408498 0
M  V30 4724 H 441.037 -3.92781 -1.10395 0
M  V30 4725 H 439.712 -4.15892 0.0249865 0
M  V30 4726 H 438.289 -3.35778 -1.62196 0
M  V30 4727 N 440.474 -0.00167713 -1.576 0
M  V30 4728 C 441.407 1.02317 -2.03977 0
M  V30 4729 C 442.385 1.33381 -0.929963 0
M  V30 4730 O 443.569 1.45517 -1.19822 0
M  V30 4731 C 440.696 2.35035 -2.43878 0
M  V30 4732 C 439.742 2.19621 -3.65607 0
M  V30 4733 S 440.575 1.52068 -5.13455 0
M  V30 4734 C 441.731 2.86212 -5.56627 0
M  V30 4735 H 441.964 0.628285 -2.90585 0
M  V30 4736 H 439.497 0.209239 -1.52976 0
M  V30 4737 H 441.455 3.11345 -2.67534 0
M  V30 4738 H 440.116 2.71663 -1.57665 0
M  V30 4739 H 439.309 3.1767 -3.91282 0
M  V30 4740 H 438.911 1.51455 -3.41961 0
M  V30 4741 H 441.203 3.82509 -5.59189 0
M  V30 4742 H 442.146 2.65235 -6.56549 0
M  V30 4743 H 442.554 2.90199 -4.84195 0
M  V30 4744 N 441.952 1.55251 0.271103 0
M  V30 4745 C 443.201 1.75151 1.00025 0
M  V30 4746 C 443.514 0.561041 1.87381 0
M  V30 4747 O 444.72 0.642506 2.63788 0
M  V30 4748 C 443.176 3.09999 1.82835 0
M  V30 4749 C 442.784 4.3662 1.00336 0
M  V30 4750 C 444.528 3.39249 2.55168 0
M  V30 4751 C 442.435 5.62506 1.82595 0
M  V30 4752 H 441.365 0.652877 0.377183 0
M  V30 4753 H 444.016 1.81708 0.255843 0
M  V30 4754 H 442.398 2.97485 2.61378 0
M  V30 4755 H 443.572 4.60055 0.261959 0
M  V30 4756 H 441.887 4.14527 0.394486 0
M  V30 4757 H 444.484 4.3051 3.1712 0
M  V30 4758 H 444.827 2.59467 3.2555 0
M  V30 4759 H 445.36 3.52869 1.83653 0
M  V30 4760 H 442.099 6.45041 1.16631 0
M  V30 4761 H 441.619 5.43211 2.54327 0
M  V30 4762 H 443.298 6.00875 2.39913 0
M  V30 4763 N 443.43 -0.535701 1.48216 0
M  V30 4764 C 444.377 -1.64083 1.62312 0
M  V30 4765 C 445.347 -1.59448 0.465365 0
M  V30 4766 O 446.532 -1.77959 0.688135 0
M  V30 4767 C 443.672 -3.0236 1.66349 0
M  V30 4768 C 442.785 -3.17273 2.93193 0
M  V30 4769 C 441.92 -4.46075 2.88427 0
M  V30 4770 C 440.959 -4.54496 4.1 0
M  V30 4771 N 440.096 -5.7468 4.03345 0
M  V30 4772 H 444.936 -1.51374 2.5669 0
M  V30 4773 H 442.473 -0.737059 1.27302 0
M  V30 4774 H 444.431 -3.82461 1.66672 0
M  V30 4775 H 443.061 -3.13854 0.754672 0
M  V30 4776 H 442.113 -2.30462 3.02641 0
M  V30 4777 H 443.425 -3.19357 3.83162 0
M  V30 4778 H 442.579 -5.3446 2.87119 0
M  V30 4779 H 441.318 -4.46504 1.96177 0
M  V30 4780 H 440.323 -3.64519 4.11589 0
M  V30 4781 H 441.548 -4.5581 5.03402 0
M  V30 4782 H 439.494 -5.76017 3.13912 0
M  V30 4783 H 439.411 -5.78234 4.87013 0
M  V30 4784 H 440.679 -6.65367 4.06087 0
M  V30 4785 N 444.908 -1.36708 -0.784132 0
M  V30 4786 C 446.156 -1.30972 -1.53918 0
M  V30 4787 C 446.477 0.109086 -1.94695 0
M  V30 4788 O 445.747 1.05048 -1.65353 0
M  V30 4789 H 444.327 -0.481819 -0.570841 0
M  V30 4790 H 446.989 -1.71063 -0.934002 0
M  V30 4791 H 446.085 -1.94061 -2.44431 0
M  V30 4792 N 446.386 1.0089 -1.21074 0
M  V30 4793 C 447.663 1.71834 -0.934469 0
M  V30 4794 C 448.043 2.0368 0.554753 0
M  V30 4795 O 447.391 1.70742 1.51854 0
M  V30 4796 C 447.601 2.98061 -1.8155 0
M  V30 4797 C 448.949 3.7117 -2.06199 0
M  V30 4798 O 449.973 3.08034 -1.78867 0
M  V30 4799 O 448.832 4.84721 -2.52404 0
M  V30 4800 H 445.926 0.749253 -0.35007 0
M  V30 4801 H 448.472 1.06668 -1.31985 0
M  V30 4802 H 447.244 2.70908 -2.82355 0
M  V30 4803 H 446.867 3.70968 -1.43068 0
M  V30 4804 N 447.864 1.01787 1.20321 0
M  V30 4805 C 449.092 0.727194 1.937 0
M  V30 4806 C 449.507 -0.712305 1.74848 0
M  V30 4807 O 448.864 -1.48327 1.06327 0
M  V30 4808 C 448.915 1.05497 3.45764 0
M  V30 4809 O 448.636 2.43794 3.64 0
M  V30 4810 C 450.137 0.785534 4.36285 0
M  V30 4811 H 447.357 0.266939 0.615617 0
M  V30 4812 H 449.901 1.35939 1.52777 0
M  V30 4813 H 448.056 0.468158 3.84561 0
M  V30 4814 H 448.47 2.55656 4.57974 0
M  V30 4815 H 449.944 1.06495 5.4163 0
M  V30 4816 H 450.421 -0.280273 4.38305 0
M  V30 4817 H 451.027 1.35456 4.03152 0
M  V30 4818 N 449.342 -1.36122 0.79427 0
M  V30 4819 C 450.567 -2.03891 0.379871 0
M  V30 4820 C 450.992 -1.59488 -0.997251 0
M  V30 4821 O 450.35 -0.765652 -1.64339 0
M  V30 4822 C 450.398 -3.57687 0.457442 0
M  V30 4823 O 449.502 -4.08931 -0.5338 0
M  V30 4824 H 448.843 -0.6443 0.160541 0
M  V30 4825 H 451.373 -1.73976 1.07673 0
M  V30 4826 H 451.383 -4.06721 0.322792 0
M  V30 4827 H 450.058 -3.89357 1.46199 0
M  V30 4828 H 448.635 -3.71154 -0.360409 0
M  V30 4829 N 450.82 -0.546701 -1.47814 0
M  V30 4830 C 452.068 -0.0187037 -2.02091 0
M  V30 4831 C 452.389 1.33168 -1.42447 0
M  V30 4832 O 451.659 1.86619 -0.595839 0
M  V30 4833 H 450.239 -0.00392531 -0.74699 0
M  V30 4834 H 452.901 -0.714327 -1.81338 0
M  V30 4835 H 451.997 0.0772219 -3.12004 0
M  V30 4836 N 452.299 1.55045 -0.282633 0
M  V30 4837 C 453.576 1.9179 0.384166 0
M  V30 4838 C 453.956 1.20778 1.73136 0
M  V30 4839 O 453.304 0.33719 2.25998 0
M  V30 4840 C 453.514 3.45149 0.517014 0
M  V30 4841 C 454.862 4.17064 0.796427 0
M  V30 4842 O 455.886 3.51084 0.601535 0
M  V30 4843 O 454.745 5.33837 1.16962 0
M  V30 4844 H 451.839 0.799483 0.211558 0
M  V30 4845 H 454.385 1.66474 -0.32934 0
M  V30 4846 H 453.157 3.88922 -0.430772 0
M  V30 4847 H 452.78 3.76443 1.2797 0
M  V30 4848 N 453.777 0.010035 1.57597 0
M  V30 4849 C 455.007 -0.682422 1.95004 0
M  V30 4850 C 455.415 -1.67278 0.884014 0
M  V30 4851 O 454.758 -1.83129 -0.144672 0
M  V30 4852 C 454.82 -1.46141 3.28456 0
M  V30 4853 C 454.484 -0.631523 4.52615 0
M  V30 4854 C 455.481 0.0850905 5.1983 0
M  V30 4855 C 453.166 -0.574539 4.99003 0
M  V30 4856 C 455.16 0.847566 6.3174 0
M  V30 4857 C 452.847 0.191655 6.10799 0
M  V30 4858 C 453.845 0.901432 6.77025 0
M  V30 4859 O 453.533 1.65511 7.86677 0
M  V30 4860 H 453.265 -0.194361 0.647456 0
M  V30 4861 H 455.819 0.060312 2.05311 0
M  V30 4862 H 454.049 -2.24885 3.14585 0
M  V30 4863 H 455.738 -2.04016 3.50902 0
M  V30 4864 H 456.504 0.0502812 4.84974 0
M  V30 4865 H 452.383 -1.11654 4.47274 0
M  V30 4866 H 455.927 1.4021 6.83364 0
M  V30 4867 H 451.824 0.228249 6.45096 0
M  V30 4868 H 452.592 1.57287 8.03245 0
M  V30 4869 N 455.255 -1.55392 -0.262866 0
M  V30 4870 C 456.202 -1.88966 -1.32516 0
M  V30 4871 C 457.172 -0.742187 -1.48596 0
M  V30 4872 O 458.357 -0.99439 -1.62839 0
M  V30 4873 C 455.497 -2.17592 -2.67858 0
M  V30 4874 C 454.61 -3.45061 -2.59917 0
M  V30 4875 C 453.745 -3.63336 -3.87505 0
M  V30 4876 C 452.784 -4.84462 -3.74116 0
M  V30 4877 N 451.921 -4.99342 -4.93561 0
M  V30 4878 H 456.761 -2.79566 -1.03184 0
M  V30 4879 H 454.298 -1.38404 -0.498285 0
M  V30 4880 H 456.256 -2.3219 -3.46617 0
M  V30 4881 H 454.886 -1.30215 -2.95371 0
M  V30 4882 H 453.938 -3.38881 -1.72812 0
M  V30 4883 H 455.25 -4.3396 -2.45926 0
M  V30 4884 H 454.404 -3.77807 -4.74707 0
M  V30 4885 H 453.143 -2.72641 -4.04374 0
M  V30 4886 H 452.148 -4.69985 -2.85297 0
M  V30 4887 H 453.373 -5.76603 -3.58757 0
M  V30 4888 H 451.319 -4.1158 -5.10821 0
M  V30 4889 H 451.236 -5.82303 -4.82141 0
M  V30 4890 H 452.504 -5.18208 -5.82306 0
M  V30 4891 N 456.733 0.527833 -1.48498 0
M  V30 4892 C 457.68 1.6322 -1.6318 0
M  V30 4893 C 458.65 1.59199 -0.473815 0
M  V30 4894 O 459.835 1.77591 -0.697563 0
M  V30 4895 C 456.975 3.01474 -1.67951 0
M  V30 4896 C 456.088 3.15713 -2.94871 0
M  V30 4897 C 455.223 4.44539 -2.90789 0
M  V30 4898 C 454.262 4.52315 -4.12404 0
M  V30 4899 N 453.399 5.72533 -4.06387 0
M  V30 4900 H 458.239 1.50011 -2.57489 0
M  V30 4901 H 455.776 0.730298 -1.27691 0
M  V30 4902 H 457.734 3.81572 -1.68698 0
M  V30 4903 H 456.364 3.1345 -0.771306 0
M  V30 4904 H 455.416 2.28854 -3.03859 0
M  V30 4905 H 456.728 3.1732 -3.8485 0
M  V30 4906 H 455.882 5.3293 -2.89949 0
M  V30 4907 H 454.621 4.45457 -1.98542 0
M  V30 4908 H 453.626 3.62331 -4.13517 0
M  V30 4909 H 454.851 4.53134 -5.05812 0
M  V30 4910 H 452.797 5.74344 -3.16962 0
M  V30 4911 H 452.714 5.75643 -4.90073 0
M  V30 4912 H 453.982 6.63204 -4.0961 0
M  V30 4913 N 458.211 1.37122 0.776871 0
M  V30 4914 C 459.174 1.32301 1.8716 0
M  V30 4915 C 460.174 0.228099 1.59174 0
M  V30 4916 O 461.364 0.483642 1.67352 0
M  V30 4917 C 458.496 1.054 3.24197 0
M  V30 4918 H 459.689 2.29673 1.92848 0
M  V30 4919 H 457.242 1.22077 0.97606 0
M  V30 4920 H 457.977 0.0853872 3.24188 0
M  V30 4921 H 457.762 1.84648 3.45901 0
M  V30 4922 H 459.252 1.04664 4.04271 0
M  V30 4923 N 459.689 -1.00246 1.21608 0
M  V30 4924 C 460.619 -2.10921 1.00172 0
M  V30 4925 C 461.6 -1.69938 -0.0741587 0
M  V30 4926 O 462.785 -1.94009 0.0861753 0
M  V30 4927 C 459.915 -3.42618 0.568355 0
M  V30 4928 C 458.869 -3.97407 1.58909 0
M  V30 4929 C 458.195 -5.25038 1.01187 0
M  V30 4930 C 459.495 -4.2918 2.97661 0
M  V30 4931 H 461.189 -2.29112 1.92739 0
M  V30 4932 H 458.735 -1.10101 0.928102 0
M  V30 4933 H 460.688 -4.19444 0.405555 0
M  V30 4934 H 459.412 -3.24227 -0.392961 0
M  V30 4935 H 458.071 -3.22703 1.73949 0
M  V30 4936 H 457.719 -5.02982 0.0421965 0
M  V30 4937 H 457.419 -5.62661 1.6937 0
M  V30 4938 H 458.943 -6.04507 0.860448 0
M  V30 4939 H 460.357 -4.96839 2.86049 0
M  V30 4940 H 458.754 -4.77952 3.6288 0
M  V30 4941 H 459.824 -3.3735 3.48315 0
M  V30 4942 N 461.167 -1.02423 -1.1978 0
M  V30 4943 C 462.097 -0.62157 -2.25075 0
M  V30 4944 C 463.078 0.367148 -1.6609 0
M  V30 4945 O 464.263 0.250892 -1.92573 0
M  V30 4946 C 461.393 0.0331826 -3.47284 0
M  V30 4947 C 460.347 -0.877323 -4.18912 0
M  V30 4948 C 459.673 -0.0879296 -5.34628 0
M  V30 4949 C 460.973 -2.18892 -4.74219 0
M  V30 4950 H 462.667 -1.50179 -2.59011 0
M  V30 4951 H 460.213 -0.723547 -1.24502 0
M  V30 4952 H 462.166 0.326488 -4.20133 0
M  V30 4953 H 460.89 0.948164 -3.12534 0
M  V30 4954 H 459.549 -1.15475 -3.47938 0
M  V30 4955 H 459.197 0.828941 -4.96123 0
M  V30 4956 H 458.897 -0.694359 -5.83483 0
M  V30 4957 H 460.421 0.198743 -6.10276 0
M  V30 4958 H 461.835 -1.95746 -5.38847 0
M  V30 4959 H 460.232 -2.74686 -5.33542 0
M  V30 4960 H 461.302 -2.84674 -3.92541 0
M  V30 4961 N 462.645 1.35699 -0.801477 0
M  V30 4962 C 463.575 2.32436 -0.222658 0
M  V30 4963 C 464.556 1.5723 0.649057 0
M  V30 4964 O 465.741 1.85324 0.580387 0
M  V30 4965 C 462.871 3.41469 0.633719 0
M  V30 4966 C 461.825 4.27774 -0.139083 0
M  V30 4967 C 461.151 5.28082 0.838666 0
M  V30 4968 C 462.451 5.04946 -1.33517 0
M  V30 4969 H 464.145 2.81094 -1.03086 0
M  V30 4970 H 461.691 1.35146 -0.497155 0
M  V30 4971 H 463.644 4.08143 1.04868 0
M  V30 4972 H 462.368 2.91408 1.47475 0
M  V30 4973 H 461.027 3.62673 -0.535156 0
M  V30 4974 H 460.675 4.7429 1.67506 0
M  V30 4975 H 460.375 5.86695 0.32594 0
M  V30 4976 H 461.899 5.97628 1.25194 0
M  V30 4977 H 463.313 5.64593 -0.995349 0
M  V30 4978 H 461.71 5.7303 -1.78202 0
M  V30 4979 H 462.78 4.35886 -2.12442 0
M  V30 4980 N 464.123 0.554532 1.47522 0
M  V30 4981 C 465.053 -0.182974 2.32782 0
M  V30 4982 C 466.034 -0.911377 1.43624 0
M  V30 4983 O 467.219 -0.892366 1.72483 0
M  V30 4984 C 464.349 -1.21513 3.25349 0
M  V30 4985 C 463.303 -0.603355 4.23726 0
M  V30 4986 C 462.629 -1.73995 5.05598 0
M  V30 4987 C 463.929 0.441121 5.20434 0
M  V30 4988 H 465.623 0.52882 2.94693 0
M  V30 4989 H 463.169 0.255759 1.41711 0
M  V30 4990 H 465.122 -1.73922 3.83835 0
M  V30 4991 H 463.846 -1.95683 2.61487 0
M  V30 4992 H 462.505 -0.10059 3.66462 0
M  V30 4993 H 462.153 -2.47063 4.38143 0
M  V30 4994 H 461.853 -1.3364 5.72201 0
M  V30 4995 H 463.377 -2.26735 5.66942 0
M  V30 4996 H 464.791 0.00319931 5.733 0
M  V30 4997 H 463.188 0.763402 5.95224 0
M  V30 4998 H 464.258 1.33799 4.66075 0
M  V30 4999 N 465.601 -1.54893 0.290851 0
M  V30 5000 C 466.841 -2.01842 -0.322388 0
M  V30 5001 C 467.205 -1.17477 -1.51865 0
M  V30 5002 O 468.406 -1.54077 -2.20258 0
M  V30 5003 C 466.677 -3.50874 -0.679844 0
M  V30 5004 S 468.236 -4.19796 -1.27739 0
M  V30 5005 H 465.054 -0.704005 -0.0994866 0
M  V30 5006 H 467.656 -1.91015 0.416358 0
M  V30 5007 H 466.36 -4.09915 0.199435 0
M  V30 5008 H 465.891 -3.65717 -1.44964 0
M  V30 5009 H 467.906 -4.24729 -2.56554 0
M  V30 5010 N 467.08 -0.0183926 -1.57589 0
M  V30 5011 C 468.328 0.661253 -1.90976 0
M  V30 5012 C 468.649 1.73281 -0.894353 0
M  V30 5013 O 467.919 1.9579 0.0656788 0
M  V30 5014 H 466.499 0.247233 -0.704901 0
M  V30 5015 H 469.161 -0.0636639 -1.94796 0
M  V30 5016 H 468.257 1.12083 -2.9128 0
M  V30 5017 N 468.558 1.5553 0.254621 0
M  V30 5018 C 469.468 1.92789 1.33677 0
M  V30 5019 C 470.484 0.827356 1.53071 0
M  V30 5020 O 471.66 1.12807 1.66843 0
M  V30 5021 C 468.725 2.20827 2.67275 0
M  V30 5022 C 467.786 3.4427 2.5647 0
M  V30 5023 C 467.019 3.70961 3.83697 0
M  V30 5024 O 467.242 2.99852 4.85227 0
M  V30 5025 O 466.176 4.64491 3.82794 0
M  V30 5026 H 470.002 2.84945 1.05071 0
M  V30 5027 H 467.587 1.42312 0.454723 0
M  V30 5028 H 469.469 2.40204 3.46237 0
M  V30 5029 H 468.144 1.31851 2.9563 0
M  V30 5030 H 467.051 3.30209 1.75821 0
M  V30 5031 H 468.384 4.33524 2.33062 0
M  V30 5032 N 470.036 -0.519951 1.48776 0
M  V30 5033 C 471.313 -1.28123 1.47797 0
M  V30 5034 C 471.693 -2.10196 0.195157 0
M  V30 5035 O 471.041 -2.13167 -0.822925 0
M  V30 5036 C 471.251 -2.15413 2.74587 0
M  V30 5037 C 472.599 -2.75225 3.23321 0
M  V30 5038 O 473.623 -2.25694 2.75574 0
M  V30 5039 O 472.482 -3.65346 4.06429 0
M  V30 5040 H 469.576 -0.578793 0.590701 0
M  V30 5041 H 472.122 -0.535779 1.6102 0
M  V30 5042 H 470.894 -1.54617 3.59457 0
M  V30 5043 H 470.517 -2.97186 2.64132 0
M  V30 5044 N 471.514 -1.37532 -0.769588 0
M  V30 5045 C 472.791 -1.23392 -1.51768 0
M  V30 5046 C 473.171 0.17157 -2.10402 0
M  V30 5047 O 472.519 1.17943 -1.95708 0
M  V30 5048 C 472.729 -2.33163 -2.59685 0
M  V30 5049 C 474.077 -2.70809 -3.27028 0
M  V30 5050 O 475.101 -2.32355 -2.69981 0
M  V30 5051 O 473.96 -3.37066 -4.30173 0
M  V30 5052 H 471.054 -0.481617 -0.67229 0
M  V30 5053 H 473.6 -1.49318 -0.806368 0
M  V30 5054 H 472.372 -3.27273 -2.14494 0
M  V30 5055 H 471.995 -2.08713 -3.38415 0
M  V30 5056 O 473.031 0.909716 -1.33441 0
M  V30 5057 H 473.722 1.54385 -1.16983 0
M  V30 END ATOM
M  V30 BEGIN BOND
M  V30 END BOND
M  V30 END CTAB
M  END
$$$$
