drugbank_target|Q9WYV8 Release factor glutamine methyltransferase (DB01752; DB03473)
 OpenBabel12092120223D

  0  0  0     0  0            999 V3000
M  V30 BEGIN CTAB
M  V30 COUNTS 4507 4546 0 0 0
M  V30 BEGIN ATOM
M  V30 1 H -0.908 1.98254 -0.117106 0
M  V30 2 N 0 1.576 0 0
M  V30 3 C 0.933 2.03868 1.02534 0
M  V30 4 C 1.911 0.928543 1.3348 0
M  V30 5 O 3.095 1.19667 1.45644 0
M  V30 6 C 0.222 2.43627 2.35294 0
M  V30 7 C -0.732 3.65373 2.2001 0
M  V30 8 S 0.101 5.13292 1.52614 0
M  V30 9 C 1.257 5.56322 2.86805 0
M  V30 10 H 1.49 2.90518 0.631377 0
M  V30 11 H -0.977 1.52953 0.210867 0
M  V30 12 H 0.981 2.67203 3.11629 0
M  V30 13 H -0.358 1.57376 2.7183 0
M  V30 14 H -1.165 3.90944 3.18086 0
M  V30 15 H -1.563 3.418 1.51819 0
M  V30 16 H 0.729 5.58782 3.83104 0
M  V30 17 H 1.672 6.56266 2.65933 0
M  V30 18 H 2.08 4.83886 2.90714 0
M  V30 19 N 1.4781 -0.272755 1.55222 0
M  V30 20 C 2.7551 -1.02562 1.66555 0
M  V30 21 C 3.1351 -2.04282 0.532189 0
M  V30 22 O 2.4831 -2.23662 -0.467717 0
M  V30 23 C 2.6931 -1.6822 3.05782 0
M  V30 24 C 4.0411 -2.19373 3.63539 0
M  V30 25 O 5.0651 -1.78206 3.08417 0
M  V30 26 O 3.9241 -2.94883 4.60115 0
M  V30 27 H 1.0181 -0.475755 0.676451 0
M  V30 28 H 3.5641 -0.268593 1.67561 0
M  V30 29 H 2.3361 -0.945112 3.79715 0
M  V30 30 H 1.9591 -2.50609 3.08676 0
M  V30 31 N 2.9562 -1.48159 -0.537278 0
M  V30 32 C 4.1842 -1.59454 -1.31841 0
M  V30 33 C 4.5992 -0.252065 -1.8711 0
M  V30 34 O 3.9562 0.757621 -1.66031 0
M  V30 35 C 4.0072 -2.63546 -2.47439 0
M  V30 36 O 3.7282 -3.92583 -1.94449 0
M  V30 37 C 5.2292 -2.85212 -3.39366 0
M  V30 38 H 2.4492 -0.53785 -0.401196 0
M  V30 39 H 4.9932 -1.93932 -0.648891 0
M  V30 40 H 3.1482 -2.31946 -3.1029 0
M  V30 41 H 3.5622 -4.49629 -2.70063 0
M  V30 42 H 5.0362 -3.61863 -4.16844 0
M  V30 43 H 5.5132 -1.93765 -3.94147 0
M  V30 44 H 6.1192 -3.18086 -2.82314 0
M  V30 45 N 4.4343 0.785586 -1.36625 0
M  V30 46 C 5.8503 1.08419 -1.17122 0
M  V30 47 C 6.0503 2.015 0.00208491 0
M  V30 48 O 5.1063 2.43551 0.666278 0
M  V30 49 C 6.4193 1.69498 -2.48377 0
M  V30 50 C 7.9673 1.81821 -2.54775 0
M  V30 51 C 8.4423 2.46315 -3.86126 0
M  V30 52 N 9.9333 2.53779 -3.87492 0
M  V30 53 C 10.6683 3.045 -4.85868 0
M  V30 54 N 10.1643 3.55499 -5.94637 0
M  V30 55 N 11.9573 3.03247 -4.73284 0
M  V30 56 H 4.1083 0.167264 -2.1174 0
M  V30 57 H 6.3713 0.13682 -0.938075 0
M  V30 58 H 6.0773 1.08571 -3.34522 0
M  V30 59 H 5.9513 2.6896 -2.64462 0
M  V30 60 H 8.3383 2.41884 -1.69045 0
M  V30 61 H 8.4193 0.811532 -2.42586 0
M  V30 62 H 8.0633 1.86895 -4.72263 0
M  V30 63 H 7.9933 3.47561 -3.95612 0
M  V30 64 H 10.4843 2.17672 -3.08913 0
M  V30 65 H 10.7973 3.92562 -6.65669 0
M  V30 66 H 9.1423 3.5364 -5.98301 0
M  V30 67 H 12.3333 2.62696 -3.87438 0
M  V30 68 H 12.5063 3.42467 -5.50109 0
M  V30 69 N 5.9124 1.20967 1.01018 0
M  V30 70 C 6.8594 0.964281 2.09691 0
M  V30 71 C 7.8294 -0.107853 1.65749 0
M  V30 72 O 9.0144 0.0381987 1.90762 0
M  V30 73 C 6.1544 0.52943 3.41015 0
M  V30 74 C 5.2674 1.67043 3.98398 0
M  V30 75 C 4.4024 1.18525 5.17808 0
M  V30 76 C 3.4414 2.29892 5.67288 0
M  V30 77 N 2.5784 1.82546 6.77954 0
M  V30 78 H 7.4184 1.89463 2.30017 0
M  V30 79 H 4.9554 0.944289 1.1279 0
M  V30 80 H 6.9134 0.258588 4.16398 0
M  V30 81 H 5.5434 -0.363919 3.20742 0
M  V30 82 H 4.5954 2.05603 3.20049 0
M  V30 83 H 5.9074 2.50877 4.31117 0
M  V30 84 H 5.0614 0.870762 6.00419 0
M  V30 85 H 3.8004 0.316887 4.86669 0
M  V30 86 H 2.8054 2.6215 4.83278 0
M  V30 87 H 4.0304 3.17216 6.00459 0
M  V30 88 H 1.9764 0.980454 6.48632 0
M  V30 89 H 1.8934 2.59956 7.09901 0
M  V30 90 H 3.1614 1.54115 7.64113 0
M  V30 91 N 7.3905 -1.2043 1.01659 0
M  V30 92 C 8.3385 -2.25249 0.580143 0
M  V30 93 C 9.3325 -1.65057 -0.381115 0
M  V30 94 O 10.5385 -1.78241 -0.251039 0
M  V30 95 H 6.9135 -0.732695 0.169299 0
M  V30 96 H 8.8845 -2.59389 1.47512 0
M  V30 97 C 7.6335 -3.47638 -0.065788 0
M  V30 98 H 6.9565 -3.94233 0.664874 0
M  V30 99 H 8.3965 -4.2268 -0.334282 0
M  V30 100 C 6.8555 -3.10447 -1.3086 0
M  V30 101 O 7.3855 -3.21981 -2.4019 0
M  V30 102 N 5.5915 -2.64996 -1.1927 0
M  V30 103 H 5.1385 -2.55811 -0.303064 0
M  V30 104 H 5.0965 -2.40482 -2.02523 0
M  V30 105 N 8.8686 -0.792821 -1.36206 0
M  V30 106 C 10.1146 -0.36733 -1.99446 0
M  V30 107 C 10.4476 1.05917 -1.62774 0
M  V30 108 O 9.7226 1.7324 -0.88421 0
M  V30 109 C 10.0056 -0.535044 -3.56103 0
M  V30 110 C 9.8586 -2.00548 -4.02617 0
M  V30 111 C 11.1776 0.0478191 -4.40074 0
M  V30 112 H 8.2966 -0.134941 -0.724541 0
M  V30 113 H 10.9386 -0.999794 -1.61568 0
M  V30 114 H 9.0886 0.00336329 -3.885 0
M  V30 115 H 10.7606 -2.60521 -3.80692 0
M  V30 116 H 9.0036 -2.50686 -3.54032 0
M  V30 117 H 9.6746 -2.07377 -5.11565 0
M  V30 118 H 12.1506 -0.411822 -4.14057 0
M  V30 119 H 11.0266 -0.0995336 -5.4881 0
M  V30 120 H 11.2876 1.14025 -4.27142 0
M  V30 121 N 10.3467 1.47872 -0.545128 0
M  V30 122 C 11.5717 2.07391 -0.0190611 0
M  V30 123 C 11.9967 1.39688 1.25971 0
M  V30 124 O 11.3547 0.467816 1.7516 0
M  V30 125 C 11.4027 3.60188 0.172335 0
M  V30 126 O 10.5067 3.9339 1.23766 0
M  V30 127 H 9.8477 0.662411 -0.0459059 0
M  V30 128 H 12.3777 1.90066 -0.757365 0
M  V30 129 H 12.3877 4.06129 0.390305 0
M  V30 130 H 11.0627 4.08865 -0.761725 0
M  V30 131 H 9.6397 3.5921 1.00114 0
M  V30 132 N 11.8248 0.280983 1.55075 0
M  V30 133 C 13.0728 -0.333455 1.9933 0
M  V30 134 C 13.3938 -1.55937 1.17085 0
M  V30 135 O 12.6638 -1.94143 0.261805 0
M  V30 136 H 11.2438 -0.126197 0.736263 0
M  V30 137 H 13.9058 0.387678 1.91005 0
M  V30 138 H 13.0018 -0.619292 3.05894 0
M  V30 139 N 13.3029 -1.57598 0.00835791 0
M  V30 140 C 14.2659 -2.07884 -0.965242 0
M  V30 141 C 15.2659 -0.989825 -1.26725 0
M  V30 142 O 16.4559 -1.25218 -1.21104 0
M  V30 143 C 13.5879 -2.52731 -2.28779 0
M  V30 144 H 14.7809 -2.95178 -0.530112 0
M  V30 145 H 12.3339 -1.54458 -0.239283 0
M  V30 146 H 13.0689 -1.68705 -2.76964 0
M  V30 147 H 12.8539 -3.32272 -2.08177 0
M  V30 148 H 14.3439 -2.91933 -2.98605 0
M  V30 149 N 14.781 0.264519 -1.55364 0
M  V30 150 C 15.691 1.34902 -1.91934 0
M  V30 151 C 16.707 1.53595 -0.817593 0
M  V30 152 O 17.883 1.67558 -1.11742 0
M  V30 153 C 14.948 2.68676 -2.19121 0
M  V30 154 C 14.009 2.58657 -3.4263 0
M  V30 155 C 13.242 3.86051 -3.68511 0
M  V30 156 O 13.465 4.87126 -2.96757 0
M  V30 157 O 12.399 3.85744 -4.62045 0
M  V30 158 H 16.225 1.06883 -2.8427 0
M  V30 159 H 13.81 0.463775 -1.42019 0
M  V30 160 H 15.692 3.47759 -2.37995 0
M  V30 161 H 14.367 2.96463 -1.29966 0
M  V30 162 H 13.274 1.7792 -3.29082 0
M  V30 163 H 14.607 2.35818 -4.32031 0
M  V30 164 N 16.2591 1.48442 0.529413 0
M  V30 165 C 17.6751 1.34575 0.858004 0
M  V30 166 C 17.8751 0.3572 1.98309 0
M  V30 167 O 16.9311 -0.221379 2.51528 0
M  V30 168 C 18.2441 2.74617 1.22499 0
M  V30 169 C 19.7921 2.83109 1.33484 0
M  V30 170 C 20.2671 4.23854 1.73526 0
M  V30 171 N 21.7581 4.2653 1.80628 0
M  V30 172 C 22.4931 5.32372 2.12997 0
M  V30 173 N 21.9891 6.48491 2.43786 0
M  V30 174 N 23.7821 5.19766 2.14008 0
M  V30 175 H 15.9331 2.1133 -0.212925 0
M  V30 176 H 18.1961 0.947439 -0.0326199 0
M  V30 177 H 17.9021 3.4852 0.471905 0
M  V30 178 H 17.7761 3.08177 2.17501 0
M  V30 179 H 20.1631 2.09462 2.0787 0
M  V30 180 H 20.2441 2.53168 0.366027 0
M  V30 181 H 19.8881 4.98018 0.997013 0
M  V30 182 H 19.8181 4.5124 2.71459 0
M  V30 183 H 22.3091 3.42772 1.59108 0
M  V30 184 H 22.6221 7.24993 2.67592 0
M  V30 185 H 20.9671 6.51765 2.41304 0
M  V30 186 H 24.1581 4.28066 1.89412 0
M  V30 187 H 24.3311 6.02354 2.38902 0
M  V30 188 N 17.7372 -0.778329 1.37039 0
M  V30 189 C 18.6842 -1.89139 1.32269 0
M  V30 190 C 19.6542 -1.65017 0.189387 0
M  V30 191 O 20.8392 -1.87024 0.377693 0
M  V30 192 C 17.9792 -3.26112 1.12894 0
M  V30 193 C 17.0922 -3.62233 2.35396 0
M  V30 194 C 16.2272 -4.8838 2.08946 0
M  V30 195 C 15.2662 -5.17212 3.2735 0
M  V30 196 N 14.4032 -6.34546 3.00492 0
M  V30 197 H 19.2432 -1.92552 2.27437 0
M  V30 198 H 16.7802 -0.941473 1.13025 0
M  V30 199 H 18.7382 -4.05116 0.996835 0
M  V30 200 H 17.3682 -3.22091 0.213758 0
M  V30 201 H 16.4202 -2.78265 2.5937 0
M  V30 202 H 17.7322 -3.79481 3.23721 0
M  V30 203 H 16.8862 -5.75274 1.92729 0
M  V30 204 H 15.6252 -4.73222 1.17949 0
M  V30 205 H 14.6302 -4.28796 3.44113 0
M  V30 206 H 15.8552 -5.34283 4.19188 0
M  V30 207 H 13.8012 -6.20759 2.12118 0
M  V30 208 H 13.7182 -6.52179 3.82358 0
M  V30 209 H 14.9862 -7.24394 2.87879 0
M  V30 210 N 19.2153 -1.21501 -1.00376 0
M  V30 211 C 20.4643 -1.02718 -1.73586 0
M  V30 212 C 20.7773 0.439589 -1.90596 0
M  V30 213 O 21.9833 0.746848 -2.61026 0
M  V30 214 C 20.4393 -1.78929 -3.1227 0
M  V30 215 C 20.0473 -3.29783 -3.03228 0
M  V30 216 C 21.7913 -1.68557 -3.89601 0
M  V30 217 C 19.6983 -3.98479 -4.36999 0
M  V30 218 H 18.6283 -0.380733 -0.650814 0
M  V30 219 H 21.2793 -1.45248 -1.1214 0
M  V30 220 H 19.6613 -1.29192 -3.74333 0
M  V30 221 H 20.8353 -3.86832 -2.50395 0
M  V30 222 H 19.1503 -3.40711 -2.39385 0
M  V30 223 H 21.7473 -2.17211 -4.88593 0
M  V30 224 H 22.0903 -0.644021 -4.11288 0
M  V30 225 H 22.6233 -2.15778 -3.34193 0
M  V30 226 H 19.3623 -5.02841 -4.20513 0
M  V30 227 H 18.8823 -3.46219 -4.89788 0
M  V30 228 H 20.5613 -4.03462 -5.05794 0
M  V30 229 N 20.6934 1.19889 -1.02296 0
M  V30 230 C 21.9394 1.89973 -0.726759 0
M  V30 231 C 22.2944 1.7776 0.73614 0
M  V30 232 O 21.5874 1.15523 1.52856 0
M  V30 233 C 21.7814 3.39883 -1.10518 0
M  V30 234 C 21.6104 3.66684 -2.60332 0
M  V30 235 C 20.3804 3.85045 -3.27213 0
M  V30 236 C 22.5784 3.68727 -3.58532 0
M  V30 237 N 20.5604 3.99422 -4.66192 0
M  V30 238 C 21.9314 3.88604 -4.83101 0
M  V30 239 C 23.9864 3.51722 -3.52414 0
M  V30 240 C 22.6894 3.9324 -6.02292 0
M  V30 241 C 24.7154 3.57632 -4.71013 0
M  V30 242 C 24.0774 3.77988 -5.94394 0
M  V30 243 H 20.1764 0.714551 -0.317712 0
M  V30 244 H 22.7604 1.44123 -1.30907 0
M  V30 245 H 20.9314 3.8447 -0.551142 0
M  V30 246 H 22.6634 3.97464 -0.761853 0
M  V30 247 H 19.4184 3.83689 -2.77632 0
M  V30 248 H 19.8424 4.10473 -5.38368 0
M  V30 249 H 24.4844 3.34945 -2.58015 0
M  V30 250 H 22.2024 4.08811 -6.97065 0
M  V30 251 H 25.7884 3.45773 -4.67902 0
M  V30 252 H 24.6684 3.82428 -6.8463 0
M  V30 253 N 22.1715 0.800033 1.35784 0
M  V30 254 C 23.3965 0.388511 2.03729 0
M  V30 255 C 23.8215 -0.990481 1.5991 0
M  V30 256 O 23.1795 -1.64013 0.772612 0
M  V30 257 C 23.2275 0.4726 3.5749 0
M  V30 258 O 22.3315 -0.51646 4.09153 0
M  V30 259 H 21.6725 0.163271 0.643614 0
M  V30 260 H 24.2025 1.0841 1.73518 0
M  V30 261 H 24.2125 0.34003 4.06581 0
M  V30 262 H 22.8875 1.47848 3.88734 0
M  V30 263 H 21.4645 -0.344673 3.71304 0
M  V30 264 N 23.6496 -1.47581 0.552962 0
M  V30 265 C 24.5796 -2.32762 -0.185451 0
M  V30 266 C 25.5606 -1.43527 -0.912905 0
M  V30 267 O 26.7456 -1.72388 -0.894201 0
M  V30 268 C 23.8756 -3.25219 -1.21859 0
M  V30 269 C 22.8296 -4.23661 -0.607864 0
M  V30 270 C 22.1556 -5.05413 -1.74533 0
M  V30 271 C 23.4556 -5.20481 0.435582 0
M  V30 272 H 25.1496 -2.94749 0.525684 0
M  V30 273 H 22.6956 -1.41738 0.254251 0
M  V30 274 H 24.6486 -3.8365 -1.7433 0
M  V30 275 H 23.3726 -2.61279 -1.95961 0
M  V30 276 H 22.0316 -3.66451 -0.104489 0
M  V30 277 H 21.6796 -4.3788 -2.47529 0
M  V30 278 H 21.3796 -5.72059 -1.34249 0
M  V30 279 H 22.9036 -5.66701 -2.27338 0
M  V30 280 H 24.3176 -5.733 -0.00290157 0
M  V30 281 H 22.7146 -5.95305 0.757067 0
M  V30 282 H 23.7846 -4.66217 1.33303 0
M  V30 283 N 25.1277 -0.289203 -1.54924 0
M  V30 284 C 26.3767 0.324231 -1.99077 0
M  V30 285 C 26.6897 1.5591 -1.18117 0
M  V30 286 O 27.8957 2.24637 -1.52481 0
M  V30 287 C 26.3517 0.628209 -3.54375 0
M  V30 288 C 25.9597 -0.587647 -4.44129 0
M  V30 289 C 27.7037 1.20349 -4.07083 0
M  V30 290 C 25.6107 -0.257475 -5.90839 0
M  V30 291 H 24.5407 0.124924 -0.743579 0
M  V30 292 H 27.1917 -0.396063 -1.79175 0
M  V30 293 H 25.5737 1.40778 -3.70132 0
M  V30 294 H 26.7477 -1.36418 -4.40144 0
M  V30 295 H 25.0627 -1.08074 -4.0213 0
M  V30 296 H 27.6597 1.46456 -5.14252 0
M  V30 297 H 28.0027 2.14195 -3.56968 0
M  V30 298 H 28.5357 0.485889 -3.94821 0
M  V30 299 H 25.2747 -1.16419 -6.45079 0
M  V30 300 H 24.7947 0.482018 -5.9786 0
M  V30 301 H 26.4737 0.145238 -6.46837 0
M  V30 302 N 26.6058 1.57591 -0.0167156 0
M  V30 303 C 28.0218 1.55946 0.339557 0
M  V30 304 C 28.2218 1.02109 1.73713 0
M  V30 305 O 27.2778 0.662303 2.43659 0
M  V30 306 C 28.5908 3.00037 0.199499 0
M  V30 307 C 30.1388 3.11805 0.273193 0
M  V30 308 C 30.6138 4.57713 0.162068 0
M  V30 309 N 32.1048 4.6268 0.219444 0
M  V30 310 C 32.8398 5.73185 0.157054 0
M  V30 311 N 32.3358 6.92786 0.0442936 0
M  V30 312 N 34.1288 5.61707 0.21014 0
M  V30 313 H 26.2798 1.90921 -0.930758 0
M  V30 314 H 28.5428 0.877674 -0.358319 0
M  V30 315 H 28.2488 3.4333 -0.76273 0
M  V30 316 H 28.1228 3.64387 0.974786 0
M  V30 317 H 30.5098 2.68433 1.22587 0
M  V30 318 H 30.5908 2.50201 -0.532256 0
M  V30 319 H 30.2348 5.01763 -0.78714 0
M  V30 320 H 30.1648 5.17283 0.986222 0
M  V30 321 H 32.6558 3.76649 0.307246 0
M  V30 322 H 32.9688 7.728 0.00304069 0
M  V30 323 H 31.3138 6.94999 0.00968457 0
M  V30 324 H 34.5048 4.6716 0.296546 0
M  V30 325 H 34.6778 6.47807 0.158054 0
M  V30 326 N 28.0839 -0.256276 1.55502 0
M  V30 327 C 29.3609 -1.00789 1.67633 0
M  V30 328 C 29.7409 -2.03706 0.553826 0
M  V30 329 O 29.0889 -2.24145 -0.443969 0
M  V30 330 C 29.2989 -1.64968 3.07549 0
M  V30 331 C 30.6469 -2.15505 3.65845 0
M  V30 332 O 31.6709 -1.74925 3.1029 0
M  V30 333 O 30.5299 -2.89986 4.63217 0
M  V30 334 H 27.6239 -0.468553 0.681459 0
M  V30 335 H 30.1699 -0.250806 1.67836 0
M  V30 336 H 28.9419 -0.904785 3.80696 0
M  V30 337 H 28.5649 -2.47321 3.11317 0
M  V30 338 N 29.562 -1.4872 -0.521534 0
M  V30 339 C 30.802 -1.58771 -1.28729 0
M  V30 340 C 31.166 -0.259394 -1.9024 0
M  V30 341 O 32.367 -0.234942 -2.67771 0
M  V30 342 C 30.638 -2.70039 -2.34124 0
M  V30 343 S 32.197 -2.9991 -3.20312 0
M  V30 344 H 29.015 -0.560251 -0.437767 0
M  V30 345 H 31.617 -1.86283 -0.593188 0
M  V30 346 H 30.321 -3.65101 -1.87429 0
M  V30 347 H 29.852 -2.44455 -3.08229 0
M  V30 348 H 31.867 -2.39855 -4.34378 0
M  V30 349 N 31.0401 0.771051 -1.3745 0
M  V30 350 C 32.2651 1.56529 -1.36065 0
M  V30 351 C 32.6901 1.88029 0.0515859 0
M  V30 352 O 32.0481 1.49282 1.02882 0
M  V30 353 C 32.0961 2.85187 -2.20683 0
M  V30 354 O 31.2001 3.79593 -1.61193 0
M  V30 355 H 30.5411 0.47411 -0.464883 0
M  V30 356 H 33.0711 0.954269 -1.80983 0
M  V30 357 H 33.0811 3.34283 -2.33921 0
M  V30 358 H 31.7561 2.61588 -3.23334 0
M  V30 359 H 30.3331 3.38239 -1.56999 0
M  V30 360 N 32.5182 1.22032 0.997298 0
M  V30 361 C 33.7662 1.04016 1.73278 0
M  V30 362 C 34.0872 -0.426255 1.90284 0
M  V30 363 O 33.3572 -1.30694 1.45931 0
M  V30 364 H 31.9372 0.381897 0.642 0
M  V30 365 H 34.5992 1.5347 1.20137 0
M  V30 366 H 33.6952 1.51441 2.72896 0
M  V30 367 N 33.9963 -1.19345 1.0293 0
M  V30 368 C 34.9433 -2.2258 0.610464 0
M  V30 369 C 35.9133 -1.6179 -0.375946 0
M  V30 370 O 37.0983 -1.88844 -0.272511 0
M  V30 371 C 34.2383 -3.45085 -0.0321473 0
M  V30 372 C 33.3513 -4.20258 1.00035 0
M  V30 373 C 32.4863 -5.3019 0.32746 0
M  V30 374 C 31.5253 -5.97121 1.34584 0
M  V30 375 N 30.6623 -6.98615 0.698726 0
M  V30 376 H 35.5023 -2.57764 1.49538 0
M  V30 377 H 33.0393 -1.26644 0.748311 0
M  V30 378 H 34.9973 -4.15061 -0.421966 0
M  V30 379 H 33.6273 -3.10555 -0.88064 0
M  V30 380 H 32.6793 -3.49223 1.50823 0
M  V30 381 H 33.9913 -4.66175 1.77433 0
M  V30 382 H 33.1453 -6.06587 -0.11718 0
M  V30 383 H 31.8843 -4.85345 -0.478713 0
M  V30 384 H 30.8893 -5.19474 1.80074 0
M  V30 385 H 32.1143 -6.4405 2.15352 0
M  V30 386 H 30.0603 -6.55942 -0.0873471 0
M  V30 387 H 29.9773 -7.42724 1.41058 0
M  V30 388 H 31.2453 -7.79004 0.278102 0
M  V30 389 N 35.4744 -0.807222 -1.35358 0
M  V30 390 C 36.4044 -0.232509 -2.3234 0
M  V30 391 C 37.3854 0.642386 -1.57504 0
M  V30 392 O 38.5704 0.572526 -1.85569 0
M  V30 393 C 35.7004 0.619238 -3.41735 0
M  V30 394 C 34.6544 -0.157215 -4.27711 0
M  V30 395 C 33.9804 0.816273 -5.28433 0
M  V30 396 C 35.2804 -1.35656 -5.04376 0
M  V30 397 H 36.9744 -1.04276 -2.80654 0
M  V30 398 H 34.5204 -0.50288 -1.34934 0
M  V30 399 H 36.4734 1.03137 -4.08584 0
M  V30 400 H 35.1974 1.46239 -2.92031 0
M  V30 401 H 33.8564 -0.550525 -3.62443 0
M  V30 402 H 33.5044 1.65494 -4.74996 0
M  V30 403 H 33.2044 0.301067 -5.86828 0
M  V30 404 H 34.7284 1.22659 -5.98153 0
M  V30 405 H 36.1424 -1.01927 -5.64166 0
M  V30 406 H 34.5394 -1.8063 -5.7227 0
M  V30 407 H 35.6094 -2.14288 -4.34981 0
M  V30 408 N 36.9525 1.47285 -0.560781 0
M  V30 409 C 37.8625 2.33846 0.187954 0
M  V30 410 C 38.8785 1.48412 0.908293 0
M  V30 411 O 40.0545 1.81332 0.876388 0
M  V30 412 C 37.1195 3.25178 1.2025 0
M  V30 413 C 36.1805 4.26504 0.489208 0
M  V30 414 C 35.4135 5.13472 1.45542 0
M  V30 415 O 35.6365 5.02959 2.6905 0
M  V30 416 O 34.5705 5.93902 0.977963 0
M  V30 417 H 38.3965 2.99177 -0.522177 0
M  V30 418 H 35.9815 1.45903 -0.321364 0
M  V30 419 H 37.8635 3.81584 1.78805 0
M  V30 420 H 36.5385 2.6247 1.89449 0
M  V30 421 H 35.4455 3.73847 -0.137627 0
M  V30 422 H 36.7785 4.91935 -0.161399 0
M  V30 423 N 38.4306 0.297415 1.54768 0
M  V30 424 C 39.6786 -0.312295 1.99673 0
M  V30 425 C 39.9996 -1.54686 1.18732 0
M  V30 426 O 39.2696 -1.93854 0.282382 0
M  V30 427 H 37.8496 -0.118381 0.73756 0
M  V30 428 H 40.5116 0.407915 1.90583 0
M  V30 429 H 39.6076 -0.586813 3.06534 0
M  V30 430 N 39.9087 -1.5758 0.0250728 0
M  V30 431 C 41.1547 -1.91917 -0.655413 0
M  V30 432 C 41.4877 -0.901433 -1.72011 0
M  V30 433 O 40.7627 0.0764069 -1.9435 0
M  V30 434 C 41.0457 -3.36751 -1.27558 0
M  V30 435 C 40.8987 -4.49258 -0.220719 0
M  V30 436 C 42.2177 -3.81469 -2.19475 0
M  V30 437 H 39.3367 -0.697925 -0.23679 0
M  V30 438 H 41.9787 -1.89825 0.0815036 0
M  V30 439 H 40.1287 -3.38664 -1.90365 0
M  V30 440 H 41.8007 -4.59478 0.409601 0
M  V30 441 H 40.0437 -4.31415 0.454264 0
M  V30 442 H 40.7147 -5.47618 -0.694175 0
M  V30 443 H 43.1907 -3.81266 -1.66659 0
M  V30 444 H 42.0667 -4.83512 -2.59822 0
M  V30 445 H 42.3277 -3.16744 -3.08424 0
M  V30 446 N 41.3868 0.248026 -1.55636 0
M  V30 447 C 42.6148 0.993808 -1.81469 0
M  V30 448 C 43.0298 1.78991 -0.60064 0
M  V30 449 O 42.3868 1.77345 0.430682 0
M  V30 450 C 42.4378 1.93258 -3.05506 0
M  V30 451 O 42.1588 1.16869 -4.22224 0
M  V30 452 C 43.6598 2.79444 -3.4413 0
M  V30 453 H 40.8798 0.292486 -0.603898 0
M  V30 454 H 43.4238 0.271253 -2.02693 0
M  V30 455 H 41.5788 2.60943 -2.86335 0
M  V30 456 H 41.9928 1.80359 -4.92515 0
M  V30 457 H 43.4668 3.41066 -4.34026 0
M  V30 458 H 43.9438 3.50499 -2.64665 0
M  V30 459 H 44.5498 2.17214 -3.65648 0
M  V30 460 N 42.8649 1.48995 0.513639 0
M  V30 461 C 43.7749 1.67443 1.64317 0
M  V30 462 C 44.7909 0.556947 1.64846 0
M  V30 463 O 45.9669 0.830082 1.83498 0
M  V30 464 C 43.0319 1.72515 3.00732 0
M  V30 465 C 42.0929 2.96009 3.1093 0
M  V30 466 C 41.3259 3.00829 4.40837 0
M  V30 467 O 41.5489 2.13594 5.28898 0
M  V30 468 O 40.4829 3.93168 4.55744 0
M  V30 469 H 44.3089 2.63106 1.51687 0
M  V30 470 H 41.8939 1.32588 0.688543 0
M  V30 471 H 43.7759 1.78277 3.81831 0
M  V30 472 H 42.4509 0.800278 3.13651 0
M  V30 473 H 41.3579 2.9577 2.29065 0
M  V30 474 H 42.6909 3.87934 3.02933 0
M  V30 475 N 44.343 -0.763751 1.37857 0
M  V30 476 C 45.571 -1.55293 1.36718 0
M  V30 477 C 45.986 -1.88745 -0.0455434 0
M  V30 478 O 45.343 -1.52039 -1.00947 0
M  V30 479 C 45.394 -2.85831 2.2132 0
M  V30 480 O 45.115 -2.5381 3.57089 0
M  V30 481 C 46.616 -3.80023 2.28249 0
M  V30 482 H 43.836 -0.480841 0.468009 0
M  V30 483 H 46.38 -0.946009 1.81303 0
M  V30 484 H 44.535 -3.42926 1.80223 0
M  V30 485 H 44.949 -3.37459 4.01524 0
M  V30 486 H 46.423 -4.68599 2.91752 0
M  V30 487 H 46.9 -4.1973 1.2932 0
M  V30 488 H 47.506 -3.28855 2.69693 0
M  V30 489 N 45.8211 -1.22559 -0.990812 0
M  V30 490 C 47.0461 -1.07862 -1.77145 0
M  V30 491 C 47.4711 0.366447 -1.84496 0
M  V30 492 O 46.8291 1.26478 -1.29896 0
M  V30 493 C 46.8771 -1.69686 -3.18181 0
M  V30 494 O 45.9811 -0.951946 -4.01263 0
M  V30 495 H 45.3221 -0.378712 -0.545411 0
M  V30 496 H 47.8521 -1.62399 -1.2445 0
M  V30 497 H 47.8621 -1.74496 -3.68802 0
M  V30 498 H 46.5371 -2.74841 -3.12146 0
M  V30 499 H 45.1141 -0.980011 -3.59792 0
M  V30 500 N 47.2992 1.18797 -1.03562 0
M  V30 501 C 48.5452 1.8893 -0.737113 0
M  V30 502 C 48.8782 1.79837 0.732956 0
M  V30 503 O 48.1532 1.19525 1.5344 0
M  V30 504 C 48.4362 3.39607 -1.19745 0
M  V30 505 C 48.2892 3.57537 -2.72924 0
M  V30 506 C 49.6082 4.33069 -0.783526 0
M  V30 507 H 46.7272 0.686057 -0.269249 0
M  V30 508 H 49.3692 1.39797 -1.28673 0
M  V30 509 H 47.5192 3.81583 -0.729855 0
M  V30 510 H 49.1912 3.24688 -3.27682 0
M  V30 511 H 47.4342 3.00363 -3.12993 0
M  V30 512 H 48.1052 4.63238 -3.00191 0
M  V30 513 H 50.5812 3.98846 -1.18581 0
M  V30 514 H 49.4572 5.3707 -1.13343 0
M  V30 515 H 49.7182 4.40986 0.313681 0
M  V30 516 N 48.7773 0.814389 1.34928 0
M  V30 517 C 49.7073 0.244827 2.32213 0
M  V30 518 C 50.6883 -0.634024 1.57842 0
M  V30 519 O 51.8733 -0.562676 1.8587 0
M  V30 520 C 49.0033 -0.601106 3.42058 0
M  V30 521 C 47.9573 0.179896 4.27622 0
M  V30 522 C 47.2833 -0.788237 5.28858 0
M  V30 523 C 48.5833 1.38329 5.03649 0
M  V30 524 H 50.2773 1.05763 2.80097 0
M  V30 525 H 47.8233 0.510029 1.34665 0
M  V30 526 H 49.7763 -1.00968 4.09125 0
M  V30 527 H 48.5003 -1.44688 2.92802 0
M  V30 528 H 47.1593 0.569739 3.62146 0
M  V30 529 H 46.8073 -1.62973 4.75866 0
M  V30 530 H 46.5073 -0.269942 5.8698 0
M  V30 531 H 48.0313 -1.19485 5.98795 0
M  V30 532 H 49.4453 1.04918 5.63618 0
M  V30 533 H 47.8423 1.83662 5.71304 0
M  V30 534 H 48.9123 2.16592 4.33839 0
M  V30 535 N 50.2554 -1.46986 0.568584 0
M  V30 536 C 51.1654 -2.33942 -0.17555 0
M  V30 537 C 52.1814 -1.48891 -0.90041 0
M  V30 538 O 53.3574 -1.81794 -0.86676 0
M  V30 539 C 50.4224 -3.25811 -1.18524 0
M  V30 540 C 49.4834 -4.26757 -0.466582 0
M  V30 541 C 48.7164 -5.14236 -1.42817 0
M  V30 542 O 48.9394 -5.04379 -2.66379 0
M  V30 543 O 47.8734 -5.94412 -0.946453 0
M  V30 544 H 51.6994 -2.98896 0.538036 0
M  V30 545 H 49.2844 -1.4573 0.329097 0
M  V30 546 H 51.1664 -3.82527 -1.76779 0
M  V30 547 H 49.8414 -2.63471 -1.88055 0
M  V30 548 H 48.7484 -3.73769 0.157451 0
M  V30 549 H 50.0814 -4.91843 0.187485 0
M  V30 550 N 51.7335 -0.305618 -1.54608 0
M  V30 551 C 52.9795 0.302746 -2.00528 0
M  V30 552 C 53.3125 1.53184 -1.19367 0
M  V30 553 O 52.5875 1.92598 -0.271321 0
M  V30 554 C 52.8705 0.654756 -3.54097 0
M  V30 555 C 52.7235 -0.583793 -4.45995 0
M  V30 556 C 54.0425 1.47947 -4.14487 0
M  V30 557 H 51.1615 0.108564 -0.72896 0
M  V30 558 H 53.8035 -0.418634 -1.85331 0
M  V30 559 H 51.9535 1.26935 -3.67178 0
M  V30 560 H 53.6255 -1.22224 -4.44814 0
M  V30 561 H 51.8685 -1.21615 -4.16404 0
M  V30 562 H 52.5395 -0.293287 -5.5122 0
M  V30 563 H 55.0155 0.96013 -4.04871 0
M  V30 564 H 53.8915 1.69454 -5.22088 0
M  V30 565 H 54.1525 2.47011 -3.66658 0
M  V30 566 N 53.2116 1.57565 -0.0334293 0
M  V30 567 C 54.1416 2.13511 0.945265 0
M  V30 568 C 55.1226 1.05231 1.33643 0
M  V30 569 O 56.3076 1.33084 1.41429 0
M  V30 570 C 53.4376 2.6657 2.22616 0
M  V30 571 C 52.3916 3.79676 1.97561 0
M  V30 572 C 51.7176 4.1918 3.31952 0
M  V30 573 C 53.0176 5.0557 1.31135 0
M  V30 574 H 54.7116 2.95538 0.479325 0
M  V30 575 H 52.2576 1.42166 0.229115 0
M  V30 576 H 54.2106 3.04344 2.91466 0
M  V30 577 H 52.9346 1.8171 2.71384 0
M  V30 578 H 51.5936 3.42347 1.31127 0
M  V30 579 H 51.2416 3.31296 3.78487 0
M  V30 580 H 50.9416 4.95402 3.15992 0
M  V30 581 H 52.4656 4.59541 4.02063 0
M  V30 582 H 53.8796 5.40903 1.89992 0
M  V30 583 H 52.2766 5.86818 1.25559 0
M  V30 584 H 53.3466 4.84062 0.284894 0
M  V30 585 N 54.6897 -0.239769 1.55765 0
M  V30 586 C 55.6197 -1.30052 1.9393 0
M  V30 587 C 56.6007 -1.49839 0.805132 0
M  V30 588 O 57.7857 -1.62328 1.06599 0
M  V30 589 C 54.9157 -2.65391 2.2402 0
M  V30 590 C 53.8697 -2.60289 3.39755 0
M  V30 591 C 53.1957 -3.99489 3.55405 0
M  V30 592 C 54.4957 -2.16654 4.75246 0
M  V30 593 H 56.1897 -0.983573 2.82783 0
M  V30 594 H 53.7357 -0.471701 1.36055 0
M  V30 595 H 55.6887 -3.3974 2.49308 0
M  V30 596 H 54.4127 -2.98736 1.32 0
M  V30 597 H 53.0717 -1.88398 3.14487 0
M  V30 598 H 52.7197 -4.30112 2.60793 0
M  V30 599 H 52.4197 -3.96962 4.33238 0
M  V30 600 H 53.9437 -4.75528 3.83022 0
M  V30 601 H 55.3577 -2.80737 4.99859 0
M  V30 602 H 53.7547 -2.25223 5.56232 0
M  V30 603 H 54.8247 -1.11835 4.71827 0
M  V30 604 N 56.1678 -1.49265 -0.50573 0
M  V30 605 C 57.4168 -1.57761 -1.25675 0
M  V30 606 C 57.7298 -0.267371 -1.93764 0
M  V30 607 O 58.9358 -0.230827 -2.70517 0
M  V30 608 C 57.3918 -2.78332 -2.28165 0
M  V30 609 C 56.9998 -4.16096 -1.66037 0
M  V30 610 C 58.7438 -2.96155 -3.04125 0
M  V30 611 C 56.6508 -5.27895 -2.6661 0
M  V30 612 H 55.5808 -0.587391 -0.472745 0
M  V30 613 H 58.2318 -1.75644 -0.53118 0
M  V30 614 H 56.6138 -2.53934 -3.03865 0
M  V30 615 H 57.7878 -4.50612 -0.963622 0
M  V30 616 H 56.1028 -4.03591 -1.02484 0
M  V30 617 H 58.6998 -3.76849 -3.79327 0
M  V30 618 H 59.0428 -2.06534 -3.61455 0
M  V30 619 H 59.5758 -3.2057 -2.35541 0
M  V30 620 H 56.3148 -6.1956 -2.14068 0
M  V30 621 H 55.8348 -4.97839 -3.34539 0
M  V30 622 H 57.5138 -5.57031 -3.29129 0
M  V30 623 N 57.6459 0.756429 -1.3826 0
M  V30 624 C 58.8919 1.51772 -1.34511 0
M  V30 625 C 59.2249 1.94089 0.0656691 0
M  V30 626 O 58.4999 1.65221 1.02626 0
M  V30 627 C 58.7829 2.77226 -2.29821 0
M  V30 628 C 58.6359 2.41065 -3.79747 0
M  V30 629 C 59.9549 3.79236 -2.23312 0
M  V30 630 H 57.0739 0.550578 -0.489931 0
M  V30 631 H 59.7159 0.866607 -1.69086 0
M  V30 632 H 57.8659 3.32784 -2.00467 0
M  V30 633 H 59.5379 1.91303 -4.19763 0
M  V30 634 H 57.7809 1.7356 -3.97567 0
M  V30 635 H 58.4519 3.3081 -4.41892 0
M  V30 636 H 60.9279 3.3321 -2.49219 0
M  V30 637 H 59.8039 4.64714 -2.92116 0
M  V30 638 H 60.0649 4.24615 -1.23102 0
M  V30 639 N 59.124 1.23083 0.984299 0
M  V30 640 C 60.349 1.088 1.76571 0
M  V30 641 C 60.774 -0.356657 1.84688 0
M  V30 642 O 60.132 -1.25788 1.30565 0
M  V30 643 C 60.18 1.71371 3.17277 0
M  V30 644 O 59.284 0.973213 4.00752 0
M  V30 645 H 58.625 0.381599 0.543395 0
M  V30 646 H 61.155 1.63057 1.23587 0
M  V30 647 H 61.165 1.76449 3.67872 0
M  V30 648 H 59.84 2.76493 3.10684 0
M  V30 649 H 58.417 0.999078 3.59267 0
M  V30 650 N 60.6021 -1.18246 1.0419 0
M  V30 651 C 62.0181 -1.40269 0.761366 0
M  V30 652 C 62.2181 -1.90777 -0.648578 0
M  V30 653 O 61.2741 -2.0929 -1.41258 0
M  V30 654 C 62.5871 -2.40237 1.8085 0
M  V30 655 C 64.1351 -2.53961 1.82955 0
M  V30 656 C 64.6101 -3.57194 2.86664 0
M  V30 657 N 66.1011 -3.64702 2.85563 0
M  V30 658 C 66.8361 -4.44309 3.6246 0
M  V30 659 N 66.3321 -5.27514 4.49111 0
M  V30 660 N 68.1251 -4.39084 3.50944 0
M  V30 661 H 60.2761 -0.837882 1.95175 0
M  V30 662 H 62.5391 -0.430608 0.84456 0
M  V30 663 H 62.2451 -2.10176 2.81991 0
M  V30 664 H 62.1191 -3.39601 1.64168 0
M  V30 665 H 64.5061 -2.83338 0.824855 0
M  V30 666 H 64.5871 -1.54706 2.03715 0
M  V30 667 H 64.2311 -3.28558 3.87314 0
M  V30 668 H 64.1611 -4.5613 2.6316 0
M  V30 669 H 66.6521 -3.05289 2.22727 0
M  V30 670 H 66.9651 -5.85411 5.04493 0
M  V30 671 H 65.3101 -5.2693 4.53178 0
M  V30 672 H 68.5011 -3.7313 2.82651 0
M  V30 673 H 68.6741 -5.00883 4.11121 0
M  V30 674 N 62.0802 -0.821533 -1.34494 0
M  V30 675 C 63.3262 -0.409552 -1.98622 0
M  V30 676 C 63.6592 1.0244 -1.64984 0
M  V30 677 O 62.9342 1.71325 -0.920758 0
M  V30 678 C 63.2172 -0.610458 -3.54888 0
M  V30 679 C 63.0702 -2.09043 -3.98273 0
M  V30 680 C 64.3892 -0.0455379 -4.40076 0
M  V30 681 H 61.5082 -0.15028 -0.721516 0
M  V30 682 H 64.1502 -1.03384 -1.59411 0
M  V30 683 H 62.3002 -0.079044 -3.8842 0
M  V30 684 H 63.9722 -2.68537 -3.75081 0
M  V30 685 H 62.2152 -2.58139 -3.48635 0
M  V30 686 H 62.8862 -2.18182 -5.07051 0
M  V30 687 H 65.3622 -0.499557 -4.1309 0
M  V30 688 H 64.2382 -0.215922 -5.48475 0
M  V30 689 H 64.4992 1.04939 -4.29465 0
M  V30 690 N 63.5583 1.46682 -0.576371 0
M  V30 691 C 64.4883 2.33028 0.148397 0
M  V30 692 C 65.4693 1.44961 0.889956 0
M  V30 693 O 66.6543 1.73789 0.866662 0
M  V30 694 C 63.7843 3.27117 1.1667 0
M  V30 695 C 62.7383 4.24575 0.540386 0
M  V30 696 C 62.0643 5.08126 1.6647 0
M  V30 697 C 63.3643 5.19722 -0.518331 0
M  V30 698 H 65.0583 2.93875 -0.572509 0
M  V30 699 H 62.6043 1.41315 -0.276768 0
M  V30 700 H 64.5573 3.86374 1.68204 0
M  V30 701 H 63.2813 2.64364 1.9178 0
M  V30 702 H 61.9403 3.66571 0.0461769 0
M  V30 703 H 61.5883 4.41762 2.40531 0
M  V30 704 H 61.2883 5.74122 1.25131 0
M  V30 705 H 62.8123 5.70246 2.18293 0
M  V30 706 H 64.2263 5.73232 -0.0883058 0
M  V30 707 H 62.6233 5.94026 -0.851679 0
M  V30 708 H 63.6933 4.64037 -1.40703 0
M  V30 709 N 65.0364 0.313813 1.54444 0
M  V30 710 C 66.2844 -0.291099 1.99993 0
M  V30 711 C 66.6054 -1.53418 1.20366 0
M  V30 712 O 65.8754 -1.93544 0.302927 0
M  V30 713 H 64.4554 -0.110552 0.738774 0
M  V30 714 H 67.1174 0.428106 1.9014 0
M  V30 715 H 66.2134 -0.554268 3.07139 0
M  V30 716 N 66.5145 -1.57545 0.0417849 0
M  V30 717 C 67.7635 -1.91494 -0.633492 0
M  V30 718 C 68.0765 -0.921084 -1.72556 0
M  V30 719 O 69.2825 -1.15228 -2.45835 0
M  V30 720 C 67.7385 -3.40072 -1.17808 0
M  V30 721 C 67.3465 -4.47843 -0.118633 0
M  V30 722 C 69.0905 -3.8307 -1.82915 0
M  V30 723 C 66.9975 -5.87529 -0.675578 0
M  V30 724 H 65.9275 -0.714653 -0.24039 0
M  V30 725 H 68.5785 -1.83175 0.109148 0
M  V30 726 H 66.9605 -3.43364 -1.97274 0
M  V30 727 H 68.1345 -4.56128 0.654494 0
M  V30 728 H 66.4495 -4.14128 0.434414 0
M  V30 729 H 69.0465 -4.84794 -2.25563 0
M  V30 730 H 69.3895 -3.1881 -2.67705 0
M  V30 731 H 69.9225 -3.82255 -1.10119 0
M  V30 732 H 66.6615 -6.55362 0.134475 0
M  V30 733 H 66.1815 -5.82824 -1.4169 0
M  V30 734 H 67.8605 -6.36491 -1.1614 0
M  V30 735 N 67.9926 0.231505 -1.5589 0
M  V30 736 C 69.4086 0.580748 -1.48659 0
M  V30 737 C 69.6086 1.87617 -0.73498 0
M  V30 738 O 68.6646 2.51046 -0.270586 0
M  V30 739 C 69.9776 0.669202 -2.93159 0
M  V30 740 C 71.5256 0.760499 -3.03621 0
M  V30 741 C 72.0006 0.880383 -4.49459 0
M  V30 742 N 73.4916 0.944861 -4.53461 0
M  V30 743 C 74.2266 1.05716 -5.63571 0
M  V30 744 N 73.7226 1.13403 -6.83456 0
M  V30 745 N 75.5156 1.09152 -5.514 0
M  V30 746 H 67.6666 -0.618695 -2.03189 0
M  V30 747 H 69.9296 -0.215728 -0.923128 0
M  V30 748 H 69.6356 -0.212904 -3.51055 0
M  V30 749 H 69.5096 1.5361 -3.44505 0
M  V30 750 H 71.8966 1.63305 -2.45796 0
M  V30 751 H 71.9776 -0.131864 -2.5546 0
M  V30 752 H 71.6216 0.0123284 -5.07899 0
M  V30 753 H 71.5516 1.78802 -4.95316 0
M  V30 754 H 74.0426 0.896176 -3.6712 0
M  V30 755 H 74.3556 1.21921 -7.63122 0
M  V30 756 H 72.7006 1.10333 -6.86186 0
M  V30 757 H 75.8916 1.02805 -4.56671 0
M  V30 758 H 76.0646 1.17558 -6.37247 0
M  V30 759 N 69.4707 1.49531 0.497807 0
M  V30 760 C 70.4177 1.66436 1.59899 0
M  V30 761 C 71.3877 0.505793 1.58212 0
M  V30 762 O 72.5727 0.733202 1.7615 0
M  V30 763 C 69.7127 1.7399 2.98029 0
M  V30 764 C 68.8257 3.01172 3.09708 0
M  V30 765 C 67.9607 2.99686 4.38591 0
M  V30 766 C 66.9997 4.21434 4.43914 0
M  V30 767 N 66.1367 4.1784 5.64229 0
M  V30 768 H 70.9767 2.60459 1.44793 0
M  V30 769 H 68.5137 1.29137 0.704423 0
M  V30 770 H 70.4717 1.76352 3.78095 0
M  V30 771 H 69.1017 0.834301 3.11832 0
M  V30 772 H 68.1537 3.08408 2.22685 0
M  V30 773 H 69.4657 3.91165 3.09502 0
M  V30 774 H 68.6197 3.00628 5.2698 0
M  V30 775 H 67.3587 2.07477 4.41367 0
M  V30 776 H 66.3637 4.20733 3.53926 0
M  V30 777 H 67.5887 5.14839 4.42851 0
M  V30 778 H 65.5347 3.28469 5.67841 0
M  V30 779 H 65.4517 5.01571 5.65652 0
M  V30 780 H 66.7197 4.22889 6.54817 0
M  V30 781 N 70.9488 -0.749086 1.3866 0
M  V30 782 C 71.8588 -1.89358 1.38494 0
M  V30 783 C 72.8748 -1.71708 0.281476 0
M  V30 784 O 74.0508 -1.94554 0.520643 0
M  V30 785 C 71.1158 -3.24782 1.21316 0
M  V30 786 C 70.1768 -3.54926 2.41508 0
M  V30 787 C 69.4098 -4.83888 2.2514 0
M  V30 788 O 69.6328 -5.56592 1.24746 0
M  V30 789 O 68.5668 -5.13612 3.13826 0
M  V30 790 H 72.3928 -1.92452 2.34938 0
M  V30 791 H 69.9778 -0.894981 1.19626 0
M  V30 792 H 71.8598 -4.05739 1.13814 0
M  V30 793 H 70.5348 -3.2249 0.279592 0
M  V30 794 H 69.4418 -2.74112 2.54585 0
M  V30 795 H 70.7748 -3.61983 3.3351 0
M  V30 796 N 72.4269 -1.23603 -0.977757 0
M  V30 797 C 73.7039 -0.977897 -1.69401 0
M  V30 798 C 74.0839 0.502738 -2.05026 0
M  V30 799 O 73.4319 1.47459 -1.74551 0
M  V30 800 C 73.6419 -1.89077 -2.93345 0
M  V30 801 C 74.9899 -2.15579 -3.65802 0
M  V30 802 O 76.0139 -1.86648 -3.03383 0
M  V30 803 O 74.8729 -2.64658 -4.78141 0
M  V30 804 H 71.9669 -0.369025 -0.740101 0
M  V30 805 H 74.5129 -1.34657 -1.03274 0
M  V30 806 H 73.2849 -2.89158 -2.63634 0
M  V30 807 H 72.9079 -1.52463 -3.67207 0
M  V30 808 N 73.905 1.17692 -1.04816 0
M  V30 809 C 74.835 2.23777 -0.666791 0
M  V30 810 C 75.816 1.66796 0.33361 0
M  V30 811 O 77.001 1.93039 0.212042 0
M  V30 812 C 74.131 3.47281 -0.0367933 0
M  V30 813 C 73.085 4.17059 -0.961546 0
M  V30 814 C 72.411 5.34342 -0.195626 0
M  V30 815 C 73.711 4.69713 -2.28402 0
M  V30 816 H 75.405 2.55933 -1.55367 0
M  V30 817 H 72.951 1.23019 -0.748484 0
M  V30 818 H 74.904 4.20706 0.241775 0
M  V30 819 H 73.628 3.14381 0.885004 0
M  V30 820 H 72.287 3.45541 -1.22462 0
M  V30 821 H 71.935 4.97692 0.728816 0
M  V30 822 H 71.635 5.81966 -0.811775 0
M  V30 823 H 73.159 6.10553 0.0757473 0
M  V30 824 H 74.573 5.34794 -2.06563 0
M  V30 825 H 72.97 5.279 -2.8538 0
M  V30 826 H 74.04 3.86726 -2.92525 0
M  V30 827 N 75.3831 0.828654 1.34056 0
M  V30 828 C 76.6301 0.419458 1.98108 0
M  V30 829 C 76.9581 -1.01886 1.65679 0
M  V30 830 O 76.2131 -1.72539 0.923512 0
M  V30 831 C 76.5121 0.575226 3.52741 0
M  V30 832 C 76.1781 1.98012 4.05095 0
M  V30 833 C 74.8401 2.36442 4.19104 0
M  V30 834 C 77.1921 2.89824 4.33188 0
M  V30 835 C 74.5201 3.66009 4.58535 0
M  V30 836 C 76.8721 4.1886 4.74066 0
M  V30 837 C 75.5361 4.5726 4.86281 0
M  V30 838 H 74.8061 0.153491 0.724929 0
M  V30 839 H 77.4531 1.05371 1.59904 0
M  V30 840 H 75.7581 -0.142385 3.91541 0
M  V30 841 H 77.4551 0.239057 4.00287 0
M  V30 842 H 74.0451 1.67162 3.94658 0
M  V30 843 H 78.2291 2.61375 4.21897 0
M  V30 844 H 73.4851 3.95579 4.66184 0
M  V30 845 H 77.6591 4.90086 4.94761 0
M  V30 846 H 75.2861 5.57707 5.16592 0
M  V30 847 N 76.8612 -1.46375 0.584142 0
M  V30 848 C 77.7912 -2.33103 -0.136037 0
M  V30 849 C 78.7722 -1.45431 -0.882255 0
M  V30 850 O 79.9572 -1.74246 -0.857434 0
M  V30 851 C 77.0872 -3.27731 -1.14933 0
M  V30 852 C 76.0412 -4.24855 -0.517862 0
M  V30 853 C 75.3672 -5.09001 -1.63773 0
M  V30 854 C 76.6672 -5.19439 0.545886 0
M  V30 855 H 78.3612 -2.93568 0.588086 0
M  V30 856 H 75.9072 -1.41166 0.284259 0
M  V30 857 H 77.8602 -3.87261 -1.66153 0
M  V30 858 H 76.5842 -2.65377 -1.90375 0
M  V30 859 H 75.2432 -3.6659 -0.0267361 0
M  V30 860 H 74.8912 -4.43031 -2.38185 0
M  V30 861 H 74.5912 -5.74777 -1.22085 0
M  V30 862 H 76.1152 -5.71396 -2.15266 0
M  V30 863 H 77.5292 -5.73177 0.118704 0
M  V30 864 H 75.9262 -5.93566 0.88317 0
M  V30 865 H 76.9962 -4.63285 1.43162 0
M  V30 866 N 78.3393 -0.321999 -1.54275 0
M  V30 867 C 79.2863 0.544664 -2.24281 0
M  V30 868 C 80.2563 1.1129 -1.23303 0
M  V30 869 O 81.4413 1.15354 -1.51981 0
M  V30 870 C 78.5813 1.70045 -3.00298 0
M  V30 871 C 77.6943 1.16159 -4.1609 0
M  V30 872 C 76.8293 2.28293 -4.79641 0
M  V30 873 C 75.8683 1.71648 -5.8754 0
M  V30 874 N 75.0053 2.77438 -6.44959 0
M  V30 875 H 79.8453 -0.0588907 -2.97942 0
M  V30 876 H 77.3823 -0.0408345 -1.47043 0
M  V30 877 H 79.3403 2.38054 -3.42616 0
M  V30 878 H 77.9703 2.27531 -2.28975 0
M  V30 879 H 77.0223 0.373092 -3.78566 0
M  V30 880 H 78.3343 0.707087 -4.93763 0
M  V30 881 H 77.4883 3.0421 -5.2492 0
M  V30 882 H 76.2273 2.77079 -4.01346 0
M  V30 883 H 75.2323 0.942282 -5.41665 0
M  V30 884 H 76.4573 1.23741 -6.67731 0
M  V30 885 H 74.4033 3.25519 -5.69538 0
M  V30 886 H 74.3203 2.36547 -7.1804 0
M  V30 887 H 75.5883 3.53189 -6.94894 0
M  V30 888 N 79.8174 1.5752 -0.0501392 0
M  V30 889 C 81.0944 1.83996 0.663685 0
M  V30 890 C 81.4744 0.938339 1.89099 0
M  V30 891 O 80.8224 -0.00087759 2.285 0
M  V30 892 C 81.0324 3.33702 1.02196 0
M  V30 893 C 82.3804 4.00691 1.40469 0
M  V30 894 O 83.4044 3.38321 1.11433 0
M  V30 895 O 82.2634 5.10658 1.94654 0
M  V30 896 H 79.3574 0.759385 0.32751 0
M  V30 897 H 81.9034 1.69514 -0.0794238 0
M  V30 898 H 80.6754 3.91015 0.149364 0
M  V30 899 H 80.2984 3.53368 1.82255 0
M  V30 900 N 81.2955 -0.223234 1.56011 0
M  V30 901 C 82.2255 -1.27988 1.95298 0
M  V30 902 C 83.2065 -1.48976 0.820979 0
M  V30 903 O 84.3915 -1.61188 1.08315 0
M  V30 904 C 81.5215 -2.63 2.26822 0
M  V30 905 C 80.4755 -2.56671 3.42497 0
M  V30 906 C 79.8015 -3.95697 3.59622 0
M  V30 907 C 81.1015 -2.11601 4.77517 0
M  V30 908 H 82.7955 -0.953525 2.8381 0
M  V30 909 H 80.3415 -0.457244 1.36548 0
M  V30 910 H 82.2945 -3.37077 2.52898 0
M  V30 911 H 81.0185 -2.9732 1.35161 0
M  V30 912 H 79.6775 -1.85051 3.16467 0
M  V30 913 H 79.3255 -4.27322 2.6534 0
M  V30 914 H 79.0255 -3.92345 4.37424 0
M  V30 915 H 80.5495 -4.71438 3.88044 0
M  V30 916 H 81.9635 -2.7542 5.02809 0
M  V30 917 H 80.3605 -2.19311 5.5859 0
M  V30 918 H 81.4305 -1.06824 4.72987 0
M  V30 919 N 82.7736 -1.49793 -0.48987 0
M  V30 920 C 84.0216 -1.59525 -1.24081 0
M  V30 921 C 84.3426 -0.288953 -1.92847 0
M  V30 922 O 83.6126 0.692436 -1.83254 0
M  V30 923 H 82.1926 -0.587796 -0.460983 0
M  V30 924 H 84.8546 -1.86477 -0.566778 0
M  V30 925 H 83.9506 -2.39696 -1.99881 0
M  V30 926 N 84.2517 0.741722 -1.39055 0
M  V30 927 C 85.4977 1.50336 -1.36113 0
M  V30 928 C 85.8307 1.94148 0.0450796 0
M  V30 929 O 85.1057 1.66301 1.00868 0
M  V30 930 C 85.3887 2.74773 -2.32749 0
M  V30 931 C 85.2417 2.37023 -3.82283 0
M  V30 932 C 86.5607 3.76846 -2.27322 0
M  V30 933 H 83.6797 0.545351 -0.495743 0
M  V30 934 H 86.3217 0.848624 -1.69995 0
M  V30 935 H 84.4717 3.30639 -2.03986 0
M  V30 936 H 86.1437 1.8684 -4.21768 0
M  V30 937 H 84.3867 1.69334 -3.99385 0
M  V30 938 H 85.0577 3.26104 -4.45376 0
M  V30 939 H 87.5337 3.30548 -2.5274 0
M  V30 940 H 86.4097 4.6159 -2.97028 0
M  V30 941 H 86.6707 4.23286 -1.27599 0
M  V30 942 N 85.7298 1.2412 0.971189 0
M  V30 943 C 86.9548 1.10667 1.75407 0
M  V30 944 C 87.3798 -0.337048 1.85056 0
M  V30 945 O 86.7378 -1.24396 1.31892 0
M  V30 946 C 86.7858 1.74726 3.15441 0
M  V30 947 O 85.8898 1.01566 3.99697 0
M  V30 948 H 85.2308 0.387341 0.539317 0
M  V30 949 H 87.7608 1.64358 1.2185 0
M  V30 950 H 87.7708 1.80341 3.6598 0
M  V30 951 H 86.4458 2.79773 3.07734 0
M  V30 952 H 85.0228 1.03713 3.58187 0
M  V30 953 N 87.2079 -1.17134 1.05439 0
M  V30 954 C 88.6189 -1.69084 0.791676 0
M  V30 955 C 88.9699 -1.83822 -0.685839 0
M  V30 956 O 88.0949 -1.52757 -1.53278 0
M  V30 957 C 88.6899 -3.07119 1.4305 0
M  V30 958 C 87.2489 -3.56225 1.21577 0
M  V30 959 C 86.3959 -2.32421 1.51247 0
M  V30 960 H 89.3469 -1.01617 1.219 0
M  V30 961 H 89.3679 -3.71087 0.84112 0
M  V30 962 H 88.8799 -2.9636 2.50584 0
M  V30 963 H 86.9809 -3.72257 0.159787 0
M  V30 964 H 87.0939 -4.38837 1.92246 0
M  V30 965 H 85.4579 -2.3701 0.932653 0
M  V30 966 H 86.2409 -2.24268 2.5992 0
M  V30 967 N 88.686 -0.835752 -1.33615 0
M  V30 968 C 89.914 -0.443344 -2.02094 0
M  V30 969 C 90.329 0.954522 -1.62894 0
M  V30 970 O 89.686 1.61982 -0.840723 0
M  V30 971 C 89.737 -0.550775 -3.5728 0
M  V30 972 O 89.458 -1.89356 -3.95065 0
M  V30 973 C 90.959 -0.154919 -4.43029 0
M  V30 974 H 88.179 -0.176359 -0.647409 0
M  V30 975 H 90.723 -1.12746 -1.70612 0
M  V30 976 H 88.878 0.0853997 -3.87306 0
M  V30 977 H 89.292 -1.87687 -4.89769 0
M  V30 978 H 90.766 -0.281144 -5.51284 0
M  V30 979 H 91.243 0.902863 -4.2982 0
M  V30 980 H 91.849 -0.765404 -4.18356 0
M  V30 981 N 90.1641 1.46063 -0.591896 0
M  V30 982 C 91.0741 2.34192 0.13831 0
M  V30 983 C 92.0901 1.50305 0.876608 0
M  V30 984 O 93.2661 1.8315 0.837728 0
M  V30 985 C 90.3311 3.27656 1.13326 0
M  V30 986 C 89.3921 4.27445 0.39863 0
M  V30 987 C 88.6251 5.16443 1.34618 0
M  V30 988 O 88.8481 5.08553 2.58321 0
M  V30 989 O 87.7821 5.95843 0.851768 0
M  V30 990 H 91.6081 2.98002 -0.58552 0
M  V30 991 H 89.1931 1.45188 -0.352239 0
M  V30 992 H 91.0751 3.85291 1.70671 0
M  V30 993 H 89.7501 2.6643 1.83839 0
M  V30 994 H 88.6571 3.73471 -0.216895 0
M  V30 995 H 89.9901 4.91482 -0.265709 0
M  V30 996 N 91.6422 0.330177 1.54103 0
M  V30 997 C 92.5522 -0.541534 2.28264 0
M  V30 998 C 93.5682 -1.12351 1.32866 0
M  V30 999 O 94.7442 -1.14206 1.65888 0
M  V30 1000 C 91.8092 -1.68322 3.03098 0
M  V30 1001 C 90.8702 -1.13238 4.14096 0
M  V30 1002 C 90.1032 -2.21966 4.85352 0
M  V30 1003 O 90.3262 -3.42437 4.56172 0
M  V30 1004 O 89.2602 -1.87013 5.7211 0
M  V30 1005 H 93.0862 0.060938 3.03639 0
M  V30 1006 H 90.6712 0.09565 1.49093 0
M  V30 1007 H 92.5532 -2.34777 3.49939 0
M  V30 1008 H 91.2282 -2.27176 2.30593 0
M  V30 1009 H 90.1352 -0.432736 3.71589 0
M  V30 1010 H 91.4682 -0.588898 4.88664 0
M  V30 1011 N 93.1203 -1.57491 0.0584922 0
M  V30 1012 C 94.0673 -2.11958 -0.913376 0
M  V30 1013 C 95.0373 -1.02875 -1.30407 0
M  V30 1014 O 96.2223 -1.30464 -1.39226 0
M  V30 1015 C 93.3623 -2.67497 -2.18035 0
M  V30 1016 C 92.4753 -3.90691 -1.84349 0
M  V30 1017 C 91.6103 -4.3452 -3.05559 0
M  V30 1018 C 90.6493 -5.50395 -2.67827 0
M  V30 1019 N 89.7863 -5.89244 -3.81754 0
M  V30 1020 H 94.6263 -2.94704 -0.442017 0
M  V30 1021 H 92.1633 -1.45643 -0.206545 0
M  V30 1022 H 94.1213 -2.978 -2.92183 0
M  V30 1023 H 92.7513 -1.87537 -2.62735 0
M  V30 1024 H 91.8033 -3.66934 -1.00319 0
M  V30 1025 H 93.1153 -4.7489 -1.5258 0
M  V30 1026 H 92.2693 -4.66414 -3.87998 0
M  V30 1027 H 91.0083 -3.49147 -3.40511 0
M  V30 1028 H 90.0133 -5.18165 -1.83806 0
M  V30 1029 H 91.2383 -6.3749 -2.34059 0
M  V30 1030 H 89.1843 -5.06823 -4.16493 0
M  V30 1031 H 89.1013 -6.68151 -3.53708 0
M  V30 1032 H 90.3693 -6.25756 -4.64811 0
M  V30 1033 N 94.5984 0.214957 -1.56127 0
M  V30 1034 C 96.0144 0.564948 -1.49267 0
M  V30 1035 C 96.2144 1.86827 -0.754838 0
M  V30 1036 O 95.2704 2.50745 -0.297198 0
M  V30 1037 C 96.5834 0.638071 -2.93852 0
M  V30 1038 C 98.1314 0.728253 -3.0441 0
M  V30 1039 C 98.6064 0.832663 -4.50367 0
M  V30 1040 N 100.097 0.896712 -4.54437 0
M  V30 1041 C 100.832 0.997324 -5.6466 0
M  V30 1042 N 100.328 1.06147 -6.8462 0
M  V30 1043 N 102.121 1.03297 -5.52527 0
M  V30 1044 H 94.2724 -0.640211 -2.02522 0
M  V30 1045 H 96.5354 -0.225507 -0.920788 0
M  V30 1046 H 96.2414 -0.250126 -3.50809 0
M  V30 1047 H 96.1154 1.49947 -3.46115 0
M  V30 1048 H 98.5024 1.60689 -2.47514 0
M  V30 1049 H 98.5834 -0.158952 -2.55306 0
M  V30 1050 H 98.2274 -0.0415417 -5.07883 0
M  V30 1051 H 98.1574 1.73538 -4.97184 0
M  V30 1052 H 100.648 0.857188 -3.6805 0
M  V30 1053 H 100.961 1.1382 -7.64372 0
M  V30 1054 H 99.3064 1.03049 -6.87318 0
M  V30 1055 H 102.497 0.979558 -4.57736 0
M  V30 1056 H 102.67 1.10793 -6.38458 0
M  V30 1057 N 96.0765 1.50051 0.48192 0
M  V30 1058 C 97.3255 1.59741 1.23149 0
M  V30 1059 C 97.6385 0.298163 1.93314 0
M  V30 1060 O 98.8445 0.273835 2.70116 0
M  V30 1061 C 97.3005 2.81926 2.23708 0
M  V30 1062 C 96.9085 4.18685 1.59396 0
M  V30 1063 C 98.6525 3.00956 2.99375 0
M  V30 1064 C 96.5595 5.3207 2.58178 0
M  V30 1065 H 95.4895 0.594838 0.46334 0
M  V30 1066 H 98.1405 1.76467 0.503169 0
M  V30 1067 H 96.5225 2.58736 2.99786 0
M  V30 1068 H 97.6965 4.52088 0.891811 0
M  V30 1069 H 96.0115 4.05171 0.960503 0
M  V30 1070 H 98.6085 3.82836 3.73283 0
M  V30 1071 H 98.9515 2.12258 3.58123 0
M  V30 1072 H 99.4845 3.24277 2.30411 0
M  V30 1073 H 96.2235 6.22888 2.04184 0
M  V30 1074 H 95.7435 5.03098 3.26577 0
M  V30 1075 H 97.4225 5.62196 3.20225 0
M  V30 1076 N 97.5546 -0.734337 1.39446 0
M  V30 1077 C 98.4846 -1.86155 1.40955 0
M  V30 1078 C 99.4656 -1.67898 0.272827 0
M  V30 1079 O 100.651 -1.88207 0.478743 0
M  V30 1080 C 97.7806 -3.23912 1.25294 0
M  V30 1081 C 96.7346 -3.56808 2.36373 0
M  V30 1082 C 96.0606 -4.93508 2.058 0
M  V30 1083 C 97.3606 -3.59713 3.78687 0
M  V30 1084 H 99.0546 -1.8515 2.35287 0
M  V30 1085 H 96.6006 -0.889367 1.13253 0
M  V30 1086 H 98.5536 -4.02443 1.2497 0
M  V30 1087 H 97.2776 -3.25446 0.274308 0
M  V30 1088 H 95.9366 -2.80606 2.35914 0
M  V30 1089 H 95.5846 -4.91623 1.06374 0
M  V30 1090 H 95.2846 -5.16486 2.80208 0
M  V30 1091 H 96.8086 -5.74396 2.07128 0
M  V30 1092 H 98.2226 -4.2832 3.81071 0
M  V30 1093 H 96.6196 -3.94209 4.52459 0
M  V30 1094 H 97.6896 -2.59504 4.09617 0
M  V30 1095 N 99.0327 -1.24633 -0.964593 0
M  V30 1096 C 99.9427 -1.05859 -2.09359 0
M  V30 1097 C 100.959 0.00148855 -1.74 0
M  V30 1098 O 102.135 -0.197346 -2.00431 0
M  V30 1099 C 99.1997 -0.668879 -3.40187 0
M  V30 1100 C 98.2607 -1.80578 -3.89474 0
M  V30 1101 C 97.4937 -1.43457 -5.14058 0
M  V30 1102 O 97.7167 -0.325775 -5.69469 0
M  V30 1103 O 96.6507 -2.2613 -5.57807 0
M  V30 1104 H 100.477 -2.00516 -2.28094 0
M  V30 1105 H 98.0617 -1.03481 -1.0776 0
M  V30 1106 H 99.9437 -0.463211 -4.18846 0
M  V30 1107 H 98.6187 0.248536 -3.22744 0
M  V30 1108 H 97.5257 -2.06623 -3.11862 0
M  V30 1109 H 98.8587 -2.70208 -4.11398 0
M  V30 1110 N 100.511 1.16574 -1.06058 0
M  V30 1111 C 101.441 2.23057 -0.690488 0
M  V30 1112 C 102.422 1.67141 0.315901 0
M  V30 1113 O 103.607 1.93253 0.191556 0
M  V30 1114 C 100.737 3.47222 -0.073625 0
M  V30 1115 C 99.6908 4.16016 -1.00573 0
M  V30 1116 C 99.0168 5.34104 -0.252289 0
M  V30 1117 C 100.317 4.67264 -2.33371 0
M  V30 1118 H 102.011 2.54271 -1.58072 0
M  V30 1119 H 99.5568 1.22218 -0.76149 0
M  V30 1120 H 101.51 4.20939 0.19714 0
M  V30 1121 H 100.234 3.15302 0.85161 0
M  V30 1122 H 98.8928 3.44223 -1.2612 0
M  V30 1123 H 98.5408 4.98437 0.675988 0
M  V30 1124 H 98.2408 5.81072 -0.873455 0
M  V30 1125 H 99.7648 6.10599 0.0109857 0
M  V30 1126 H 101.179 5.32573 -2.12223 0
M  V30 1127 H 99.5758 5.24843 -2.90963 0
M  V30 1128 H 100.646 3.83602 -2.96611 0
M  V30 1129 N 101.989 0.842826 1.3317 0
M  V30 1130 C 103.235 0.441099 1.97945 0
M  V30 1131 C 103.568 -0.998024 1.66593 0
M  V30 1132 O 102.843 -1.69839 0.947898 0
M  V30 1133 C 103.126 0.666841 3.53872 0
M  V30 1134 C 102.979 2.15352 3.94897 0
M  V30 1135 C 104.298 0.115544 4.39948 0
M  V30 1136 H 101.417 0.161739 0.719034 0
M  V30 1137 H 104.059 1.05907 1.57746 0
M  V30 1138 H 102.209 0.140828 3.88245 0
M  V30 1139 H 103.881 2.7447 3.70761 0
M  V30 1140 H 102.124 2.63653 3.44484 0
M  V30 1141 H 102.795 2.26221 5.03516 0
M  V30 1142 H 105.271 0.565213 4.12243 0
M  V30 1143 H 104.147 0.303152 5.48062 0
M  V30 1144 H 104.408 -0.980935 4.3108 0
M  V30 1145 N 103.467 -1.45747 0.599634 0
M  V30 1146 C 104.377 -2.34262 -0.125888 0
M  V30 1147 C 105.393 -1.50768 -0.868625 0
M  V30 1148 O 106.569 -1.83592 -0.828003 0
M  V30 1149 C 103.634 -3.28252 -1.11587 0
M  V30 1150 C 102.695 -4.27651 -0.375956 0
M  V30 1151 C 101.928 -5.1715 -1.31877 0
M  V30 1152 O 102.151 -5.09916 -2.55621 0
M  V30 1153 O 101.085 -5.96286 -0.820157 0
M  V30 1154 H 104.911 -2.97688 0.601315 0
M  V30 1155 H 102.496 -1.44999 0.359934 0
M  V30 1156 H 104.378 -3.86191 -1.68626 0
M  V30 1157 H 103.053 -2.67401 -1.82424 0
M  V30 1158 H 101.96 -3.7335 0.236698 0
M  V30 1159 H 103.293 -4.91334 0.29177 0
M  V30 1160 N 104.945 -0.338344 -1.53925 0
M  V30 1161 C 105.892 0.520845 -2.24846 0
M  V30 1162 C 106.862 1.09976 -1.24477 0
M  V30 1163 O 108.047 1.13735 -1.53196 0
M  V30 1164 C 105.187 1.6685 -3.02084 0
M  V30 1165 C 104.3 1.11739 -4.17299 0
M  V30 1166 C 103.435 2.23193 -4.82036 0
M  V30 1167 C 102.474 1.65407 -5.89328 0
M  V30 1168 N 101.611 2.70582 -6.47866 0
M  V30 1169 H 106.451 -0.0904881 -2.97863 0
M  V30 1170 H 103.988 -0.0564282 -1.46992 0
M  V30 1171 H 105.946 2.34407 -3.45122 0
M  V30 1172 H 104.576 2.2509 -2.31375 0
M  V30 1173 H 103.628 0.332919 -3.7894 0
M  V30 1174 H 104.94 0.654677 -4.94485 0
M  V30 1175 H 104.094 2.98626 -5.28117 0
M  V30 1176 H 102.833 2.72807 -4.04262 0
M  V30 1177 H 101.838 0.884779 -5.42634 0
M  V30 1178 H 103.063 1.16652 -6.69006 0
M  V30 1179 H 101.009 3.1946 -5.72959 0
M  V30 1180 H 100.926 2.28917 -7.20509 0
M  V30 1181 H 102.194 3.45799 -6.98601 0
M  V30 1182 N 106.423 1.57458 -0.0668435 0
M  V30 1183 C 107.839 1.56947 0.289772 0
M  V30 1184 C 108.039 1.07584 1.70376 0
M  V30 1185 O 107.095 0.739486 2.41429 0
M  V30 1186 C 108.408 3.0052 0.103943 0
M  V30 1187 C 109.956 3.12517 0.173857 0
M  V30 1188 C 110.431 4.57997 0.0163682 0
M  V30 1189 N 111.922 4.63144 0.0721352 0
M  V30 1190 C 112.657 5.73394 -0.0253794 0
M  V30 1191 N 112.153 6.92576 -0.176133 0
M  V30 1192 N 113.946 5.62091 0.0313305 0
M  V30 1193 H 106.097 1.87863 -0.991027 0
M  V30 1194 H 108.36 0.86583 -0.38606 0
M  V30 1195 H 108.066 3.40729 -0.871572 0
M  V30 1196 H 107.94 3.67304 0.858366 0
M  V30 1197 H 110.327 2.72197 1.13985 0
M  V30 1198 H 110.408 2.48381 -0.611586 0
M  V30 1199 H 110.052 4.99005 -0.946374 0
M  V30 1200 H 109.982 5.20158 0.821153 0
M  V30 1201 H 112.473 3.77436 0.187263 0
M  V30 1202 H 112.786 7.72418 -0.242821 0
M  V30 1203 H 111.131 6.94678 -0.211429 0
M  V30 1204 H 114.322 4.67867 0.147773 0
M  V30 1205 H 114.495 6.47982 -0.048121 0
M  V30 1206 N 107.901 -0.206675 1.56239 0
M  V30 1207 C 108.864 -1.23976 1.92776 0
M  V30 1208 C 109.864 -1.39041 0.807729 0
M  V30 1209 O 111.054 -1.37051 1.0753 0
M  V30 1210 C 108.186 -2.61112 2.19165 0
M  V30 1211 H 109.379 -0.927764 2.85189 0
M  V30 1212 H 106.932 -0.447718 1.4975 0
M  V30 1213 H 107.667 -2.97386 1.29352 0
M  V30 1214 H 107.452 -2.51552 3.00772 0
M  V30 1215 H 108.942 -3.35633 2.48476 0
M  V30 1216 N 109.379 -1.50304 -0.473955 0
M  V30 1217 C 110.604 -1.65175 -1.25427 0
M  V30 1218 C 111.029 -0.333673 -1.85117 0
M  V30 1219 O 110.387 0.702114 -1.67153 0
M  V30 1220 C 110.435 -2.74295 -2.34082 0
M  V30 1221 O 109.539 -2.35349 -3.38651 0
M  V30 1222 H 108.88 -0.551944 -0.369126 0
M  V30 1223 H 111.41 -1.96662 -0.564364 0
M  V30 1224 H 111.42 -2.97285 -2.79438 0
M  V30 1225 H 110.095 -3.69959 -1.90008 0
M  V30 1226 H 108.672 -2.22794 -2.99027 0
M  V30 1227 N 110.857 0.726932 -1.39834 0
M  V30 1228 C 112.105 1.4837 -1.37225 0
M  V30 1229 C 112.426 1.94979 0.0284857 0
M  V30 1230 O 111.696 1.69555 0.981213 0
M  V30 1231 H 110.276 0.55043 -0.505011 0
M  V30 1232 H 112.938 0.862468 -1.74778 0
M  V30 1233 H 112.034 2.36198 -2.04003 0
M  V30 1234 N 112.336 1.25143 0.95797 0
M  V30 1235 C 113.566 1.12261 1.73439 0
M  V30 1236 C 113.974 -0.326715 1.86358 0
M  V30 1237 O 113.317 -1.2367 1.35836 0
M  V30 1238 C 113.379 1.69966 3.16784 0
M  V30 1239 C 113.043 3.18936 3.27305 0
M  V30 1240 C 114.04 4.15968 3.11877 0
M  V30 1241 C 111.725 3.59083 3.51234 0
M  V30 1242 C 113.719 5.51126 3.20217 0
M  V30 1243 C 111.406 4.9438 3.5921 0
M  V30 1244 C 112.404 5.90211 3.43716 0
M  V30 1245 O 112.092 7.23046 3.51368 0
M  V30 1246 H 111.824 0.392476 0.550399 0
M  V30 1247 H 114.378 1.65927 1.21068 0
M  V30 1248 H 112.608 1.10744 3.70503 0
M  V30 1249 H 114.297 1.52232 3.76272 0
M  V30 1250 H 115.063 3.86292 2.93264 0
M  V30 1251 H 110.942 2.84989 3.62356 0
M  V30 1252 H 114.486 6.25905 3.0804 0
M  V30 1253 H 110.383 5.23723 3.77339 0
M  V30 1254 H 111.151 7.31097 3.6802 0
M  V30 1255 N 113.814 -1.1601 1.06675 0
M  V30 1256 C 115.225 -1.68235 0.809565 0
M  V30 1257 C 115.576 -1.8454 -0.666303 0
M  V30 1258 O 114.701 -1.54374 -1.5165 0
M  V30 1259 C 115.296 -3.05585 1.46299 0
M  V30 1260 C 113.855 -3.54915 1.25349 0
M  V30 1261 C 113.002 -2.30804 1.53703 0
M  V30 1262 H 115.953 -1.00318 1.22971 0
M  V30 1263 H 115.974 -3.70174 0.880431 0
M  V30 1264 H 115.486 -2.93686 2.53713 0
M  V30 1265 H 113.587 -3.72067 0.199261 0
M  V30 1266 H 113.7 -4.36774 1.9689 0
M  V30 1267 H 112.064 -2.36007 0.957739 0
M  V30 1268 H 112.847 -2.21499 2.62284 0
M  V30 1269 N 115.292 -0.849877 -1.32721 0
M  V30 1270 C 116.222 -0.306308 -2.31482 0
M  V30 1271 C 117.203 0.591952 -1.59468 0
M  V30 1272 O 118.388 0.513199 -1.87296 0
M  V30 1273 C 115.518 0.510204 -3.43532 0
M  V30 1274 C 114.472 -0.293209 -4.26994 0
M  V30 1275 C 113.798 0.647743 -5.30762 0
M  V30 1276 C 115.098 -1.51634 -4.99804 0
M  V30 1277 H 116.792 -1.13153 -2.77195 0
M  V30 1278 H 114.338 -0.545553 -1.33266 0
M  V30 1279 H 116.291 0.900856 -4.11658 0
M  V30 1280 H 115.015 1.36874 -2.96535 0
M  V30 1281 H 113.674 -0.665555 -3.60508 0
M  V30 1282 H 113.322 1.50299 -4.8002 0
M  V30 1283 H 113.022 0.11422 -5.87489 0
M  V30 1284 H 114.546 1.03567 -6.01753 0
M  V30 1285 H 115.96 -1.19824 -5.60638 0
M  V30 1286 H 114.357 -1.98745 -5.66234 0
M  V30 1287 H 115.427 -2.28018 -4.27943 0
M  V30 1288 N 116.77 1.45427 -0.607355 0
M  V30 1289 C 117.72 2.27612 0.133038 0
M  V30 1290 C 118.704 1.37307 0.838785 0
M  V30 1291 O 119.896 1.61299 0.728813 0
M  V30 1292 C 117.025 3.24173 1.12991 0
M  V30 1293 C 116.111 4.21965 0.425011 0
M  V30 1294 N 116.502 5.02982 -0.533217 0
M  V30 1295 C 114.8 4.40899 0.672593 0
M  V30 1296 C 115.501 5.73931 -0.947518 0
M  V30 1297 N 114.477 5.42819 -0.291321 0
M  V30 1298 H 118.279 2.87649 -0.602935 0
M  V30 1299 H 115.793 1.56576 -0.431006 0
M  V30 1300 H 117.79 3.81783 1.67473 0
M  V30 1301 H 116.45 2.65696 1.86644 0
M  V30 1302 H 117.461 5.09843 -0.90995 0
M  V30 1303 H 114.138 3.93547 1.39382 0
M  V30 1304 H 115.528 6.49037 -1.73782 0
M  V30 1305 N 118.248 0.346503 1.53744 0
M  V30 1306 C 119.478 -0.250047 2.05081 0
M  V30 1307 C 119.886 -1.44529 1.22098 0
M  V30 1308 O 119.229 -1.81992 0.249917 0
M  V30 1309 C 119.291 -0.725934 3.52094 0
M  V30 1310 C 118.955 0.350053 4.55657 0
M  V30 1311 C 119.952 1.19372 5.0601 0
M  V30 1312 C 117.637 0.504827 4.99757 0
M  V30 1313 C 119.631 2.17768 5.99046 0
M  V30 1314 C 117.318 1.49218 5.92602 0
M  V30 1315 C 118.316 2.32706 6.42135 0
M  V30 1316 O 118.004 3.2976 7.33153 0
M  V30 1317 H 117.736 -0.0515469 0.674032 0
M  V30 1318 H 120.29 0.497559 1.99282 0
M  V30 1319 H 118.52 -1.52483 3.55367 0
M  V30 1320 H 120.209 -1.24336 3.86388 0
M  V30 1321 H 120.975 1.08525 4.72702 0
M  V30 1322 H 116.854 -0.135178 4.60802 0
M  V30 1323 H 120.398 2.82971 6.37631 0
M  V30 1324 H 116.295 1.6012 6.25325 0
M  V30 1325 H 117.063 3.25265 7.51096 0
M  V30 1326 N 119.726 -1.57421 0.075193 0
M  V30 1327 C 120.975 -1.92794 -0.592731 0
M  V30 1328 C 121.288 -0.957478 -1.70563 0
M  V30 1329 O 122.494 -1.20417 -2.43335 0
M  V30 1330 C 120.95 -3.42495 -1.10569 0
M  V30 1331 C 120.558 -4.47994 -0.0236121 0
M  V30 1332 C 122.302 -3.86864 -1.74748 0
M  V30 1333 C 120.209 -5.88829 -0.550803 0
M  V30 1334 H 119.139 -0.719591 -0.225177 0
M  V30 1335 H 121.79 -1.82902 0.147978 0
M  V30 1336 H 120.172 -3.47471 -1.89947 0
M  V30 1337 H 121.346 -4.54637 0.751099 0
M  V30 1338 H 119.661 -4.13113 0.522159 0
M  V30 1339 H 122.258 -4.8947 -2.15229 0
M  V30 1340 H 122.601 -3.24417 -2.60882 0
M  V30 1341 H 123.134 -3.84504 -1.01986 0
M  V30 1342 H 119.873 -6.54929 0.273457 0
M  V30 1343 H 119.393 -5.85698 -1.29296 0
M  V30 1344 H 121.072 -6.38811 -1.02613 0
M  V30 1345 N 121.204 0.198386 -1.56346 0
M  V30 1346 C 122.134 1.24865 -1.9731 0
M  V30 1347 C 123.115 1.47651 -0.844576 0
M  V30 1348 O 124.3 1.59444 -1.10866 0
M  V30 1349 C 121.43 2.59358 -2.30977 0
M  V30 1350 C 120.384 2.5119 -3.46537 0
M  V30 1351 C 119.71 3.89926 -3.65871 0
M  V30 1352 C 121.01 2.03977 -4.80823 0
M  V30 1353 H 122.704 0.908252 -2.85291 0
M  V30 1354 H 120.25 0.435462 -1.37258 0
M  V30 1355 H 122.203 3.33011 -2.58228 0
M  V30 1356 H 120.927 2.95132 -1.39874 0
M  V30 1357 H 119.586 1.79993 -3.19371 0
M  V30 1358 H 119.234 4.23046 -2.72105 0
M  V30 1359 H 118.934 3.85336 -4.4361 0
M  V30 1360 H 120.458 4.65205 -3.95495 0
M  V30 1361 H 121.872 2.67386 -5.07127 0
M  V30 1362 H 120.269 2.10397 -5.62008 0
M  V30 1363 H 121.339 0.992861 -4.74626 0
M  V30 1364 N 122.682 1.50554 0.465978 0
M  V30 1365 C 123.93 1.61479 1.21528 0
M  V30 1366 C 124.251 0.319596 1.92363 0
M  V30 1367 O 123.521 -0.663194 1.84333 0
M  V30 1368 H 122.101 0.595055 0.451573 0
M  V30 1369 H 124.763 1.87355 0.53704 0
M  V30 1370 H 123.859 2.42846 1.96042 0
M  V30 1371 N 124.16 -0.719506 1.40217 0
M  V30 1372 C 125.07 -1.86378 1.42479 0
M  V30 1373 C 126.086 -1.71073 0.317834 0
M  V30 1374 O 127.262 -1.93406 0.561794 0
M  V30 1375 C 124.327 -3.22136 1.28178 0
M  V30 1376 C 123.388 -3.49723 2.48982 0
M  V30 1377 C 122.621 -4.79004 2.35353 0
M  V30 1378 O 122.844 -5.53821 1.36524 0
M  V30 1379 O 121.778 -5.06839 3.2465 0
M  V30 1380 H 125.604 -1.87425 2.38968 0
M  V30 1381 H 123.189 -0.869405 1.21498 0
M  V30 1382 H 125.071 -4.03234 1.22395 0
M  V30 1383 H 123.746 -3.21825 0.347934 0
M  V30 1384 H 122.653 -2.6865 2.60342 0
M  V30 1385 H 123.986 -3.54828 3.41113 0
M  V30 1386 N 125.638 -1.25649 -0.95132 0
M  V30 1387 C 126.585 -1.06323 -2.04851 0
M  V30 1388 C 127.555 0.0286491 -1.66075 0
M  V30 1389 O 128.74 -0.12917 -1.90362 0
M  V30 1390 C 125.88 -0.691529 -3.381 0
M  V30 1391 C 124.993 -1.85861 -3.89974 0
M  V30 1392 C 124.128 -1.43096 -5.11563 0
M  V30 1393 C 123.167 -2.56696 -5.55674 0
M  V30 1394 N 122.304 -2.14684 -6.68472 0
M  V30 1395 H 127.144 -2.00222 -2.20715 0
M  V30 1396 H 124.681 -0.997027 -1.08156 0
M  V30 1397 H 126.639 -0.456963 -4.1469 0
M  V30 1398 H 125.269 0.210474 -3.22113 0
M  V30 1399 H 124.321 -2.20639 -3.09875 0
M  V30 1400 H 125.633 -2.71161 -4.18657 0
M  V30 1401 H 124.787 -1.15624 -5.9558 0
M  V30 1402 H 123.526 -0.548722 -4.84603 0
M  V30 1403 H 122.531 -2.84909 -4.7022 0
M  V30 1404 H 123.756 -3.45503 -5.8464 0
M  V30 1405 H 121.702 -1.28881 -6.43215 0
M  V30 1406 H 121.619 -2.9353 -6.96689 0
M  V30 1407 H 122.887 -1.90397 -7.5589 0
M  V30 1408 N 127.117 1.15442 -1.07289 0
M  V30 1409 C 128.027 2.23786 -0.704057 0
M  V30 1410 C 129.043 1.7166 0.284413 0
M  V30 1411 O 130.219 2.00972 0.131205 0
M  V30 1412 C 127.284 3.46535 -0.106792 0
M  V30 1413 C 126.345 4.13654 -1.14842 0
M  V30 1414 C 125.578 5.30544 -0.57956 0
M  V30 1415 O 125.801 5.67187 0.604585 0
M  V30 1416 O 124.735 5.87154 -1.32414 0
M  V30 1417 H 128.561 2.57664 -1.60757 0
M  V30 1418 H 126.146 1.23152 -0.845803 0
M  V30 1419 H 128.028 4.20804 0.224048 0
M  V30 1420 H 126.703 3.14407 0.770049 0
M  V30 1421 H 125.61 3.4131 -1.5316 0
M  V30 1422 H 126.943 4.49861 -1.99714 0
M  V30 1423 N 128.595 0.856903 1.32268 0
M  V30 1424 C 129.842 0.461386 1.97174 0
M  V30 1425 C 130.17 -0.983491 1.67803 0
M  V30 1426 O 129.425 -1.70541 0.959903 0
M  V30 1427 C 129.724 0.649919 3.51441 0
M  V30 1428 C 129.39 2.0656 4.00804 0
M  V30 1429 C 128.052 2.45279 4.13995 0
M  V30 1430 C 130.404 2.98947 4.26943 0
M  V30 1431 C 127.732 3.75653 4.50668 0
M  V30 1432 C 130.084 4.28822 4.65075 0
M  V30 1433 C 128.748 4.67472 4.76472 0
M  V30 1434 H 128.018 0.168833 0.72151 0
M  V30 1435 H 130.665 1.08739 1.57633 0
M  V30 1436 H 128.97 -0.0593018 3.91755 0
M  V30 1437 H 130.667 0.32391 3.9969 0
M  V30 1438 H 127.257 1.75495 3.91024 0
M  V30 1439 H 131.441 2.70265 4.16258 0
M  V30 1440 H 126.697 4.05379 4.57688 0
M  V30 1441 H 130.871 5.0047 4.84255 0
M  V30 1442 H 128.498 5.68539 5.04646 0
M  V30 1443 N 130.073 -1.45103 0.615059 0
M  V30 1444 C 131.006 -2.27717 -0.148408 0
M  V30 1445 C 131.984 -1.37584 -0.866572 0
M  V30 1446 O 133.168 -1.67017 -0.87393 0
M  V30 1447 C 130.295 -3.16136 -1.21557 0
M  V30 1448 C 129.341 -4.22263 -0.599712 0
M  V30 1449 S 130.174 -5.3215 0.598081 0
M  V30 1450 C 131.33 -6.24137 -0.469484 0
M  V30 1451 H 131.563 -2.92121 0.552483 0
M  V30 1452 H 129.096 -1.49054 0.402778 0
M  V30 1453 H 131.054 -3.67633 -1.82638 0
M  V30 1454 H 129.715 -2.50982 -1.88857 0
M  V30 1455 H 128.908 -4.84081 -1.4029 0
M  V30 1456 H 128.51 -3.73945 -0.063876 0
M  V30 1457 H 130.802 -6.63984 -1.34652 0
M  V30 1458 H 131.745 -7.0801 0.112725 0
M  V30 1459 H 132.153 -5.58971 -0.788168 0
M  V30 1460 N 131.551 -0.354651 -1.53558 0
M  V30 1461 C 132.799 0.237972 -2.00694 0
M  V30 1462 C 133.12 1.50173 -1.24391 0
M  V30 1463 O 132.39 1.92673 -0.354135 0
M  V30 1464 H 130.97 0.0909256 -0.741446 0
M  V30 1465 H 133.632 -0.478368 -1.88938 0
M  V30 1466 H 132.728 0.47264 -3.085 0
M  V30 1467 N 133.029 1.57378 -0.0835403 0
M  V30 1468 C 133.959 2.1641 0.87686 0
M  V30 1469 C 134.94 1.09429 1.30228 0
M  V30 1470 O 136.125 1.37516 1.37124 0
M  V30 1471 C 133.255 2.73517 2.14022 0
M  V30 1472 C 132.209 3.85769 1.85381 0
M  V30 1473 C 131.535 4.29529 3.18448 0
M  V30 1474 C 132.835 5.09486 1.14984 0
M  V30 1475 H 134.529 2.96914 0.385059 0
M  V30 1476 H 132.075 1.42823 0.18377 0
M  V30 1477 H 134.028 3.13463 2.81636 0
M  V30 1478 H 132.752 1.90252 2.65465 0
M  V30 1479 H 131.411 3.46345 1.20169 0
M  V30 1480 H 131.059 3.43169 3.67755 0
M  V30 1481 H 130.759 5.05204 3.00071 0
M  V30 1482 H 132.283 4.72099 3.8724 0
M  V30 1483 H 133.697 5.46674 1.72687 0
M  V30 1484 H 132.094 5.90515 1.06826 0
M  V30 1485 H 133.164 4.84724 0.130749 0
M  V30 1486 N 134.507 -0.190092 1.56449 0
M  V30 1487 C 135.732 -0.929864 1.85387 0
M  V30 1488 C 136.157 -1.7585 0.667704 0
M  V30 1489 O 135.515 -1.77198 -0.383459 0
M  V30 1490 C 135.563 -1.79773 3.12593 0
M  V30 1491 O 134.667 -2.89713 2.93496 0
M  V30 1492 H 134.008 -0.261574 0.610307 0
M  V30 1493 H 136.538 -0.193896 2.03679 0
M  V30 1494 H 136.548 -2.20139 3.43515 0
M  V30 1495 H 135.223 -1.18892 3.98544 0
M  V30 1496 H 133.8 -2.53065 2.73884 0
M  V30 1497 N 135.985 -1.50799 -0.457987 0
M  V30 1498 C 137.232 -1.62442 -1.20908 0
M  V30 1499 C 137.56 -0.330865 -1.91665 0
M  V30 1500 O 136.815 0.68401 -1.83357 0
M  V30 1501 C 137.114 -2.76358 -2.2663 0
M  V30 1502 C 136.78 -4.16378 -1.73033 0
M  V30 1503 C 135.442 -4.54473 -1.58138 0
M  V30 1504 C 137.794 -5.03836 -1.33413 0
M  V30 1505 C 135.122 -5.77754 -1.02065 0
M  V30 1506 C 137.474 -6.27676 -0.78778 0
M  V30 1507 C 136.138 -6.64562 -0.625561 0
M  V30 1508 H 135.408 -0.594417 -0.442435 0
M  V30 1509 H 138.055 -1.84772 -0.503136 0
M  V30 1510 H 136.36 -2.48167 -3.03184 0
M  V30 1511 H 138.057 -2.82568 -2.84528 0
M  V30 1512 H 134.647 -3.86331 -1.85598 0
M  V30 1513 H 138.831 -4.75026 -1.4375 0
M  V30 1514 H 134.087 -6.04997 -0.882547 0
M  V30 1515 H 138.261 -6.94797 -0.472177 0
M  V30 1516 H 135.888 -7.59965 -0.188926 0
M  V30 1517 N 137.463 0.71206 -1.40597 0
M  V30 1518 C 138.393 1.83889 -1.43899 0
M  V30 1519 C 139.374 1.67442 -0.299504 0
M  V30 1520 O 140.559 1.87421 -0.508624 0
M  V30 1521 C 137.689 3.21877 -1.30431 0
M  V30 1522 C 136.643 3.53002 -2.42019 0
M  V30 1523 C 135.969 4.90172 -2.13626 0
M  V30 1524 C 137.269 3.53643 -3.84362 0
M  V30 1525 H 138.963 1.81383 -2.38203 0
M  V30 1526 H 136.509 0.871237 -1.14654 0
M  V30 1527 H 138.462 4.00404 -1.31357 0
M  V30 1528 H 137.186 3.24968 -0.326049 0
M  V30 1529 H 135.845 2.76818 -2.40349 0
M  V30 1530 H 135.493 4.89869 -1.14182 0
M  V30 1531 H 135.193 5.11962 -2.88389 0
M  V30 1532 H 136.717 5.71028 -2.1624 0
M  V30 1533 H 138.131 4.22203 -3.87837 0
M  V30 1534 H 136.528 3.86961 -4.58673 0
M  V30 1535 H 137.598 2.52954 -4.13693 0
M  V30 1536 N 138.941 1.26152 0.944643 0
M  V30 1537 C 140.187 1.11657 1.69294 0
M  V30 1538 C 140.52 -0.339926 1.91202 0
M  V30 1539 O 139.795 -1.24994 1.49019 0
M  V30 1540 C 140.078 1.88236 3.06984 0
M  V30 1541 C 139.931 3.41772 2.92424 0
M  V30 1542 C 141.25 1.67343 4.07043 0
M  V30 1543 H 138.369 0.407004 0.614424 0
M  V30 1544 H 141.011 1.55106 1.09737 0
M  V30 1545 H 139.161 1.51308 3.57824 0
M  V30 1546 H 140.833 3.88433 2.48832 0
M  V30 1547 H 139.076 3.68974 2.28124 0
M  V30 1548 H 139.747 3.90579 3.90067 0
M  V30 1549 H 142.223 1.99509 3.65151 0
M  V30 1550 H 141.099 2.23346 5.01406 0
M  V30 1551 H 141.36 0.617158 4.37771 0
M  V30 1552 N 140.419 -1.14872 1.07899 0
M  V30 1553 C 141.329 -2.2341 0.715915 0
M  V30 1554 C 142.345 -1.71808 -0.275306 0
M  V30 1555 O 143.521 -2.01039 -0.120545 0
M  V30 1556 C 140.586 -3.46474 0.125168 0
M  V30 1557 C 139.647 -4.13039 1.17034 0
M  V30 1558 C 138.88 -5.30229 0.607688 0
M  V30 1559 O 139.103 -5.675 -0.574497 0
M  V30 1560 O 138.037 -5.86444 1.35526 0
M  V30 1561 H 141.863 -2.56808 1.62121 0
M  V30 1562 H 139.448 -1.22702 0.852322 0
M  V30 1563 H 141.33 -4.20917 -0.201729 0
M  V30 1564 H 140.005 -3.14811 -0.753364 0
M  V30 1565 H 138.912 -3.40493 1.54968 0
M  V30 1566 H 140.245 -4.48796 2.02097 0
M  V30 1567 N 141.898 -0.863906 -1.31812 0
M  V30 1568 C 142.808 -0.318461 -2.32428 0
M  V30 1569 C 143.824 0.568496 -1.64451 0
M  V30 1570 O 145 0.46666 -1.95919 0
M  V30 1571 C 142.065 0.476355 -3.43412 0
M  V30 1572 C 141.126 -0.43784 -4.27061 0
M  V30 1573 C 140.359 0.319138 -5.32745 0
M  V30 1574 O 140.582 1.54799 -5.48993 0
M  V30 1575 O 139.516 -0.319861 -6.01049 0
M  V30 1576 H 143.342 -1.15229 -2.80991 0
M  V30 1577 H 140.927 -0.627103 -1.35602 0
M  V30 1578 H 142.809 0.927156 -4.11074 0
M  V30 1579 H 141.484 1.28683 -2.97022 0
M  V30 1580 H 140.391 -0.937013 -3.62175 0
M  V30 1581 H 141.724 -1.21375 -4.77 0
M  V30 1582 N 143.376 1.44774 -0.622745 0
M  V30 1583 C 144.624 2.01721 -0.123655 0
M  V30 1584 C 144.945 1.49172 1.25589 0
M  V30 1585 O 144.215 0.691974 1.83272 0
M  V30 1586 H 142.795 0.745777 -0.0427225 0
M  V30 1587 H 145.457 1.77382 -0.807559 0
M  V30 1588 H 144.553 3.11984 -0.0849534 0
M  V30 1589 N 144.854 0.36279 1.53368 0
M  V30 1590 C 146.1 -0.228113 2.01513 0
M  V30 1591 C 146.433 -1.48648 1.2497 0
M  V30 1592 O 145.708 -1.91459 0.342616 0
M  V30 1593 C 145.991 -0.522884 3.56284 0
M  V30 1594 C 145.844 0.74892 4.43521 0
M  V30 1595 C 147.163 -1.32461 4.19693 0
M  V30 1596 H 144.282 -0.0814343 0.732487 0
M  V30 1597 H 146.924 0.48713 1.83649 0
M  V30 1598 H 145.074 -1.1322 3.71636 0
M  V30 1599 H 146.746 1.38648 4.39971 0
M  V30 1600 H 144.989 1.36986 4.11603 0
M  V30 1601 H 145.66 0.497667 5.49752 0
M  V30 1602 H 148.136 -0.809203 4.08156 0
M  V30 1603 H 147.012 -1.49961 5.28018 0
M  V30 1604 H 147.273 -2.33232 3.75573 0
M  V30 1605 N 146.332 -1.57332 0.0918853 0
M  V30 1606 C 147.579 -1.94236 -0.572577 0
M  V30 1607 C 147.907 -0.973398 -1.6839 0
M  V30 1608 O 147.162 0.00756912 -1.95699 0
M  V30 1609 C 147.461 -3.37689 -1.17051 0
M  V30 1610 C 147.127 -4.50527 -0.183304 0
M  V30 1611 C 145.789 -4.81119 0.0882276 0
M  V30 1612 C 148.141 -5.18883 0.49095 0
M  V30 1613 C 145.469 -5.77395 1.04076 0
M  V30 1614 C 147.821 -6.1618 1.43193 0
M  V30 1615 C 146.485 -6.45179 1.71173 0
M  V30 1616 H 145.755 -0.710762 -0.209521 0
M  V30 1617 H 148.402 -1.9077 0.167036 0
M  V30 1618 H 146.707 -3.37718 -1.9863 0
M  V30 1619 H 148.404 -3.63543 -1.69227 0
M  V30 1620 H 144.994 -4.26681 -0.405124 0
M  V30 1621 H 149.178 -4.95427 0.294312 0
M  V30 1622 H 144.434 -5.98179 1.26457 0
M  V30 1623 H 148.608 -6.68243 1.96023 0
M  V30 1624 H 146.235 -7.1959 2.4514 0
M  V30 1625 N 147.81 0.181792 -1.56548 0
M  V30 1626 C 149.056 0.901431 -1.81665 0
M  V30 1627 C 149.389 1.82347 -0.668075 0
M  V30 1628 O 148.664 1.91669 0.330615 0
M  V30 1629 C 148.947 1.70618 -3.17115 0
M  V30 1630 C 148.8 0.807964 -4.42484 0
M  V30 1631 C 150.119 2.67605 -3.49393 0
M  V30 1632 H 147.238 0.32627 -0.660846 0
M  V30 1633 H 149.88 0.168134 -1.89255 0
M  V30 1634 H 148.03 2.33133 -3.10775 0
M  V30 1635 H 149.702 0.19649 -4.60881 0
M  V30 1636 H 147.945 0.115411 -4.33646 0
M  V30 1637 H 148.616 1.40632 -5.33785 0
M  V30 1638 H 151.092 2.15218 -3.56118 0
M  V30 1639 H 149.968 3.20985 -4.45264 0
M  V30 1640 H 150.229 3.47298 -2.73563 0
M  V30 1641 N 149.288 1.51039 0.449983 0
M  V30 1642 C 150.699 1.557 1.03026 0
M  V30 1643 C 151.05 0.372939 1.92623 0
M  V30 1644 O 150.175 -0.511771 2.10261 0
M  V30 1645 C 150.77 2.82171 1.87523 0
M  V30 1646 C 149.329 2.89444 2.40622 0
M  V30 1647 C 148.476 2.50228 1.19504 0
M  V30 1648 H 151.427 1.56999 0.231745 0
M  V30 1649 H 151.448 2.65219 2.72835 0
M  V30 1650 H 150.96 3.68331 1.22286 0
M  V30 1651 H 149.061 2.07685 3.0935 0
M  V30 1652 H 149.174 3.92816 2.74285 0
M  V30 1653 H 147.538 2.03139 1.53644 0
M  V30 1654 H 148.321 3.38719 0.558972 0
M  V30 1655 N 150.766 -0.704594 1.40972 0
M  V30 1656 C 152.182 -1.01406 1.23244 0
M  V30 1657 C 152.382 -2.01169 0.115399 0
M  V30 1658 O 151.438 -2.47021 -0.523147 0
M  V30 1659 C 152.751 -1.54728 2.57836 0
M  V30 1660 C 154.299 -1.66658 2.64942 0
M  V30 1661 C 154.774 -2.23383 3.9983 0
M  V30 1662 N 156.265 -2.30756 4.01629 0
M  V30 1663 C 157 -2.75655 5.02794 0
M  V30 1664 N 156.496 -3.20225 6.14352 0
M  V30 1665 N 158.289 -2.75138 4.90159 0
M  V30 1666 H 150.44 -0.0435285 2.12355 0
M  V30 1667 H 152.703 -0.0818951 0.944456 0
M  V30 1668 H 152.409 -0.888832 3.40283 0
M  V30 1669 H 152.283 -2.53084 2.79693 0
M  V30 1670 H 154.67 -2.31617 1.8286 0
M  V30 1671 H 154.751 -0.668717 2.46904 0
M  V30 1672 H 154.395 -1.59043 4.82357 0
M  V30 1673 H 154.325 -3.23904 4.15203 0
M  V30 1674 H 156.816 -1.99291 3.21079 0
M  V30 1675 H 157.129 -3.53084 6.87424 0
M  V30 1676 H 155.474 -3.18156 6.17901 0
M  V30 1677 H 158.665 -2.39661 4.02095 0
M  V30 1678 H 158.838 -3.09812 5.6914 0
M  V30 1679 N 152.244 -1.26651 -0.937939 0
M  V30 1680 C 153.655 -1.1125 -1.49934 0
M  V30 1681 C 154.006 0.306077 -1.93798 0
M  V30 1682 O 153.131 1.19792 -1.80219 0
M  V30 1683 C 153.726 -2.01339 -2.72485 0
M  V30 1684 C 152.285 -1.90074 -3.24883 0
M  V30 1685 C 151.432 -1.94498 -1.97651 0
M  V30 1686 H 154.383 -1.39693 -0.753091 0
M  V30 1687 H 154.404 -1.56319 -3.46907 0
M  V30 1688 H 153.916 -3.04577 -2.40529 0
M  V30 1689 H 152.017 -0.897827 -3.61621 0
M  V30 1690 H 152.13 -2.75778 -3.9177 0
M  V30 1691 H 150.494 -1.38591 -2.13693 0
M  V30 1692 H 151.277 -2.99372 -1.68022 0
M  V30 1693 N 153.722 1.14298 -1.08507 0
M  V30 1694 C 154.632 2.23027 -0.727753 0
M  V30 1695 C 155.648 1.71952 0.26619 0
M  V30 1696 O 156.824 2.011 0.109882 0
M  V30 1697 C 153.889 3.46403 -0.143541 0
M  V30 1698 C 152.95 4.12413 -1.19223 0
M  V30 1699 C 152.183 5.29899 -0.635798 0
M  V30 1700 O 152.406 5.67796 0.544393 0
M  V30 1701 O 151.34 5.85717 -1.38634 0
M  V30 1702 H 155.166 2.55945 -1.63481 0
M  V30 1703 H 152.751 1.22248 -0.858817 0
M  V30 1704 H 154.633 4.21018 0.179404 0
M  V30 1705 H 153.308 3.15206 0.736659 0
M  V30 1706 H 152.215 3.39667 -1.56772 0
M  V30 1707 H 153.548 4.47718 -2.04474 0
M  V30 1708 N 155.201 0.870884 1.31352 0
M  V30 1709 C 156.429 0.49677 2.00848 0
M  V30 1710 C 156.844 -0.910998 1.65367 0
M  V30 1711 O 156.201 -1.59696 0.883374 0
M  V30 1712 C 156.252 0.645308 3.55694 0
M  V30 1713 O 155.973 1.99764 3.89905 0
M  V30 1714 C 157.474 0.272326 4.42463 0
M  V30 1715 H 154.694 0.193462 0.642506 0
M  V30 1716 H 157.238 1.1723 1.67563 0
M  V30 1717 H 155.393 0.0173176 3.87396 0
M  V30 1718 H 155.807 2.00607 4.84621 0
M  V30 1719 H 157.281 0.427208 5.50344 0
M  V30 1720 H 157.758 -0.788587 4.32062 0
M  V30 1721 H 158.364 0.876054 4.1618 0
M  V30 1722 N 156.679 -1.44442 0.630414 0
M  V30 1723 C 157.589 -2.34476 -0.0761693 0
M  V30 1724 C 158.605 -1.52576 -0.836449 0
M  V30 1725 O 159.781 -1.85307 -0.788874 0
M  V30 1726 C 156.846 -3.30545 -1.04599 0
M  V30 1727 C 155.907 -4.28352 -0.28516 0
M  V30 1728 C 155.14 -5.19831 -1.20878 0
M  V30 1729 O 155.363 -5.15223 -2.44747 0
M  V30 1730 O 154.297 -5.97892 -0.693491 0
M  V30 1731 H 158.123 -2.96345 0.664324 0
M  V30 1732 H 155.708 -1.44203 0.39061 0
M  V30 1733 H 157.59 -3.89681 -1.60396 0
M  V30 1734 H 156.265 -2.7121 -1.76711 0
M  V30 1735 H 155.172 -3.72764 0.315837 0
M  V30 1736 H 156.505 -4.90605 0.395924 0
M  V30 1737 N 158.157 -0.370918 -1.53173 0
M  V30 1738 C 159.067 0.480823 -2.2962 0
M  V30 1739 C 160.083 1.08789 -1.35798 0
M  V30 1740 O 161.259 1.09768 -1.68858 0
M  V30 1741 C 158.324 1.60227 -3.07454 0
M  V30 1742 C 157.385 1.0222 -4.16953 0
M  V30 1743 C 156.618 2.0902 -4.91066 0
M  V30 1744 O 156.841 3.30222 -4.65091 0
M  V30 1745 O 155.775 1.71778 -5.76867 0
M  V30 1746 H 159.601 -0.141421 -3.03371 0
M  V30 1747 H 157.186 -0.135146 -1.48787 0
M  V30 1748 H 159.068 2.25417 -3.56041 0
M  V30 1749 H 157.743 2.20982 -2.36535 0
M  V30 1750 H 156.65 0.334064 -3.72605 0
M  V30 1751 H 157.983 0.459131 -4.90054 0
M  V30 1752 N 159.635 1.57281 -0.100228 0
M  V30 1753 C 160.565 2.17328 0.853857 0
M  V30 1754 C 161.546 1.10804 1.2906 0
M  V30 1755 O 162.731 1.38963 1.35657 0
M  V30 1756 C 159.861 2.75772 2.11109 0
M  V30 1757 C 158.815 3.87713 1.81279 0
M  V30 1758 C 158.141 4.32882 3.13874 0
M  V30 1759 C 159.441 5.10677 1.09574 0
M  V30 1760 H 161.135 2.97305 0.353545 0
M  V30 1761 H 158.681 1.43009 0.168612 0
M  V30 1762 H 160.634 3.16433 2.78296 0
M  V30 1763 H 159.358 1.93057 2.63432 0
M  V30 1764 H 158.017 3.476 1.16489 0
M  V30 1765 H 157.665 3.47051 3.64095 0
M  V30 1766 H 157.365 5.08358 2.94696 0
M  V30 1767 H 158.889 4.7618 3.82211 0
M  V30 1768 H 160.303 5.48474 1.66879 0
M  V30 1769 H 158.7 5.91615 1.00557 0
M  V30 1770 H 159.77 4.84835 0.0793299 0
M  V30 1771 N 161.113 -0.173488 1.56642 0
M  V30 1772 C 162.359 -0.891784 1.8214 0
M  V30 1773 C 162.692 -1.8199 0.677736 0
M  V30 1774 O 161.967 -1.91842 -0.320446 0
M  V30 1775 C 162.25 -1.68933 3.18015 0
M  V30 1776 C 162.103 -0.784487 4.42906 0
M  V30 1777 C 163.422 -2.65748 3.50808 0
M  V30 1778 H 160.541 -0.322761 0.662567 0
M  V30 1779 H 163.183 -0.158095 1.89341 0
M  V30 1780 H 161.333 -2.31482 3.12007 0
M  V30 1781 H 163.005 -0.172046 4.60979 0
M  V30 1782 H 161.248 -0.0924117 4.33702 0
M  V30 1783 H 161.919 -1.37799 5.34524 0
M  V30 1784 H 164.395 -2.13327 3.57255 0
M  V30 1785 H 163.271 -3.18619 4.4696 0
M  V30 1786 H 163.532 -3.45842 2.75401 0
M  V30 1787 N 162.591 -1.51276 -0.441967 0
M  V30 1788 C 163.501 -1.75092 -1.56141 0
M  V30 1789 C 164.517 -0.634963 -1.62001 0
M  V30 1790 O 165.693 -0.916686 -1.79329 0
M  V30 1791 C 162.758 -1.86666 -2.92158 0
M  V30 1792 C 161.819 -3.10506 -2.96453 0
M  V30 1793 C 161.052 -3.21519 -4.25982 0
M  V30 1794 O 161.275 -2.38586 -5.18105 0
M  V30 1795 O 160.209 -4.14465 -4.36466 0
M  V30 1796 H 164.035 -2.70044 -1.38961 0
M  V30 1797 H 161.62 -1.35722 -0.624499 0
M  V30 1798 H 163.502 -1.96292 -3.72891 0
M  V30 1799 H 162.177 -0.949014 -3.09476 0
M  V30 1800 H 161.084 -3.06363 -2.14692 0
M  V30 1801 H 162.417 -4.01945 -2.84079 0
M  V30 1802 N 164.069 0.697108 -1.41344 0
M  V30 1803 C 164.999 1.82353 -1.45841 0
M  V30 1804 C 165.98 1.67115 -0.317247 0
M  V30 1805 O 167.165 1.86871 -0.528474 0
M  V30 1806 C 164.295 3.20476 -1.33838 0
M  V30 1807 C 163.249 3.50415 -2.4575 0
M  V30 1808 C 162.575 4.87878 -2.18813 0
M  V30 1809 C 163.875 3.49546 -3.88091 0
M  V30 1810 H 165.569 1.78846 -2.40113 0
M  V30 1811 H 163.115 0.859028 -1.15571 0
M  V30 1812 H 165.068 3.98988 -1.35596 0
M  V30 1813 H 163.792 3.24604 -0.360498 0
M  V30 1814 H 162.451 2.74253 -2.43271 0
M  V30 1815 H 162.099 4.8863 -1.19371 0
M  V30 1816 H 161.799 5.08875 -2.93803 0
M  V30 1817 H 163.323 5.68702 -2.22284 0
M  V30 1818 H 164.737 4.18066 -3.92293 0
M  V30 1819 H 163.134 3.82075 -4.62751 0
M  V30 1820 H 164.204 2.48552 -4.16353 0
M  V30 1821 N 165.547 1.27147 0.931209 0
M  V30 1822 C 166.51 1.09615 2.01289 0
M  V30 1823 C 167.51 0.0412581 1.60747 0
M  V30 1824 O 168.7 0.285545 1.71844 0
M  V30 1825 C 165.832 0.669447 3.34262 0
M  V30 1826 H 167.025 2.05662 2.18273 0
M  V30 1827 H 164.578 1.09885 1.11153 0
M  V30 1828 H 165.313 -0.292572 3.22978 0
M  V30 1829 H 165.098 1.43127 3.65044 0
M  V30 1830 H 166.588 0.568921 4.13706 0
M  V30 1831 N 167.025 -1.13721 1.09112 0
M  V30 1832 C 167.955 -2.21148 0.749385 0
M  V30 1833 C 168.936 -1.6792 -0.271475 0
M  V30 1834 O 170.121 -1.93693 -0.140251 0
M  V30 1835 C 167.251 -3.46905 0.165659 0
M  V30 1836 C 166.205 -4.13203 1.11567 0
M  V30 1837 C 165.531 -5.33248 0.393809 0
M  V30 1838 C 166.831 -4.60912 2.45678 0
M  V30 1839 H 168.525 -2.4999 1.64758 0
M  V30 1840 H 166.071 -1.20156 0.793626 0
M  V30 1841 H 168.024 -4.21313 -0.085466 0
M  V30 1842 H 166.748 -3.17449 -0.767714 0
M  V30 1843 H 165.407 -3.40758 1.35202 0
M  V30 1844 H 165.055 -5.00054 -0.543599 0
M  V30 1845 H 164.755 -5.78552 1.02721 0
M  V30 1846 H 166.279 -6.10413 0.150908 0
M  V30 1847 H 167.693 -5.26759 2.26269 0
M  V30 1848 H 166.09 -5.16944 3.04776 0
M  V30 1849 H 167.16 -3.75603 3.06677 0
M  V30 1850 N 168.503 -0.877838 -1.30888 0
M  V30 1851 C 169.413 -0.343096 -2.32078 0
M  V30 1852 C 170.429 0.551022 -1.65045 0
M  V30 1853 O 171.605 0.445854 -1.96403 0
M  V30 1854 C 168.67 0.439905 -3.43898 0
M  V30 1855 C 167.731 -0.483111 -4.26573 0
M  V30 1856 C 166.964 0.262616 -5.33053 0
M  V30 1857 O 167.187 1.48967 -5.50604 0
M  V30 1858 O 166.121 -0.383593 -6.00676 0
M  V30 1859 H 169.947 -1.18203 -2.79753 0
M  V30 1860 H 167.532 -0.64145 -1.34929 0
M  V30 1861 H 169.414 0.883504 -4.12034 0
M  V30 1862 H 168.089 1.25526 -2.98371 0
M  V30 1863 H 166.996 -0.975374 -3.61161 0
M  V30 1864 H 168.329 -1.26427 -4.75686 0
M  V30 1865 N 169.982 1.44106 -0.638065 0
M  V30 1866 C 170.912 2.33448 0.0494287 0
M  V30 1867 C 171.893 1.48606 0.827672 0
M  V30 1868 O 173.078 1.77308 0.792173 0
M  V30 1869 C 170.208 3.31771 1.02691 0
M  V30 1870 C 169.162 4.26485 0.359823 0
M  V30 1871 C 168.488 5.14729 1.44769 0
M  V30 1872 C 169.788 5.17056 -0.738296 0
M  V30 1873 H 171.482 2.91183 -0.696636 0
M  V30 1874 H 169.028 1.40014 -0.336456 0
M  V30 1875 H 170.981 3.93161 1.51666 0
M  V30 1876 H 169.705 2.7226 1.80395 0
M  V30 1877 H 168.364 3.66437 -0.10934 0
M  V30 1878 H 168.012 4.51566 2.21578 0
M  V30 1879 H 167.712 5.78913 1.00668 0
M  V30 1880 H 169.236 5.78991 1.93911 0
M  V30 1881 H 170.65 5.72342 -0.331354 0
M  V30 1882 H 169.047 5.89879 -1.10286 0
M  V30 1883 H 170.117 4.57652 -1.60258 0
M  V30 1884 N 171.46 0.379036 1.52974 0
M  V30 1885 C 172.709 -0.207612 2.00629 0
M  V30 1886 C 173.022 -1.48758 1.27006 0
M  V30 1887 O 174.228 -2.15365 1.65318 0
M  V30 1888 C 172.684 -0.42053 3.57435 0
M  V30 1889 C 172.292 0.845587 4.39948 0
M  V30 1890 C 174.036 -0.964102 4.13407 0
M  V30 1891 C 171.943 0.601513 5.88333 0
M  V30 1892 H 170.873 -0.0813591 0.749598 0
M  V30 1893 H 173.524 0.499853 1.76561 0
M  V30 1894 H 171.906 -1.18959 3.7771 0
M  V30 1895 H 173.08 1.61848 4.31442 0
M  V30 1896 H 171.395 1.31336 3.95145 0
M  V30 1897 H 173.992 -1.16225 5.21916 0
M  V30 1898 H 174.335 -1.93019 3.68849 0
M  V30 1899 H 174.868 -0.25487 3.96983 0
M  V30 1900 H 171.607 1.53831 6.37194 0
M  V30 1901 H 171.127 -0.132628 5.99653 0
M  V30 1902 H 172.806 0.232134 6.46583 0
M  V30 1903 N 172.938 -1.57226 0.108567 0
M  V30 1904 C 174.354 -1.5766 -0.248058 0
M  V30 1905 C 174.554 -1.12063 -1.67464 0
M  V30 1906 O 173.61 -0.803236 -2.39383 0
M  V30 1907 C 174.923 -3.0069 -0.0242287 0
M  V30 1908 C 176.471 -3.12868 -0.0909372 0
M  V30 1909 C 176.946 -4.57879 0.105067 0
M  V30 1910 N 178.437 -4.63172 0.0506846 0
M  V30 1911 C 179.172 -5.73126 0.177396 0
M  V30 1912 N 178.668 -6.91866 0.359696 0
M  V30 1913 N 180.461 -5.61977 0.117709 0
M  V30 1914 H 172.612 -1.85169 1.04049 0
M  V30 1915 H 174.875 -0.85529 0.40888 0
M  V30 1916 H 174.581 -3.38299 0.961604 0
M  V30 1917 H 174.455 -3.6945 -0.76068 0
M  V30 1918 H 176.842 -2.75124 -1.06729 0
M  V30 1919 H 176.923 -2.46672 0.677225 0
M  V30 1920 H 176.567 -4.96321 1.07834 0
M  V30 1921 H 176.497 -5.22153 -0.682954 0
M  V30 1922 H 178.988 -3.778 -0.0871266 0
M  V30 1923 H 179.301 -7.71503 0.447529 0
M  V30 1924 H 177.646 -6.93874 0.395536 0
M  V30 1925 H 180.837 -4.68094 -0.0236741 0
M  V30 1926 H 181.01 -6.47627 0.219905 0
M  V30 1927 N 174.416 0.165178 -1.56732 0
M  V30 1928 C 175.363 1.2044 -1.96883 0
M  V30 1929 C 176.333 1.43664 -0.833657 0
M  V30 1930 O 177.518 1.56302 -1.09427 0
M  V30 1931 C 174.658 2.53727 -2.33916 0
M  V30 1932 C 173.771 2.3783 -3.6064 0
M  V30 1933 C 172.906 3.64026 -3.86857 0
M  V30 1934 C 171.945 3.43088 -5.06909 0
M  V30 1935 N 171.082 4.61369 -5.29229 0
M  V30 1936 H 175.922 0.854996 -2.85471 0
M  V30 1937 H 173.459 0.41076 -1.41249 0
M  V30 1938 H 175.417 3.31419 -2.53411 0
M  V30 1939 H 174.047 2.8665 -1.48431 0
M  V30 1940 H 173.099 1.51282 -3.49024 0
M  V30 1941 H 174.411 2.18308 -4.4849 0
M  V30 1942 H 173.565 4.50152 -4.06753 0
M  V30 1943 H 172.304 3.86533 -2.97394 0
M  V30 1944 H 171.309 2.55349 -4.86906 0
M  V30 1945 H 172.534 3.21997 -5.97909 0
M  V30 1946 H 170.48 4.84084 -4.42718 0
M  V30 1947 H 170.397 4.44783 -6.11313 0
M  V30 1948 H 171.665 5.48761 -5.53608 0
M  V30 1949 N 175.894 1.51508 0.433938 0
M  V30 1950 C 177.124 1.67914 1.20369 0
M  V30 1951 C 177.532 0.377461 1.85397 0
M  V30 1952 O 176.875 -0.654255 1.71654 0
M  V30 1953 C 176.937 2.74045 2.32679 0
M  V30 1954 C 176.601 4.16543 1.87991 0
M  V30 1955 C 177.598 5.01211 1.38145 0
M  V30 1956 C 175.283 4.6266 1.95579 0
M  V30 1957 C 177.277 6.30056 0.964774 0
M  V30 1958 C 174.964 5.91501 1.53523 0
M  V30 1959 C 175.962 6.75027 1.04055 0
M  V30 1960 O 175.65 8.01459 0.625964 0
M  V30 1961 H 175.382 0.566578 0.368735 0
M  V30 1962 H 177.936 1.98709 0.51999 0
M  V30 1963 H 176.166 2.38572 3.04336 0
M  V30 1964 H 177.855 2.79295 2.94532 0
M  V30 1965 H 178.621 4.66783 1.31675 0
M  V30 1966 H 174.5 3.97767 2.33029 0
M  V30 1967 H 178.044 6.95202 0.57796 0
M  V30 1968 H 173.941 6.25442 1.59665 0
M  V30 1969 H 174.709 8.15043 0.751509 0
M  V30 1970 N 177.372 -0.689602 1.41712 0
M  V30 1971 C 178.62 -1.4468 1.4111 0
M  V30 1972 C 178.941 -1.94986 0.0232196 0
M  V30 1973 O 178.211 -1.72097 -0.935913 0
M  V30 1974 H 176.791 -0.536847 0.519427 0
M  V30 1975 H 179.453 -0.815825 1.77004 0
M  V30 1976 H 178.549 -2.30706 2.10193 0
M  V30 1977 N 178.85 -1.27639 -0.924453 0
M  V30 1978 C 180.099 -1.13549 -1.66702 0
M  V30 1979 C 180.412 0.317487 -1.93006 0
M  V30 1980 O 181.618 0.579333 -2.65247 0
M  V30 1981 C 180.074 -1.98426 -3.00259 0
M  V30 1982 C 179.682 -3.484 -2.81641 0
M  V30 1983 C 181.426 -1.92993 -3.78092 0
M  V30 1984 C 179.333 -4.25464 -4.10773 0
M  V30 1985 H 178.263 -0.421351 -0.625283 0
M  V30 1986 H 180.914 -1.52085 -1.02676 0
M  V30 1987 H 179.296 -1.52736 -3.6536 0
M  V30 1988 H 180.47 -4.01973 -2.25287 0
M  V30 1989 H 178.785 -3.55245 -2.17232 0
M  V30 1990 H 181.382 -2.47844 -4.7379 0
M  V30 1991 H 181.725 -0.904281 -4.0636 0
M  V30 1992 H 182.258 -2.36595 -3.19793 0
M  V30 1993 H 178.997 -5.28566 -3.87683 0
M  V30 1994 H 178.517 -3.76667 -4.66779 0
M  V30 1995 H 180.196 -4.34812 -4.79111 0
M  V30 1996 N 180.328 1.1314 -1.09713 0
M  V30 1997 C 181.275 2.18642 -0.739196 0
M  V30 1998 C 182.245 1.63706 0.280978 0
M  V30 1999 O 183.43 1.90111 0.161946 0
M  V30 2000 C 180.57 3.44685 -0.169102 0
M  V30 2001 C 179.683 4.13711 -1.24367 0
M  V30 2002 C 178.818 5.27379 -0.636019 0
M  V30 2003 C 177.857 5.88259 -1.69169 0
M  V30 2004 N 176.994 6.93352 -1.10485 0
M  V30 2005 H 181.834 2.48607 -1.64312 0
M  V30 2006 H 179.371 1.22066 -0.820875 0
M  V30 2007 H 181.329 4.16815 0.179256 0
M  V30 2008 H 179.959 3.15161 0.698079 0
M  V30 2009 H 179.011 3.39835 -1.70927 0
M  V30 2010 H 180.323 4.55037 -2.04311 0
M  V30 2011 H 179.477 6.06238 -0.236677 0
M  V30 2012 H 178.216 4.8731 0.194928 0
M  V30 2013 H 177.221 5.08092 -2.10055 0
M  V30 2014 H 178.446 6.30399 -2.52536 0
M  V30 2015 H 176.392 6.55335 -0.295234 0
M  V30 2016 H 176.309 7.33236 -1.84121 0
M  V30 2017 H 177.577 7.76057 -0.73181 0
M  V30 2018 N 181.806 0.884767 1.30421 0
M  V30 2019 C 183.034 0.518044 2.0031 0
M  V30 2020 C 183.449 -0.893408 1.66324 0
M  V30 2021 O 182.806 -1.5875 0.900262 0
M  V30 2022 C 182.857 0.682997 3.54989 0
M  V30 2023 O 182.578 2.03888 3.87764 0
M  V30 2024 C 184.079 0.31924 4.42149 0
M  V30 2025 H 181.299 0.200265 0.640418 0
M  V30 2026 H 183.843 1.19001 1.6631 0
M  V30 2027 H 181.998 0.0584052 3.87356 0
M  V30 2028 H 182.412 2.05735 4.82466 0
M  V30 2029 H 183.886 0.485555 5.4986 0
M  V30 2030 H 184.363 -0.742717 4.32875 0
M  V30 2031 H 184.969 0.920147 4.15227 0
M  V30 2032 N 183.284 -1.43765 0.645699 0
M  V30 2033 C 184.53 -2.02197 0.156271 0
M  V30 2034 C 184.863 -1.50776 -1.22393 0
M  V30 2035 O 184.138 -0.697771 -1.81553 0
M  V30 2036 C 184.421 -3.59749 0.158872 0
M  V30 2037 C 184.274 -4.21419 1.57245 0
M  V30 2038 C 185.593 -4.37149 -0.50879 0
M  V30 2039 H 182.712 -0.734694 0.0582602 0
M  V30 2040 H 185.354 -1.71157 0.824951 0
M  V30 2041 H 183.504 -3.86325 -0.410525 0
M  V30 2042 H 185.176 -4.059 2.19186 0
M  V30 2043 H 183.419 -3.78356 2.122 0
M  V30 2044 H 184.09 -5.30482 1.52619 0
M  V30 2045 H 186.566 -4.16093 -0.024412 0
M  V30 2046 H 185.442 -5.4683 -0.476213 0
M  V30 2047 H 185.703 -4.12839 -1.58165 0
M  V30 2048 N 184.763 -0.387143 -1.52771 0
M  V30 2049 C 185.726 0.436939 -2.24997 0
M  V30 2050 C 186.726 0.991991 -1.26555 0
M  V30 2051 O 187.916 0.874335 -1.50669 0
M  V30 2052 C 185.048 1.61281 -3.00335 0
M  V30 2053 H 186.241 -0.195365 -2.99263 0
M  V30 2054 H 183.794 -0.139218 -1.55679 0
M  V30 2055 H 184.529 2.2826 -2.30364 0
M  V30 2056 H 184.314 1.22154 -3.72587 0
M  V30 2057 H 185.804 2.19629 -3.5518 0
M  V30 2058 N 186.241 1.57166 -0.116904 0
M  V30 2059 C 187.518 1.86645 0.585049 0
M  V30 2060 C 187.898 1.0177 1.84949 0
M  V30 2061 O 187.246 0.0960379 2.28298 0
M  V30 2062 C 187.456 3.37736 0.879507 0
M  V30 2063 C 188.804 4.06289 1.23348 0
M  V30 2064 O 189.828 3.42743 0.969836 0
M  V30 2065 O 188.687 5.18455 1.7282 0
M  V30 2066 H 185.781 0.772593 0.295007 0
M  V30 2067 H 188.327 1.69025 -0.151249 0
M  V30 2068 H 187.099 3.91296 -0.0166136 0
M  V30 2069 H 186.722 3.6078 1.67103 0
M  V30 2070 N 187.719 -0.156864 1.56817 0
M  V30 2071 C 188.968 -0.869504 1.81996 0
M  V30 2072 C 189.281 -1.82777 0.696545 0
M  V30 2073 O 190.487 -2.58384 0.833658 0
M  V30 2074 C 188.943 -1.59679 3.22538 0
M  V30 2075 C 188.551 -0.681431 4.42787 0
M  V30 2076 C 190.295 -2.2968 3.56997 0
M  V30 2077 C 188.202 -1.40978 5.74351 0
M  V30 2078 H 187.132 -0.328438 0.678708 0
M  V30 2079 H 189.783 -0.1223 1.83092 0
M  V30 2080 H 188.165 -2.38927 3.158 0
M  V30 2081 H 189.339 0.0751166 4.60739 0
M  V30 2082 H 187.654 -0.0903431 4.16302 0
M  V30 2083 H 190.251 -2.84794 4.52544 0
M  V30 2084 H 190.594 -3.05707 2.82576 0
M  V30 2085 H 191.127 -1.57361 3.65352 0
M  V30 2086 H 187.866 -0.691561 6.51842 0
M  V30 2087 H 187.386 -2.13929 5.60352 0
M  V30 2088 H 189.065 -1.95337 6.16808 0
M  V30 2089 N 189.197 -1.51736 -0.425897 0
M  V30 2090 C 190.445 -1.64644 -1.17204 0
M  V30 2091 C 190.766 -0.370486 -1.91448 0
M  V30 2092 O 190.036 0.614088 -1.86026 0
M  V30 2093 H 188.616 -0.606819 -0.435638 0
M  V30 2094 H 191.278 -1.88713 -0.487177 0
M  V30 2095 H 190.374 -2.47958 -1.89534 0
M  V30 2096 N 190.675 0.682077 -1.42076 0
M  V30 2097 C 191.903 1.47057 -1.4554 0
M  V30 2098 C 192.318 1.8869 -0.0645779 0
M  V30 2099 O 191.675 1.57666 0.919115 0
M  V30 2100 C 191.726 2.72442 -2.37609 0
M  V30 2101 O 191.447 2.32559 -3.71279 0
M  V30 2102 C 192.948 3.66069 -2.50017 0
M  V30 2103 H 190.168 0.452737 -0.495248 0
M  V30 2104 H 192.712 0.838695 -1.8651 0
M  V30 2105 H 190.867 3.31835 -1.9991 0
M  V30 2106 H 191.281 3.13475 -4.20516 0
M  V30 2107 H 192.755 4.50792 -3.18576 0
M  V30 2108 H 193.232 4.11476 -1.53572 0
M  V30 2109 H 193.838 3.12572 -2.88407 0
M  V30 2110 N 192.153 1.28127 0.917671 0
M  V30 2111 C 193.401 1.14825 1.66312 0
M  V30 2112 C 193.722 -0.304379 1.9261 0
M  V30 2113 O 192.992 -1.21149 1.53947 0
M  V30 2114 H 191.572 0.421953 0.616413 0
M  V30 2115 H 194.234 1.608 1.10134 0
M  V30 2116 H 193.33 1.68489 2.62712 0
M  V30 2117 N 193.631 -1.12557 1.10312 0
M  V30 2118 C 194.856 -1.88405 0.867085 0
M  V30 2119 C 195.281 -1.79038 -0.576817 0
M  V30 2120 O 194.639 -1.14439 -1.40618 0
M  V30 2121 C 194.687 -3.3563 1.31851 0
M  V30 2122 O 193.791 -4.09565 0.482734 0
M  V30 2123 H 193.132 -0.585455 0.313271 0
M  V30 2124 H 195.662 -1.42352 1.4696 0
M  V30 2125 H 195.672 -3.86469 1.3079 0
M  V30 2126 H 194.347 -3.41765 2.37001 0
M  V30 2127 H 192.924 -3.68695 0.558448 0
M  V30 2128 N 195.109 -0.891671 -1.2995 0
M  V30 2129 C 196.357 -0.512486 -1.95494 0
M  V30 2130 C 196.678 0.942776 -1.70695 0
M  V30 2131 O 195.948 1.66374 -1.03424 0
M  V30 2132 H 194.528 -0.186533 -0.723336 0
M  V30 2133 H 197.19 -1.13621 -1.58355 0
M  V30 2134 H 196.286 -0.688342 -3.04415 0
M  V30 2135 N 196.587 1.43421 -0.653314 0
M  V30 2136 C 197.55 2.29182 0.0287951 0
M  V30 2137 C 198.55 1.42213 0.750465 0
M  V30 2138 O 199.74 1.63843 0.591701 0
M  V30 2139 C 196.872 3.24278 1.05151 0
M  V30 2140 H 198.065 2.90985 -0.725786 0
M  V30 2141 H 195.618 1.50702 -0.414545 0
M  V30 2142 H 196.353 2.6737 1.83532 0
M  V30 2143 H 196.138 3.88396 0.537687 0
M  V30 2144 H 197.628 3.88647 1.52786 0
M  V30 2145 N 198.065 0.39524 1.52563 0
M  V30 2146 C 199.314 -0.186321 2.00838 0
M  V30 2147 C 199.627 -1.47402 1.28577 0
M  V30 2148 O 200.833 -2.13599 1.67593 0
M  V30 2149 C 199.289 -0.382595 3.57861 0
M  V30 2150 C 198.897 0.892202 4.39026 0
M  V30 2151 C 200.641 -0.9202 4.14406 0
M  V30 2152 C 198.548 0.66388 5.87662 0
M  V30 2153 H 197.478 -0.0734041 0.750418 0
M  V30 2154 H 200.129 0.518552 1.76021 0
M  V30 2155 H 198.511 -1.14946 3.7895 0
M  V30 2156 H 199.685 1.66414 4.29701 0
M  V30 2157 H 198 1.35519 3.9373 0
M  V30 2158 H 200.597 -1.10683 5.23119 0
M  V30 2159 H 200.94 -1.89096 3.70875 0
M  V30 2160 H 201.473 -0.212751 3.97231 0
M  V30 2161 H 198.212 1.6058 6.35527 0
M  V30 2162 H 197.732 -0.0690193 5.9976 0
M  V30 2163 H 199.411 0.300699 6.46301 0
M  V30 2164 N 199.544 -1.57102 0.125237 0
M  V30 2165 C 200.792 -1.95021 -0.530198 0
M  V30 2166 C 201.113 -1.00982 -1.66816 0
M  V30 2167 O 200.383 -0.0672693 -1.95784 0
M  V30 2168 H 198.963 -0.720046 -0.198853 0
M  V30 2169 H 201.625 -1.93916 0.19564 0
M  V30 2170 H 200.721 -2.98211 -0.920681 0
M  V30 2171 N 201.022 0.148545 -1.56898 0
M  V30 2172 C 202.268 0.862694 -1.83536 0
M  V30 2173 C 202.601 1.80889 -0.706604 0
M  V30 2174 O 201.876 1.92328 0.289885 0
M  V30 2175 C 202.159 1.63853 -3.20662 0
M  V30 2176 C 202.012 0.713925 -4.44098 0
M  V30 2177 C 203.331 2.60133 -3.54991 0
M  V30 2178 H 200.45 0.312179 -0.667618 0
M  V30 2179 H 203.092 0.127953 -1.89569 0
M  V30 2180 H 201.242 2.26489 -3.1565 0
M  V30 2181 H 202.914 0.098686 -4.61194 0
M  V30 2182 H 201.157 0.0234019 -4.33794 0
M  V30 2183 H 201.828 1.29278 -5.36648 0
M  V30 2184 H 204.304 2.07616 -3.60603 0
M  V30 2185 H 203.18 3.11468 -4.51972 0
M  V30 2186 H 203.441 3.41417 -2.80868 0
M  V30 2187 N 202.5 1.5196 0.417844 0
M  V30 2188 C 203.725 1.69717 1.1921 0
M  V30 2189 C 204.15 0.402148 1.83751 0
M  V30 2190 O 203.508 -0.639593 1.69643 0
M  V30 2191 C 203.556 2.82794 2.2374 0
M  V30 2192 O 202.66 2.47756 3.29683 0
M  V30 2193 H 202.001 0.565263 0.348387 0
M  V30 2194 H 204.531 1.98621 0.490985 0
M  V30 2195 H 204.541 3.07452 2.68212 0
M  V30 2196 H 203.216 3.76756 1.76146 0
M  V30 2197 H 201.793 2.33739 2.90552 0
M  V30 2198 N 203.978 -0.674533 1.42435 0
M  V30 2199 C 205.224 -1.43671 1.43131 0
M  V30 2200 C 205.557 -1.94142 0.0476021 0
M  V30 2201 O 204.832 -1.70924 -0.928188 0
M  V30 2202 C 205.115 -2.63355 2.45594 0
M  V30 2203 C 204.968 -2.18514 3.93156 0
M  V30 2204 C 206.287 -3.65571 2.45043 0
M  V30 2205 H 203.406 -0.521077 0.521198 0
M  V30 2206 H 206.048 -0.766551 1.7385 0
M  V30 2207 H 204.198 -3.2053 2.19528 0
M  V30 2208 H 205.87 -1.66504 4.30202 0
M  V30 2209 H 204.113 -1.50086 4.07009 0
M  V30 2210 H 204.784 -3.04484 4.60428 0
M  V30 2211 H 207.26 -3.18113 2.68223 0
M  V30 2212 H 206.136 -4.46893 3.18713 0
M  V30 2213 H 206.397 -4.16716 1.47649 0
M  V30 2214 N 205.456 -1.28612 -0.910864 0
M  V30 2215 C 206.419 -1.12803 -1.9952 0
M  V30 2216 C 207.419 -0.0668264 -1.60661 0
M  V30 2217 O 208.609 -0.312847 -1.71368 0
M  V30 2218 C 205.741 -0.72254 -3.33155 0
M  V30 2219 H 206.934 -2.09109 -2.14973 0
M  V30 2220 H 204.487 -1.11639 -1.09391 0
M  V30 2221 H 205.222 0.241152 -3.23402 0
M  V30 2222 H 205.007 -1.48916 -3.62721 0
M  V30 2223 H 206.497 -0.634666 -4.12749 0
M  V30 2224 N 206.934 1.1197 -1.10907 0
M  V30 2225 C 207.881 2.17846 -0.762345 0
M  V30 2226 C 208.851 1.63995 0.263599 0
M  V30 2227 O 210.036 1.90273 0.141773 0
M  V30 2228 C 207.176 3.44487 -0.205651 0
M  V30 2229 C 206.289 4.12369 -1.28748 0
M  V30 2230 C 205.424 5.26674 -0.691919 0
M  V30 2231 C 204.463 5.86431 -1.75399 0
M  V30 2232 N 203.6 6.92142 -1.17833 0
M  V30 2233 H 208.44 2.46851 -1.6694 0
M  V30 2234 H 205.977 1.21188 -0.833776 0
M  V30 2235 H 207.935 4.16981 0.135037 0
M  V30 2236 H 206.565 3.15884 0.664613 0
M  V30 2237 H 205.617 3.38003 -1.74522 0
M  V30 2238 H 206.929 4.52844 -2.09125 0
M  V30 2239 H 206.083 6.05953 -0.300963 0
M  V30 2240 H 204.822 4.8749 0.143232 0
M  V30 2241 H 203.827 5.05835 -2.15432 0
M  V30 2242 H 205.052 6.27685 -2.59208 0
M  V30 2243 H 202.998 6.54985 -0.364725 0
M  V30 2244 H 202.915 7.31242 -1.91887 0
M  V30 2245 H 204.183 7.75237 -0.81408 0
M  V30 2246 N 208.412 0.89855 1.29475 0
M  V30 2247 C 209.659 0.523882 1.95606 0
M  V30 2248 C 209.987 -0.929608 1.70847 0
M  V30 2249 O 209.242 -1.67401 1.01367 0
M  V30 2250 C 209.541 0.761398 3.49195 0
M  V30 2251 C 209.207 2.19207 3.94029 0
M  V30 2252 C 207.869 2.58326 4.05982 0
M  V30 2253 C 210.221 3.12379 4.17216 0
M  V30 2254 C 207.549 3.898 4.38489 0
M  V30 2255 C 209.901 4.43401 4.51197 0
M  V30 2256 C 208.565 4.82394 4.61359 0
M  V30 2257 H 207.835 0.191702 0.715773 0
M  V30 2258 H 210.482 1.13699 1.54094 0
M  V30 2259 H 208.787 0.0653622 3.91745 0
M  V30 2260 H 210.484 0.450904 3.98457 0
M  V30 2261 H 207.074 1.87846 3.85242 0
M  V30 2262 H 211.258 2.83371 4.07449 0
M  V30 2263 H 206.514 4.19734 4.44559 0
M  V30 2264 H 210.688 5.15623 4.68087 0
M  V30 2265 H 208.315 5.84306 4.86303 0
M  V30 2266 N 209.89 -1.43072 0.660911 0
M  V30 2267 C 211.115 -2.06584 0.183805 0
M  V30 2268 C 211.54 -1.49257 -1.14472 0
M  V30 2269 O 210.898 -0.605528 -1.70889 0
M  V30 2270 C 210.946 -3.60418 0.114434 0
M  V30 2271 O 210.05 -4.01981 -0.921137 0
M  V30 2272 H 209.391 -0.656669 0.0983994 0
M  V30 2273 H 211.921 -1.83447 0.906006 0
M  V30 2274 H 211.931 -4.07946 -0.0663394 0
M  V30 2275 H 210.606 -4.01519 1.08422 0
M  V30 2276 H 209.183 -3.66029 -0.71253 0
M  V30 2277 N 211.368 -0.403325 -1.52352 0
M  V30 2278 C 212.645 0.232611 -1.94212 0
M  V30 2279 C 213.025 1.63133 -1.33981 0
M  V30 2280 O 212.373 2.22659 -0.513344 0
M  V30 2281 C 212.583 0.244811 -3.4814 0
M  V30 2282 C 213.931 0.46698 -4.22024 0
M  V30 2283 O 214.955 0.324419 -3.5472 0
M  V30 2284 O 213.814 0.74747 -5.41364 0
M  V30 2285 H 210.908 0.148223 -0.813609 0
M  V30 2286 H 213.454 -0.458848 -1.63379 0
M  V30 2287 H 212.226 -0.734378 -3.84347 0
M  V30 2288 H 211.849 0.980611 -3.85318 0
M  V30 2289 N 212.846 1.57033 -0.133567 0
M  V30 2290 C 213.809 2.14897 0.796995 0
M  V30 2291 C 214.809 1.0874 1.18458 0
M  V30 2292 O 215.999 1.34446 1.1077 0
M  V30 2293 C 213.131 2.70112 2.07973 0
M  V30 2294 H 214.324 2.98457 0.293873 0
M  V30 2295 H 211.877 1.55871 0.115787 0
M  V30 2296 H 212.612 1.9018 2.62682 0
M  V30 2297 H 212.397 3.47764 1.81115 0
M  V30 2298 H 213.887 3.14738 2.74462 0
M  V30 2299 N 214.325 -0.140222 1.56975 0
M  V30 2300 C 215.574 -0.850152 1.82908 0
M  V30 2301 C 215.887 -1.82028 0.715892 0
M  V30 2302 O 217.093 -2.57485 0.861016 0
M  V30 2303 C 215.549 -1.5625 3.24213 0
M  V30 2304 C 215.157 -0.63443 4.43485 0
M  V30 2305 C 216.901 -2.25881 3.59413 0
M  V30 2306 C 214.808 -1.34879 5.75814 0
M  V30 2307 H 213.738 -0.321221 0.682153 0
M  V30 2308 H 216.389 -0.102874 1.83211 0
M  V30 2309 H 214.771 -2.35565 3.18316 0
M  V30 2310 H 215.945 0.12398 4.60633 0
M  V30 2311 H 214.26 -0.0461836 4.16374 0
M  V30 2312 H 216.857 -2.79978 4.5554 0
M  V30 2313 H 217.2 -3.02693 2.85802 0
M  V30 2314 H 217.733 -1.53477 3.67001 0
M  V30 2315 H 214.472 -0.622385 6.52539 0
M  V30 2316 H 213.992 -2.07974 5.6259 0
M  V30 2317 H 215.671 -1.88784 6.18845 0
M  V30 2318 N 215.803 -1.52179 -0.40978 0
M  V30 2319 C 217.049 -1.66453 -1.15851 0
M  V30 2320 C 217.382 -0.392972 -1.90182 0
M  V30 2321 O 216.657 0.608579 -1.84734 0
M  V30 2322 C 216.94 -2.88612 -2.15349 0
M  V30 2323 C 216.793 -4.25815 -1.44918 0
M  V30 2324 C 218.112 -3.06294 -3.16026 0
M  V30 2325 H 215.231 -0.60575 -0.419805 0
M  V30 2326 H 217.873 -1.84732 -0.444314 0
M  V30 2327 H 216.023 -2.73158 -2.76255 0
M  V30 2328 H 217.695 -4.52995 -0.871365 0
M  V30 2329 H 215.938 -4.27247 -0.751159 0
M  V30 2330 H 216.609 -5.07337 -2.17516 0
M  V30 2331 H 219.085 -3.20641 -2.65195 0
M  V30 2332 H 217.961 -3.93283 -3.8291 0
M  V30 2333 H 218.222 -2.19579 -3.83715 0
M  V30 2334 N 217.281 0.66697 -1.42791 0
M  V30 2335 C 218.528 1.42699 -1.43678 0
M  V30 2336 C 218.856 1.94419 -0.0560425 0
M  V30 2337 O 218.111 1.7182 0.936831 0
M  V30 2338 C 218.41 2.6349 -2.4147 0
M  V30 2339 C 218.076 2.30267 -3.8767 0
M  V30 2340 C 216.738 2.20918 -4.27491 0
M  V30 2341 C 219.09 2.03435 -4.79858 0
M  V30 2342 C 216.418 1.82873 -5.57471 0
M  V30 2343 C 218.77 1.66892 -6.10188 0
M  V30 2344 C 217.434 1.56058 -6.49001 0
M  V30 2345 H 216.704 0.522171 -0.525755 0
M  V30 2346 H 219.351 0.759785 -1.75783 0
M  V30 2347 H 217.656 3.35279 -2.0272 0
M  V30 2348 H 219.353 3.21684 -2.39417 0
M  V30 2349 H 215.943 2.38449 -3.56146 0
M  V30 2350 H 220.127 2.09586 -4.49875 0
M  V30 2351 H 215.383 1.7306 -5.86396 0
M  V30 2352 H 219.557 1.45157 -6.81104 0
M  V30 2353 H 217.184 1.26348 -7.49627 0
M  V30 2354 N 218.759 1.29093 0.90403 0
M  V30 2355 C 219.722 1.1386 1.98919 0
M  V30 2356 C 220.722 0.0753457 1.60623 0
M  V30 2357 O 221.912 0.321931 1.71199 0
M  V30 2358 C 219.044 0.740198 3.32767 0
M  V30 2359 H 220.237 2.10246 2.13861 0
M  V30 2360 H 217.79 1.12218 1.08797 0
M  V30 2361 H 218.525 -0.223997 3.23525 0
M  V30 2362 H 218.31 1.50838 3.61926 0
M  V30 2363 H 219.8 0.656546 4.12407 0
M  V30 2364 N 220.237 -1.11381 1.11499 0
M  V30 2365 C 221.465 -1.86934 0.88675 0
M  V30 2366 C 221.88 -1.80195 -0.563476 0
M  V30 2367 O 221.237 -1.18367 -1.38908 0
M  V30 2368 C 221.288 -3.35722 1.34064 0
M  V30 2369 O 221.009 -3.4232 2.73401 0
M  V30 2370 C 222.51 -4.2818 1.14791 0
M  V30 2371 H 219.73 -0.591117 0.317523 0
M  V30 2372 H 222.274 -1.40865 1.48248 0
M  V30 2373 H 220.429 -3.79294 0.788355 0
M  V30 2374 H 220.843 -4.34971 2.93087 0
M  V30 2375 H 222.317 -5.30817 1.5145 0
M  V30 2376 H 222.794 -4.39113 0.0875279 0
M  V30 2377 H 223.4 -3.90402 1.68721 0
M  V30 2378 N 221.715 -0.905404 -1.28997 0
M  V30 2379 C 222.992 -0.453513 -1.9027 0
M  V30 2380 C 223.372 1.06721 -1.82137 0
M  V30 2381 O 222.72 1.91159 -1.25182 0
M  V30 2382 C 222.93 -0.974494 -3.35119 0
M  V30 2383 C 224.278 -1.0216 -4.12127 0
M  V30 2384 O 225.302 -0.922557 -3.44046 0
M  V30 2385 O 224.161 -1.17121 -5.33802 0
M  V30 2386 H 221.255 -0.142347 -0.814657 0
M  V30 2387 H 223.801 -0.995642 -1.37423 0
M  V30 2388 H 222.573 -2.01848 -3.35221 0
M  V30 2389 H 222.196 -0.412706 -3.95452 0
M  V30 2390 N 223.193 1.4272 -0.668489 0
M  V30 2391 C 224.439 2.01923 -0.188419 0
M  V30 2392 C 224.772 1.52704 1.19979 0
M  V30 2393 O 224.047 0.726566 1.8042 0
M  V30 2394 C 224.33 3.59451 -0.216085 0
M  V30 2395 C 224.183 4.18864 -1.6393 0
M  V30 2396 C 225.502 4.37903 0.439179 0
M  V30 2397 H 222.621 0.733674 -0.0699412 0
M  V30 2398 H 225.263 1.69822 -0.852076 0
M  V30 2399 H 223.413 3.86929 0.349012 0
M  V30 2400 H 225.085 4.02362 -2.25616 0
M  V30 2401 H 223.328 3.74933 -2.18193 0
M  V30 2402 H 223.999 5.27987 -1.61039 0
M  V30 2403 H 226.475 4.16079 -0.0417878 0
M  V30 2404 H 225.351 5.47519 0.389157 0
M  V30 2405 H 225.612 4.15303 1.51577 0
M  V30 2406 N 224.671 0.411399 1.52136 0
M  V30 2407 C 225.896 -0.165538 2.06738 0
M  V30 2408 C 226.321 -1.379 1.27926 0
M  V30 2409 O 225.679 -1.78628 0.310114 0
M  V30 2410 C 225.727 -0.492124 3.57226 0
M  V30 2411 O 224.831 -1.58276 3.80818 0
M  V30 2412 H 224.172 -0.0132132 0.663869 0
M  V30 2413 H 226.702 0.585253 1.96051 0
M  V30 2414 H 226.712 -0.750104 4.01045 0
M  V30 2415 H 225.387 0.394922 4.14021 0
M  V30 2416 H 223.964 -1.31677 3.48877 0
M  V30 2417 N 226.149 -1.5696 0.141893 0
M  V30 2418 C 227.374 -2.00754 -0.520838 0
M  V30 2419 C 227.799 -1.0213 -1.57959 0
M  V30 2420 O 227.157 0.00371324 -1.813 0
M  V30 2421 C 227.205 -3.43318 -1.10294 0
M  V30 2422 O 226.309 -3.47679 -2.21795 0
M  V30 2423 H 225.65 -0.651564 -0.127908 0
M  V30 2424 H 228.18 -2.03221 0.23712 0
M  V30 2425 H 228.19 -3.82012 -1.43287 0
M  V30 2426 H 226.865 -4.14608 -0.327574 0
M  V30 2427 H 225.442 -3.20824 -1.9007 0
M  V30 2428 N 227.627 0.131896 -1.57047 0
M  V30 2429 C 228.574 1.16236 -1.99393 0
M  V30 2430 C 229.544 1.41863 -0.863943 0
M  V30 2431 O 230.729 1.53946 -1.12718 0
M  V30 2432 C 227.869 2.48708 -2.39245 0
M  V30 2433 C 226.982 2.30127 -3.65603 0
M  V30 2434 C 226.117 3.55738 -3.94492 0
M  V30 2435 C 225.156 3.32259 -5.14073 0
M  V30 2436 N 224.293 4.50039 -5.38896 0
M  V30 2437 H 229.133 0.794251 -2.87221 0
M  V30 2438 H 226.67 0.380707 -1.42088 0
M  V30 2439 H 228.628 3.25969 -2.60384 0
M  V30 2440 H 227.258 2.83437 -1.54478 0
M  V30 2441 H 226.31 1.43845 -3.52154 0
M  V30 2442 H 227.622 2.08746 -4.5302 0
M  V30 2443 H 226.776 4.41423 -4.1621 0
M  V30 2444 H 225.515 3.80138 -3.05526 0
M  V30 2445 H 224.52 2.44963 -4.92212 0
M  V30 2446 H 225.745 3.09242 -6.04604 0
M  V30 2447 H 223.691 4.74584 -4.52886 0
M  V30 2448 H 223.608 4.31716 -6.2061 0
M  V30 2449 H 224.876 5.36895 -5.65123 0
M  V30 2450 N 229.106 1.52395 0.401703 0
M  V30 2451 C 230.069 1.75636 1.47257 0
M  V30 2452 C 231.069 0.62628 1.48103 0
M  V30 2453 O 232.259 0.894227 1.49497 0
M  V30 2454 C 229.391 1.84553 2.86624 0
M  V30 2455 H 230.584 2.71241 1.27938 0
M  V30 2456 H 228.137 1.42923 0.632662 0
M  V30 2457 H 228.872 0.908882 3.11303 0
M  V30 2458 H 228.657 2.66715 2.87412 0
M  V30 2459 H 230.147 2.04251 3.64241 0
M  V30 2460 N 230.584 -0.659388 1.43143 0
M  V30 2461 C 231.83 -1.42145 1.44647 0
M  V30 2462 C 232.163 -1.9408 0.0681907 0
M  V30 2463 O 231.438 -1.71899 -0.910007 0
M  V30 2464 C 231.721 -2.60735 2.48373 0
M  V30 2465 C 231.574 -2.14332 3.95451 0
M  V30 2466 C 232.893 -3.62951 2.48906 0
M  V30 2467 H 230.012 -0.51552 0.526696 0
M  V30 2468 H 232.654 -0.748069 1.74654 0
M  V30 2469 H 230.804 -3.18184 2.22916 0
M  V30 2470 H 232.476 -1.61932 4.31944 0
M  V30 2471 H 230.719 -1.4576 4.08578 0
M  V30 2472 H 231.39 -2.99583 4.63631 0
M  V30 2473 H 233.866 -3.1525 2.71582 0
M  V30 2474 H 232.742 -4.43487 3.23435 0
M  V30 2475 H 233.003 -4.15126 1.52061 0
M  V30 2476 N 232.062 -1.29571 -0.897171 0
M  V30 2477 C 232.972 -1.16808 -2.03453 0
M  V30 2478 C 233.988 -0.0907471 -1.73763 0
M  V30 2479 O 235.164 -0.303312 -1.99103 0
M  V30 2480 C 232.229 -0.848264 -3.36163 0
M  V30 2481 C 231.29 -2.0097 -3.79354 0
M  V30 2482 C 230.523 -1.70505 -5.05731 0
M  V30 2483 O 230.746 -0.62718 -5.66941 0
M  V30 2484 O 229.68 -2.5538 -5.45036 0
M  V30 2485 H 233.506 -2.12325 -2.17144 0
M  V30 2486 H 231.091 -1.09047 -1.02123 0
M  V30 2487 H 232.973 -0.684581 -4.15802 0
M  V30 2488 H 231.648 0.0771071 -3.23608 0
M  V30 2489 H 230.555 -2.22863 -3.00471 0
M  V30 2490 H 231.888 -2.91636 -3.96496 0
M  V30 2491 N 233.54 1.10788 -1.12088 0
M  V30 2492 C 234.789 1.82036 -0.868659 0
M  V30 2493 C 235.102 1.85929 0.607426 0
M  V30 2494 O 236.308 2.53346 0.97613 0
M  V30 2495 C 234.764 3.26951 -1.50435 0
M  V30 2496 C 234.372 3.31367 -3.01496 0
M  V30 2497 C 236.116 4.03053 -1.33225 0
M  V30 2498 C 234.023 4.7072 -3.58017 0
M  V30 2499 H 232.953 0.682108 -0.321318 0
M  V30 2500 H 235.604 1.24618 -1.34694 0
M  V30 2501 H 233.986 3.84343 -0.953735 0
M  V30 2502 H 235.16 2.83819 -3.6302 0
M  V30 2503 H 233.475 2.6875 -3.18061 0
M  V30 2504 H 236.072 5.05981 -1.72878 0
M  V30 2505 H 236.415 4.15387 -0.275529 0
M  V30 2506 H 236.948 3.52066 -1.85188 0
M  V30 2507 H 233.687 4.63585 -4.63432 0
M  V30 2508 H 233.207 5.1865 -3.01268 0
M  V30 2509 H 234.886 5.39685 -3.56859 0
M  V30 2510 N 235.018 0.912232 1.28515 0
M  V30 2511 C 235.981 0.404223 2.25607 0
M  V30 2512 C 236.981 -0.468602 1.53821 0
M  V30 2513 O 238.171 -0.271873 1.72065 0
M  V30 2514 C 235.303 -0.420653 3.38295 0
M  V30 2515 H 236.496 1.26188 2.7206 0
M  V30 2516 H 234.049 0.691495 1.40171 0
M  V30 2517 H 234.784 -1.29777 2.97201 0
M  V30 2518 H 234.569 0.204935 3.91564 0
M  V30 2519 H 236.059 -0.766971 4.10496 0
M  V30 2520 N 236.496 -1.42363 0.676048 0
M  V30 2521 C 237.912 -1.55811 0.345718 0
M  V30 2522 C 238.112 -1.65544 -1.14879 0
M  V30 2523 O 237.168 -1.62306 -1.93424 0
M  V30 2524 C 238.481 -2.80746 1.07713 0
M  V30 2525 C 240.029 -2.9452 1.05958 0
M  V30 2526 C 240.504 -4.22318 1.77233 0
M  V30 2527 N 241.995 -4.29233 1.74108 0
M  V30 2528 C 242.73 -5.26935 2.26113 0
M  V30 2529 N 242.226 -6.30783 2.86505 0
M  V30 2530 N 244.019 -5.18741 2.1648 0
M  V30 2531 H 236.17 -1.34289 1.6456 0
M  V30 2532 H 238.433 -0.646506 0.69335 0
M  V30 2533 H 238.139 -2.79696 2.13221 0
M  V30 2534 H 238.013 -3.71676 0.64316 0
M  V30 2535 H 240.4 -2.95097 0.0128255 0
M  V30 2536 H 240.481 -2.04817 1.53244 0
M  V30 2537 H 240.125 -4.22502 2.81877 0
M  V30 2538 H 240.055 -5.10958 1.27396 0
M  V30 2539 H 242.546 -3.54814 1.30059 0
M  V30 2540 H 242.859 -7.01691 3.23805 0
M  V30 2541 H 241.204 -6.31341 2.90575 0
M  V30 2542 H 244.395 -4.36533 1.68987 0
M  V30 2543 H 244.568 -5.94721 2.57316 0
M  V30 2544 N 237.974 -0.419461 -1.51915 0
M  V30 2545 C 238.921 0.400927 -2.27291 0
M  V30 2546 C 239.891 1.03224 -1.30131 0
M  V30 2547 O 241.076 1.05455 -1.59009 0
M  V30 2548 C 238.216 1.50603 -3.10504 0
M  V30 2549 C 237.329 0.89462 -4.22635 0
M  V30 2550 C 236.464 1.97328 -4.93189 0
M  V30 2551 C 235.503 1.33935 -5.97267 0
M  V30 2552 N 234.64 2.3586 -6.61298 0
M  V30 2553 H 239.48 -0.248251 -2.96964 0
M  V30 2554 H 237.017 -0.134266 -1.46486 0
M  V30 2555 H 238.975 2.15783 -3.57062 0
M  V30 2556 H 237.605 2.12509 -2.42981 0
M  V30 2557 H 236.657 0.131583 -3.80172 0
M  V30 2558 H 237.969 0.391641 -4.9726 0
M  V30 2559 H 237.123 2.70211 -5.43204 0
M  V30 2560 H 235.862 2.50994 -4.18155 0
M  V30 2561 H 234.867 0.595896 -5.46561 0
M  V30 2562 H 236.092 0.810252 -6.74249 0
M  V30 2563 H 234.038 2.88639 -5.89087 0
M  V30 2564 H 233.955 1.90403 -7.3163 0
M  V30 2565 H 235.223 3.08282 -7.15949 0
M  V30 2566 N 239.452 1.56882 -0.150215 0
M  V30 2567 C 240.4 2.18214 0.805313 0
M  V30 2568 C 241.394 1.14006 1.25296 0
M  V30 2569 O 242.6 1.3225 1.22107 0
M  V30 2570 H 238.975 0.698762 0.277913 0
M  V30 2571 H 240.946 2.97231 0.263862 0
M  V30 2572 C 239.695 2.82065 2.03309 0
M  V30 2573 H 239.018 3.61968 1.69763 0
M  V30 2574 H 240.458 3.28477 2.68103 0
M  V30 2575 C 238.917 1.80739 2.84315 0
M  V30 2576 O 239.447 1.27983 3.80767 0
M  V30 2577 N 237.653 1.4997 2.48913 0
M  V30 2578 H 237.2 1.93062 1.70542 0
M  V30 2579 H 237.158 0.824217 3.03404 0
M  V30 2580 N 240.93 -0.123565 1.57115 0
M  V30 2581 C 241.893 -1.13583 1.99076 0
M  V30 2582 C 242.893 -1.34564 0.880296 0
M  V30 2583 O 244.083 -1.31158 1.14644 0
M  V30 2584 C 241.215 -2.49128 2.32698 0
M  V30 2585 H 242.408 -0.775287 2.89706 0
M  V30 2586 H 239.961 -0.36771 1.51913 0
M  V30 2587 H 240.696 -2.90111 1.44934 0
M  V30 2588 H 240.481 -2.35255 3.13684 0
M  V30 2589 H 241.971 -3.2199 2.65918 0
M  V30 2590 N 242.408 -1.52605 -0.393616 0
M  V30 2591 C 243.318 -1.79971 -1.50492 0
M  V30 2592 C 244.334 -0.686181 -1.59899 0
M  V30 2593 O 245.51 -0.973274 -1.76322 0
M  V30 2594 C 242.575 -1.95867 -2.86072 0
M  V30 2595 C 241.636 -3.19781 -2.86424 0
M  V30 2596 C 240.869 -3.34909 -4.15538 0
M  V30 2597 O 241.092 -2.54948 -5.10253 0
M  V30 2598 O 240.026 -4.28141 -4.23059 0
M  V30 2599 H 243.852 -2.74328 -1.30299 0
M  V30 2600 H 241.437 -1.3764 -0.581005 0
M  V30 2601 H 243.319 -2.08056 -3.66457 0
M  V30 2602 H 241.994 -1.04699 -3.063 0
M  V30 2603 H 240.901 -3.13038 -2.04837 0
M  V30 2604 H 242.234 -4.1078 -2.71147 0
M  V30 2605 N 243.887 0.651787 -1.4349 0
M  V30 2606 C 245.303 0.96762 -1.26922 0
M  V30 2607 C 245.503 2.00602 -0.189982 0
M  V30 2608 O 244.559 2.48793 0.431107 0
M  V30 2609 C 245.872 1.45052 -2.63401 0
M  V30 2610 C 247.42 1.5671 -2.70945 0
M  V30 2611 C 247.895 2.0839 -4.07845 0
M  V30 2612 N 249.386 2.1569 -4.09917 0
M  V30 2613 C 250.121 2.56804 -5.12679 0
M  V30 2614 N 249.617 2.97203 -6.25813 0
M  V30 2615 N 251.41 2.56756 -5.00033 0
M  V30 2616 H 243.561 -0.0353158 -2.12371 0
M  V30 2617 H 245.824 0.0467858 -0.946845 0
M  V30 2618 H 245.53 0.761926 -3.43348 0
M  V30 2619 H 245.404 2.42529 -2.88894 0
M  V30 2620 H 247.791 2.2467 -1.9133 0
M  V30 2621 H 247.872 0.57662 -2.49216 0
M  V30 2622 H 247.516 1.41031 -4.87927 0
M  V30 2623 H 247.446 3.08271 -4.26938 0
M  V30 2624 H 249.937 1.87237 -3.28254 0
M  V30 2625 H 250.25 3.27328 -7.00055 0
M  V30 2626 H 248.595 2.95004 -6.29283 0
M  V30 2627 H 251.786 2.24572 -4.10713 0
M  V30 2628 H 251.959 2.88475 -5.80247 0
M  V30 2629 N 245.365 1.30045 0.890287 0
M  V30 2630 C 246.315 1.12592 1.9826 0
M  V30 2631 C 247.299 0.0426021 1.60844 0
M  V30 2632 O 248.491 0.265346 1.75 0
M  V30 2633 C 245.62 0.814301 3.33503 0
M  V30 2634 C 244.706 1.93761 3.7725 0
M  V30 2635 N 245.097 3.18232 3.93143 0
M  V30 2636 C 243.395 1.83277 4.06602 0
M  V30 2637 C 244.096 3.9158 4.30163 0
M  V30 2638 N 243.072 3.19591 4.3973 0
M  V30 2639 H 246.874 2.07003 2.08631 0
M  V30 2640 H 244.388 1.21307 1.07974 0
M  V30 2641 H 246.385 0.67029 4.11476 0
M  V30 2642 H 245.045 -0.121797 3.24471 0
M  V30 2643 H 246.056 3.53581 3.78419 0
M  V30 2644 H 242.733 0.97001 4.06075 0
M  V30 2645 H 244.123 4.98744 4.50226 0
M  V30 2646 N 246.843 -1.10192 1.12674 0
M  V30 2647 C 248.091 -1.81845 0.881861 0
M  V30 2648 C 248.412 -1.85737 -0.593867 0
M  V30 2649 O 247.682 -1.33724 -1.4316 0
M  V30 2650 H 246.262 -0.673432 0.323261 0
M  V30 2651 H 248.924 -1.33316 1.42172 0
M  V30 2652 H 248.02 -2.85288 1.2656 0
M  V30 2653 N 248.321 -0.919034 -1.28029 0
M  V30 2654 C 249.567 -0.555757 -1.95036 0
M  V30 2655 C 249.9 0.899198 -1.72128 0
M  V30 2656 O 249.175 1.64023 -1.04531 0
M  V30 2657 C 249.458 -0.872024 -3.49382 0
M  V30 2658 C 249.311 -2.3801 -3.81669 0
M  V30 2659 C 250.63 -0.37185 -4.38526 0
M  V30 2660 H 247.749 -0.203386 -0.708381 0
M  V30 2661 H 250.391 -1.14924 -1.51303 0
M  V30 2662 H 248.541 -0.366946 -3.86763 0
M  V30 2663 H 250.213 -2.9562 -3.54128 0
M  V30 2664 H 248.456 -2.83289 -3.28526 0
M  V30 2665 H 249.127 -2.55192 -4.8947 0
M  V30 2666 H 251.603 -0.804602 -4.08247 0
M  V30 2667 H 250.479 -0.622173 -5.45362 0
M  V30 2668 H 250.74 0.727934 -4.36066 0
M  V30 2669 N 249.799 1.42003 -0.683588 0
M  V30 2670 C 251.024 2.06265 -0.216647 0
M  V30 2671 C 251.449 1.51059 1.12083 0
M  V30 2672 O 250.807 0.632638 1.69904 0
M  V30 2673 C 250.855 3.60191 -0.171759 0
M  V30 2674 O 249.959 4.03396 0.857069 0
M  V30 2675 H 249.3 0.65502 -0.108834 0
M  V30 2676 H 251.83 1.81982 -0.935077 0
M  V30 2677 H 251.84 4.08 0.0014303 0
M  V30 2678 H 250.515 3.99743 -1.14796 0
M  V30 2679 H 249.092 3.67117 0.654208 0
M  V30 2680 N 251.277 0.427512 1.51691 0
M  V30 2681 C 252.554 -0.201684 1.94557 0
M  V30 2682 C 252.934 -1.60981 1.36559 0
M  V30 2683 O 252.282 -2.21814 0.548702 0
M  V30 2684 C 252.492 -0.189394 3.48486 0
M  V30 2685 C 253.84 -0.39978 4.22714 0
M  V30 2686 O 254.864 -0.267945 3.55191 0
M  V30 2687 O 253.723 -0.661249 5.42485 0
M  V30 2688 H 250.817 -0.135261 0.815864 0
M  V30 2689 H 253.363 0.484782 1.62628 0
M  V30 2690 H 252.135 0.795431 3.8313 0
M  V30 2691 H 251.758 -0.919187 3.86829 0
M  V30 2692 N 252.755 -1.56801 0.158532 0
M  V30 2693 C 254.171 -1.5837 -0.197774 0
M  V30 2694 C 254.371 -1.17334 -1.63814 0
M  V30 2695 O 253.427 -0.878988 -2.36707 0
M  V30 2696 C 254.74 -3.00615 0.0714459 0
M  V30 2697 C 256.288 -3.12999 0.00864533 0
M  V30 2698 C 256.763 -4.57313 0.250685 0
M  V30 2699 N 258.254 -4.62777 0.198014 0
M  V30 2700 C 258.989 -5.72271 0.359642 0
M  V30 2701 N 258.485 -6.90371 0.579625 0
M  V30 2702 N 260.278 -5.61318 0.296438 0
M  V30 2703 H 252.429 -1.81765 1.09887 0
M  V30 2704 H 254.692 -0.841849 0.435884 0
M  V30 2705 H 254.398 -3.35068 1.06874 0
M  V30 2706 H 254.272 -3.71683 -0.642757 0
M  V30 2707 H 256.659 -2.7838 -0.979217 0
M  V30 2708 H 256.74 -2.44393 0.755359 0
M  V30 2709 H 256.384 -4.92639 1.2357 0
M  V30 2710 H 256.314 -5.24061 -0.516489 0
M  V30 2711 H 258.805 -3.77885 0.0331115 0
M  V30 2712 H 259.118 -7.69689 0.69275 0
M  V30 2713 H 257.463 -6.92264 0.616087 0
M  V30 2714 H 260.654 -4.67932 0.125258 0
M  V30 2715 H 260.827 -6.46599 0.425831 0
M  V30 2716 N 254.233 0.115231 -1.57178 0
M  V30 2717 C 255.48 0.822351 -1.8505 0
M  V30 2718 C 255.808 1.79701 -0.744168 0
M  V30 2719 O 255.063 1.93909 0.26414 0
M  V30 2720 C 255.362 1.60324 -3.19423 0
M  V30 2721 C 255.028 0.772536 -4.44233 0
M  V30 2722 C 253.69 0.543468 -4.78121 0
M  V30 2723 C 256.042 0.193746 -5.2084 0
M  V30 2724 C 253.37 -0.274583 -5.86057 0
M  V30 2725 C 255.722 -0.611517 -6.29637 0
M  V30 2726 C 254.386 -0.850867 -6.62055 0
M  V30 2727 H 253.656 0.30092 -0.677147 0
M  V30 2728 H 256.303 0.0845802 -1.91313 0
M  V30 2729 H 254.608 2.41203 -3.08753 0
M  V30 2730 H 256.305 2.1544 -3.38211 0
M  V30 2731 H 252.895 0.96117 -4.17683 0
M  V30 2732 H 257.079 0.357926 -4.95008 0
M  V30 2733 H 252.335 -0.469206 -6.09597 0
M  V30 2734 H 256.509 -1.06697 -6.88178 0
M  V30 2735 H 254.136 -1.48657 -7.45523 0
M  V30 2736 N 255.711 1.52812 0.385517 0
M  V30 2737 C 256.958 1.68026 1.1302 0
M  V30 2738 C 257.286 0.421934 1.89868 0
M  V30 2739 O 256.541 -0.595749 1.86412 0
M  V30 2740 C 256.84 2.86856 2.13187 0
M  V30 2741 C 256.506 4.24159 1.5297 0
M  V30 2742 C 255.168 4.61501 1.36274 0
M  V30 2743 C 257.52 5.09627 1.09223 0
M  V30 2744 C 254.848 5.81966 0.743837 0
M  V30 2745 C 257.2 6.30719 0.487411 0
M  V30 2746 C 255.864 6.6679 0.307777 0
M  V30 2747 H 255.134 0.614849 0.413571 0
M  V30 2748 H 257.781 1.86962 0.414405 0
M  V30 2749 H 256.086 2.6235 2.90998 0
M  V30 2750 H 257.783 2.95821 2.70722 0
M  V30 2751 H 254.373 3.94746 1.66954 0
M  V30 2752 H 258.557 4.81343 1.20922 0
M  V30 2753 H 253.813 6.08519 0.592891 0
M  V30 2754 H 257.987 6.96259 0.140143 0
M  V30 2755 H 255.614 7.60001 -0.173879 0
M  V30 2756 N 257.189 -0.644168 1.43834 0
M  V30 2757 C 258.435 -1.40603 1.46146 0
M  V30 2758 C 258.768 -1.93997 0.0887717 0
M  V30 2759 O 258.043 -1.72854 -0.891724 0
M  V30 2760 C 258.326 -2.58086 2.51124 0
M  V30 2761 C 258.179 -2.10126 3.97702 0
M  V30 2762 C 259.498 -3.60291 2.52742 0
M  V30 2763 H 256.617 -0.509905 0.532134 0
M  V30 2764 H 259.259 -0.729502 1.75437 0
M  V30 2765 H 257.409 -3.15801 2.26278 0
M  V30 2766 H 259.081 -1.57342 4.33637 0
M  V30 2767 H 257.324 -1.41419 4.10101 0
M  V30 2768 H 257.995 -2.94649 4.66783 0
M  V30 2769 H 260.471 -3.12352 2.7491 0
M  V30 2770 H 259.347 -4.40032 3.28121 0
M  V30 2771 H 259.608 -4.1349 1.56455 0
M  V30 2772 N 258.668 -1.30515 -0.883378 0
M  V30 2773 C 260.084 -1.08881 -1.16692 0
M  V30 2774 C 260.284 0.149409 -2.00945 0
M  V30 2775 O 259.34 0.84257 -2.38027 0
M  V30 2776 C 260.653 -2.35319 -1.87204 0
M  V30 2777 C 262.201 -2.40799 -1.99962 0
M  V30 2778 C 262.676 -3.67083 -2.73887 0
M  V30 2779 N 264.167 -3.679 -2.81432 0
M  V30 2780 C 264.902 -4.62303 -3.3921 0
M  V30 2781 N 264.398 -5.67052 -3.98025 0
M  V30 2782 N 266.191 -4.49845 -3.3704 0
M  V30 2783 H 258.342 -2.09951 -0.321633 0
M  V30 2784 H 260.605 -0.92556 -0.205043 0
M  V30 2785 H 260.311 -3.25689 -1.3274 0
M  V30 2786 H 260.185 -2.44089 -2.87577 0
M  V30 2787 H 262.572 -1.50907 -2.53597 0
M  V30 2788 H 262.653 -2.36003 -0.98673 0
M  V30 2789 H 262.297 -4.57334 -2.20925 0
M  V30 2790 H 262.227 -3.69141 -3.75556 0
M  V30 2791 H 264.718 -2.92171 -2.39676 0
M  V30 2792 H 265.031 -6.35184 -4.40183 0
M  V30 2793 H 263.376 -5.70842 -3.96439 0
M  V30 2794 H 266.567 -3.67194 -2.90321 0
M  V30 2795 H 266.74 -5.23597 -3.81772 0
M  V30 2796 N 260.146 1.09593 -1.13257 0
M  V30 2797 C 261.093 2.1618 -0.808381 0
M  V30 2798 C 262.063 1.64517 0.228754 0
M  V30 2799 O 263.248 1.9053 0.101381 0
M  V30 2800 C 260.388 3.43973 -0.278675 0
M  V30 2801 C 259.501 4.09545 -1.37466 0
M  V30 2802 C 258.636 5.25088 -0.803479 0
M  V30 2803 C 257.675 5.82579 -1.87799 0
M  V30 2804 N 256.812 6.89486 -1.32488 0
M  V30 2805 H 261.652 2.43254 -1.72138 0
M  V30 2806 H 259.189 1.19392 -0.859294 0
M  V30 2807 H 261.147 4.17174 0.0465583 0
M  V30 2808 H 259.777 3.17223 0.597459 0
M  V30 2809 H 258.829 3.34226 -1.81652 0
M  V30 2810 H 260.141 4.48307 -2.18684 0
M  V30 2811 H 259.295 6.05178 -0.429427 0
M  V30 2812 H 258.034 4.87684 0.0397956 0
M  V30 2813 H 257.039 5.01152 -2.26113 0
M  V30 2814 H 258.264 6.22045 -2.72463 0
M  V30 2815 H 256.21 6.54064 -0.503575 0
M  V30 2816 H 256.127 7.27007 -2.07355 0
M  V30 2817 H 257.395 7.73336 -0.978336 0
M  V30 2818 N 261.624 0.925811 1.2754 0
M  V30 2819 C 262.872 0.564138 1.94067 0
M  V30 2820 C 263.193 -0.897188 1.73134 0
M  V30 2821 O 262.463 -1.63573 1.07799 0
M  V30 2822 H 261.043 0.205645 0.718136 0
M  V30 2823 H 263.705 1.1778 1.55287 0
M  V30 2824 H 262.801 0.76881 3.02483 0
M  V30 2825 N 263.102 -1.41638 0.69111 0
M  V30 2826 C 264.012 -2.34588 0.0233487 0
M  V30 2827 C 265.028 -1.55987 -0.770984 0
M  V30 2828 O 266.204 -1.88486 -0.709569 0
M  V30 2829 C 263.269 -3.34684 -0.904851 0
M  V30 2830 C 262.33 -4.29176 -0.103225 0
M  V30 2831 C 261.563 -5.2449 -0.987216 0
M  V30 2832 O 261.786 -5.2514 -2.22674 0
M  V30 2833 O 260.72 -6.00295 -0.439281 0
M  V30 2834 H 264.546 -2.93261 0.789416 0
M  V30 2835 H 262.131 -1.42417 0.45142 0
M  V30 2836 H 264.013 -3.96133 -1.43724 0
M  V30 2837 H 262.688 -2.78461 -1.65049 0
M  V30 2838 H 261.595 -3.71089 0.473655 0
M  V30 2839 H 262.928 -4.88484 0.60365 0
M  V30 2840 N 264.58 -0.43555 -1.51462 0
M  V30 2841 C 265.827 0.131514 -2.02072 0
M  V30 2842 C 266.155 1.42868 -1.31981 0
M  V30 2843 O 265.41 1.91076 -0.422883 0
M  V30 2844 C 265.709 0.39942 -3.55161 0
M  V30 2845 C 265.375 -0.81172 -4.43533 0
M  V30 2846 C 264.037 -1.14387 -4.67407 0
M  V30 2847 C 266.389 -1.61976 -4.95392 0
M  V30 2848 C 263.717 -2.28477 -5.40384 0
M  V30 2849 C 266.069 -2.75164 -5.6962 0
M  V30 2850 C 264.733 -3.08835 -5.91758 0
M  V30 2851 H 264.003 0.0481244 -0.739436 0
M  V30 2852 H 266.65 -0.58238 -1.8243 0
M  V30 2853 H 264.955 1.19519 -3.73125 0
M  V30 2854 H 266.652 0.85157 -3.91854 0
M  V30 2855 H 263.242 -0.542898 -4.25148 0
M  V30 2856 H 267.426 -1.37637 -4.76833 0
M  V30 2857 H 262.682 -2.5488 -5.55739 0
M  V30 2858 H 266.856 -3.38147 -6.08793 0
M  V30 2859 H 264.483 -3.97353 -6.48086 0
M  V30 2860 N 266.058 1.56714 -0.166846 0
M  V30 2861 C 266.988 2.20754 0.760913 0
M  V30 2862 C 267.969 1.16178 1.24244 0
M  V30 2863 O 269.154 1.44592 1.29641 0
M  V30 2864 C 266.284 2.84478 1.99223 0
M  V30 2865 C 265.238 3.95053 1.64672 0
M  V30 2866 C 264.564 4.45805 2.95232 0
M  V30 2867 C 265.864 5.14865 0.878155 0
M  V30 2868 H 267.558 2.98537 0.22713 0
M  V30 2869 H 265.104 1.43596 0.107805 0
M  V30 2870 H 267.057 3.27951 2.64624 0
M  V30 2871 H 265.781 2.04056 2.55007 0
M  V30 2872 H 264.44 3.52228 1.01641 0
M  V30 2873 H 264.088 3.62181 3.49047 0
M  V30 2874 H 263.788 5.204 2.7287 0
M  V30 2875 H 265.312 4.91962 3.6167 0
M  V30 2876 H 266.726 5.55059 1.43466 0
M  V30 2877 H 265.123 5.95348 0.753738 0
M  V30 2878 H 266.193 4.84735 -0.126377 0
M  V30 2879 N 267.536 -0.106894 1.57237 0
M  V30 2880 C 268.446 -1.14911 2.0453 0
M  V30 2881 C 269.462 -1.44592 0.96795 0
M  V30 2882 O 270.638 -1.55468 1.2803 0
M  V30 2883 C 267.703 -2.45272 2.45036 0
M  V30 2884 C 266.764 -2.22879 3.66911 0
M  V30 2885 C 265.997 -3.47024 4.05475 0
M  V30 2886 O 266.22 -4.54804 3.44252 0
M  V30 2887 O 265.154 -3.3731 4.98504 0
M  V30 2888 H 268.98 -0.777461 2.9358 0
M  V30 2889 H 266.565 -0.318563 1.45964 0
M  V30 2890 H 268.447 -3.22055 2.71769 0
M  V30 2891 H 267.122 -2.81886 1.59129 0
M  V30 2892 H 266.029 -1.43915 3.45311 0
M  V30 2893 H 267.362 -1.91163 4.53561 0
M  V30 2894 N 269.014 -1.53014 -0.377408 0
M  V30 2895 C 270.425 -1.60438 -0.954798 0
M  V30 2896 C 270.776 -0.464418 -1.90624 0
M  V30 2897 O 269.901 0.41087 -2.12464 0
M  V30 2898 C 270.496 -2.90797 -1.73847 0
M  V30 2899 C 269.055 -3.00595 -2.26538 0
M  V30 2900 C 268.202 -2.55645 -1.07429 0
M  V30 2901 H 271.153 -1.57926 -0.156575 0
M  V30 2902 H 271.174 -2.77935 -2.5987 0
M  V30 2903 H 270.686 -3.73746 -1.04574 0
M  V30 2904 H 268.787 -2.22208 -2.99089 0
M  V30 2905 H 268.9 -4.05456 -2.5523 0
M  V30 2906 H 267.264 -2.10239 -1.43777 0
M  V30 2907 H 268.047 -3.41 -0.396728 0
M  V30 2908 N 270.492 0.636531 -1.44174 0
M  V30 2909 C 271.739 1.39619 -1.46672 0
M  V30 2910 C 272.067 1.94257 -0.0972691 0
M  V30 2911 O 271.322 1.73768 0.900175 0
M  V30 2912 C 271.621 2.58309 -2.47005 0
M  V30 2913 C 271.287 2.21992 -3.92467 0
M  V30 2914 C 269.949 2.118 -4.32081 0
M  V30 2915 C 272.301 1.9321 -4.84065 0
M  V30 2916 C 269.629 1.71007 -5.61225 0
M  V30 2917 C 271.981 1.53911 -6.13591 0
M  V30 2918 C 270.645 1.42257 -6.52165 0
M  V30 2919 H 269.915 0.510902 -0.536712 0
M  V30 2920 H 272.562 0.722328 -1.77355 0
M  V30 2921 H 270.867 3.30903 -2.09786 0
M  V30 2922 H 272.564 3.16533 -2.46186 0
M  V30 2923 H 269.154 2.30841 -3.61124 0
M  V30 2924 H 273.338 1.99997 -4.54219 0
M  V30 2925 H 268.594 1.60583 -5.89935 0
M  V30 2926 H 272.768 1.30677 -6.8403 0
M  V30 2927 H 270.395 1.10419 -7.52138 0
M  V30 2928 N 271.97 1.30982 0.876444 0
M  V30 2929 C 272.917 1.18085 1.98304 0
M  V30 2930 C 273.887 0.0682263 1.6596 0
M  V30 2931 O 275.072 0.239937 1.89285 0
M  V30 2932 C 272.212 0.887475 3.33493 0
M  V30 2933 C 271.325 2.08281 3.78475 0
M  V30 2934 C 270.46 1.72678 5.0235 0
M  V30 2935 C 269.499 2.88657 5.39762 0
M  V30 2936 N 268.636 2.53292 6.54819 0
M  V30 2937 H 273.476 2.1275 2.08666 0
M  V30 2938 H 271.013 1.05839 1.02159 0
M  V30 2939 H 272.971 0.697961 4.1132 0
M  V30 2940 H 271.601 -0.022315 3.22792 0
M  V30 2941 H 270.653 2.3833 2.96484 0
M  V30 2942 H 271.965 2.95108 4.02135 0
M  V30 2943 H 271.119 1.50151 5.87826 0
M  V30 2944 H 269.858 0.830327 4.8058 0
M  V30 2945 H 268.863 3.1184 4.52809 0
M  V30 2946 H 270.088 3.79002 5.63502 0
M  V30 2947 H 268.034 1.66163 6.34607 0
M  V30 2948 H 267.951 3.3365 6.7839 0
M  V30 2949 H 269.219 2.34143 7.43503 0
M  V30 2950 N 273.449 -1.08991 1.13837 0
M  V30 2951 C 274.359 -2.19301 0.833333 0
M  V30 2952 C 275.375 -1.73026 -0.183847 0
M  V30 2953 O 276.551 -2.01395 -0.0138092 0
M  V30 2954 C 273.616 -3.45323 0.308651 0
M  V30 2955 C 272.677 -4.06255 1.38764 0
M  V30 2956 C 271.91 -5.26262 0.887896 0
M  V30 2957 O 272.133 -5.69747 -0.27287 0
M  V30 2958 O 271.067 -5.78435 1.66421 0
M  V30 2959 H 274.893 -2.47854 1.75506 0
M  V30 2960 H 272.478 -1.18012 0.916166 0
M  V30 2961 H 274.36 -4.21394 0.0216739 0
M  V30 2962 H 273.035 -3.18362 -0.585431 0
M  V30 2963 H 271.942 -3.318 1.72799 0
M  V30 2964 H 273.275 -4.37452 2.25602 0
M  V30 2965 N 274.927 -0.932562 -1.27047 0
M  V30 2966 C 275.874 -0.434072 -2.26681 0
M  V30 2967 C 276.844 0.501639 -1.58344 0
M  V30 2968 O 278.029 0.419734 -1.86126 0
M  V30 2969 C 275.169 0.30261 -3.43771 0
M  V30 2970 C 274.282 -0.667774 -4.26808 0
M  V30 2971 C 273.417 0.0892393 -5.31125 0
M  V30 2972 C 272.456 -0.873532 -6.05835 0
M  V30 2973 N 271.593 -0.148832 -7.01942 0
M  V30 2974 H 276.433 -1.28868 -2.68695 0
M  V30 2975 H 273.97 -0.646713 -1.32121 0
M  V30 2976 H 275.928 0.746092 -4.10474 0
M  V30 2977 H 274.558 1.12142 -3.02695 0
M  V30 2978 H 273.61 -1.22978 -3.59973 0
M  V30 2979 H 274.922 -1.40337 -4.78651 0
M  V30 2980 H 274.076 0.592409 -6.03801 0
M  V30 2981 H 272.815 0.85777 -4.80097 0
M  V30 2982 H 271.82 -1.38791 -5.31994 0
M  V30 2983 H 273.045 -1.64193 -6.58952 0
M  V30 2984 H 270.991 0.601365 -6.53238 0
M  V30 2985 H 270.908 -0.82391 -7.51497 0
M  V30 2986 H 272.176 0.333527 -7.78786 0
M  V30 2987 N 276.405 1.4127 -0.698611 0
M  V30 2988 C 277.652 2.0118 -0.230865 0
M  V30 2989 C 277.98 1.55338 1.17049 0
M  V30 2990 O 277.235 0.756775 1.80475 0
M  V30 2991 C 277.534 3.56592 -0.240192 0
M  V30 2992 C 277.2 4.21955 -1.58948 0
M  V30 2993 C 275.862 4.39524 -1.95887 0
M  V30 2994 C 278.214 4.58576 -2.47704 0
M  V30 2995 C 275.542 4.90992 -3.2116 0
M  V30 2996 C 277.894 5.11435 -3.72313 0
M  V30 2997 C 276.558 5.27215 -4.0939 0
M  V30 2998 H 275.828 0.736169 -0.0844796 0
M  V30 2999 H 278.475 1.69124 -0.8983 0
M  V30 3000 H 276.78 3.88456 0.510797 0
M  V30 3001 H 278.477 4.00758 0.139296 0
M  V30 3002 H 275.067 4.08657 -1.29219 0
M  V30 3003 H 279.251 4.44654 -2.20445 0
M  V30 3004 H 274.507 5.01393 -3.49878 0
M  V30 3005 H 278.681 5.38752 -4.4127 0
M  V30 3006 H 276.308 5.66859 -5.06533 0
M  V30 3007 N 277.883 0.443576 1.51229 0
M  V30 3008 C 278.846 -0.353132 2.26463 0
M  V30 3009 C 279.846 -0.944338 1.3015 0
M  V30 3010 O 281.036 -0.817813 1.5381 0
M  V30 3011 C 278.168 -1.50023 3.06114 0
M  V30 3012 H 279.361 0.3063 2.98332 0
M  V30 3013 H 276.914 0.196902 1.55055 0
M  V30 3014 H 277.649 -2.19553 2.38677 0
M  V30 3015 H 277.434 -1.08241 3.76864 0
M  V30 3016 H 278.924 -2.06296 3.63087 0
M  V30 3017 N 279.361 -1.56624 0.175154 0
M  V30 3018 C 280.586 -2.01813 -0.478137 0
M  V30 3019 C 281.011 -1.05457 -1.55757 0
M  V30 3020 O 280.369 -0.0347439 -1.81267 0
M  V30 3021 C 280.417 -3.45581 -1.02987 0
M  V30 3022 O 279.521 -3.52305 -2.14371 0
M  V30 3023 H 278.862 -0.65413 -0.114059 0
M  V30 3024 H 281.392 -2.02673 0.280173 0
M  V30 3025 H 281.402 -3.84965 -1.35151 0
M  V30 3026 H 280.077 -4.1521 -0.239556 0
M  V30 3027 H 278.654 -3.24783 -1.83222 0
M  V30 3028 N 280.839 0.0985539 -1.57292 0
M  V30 3029 C 282.088 0.801358 -1.85098 0
M  V30 3030 C 282.401 1.80066 -0.763902 0
M  V30 3031 O 283.607 2.55112 -0.928981 0
M  V30 3032 C 282.063 1.47599 -3.28242 0
M  V30 3033 C 281.671 0.516624 -4.45011 0
M  V30 3034 C 283.415 2.16272 -3.65276 0
M  V30 3035 C 281.322 1.19564 -5.79188 0
M  V30 3036 H 280.252 0.303022 -0.69043 0
M  V30 3037 H 282.903 0.0542623 -1.8342 0
M  V30 3038 H 281.285 2.27042 -3.2445 0
M  V30 3039 H 282.459 -0.246065 -4.60143 0
M  V30 3040 H 280.774 -0.064227 -4.1635 0
M  V30 3041 H 283.371 2.67802 -4.62803 0
M  V30 3042 H 283.714 2.95009 -2.93727 0
M  V30 3043 H 284.247 1.43693 -3.70941 0
M  V30 3044 H 280.986 0.449157 -6.53959 0
M  V30 3045 H 280.506 1.92984 -5.67906 0
M  V30 3046 H 282.185 1.7231 -6.23633 0
M  V30 3047 N 282.317 1.53212 0.369288 0
M  V30 3048 C 283.227 1.82342 1.47609 0
M  V30 3049 C 284.243 0.711532 1.58787 0
M  V30 3050 O 285.419 1.0012 1.74751 0
M  V30 3051 C 282.484 2.00393 2.8292 0
M  V30 3052 C 281.545 3.24297 2.81301 0
M  V30 3053 C 280.778 3.41478 4.10157 0
M  V30 3054 O 281.001 2.63033 5.06132 0
M  V30 3055 O 279.935 4.34817 4.16194 0
M  V30 3056 H 283.761 2.76366 1.25918 0
M  V30 3057 H 281.346 1.38547 0.559034 0
M  V30 3058 H 283.228 2.13859 3.63101 0
M  V30 3059 H 281.903 1.09559 3.04596 0
M  V30 3060 H 280.81 3.16257 1.99831 0
M  V30 3061 H 282.143 4.15041 2.64578 0
M  V30 3062 N 283.795 -0.628877 1.44509 0
M  V30 3063 C 284.728 -1.75367 1.46019 0
M  V30 3064 C 285.706 -1.59444 0.318787 0
M  V30 3065 O 286.89 -1.81297 0.516099 0
M  V30 3066 C 284.017 -3.12965 1.29501 0
M  V30 3067 C 283.063 -3.47532 2.47233 0
M  V30 3068 S 283.896 -3.44758 4.09758 0
M  V30 3069 C 285.052 -4.84973 3.95667 0
M  V30 3070 H 285.285 -1.7382 2.41193 0
M  V30 3071 H 282.818 -0.803686 1.31834 0
M  V30 3072 H 284.776 -3.92367 1.20658 0
M  V30 3073 H 283.437 -3.12049 0.358341 0
M  V30 3074 H 282.63 -4.47664 2.31544 0
M  V30 3075 H 282.232 -2.75598 2.52828 0
M  V30 3076 H 284.524 -5.74255 3.59496 0
M  V30 3077 H 285.467 -5.05716 4.95638 0
M  V30 3078 H 285.875 -4.59653 3.27688 0
M  V30 3079 N 285.273 -1.31445 -0.869486 0
M  V30 3080 C 286.522 -1.20517 -1.61736 0
M  V30 3081 C 286.835 0.235341 -1.94179 0
M  V30 3082 O 288.041 0.466312 -2.67465 0
M  V30 3083 C 286.497 -2.10982 -2.91573 0
M  V30 3084 C 286.105 -3.60032 -2.66611 0
M  V30 3085 C 287.849 -2.08856 -3.69567 0
M  V30 3086 C 285.756 -4.42503 -3.92358 0
M  V30 3087 H 284.686 -0.447493 -0.606849 0
M  V30 3088 H 287.337 -1.56303 -0.96133 0
M  V30 3089 H 285.719 -1.68095 -3.58553 0
M  V30 3090 H 286.893 -4.11167 -2.08035 0
M  V30 3091 H 285.208 -3.64139 -2.0197 0
M  V30 3092 H 287.805 -2.67716 -4.62852 0
M  V30 3093 H 288.148 -1.07582 -4.02159 0
M  V30 3094 H 288.681 -2.49945 -3.09471 0
M  V30 3095 H 285.42 -5.44533 -3.64916 0
M  V30 3096 H 284.94 -3.96125 -4.50383 0
M  V30 3097 H 286.619 -4.54741 -4.60238 0
M  V30 3098 N 286.751 1.08385 -1.14413 0
M  V30 3099 C 287.681 2.17321 -0.854044 0
M  V30 3100 C 288.662 1.69024 0.191049 0
M  V30 3101 O 289.847 1.94141 0.0476779 0
M  V30 3102 C 286.977 3.45719 -0.330983 0
M  V30 3103 C 285.931 4.07409 -1.31155 0
M  V30 3104 C 285.257 5.30762 -0.64778 0
M  V30 3105 C 286.557 4.48665 -2.67388 0
M  V30 3106 H 288.251 2.41845 -1.76498 0
M  V30 3107 H 285.797 1.16233 -0.850051 0
M  V30 3108 H 287.75 4.21241 -0.115645 0
M  V30 3109 H 286.474 3.2075 0.615381 0
M  V30 3110 H 285.133 3.33919 -1.51306 0
M  V30 3111 H 284.781 5.02078 0.304398 0
M  V30 3112 H 284.481 5.72992 -1.30207 0
M  V30 3113 H 286.005 6.08998 -0.441972 0
M  V30 3114 H 287.419 5.15364 -2.51143 0
M  V30 3115 H 285.816 5.01814 -3.29093 0
M  V30 3116 H 286.886 3.60543 -3.24248 0
M  V30 3117 N 288.23 0.939286 1.26551 0
M  V30 3118 C 289.455 0.602008 1.98471 0
M  V30 3119 C 289.88 -0.815624 1.69497 0
M  V30 3120 O 289.238 -1.54912 0.941905 0
M  V30 3121 C 289.286 0.848407 3.50477 0
M  V30 3122 O 288.39 -0.0804009 4.12322 0
M  V30 3123 H 287.731 0.23049 0.622712 0
M  V30 3124 H 290.261 1.2617 1.61066 0
M  V30 3125 H 290.271 0.768553 4.00696 0
M  V30 3126 H 288.946 1.88171 3.70897 0
M  V30 3127 H 287.523 0.0503508 3.72866 0
M  V30 3128 N 289.708 -1.40897 0.706093 0
M  V30 3129 C 290.656 -2.32572 0.0361893 0
M  V30 3130 C 291.65 -1.51532 -0.757266 0
M  V30 3131 O 292.856 -1.67396 -0.661703 0
M  V30 3132 H 289.231 -0.751966 -0.00709935 0
M  V30 3133 H 291.202 -2.86733 0.826249 0
M  V30 3134 C 289.951 -3.36418 -0.87854 0
M  V30 3135 H 289.274 -3.98836 -0.277401 0
M  V30 3136 H 290.714 -4.0308 -1.3154 0
M  V30 3137 C 289.173 -2.71141 -1.99961 0
M  V30 3138 O 289.703 -2.56735 -3.0895 0
M  V30 3139 N 287.909 -2.29671 -1.78043 0
M  V30 3140 H 287.456 -2.41588 -0.894042 0
M  V30 3141 H 287.414 -1.86332 -2.53235 0
M  V30 3142 N 291.186 -0.45159 -1.50991 0
M  V30 3143 C 292.597 0.00818571 -1.86698 0
M  V30 3144 C 292.948 1.40661 -1.3678 0
M  V30 3145 O 292.073 2.0391 -0.724546 0
M  V30 3146 C 292.668 0.0216303 -3.38793 0
M  V30 3147 C 291.227 0.425865 -3.73983 0
M  V30 3148 C 290.374 -0.372163 -2.74791 0
M  V30 3149 H 293.325 -0.666785 -1.44013 0
M  V30 3150 H 293.346 0.828078 -3.7138 0
M  V30 3151 H 292.858 -0.996288 -3.75094 0
M  V30 3152 H 290.959 1.44886 -3.43277 0
M  V30 3153 H 291.072 0.140761 -4.78893 0
M  V30 3154 H 289.436 0.171498 -2.54122 0
M  V30 3155 H 290.219 -1.38922 -3.13935 0
M  V30 3156 N 292.664 1.56529 -0.183458 0
M  V30 3157 C 294.075 1.83739 0.331177 0
M  V30 3158 C 294.426 1.10373 1.62211 0
M  V30 3159 O 293.551 0.36071 2.13373 0
M  V30 3160 C 294.146 3.33306 0.607646 0
M  V30 3161 C 292.705 3.60969 1.06668 0
M  V30 3162 C 291.852 2.77086 0.109029 0
M  V30 3163 H 294.803 1.53379 -0.407484 0
M  V30 3164 H 294.824 3.51444 1.45832 0
M  V30 3165 H 294.336 3.86677 -0.332086 0
M  V30 3166 H 292.437 3.13021 2.0211 0
M  V30 3167 H 292.55 4.69231 0.967447 0
M  V30 3168 H 290.914 2.47319 0.608714 0
M  V30 3169 H 291.697 3.33241 -0.82494 0
M  V30 3170 N 294.142 -0.090211 1.57342 0
M  V30 3171 C 295.372 -0.805055 1.90269 0
M  V30 3172 C 295.78 -1.72561 0.775842 0
M  V30 3173 O 295.123 -1.81839 -0.260843 0
M  V30 3174 C 295.185 -1.66734 3.18497 0
M  V30 3175 C 294.849 -0.918092 4.47683 0
M  V30 3176 C 295.846 -0.245674 5.19319 0
M  V30 3177 C 293.531 -0.890724 4.94339 0
M  V30 3178 C 295.525 0.444088 6.35851 0
M  V30 3179 C 293.212 -0.197179 6.10782 0
M  V30 3180 C 294.21 0.469044 6.81388 0
M  V30 3181 O 293.898 1.15146 7.95611 0
M  V30 3182 H 293.63 -0.235143 0.633785 0
M  V30 3183 H 296.184 -0.0703805 2.05279 0
M  V30 3184 H 294.414 -2.44437 2.99646 0
M  V30 3185 H 296.103 -2.25919 3.37217 0
M  V30 3186 H 296.869 -0.258246 4.84312 0
M  V30 3187 H 292.748 -1.39873 4.39268 0
M  V30 3188 H 296.292 0.964667 6.90898 0
M  V30 3189 H 292.189 -0.18247 6.45242 0
M  V30 3190 H 292.957 1.05885 8.11622 0
M  V30 3191 N 295.62 -1.53406 -0.361157 0
M  V30 3192 C 296.866 -1.70054 -1.10496 0
M  V30 3193 C 297.199 -0.453278 -1.88836 0
M  V30 3194 O 296.474 0.5495 -1.86576 0
M  V30 3195 C 296.757 -2.95317 -2.06058 0
M  V30 3196 C 296.61 -4.3021 -1.31298 0
M  V30 3197 C 297.929 -3.16193 -3.06121 0
M  V30 3198 H 295.048 -0.618799 -0.400321 0
M  V30 3199 H 297.69 -1.86052 -0.385318 0
M  V30 3200 H 295.84 -2.81809 -2.67425 0
M  V30 3201 H 297.512 -4.55538 -0.726807 0
M  V30 3202 H 295.755 -4.29421 -0.614853 0
M  V30 3203 H 296.426 -5.14 -2.01265 0
M  V30 3204 H 298.902 -3.28916 -2.5486 0
M  V30 3205 H 297.778 -4.05266 -3.70204 0
M  V30 3206 H 298.039 -2.31676 -3.76535 0
M  V30 3207 N 297.098 0.621204 -1.44841 0
M  V30 3208 C 298.045 1.73267 -1.5247 0
M  V30 3209 C 299.015 1.6189 -0.371611 0
M  V30 3210 O 300.2 1.81668 -0.58321 0
M  V30 3211 C 297.34 3.11545 -1.48438 0
M  V30 3212 C 296.453 3.33827 -2.74196 0
M  V30 3213 C 295.588 4.62133 -2.61929 0
M  V30 3214 C 294.627 4.77627 -3.82804 0
M  V30 3215 N 293.764 5.97219 -3.69153 0
M  V30 3216 H 298.604 1.66082 -2.47428 0
M  V30 3217 H 296.141 0.810026 -1.22788 0
M  V30 3218 H 298.099 3.91528 -1.4409 0
M  V30 3219 H 296.729 3.1772 -0.570402 0
M  V30 3220 H 295.781 2.47715 -2.88689 0
M  V30 3221 H 297.093 3.41153 -3.6389 0
M  V30 3222 H 296.247 5.50291 -2.5547 0
M  V30 3223 H 294.986 4.57182 -1.69811 0
M  V30 3224 H 293.991 3.87896 -3.89637 0
M  V30 3225 H 295.216 4.84385 -4.75971 0
M  V30 3226 H 293.162 5.93339 -2.79794 0
M  V30 3227 H 293.079 6.05644 -4.52472 0
M  V30 3228 H 294.347 6.87912 -3.66603 0
M  V30 3229 N 298.576 1.31904 0.862503 0
M  V30 3230 C 299.801 1.25135 1.65397 0
M  V30 3231 C 300.226 -0.179 1.87246 0
M  V30 3232 O 299.584 -1.1277 1.4196 0
M  V30 3233 C 299.632 2.00832 2.99498 0
M  V30 3234 O 298.736 1.35075 3.89652 0
M  V30 3235 H 298.077 0.431655 0.504549 0
M  V30 3236 H 300.607 1.74094 1.07483 0
M  V30 3237 H 300.617 2.10709 3.49379 0
M  V30 3238 H 299.292 3.04847 2.82916 0
M  V30 3239 H 297.869 1.33696 3.48109 0
M  V30 3240 N 300.054 -1.07777 1.14986 0
M  V30 3241 C 301.279 -1.84558 0.946213 0
M  V30 3242 C 301.704 -1.81323 -0.500362 0
M  V30 3243 O 301.062 -1.20301 -1.35637 0
M  V30 3244 C 301.11 -3.29736 1.45968 0
M  V30 3245 O 300.214 -4.07149 0.65601 0
M  V30 3246 H 299.555 -0.571641 0.33782 0
M  V30 3247 H 302.085 -1.35991 1.52865 0
M  V30 3248 H 302.095 -3.80574 1.47063 0
M  V30 3249 H 300.77 -3.31406 2.51283 0
M  V30 3250 H 299.347 -3.65994 0.714322 0
M  V30 3251 N 301.532 -0.945985 -1.26051 0
M  V30 3252 C 302.495 -0.463897 -2.24456 0
M  V30 3253 C 303.495 0.427655 -1.55009 0
M  V30 3254 O 304.685 0.226157 -1.72726 0
M  V30 3255 C 301.817 0.330812 -3.39291 0
M  V30 3256 H 303.01 -1.33357 -2.68619 0
M  V30 3257 H 300.563 -0.728416 -1.38289 0
M  V30 3258 H 301.298 1.21852 -3.00537 0
M  V30 3259 H 301.083 -0.308679 -3.90883 0
M  V30 3260 H 302.573 0.657865 -4.12386 0
M  V30 3261 N 303.011 1.40521 -0.713556 0
M  V30 3262 C 303.961 2.27971 -0.036165 0
M  V30 3263 C 304.945 1.43151 0.734623 0
M  V30 3264 O 306.137 1.66261 0.607158 0
M  V30 3265 C 303.266 3.31661 0.886331 0
M  V30 3266 C 302.352 4.23955 0.110836 0
M  V30 3267 N 302.743 4.97641 -0.904847 0
M  V30 3268 C 301.041 4.44674 0.343692 0
M  V30 3269 C 301.742 5.65322 -1.37064 0
M  V30 3270 N 300.718 5.39162 -0.693168 0
M  V30 3271 H 304.52 2.82384 -0.814645 0
M  V30 3272 H 302.034 1.52948 -0.545963 0
M  V30 3273 H 304.031 3.93154 1.38692 0
M  V30 3274 H 302.691 2.78808 1.66421 0
M  V30 3275 H 303.702 5.01689 -1.28563 0
M  V30 3276 H 300.379 4.02801 1.09805 0
M  V30 3277 H 301.769 6.34359 -2.21447 0
M  V30 3278 N 304.489 0.459591 1.5075 0
M  V30 3279 C 305.419 -0.330644 2.31147 0
M  V30 3280 C 306.4 -1.00087 1.37538 0
M  V30 3281 O 307.585 -1.00025 1.66459 0
M  V30 3282 C 304.715 -1.41958 3.16962 0
M  V30 3283 C 303.669 -0.871608 4.19031 0
M  V30 3284 C 302.995 -2.05797 4.9351 0
M  V30 3285 C 304.295 0.109251 5.22186 0
M  V30 3286 H 305.989 0.340336 2.97459 0
M  V30 3287 H 303.535 0.165119 1.4305 0
M  V30 3288 H 305.488 -1.9798 3.71997 0
M  V30 3289 H 304.212 -2.11917 2.48513 0
M  V30 3290 H 302.871 -0.333442 3.6508 0
M  V30 3291 H 302.519 -2.74427 4.21544 0
M  V30 3292 H 302.219 -1.6976 5.62544 0
M  V30 3293 H 303.743 -2.62331 5.51375 0
M  V30 3294 H 305.157 -0.361405 5.7216 0
M  V30 3295 H 303.554 0.383316 5.98875 0
M  V30 3296 H 304.624 1.03887 4.73641 0
M  V30 3297 N 305.967 -1.56429 0.191757 0
M  V30 3298 C 307.378 -1.83912 -0.321428 0
M  V30 3299 C 307.729 -1.11231 -1.61623 0
M  V30 3300 O 306.854 -0.37202 -2.13178 0
M  V30 3301 C 307.449 -3.33624 -0.589961 0
M  V30 3302 C 306.008 -3.6153 -1.04753 0
M  V30 3303 C 305.155 -2.7714 -0.0943327 0
M  V30 3304 H 308.106 -1.53161 0.415612 0
M  V30 3305 H 308.127 -3.52213 -1.43966 0
M  V30 3306 H 307.639 -3.86495 0.352588 0
M  V30 3307 H 305.74 -3.14089 -2.00447 0
M  V30 3308 H 305.853 -4.69737 -0.942549 0
M  V30 3309 H 304.217 -2.47638 -0.595589 0
M  V30 3310 H 305 -3.32799 0.842601 0
M  V30 3311 N 307.445 0.0818655 -1.57387 0
M  V30 3312 C 308.392 1.09834 -2.0299 0
M  V30 3313 C 309.362 1.39043 -0.908639 0
M  V30 3314 O 310.547 1.50282 -1.17559 0
M  V30 3315 C 307.687 2.40971 -2.47037 0
M  V30 3316 C 306.8 2.18379 -3.7274 0
M  V30 3317 C 305.935 3.43008 -4.0561 0
M  V30 3318 C 304.974 3.15736 -5.24383 0
M  V30 3319 N 304.111 4.32667 -5.52941 0
M  V30 3320 H 308.951 0.702472 -2.89602 0
M  V30 3321 H 306.488 0.33531 -1.43227 0
M  V30 3322 H 308.446 3.1752 -2.70623 0
M  V30 3323 H 307.076 2.78379 -1.63417 0
M  V30 3324 H 306.128 1.32569 -3.56552 0
M  V30 3325 H 307.44 1.94227 -4.59431 0
M  V30 3326 H 306.594 4.27958 -4.30043 0
M  V30 3327 H 305.333 3.70225 -3.17466 0
M  V30 3328 H 304.338 2.2918 -4.99757 0
M  V30 3329 H 305.563 2.8985 -6.14136 0
M  V30 3330 H 303.509 4.59935 -4.67756 0
M  V30 3331 H 303.426 4.11753 -6.34031 0
M  V30 3332 H 304.694 5.18644 -5.81918 0
M  V30 3333 N 308.923 1.53595 0.353017 0
M  V30 3334 C 310.2 1.61002 1.11075 0
M  V30 3335 C 310.58 0.425356 2.0677 0
M  V30 3336 O 309.928 -0.583267 2.2093 0
M  V30 3337 C 310.138 2.96631 1.83877 0
M  V30 3338 C 311.486 3.51653 2.37961 0
M  V30 3339 O 312.51 2.98743 1.93987 0
M  V30 3340 O 311.369 4.44177 3.18386 0
M  V30 3341 H 308.463 0.650825 0.510251 0
M  V30 3342 H 311.009 1.6594 0.35527 0
M  V30 3343 H 309.781 3.74293 1.14108 0
M  V30 3344 H 309.404 2.95242 2.66304 0
M  V30 3345 N 310.401 -0.613514 1.45168 0
M  V30 3346 C 311.647 -1.37471 1.49096 0
M  V30 3347 C 311.98 -1.93765 0.129901 0
M  V30 3348 O 311.255 -1.74707 -0.854858 0
M  V30 3349 C 311.538 -2.52701 2.56542 0
M  V30 3350 C 311.391 -2.01643 4.0207 0
M  V30 3351 C 312.71 -3.54849 2.60327 0
M  V30 3352 H 309.829 -0.498502 0.54283 0
M  V30 3353 H 312.471 -0.692125 1.76945 0
M  V30 3354 H 310.621 -3.10931 2.32926 0
M  V30 3355 H 312.293 -1.48108 4.36877 0
M  V30 3356 H 310.536 -1.32688 4.13009 0
M  V30 3357 H 311.207 -2.84681 4.72928 0
M  V30 3358 H 313.683 -3.0645 2.81474 0
M  V30 3359 H 312.559 -4.32973 3.37381 0
M  V30 3360 H 312.82 -4.10079 1.6519 0
M  V30 3361 N 311.879 -1.3236 -0.855495 0
M  V30 3362 C 312.809 -1.23833 -1.97958 0
M  V30 3363 C 313.79 -0.122361 -1.69659 0
M  V30 3364 O 314.975 -0.30939 -1.9172 0
M  V30 3365 C 312.105 -0.959772 -3.33775 0
M  V30 3366 C 311.059 -2.03689 -3.76424 0
M  V30 3367 C 310.385 -1.61075 -5.09862 0
M  V30 3368 C 311.685 -3.4518 -3.9198 0
M  V30 3369 H 313.379 -2.1788 -2.0535 0
M  V30 3370 H 310.925 -1.04891 -0.986605 0
M  V30 3371 H 312.878 -0.886678 -4.11966 0
M  V30 3372 H 311.602 0.0163404 -3.26596 0
M  V30 3373 H 310.261 -2.10012 -3.00484 0
M  V30 3374 H 309.909 -0.622107 -4.99138 0
M  V30 3375 H 309.609 -2.33143 -5.39368 0
M  V30 3376 H 311.133 -1.55201 -5.90546 0
M  V30 3377 H 312.547 -3.4145 -4.60526 0
M  V30 3378 H 310.944 -4.1559 -4.32903 0
M  V30 3379 H 312.014 -3.84903 -2.94919 0
M  V30 3380 N 313.357 1.07166 -1.15556 0
M  V30 3381 C 314.604 1.79798 -0.931604 0
M  V30 3382 C 314.932 1.8682 0.54115 0
M  V30 3383 O 314.187 1.34942 1.41736 0
M  V30 3384 C 314.486 3.24707 -1.49332 0
M  V30 3385 C 314.152 3.37781 -2.98688 0
M  V30 3386 C 312.814 3.41057 -3.39461 0
M  V30 3387 C 315.166 3.40424 -3.94665 0
M  V30 3388 C 312.494 3.4458 -4.74849 0
M  V30 3389 C 314.846 3.45485 -5.29927 0
M  V30 3390 C 313.51 3.47039 -5.70193 0
M  V30 3391 H 312.78 0.657928 -0.340898 0
M  V30 3392 H 315.427 1.26091 -1.44129 0
M  V30 3393 H 313.732 3.81208 -0.904859 0
M  V30 3394 H 315.429 3.79486 -1.29582 0
M  V30 3395 H 312.019 3.35932 -2.66172 0
M  V30 3396 H 316.203 3.37113 -3.64237 0
M  V30 3397 H 311.459 3.44083 -5.05388 0
M  V30 3398 H 315.633 3.46476 -6.04092 0
M  V30 3399 H 313.26 3.49522 -6.75084 0
M  V30 3400 N 314.835 0.952656 1.25548 0
M  V30 3401 C 315.745 0.47782 2.29682 0
M  V30 3402 C 316.761 -0.453859 1.67977 0
M  V30 3403 O 317.937 -0.330587 1.98668 0
M  V30 3404 C 315.002 -0.238655 3.45878 0
M  V30 3405 C 314.063 0.730994 4.23031 0
M  V30 3406 C 313.296 0.0486165 5.33678 0
M  V30 3407 O 313.519 -1.16612 5.58353 0
M  V30 3408 O 312.453 0.733152 5.97418 0
M  V30 3409 H 316.279 1.34312 2.72386 0
M  V30 3410 H 313.864 0.719026 1.30959 0
M  V30 3411 H 315.746 -0.641774 4.16484 0
M  V30 3412 H 314.421 -1.07916 3.05181 0
M  V30 3413 H 313.328 1.18428 3.5486 0
M  V30 3414 H 314.661 1.53946 4.67506 0
M  V30 3415 N 316.313 -1.40141 0.720998 0
M  V30 3416 C 317.724 -1.83678 0.334553 0
M  V30 3417 C 318.075 -1.6027 -1.13173 0
M  V30 3418 O 317.2 -1.08643 -1.87152 0
M  V30 3419 C 317.795 -3.33437 0.600437 0
M  V30 3420 C 316.354 -3.75447 0.267642 0
M  V30 3421 C 315.501 -2.63296 0.870097 0
M  V30 3422 H 318.452 -1.29331 0.919732 0
M  V30 3423 H 318.473 -3.80269 -0.132517 0
M  V30 3424 H 317.985 -3.50442 1.66768 0
M  V30 3425 H 316.086 -3.64035 -0.794329 0
M  V30 3426 H 316.199 -4.73344 0.74042 0
M  V30 3427 H 314.563 -2.52954 0.297739 0
M  V30 3428 H 315.346 -2.83112 1.94172 0
M  V30 3429 N 317.792 -0.46758 -1.50504 0
M  V30 3430 C 319.203 -0.0116166 -1.86696 0
M  V30 3431 C 319.554 1.39202 -1.38265 0
M  V30 3432 O 318.679 2.0313 -0.746132 0
M  V30 3433 C 319.274 -0.0143044 -3.38797 0
M  V30 3434 C 317.833 0.386175 -3.74414 0
M  V30 3435 C 316.98 -0.401287 -2.74381 0
M  V30 3436 H 319.931 -0.682022 -1.43297 0
M  V30 3437 H 319.952 0.788641 -3.72237 0
M  V30 3438 H 319.464 -1.03602 -3.74016 0
M  V30 3439 H 317.565 1.41237 -3.44794 0
M  V30 3440 H 317.678 0.0899596 -4.79016 0
M  V30 3441 H 316.042 0.144536 -2.5429 0
M  V30 3442 H 316.825 -1.42244 -3.12444 0
M  V30 3443 N 319.27 1.56325 -0.20005 0
M  V30 3444 C 320.18 2.22931 0.730668 0
M  V30 3445 C 321.196 1.22997 1.23076 0
M  V30 3446 O 322.372 1.55748 1.27689 0
M  V30 3447 C 319.437 2.87948 1.93098 0
M  V30 3448 C 318.498 4.03166 1.47497 0
M  V30 3449 C 317.731 4.65073 2.61807 0
M  V30 3450 O 317.954 4.25913 3.79413 0
M  V30 3451 O 316.888 5.54452 2.34237 0
M  V30 3452 H 320.714 3.03084 0.193391 0
M  V30 3453 H 318.299 1.49371 0.0294621 0
M  V30 3454 H 320.181 3.29063 2.6324 0
M  V30 3455 H 318.856 2.10771 2.45677 0
M  V30 3456 H 317.763 3.66664 0.742201 0
M  V30 3457 H 319.096 4.82022 0.995796 0
M  V30 3458 N 320.748 -0.0735177 1.57428 0
M  V30 3459 C 321.711 -1.07192 2.02589 0
M  V30 3460 C 322.711 -1.31695 0.922661 0
M  V30 3461 O 323.901 -1.27445 1.18758 0
M  V30 3462 C 321.033 -2.41599 2.40506 0
M  V30 3463 H 322.226 -0.682727 2.92025 0
M  V30 3464 H 319.779 -0.319193 1.53006 0
M  V30 3465 H 320.514 -2.85354 1.5409 0
M  V30 3466 H 320.299 -2.25156 3.21009 0
M  V30 3467 H 321.789 -3.13367 2.76027 0
M  V30 3468 N 322.226 -1.5378 -0.344866 0
M  V30 3469 C 323.156 -1.84662 -1.42906 0
M  V30 3470 C 324.137 -0.701648 -1.54955 0
M  V30 3471 O 325.322 -0.953438 -1.69184 0
M  V30 3472 C 322.452 -2.05503 -2.79974 0
M  V30 3473 C 321.406 -3.21318 -2.82734 0
M  V30 3474 C 320.732 -3.2749 -4.22675 0
M  V30 3475 C 322.032 -4.59456 -2.48389 0
M  V30 3476 H 323.726 -2.75461 -1.17311 0
M  V30 3477 H 321.272 -1.32542 -0.562896 0
M  V30 3478 H 323.225 -2.25691 -3.55867 0
M  V30 3479 H 321.949 -1.11434 -3.07002 0
M  V30 3480 H 320.608 -3.00984 -2.09294 0
M  V30 3481 H 320.256 -2.31019 -4.4681 0
M  V30 3482 H 319.956 -4.05316 -4.25433 0
M  V30 3483 H 321.48 -3.49887 -5.00412 0
M  V30 3484 H 322.894 -4.79667 -3.13995 0
M  V30 3485 H 321.291 -5.39675 -2.62432 0
M  V30 3486 H 322.361 -4.63155 -1.4358 0
M  V30 3487 N 323.704 0.605807 -1.45491 0
M  V30 3488 C 324.951 1.36476 -1.49601 0
M  V30 3489 C 325.279 1.94007 -0.138452 0
M  V30 3490 O 324.534 1.75638 0.863114 0
M  V30 3491 C 324.833 2.53012 -2.52428 0
M  V30 3492 C 324.499 2.13617 -3.97087 0
M  V30 3493 C 323.161 2.02587 -4.36477 0
M  V30 3494 C 325.513 1.82899 -4.88055 0
M  V30 3495 C 322.841 1.59064 -5.64726 0
M  V30 3496 C 325.193 1.40861 -6.16718 0
M  V30 3497 C 323.857 1.28391 -6.55036 0
M  V30 3498 H 323.127 0.499402 -0.547429 0
M  V30 3499 H 325.774 0.684546 -1.78847 0
M  V30 3500 H 324.079 3.26379 -2.16758 0
M  V30 3501 H 325.776 3.1124 -2.52845 0
M  V30 3502 H 322.366 2.23129 -3.65939 0
M  V30 3503 H 326.55 1.90317 -4.58359 0
M  V30 3504 H 321.806 1.48034 -5.93208 0
M  V30 3505 H 325.98 1.16138 -6.86648 0
M  V30 3506 H 323.607 0.944403 -7.54311 0
M  V30 3507 N 325.182 1.32811 0.848464 0
M  V30 3508 C 326.43 1.23479 1.59991 0
M  V30 3509 C 326.751 -0.201853 1.93952 0
M  V30 3510 O 326.021 -1.12818 1.60153 0
M  V30 3511 H 324.601 0.454034 0.593179 0
M  V30 3512 H 327.263 1.66412 1.01455 0
M  V30 3513 H 326.359 1.82178 2.53412 0
M  V30 3514 N 326.66 -1.06551 1.16123 0
M  V30 3515 C 327.908 -1.78947 0.939267 0
M  V30 3516 C 328.229 -1.87532 -0.534476 0
M  V30 3517 O 327.499 -1.38211 -1.38833 0
M  V30 3518 H 326.079 -0.662807 0.344523 0
M  V30 3519 H 328.741 -1.28725 1.46342 0
M  V30 3520 H 327.837 -2.81117 1.35572 0
M  V30 3521 N 328.138 -0.959301 -1.25041 0
M  V30 3522 C 329.048 -0.489994 -2.29426 0
M  V30 3523 C 330.064 0.444944 -1.68215 0
M  V30 3524 O 331.24 0.320046 -1.98841 0
M  V30 3525 C 328.305 0.220309 -3.45999 0
M  V30 3526 C 327.366 -0.753418 -4.22637 0
M  V30 3527 C 326.599 -0.076918 -5.33645 0
M  V30 3528 O 326.822 1.13649 -5.58963 0
M  V30 3529 O 325.756 -0.764824 -5.97021 0
M  V30 3530 H 329.582 -1.35755 -2.71669 0
M  V30 3531 H 327.167 -0.725961 -1.30576 0
M  V30 3532 H 329.049 0.619677 -4.16819 0
M  V30 3533 H 327.724 1.06296 -3.0575 0
M  V30 3534 H 326.631 -1.20308 -3.54227 0
M  V30 3535 H 327.964 -1.56423 -4.66683 0
M  V30 3536 N 329.616 1.39756 -0.72842 0
M  V30 3537 C 330.893 1.94574 -0.200079 0
M  V30 3538 C 331.273 1.66569 1.29684 0
M  V30 3539 O 330.621 0.990326 2.05924 0
M  V30 3540 C 330.831 3.45004 -0.526608 0
M  V30 3541 C 332.179 4.21965 -0.472318 0
M  V30 3542 O 333.203 3.53173 -0.463413 0
M  V30 3543 O 332.062 5.44552 -0.461075 0
M  V30 3544 H 329.156 0.826289 -0.0342851 0
M  V30 3545 H 331.702 1.49293 -0.806829 0
M  V30 3546 H 330.474 3.58796 -1.56144 0
M  V30 3547 H 330.097 3.97449 0.109449 0
M  V30 3548 N 331.094 0.475555 1.50254 0
M  V30 3549 C 332.342 -0.077738 2.0195 0
M  V30 3550 C 332.663 -1.39813 1.35931 0
M  V30 3551 O 331.933 -1.89249 0.506123 0
M  V30 3552 H 330.513 -0.031719 0.746326 0
M  V30 3553 H 333.175 0.626995 1.84539 0
M  V30 3554 H 332.271 -0.225995 3.11281 0
M  V30 3555 N 332.573 -1.56217 0.208337 0
M  V30 3556 C 333.503 -2.22694 -0.702116 0
M  V30 3557 C 334.484 -1.19432 -1.2112 0
M  V30 3558 O 335.669 -1.47978 -1.25762 0
M  V30 3559 C 332.799 -2.8966 -1.9161 0
M  V30 3560 C 331.753 -3.9928 -1.5414 0
M  V30 3561 C 331.079 -4.53476 -2.83308 0
M  V30 3562 C 332.379 -5.17012 -0.741339 0
M  V30 3563 H 334.073 -2.99034 -0.147898 0
M  V30 3564 H 331.619 -1.43831 -0.0696951 0
M  V30 3565 H 333.572 -3.34852 -2.55836 0
M  V30 3566 H 332.296 -2.10746 -2.49507 0
M  V30 3567 H 330.955 -3.54799 -0.922668 0
M  V30 3568 H 330.603 -3.71308 -3.39322 0
M  V30 3569 H 330.303 -5.27451 -2.58976 0
M  V30 3570 H 331.827 -5.01378 -3.485 0
M  V30 3571 H 333.241 -5.58667 -1.28699 0
M  V30 3572 H 331.638 -5.97137 -0.595627 0
M  V30 3573 H 332.708 -4.8423 0.254851 0
M  V30 3574 N 334.051 0.0651679 -1.57465 0
M  V30 3575 C 335.328 0.79644 -1.78651 0
M  V30 3576 C 335.708 1.95454 -0.797566 0
M  V30 3577 O 335.056 2.27882 0.167946 0
M  V30 3578 C 335.266 1.26322 -3.25337 0
M  V30 3579 C 336.614 1.6939 -3.89348 0
M  V30 3580 O 337.638 1.35872 -3.29268 0
M  V30 3581 O 336.497 2.31471 -4.95059 0
M  V30 3582 H 333.591 0.382157 -0.733407 0
M  V30 3583 H 336.137 0.0447311 -1.69641 0
M  V30 3584 H 334.909 0.434859 -3.88876 0
M  V30 3585 H 334.532 2.07604 -3.39096 0
M  V30 3586 N 335.529 1.53961 0.336706 0
M  V30 3587 C 336.776 1.71536 1.07618 0
M  V30 3588 C 337.104 0.482125 1.8843 0
M  V30 3589 O 336.359 -0.536142 1.88213 0
M  V30 3590 C 336.658 2.93493 2.03953 0
M  V30 3591 C 336.324 4.28811 1.39399 0
M  V30 3592 C 334.986 4.65602 1.21523 0
M  V30 3593 C 337.338 5.12844 0.929541 0
M  V30 3594 C 334.666 5.84037 0.558312 0
M  V30 3595 C 337.018 6.31951 0.286505 0
M  V30 3596 C 335.682 6.67432 0.0954869 0
M  V30 3597 H 334.952 0.627696 0.393801 0
M  V30 3598 H 337.599 1.88186 0.354715 0
M  V30 3599 H 335.904 2.71475 2.82504 0
M  V30 3600 H 337.601 3.04285 2.61174 0
M  V30 3601 H 334.191 3.99858 1.54311 0
M  V30 3602 H 338.375 4.84947 1.05548 0
M  V30 3603 H 333.631 6.10097 0.398995 0
M  V30 3604 H 337.805 6.96352 -0.0814376 0
M  V30 3605 H 335.432 7.59063 -0.415579 0
M  V30 3606 N 337.007 -0.598083 1.45811 0
M  V30 3607 C 338.237 -1.38121 1.53643 0
M  V30 3608 C 338.645 -1.88425 0.171081 0
M  V30 3609 O 337.988 -1.63409 -0.839237 0
M  V30 3610 C 338.05 -2.61432 2.46766 0
M  V30 3611 C 337.714 -2.32702 3.93318 0
M  V30 3612 C 338.711 -1.92479 4.82957 0
M  V30 3613 C 336.396 -2.45321 4.38318 0
M  V30 3614 C 338.39 -1.65248 6.15607 0
M  V30 3615 C 336.077 -2.17703 5.71007 0
M  V30 3616 C 337.075 -1.7773 6.5947 0
M  V30 3617 O 336.763 -1.50441 7.89698 0
M  V30 3618 H 336.495 -0.428863 0.522544 0
M  V30 3619 H 339.049 -0.73557 1.91777 0
M  V30 3620 H 337.279 -3.28749 2.0362 0
M  V30 3621 H 338.968 -3.23487 2.45175 0
M  V30 3622 H 339.734 -1.82258 4.49452 0
M  V30 3623 H 335.613 -2.75399 3.69697 0
M  V30 3624 H 339.157 -1.33973 6.84614 0
M  V30 3625 H 335.054 -2.27544 6.04065 0
M  V30 3626 H 335.822 -1.64415 8.01817 0
M  V30 3627 N 338.485 -1.33259 -0.841409 0
M  V30 3628 C 339.901 -1.12538 -1.13169 0
M  V30 3629 C 340.101 0.0854037 -2.01319 0
M  V30 3630 O 339.157 0.766417 -2.40587 0
M  V30 3631 C 340.47 -2.41156 -1.79623 0
M  V30 3632 C 342.018 -2.47038 -1.922 0
M  V30 3633 C 342.493 -3.7561 -2.6207 0
M  V30 3634 N 343.984 -3.76667 -2.69585 0
M  V30 3635 C 344.719 -4.72861 -3.2433 0
M  V30 3636 N 344.215 -5.79428 -3.79783 0
M  V30 3637 N 346.008 -4.6034 -3.22558 0
M  V30 3638 H 338.159 -2.10868 -0.254676 0
M  V30 3639 H 340.422 -0.931615 -0.175493 0
M  V30 3640 H 340.128 -3.29747 -1.22311 0
M  V30 3641 H 340.002 -2.53114 -2.79666 0
M  V30 3642 H 342.389 -1.58898 -2.48667 0
M  V30 3643 H 342.47 -2.39022 -0.911148 0
M  V30 3644 H 342.114 -4.64131 -2.06263 0
M  V30 3645 H 342.044 -3.80902 -3.63622 0
M  V30 3646 H 344.535 -2.99648 -2.30259 0
M  V30 3647 H 344.848 -6.48867 -4.19752 0
M  V30 3648 H 343.193 -5.83166 -3.78078 0
M  V30 3649 H 346.384 -3.76244 -2.78492 0
M  V30 3650 H 346.557 -5.35478 -3.64921 0
M  V30 3651 N 339.963 1.05934 -1.16686 0
M  V30 3652 C 340.873 2.17014 -0.891183 0
M  V30 3653 C 341.889 1.73453 0.137907 0
M  V30 3654 O 343.065 2.01361 -0.039592 0
M  V30 3655 C 340.13 3.44384 -0.400099 0
M  V30 3656 C 339.191 4.02433 -1.49486 0
M  V30 3657 C 338.424 5.23723 -1.02711 0
M  V30 3658 O 338.647 5.7027 0.121716 0
M  V30 3659 O 337.581 5.7382 -1.81699 0
M  V30 3660 H 341.407 2.43113 -1.82015 0
M  V30 3661 H 338.992 1.15541 -0.947132 0
M  V30 3662 H 340.874 4.21189 -0.133392 0
M  V30 3663 H 339.549 3.19802 0.500817 0
M  V30 3664 H 338.456 3.27102 -1.81535 0
M  V30 3665 H 339.789 4.31317 -2.37121 0
M  V30 3666 N 341.441 0.965919 1.2453 0
M  V30 3667 C 342.688 0.626831 1.92554 0
M  V30 3668 C 343.016 -0.837739 1.75534 0
M  V30 3669 O 342.271 -1.61793 1.10098 0
M  V30 3670 C 342.57 0.945428 3.44669 0
M  V30 3671 C 342.236 2.39785 3.81856 0
M  V30 3672 C 340.898 2.79483 3.91718 0
M  V30 3673 C 343.25 3.34055 4.00071 0
M  V30 3674 C 340.578 4.12496 4.1721 0
M  V30 3675 C 342.93 4.66694 4.27059 0
M  V30 3676 C 341.594 5.06172 4.3514 0
M  V30 3677 H 340.864 0.229374 0.704605 0
M  V30 3678 H 343.511 1.21707 1.4785 0
M  V30 3679 H 341.816 0.272926 3.90848 0
M  V30 3680 H 343.513 0.661484 3.95507 0
M  V30 3681 H 340.103 2.08003 3.74743 0
M  V30 3682 H 344.287 3.04571 3.91855 0
M  V30 3683 H 339.543 4.42709 4.21685 0
M  V30 3684 H 343.717 5.3971 4.40097 0
M  V30 3685 H 341.344 6.09262 4.54646 0
M  V30 3686 N 342.919 -1.39368 0.735821 0
M  V30 3687 C 344.166 -2.00497 0.284123 0
M  V30 3688 C 344.494 -1.58387 -1.12889 0
M  V30 3689 O 343.749 -0.804359 -1.78406 0
M  V30 3690 C 344.048 -3.5583 0.334651 0
M  V30 3691 C 343.714 -4.17593 1.7008 0
M  V30 3692 C 342.376 -4.34176 2.07472 0
M  V30 3693 C 344.728 -4.51848 2.59775 0
M  V30 3694 C 342.056 -4.82304 3.34065 0
M  V30 3695 C 344.408 -5.01384 3.85741 0
M  V30 3696 C 343.072 -5.16175 4.23225 0
M  V30 3697 H 342.342 -0.73367 0.103968 0
M  V30 3698 H 344.989 -1.66683 0.942825 0
M  V30 3699 H 343.294 -3.89674 -0.407625 0
M  V30 3700 H 344.991 -4.00986 -0.0329927 0
M  V30 3701 H 341.581 -4.05087 1.40008 0
M  V30 3702 H 345.765 -4.38653 2.32157 0
M  V30 3703 H 341.021 -4.91941 3.63049 0
M  V30 3704 H 345.195 -5.26863 4.55399 0
M  V30 3705 H 342.822 -5.5323 5.21384 0
M  V30 3706 N 344.397 -0.483516 -1.5 0
M  V30 3707 C 345.645 0.067027 -2.01989 0
M  V30 3708 C 345.966 1.3909 -1.36671 0
M  V30 3709 O 345.236 1.88978 -0.516152 0
M  V30 3710 H 343.816 0.0277606 -0.746484 0
M  V30 3711 H 346.478 -0.636773 -1.84204 0
M  V30 3712 H 345.574 0.209484 -3.11396 0
M  V30 3713 N 345.875 1.56104 -0.216619 0
M  V30 3714 C 347.291 1.58995 0.13886 0
M  V30 3715 C 347.491 1.23333 1.59346 0
M  V30 3716 O 346.547 0.966234 2.33281 0
M  V30 3717 C 347.86 3.00143 -0.182968 0
M  V30 3718 C 349.408 3.12751 -0.124807 0
M  V30 3719 C 349.883 4.56068 -0.420241 0
M  V30 3720 N 351.374 4.61723 -0.369634 0
M  V30 3721 C 352.109 5.70542 -0.571789 0
M  V30 3722 N 351.605 6.87744 -0.835453 0
M  V30 3723 N 353.398 5.59831 -0.504563 0
M  V30 3724 H 345.549 1.77562 -1.16557 0
M  V30 3725 H 347.812 0.825091 -0.466828 0
M  V30 3726 H 347.518 3.30871 -1.19237 0
M  V30 3727 H 347.392 3.73813 0.504367 0
M  V30 3728 H 349.779 2.81822 0.875223 0
M  V30 3729 H 349.86 2.41421 -0.845544 0
M  V30 3730 H 349.504 4.87713 -1.41769 0
M  V30 3731 H 349.434 5.25617 0.321631 0
M  V30 3732 H 351.925 3.77502 -0.173338 0
M  V30 3733 H 352.238 7.66587 -0.977938 0
M  V30 3734 H 350.583 6.895 -0.872592 0
M  V30 3735 H 353.774 4.67145 -0.298842 0
M  V30 3736 H 353.947 6.44573 -0.665519 0
M  V30 3737 N 347.353 -0.0568162 1.57498 0
M  V30 3738 C 348.583 -0.764515 1.91934 0
M  V30 3739 C 348.991 -1.70877 0.81227 0
M  V30 3740 O 348.334 -1.82351 -0.222213 0
M  V30 3741 C 348.396 -1.5994 3.21962 0
M  V30 3742 C 348.06 -0.822925 4.4953 0
M  V30 3743 C 349.057 -0.135464 5.19723 0
M  V30 3744 C 346.742 -0.785666 4.96117 0
M  V30 3745 C 348.736 0.578861 6.34766 0
M  V30 3746 C 346.423 -0.0675784 6.11063 0
M  V30 3747 C 347.421 0.613471 6.80239 0
M  V30 3748 O 347.109 1.31996 7.92989 0
M  V30 3749 H 346.841 -0.221647 0.63863 0
M  V30 3750 H 349.395 -0.0268218 2.05382 0
M  V30 3751 H 347.625 -2.38026 3.04763 0
M  V30 3752 H 349.314 -2.18715 3.41934 0
M  V30 3753 H 350.08 -0.155458 4.84751 0
M  V30 3754 H 345.959 -1.30524 4.42136 0
M  V30 3755 H 349.503 1.111 6.88696 0
M  V30 3756 H 345.4 -0.0455636 6.45484 0
M  V30 3757 H 346.168 1.23077 8.09194 0
M  V30 3758 N 348.832 -1.54138 -0.328536 0
M  V30 3759 C 350.109 -1.62749 -1.08499 0
M  V30 3760 C 350.489 -0.458198 -2.06067 0
M  V30 3761 O 349.837 0.548046 -2.2183 0
M  V30 3762 C 350.047 -2.99519 -1.79135 0
M  V30 3763 C 351.395 -3.55394 -2.32337 0
M  V30 3764 O 352.419 -3.01792 -1.89209 0
M  V30 3765 O 351.278 -4.49186 -3.11279 0
M  V30 3766 H 348.372 -0.65886 -0.499832 0
M  V30 3767 H 350.918 -1.66484 -0.328826 0
M  V30 3768 H 349.69 -3.76061 -1.08139 0
M  V30 3769 H 349.313 -2.99441 -2.61574 0
M  V30 3770 N 350.31 0.590341 -1.46126 0
M  V30 3771 C 351.538 1.37504 -1.54597 0
M  V30 3772 C 351.953 1.87897 -0.184447 0
M  V30 3773 O 351.31 1.63192 0.816984 0
M  V30 3774 C 351.361 2.56779 -2.54454 0
M  V30 3775 O 351.082 2.08476 -3.85317 0
M  V30 3776 C 352.583 3.49427 -2.72792 0
M  V30 3777 H 349.803 0.420325 -0.523037 0
M  V30 3778 H 352.347 0.718383 -1.91467 0
M  V30 3779 H 350.502 3.1845 -2.20609 0
M  V30 3780 H 350.916 2.86097 -4.396 0
M  V30 3781 H 352.39 4.29619 -3.466 0
M  V30 3782 H 352.867 4.00876 -1.79429 0
M  V30 3783 H 353.473 2.93598 -3.07702 0
M  V30 3784 N 351.788 1.33704 0.83433 0
M  V30 3785 C 353.013 1.28615 1.62705 0
M  V30 3786 C 353.438 -0.139242 1.87584 0
M  V30 3787 O 352.796 -1.09734 1.4432 0
M  V30 3788 C 352.844 2.07139 2.95171 0
M  V30 3789 O 351.948 1.4331 3.86699 0
M  V30 3790 H 351.289 0.44226 0.49528 0
M  V30 3791 H 353.819 1.76335 1.03766 0
M  V30 3792 H 353.829 2.18073 3.44831 0
M  V30 3793 H 352.504 3.10779 2.76386 0
M  V30 3794 H 351.081 1.4105 3.45195 0
M  V30 3795 N 353.266 -1.05314 1.17247 0
M  V30 3796 C 354.514 -1.77941 0.958194 0
M  V30 3797 C 354.835 -1.88089 -0.514556 0
M  V30 3798 O 354.105 -1.39676 -1.37359 0
M  V30 3799 H 352.685 -0.659116 0.351533 0
M  V30 3800 H 355.347 -1.27166 1.47699 0
M  V30 3801 H 354.443 -2.79663 1.38546 0
M  V30 3802 N 354.744 -0.972509 -1.24016 0
M  V30 3803 C 355.691 -0.505969 -2.25186 0
M  V30 3804 C 356.661 0.451009 -1.5986 0
M  V30 3805 O 357.846 0.360307 -1.87367 0
M  V30 3806 C 354.986 0.193089 -3.44559 0
M  V30 3807 C 354.099 -0.803222 -4.24467 0
M  V30 3808 C 353.234 -0.0797793 -5.3114 0
M  V30 3809 C 352.273 -1.06583 -6.02749 0
M  V30 3810 N 351.41 -0.372074 -7.01113 0
M  V30 3811 H 356.25 -1.37351 -2.64459 0
M  V30 3812 H 353.787 -0.688419 -1.29997 0
M  V30 3813 H 355.745 0.615125 -4.1264 0
M  V30 3814 H 354.375 1.02455 -3.06109 0
M  V30 3815 H 353.427 -1.34368 -3.55878 0
M  V30 3816 H 354.739 -1.55494 -4.73944 0
M  V30 3817 H 353.893 0.400015 -6.0538 0
M  V30 3818 H 352.632 0.704597 -4.82583 0
M  V30 3819 H 351.637 -1.55645 -5.27309 0
M  V30 3820 H 352.862 -1.85074 -6.53395 0
M  V30 3821 H 350.808 0.393238 -6.5482 0
M  V30 3822 H 350.725 -1.06258 -7.48495 0
M  V30 3823 H 351.993 0.0855932 -7.79453 0
M  V30 3824 N 356.222 1.38976 -0.743202 0
M  V30 3825 C 357.471 1.99581 -0.291592 0
M  V30 3826 C 357.784 1.59656 1.13001 0
M  V30 3827 O 358.99 2.13157 1.68156 0
M  V30 3828 C 357.446 3.56813 -0.470391 0
M  V30 3829 C 357.054 4.05695 -1.90041 0
M  V30 3830 C 358.798 4.24423 -0.0809709 0
M  V30 3831 C 356.705 5.5553 -2.02832 0
M  V30 3832 H 355.635 0.746615 -0.105272 0
M  V30 3833 H 358.286 1.58872 -0.918258 0
M  V30 3834 H 356.668 3.95359 0.225299 0
M  V30 3835 H 357.842 3.78464 -2.62872 0
M  V30 3836 H 356.157 3.50775 -2.24379 0
M  V30 3837 H 358.754 5.34474 -0.155445 0
M  V30 3838 H 359.097 4.04962 0.96497 0
M  V30 3839 H 359.63 3.9108 -0.728124 0
M  V30 3840 H 356.369 5.79881 -3.05643 0
M  V30 3841 H 355.889 5.84537 -1.34448 0
M  V30 3842 H 357.568 6.21069 -1.81335 0
M  V30 3843 N 357.7 0.491464 1.49741 0
M  V30 3844 C 358.946 -0.0565092 2.02721 0
M  V30 3845 C 359.279 -1.37522 1.37118 0
M  V30 3846 O 358.554 -1.87866 0.503645 0
M  V30 3847 C 358.837 -0.219051 3.59433 0
M  V30 3848 C 358.69 1.12211 4.35579 0
M  V30 3849 C 360.009 -0.964157 4.29409 0
M  V30 3850 H 357.128 -0.0190627 0.736753 0
M  V30 3851 H 359.77 0.641021 1.7886 0
M  V30 3852 H 357.92 -0.813165 3.79895 0
M  V30 3853 H 359.592 1.75437 4.26637 0
M  V30 3854 H 357.835 1.71377 3.98513 0
M  V30 3855 H 358.506 0.961794 5.43556 0
M  V30 3856 H 360.982 -0.460378 4.13545 0
M  V30 3857 H 359.858 -1.04671 5.38828 0
M  V30 3858 H 360.119 -2.00563 3.93988 0
M  V30 3859 N 359.178 -1.55987 0.224894 0
M  V30 3860 C 360.108 -2.23426 -0.678457 0
M  V30 3861 C 361.089 -1.20709 -1.19847 0
M  V30 3862 O 362.274 -1.49304 -1.24186 0
M  V30 3863 C 359.404 -2.91676 -1.88527 0
M  V30 3864 C 358.358 -4.00893 -1.49896 0
M  V30 3865 C 357.684 -4.56455 -2.78483 0
M  V30 3866 C 358.984 -5.17769 -0.686461 0
M  V30 3867 H 360.678 -2.99175 -0.116173 0
M  V30 3868 H 358.224 -1.43897 -0.054436 0
M  V30 3869 H 360.177 -3.37547 -2.5227 0
M  V30 3870 H 358.901 -2.1338 -2.47258 0
M  V30 3871 H 357.56 -3.55758 -0.884985 0
M  V30 3872 H 357.208 -3.74886 -3.35365 0
M  V30 3873 H 356.908 -5.30169 -2.53368 0
M  V30 3874 H 358.432 -5.05047 -3.43162 0
M  V30 3875 H 359.846 -5.60001 -1.22767 0
M  V30 3876 H 358.243 -5.97735 -0.532259 0
M  V30 3877 H 359.313 -4.83932 0.306196 0
M  V30 3878 N 360.656 0.0484629 -1.57525 0
M  V30 3879 C 361.589 1.08755 -2.00618 0
M  V30 3880 C 362.567 1.36272 -0.887058 0
M  V30 3881 O 363.751 1.49255 -1.15131 0
M  V30 3882 C 360.878 2.42675 -2.36277 0
M  V30 3883 C 359.924 2.31142 -3.58435 0
M  V30 3884 S 360.757 1.68326 -5.08357 0
M  V30 3885 C 361.913 3.03776 -5.47239 0
M  V30 3886 H 362.146 0.720415 -2.88439 0
M  V30 3887 H 359.679 0.257801 -1.52233 0
M  V30 3888 H 361.637 3.19699 -2.57494 0
M  V30 3889 H 360.298 2.76541 -1.48942 0
M  V30 3890 H 359.491 3.29957 -3.80978 0
M  V30 3891 H 359.093 1.62258 -3.36969 0
M  V30 3892 H 361.385 4.00106 -5.46737 0
M  V30 3893 H 362.328 2.85988 -6.47778 0
M  V30 3894 H 362.736 3.05456 -4.74718 0
M  V30 3895 N 362.134 1.5431 0.320358 0
M  V30 3896 C 363.044 1.86946 1.41734 0
M  V30 3897 C 364.06 0.761689 1.56443 0
M  V30 3898 O 365.236 1.05629 1.71477 0
M  V30 3899 C 362.301 2.09293 2.76401 0
M  V30 3900 C 361.362 3.33082 2.70841 0
M  V30 3901 C 360.595 3.54353 3.99086 0
M  V30 3902 O 360.818 2.79002 4.97508 0
M  V30 3903 O 359.752 4.47838 4.0215 0
M  V30 3904 H 363.578 2.80232 1.17062 0
M  V30 3905 H 361.163 1.40255 0.514673 0
M  V30 3906 H 363.045 2.25303 3.56113 0
M  V30 3907 H 361.72 1.19194 3.00956 0
M  V30 3908 H 360.627 3.22454 1.89668 0
M  V30 3909 H 361.96 4.23249 2.5124 0
M  V30 3910 N 363.613 -0.582584 1.46437 0
M  V30 3911 C 364.862 -1.337 1.5102 0
M  V30 3912 C 365.175 -1.94891 0.166359 0
M  V30 3913 O 366.381 -2.71351 0.0899954 0
M  V30 3914 C 364.837 -2.42315 2.66104 0
M  V30 3915 C 364.445 -1.87427 4.06909 0
M  V30 3916 C 366.189 -3.19099 2.79958 0
M  V30 3917 C 364.096 -2.93672 5.13333 0
M  V30 3918 H 363.026 -0.502619 0.562041 0
M  V30 3919 H 365.677 -0.621701 1.72647 0
M  V30 3920 H 364.059 -3.16645 2.37807 0
M  V30 3921 H 365.233 -1.19639 4.44998 0
M  V30 3922 H 363.548 -1.2331 3.97723 0
M  V30 3923 H 366.145 -3.9839 3.56636 0
M  V30 3924 H 366.488 -3.71695 1.87479 0
M  V30 3925 H 367.021 -2.51875 3.07902 0
M  V30 3926 H 363.76 -2.45962 6.07604 0
M  V30 3927 H 363.28 -3.59948 4.79789 0
M  V30 3928 H 364.959 -3.5762 5.39182 0
M  V30 3929 N 365.091 -1.34144 -0.827227 0
M  V30 3930 C 366.339 -1.26009 -1.58007 0
M  V30 3931 C 366.66 0.170971 -1.94249 0
M  V30 3932 O 365.93 1.10256 -1.61927 0
M  V30 3933 H 364.51 -0.463414 -0.585881 0
M  V30 3934 H 367.172 -1.68005 -0.987951 0
M  V30 3935 H 366.268 -1.86187 -2.50481 0
M  V30 3936 N 366.569 1.04691 -1.17803 0
M  V30 3937 C 367.479 2.16057 -0.914151 0
M  V30 3938 C 368.495 1.73589 0.119503 0
M  V30 3939 O 369.671 2.01308 -0.0609468 0
M  V30 3940 C 366.736 3.4394 -0.436603 0
M  V30 3941 C 365.797 4.00825 -1.53746 0
M  V30 3942 C 365.03 5.22604 -1.0826 0
M  V30 3943 O 365.253 5.70367 0.0612244 0
M  V30 3944 O 364.187 5.7186 -1.87775 0
M  V30 3945 H 368.013 2.41169 -1.84584 0
M  V30 3946 H 365.598 1.1453 -0.959334 0
M  V30 3947 H 367.48 4.21024 -0.178057 0
M  V30 3948 H 366.155 3.20316 0.466869 0
M  V30 3949 H 365.062 3.25158 -1.84995 0
M  V30 3950 H 366.395 4.28778 -2.41683 0
M  V30 3951 N 368.047 0.979072 1.23499 0
M  V30 3952 C 369.324 0.563674 1.87302 0
M  V30 3953 C 369.704 -0.959199 1.88049 0
M  V30 3954 O 369.052 -1.83535 1.36114 0
M  V30 3955 C 369.262 1.16822 3.28867 0
M  V30 3956 C 370.61 1.26014 4.0547 0
M  V30 3957 O 371.634 1.12158 3.38082 0
M  V30 3958 O 370.493 1.48044 5.26066 0
M  V30 3959 H 367.587 0.189602 0.804972 0
M  V30 3960 H 370.133 1.07407 1.31384 0
M  V30 3961 H 368.905 2.21049 3.22883 0
M  V30 3962 H 368.528 0.642564 3.92373 0
M  V30 3963 N 369.525 -1.3858 0.750561 0
M  V30 3964 C 370.457 -2.29057 0.0810714 0
M  V30 3965 C 371.47 -1.47596 -0.686973 0
M  V30 3966 O 372.659 -1.70495 -0.528563 0
M  V30 3967 C 369.759 -3.26475 -0.909247 0
M  V30 3968 C 368.932 -4.36945 -0.199478 0
M  V30 3969 C 367.991 -5.14572 -1.10011 0
M  V30 3970 O 367.017 -5.66321 -0.57177 0
M  V30 3971 N 368.219 -5.27262 -2.42849 0
M  V30 3972 H 370.984 -2.87153 0.858087 0
M  V30 3973 H 368.545 -1.50328 0.60109 0
M  V30 3974 H 370.537 -3.75285 -1.51471 0
M  V30 3975 H 369.107 -2.69298 -1.58736 0
M  V30 3976 H 368.327 -3.8981 0.586664 0
M  V30 3977 H 369.615 -5.07963 0.291783 0
M  V30 3978 H 369.013 -4.86763 -2.88233 0
M  V30 3979 H 367.57 -5.79456 -2.98453 0
M  V30 3980 N 371.003 -0.499398 -1.49478 0
M  V30 3981 C 372.249 0.0457576 -2.02748 0
M  V30 3982 C 372.582 1.36793 -1.37846 0
M  V30 3983 O 371.857 1.87596 -0.513601 0
M  V30 3984 C 372.14 0.199986 -3.59544 0
M  V30 3985 C 371.993 -1.1452 -4.34977 0
M  V30 3986 C 373.312 0.94137 -4.29914 0
M  V30 3987 H 370.431 0.0151552 -0.736844 0
M  V30 3988 H 373.073 -0.650498 -1.78518 0
M  V30 3989 H 371.223 0.793007 -3.8032 0
M  V30 3990 H 372.895 -1.77697 -4.25701 0
M  V30 3991 H 371.138 -1.73488 -3.97598 0
M  V30 3992 H 371.809 -0.990607 -5.43039 0
M  V30 3993 H 374.285 0.43844 -4.13784 0
M  V30 3994 H 373.161 1.01812 -5.39375 0
M  V30 3995 H 373.422 1.98471 -3.95046 0
M  V30 3996 N 372.481 1.55866 -0.233164 0
M  V30 3997 C 373.391 2.24431 0.683217 0
M  V30 3998 C 374.407 1.2558 1.2044 0
M  V30 3999 O 375.583 1.58422 1.24356 0
M  V30 4000 C 372.648 2.91979 1.86947 0
M  V30 4001 C 371.709 4.06204 1.38912 0
M  V30 4002 C 370.942 4.70522 2.51883 0
M  V30 4003 O 371.165 4.33865 3.70293 0
M  V30 4004 O 370.099 5.59296 2.22423 0
M  V30 4005 H 373.925 3.03426 0.129059 0
M  V30 4006 H 371.51 1.494 -0.0022283 0
M  V30 4007 H 373.392 3.34573 2.56201 0
M  V30 4008 H 372.067 2.15935 2.41151 0
M  V30 4009 H 370.974 3.68155 0.664259 0
M  V30 4010 H 372.307 4.84025 0.893328 0
M  V30 4011 N 373.959 -0.0401083 1.57549 0
M  V30 4012 C 374.869 -1.06133 2.0922 0
M  V30 4013 C 375.885 -1.40356 1.0284 0
M  V30 4014 O 377.061 -1.49897 1.34509 0
M  V30 4015 C 374.126 -2.34658 2.55218 0
M  V30 4016 C 373.187 -2.07117 3.76033 0
M  V30 4017 C 372.42 -3.29514 4.19829 0
M  V30 4018 O 372.643 -4.39794 3.63232 0
M  V30 4019 O 371.577 -3.15863 5.12362 0
M  V30 4020 H 375.403 -0.652244 2.96613 0
M  V30 4021 H 372.988 -0.256368 1.47184 0
M  V30 4022 H 374.87 -3.10239 2.85184 0
M  V30 4023 H 373.545 -2.74883 1.70941 0
M  V30 4024 H 372.452 -1.29139 3.51104 0
M  V30 4025 H 373.785 -1.71754 4.61261 0
M  V30 4026 N 375.437 -1.54477 -0.31217 0
M  V30 4027 C 376.367 -1.87652 -1.38957 0
M  V30 4028 C 377.348 -0.734358 -1.53431 0
M  V30 4029 O 378.533 -0.98911 -1.67123 0
M  V30 4030 C 375.663 -2.11396 -2.75552 0
M  V30 4031 C 374.617 -3.27243 -2.75855 0
M  V30 4032 C 373.943 -3.36382 -4.15633 0
M  V30 4033 C 375.243 -4.64622 -2.38587 0
M  V30 4034 H 376.937 -2.77887 -1.11442 0
M  V30 4035 H 374.483 -1.33707 -0.534655 0
M  V30 4036 H 376.436 -2.33189 -3.51 0
M  V30 4037 H 375.16 -1.17921 -3.04569 0
M  V30 4038 H 373.819 -3.05356 -2.02863 0
M  V30 4039 H 373.467 -2.40445 -4.41809 0
M  V30 4040 H 373.167 -4.14249 -4.1674 0
M  V30 4041 H 374.691 -3.60422 -4.92877 0
M  V30 4042 H 376.105 -4.86219 -3.03749 0
M  V30 4043 H 374.502 -5.45121 -2.50925 0
M  V30 4044 H 375.572 -4.66097 -1.33723 0
M  V30 4045 N 376.915 0.57481 -1.46744 0
M  V30 4046 C 377.862 1.68329 -1.57905 0
M  V30 4047 C 378.832 1.60625 -0.422927 0
M  V30 4048 O 380.017 1.79721 -0.640711 0
M  V30 4049 C 377.157 3.06665 -1.58274 0
M  V30 4050 C 376.27 3.24935 -2.84678 0
M  V30 4051 C 375.405 4.53566 -2.76499 0
M  V30 4052 C 374.444 4.65207 -3.97806 0
M  V30 4053 N 373.581 5.85172 -3.87967 0
M  V30 4054 H 378.421 1.58127 -2.52587 0
M  V30 4055 H 375.958 0.770552 -1.25303 0
M  V30 4056 H 377.916 3.86745 -1.56473 0
M  V30 4057 H 376.546 3.15745 -0.671194 0
M  V30 4058 H 375.598 2.38405 -2.96424 0
M  V30 4059 H 376.91 3.29403 -3.7456 0
M  V30 4060 H 376.064 5.41885 -2.72848 0
M  V30 4061 H 374.803 4.51548 -1.8427 0
M  V30 4062 H 373.808 3.75304 -4.0178 0
M  V30 4063 H 375.033 4.68997 -4.9114 0
M  V30 4064 H 372.979 5.84137 -2.98529 0
M  V30 4065 H 372.896 5.90943 -4.71511 0
M  V30 4066 H 374.164 6.759 -3.88303 0
M  V30 4067 N 378.394 1.34581 0.820102 0
M  V30 4068 C 379.341 1.2639 1.93117 0
M  V30 4069 C 380.311 0.138554 1.65521 0
M  V30 4070 O 381.496 0.320004 1.88097 0
M  V30 4071 C 378.636 1.02812 3.29429 0
M  V30 4072 C 377.749 2.24146 3.693 0
M  V30 4073 C 376.884 1.93829 4.94574 0
M  V30 4074 C 375.923 3.1129 5.27034 0
M  V30 4075 N 375.06 2.80838 6.43486 0
M  V30 4076 H 379.9 2.21408 1.99455 0
M  V30 4077 H 377.437 1.10077 0.975784 0
M  V30 4078 H 379.395 0.871788 4.0799 0
M  V30 4079 H 378.025 0.114612 3.22596 0
M  V30 4080 H 377.077 2.50691 2.86109 0
M  V30 4081 H 378.389 3.11899 3.89257 0
M  V30 4082 H 377.543 1.74948 5.80929 0
M  V30 4083 H 376.282 1.03341 4.76626 0
M  V30 4084 H 375.287 3.30764 4.39175 0
M  V30 4085 H 376.512 4.02561 5.4692 0
M  V30 4086 H 374.458 1.92929 6.26988 0
M  V30 4087 H 374.375 3.62123 6.63629 0
M  V30 4088 H 375.643 2.65467 7.32903 0
M  V30 4089 N 379.872 -1.04064 1.18357 0
M  V30 4090 C 381.121 -1.76662 0.973313 0
M  V30 4091 C 381.434 -1.89154 -0.497991 0
M  V30 4092 O 382.64 -2.58606 -0.826762 0
M  V30 4093 C 381.096 -3.17624 1.69242 0
M  V30 4094 C 380.704 -3.13225 3.20303 0
M  V30 4095 C 382.448 -3.946 1.56497 0
M  V30 4096 C 380.355 -4.49046 3.84853 0
M  V30 4097 H 379.285 -0.662214 0.36054 0
M  V30 4098 H 381.936 -1.16553 1.41731 0
M  V30 4099 H 380.318 -3.78129 1.1762 0
M  V30 4100 H 381.492 -2.62172 3.78949 0
M  V30 4101 H 379.807 -2.49749 3.33189 0
M  V30 4102 H 382.404 -4.95042 2.02084 0
M  V30 4103 H 382.747 -4.13074 0.517243 0
M  V30 4104 H 383.28 -3.4067 2.05399 0
M  V30 4105 H 380.019 -4.35777 4.89672 0
M  V30 4106 H 379.539 -5.00203 3.30994 0
M  V30 4107 H 381.218 -5.17961 3.87718 0
M  V30 4108 N 381.35 -0.985608 -1.22978 0
M  V30 4109 C 382.596 -0.65836 -1.91816 0
M  V30 4110 C 382.929 0.806692 -1.76653 0
M  V30 4111 O 382.204 1.58252 -1.13078 0
M  V30 4112 C 382.487 -1.056 -3.44268 0
M  V30 4113 C 382.34 -2.57906 -3.68516 0
M  V30 4114 C 383.659 -0.603781 -4.35939 0
M  V30 4115 H 380.778 -0.24065 -0.696604 0
M  V30 4116 H 383.42 -1.22783 -1.44998 0
M  V30 4117 H 381.57 -0.571445 -3.84274 0
M  V30 4118 H 383.242 -3.13976 -3.3796 0
M  V30 4119 H 381.485 -3.00305 -3.13048 0
M  V30 4120 H 382.156 -2.80779 -4.75255 0
M  V30 4121 H 384.632 -1.01987 -4.03408 0
M  V30 4122 H 383.508 -0.910383 -5.41298 0
M  V30 4123 H 383.769 0.495761 -4.39312 0
M  V30 4124 N 382.828 1.3818 -0.7579 0
M  V30 4125 C 384.053 2.04827 -0.325679 0
M  V30 4126 C 384.478 1.56788 1.03919 0
M  V30 4127 O 383.836 0.721811 1.66312 0
M  V30 4128 C 383.884 3.58774 -0.362447 0
M  V30 4129 O 382.988 4.07372 0.642033 0
M  V30 4130 H 382.329 0.64833 -0.143402 0
M  V30 4131 H 384.859 1.7677 -1.03023 0
M  V30 4132 H 384.869 4.07434 -0.214844 0
M  V30 4133 H 383.544 3.93096 -1.35824 0
M  V30 4134 H 382.121 3.70068 0.458688 0
M  V30 4135 N 384.306 0.507319 1.49211 0
M  V30 4136 C 385.583 -0.0982702 1.95353 0
M  V30 4137 C 385.963 -1.53516 1.449 0
M  V30 4138 O 385.311 -2.18594 0.66551 0
M  V30 4139 C 385.521 -0.00440283 3.49 0
M  V30 4140 C 386.869 -0.175147 4.24239 0
M  V30 4141 O 387.893 -0.0792891 3.56112 0
M  V30 4142 O 386.752 -0.37276 5.45227 0
M  V30 4143 H 383.846 -0.0918236 0.821887 0
M  V30 4144 H 386.392 0.570307 1.5983 0
M  V30 4145 H 385.164 0.997402 3.78375 0
M  V30 4146 H 384.787 -0.712845 3.91158 0
M  V30 4147 N 385.784 -1.5574 0.241426 0
M  V30 4148 C 387.012 -2.03208 -0.389134 0
M  V30 4149 C 387.427 -1.12082 -1.51931 0
M  V30 4150 O 386.784 -0.134183 -1.82006 0
M  V30 4151 C 386.835 -3.50064 -0.902087 0
M  V30 4152 O 386.556 -4.37717 0.18305 0
M  V30 4153 C 388.057 -4.13268 -1.60389 0
M  V30 4154 H 385.277 -0.664509 -0.0931053 0
M  V30 4155 H 387.821 -2.0124 0.36369 0
M  V30 4156 H 385.976 -3.52583 -1.60511 0
M  V30 4157 H 386.39 -5.24097 -0.205579 0
M  V30 4158 H 387.864 -5.17733 -1.91458 0
M  V30 4159 H 388.341 -3.59434 -2.52397 0
M  V30 4160 H 388.947 -4.14655 -0.945576 0
M  V30 4161 N 387.262 0.0317525 -1.57568 0
M  V30 4162 C 388.508 0.724175 -1.8943 0
M  V30 4163 C 388.841 1.75149 -0.838836 0
M  V30 4164 O 388.116 1.93948 0.146422 0
M  V30 4165 C 388.399 1.39615 -3.31933 0
M  V30 4166 C 388.252 0.382537 -4.4817 0
M  V30 4167 C 389.571 2.33084 -3.73309 0
M  V30 4168 H 386.69 0.261797 -0.688935 0
M  V30 4169 H 389.332 -0.013017 -1.89996 0
M  V30 4170 H 387.482 2.02451 -3.31581 0
M  V30 4171 H 389.154 -0.243689 -4.60656 0
M  V30 4172 H 387.397 -0.29844 -4.32772 0
M  V30 4173 H 388.068 0.891145 -5.44759 0
M  V30 4174 H 390.544 1.80295 -3.7501 0
M  V30 4175 H 389.42 2.77084 -4.73831 0
M  V30 4176 H 389.681 3.19643 -3.05419 0
M  V30 4177 N 388.74 1.54641 0.303973 0
M  V30 4178 C 389.987 1.7378 1.03955 0
M  V30 4179 C 390.315 0.521986 1.87365 0
M  V30 4180 O 389.57 -0.496099 1.89308 0
M  V30 4181 C 389.869 2.97753 1.97681 0
M  V30 4182 C 389.535 4.31671 1.30271 0
M  V30 4183 C 388.197 4.68075 1.11619 0
M  V30 4184 C 390.549 5.147 0.82055 0
M  V30 4185 C 387.877 5.8509 0.434304 0
M  V30 4186 C 390.229 6.32416 0.152395 0
M  V30 4187 C 388.893 6.67484 -0.0461067 0
M  V30 4188 H 388.163 0.635908 0.380398 0
M  V30 4189 H 390.81 1.88896 0.314718 0
M  V30 4190 H 389.115 2.77406 2.76682 0
M  V30 4191 H 390.812 3.09756 2.54661 0
M  V30 4192 H 387.402 4.03041 1.45795 0
M  V30 4193 H 391.586 4.87077 0.952374 0
M  V30 4194 H 386.842 6.10806 0.269495 0
M  V30 4195 H 391.016 6.96023 -0.229126 0
M  V30 4196 H 388.643 7.58011 -0.576494 0
M  V30 4197 N 390.218 -0.567019 1.47046 0
M  V30 4198 C 391.148 -1.68482 1.61667 0
M  V30 4199 C 392.129 -1.6358 0.466418 0
M  V30 4200 O 393.314 -1.81354 0.694574 0
M  V30 4201 C 390.444 -3.07124 1.62148 0
M  V30 4202 C 389.398 -3.26867 2.76301 0
M  V30 4203 C 388.724 -4.66196 2.61849 0
M  V30 4204 C 390.024 -3.13186 4.17986 0
M  V30 4205 H 391.718 -1.56502 2.5524 0
M  V30 4206 H 389.264 -0.751486 1.22836 0
M  V30 4207 H 391.217 -3.8516 1.70968 0
M  V30 4208 H 389.941 -3.2004 0.651287 0
M  V30 4209 H 388.6 -2.51237 2.66975 0
M  V30 4210 H 388.248 -4.75898 1.62879 0
M  V30 4211 H 387.948 -4.80356 3.38425 0
M  V30 4212 H 389.472 -5.46379 2.72584 0
M  V30 4213 H 390.886 -3.81049 4.2834 0
M  V30 4214 H 389.283 -3.3886 4.95272 0
M  V30 4215 H 390.353 -2.10057 4.3704 0
M  V30 4216 N 391.696 -1.35014 -0.812953 0
M  V30 4217 C 392.643 -1.27412 -1.92444 0
M  V30 4218 C 393.613 -0.14733 -1.65445 0
M  V30 4219 O 394.798 -0.329974 -1.87925 0
M  V30 4220 C 391.938 -1.04558 -3.28879 0
M  V30 4221 C 391.051 -2.26101 -3.68106 0
M  V30 4222 C 390.186 -1.96449 -4.9354 0
M  V30 4223 C 389.225 -3.14081 -5.25376 0
M  V30 4224 N 388.362 -2.84246 -6.41988 0
M  V30 4225 H 393.202 -2.22463 -1.98278 0
M  V30 4226 H 390.739 -1.10593 -0.969933 0
M  V30 4227 H 392.697 -0.893413 -4.07522 0
M  V30 4228 H 391.327 -0.131719 -3.22531 0
M  V30 4229 H 390.379 -2.52204 -2.84775 0
M  V30 4230 H 391.691 -3.13959 -3.87597 0
M  V30 4231 H 390.845 -1.78026 -5.79993 0
M  V30 4232 H 389.584 -1.05867 -4.76071 0
M  V30 4233 H 388.589 -3.33089 -4.37415 0
M  V30 4234 H 389.814 -4.05455 -5.44778 0
M  V30 4235 H 387.76 -1.96252 -6.25956 0
M  V30 4236 H 387.677 -3.65637 -6.61699 0
M  V30 4237 H 388.945 -2.6935 -7.31485 0
M  V30 4238 N 393.175 1.03435 -1.18907 0
M  V30 4239 C 394.452 1.73778 -0.89781 0
M  V30 4240 C 394.832 2.02458 0.597832 0
M  V30 4241 O 394.18 1.67482 1.55441 0
M  V30 4242 C 394.39 3.01845 -1.75187 0
M  V30 4243 C 395.738 3.7546 -1.9828 0
M  V30 4244 O 396.762 3.11759 -1.72293 0
M  V30 4245 O 395.621 4.89966 -2.42065 0
M  V30 4246 H 392.715 0.75651 -0.334098 0
M  V30 4247 H 395.261 1.09444 -1.29693 0
M  V30 4248 H 394.033 2.76836 -2.76545 0
M  V30 4249 H 393.656 3.73919 -1.35167 0
M  V30 4250 N 394.653 0.992116 1.22453 0
M  V30 4251 C 395.878 0.685644 1.95739 0
M  V30 4252 C 396.303 -0.743 1.72804 0
M  V30 4253 O 395.661 -1.50778 1.00676 0
M  V30 4254 C 395.709 0.996293 3.46564 0
M  V30 4255 O 394.813 0.0945512 4.12292 0
M  V30 4256 H 394.154 0.256694 0.612376 0
M  V30 4257 H 396.684 1.32888 1.5557 0
M  V30 4258 H 396.694 0.93781 3.97076 0
M  V30 4259 H 395.369 2.03733 3.62582 0
M  V30 4260 H 393.946 0.208451 3.72317 0
M  V30 4261 N 396.131 -1.37776 0.765217 0
M  V30 4262 C 397.094 -2.28686 0.153416 0
M  V30 4263 C 398.094 -1.47727 -0.635081 0
M  V30 4264 O 399.284 -1.68027 -0.459632 0
M  V30 4265 C 396.416 -3.31608 -0.790495 0
M  V30 4266 H 397.609 -2.84297 0.954723 0
M  V30 4267 H 395.162 -1.46932 0.53299 0
M  V30 4268 H 395.897 -2.81109 -1.61705 0
M  V30 4269 H 395.682 -3.9144 -0.227348 0
M  V30 4270 H 397.172 -3.99559 -1.21419 0
M  V30 4271 N 397.609 -0.515225 -1.4894 0
M  V30 4272 C 398.857 0.0241671 -2.02086 0
M  V30 4273 C 399.178 1.3616 -1.3959 0
M  V30 4274 O 398.448 1.87841 -0.556121 0
M  V30 4275 H 397.028 0.0119203 -0.746905 0
M  V30 4276 H 399.69 -0.675702 -1.82812 0
M  V30 4277 H 398.786 0.143385 -3.1177 0
M  V30 4278 N 399.087 1.5561 -0.249682 0
M  V30 4279 C 400.034 2.21496 0.648694 0
M  V30 4280 C 401.004 1.17977 1.16921 0
M  V30 4281 O 402.189 1.46434 1.22318 0
M  V30 4282 C 399.329 2.92039 1.83868 0
M  V30 4283 C 398.442 4.10219 1.35442 0
M  V30 4284 C 397.577 4.6847 2.50419 0
M  V30 4285 C 396.616 5.78893 1.98869 0
M  V30 4286 N 395.753 6.31315 3.07223 0
M  V30 4287 H 400.593 2.97892 0.0801582 0
M  V30 4288 H 398.13 1.47074 0.0278031 0
M  V30 4289 H 400.088 3.31138 2.53778 0
M  V30 4290 H 398.718 2.18111 2.37965 0
M  V30 4291 H 397.77 3.76413 0.54928 0
M  V30 4292 H 399.082 4.89927 0.936649 0
M  V30 4293 H 398.236 5.10158 3.28366 0
M  V30 4294 H 396.975 3.87984 2.95499 0
M  V30 4295 H 395.98 5.3668 1.19393 0
M  V30 4296 H 397.205 6.61232 1.54755 0
M  V30 4297 H 395.151 5.53733 3.51732 0
M  V30 4298 H 395.068 7.06224 2.69784 0
M  V30 4299 H 396.336 6.77662 3.8522 0
M  V30 4300 N 400.565 -0.0233959 1.57583 0
M  V30 4301 C 401.795 -0.723631 1.93513 0
M  V30 4302 C 402.203 -1.69115 0.848333 0
M  V30 4303 O 401.546 -1.82781 -0.183484 0
M  V30 4304 C 401.608 -1.53075 3.25282 0
M  V30 4305 C 401.272 -0.727388 4.51174 0
M  V30 4306 C 402.269 -0.0251924 5.19894 0
M  V30 4307 C 399.954 -0.680256 4.97672 0
M  V30 4308 C 401.948 0.713374 6.33395 0
M  V30 4309 C 399.635 0.0620523 6.11068 0
M  V30 4310 C 400.633 0.757622 6.78785 0
M  V30 4311 O 400.321 1.48787 7.90011 0
M  V30 4312 H 400.053 -0.208051 0.643188 0
M  V30 4313 H 402.607 0.0167489 2.05393 0
M  V30 4314 H 400.837 -2.31508 3.09744 0
M  V30 4315 H 402.526 -2.11413 3.46496 0
M  V30 4316 H 403.292 -0.0526003 4.84971 0
M  V30 4317 H 399.171 -1.21116 4.44805 0
M  V30 4318 H 402.715 1.25683 6.86185 0
M  V30 4319 H 398.612 0.0913634 6.45435 0
M  V30 4320 H 399.38 1.40213 8.06401 0
M  V30 4321 N 402.043 -1.548 -0.295768 0
M  V30 4322 C 403.459 -1.4613 -0.641722 0
M  V30 4323 C 403.659 -0.656771 -1.90496 0
M  V30 4324 O 402.715 -0.166547 -2.5195 0
M  V30 4325 C 404.028 -2.90141 -0.789852 0
M  V30 4326 C 405.576 -3.00216 -0.885396 0
M  V30 4327 C 406.051 -4.45434 -1.06548 0
M  V30 4328 N 407.542 -4.49166 -1.13156 0
M  V30 4329 C 408.277 -5.58717 -1.28929 0
M  V30 4330 N 407.773 -6.78182 -1.41567 0
M  V30 4331 N 409.566 -5.46415 -1.31859 0
M  V30 4332 H 401.717 -2.05574 0.534147 0
M  V30 4333 H 403.98 -0.931259 0.177372 0
M  V30 4334 H 403.686 -3.51635 0.0675598 0
M  V30 4335 H 403.56 -3.37859 -1.67724 0
M  V30 4336 H 405.947 -2.38833 -1.73329 0
M  V30 4337 H 406.028 -2.55787 0.0261185 0
M  V30 4338 H 405.672 -5.07413 -0.222335 0
M  V30 4339 H 405.602 -4.87499 -1.9913 0
M  V30 4340 H 408.093 -3.631 -1.04721 0
M  V30 4341 H 408.406 -7.57428 -1.53372 0
M  V30 4342 H 406.751 -6.81037 -1.38613 0
M  V30 4343 H 409.942 -4.5203 -1.21601 0
M  V30 4344 H 410.115 -6.31841 -1.43808 0
M  V30 4345 N 403.521 0.559213 -1.47345 0
M  V30 4346 C 404.768 1.31648 -1.53867 0
M  V30 4347 C 405.096 1.93468 -0.200104 0
M  V30 4348 O 404.351 1.78295 0.806799 0
M  V30 4349 C 404.65 2.44853 -2.6035 0
M  V30 4350 C 404.316 2.00876 -4.03683 0
M  V30 4351 C 402.978 1.88599 -4.42701 0
M  V30 4352 C 405.33 1.67279 -4.93626 0
M  V30 4353 C 402.658 1.41017 -5.69501 0
M  V30 4354 C 405.01 1.21169 -6.20887 0
M  V30 4355 C 403.674 1.07487 -6.58789 0
M  V30 4356 H 402.944 0.481734 -0.56304 0
M  V30 4357 H 405.591 0.627301 -1.80934 0
M  V30 4358 H 403.896 3.19318 -2.27032 0
M  V30 4359 H 405.593 3.03039 -2.62619 0
M  V30 4360 H 402.183 2.11374 -3.72853 0
M  V30 4361 H 406.367 1.75638 -4.64182 0
M  V30 4362 H 401.623 1.29086 -5.97618 0
M  V30 4363 H 405.797 0.942345 -6.89995 0
M  V30 4364 H 403.424 0.703946 -7.56934 0
M  V30 4365 N 404.999 1.35443 0.805782 0
M  V30 4366 C 405.929 1.31095 1.93226 0
M  V30 4367 C 406.91 0.185244 1.69088 0
M  V30 4368 O 408.095 0.380332 1.90439 0
M  V30 4369 C 405.225 1.08299 3.29983 0
M  V30 4370 C 404.179 2.17519 3.68605 0
M  V30 4371 C 403.505 1.79887 5.03532 0
M  V30 4372 C 404.805 3.5949 3.78898 0
M  V30 4373 H 406.499 2.25352 1.97122 0
M  V30 4374 H 404.045 1.0848 0.946996 0
M  V30 4375 H 405.998 1.03897 4.08391 0
M  V30 4376 H 404.722 0.104885 3.26432 0
M  V30 4377 H 403.381 2.2102 2.92482 0
M  V30 4378 H 403.029 0.80693 4.96485 0
M  V30 4379 H 402.729 2.53001 5.30344 0
M  V30 4380 H 404.253 1.77011 5.84379 0
M  V30 4381 H 405.667 3.58307 4.47536 0
M  V30 4382 H 404.064 4.31371 4.1718 0
M  V30 4383 H 405.134 3.95584 2.80431 0
M  V30 4384 N 406.477 -1.02803 1.19454 0
M  V30 4385 C 407.407 -2.12999 0.956758 0
M  V30 4386 C 408.388 -1.69743 -0.110188 0
M  V30 4387 O 409.573 -1.94148 0.0450038 0
M  V30 4388 C 406.703 -3.43746 0.495553 0
M  V30 4389 C 405.657 -4.00688 1.50443 0
M  V30 4390 C 404.983 -5.27067 0.900275 0
M  V30 4391 C 406.283 -4.35397 2.8849 0
M  V30 4392 H 407.977 -2.33148 1.87836 0
M  V30 4393 H 405.523 -1.12045 0.904539 0
M  V30 4394 H 407.476 -4.2021 0.316493 0
M  V30 4395 H 406.2 -3.23321 -0.461646 0
M  V30 4396 H 404.859 -3.2632 1.67065 0
M  V30 4397 H 404.507 -5.02959 -0.064503 0
M  V30 4398 H 404.207 -5.66127 1.57397 0
M  V30 4399 H 405.731 -6.06196 0.73203 0
M  V30 4400 H 407.145 -5.02795 2.75446 0
M  V30 4401 H 405.542 -4.85541 3.52661 0
M  V30 4402 H 406.612 -3.44662 3.41081 0
M  V30 4403 N 407.956 -0.998596 -1.21925 0
M  V30 4404 C 408.886 -0.573688 -2.26343 0
M  V30 4405 C 409.867 0.402296 -1.65274 0
M  V30 4406 O 411.052 0.291683 -1.91997 0
M  V30 4407 C 408.182 0.106839 -3.47136 0
M  V30 4408 C 407.136 -0.788269 -4.20678 0
M  V30 4409 C 406.462 0.0254927 -5.34694 0
M  V30 4410 C 407.762 -2.08784 -4.78755 0
M  V30 4411 H 409.456 -1.44651 -2.62138 0
M  V30 4412 H 407.002 -0.696975 -1.26009 0
M  V30 4413 H 408.955 0.415531 -4.19346 0
M  V30 4414 H 407.679 1.01424 -3.10452 0
M  V30 4415 H 406.338 -1.08069 -3.50309 0
M  V30 4416 H 405.986 0.933989 -4.94253 0
M  V30 4417 H 405.686 -0.570437 -5.84825 0
M  V30 4418 H 407.21 0.328147 -6.09718 0
M  V30 4419 H 408.624 -1.84272 -5.42878 0
M  V30 4420 H 407.021 -2.63307 -5.39249 0
M  V30 4421 H 408.091 -2.76284 -3.98491 0
M  V30 4422 N 409.434 1.37368 -0.772513 0
M  V30 4423 C 410.382 2.32134 -0.147111 0
M  V30 4424 C 411.376 1.54972 0.684106 0
M  V30 4425 O 412.582 1.70363 0.581083 0
M  V30 4426 H 408.957 0.751449 -0.028786 0
M  V30 4427 H 410.928 2.82464 -0.962112 0
M  V30 4428 C 409.677 3.40226 0.71703 0
M  V30 4429 H 409 3.99706 0.0867951 0
M  V30 4430 H 410.44 4.08897 1.12159 0
M  V30 4431 C 408.899 2.80372 1.86797 0
M  V30 4432 O 409.429 2.71183 2.96349 0
M  V30 4433 N 407.635 2.37904 1.66883 0
M  V30 4434 H 407.182 2.45578 0.777759 0
M  V30 4435 H 407.14 1.98202 2.44056 0
M  V30 4436 N 410.912 0.523116 1.48665 0
M  V30 4437 C 412.328 0.180511 1.58576 0
M  V30 4438 C 412.528 -1.31597 1.52592 0
M  V30 4439 O 411.584 -2.0937 1.4114 0
M  V30 4440 C 412.897 0.776949 2.90489 0
M  V30 4441 C 414.445 0.745058 3.04003 0
M  V30 4442 C 414.92 1.31995 4.38567 0
M  V30 4443 N 416.411 1.28162 4.45117 0
M  V30 4444 C 417.146 1.6964 5.47731 0
M  V30 4445 N 416.642 2.18816 6.57337 0
M  V30 4446 N 418.435 1.6092 5.38573 0
M  V30 4447 H 410.586 1.4958 1.50797 0
M  V30 4448 H 412.849 0.621772 0.715614 0
M  V30 4449 H 412.555 1.82732 3.00503 0
M  V30 4450 H 412.429 0.25007 3.7637 0
M  V30 4451 H 414.816 -0.296532 2.93606 0
M  V30 4452 H 414.897 1.30933 2.1975 0
M  V30 4453 H 414.541 2.36043 4.49718 0
M  V30 4454 H 414.471 0.731418 5.21496 0
M  V30 4455 H 416.962 0.92155 3.66491 0
M  V30 4456 H 417.275 2.48478 7.31764 0
M  V30 4457 H 415.62 2.22805 6.58318 0
M  V30 4458 H 418.811 1.22304 4.5184 0
M  V30 4459 H 418.984 1.93567 6.18414 0
M  V30 4460 N 412.39 -1.55475 0.257931 0
M  V30 4461 C 413.806 -1.59307 -0.0966563 0
M  V30 4462 C 414.006 -1.27514 -1.5602 0
M  V30 4463 O 413.062 -1.02774 -2.30637 0
M  V30 4464 C 414.375 -2.99552 0.262481 0
M  V30 4465 C 415.923 -3.1231 0.207683 0
M  V30 4466 C 416.398 -4.54793 0.541012 0
M  V30 4467 N 417.889 -4.6058 0.491921 0
M  V30 4468 C 418.624 -5.68825 0.722857 0
M  V30 4469 N 418.12 -6.85287 1.0175 0
M  V30 4470 N 419.913 -5.58296 0.652815 0
M  V30 4471 H 412.064 -1.74409 1.21224 0
M  V30 4472 H 414.327 -0.812424 0.48854 0
M  V30 4473 H 414.033 -3.27593 1.27967 0
M  V30 4474 H 413.907 -3.75019 -0.40508 0
M  V30 4475 H 416.294 -2.84044 -0.800195 0
M  V30 4476 H 416.375 -2.39095 0.909255 0
M  V30 4477 H 416.019 -4.83783 1.5465 0
M  V30 4478 H 415.949 -5.26285 -0.18216 0
M  V30 4479 H 418.44 -3.7691 0.273366 0
M  V30 4480 H 418.753 -7.63725 1.18084 0
M  V30 4481 H 417.098 -6.86945 1.05509 0
M  V30 4482 H 420.289 -4.66189 0.422592 0
M  V30 4483 H 420.462 -6.42582 0.836182 0
M  V30 4484 N 413.868 0.0150385 -1.57593 0
M  V30 4485 C 415.093 0.718067 -1.94573 0
M  V30 4486 C 415.518 1.6734 -0.859005 0
M  V30 4487 O 414.876 1.80362 0.184147 0
M  V30 4488 C 414.924 1.43918 -3.30636 0
M  V30 4489 O 414.028 2.55299 -3.23876 0
M  V30 4490 H 413.369 0.192125 -0.635597 0
M  V30 4491 H 415.899 -0.0336708 -2.04572 0
M  V30 4492 H 415.909 1.80598 -3.65853 0
M  V30 4493 H 414.584 0.738619 -4.09289 0
M  V30 4494 H 413.161 2.21058 -3.00312 0
M  V30 4495 N 415.346 1.54954 0.287554 0
M  V30 4496 C 416.571 1.79209 1.04397 0
M  V30 4497 C 416.996 0.556431 1.79682 0
M  V30 4498 O 416.354 -0.493518 1.74454 0
M  V30 4499 C 416.402 3.00739 1.98969 0
M  V30 4500 O 415.506 2.74805 3.075 0
M  V30 4501 H 414.847 0.592755 0.299227 0
M  V30 4502 H 417.377 2.02068 0.320886 0
M  V30 4503 H 417.387 3.29077 2.4119 0
M  V30 4504 H 416.062 3.90329 1.43582 0
M  V30 4505 H 414.639 2.57523 2.69697 0
M  V30 4506 O 416.863 -0.433401 1.55576 0
M  V30 4507 H 417.554 -1.08681 1.60337 0
M  V30 END ATOM
M  V30 BEGIN BOND
M  V30 END BOND
M  V30 END CTAB
M  END
$$$$
